KWL.pdb
     RDKit          3D

 32 33  0  0  1  0  0  0  0  0999 V2000
    8.8140  -16.4672   19.3885 N   0  0  0  0  0  0  0  0  0  0  0  0
    9.4248  -15.2100   19.7247 C   0  0  1  0  0  0  0  0  0  0  0  0
    8.7803  -14.0523   18.9754 C   0  0  0  0  0  0  0  0  0  0  0  0
    9.0459  -14.1528   17.4899 C   0  0  0  0  0  0  0  0  0  0  0  0
    7.8390  -13.5246   16.7848 C   0  0  0  0  0  0  0  0  0  0  0  0
    8.1359  -13.5267   15.2957 C   0  0  0  0  0  0  0  0  0  0  0  0
    7.9122  -14.8887   14.8269 N   0  0  0  0  0  0  0  0  0  0  0  0
    9.4087  -14.9653   21.1872 C   0  0  0  0  0  0  0  0  0  0  0  0
    9.9663  -13.9367   21.6343 O   0  0  0  0  0  0  0  0  0  0  0  0
    8.7771  -15.8678   22.0925 N   0  0  0  0  0  0  0  0  0  0  0  0
    8.6734  -15.5655   23.4944 C   0  0  1  0  0  0  0  0  0  0  0  0
    7.5420  -16.3104   24.1558 C   0  0  0  0  0  0  0  0  0  0  0  0
    6.7014  -15.4327   24.9925 C   0  0  0  0  0  0  0  0  0  0  0  0
    5.5701  -15.7555   25.7132 C   0  0  0  0  0  0  0  0  0  0  0  0
    5.1174  -14.6619   26.3300 N   0  0  0  0  0  0  0  0  0  0  0  0
    5.8878  -13.5976   26.0662 C   0  0  0  0  0  0  0  0  0  0  0  0
    5.8902  -12.2559   26.4247 C   0  0  0  0  0  0  0  0  0  0  0  0
    6.8529  -11.3774   25.9735 C   0  0  0  0  0  0  0  0  0  0  0  0
    7.8440  -11.8901   25.1285 C   0  0  0  0  0  0  0  0  0  0  0  0
    7.8559  -13.2152   24.7643 C   0  0  0  0  0  0  0  0  0  0  0  0
    6.8922  -14.0850   25.2186 C   0  0  0  0  0  0  0  0  0  0  0  0
    9.9517  -16.0440   24.1372 C   0  0  0  0  0  0  0  0  0  0  0  0
   10.7020  -16.8359   23.4976 O   0  0  0  0  0  0  0  0  0  0  0  0
   11.3791  -13.1563   28.3792 C   0  0  0  0  0  0  0  0  0  0  0  0
   11.0417  -14.5708   27.9652 C   0  0  2  0  0  0  0  0  0  0  0  0
   10.5539  -15.4452   29.0827 C   0  0  0  0  0  0  0  0  0  0  0  0
   11.9996  -15.1983   27.0352 C   0  0  0  0  0  0  0  0  0  0  0  0
   11.5233  -16.2308   26.0886 C   0  0  2  0  0  0  0  0  0  0  0  0
   10.3360  -15.6336   25.4339 N   0  0  0  0  0  0  0  0  0  0  0  0
   11.1770  -17.5392   26.6102 C   0  0  0  0  0  0  0  0  0  0  0  0
    9.8680  -17.9602   26.7155 O   0  0  0  0  0  0  0  0  0  0  0  0
   12.0718  -18.3367   26.9895 O   0  0  0  0  0  0  0  0  0  0  0  0
  2  3  1  0
  2  1  1  1
  3  4  1  0
  5  4  1  0
  6  5  1  0
  7  6  1  0
  8  2  1  0
  8  9  2  0
 10  8  1  0
 11 10  1  0
 11 12  1  1
 13 14  2  0
 13 12  1  0
 15 14  1  0
 16 21  2  0
 16 15  1  0
 17 16  1  0
 18 19  1  0
 18 17  2  0
 19 20  2  0
 20 21  1  0
 21 13  1  0
 22 29  1  0
 22 11  1  0
 23 22  2  0
 25 24  1  1
 25 27  1  0
 26 25  1  0
 28 27  1  1
 28 29  1  0
 28 30  1  0
 30 32  2  0
 30 31  1  0
M  END
$$$$
