KWL.pdb
     RDKit          3D

 32 33  0  0  1  0  0  0  0  0999 V2000
   10.0364  -17.2941   19.3455 N   0  0  0  0  0  0  0  0  0  0  0  0
   10.4820  -15.9510   19.5990 C   0  0  1  0  0  0  0  0  0  0  0  0
    9.9798  -14.9814   18.5385 C   0  0  0  0  0  0  0  0  0  0  0  0
   10.3259  -15.4697   17.1495 C   0  0  0  0  0  0  0  0  0  0  0  0
    9.1830  -15.0251   16.2305 C   0  0  0  0  0  0  0  0  0  0  0  0
    9.3983  -13.5537   15.9236 C   0  0  0  0  0  0  0  0  0  0  0  0
    8.4613  -13.2067   14.8623 N   0  0  0  0  0  0  0  0  0  0  0  0
   10.0991  -15.4922   20.9561 C   0  0  0  0  0  0  0  0  0  0  0  0
   10.4422  -14.3458   21.3260 O   0  0  0  0  0  0  0  0  0  0  0  0
    9.3537  -16.3201   21.8461 N   0  0  0  0  0  0  0  0  0  0  0  0
    8.8867  -15.8220   23.1114 C   0  0  1  0  0  0  0  0  0  0  0  0
    7.4708  -16.2482   23.4043 C   0  0  0  0  0  0  0  0  0  0  0  0
    6.9333  -15.6189   24.6258 C   0  0  0  0  0  0  0  0  0  0  0  0
    6.3551  -16.2234   25.7230 C   0  0  0  0  0  0  0  0  0  0  0  0
    6.0052  -15.2854   26.6056 N   0  0  0  0  0  0  0  0  0  0  0  0
    6.3171  -14.0589   26.1649 C   0  0  0  0  0  0  0  0  0  0  0  0
    6.1882  -12.7636   26.6489 C   0  0  0  0  0  0  0  0  0  0  0  0
    6.6216  -11.6666   25.9342 C   0  0  0  0  0  0  0  0  0  0  0  0
    7.2052  -11.9046   24.6844 C   0  0  0  0  0  0  0  0  0  0  0  0
    7.3402  -13.1802   24.1912 C   0  0  0  0  0  0  0  0  0  0  0  0
    6.9055  -14.2691   24.9101 C   0  0  0  0  0  0  0  0  0  0  0  0
    9.7622  -16.4427   24.1718 C   0  0  0  0  0  0  0  0  0  0  0  0
   10.5330  -17.3932   23.8532 O   0  0  0  0  0  0  0  0  0  0  0  0
   11.5595  -13.6971   26.8081 C   0  0  0  0  0  0  0  0  0  0  0  0
   10.4473  -14.3048   27.6327 C   0  0  2  0  0  0  0  0  0  0  0  0
   10.1458  -13.5701   28.9058 C   0  0  0  0  0  0  0  0  0  0  0  0
   10.4736  -15.7761   27.7356 C   0  0  0  0  0  0  0  0  0  0  0  0
   10.6637  -16.5868   26.5127 C   0  0  2  0  0  0  0  0  0  0  0  0
    9.7465  -15.9934   25.5119 N   0  0  0  0  0  0  0  0  0  0  0  0
   10.4317  -18.0166   26.5887 C   0  0  0  0  0  0  0  0  0  0  0  0
   11.3584  -18.8785   27.1366 O   0  0  0  0  0  0  0  0  0  0  0  0
    9.3665  -18.5186   26.1484 O   0  0  0  0  0  0  0  0  0  0  0  0
  2  3  1  0
  2  1  1  6
  3  4  1  0
  5  4  1  0
  6  5  1  0
  7  6  1  0
  8  2  1  0
  8  9  2  0
 10  8  1  0
 11 10  1  0
 11 12  1  1
 13 14  2  0
 13 12  1  0
 15 14  1  0
 16 21  2  0
 16 15  1  0
 17 16  1  0
 18 19  1  0
 18 17  2  0
 19 20  2  0
 20 21  1  0
 21 13  1  0
 22 29  1  0
 22 11  1  0
 23 22  2  0
 25 24  1  1
 25 27  1  0
 26 25  1  0
 28 27  1  1
 28 29  1  0
 28 30  1  0
 30 32  2  0
 30 31  1  0
M  END
$$$$
