KWL.pdb
     RDKit          3D

 32 33  0  0  1  0  0  0  0  0999 V2000
   10.1261  -19.6367   20.5783 N   0  0  0  0  0  0  0  0  0  0  0  0
   11.1739  -18.6529   20.6110 C   0  0  1  0  0  0  0  0  0  0  0  0
   11.4393  -18.0666   19.2316 C   0  0  0  0  0  0  0  0  0  0  0  0
   10.8270  -18.9276   18.1493 C   0  0  0  0  0  0  0  0  0  0  0  0
   11.5465  -18.5699   16.8444 C   0  0  0  0  0  0  0  0  0  0  0  0
   10.9003  -19.3826   15.7364 C   0  0  0  0  0  0  0  0  0  0  0  0
   11.5766  -19.0139   14.4989 N   0  0  0  0  0  0  0  0  0  0  0  0
   10.8891  -17.5797   21.5939 C   0  0  0  0  0  0  0  0  0  0  0  0
   11.6186  -16.5616   21.6058 O   0  0  0  0  0  0  0  0  0  0  0  0
    9.8104  -17.6778   22.5212 N   0  0  0  0  0  0  0  0  0  0  0  0
    9.5290  -16.6177   23.4509 C   0  0  1  0  0  0  0  0  0  0  0  0
    8.0704  -16.2371   23.4566 C   0  0  0  0  0  0  0  0  0  0  0  0
    7.8684  -14.7757   23.4309 C   0  0  0  0  0  0  0  0  0  0  0  0
    8.1720  -13.8820   22.4245 C   0  0  0  0  0  0  0  0  0  0  0  0
    7.8265  -12.6526   22.8123 N   0  0  0  0  0  0  0  0  0  0  0  0
    7.2973  -12.6589   24.0433 C   0  0  0  0  0  0  0  0  0  0  0  0
    6.7847  -11.7047   24.9125 C   0  0  0  0  0  0  0  0  0  0  0  0
    6.2960  -12.0346   26.1592 C   0  0  0  0  0  0  0  0  0  0  0  0
    6.3338  -13.3847   26.5266 C   0  0  0  0  0  0  0  0  0  0  0  0
    6.8377  -14.3413   25.6783 C   0  0  0  0  0  0  0  0  0  0  0  0
    7.3233  -14.0041   24.4364 C   0  0  0  0  0  0  0  0  0  0  0  0
    9.8513  -17.1492   24.8256 C   0  0  0  0  0  0  0  0  0  0  0  0
    9.0544  -17.9656   25.3711 O   0  0  0  0  0  0  0  0  0  0  0  0
    8.9287  -13.4677   28.3982 C   0  0  0  0  0  0  0  0  0  0  0  0
    9.7953  -14.7067   28.4077 C   0  0  2  0  0  0  0  0  0  0  0  0
   10.8748  -14.7013   29.4499 C   0  0  0  0  0  0  0  0  0  0  0  0
   10.1946  -15.2040   27.0776 C   0  0  0  0  0  0  0  0  0  0  0  0
   10.9615  -16.4650   26.9732 C   0  0  2  0  0  0  0  0  0  0  0  0
   11.0181  -16.7614   25.5228 N   0  0  0  0  0  0  0  0  0  0  0  0
   10.4728  -17.6315   27.6833 C   0  0  0  0  0  0  0  0  0  0  0  0
   11.1877  -18.2152   28.7080 O   0  0  0  0  0  0  0  0  0  0  0  0
    9.3702  -18.1534   27.3789 O   0  0  0  0  0  0  0  0  0  0  0  0
  2  3  1  0
  2  1  1  6
  3  4  1  0
  5  4  1  0
  6  5  1  0
  7  6  1  0
  8  2  1  0
  8  9  2  0
 10  8  1  0
 11 10  1  0
 11 12  1  1
 13 14  2  0
 13 12  1  0
 15 14  1  0
 16 21  2  0
 16 15  1  0
 17 16  1  0
 18 19  1  0
 18 17  2  0
 19 20  2  0
 20 21  1  0
 21 13  1  0
 22 29  1  0
 22 11  1  0
 23 22  2  0
 25 24  1  6
 25 27  1  0
 26 25  1  0
 28 27  1  6
 28 29  1  0
 28 30  1  0
 30 32  2  0
 30 31  1  0
M  END
$$$$
