KWL.pdb
     RDKit          3D

 32 33  0  0  1  0  0  0  0  0999 V2000
    9.7117  -16.6679   19.1656 N   0  0  0  0  0  0  0  0  0  0  0  0
    9.5445  -15.2669   19.4410 C   0  0  1  0  0  0  0  0  0  0  0  0
    8.2460  -14.7290   18.8564 C   0  0  0  0  0  0  0  0  0  0  0  0
    8.5121  -13.8839   17.6306 C   0  0  0  0  0  0  0  0  0  0  0  0
    7.6978  -14.4998   16.4878 C   0  0  0  0  0  0  0  0  0  0  0  0
    7.9666  -13.6697   15.2450 C   0  0  0  0  0  0  0  0  0  0  0  0
    7.3222  -14.3595   14.1343 N   0  0  0  0  0  0  0  0  0  0  0  0
    9.6277  -14.9788   20.8932 C   0  0  0  0  0  0  0  0  0  0  0  0
   10.0642  -13.8651   21.2647 O   0  0  0  0  0  0  0  0  0  0  0  0
    9.2251  -15.9339   21.8724 N   0  0  0  0  0  0  0  0  0  0  0  0
    8.8357  -15.5257   23.1949 C   0  0  1  0  0  0  0  0  0  0  0  0
    7.4796  -16.0597   23.5800 C   0  0  0  0  0  0  0  0  0  0  0  0
    6.9558  -15.4354   24.8100 C   0  0  0  0  0  0  0  0  0  0  0  0
    6.3938  -16.0447   25.9130 C   0  0  0  0  0  0  0  0  0  0  0  0
    6.0522  -15.1101   26.8025 N   0  0  0  0  0  0  0  0  0  0  0  0
    6.3544  -13.8814   26.3611 C   0  0  0  0  0  0  0  0  0  0  0  0
    6.2274  -12.5878   26.8501 C   0  0  0  0  0  0  0  0  0  0  0  0
    6.6480  -11.4875   26.1327 C   0  0  0  0  0  0  0  0  0  0  0  0
    7.2163  -11.7203   24.8750 C   0  0  0  0  0  0  0  0  0  0  0  0
    7.3491  -12.9942   24.3767 C   0  0  0  0  0  0  0  0  0  0  0  0
    6.9272  -14.0864   25.0983 C   0  0  0  0  0  0  0  0  0  0  0  0
    9.8354  -16.1321   24.1483 C   0  0  0  0  0  0  0  0  0  0  0  0
   10.7336  -16.8966   23.6923 O   0  0  0  0  0  0  0  0  0  0  0  0
   11.2976  -13.3906   27.0685 C   0  0  0  0  0  0  0  0  0  0  0  0
   10.2983  -14.2970   27.7512 C   0  0  2  0  0  0  0  0  0  0  0  0
    9.7759  -13.7734   29.0567 C   0  0  0  0  0  0  0  0  0  0  0  0
   10.6350  -15.7331   27.7282 C   0  0  0  0  0  0  0  0  0  0  0  0
   10.8518  -16.4079   26.4295 C   0  0  2  0  0  0  0  0  0  0  0  0
    9.7980  -15.8714   25.5370 N   0  0  0  0  0  0  0  0  0  0  0  0
   10.8220  -17.8576   26.3907 C   0  0  0  0  0  0  0  0  0  0  0  0
    9.8087  -18.5505   25.7622 O   0  0  0  0  0  0  0  0  0  0  0  0
   11.7292  -18.5334   26.9391 O   0  0  0  0  0  0  0  0  0  0  0  0
  2  3  1  0
  2  1  1  1
  3  4  1  0
  5  4  1  0
  6  5  1  0
  7  6  1  0
  8  2  1  0
  8  9  2  0
 10  8  1  0
 11 10  1  0
 11 12  1  1
 13 14  2  0
 13 12  1  0
 15 14  1  0
 16 21  2  0
 16 15  1  0
 17 16  1  0
 18 19  1  0
 18 17  2  0
 19 20  2  0
 20 21  1  0
 21 13  1  0
 22 29  1  0
 22 11  1  0
 23 22  2  0
 25 24  1  1
 25 27  1  0
 26 25  1  0
 28 27  1  1
 28 29  1  0
 28 30  1  0
 30 32  2  0
 30 31  1  0
M  END
$$$$
