KWL.pdb
     RDKit          3D

 32 33  0  0  1  0  0  0  0  0999 V2000
   10.2761  -18.9051   20.2419 N   0  0  0  0  0  0  0  0  0  0  0  0
   10.8521  -17.5954   20.1020 C   0  0  1  0  0  0  0  0  0  0  0  0
   10.7006  -17.0619   18.6844 C   0  0  0  0  0  0  0  0  0  0  0  0
   11.6209  -17.7896   17.7299 C   0  0  0  0  0  0  0  0  0  0  0  0
   11.7624  -16.8981   16.4914 C   0  0  0  0  0  0  0  0  0  0  0  0
   12.8542  -17.5008   15.6251 C   0  0  0  0  0  0  0  0  0  0  0  0
   13.1226  -16.5398   14.5625 N   0  0  0  0  0  0  0  0  0  0  0  0
   10.2902  -16.6402   21.0873 C   0  0  0  0  0  0  0  0  0  0  0  0
   10.7371  -15.4705   21.1183 O   0  0  0  0  0  0  0  0  0  0  0  0
    9.2586  -17.0188   21.9960 N   0  0  0  0  0  0  0  0  0  0  0  0
    8.7238  -16.0827   22.9473 C   0  0  1  0  0  0  0  0  0  0  0  0
    7.4244  -16.5579   23.5457 C   0  0  0  0  0  0  0  0  0  0  0  0
    6.8869  -15.6171   24.5472 C   0  0  0  0  0  0  0  0  0  0  0  0
    6.2354  -15.8982   25.7305 C   0  0  0  0  0  0  0  0  0  0  0  0
    5.9158  -14.7530   26.3368 N   0  0  0  0  0  0  0  0  0  0  0  0
    6.3187  -13.6929   25.6229 C   0  0  0  0  0  0  0  0  0  0  0  0
    6.2554  -12.3130   25.7659 C   0  0  0  0  0  0  0  0  0  0  0  0
    6.7805  -11.4527   24.8245 C   0  0  0  0  0  0  0  0  0  0  0  0
    7.3896  -12.0246   23.7015 C   0  0  0  0  0  0  0  0  0  0  0  0
    7.4606  -13.3881   23.5449 C   0  0  0  0  0  0  0  0  0  0  0  0
    6.9344  -14.2394   24.4884 C   0  0  0  0  0  0  0  0  0  0  0  0
    9.7216  -15.9922   24.0752 C   0  0  0  0  0  0  0  0  0  0  0  0
   10.4933  -14.9921   24.1340 O   0  0  0  0  0  0  0  0  0  0  0  0
    9.9762  -14.6246   29.2501 C   0  0  0  0  0  0  0  0  0  0  0  0
   10.8325  -14.9626   28.0506 C   0  0  2  0  0  0  0  0  0  0  0  0
   11.8411  -13.9112   27.6919 C   0  0  0  0  0  0  0  0  0  0  0  0
   10.1119  -15.5697   26.9156 C   0  0  0  0  0  0  0  0  0  0  0  0
   10.6647  -16.7791   26.2671 C   0  0  2  0  0  0  0  0  0  0  0  0
    9.8201  -16.9927   25.0688 N   0  0  0  0  0  0  0  0  0  0  0  0
   10.7276  -18.0076   27.0356 C   0  0  0  0  0  0  0  0  0  0  0  0
   11.8817  -18.4115   27.6736 O   0  0  0  0  0  0  0  0  0  0  0  0
    9.7196  -18.7514   27.1411 O   0  0  0  0  0  0  0  0  0  0  0  0
  2  3  1  0
  2  1  1  6
  3  4  1  0
  5  4  1  0
  6  5  1  0
  7  6  1  0
  8  2  1  0
  8  9  2  0
 10  8  1  0
 11 10  1  0
 11 12  1  1
 13 14  2  0
 13 12  1  0
 15 14  1  0
 16 21  2  0
 16 15  1  0
 17 16  1  0
 18 19  1  0
 18 17  2  0
 19 20  2  0
 20 21  1  0
 21 13  1  0
 22 29  1  0
 22 11  1  0
 23 22  2  0
 25 24  1  1
 25 27  1  0
 26 25  1  0
 28 27  1  1
 28 29  1  0
 28 30  1  0
 30 32  2  0
 30 31  1  0
M  END
$$$$
