KWL.pdb
     RDKit          3D

 32 33  0  0  1  0  0  0  0  0999 V2000
   10.5514  -18.9435   21.0741 N   0  0  0  0  0  0  0  0  0  0  0  0
   11.2787  -17.7267   20.8352 C   0  0  1  0  0  0  0  0  0  0  0  0
   11.3598  -17.4013   19.3504 C   0  0  0  0  0  0  0  0  0  0  0  0
   12.0764  -18.4971   18.5933 C   0  0  0  0  0  0  0  0  0  0  0  0
   12.0396  -18.1040   17.1126 C   0  0  0  0  0  0  0  0  0  0  0  0
   12.8016  -19.1695   16.3446 C   0  0  0  0  0  0  0  0  0  0  0  0
   12.5656  -18.9135   14.9291 N   0  0  0  0  0  0  0  0  0  0  0  0
   10.7077  -16.5876   21.5938 C   0  0  0  0  0  0  0  0  0  0  0  0
   11.2442  -15.4607   21.4875 O   0  0  0  0  0  0  0  0  0  0  0  0
    9.5686  -16.7428   22.4373 N   0  0  0  0  0  0  0  0  0  0  0  0
    8.9881  -15.6180   23.1192 C   0  0  1  0  0  0  0  0  0  0  0  0
    7.4857  -15.7124   23.1975 C   0  0  0  0  0  0  0  0  0  0  0  0
    6.9404  -15.0492   24.3975 C   0  0  0  0  0  0  0  0  0  0  0  0
    6.3549  -15.6228   25.5074 C   0  0  0  0  0  0  0  0  0  0  0  0
    5.9996  -14.6604   26.3611 N   0  0  0  0  0  0  0  0  0  0  0  0
    6.3147  -13.4468   25.8885 C   0  0  0  0  0  0  0  0  0  0  0  0
    6.1831  -12.1384   26.3352 C   0  0  0  0  0  0  0  0  0  0  0  0
    6.6215  -11.0618   25.5930 C   0  0  0  0  0  0  0  0  0  0  0  0
    7.2132  -11.3347   24.3543 C   0  0  0  0  0  0  0  0  0  0  0  0
    7.3510  -12.6236   23.8977 C   0  0  0  0  0  0  0  0  0  0  0  0
    6.9112  -13.6919   24.6439 C   0  0  0  0  0  0  0  0  0  0  0  0
    9.5066  -15.6544   24.5355 C   0  0  0  0  0  0  0  0  0  0  0  0
    9.2093  -14.7107   25.3231 O   0  0  0  0  0  0  0  0  0  0  0  0
   10.9435  -13.9514   27.6214 C   0  0  0  0  0  0  0  0  0  0  0  0
    9.7645  -14.8962   27.6821 C   0  0  2  0  0  0  0  0  0  0  0  0
    8.8881  -14.7188   28.8870 C   0  0  0  0  0  0  0  0  0  0  0  0
   10.0585  -16.2921   27.3064 C   0  0  0  0  0  0  0  0  0  0  0  0
   11.0786  -16.5665   26.2705 C   0  0  2  0  0  0  0  0  0  0  0  0
   10.3156  -16.7124   25.0089 N   0  0  0  0  0  0  0  0  0  0  0  0
   11.9463  -17.7159   26.4427 C   0  0  0  0  0  0  0  0  0  0  0  0
   11.9503  -18.7679   25.5511 O   0  0  0  0  0  0  0  0  0  0  0  0
   12.7280  -17.7890   27.4247 O   0  0  0  0  0  0  0  0  0  0  0  0
  2  3  1  0
  2  1  1  6
  3  4  1  0
  5  4  1  0
  6  5  1  0
  7  6  1  0
  8  2  1  0
  8  9  2  0
 10  8  1  0
 11 10  1  0
 11 12  1  1
 13 14  2  0
 13 12  1  0
 15 14  1  0
 16 21  2  0
 16 15  1  0
 17 16  1  0
 18 19  1  0
 18 17  2  0
 19 20  2  0
 20 21  1  0
 21 13  1  0
 22 29  1  0
 22 11  1  0
 23 22  2  0
 25 24  1  1
 25 27  1  0
 26 25  1  0
 28 27  1  1
 28 29  1  0
 28 30  1  0
 30 32  2  0
 30 31  1  0
M  END
$$$$
