KWL.pdb
     RDKit          3D

 32 33  0  0  1  0  0  0  0  0999 V2000
    8.8640  -17.0856   20.5056 N   0  0  0  0  0  0  0  0  0  0  0  0
    9.6928  -15.9287   20.7091 C   0  0  1  0  0  0  0  0  0  0  0  0
    9.2600  -14.7641   19.8297 C   0  0  0  0  0  0  0  0  0  0  0  0
    8.9642  -15.2288   18.4211 C   0  0  0  0  0  0  0  0  0  0  0  0
    8.6167  -13.9761   17.6096 C   0  0  0  0  0  0  0  0  0  0  0  0
    8.3112  -14.4279   16.1924 C   0  0  0  0  0  0  0  0  0  0  0  0
    7.9016  -13.2396   15.4542 N   0  0  0  0  0  0  0  0  0  0  0  0
    9.7324  -15.5256   22.1356 C   0  0  0  0  0  0  0  0  0  0  0  0
   10.2886  -14.4464   22.4437 O   0  0  0  0  0  0  0  0  0  0  0  0
    9.1557  -16.3323   23.1601 N   0  0  0  0  0  0  0  0  0  0  0  0
    9.1174  -15.8859   24.5264 C   0  0  1  0  0  0  0  0  0  0  0  0
    7.9203  -16.4237   25.2682 C   0  0  0  0  0  0  0  0  0  0  0  0
    6.7959  -15.4686   25.2926 C   0  0  0  0  0  0  0  0  0  0  0  0
    5.4544  -15.7123   25.0816 C   0  0  0  0  0  0  0  0  0  0  0  0
    4.7786  -14.5669   25.1946 N   0  0  0  0  0  0  0  0  0  0  0  0
    5.5960  -13.5427   25.4748 C   0  0  0  0  0  0  0  0  0  0  0  0
    5.4466  -12.1791   25.6917 C   0  0  0  0  0  0  0  0  0  0  0  0
    6.5196  -11.3581   25.9686 C   0  0  0  0  0  0  0  0  0  0  0  0
    7.7852  -11.9531   26.0251 C   0  0  0  0  0  0  0  0  0  0  0  0
    7.9501  -13.3009   25.8129 C   0  0  0  0  0  0  0  0  0  0  0  0
    6.8749  -14.1130   25.5372 C   0  0  0  0  0  0  0  0  0  0  0  0
   10.3437  -16.4488   25.2013 C   0  0  0  0  0  0  0  0  0  0  0  0
   11.1942  -17.0758   24.5065 O   0  0  0  0  0  0  0  0  0  0  0  0
   11.0618  -15.1632   30.6184 C   0  0  0  0  0  0  0  0  0  0  0  0
   11.2386  -15.3407   29.1272 C   0  0  2  0  0  0  0  0  0  0  0  0
   10.2427  -14.5927   28.2906 C   0  0  0  0  0  0  0  0  0  0  0  0
   11.5336  -16.7182   28.6894 C   0  0  0  0  0  0  0  0  0  0  0  0
   11.6937  -17.0036   27.2465 C   0  0  2  0  0  0  0  0  0  0  0  0
   10.5706  -16.2964   26.5881 N   0  0  0  0  0  0  0  0  0  0  0  0
   11.7095  -18.3878   26.8137 C   0  0  0  0  0  0  0  0  0  0  0  0
   10.5593  -19.0474   26.4344 O   0  0  0  0  0  0  0  0  0  0  0  0
   12.7859  -19.0361   26.7744 O   0  0  0  0  0  0  0  0  0  0  0  0
  2  3  1  0
  2  1  1  1
  3  4  1  0
  5  4  1  0
  6  5  1  0
  7  6  1  0
  8  2  1  0
  8  9  2  0
 10  8  1  0
 11 10  1  0
 11 12  1  1
 13 14  2  0
 13 12  1  0
 15 14  1  0
 16 21  2  0
 16 15  1  0
 17 16  1  0
 18 19  1  0
 18 17  2  0
 19 20  2  0
 20 21  1  0
 21 13  1  0
 22 29  1  0
 22 11  1  0
 23 22  2  0
 25 24  1  1
 25 27  1  0
 26 25  1  0
 28 27  1  1
 28 29  1  0
 28 30  1  0
 30 32  2  0
 30 31  1  0
M  END
$$$$
