VHQ.pdb
     RDKit          3D

 27 27  0  0  1  0  0  0  0  0999 V2000
   22.8973  -20.4311  -23.2665 C   0  0  0  0  0  0  0  0  0  0  0  0
   24.0411  -21.3605  -22.9441 C   0  0  1  0  0  0  0  0  0  0  0  0
   24.4504  -22.1720  -24.1458 C   0  0  0  0  0  0  0  0  0  0  0  0
   25.2464  -20.6109  -22.3930 C   0  0  2  0  0  0  0  0  0  0  0  0
   26.2052  -21.5893  -21.9641 N   0  0  0  0  0  0  0  0  0  0  0  0
   24.8408  -19.7358  -21.2508 C   0  0  0  0  0  0  0  0  0  0  0  0
   24.6252  -20.2182  -20.1372 O   0  0  0  0  0  0  0  0  0  0  0  0
   24.7036  -18.3500  -21.4466 N   0  0  0  0  0  0  0  0  0  0  0  0
   24.2522  -17.3506  -20.5569 C   0  0  1  0  0  0  0  0  0  0  0  0
   24.8259  -15.9596  -20.7003 C   0  0  0  0  0  0  0  0  0  0  0  0
   26.2582  -15.8737  -20.3462 C   0  0  0  0  0  0  0  0  0  0  0  0
   26.9186  -16.9532  -19.7086 C   0  0  0  0  0  0  0  0  0  0  0  0
   28.2059  -16.6344  -19.4953 N   0  0  0  0  0  0  0  0  0  0  0  0
   28.3933  -15.4020  -19.9682 C   0  0  0  0  0  0  0  0  0  0  0  0
   27.2207  -14.9731  -20.4682 N   0  0  0  0  0  0  0  0  0  0  0  0
   22.8190  -17.3885  -20.2098 C   0  0  0  0  0  0  0  0  0  0  0  0
   21.9232  -17.5569  -21.1146 O   0  0  0  0  0  0  0  0  0  0  0  0
   19.5308  -21.0988  -17.1588 N   0  0  0  0  0  0  0  0  0  0  0  0
   18.5752  -20.0772  -17.3979 C   0  0  0  0  0  0  0  0  0  0  0  0
   17.3712  -20.3097  -17.1790 O   0  0  0  0  0  0  0  0  0  0  0  0
   19.0405  -18.7851  -17.8957 C   0  0  0  0  0  0  0  0  0  0  0  0
   20.5231  -18.6372  -18.0463 C   0  0  0  0  0  0  0  0  0  0  0  0
   20.8924  -17.3189  -18.6159 C   0  0  2  0  0  0  0  0  0  0  0  0
   22.3305  -17.2476  -18.8927 N   0  0  0  0  0  0  0  0  0  0  0  0
   20.5629  -16.2185  -17.6952 C   0  0  0  0  0  0  0  0  0  0  0  0
   19.4156  -15.7012  -17.6521 O   0  0  0  0  0  0  0  0  0  0  0  0
   21.5110  -15.7150  -16.8372 O   0  0  0  0  0  0  0  0  0  0  0  0
  2  1  1  6
  3  2  1  0
  4  2  1  0
  4  5  1  1
  6  4  1  0
  7  6  2  0
  8  6  1  0
  9  8  1  0
 10 11  1  0
  9 10  1  6
 11 15  1  0
 12 13  1  0
 12 11  2  0
 13 14  1  0
 14 15  2  0
 16 24  1  0
 16  9  1  0
 17 16  2  0
 19 18  1  0
 20 19  2  0
 21 19  1  0
 22 21  1  0
 23 24  1  0
 23 22  1  1
 25 23  1  0
 26 25  2  0
 27 25  1  0
M  END
$$$$
