VHQ.pdb
     RDKit          3D

 27 27  0  0  1  0  0  0  0  0999 V2000
   13.8554  -10.7849  -14.0979 C   0  0  0  0  0  0  0  0  0  0  0  0
   14.5283  -10.3548  -15.3780 C   0  0  1  0  0  0  0  0  0  0  0  0
   14.0810   -8.9804  -15.8035 C   0  0  0  0  0  0  0  0  0  0  0  0
   16.0462  -10.3913  -15.2640 C   0  0  2  0  0  0  0  0  0  0  0  0
   16.4320  -11.7589  -15.0612 N   0  0  0  0  0  0  0  0  0  0  0  0
   16.5058   -9.5404  -14.1239 C   0  0  0  0  0  0  0  0  0  0  0  0
   16.5136   -9.9840  -12.9740 O   0  0  0  0  0  0  0  0  0  0  0  0
   16.9331   -8.2222  -14.3637 N   0  0  0  0  0  0  0  0  0  0  0  0
   17.4035   -7.2448  -13.4595 C   0  0  1  0  0  0  0  0  0  0  0  0
   18.7539   -6.6206  -13.7268 C   0  0  0  0  0  0  0  0  0  0  0  0
   19.8595   -7.6007  -13.7607 C   0  0  0  0  0  0  0  0  0  0  0  0
   20.4263   -8.0196  -14.9901 C   0  0  0  0  0  0  0  0  0  0  0  0
   21.4087   -8.9056  -14.7574 N   0  0  0  0  0  0  0  0  0  0  0  0
   21.4918   -9.0685  -13.4367 C   0  0  0  0  0  0  0  0  0  0  0  0
   20.5606   -8.2821  -12.8682 N   0  0  0  0  0  0  0  0  0  0  0  0
   16.3927   -6.3116  -12.9274 C   0  0  0  0  0  0  0  0  0  0  0  0
   15.4944   -5.8028  -13.6915 O   0  0  0  0  0  0  0  0  0  0  0  0
   12.5964   -3.6630   -7.1577 N   0  0  0  0  0  0  0  0  0  0  0  0
   13.7214   -4.3484   -7.6855 C   0  0  0  0  0  0  0  0  0  0  0  0
   14.5025   -4.9239   -6.9043 O   0  0  0  0  0  0  0  0  0  0  0  0
   13.9240   -4.3526   -9.1322 C   0  0  0  0  0  0  0  0  0  0  0  0
   15.0657   -5.1837   -9.6307 C   0  0  0  0  0  0  0  0  0  0  0  0
   15.2508   -5.0475  -11.0955 C   0  0  2  0  0  0  0  0  0  0  0  0
   16.3323   -5.9144  -11.5739 N   0  0  0  0  0  0  0  0  0  0  0  0
   15.5901   -3.6657  -11.4734 C   0  0  0  0  0  0  0  0  0  0  0  0
   14.7096   -2.7810  -11.6403 O   0  0  0  0  0  0  0  0  0  0  0  0
   16.8995   -3.2904  -11.6556 O   0  0  0  0  0  0  0  0  0  0  0  0
  2  1  1  1
  3  2  1  0
  4  2  1  0
  4  5  1  1
  6  4  1  0
  7  6  2  0
  8  6  1  0
  9  8  1  0
 10 11  1  0
  9 10  1  6
 11 15  1  0
 12 13  1  0
 12 11  2  0
 13 14  1  0
 14 15  2  0
 16 24  1  0
 16  9  1  0
 17 16  2  0
 19 18  1  0
 20 19  2  0
 21 19  1  0
 22 21  1  0
 23 24  1  0
 23 22  1  1
 25 23  1  0
 26 25  2  0
 27 25  1  0
M  END
$$$$
