VHQ.pdb
     RDKit          3D

 27 27  0  0  1  0  0  0  0  0999 V2000
   26.4367   -9.6001  -22.6800 C   0  0  0  0  0  0  0  0  0  0  0  0
   25.2329   -9.2741  -21.8311 C   0  0  1  0  0  0  0  0  0  0  0  0
   24.0364  -10.0995  -22.2275 C   0  0  0  0  0  0  0  0  0  0  0  0
   25.5165   -9.4564  -20.3462 C   0  0  2  0  0  0  0  0  0  0  0  0
   25.9255  -10.8180  -20.1479 N   0  0  0  0  0  0  0  0  0  0  0  0
   24.2957   -9.1509  -19.5392 C   0  0  0  0  0  0  0  0  0  0  0  0
   23.8025   -8.0214  -19.5515 O   0  0  0  0  0  0  0  0  0  0  0  0
   23.7036  -10.1598  -18.7585 N   0  0  0  0  0  0  0  0  0  0  0  0
   22.5990  -10.0941  -17.8813 C   0  0  1  0  0  0  0  0  0  0  0  0
   21.7693  -11.3427  -17.6886 C   0  0  0  0  0  0  0  0  0  0  0  0
   20.6087  -11.1466  -16.7948 C   0  0  0  0  0  0  0  0  0  0  0  0
   20.4229   -9.9277  -16.0963 C   0  0  0  0  0  0  0  0  0  0  0  0
   19.3034   -9.9952  -15.3571 N   0  0  0  0  0  0  0  0  0  0  0  0
   18.7697  -11.2011  -15.5542 C   0  0  0  0  0  0  0  0  0  0  0  0
   19.5646  -11.8649  -16.4122 N   0  0  0  0  0  0  0  0  0  0  0  0
   22.7864   -9.2895  -16.6593 C   0  0  0  0  0  0  0  0  0  0  0  0
   23.6932   -9.5909  -15.8010 O   0  0  0  0  0  0  0  0  0  0  0  0
   24.6222   -3.8815  -16.1681 N   0  0  0  0  0  0  0  0  0  0  0  0
   23.2493   -3.9131  -16.5261 C   0  0  0  0  0  0  0  0  0  0  0  0
   22.7615   -2.9482  -17.1447 O   0  0  0  0  0  0  0  0  0  0  0  0
   22.4545   -5.0805  -16.1529 C   0  0  0  0  0  0  0  0  0  0  0  0
   23.2069   -6.2083  -15.5168 C   0  0  0  0  0  0  0  0  0  0  0  0
   22.3150   -7.3394  -15.1651 C   0  0  2  0  0  0  0  0  0  0  0  0
   22.0071   -8.1553  -16.3439 N   0  0  0  0  0  0  0  0  0  0  0  0
   21.0373   -6.8692  -14.6052 C   0  0  0  0  0  0  0  0  0  0  0  0
   19.9681   -6.8839  -15.2704 O   0  0  0  0  0  0  0  0  0  0  0  0
   20.9688   -6.3949  -13.3173 O   0  0  0  0  0  0  0  0  0  0  0  0
  2  1  1  6
  3  2  1  0
  4  2  1  0
  4  5  1  6
  6  4  1  0
  7  6  2  0
  8  6  1  0
  9  8  1  0
 10 11  1  0
  9 10  1  1
 11 15  1  0
 12 13  1  0
 12 11  2  0
 13 14  1  0
 14 15  2  0
 16 24  1  0
 16  9  1  0
 17 16  2  0
 19 18  1  0
 20 19  2  0
 21 19  1  0
 22 21  1  0
 23 24  1  0
 23 22  1  6
 25 23  1  0
 26 25  2  0
 27 25  1  0
M  END
$$$$
