VHQ.pdb
     RDKit          3D

 27 27  0  0  1  0  0  0  0  0999 V2000
   17.5858  -10.8603  -19.7789 C   0  0  0  0  0  0  0  0  0  0  0  0
   18.3489  -10.0929  -18.7278 C   0  0  1  0  0  0  0  0  0  0  0  0
   17.4459   -9.1687  -17.9527 C   0  0  0  0  0  0  0  0  0  0  0  0
   19.0855  -11.0183  -17.7690 C   0  0  2  0  0  0  0  0  0  0  0  0
   18.1063  -11.8608  -17.1429 N   0  0  0  0  0  0  0  0  0  0  0  0
   19.8295  -10.2246  -16.7436 C   0  0  0  0  0  0  0  0  0  0  0  0
   19.2619   -9.8306  -15.7228 O   0  0  0  0  0  0  0  0  0  0  0  0
   21.1886   -9.9239  -16.9436 N   0  0  0  0  0  0  0  0  0  0  0  0
   22.0679   -9.1447  -16.1602 C   0  0  1  0  0  0  0  0  0  0  0  0
   23.5233   -9.5494  -16.1101 C   0  0  0  0  0  0  0  0  0  0  0  0
   23.7312  -10.9486  -15.6819 C   0  0  0  0  0  0  0  0  0  0  0  0
   22.6360  -11.7720  -15.3206 C   0  0  0  0  0  0  0  0  0  0  0  0
   23.0808  -12.9910  -14.9736 N   0  0  0  0  0  0  0  0  0  0  0  0
   24.4082  -12.9795  -15.0981 C   0  0  0  0  0  0  0  0  0  0  0  0
   24.7689  -11.7546  -15.5202 N   0  0  0  0  0  0  0  0  0  0  0  0
   21.8383   -7.6877  -16.1801 C   0  0  0  0  0  0  0  0  0  0  0  0
   21.7630   -7.0448  -17.2894 O   0  0  0  0  0  0  0  0  0  0  0  0
   17.2875   -4.3764  -15.0153 N   0  0  0  0  0  0  0  0  0  0  0  0
   18.2619   -3.3486  -15.1044 C   0  0  0  0  0  0  0  0  0  0  0  0
   17.8901   -2.1599  -15.1186 O   0  0  0  0  0  0  0  0  0  0  0  0
   19.6717   -3.7241  -15.1781 C   0  0  0  0  0  0  0  0  0  0  0  0
   19.9637   -5.1905  -15.0936 C   0  0  0  0  0  0  0  0  0  0  0  0
   21.4205   -5.4662  -15.1088 C   0  0  2  0  0  0  0  0  0  0  0  0
   21.6866   -6.9051  -15.0149 N   0  0  0  0  0  0  0  0  0  0  0  0
   22.1080   -4.8137  -13.9825 C   0  0  0  0  0  0  0  0  0  0  0  0
   22.4360   -5.4428  -12.9421 O   0  0  0  0  0  0  0  0  0  0  0  0
   22.4218   -3.4767  -14.0327 O   0  0  0  0  0  0  0  0  0  0  0  0
  2  1  1  6
  3  2  1  0
  4  2  1  0
  4  5  1  1
  6  4  1  0
  7  6  2  0
  8  6  1  0
  9  8  1  0
 10 11  1  0
  9 10  1  6
 11 15  1  0
 12 13  1  0
 12 11  2  0
 13 14  1  0
 14 15  2  0
 16 24  1  0
 16  9  1  0
 17 16  2  0
 19 18  1  0
 20 19  2  0
 21 19  1  0
 22 21  1  0
 23 24  1  0
 23 22  1  1
 25 23  1  0
 26 25  2  0
 27 25  1  0
M  END
$$$$
