VHQ.pdb
     RDKit          3D

 27 27  0  0  1  0  0  0  0  0999 V2000
   21.6303  -36.8525  -10.2497 C   0  0  0  0  0  0  0  0  0  0  0  0
   22.9215  -36.7436   -9.4770 C   0  0  1  0  0  0  0  0  0  0  0  0
   23.6372  -35.4516   -9.7747 C   0  0  0  0  0  0  0  0  0  0  0  0
   22.7006  -36.8772   -7.9764 C   0  0  2  0  0  0  0  0  0  0  0  0
   21.7863  -35.8440   -7.5801 N   0  0  0  0  0  0  0  0  0  0  0  0
   23.9963  -36.7430   -7.2429 C   0  0  0  0  0  0  0  0  0  0  0  0
   24.9260  -37.5212   -7.4651 O   0  0  0  0  0  0  0  0  0  0  0  0
   24.1576  -35.7207   -6.2908 N   0  0  0  0  0  0  0  0  0  0  0  0
   25.2839  -35.3811   -5.5096 C   0  0  1  0  0  0  0  0  0  0  0  0
   25.6415  -33.9186   -5.3762 C   0  0  0  0  0  0  0  0  0  0  0  0
   25.6889  -33.2035   -6.6687 C   0  0  0  0  0  0  0  0  0  0  0  0
   26.8101  -33.3208   -7.5273 C   0  0  0  0  0  0  0  0  0  0  0  0
   26.6135  -32.5832   -8.6325 N   0  0  0  0  0  0  0  0  0  0  0  0
   25.4189  -32.0029   -8.5152 C   0  0  0  0  0  0  0  0  0  0  0  0
   24.8908  -32.3879   -7.3397 N   0  0  0  0  0  0  0  0  0  0  0  0
   25.4876  -36.1751   -4.2833 C   0  0  0  0  0  0  0  0  0  0  0  0
   24.5128  -36.4196   -3.4837 O   0  0  0  0  0  0  0  0  0  0  0  0
   29.6625  -39.9910    0.3790 N   0  0  0  0  0  0  0  0  0  0  0  0
   29.5283  -39.2374   -0.8160 C   0  0  0  0  0  0  0  0  0  0  0  0
   30.5266  -38.6561   -1.2819 O   0  0  0  0  0  0  0  0  0  0  0  0
   28.2179  -39.1694   -1.4580 C   0  0  0  0  0  0  0  0  0  0  0  0
   28.1225  -38.2785   -2.6580 C   0  0  0  0  0  0  0  0  0  0  0  0
   26.8675  -37.4889   -2.6624 C   0  0  2  0  0  0  0  0  0  0  0  0
   26.7347  -36.7154   -3.9009 N   0  0  0  0  0  0  0  0  0  0  0  0
   26.8203  -36.5388   -1.5389 C   0  0  0  0  0  0  0  0  0  0  0  0
   26.5132  -36.8963   -0.3711 O   0  0  0  0  0  0  0  0  0  0  0  0
   27.1179  -35.2110   -1.7311 O   0  0  0  0  0  0  0  0  0  0  0  0
  2  1  1  6
  3  2  1  0
  4  2  1  0
  4  5  1  1
  6  4  1  0
  7  6  2  0
  8  6  1  0
  9  8  1  0
 10 11  1  0
  9 10  1  1
 11 15  1  0
 12 13  1  0
 12 11  2  0
 13 14  1  0
 14 15  2  0
 16 24  1  0
 16  9  1  0
 17 16  2  0
 19 18  1  0
 20 19  2  0
 21 19  1  0
 22 21  1  0
 23 24  1  0
 23 22  1  6
 25 23  1  0
 26 25  2  0
 27 25  1  0
M  END
$$$$
