VHQ.pdb
     RDKit          3D

 27 27  0  0  1  0  0  0  0  0999 V2000
   26.8615  -13.2925  -17.2184 C   0  0  0  0  0  0  0  0  0  0  0  0
   26.3358  -13.5180  -15.8224 C   0  0  1  0  0  0  0  0  0  0  0  0
   26.4096  -12.2618  -14.9936 C   0  0  0  0  0  0  0  0  0  0  0  0
   24.9084  -14.0481  -15.8296 C   0  0  2  0  0  0  0  0  0  0  0  0
   24.9118  -15.2896  -16.5503 N   0  0  0  0  0  0  0  0  0  0  0  0
   23.9885  -13.0651  -16.4794 C   0  0  0  0  0  0  0  0  0  0  0  0
   24.0963  -12.8040  -17.6792 O   0  0  0  0  0  0  0  0  0  0  0  0
   22.9910  -12.4318  -15.7168 N   0  0  0  0  0  0  0  0  0  0  0  0
   22.0402  -11.4600  -16.0986 C   0  0  1  0  0  0  0  0  0  0  0  0
   20.6609  -11.9330  -16.4965 C   0  0  0  0  0  0  0  0  0  0  0  0
   20.6763  -13.0013  -17.5176 C   0  0  0  0  0  0  0  0  0  0  0  0
   20.3081  -14.3299  -17.1898 C   0  0  0  0  0  0  0  0  0  0  0  0
   20.4012  -15.1080  -18.2808 N   0  0  0  0  0  0  0  0  0  0  0  0
   20.8117  -14.3346  -19.2862 C   0  0  0  0  0  0  0  0  0  0  0  0
   20.9676  -13.0880  -18.8060 N   0  0  0  0  0  0  0  0  0  0  0  0
   22.0576  -10.1984  -15.3345 C   0  0  0  0  0  0  0  0  0  0  0  0
   22.2564  -10.1958  -14.0656 O   0  0  0  0  0  0  0  0  0  0  0  0
   22.8222   -4.1398  -17.3094 N   0  0  0  0  0  0  0  0  0  0  0  0
   22.5430   -4.0380  -15.9217 C   0  0  0  0  0  0  0  0  0  0  0  0
   22.5057   -2.9115  -15.3916 O   0  0  0  0  0  0  0  0  0  0  0  0
   22.3101   -5.2638  -15.1621 C   0  0  0  0  0  0  0  0  0  0  0  0
   22.2635   -6.5298  -15.9608 C   0  0  0  0  0  0  0  0  0  0  0  0
   21.9647   -7.7085  -15.1122 C   0  0  2  0  0  0  0  0  0  0  0  0
   21.8633   -8.9283  -15.9196 N   0  0  0  0  0  0  0  0  0  0  0  0
   20.6924   -7.5481  -14.3893 C   0  0  0  0  0  0  0  0  0  0  0  0
   19.5950   -7.9368  -14.8693 O   0  0  0  0  0  0  0  0  0  0  0  0
   20.6616   -6.9629  -13.1463 O   0  0  0  0  0  0  0  0  0  0  0  0
  2  1  1  6
  3  2  1  0
  4  2  1  0
  4  5  1  6
  6  4  1  0
  7  6  2  0
  8  6  1  0
  9  8  1  0
 10 11  1  0
  9 10  1  1
 11 15  1  0
 12 13  1  0
 12 11  2  0
 13 14  1  0
 14 15  2  0
 16 24  1  0
 16  9  1  0
 17 16  2  0
 19 18  1  0
 20 19  2  0
 21 19  1  0
 22 21  1  0
 23 24  1  0
 23 22  1  6
 25 23  1  0
 26 25  2  0
 27 25  1  0
M  END
$$$$
