VHQ.pdb
     RDKit          3D

 27 27  0  0  1  0  0  0  0  0999 V2000
   27.0528  -19.9188   -6.5400 C   0  0  0  0  0  0  0  0  0  0  0  0
   27.0312  -19.9869   -8.0470 C   0  0  1  0  0  0  0  0  0  0  0  0
   27.7016  -21.2374   -8.5540 C   0  0  0  0  0  0  0  0  0  0  0  0
   25.6157  -19.8993   -8.6011 C   0  0  2  0  0  0  0  0  0  0  0  0
   24.9326  -21.1079   -8.2359 N   0  0  0  0  0  0  0  0  0  0  0  0
   25.6447  -19.7400  -10.0873 C   0  0  0  0  0  0  0  0  0  0  0  0
   26.2202  -18.7801  -10.6038 O   0  0  0  0  0  0  0  0  0  0  0  0
   25.0103  -20.6924  -10.9047 N   0  0  0  0  0  0  0  0  0  0  0  0
   24.9245  -20.7633  -12.3125 C   0  0  1  0  0  0  0  0  0  0  0  0
   25.9118  -21.6457  -13.0412 C   0  0  0  0  0  0  0  0  0  0  0  0
   27.2974  -21.1326  -13.0070 C   0  0  0  0  0  0  0  0  0  0  0  0
   28.2913  -21.7661  -12.2203 C   0  0  0  0  0  0  0  0  0  0  0  0
   29.4596  -21.1178  -12.3584 N   0  0  0  0  0  0  0  0  0  0  0  0
   29.2532  -20.1018  -13.1967 C   0  0  0  0  0  0  0  0  0  0  0  0
   27.9607  -20.1333  -13.5672 N   0  0  0  0  0  0  0  0  0  0  0  0
   23.5634  -20.7685  -12.8812 C   0  0  0  0  0  0  0  0  0  0  0  0
   22.6804  -21.6088  -12.4766 O   0  0  0  0  0  0  0  0  0  0  0  0
   19.5528  -17.4567  -12.1681 N   0  0  0  0  0  0  0  0  0  0  0  0
   19.6956  -17.6277  -13.5697 C   0  0  0  0  0  0  0  0  0  0  0  0
   18.6832  -17.8529  -14.2595 O   0  0  0  0  0  0  0  0  0  0  0  0
   21.0309  -17.5343  -14.1545 C   0  0  0  0  0  0  0  0  0  0  0  0
   21.4159  -18.6413  -15.0868 C   0  0  0  0  0  0  0  0  0  0  0  0
   21.7451  -19.8895  -14.3572 C   0  0  2  0  0  0  0  0  0  0  0  0
   23.1338  -19.8755  -13.8867 N   0  0  0  0  0  0  0  0  0  0  0  0
   21.5781  -21.0771  -15.2109 C   0  0  0  0  0  0  0  0  0  0  0  0
   22.5363  -21.5795  -15.8554 O   0  0  0  0  0  0  0  0  0  0  0  0
   20.3525  -21.6871  -15.3311 O   0  0  0  0  0  0  0  0  0  0  0  0
  2  1  1  1
  3  2  1  0
  4  2  1  0
  4  5  1  6
  6  4  1  0
  7  6  2  0
  8  6  1  0
  9  8  1  0
 10 11  1  0
  9 10  1  1
 11 15  1  0
 12 13  1  0
 12 11  2  0
 13 14  1  0
 14 15  2  0
 16 24  1  0
 16  9  1  0
 17 16  2  0
 19 18  1  0
 20 19  2  0
 21 19  1  0
 22 21  1  0
 23 24  1  0
 23 22  1  6
 25 23  1  0
 26 25  2  0
 27 25  1  0
M  END
$$$$
