VHQ.pdb
     RDKit          3D

 27 27  0  0  1  0  0  0  0  0999 V2000
   25.3054  -25.6093  -15.8570 C   0  0  0  0  0  0  0  0  0  0  0  0
   24.4379  -24.4225  -15.5174 C   0  0  1  0  0  0  0  0  0  0  0  0
   24.3827  -24.1848  -14.0306 C   0  0  0  0  0  0  0  0  0  0  0  0
   24.9014  -23.1567  -16.2254 C   0  0  2  0  0  0  0  0  0  0  0  0
   26.2819  -22.9536  -15.8888 N   0  0  0  0  0  0  0  0  0  0  0  0
   24.0774  -21.9856  -15.7961 C   0  0  0  0  0  0  0  0  0  0  0  0
   22.8667  -21.9533  -16.0252 O   0  0  0  0  0  0  0  0  0  0  0  0
   24.6870  -20.9106  -15.1251 N   0  0  0  0  0  0  0  0  0  0  0  0
   24.1399  -19.6781  -14.7059 C   0  0  1  0  0  0  0  0  0  0  0  0
   24.7511  -19.0026  -13.4997 C   0  0  0  0  0  0  0  0  0  0  0  0
   24.7355  -19.8423  -12.2836 C   0  0  0  0  0  0  0  0  0  0  0  0
   24.1633  -21.1386  -12.2986 C   0  0  0  0  0  0  0  0  0  0  0  0
   24.2737  -21.6966  -11.0818 N   0  0  0  0  0  0  0  0  0  0  0  0
   24.8898  -20.8142  -10.2948 C   0  0  0  0  0  0  0  0  0  0  0  0
   25.1531  -19.7214  -11.0332 N   0  0  0  0  0  0  0  0  0  0  0  0
   23.7213  -18.7548  -15.7775 C   0  0  0  0  0  0  0  0  0  0  0  0
   24.5890  -18.1338  -16.4923 O   0  0  0  0  0  0  0  0  0  0  0  0
   22.9559  -20.7150  -20.6159 N   0  0  0  0  0  0  0  0  0  0  0  0
   22.3309  -19.4807  -20.9324 C   0  0  0  0  0  0  0  0  0  0  0  0
   22.0927  -19.2097  -22.1246 O   0  0  0  0  0  0  0  0  0  0  0  0
   21.9898  -18.5686  -19.8436 C   0  0  0  0  0  0  0  0  0  0  0  0
   22.4008  -19.0050  -18.4712 C   0  0  0  0  0  0  0  0  0  0  0  0
   21.9954  -18.0252  -17.4346 C   0  0  2  0  0  0  0  0  0  0  0  0
   22.3719  -18.4876  -16.0951 N   0  0  0  0  0  0  0  0  0  0  0  0
   20.5397  -17.8058  -17.4352 C   0  0  0  0  0  0  0  0  0  0  0  0
   19.9923  -16.9415  -18.1695 O   0  0  0  0  0  0  0  0  0  0  0  0
   19.7183  -18.5514  -16.6240 O   0  0  0  0  0  0  0  0  0  0  0  0
  2  1  1  1
  3  2  1  0
  4  2  1  0
  4  5  1  1
  6  4  1  0
  7  6  2  0
  8  6  1  0
  9  8  1  0
 10 11  1  0
  9 10  1  6
 11 15  1  0
 12 13  1  0
 12 11  2  0
 13 14  1  0
 14 15  2  0
 16 24  1  0
 16  9  1  0
 17 16  2  0
 19 18  1  0
 20 19  2  0
 21 19  1  0
 22 21  1  0
 23 24  1  0
 23 22  1  6
 25 23  1  0
 26 25  2  0
 27 25  1  0
M  END
$$$$
