VHQ.pdb
     RDKit          3D

 27 27  0  0  1  0  0  0  0  0999 V2000
   17.7990  -14.4734  -18.8027 C   0  0  0  0  0  0  0  0  0  0  0  0
   18.2083  -13.4980  -17.7270 C   0  0  1  0  0  0  0  0  0  0  0  0
   17.1975  -13.4488  -16.6108 C   0  0  0  0  0  0  0  0  0  0  0  0
   19.5857  -13.8178  -17.1620 C   0  0  2  0  0  0  0  0  0  0  0  0
   19.5181  -15.1241  -16.5709 N   0  0  0  0  0  0  0  0  0  0  0  0
   19.9823  -12.7989  -16.1424 C   0  0  0  0  0  0  0  0  0  0  0  0
   19.6619  -12.9373  -14.9603 O   0  0  0  0  0  0  0  0  0  0  0  0
   20.7273  -11.6721  -16.5337 N   0  0  0  0  0  0  0  0  0  0  0  0
   21.1712  -10.5708  -15.7694 C   0  0  1  0  0  0  0  0  0  0  0  0
   22.5364   -9.9982  -16.0743 C   0  0  0  0  0  0  0  0  0  0  0  0
   23.6317  -10.9807  -15.9357 C   0  0  0  0  0  0  0  0  0  0  0  0
   23.4100  -12.2398  -15.3244 C   0  0  0  0  0  0  0  0  0  0  0  0
   24.5509  -12.9487  -15.3205 N   0  0  0  0  0  0  0  0  0  0  0  0
   25.4869  -12.1975  -15.9013 C   0  0  0  0  0  0  0  0  0  0  0  0
   24.9147  -11.0337  -16.2574 N   0  0  0  0  0  0  0  0  0  0  0  0
   20.1490   -9.5649  -15.4243 C   0  0  0  0  0  0  0  0  0  0  0  0
   19.4346   -9.0081  -16.3349 O   0  0  0  0  0  0  0  0  0  0  0  0
   17.0411   -8.4691   -9.9652 N   0  0  0  0  0  0  0  0  0  0  0  0
   16.6806   -7.3766  -10.7961 C   0  0  0  0  0  0  0  0  0  0  0  0
   15.8843   -6.5222  -10.3631 O   0  0  0  0  0  0  0  0  0  0  0  0
   17.2579   -7.2946  -12.1355 C   0  0  0  0  0  0  0  0  0  0  0  0
   18.2096   -8.3898  -12.5061 C   0  0  0  0  0  0  0  0  0  0  0  0
   18.8349   -8.1548  -13.8299 C   0  0  2  0  0  0  0  0  0  0  0  0
   19.8806   -9.1456  -14.1032 N   0  0  0  0  0  0  0  0  0  0  0  0
   19.4555   -6.8222  -13.9079 C   0  0  0  0  0  0  0  0  0  0  0  0
   20.6464   -6.6155  -13.5545 O   0  0  0  0  0  0  0  0  0  0  0  0
   18.7447   -5.7446  -14.3794 O   0  0  0  0  0  0  0  0  0  0  0  0
  2  1  1  6
  3  2  1  0
  4  2  1  0
  4  5  1  1
  6  4  1  0
  7  6  2  0
  8  6  1  0
  9  8  1  0
 10 11  1  0
  9 10  1  6
 11 15  1  0
 12 13  1  0
 12 11  2  0
 13 14  1  0
 14 15  2  0
 16 24  1  0
 16  9  1  0
 17 16  2  0
 19 18  1  0
 20 19  2  0
 21 19  1  0
 22 21  1  0
 23 24  1  0
 23 22  1  1
 25 23  1  0
 26 25  2  0
 27 25  1  0
M  END
$$$$
