VHQ.pdb
     RDKit          3D

 27 27  0  0  1  0  0  0  0  0999 V2000
   18.3330  -12.7223  -17.1903 C   0  0  0  0  0  0  0  0  0  0  0  0
   18.1642  -11.5440  -16.2632 C   0  0  1  0  0  0  0  0  0  0  0  0
   18.0616  -11.9816  -14.8251 C   0  0  0  0  0  0  0  0  0  0  0  0
   19.2922  -10.5328  -16.4157 C   0  0  2  0  0  0  0  0  0  0  0  0
   20.5240  -11.2126  -16.1310 N   0  0  0  0  0  0  0  0  0  0  0  0
   19.0960   -9.3849  -15.4783 C   0  0  0  0  0  0  0  0  0  0  0  0
   18.1340   -8.6256  -15.6097 O   0  0  0  0  0  0  0  0  0  0  0  0
   20.0159   -9.1679  -14.4370 N   0  0  0  0  0  0  0  0  0  0  0  0
   20.0983   -8.1071  -13.5085 C   0  0  1  0  0  0  0  0  0  0  0  0
   20.4488   -8.4413  -12.0767 C   0  0  0  0  0  0  0  0  0  0  0  0
   20.4501   -7.2658  -11.1809 C   0  0  0  0  0  0  0  0  0  0  0  0
   20.0603   -5.9878  -11.6529 C   0  0  0  0  0  0  0  0  0  0  0  0
   20.1439   -5.0917  -10.6557 N   0  0  0  0  0  0  0  0  0  0  0  0
   20.5690   -5.7421   -9.5722 C   0  0  0  0  0  0  0  0  0  0  0  0
   20.7431   -7.0318   -9.9114 N   0  0  0  0  0  0  0  0  0  0  0  0
   20.6919   -6.8520  -14.0068 C   0  0  0  0  0  0  0  0  0  0  0  0
   21.8969   -6.8200  -14.4500 O   0  0  0  0  0  0  0  0  0  0  0  0
   18.7921   -5.3179  -18.9480 N   0  0  0  0  0  0  0  0  0  0  0  0
   19.4911   -4.1071  -18.7045 C   0  0  0  0  0  0  0  0  0  0  0  0
   19.6395   -3.2944  -19.6368 O   0  0  0  0  0  0  0  0  0  0  0  0
   20.0146   -3.8576  -17.3638 C   0  0  0  0  0  0  0  0  0  0  0  0
   19.8247   -4.9627  -16.3710 C   0  0  0  0  0  0  0  0  0  0  0  0
   20.3413   -4.5965  -15.0303 C   0  0  2  0  0  0  0  0  0  0  0  0
   20.0028   -5.6201  -14.0364 N   0  0  0  0  0  0  0  0  0  0  0  0
   19.7777   -3.3199  -14.5617 C   0  0  0  0  0  0  0  0  0  0  0  0
   18.7760   -3.2686  -13.8003 O   0  0  0  0  0  0  0  0  0  0  0  0
   20.3377   -2.1244  -14.9436 O   0  0  0  0  0  0  0  0  0  0  0  0
  2  1  1  6
  3  2  1  0
  4  2  1  0
  4  5  1  1
  6  4  1  0
  7  6  2  0
  8  6  1  0
  9  8  1  0
 10 11  1  0
  9 10  1  1
 11 15  1  0
 12 13  1  0
 12 11  2  0
 13 14  1  0
 14 15  2  0
 16 24  1  0
 16  9  1  0
 17 16  2  0
 19 18  1  0
 20 19  2  0
 21 19  1  0
 22 21  1  0
 23 24  1  0
 23 22  1  6
 25 23  1  0
 26 25  2  0
 27 25  1  0
M  END
$$$$
