VHQ.pdb
     RDKit          3D

 27 27  0  0  1  0  0  0  0  0999 V2000
   10.8198  -13.6986    6.6882 C   0  0  0  0  0  0  0  0  0  0  0  0
   12.0297  -14.5995    6.7106 C   0  0  1  0  0  0  0  0  0  0  0  0
   11.6496  -16.0420    6.4983 C   0  0  0  0  0  0  0  0  0  0  0  0
   13.0696  -14.1828    5.6793 C   0  0  2  0  0  0  0  0  0  0  0  0
   12.4662  -14.3053    4.3827 N   0  0  0  0  0  0  0  0  0  0  0  0
   14.2826  -15.0509    5.7793 C   0  0  0  0  0  0  0  0  0  0  0  0
   14.4442  -15.9941    5.0024 O   0  0  0  0  0  0  0  0  0  0  0  0
   15.2487  -14.7907    6.7676 N   0  0  0  0  0  0  0  0  0  0  0  0
   16.4982  -15.4074    6.9962 C   0  0  1  0  0  0  0  0  0  0  0  0
   17.6541  -14.5335    7.4260 C   0  0  0  0  0  0  0  0  0  0  0  0
   18.1493  -13.6432    6.3553 C   0  0  0  0  0  0  0  0  0  0  0  0
   17.5764  -13.6709    5.0595 C   0  0  0  0  0  0  0  0  0  0  0  0
   18.1934  -12.7745    4.2721 N   0  0  0  0  0  0  0  0  0  0  0  0
   19.1318  -12.1788    5.0084 C   0  0  0  0  0  0  0  0  0  0  0  0
   19.0845  -12.7131    6.2417 N   0  0  0  0  0  0  0  0  0  0  0  0
   16.4603  -16.7330    7.6422 C   0  0  0  0  0  0  0  0  0  0  0  0
   15.7318  -16.9434    8.6788 O   0  0  0  0  0  0  0  0  0  0  0  0
   16.5502  -23.5078    6.2063 N   0  0  0  0  0  0  0  0  0  0  0  0
   17.5777  -22.7555    6.8325 C   0  0  0  0  0  0  0  0  0  0  0  0
   18.7630  -23.1104    6.6885 O   0  0  0  0  0  0  0  0  0  0  0  0
   17.2059  -21.5881    7.6280 C   0  0  0  0  0  0  0  0  0  0  0  0
   17.3406  -20.2616    6.9460 C   0  0  0  0  0  0  0  0  0  0  0  0
   17.1223  -19.1333    7.8829 C   0  0  2  0  0  0  0  0  0  0  0  0
   17.1999  -17.8456    7.1858 N   0  0  0  0  0  0  0  0  0  0  0  0
   18.1289  -19.1174    8.9569 C   0  0  0  0  0  0  0  0  0  0  0  0
   19.1772  -18.4234    8.8832 O   0  0  0  0  0  0  0  0  0  0  0  0
   17.9525  -19.8688   10.0940 O   0  0  0  0  0  0  0  0  0  0  0  0
  2  1  1  6
  3  2  1  0
  4  2  1  0
  4  5  1  6
  6  4  1  0
  7  6  2  0
  8  6  1  0
  9  8  1  0
 10 11  1  0
  9 10  1  1
 11 15  1  0
 12 13  1  0
 12 11  2  0
 13 14  1  0
 14 15  2  0
 16 24  1  0
 16  9  1  0
 17 16  2  0
 19 18  1  0
 20 19  2  0
 21 19  1  0
 22 21  1  0
 23 24  1  0
 23 22  1  6
 25 23  1  0
 26 25  2  0
 27 25  1  0
M  END
$$$$
