VHQ.pdb
     RDKit          3D

 27 27  0  0  1  0  0  0  0  0999 V2000
   27.4861  -13.4588  -22.8608 C   0  0  0  0  0  0  0  0  0  0  0  0
   27.5338  -12.4078  -21.7795 C   0  0  1  0  0  0  0  0  0  0  0  0
   26.1950  -12.2435  -21.1080 C   0  0  0  0  0  0  0  0  0  0  0  0
   28.6006  -12.7114  -20.7363 C   0  0  2  0  0  0  0  0  0  0  0  0
   29.8720  -12.7029  -21.4027 N   0  0  0  0  0  0  0  0  0  0  0  0
   28.3481  -14.0411  -20.1015 C   0  0  0  0  0  0  0  0  0  0  0  0
   28.5948  -15.0837  -20.7110 O   0  0  0  0  0  0  0  0  0  0  0  0
   27.8246  -14.1049  -18.7978 N   0  0  0  0  0  0  0  0  0  0  0  0
   27.3765  -15.2199  -18.0562 C   0  0  1  0  0  0  0  0  0  0  0  0
   27.9951  -15.4661  -16.6992 C   0  0  0  0  0  0  0  0  0  0  0  0
   27.5747  -16.7420  -16.0830 C   0  0  0  0  0  0  0  0  0  0  0  0
   26.6687  -16.7630  -14.9936 C   0  0  0  0  0  0  0  0  0  0  0  0
   26.4437  -18.0323  -14.6160 N   0  0  0  0  0  0  0  0  0  0  0  0
   27.1652  -18.8182  -15.4155 C   0  0  0  0  0  0  0  0  0  0  0  0
   27.8277  -18.0267  -16.2778 N   0  0  0  0  0  0  0  0  0  0  0  0
   25.9330  -15.5140  -18.1330 C   0  0  0  0  0  0  0  0  0  0  0  0
   25.0592  -14.6267  -17.8186 O   0  0  0  0  0  0  0  0  0  0  0  0
   22.6499  -18.3440  -22.4610 N   0  0  0  0  0  0  0  0  0  0  0  0
   22.0803  -17.1576  -21.9298 C   0  0  0  0  0  0  0  0  0  0  0  0
   21.2328  -16.5386  -22.6007 O   0  0  0  0  0  0  0  0  0  0  0  0
   22.5120  -16.7029  -20.6104 C   0  0  0  0  0  0  0  0  0  0  0  0
   23.5787  -17.5226  -19.9524 C   0  0  0  0  0  0  0  0  0  0  0  0
   23.9623  -16.9723  -18.6300 C   0  0  2  0  0  0  0  0  0  0  0  0
   25.4105  -16.7585  -18.5470 N   0  0  0  0  0  0  0  0  0  0  0  0
   23.5845  -17.8800  -17.5343 C   0  0  0  0  0  0  0  0  0  0  0  0
   23.9146  -19.0952  -17.5266 O   0  0  0  0  0  0  0  0  0  0  0  0
   22.8509  -17.4221  -16.4663 O   0  0  0  0  0  0  0  0  0  0  0  0
  2  1  1  6
  3  2  1  0
  4  2  1  0
  4  5  1  6
  6  4  1  0
  7  6  2  0
  8  6  1  0
  9  8  1  0
 10 11  1  0
  9 10  1  1
 11 15  1  0
 12 13  1  0
 12 11  2  0
 13 14  1  0
 14 15  2  0
 16 24  1  0
 16  9  1  0
 17 16  2  0
 19 18  1  0
 20 19  2  0
 21 19  1  0
 22 21  1  0
 23 24  1  0
 23 22  1  6
 25 23  1  0
 26 25  2  0
 27 25  1  0
M  END
$$$$
