VHQ.pdb
     RDKit          3D

 27 27  0  0  1  0  0  0  0  0999 V2000
   27.4455  -10.3650  -15.7956 C   0  0  0  0  0  0  0  0  0  0  0  0
   27.4230  -11.6724  -16.5480 C   0  0  1  0  0  0  0  0  0  0  0  0
   28.7091  -12.4365  -16.3683 C   0  0  0  0  0  0  0  0  0  0  0  0
   26.2434  -12.5445  -16.1402 C   0  0  2  0  0  0  0  0  0  0  0  0
   26.3671  -13.7931  -16.8375 N   0  0  0  0  0  0  0  0  0  0  0  0
   24.9528  -11.8741  -16.4864 C   0  0  0  0  0  0  0  0  0  0  0  0
   24.6415  -11.6834  -17.6636 O   0  0  0  0  0  0  0  0  0  0  0  0
   24.0852  -11.4568  -15.4613 N   0  0  0  0  0  0  0  0  0  0  0  0
   22.8288  -10.8175  -15.5435 C   0  0  1  0  0  0  0  0  0  0  0  0
   21.6258  -11.5397  -14.9814 C   0  0  0  0  0  0  0  0  0  0  0  0
   20.3509  -10.8288  -15.2128 C   0  0  0  0  0  0  0  0  0  0  0  0
   19.7887  -10.7417  -16.5107 C   0  0  0  0  0  0  0  0  0  0  0  0
   18.6367  -10.0528  -16.4601 N   0  0  0  0  0  0  0  0  0  0  0  0
   18.4415   -9.6985  -15.1896 C   0  0  0  0  0  0  0  0  0  0  0  0
   19.4742  -10.1719  -14.4697 N   0  0  0  0  0  0  0  0  0  0  0  0
   22.8257   -9.3592  -15.3216 C   0  0  0  0  0  0  0  0  0  0  0  0
   23.3286   -8.8512  -14.2545 O   0  0  0  0  0  0  0  0  0  0  0  0
   24.0307   -4.9664  -19.3085 N   0  0  0  0  0  0  0  0  0  0  0  0
   22.7946   -5.6426  -19.4784 C   0  0  0  0  0  0  0  0  0  0  0  0
   22.2579   -5.6522  -20.6024 O   0  0  0  0  0  0  0  0  0  0  0  0
   22.1935   -6.3045  -18.3232 C   0  0  0  0  0  0  0  0  0  0  0  0
   22.9835   -6.2479  -17.0522 C   0  0  0  0  0  0  0  0  0  0  0  0
   22.3200   -6.9927  -15.9549 C   0  0  2  0  0  0  0  0  0  0  0  0
   22.2860   -8.4309  -16.2382 N   0  0  0  0  0  0  0  0  0  0  0  0
   20.9310   -6.5464  -15.7587 C   0  0  0  0  0  0  0  0  0  0  0  0
   19.9454   -7.2598  -16.0834 O   0  0  0  0  0  0  0  0  0  0  0  0
   20.6612   -5.3189  -15.2028 O   0  0  0  0  0  0  0  0  0  0  0  0
  2  1  1  1
  3  2  1  0
  4  2  1  0
  4  5  1  6
  6  4  1  0
  7  6  2  0
  8  6  1  0
  9  8  1  0
 10 11  1  0
  9 10  1  1
 11 15  1  0
 12 13  1  0
 12 11  2  0
 13 14  1  0
 14 15  2  0
 16 24  1  0
 16  9  1  0
 17 16  2  0
 19 18  1  0
 20 19  2  0
 21 19  1  0
 22 21  1  0
 23 24  1  0
 23 22  1  6
 25 23  1  0
 26 25  2  0
 27 25  1  0
M  END
$$$$
