VHQ.pdb
     RDKit          3D

 27 27  0  0  1  0  0  0  0  0999 V2000
   20.7998  -14.1795  -19.2307 C   0  0  0  0  0  0  0  0  0  0  0  0
   20.0930  -12.8929  -18.8825 C   0  0  1  0  0  0  0  0  0  0  0  0
   18.6170  -13.1115  -18.6730 C   0  0  0  0  0  0  0  0  0  0  0  0
   20.6954  -12.2263  -17.6532 C   0  0  2  0  0  0  0  0  0  0  0  0
   20.6633  -13.1826  -16.5832 N   0  0  0  0  0  0  0  0  0  0  0  0
   19.9187  -11.0022  -17.2883 C   0  0  0  0  0  0  0  0  0  0  0  0
   19.8662  -10.0406  -18.0577 O   0  0  0  0  0  0  0  0  0  0  0  0
   19.2415  -10.9455  -16.0571 N   0  0  0  0  0  0  0  0  0  0  0  0
   18.4517   -9.9131  -15.5054 C   0  0  1  0  0  0  0  0  0  0  0  0
   17.1583  -10.2951  -14.8229 C   0  0  0  0  0  0  0  0  0  0  0  0
   16.1465  -10.8499  -15.7463 C   0  0  0  0  0  0  0  0  0  0  0  0
   15.8511  -10.2099  -16.9756 C   0  0  0  0  0  0  0  0  0  0  0  0
   14.9066  -10.9036  -17.6320 N   0  0  0  0  0  0  0  0  0  0  0  0
   14.5887  -11.9548  -16.8760 C   0  0  0  0  0  0  0  0  0  0  0  0
   15.3396  -11.8992  -15.7617 N   0  0  0  0  0  0  0  0  0  0  0  0
   19.1849   -8.8112  -14.8542 C   0  0  0  0  0  0  0  0  0  0  0  0
   19.7633   -8.9806  -13.7200 O   0  0  0  0  0  0  0  0  0  0  0  0
   23.4726   -5.0246  -16.8851 N   0  0  0  0  0  0  0  0  0  0  0  0
   23.1457   -4.4205  -15.6432 C   0  0  0  0  0  0  0  0  0  0  0  0
   23.8605   -3.4963  -15.2115 O   0  0  0  0  0  0  0  0  0  0  0  0
   21.9784   -4.9080  -14.9126 C   0  0  0  0  0  0  0  0  0  0  0  0
   21.2161   -6.0201  -15.5642 C   0  0  0  0  0  0  0  0  0  0  0  0
   20.0835   -6.4803  -14.7250 C   0  0  2  0  0  0  0  0  0  0  0  0
   19.3071   -7.5189  -15.4094 N   0  0  0  0  0  0  0  0  0  0  0  0
   19.1628   -5.3774  -14.4041 C   0  0  0  0  0  0  0  0  0  0  0  0
   18.1653   -5.1061  -15.1233 O   0  0  0  0  0  0  0  0  0  0  0  0
   19.3637   -4.5985  -13.2899 O   0  0  0  0  0  0  0  0  0  0  0  0
  2  1  1  1
  3  2  1  0
  4  2  1  0
  4  5  1  1
  6  4  1  0
  7  6  2  0
  8  6  1  0
  9  8  1  0
 10 11  1  0
  9 10  1  1
 11 15  1  0
 12 13  1  0
 12 11  2  0
 13 14  1  0
 14 15  2  0
 16 24  1  0
 16  9  1  0
 17 16  2  0
 19 18  1  0
 20 19  2  0
 21 19  1  0
 22 21  1  0
 23 24  1  0
 23 22  1  6
 25 23  1  0
 26 25  2  0
 27 25  1  0
M  END
$$$$
