VDI.pdb
     RDKit          3D

 24 23  0  0  1  0  0  0  0  0999 V2000
    8.6536  -12.8252   21.1199 C   0  0  0  0  0  0  0  0  0  0  0  0
    7.5661  -13.3937   20.2341 C   0  0  1  0  0  0  0  0  0  0  0  0
    7.4692  -12.6807   18.9198 C   0  0  0  0  0  0  0  0  0  0  0  0
    7.8920  -14.8506   20.0053 C   0  0  2  0  0  0  0  0  0  0  0  0
    6.9285  -15.5219   19.1923 N   0  0  0  0  0  0  0  0  0  0  0  0
    8.1347  -15.5631   21.2865 C   0  0  0  0  0  0  0  0  0  0  0  0
    7.1506  -15.9770   21.9496 O   0  0  0  0  0  0  0  0  0  0  0  0
    9.4256  -15.8093   21.8163 N   0  0  0  0  0  0  0  0  0  0  0  0
    9.6401  -16.5528   23.0429 C   0  0  1  0  0  0  0  0  0  0  0  0
   10.7773  -17.5368   22.9060 C   0  0  0  0  0  0  0  0  0  0  0  0
   11.0725  -18.2646   24.1397 C   0  0  0  0  0  0  0  0  0  0  0  0
   12.1999  -18.2930   24.6917 O   0  0  0  0  0  0  0  0  0  0  0  0
    9.8450  -15.5975   24.1463 C   0  0  0  0  0  0  0  0  0  0  0  0
   10.7932  -14.7882   24.1371 O   0  0  0  0  0  0  0  0  0  0  0  0
   10.0570  -18.9772   24.7584 O   0  0  0  0  0  0  0  0  0  0  0  0
    6.2440  -12.3891   25.6673 C   0  0  0  0  0  0  0  0  0  0  0  0
    7.5370  -13.1006   25.3971 C   0  0  0  0  0  0  0  0  0  0  0  0
    7.9722  -13.8730   26.6424 C   0  0  2  0  0  0  0  0  0  0  0  0
    8.1979  -12.8827   27.7381 C   0  0  0  0  0  0  0  0  0  0  0  0
    9.2082  -14.6977   26.3447 C   0  0  2  0  0  0  0  0  0  0  0  0
    8.9607  -15.5825   25.2453 N   0  0  0  0  0  0  0  0  0  0  0  0
    9.5757  -15.5466   27.5164 C   0  0  0  0  0  0  0  0  0  0  0  0
    9.3344  -16.9055   27.5731 O   0  0  0  0  0  0  0  0  0  0  0  0
   10.1317  -14.9988   28.4992 O   0  0  0  0  0  0  0  0  0  0  0  0
  2  3  1  6
  2  1  1  0
  4  2  1  0
  4  5  1  1
  6  7  2  0
  6  4  1  0
  8  6  1  0
  9  8  1  0
  9 10  1  6
 10 11  1  0
 11 12  2  0
 11 15  1  0
 13  9  1  0
 14 13  2  0
 16 17  1  0
 18 17  1  0
 18 20  1  0
 18 19  1  1
 20 21  1  6
 21 13  1  0
 22 20  1  0
 22 23  1  0
 24 22  2  0
M  END
$$$$
