VDI.pdb
     RDKit          3D

 24 23  0  0  1  0  0  0  0  0999 V2000
    8.0279  -12.7759   19.3822 C   0  0  0  0  0  0  0  0  0  0  0  0
    8.2361  -13.4706   20.7106 C   0  0  1  0  0  0  0  0  0  0  0  0
    7.1981  -13.0913   21.7223 C   0  0  0  0  0  0  0  0  0  0  0  0
    8.1809  -14.9575   20.4508 C   0  0  2  0  0  0  0  0  0  0  0  0
    6.9773  -15.3712   19.8026 N   0  0  0  0  0  0  0  0  0  0  0  0
    8.4452  -15.7376   21.6876 C   0  0  0  0  0  0  0  0  0  0  0  0
    7.4865  -16.3123   22.2621 O   0  0  0  0  0  0  0  0  0  0  0  0
    9.7297  -15.8767   22.2693 N   0  0  0  0  0  0  0  0  0  0  0  0
    9.9688  -16.6703   23.4594 C   0  0  1  0  0  0  0  0  0  0  0  0
   11.0949  -17.6553   23.2550 C   0  0  0  0  0  0  0  0  0  0  0  0
   11.3543  -18.4975   24.4220 C   0  0  0  0  0  0  0  0  0  0  0  0
   10.4753  -18.8601   25.2420 O   0  0  0  0  0  0  0  0  0  0  0  0
   10.2077  -15.7616   24.5949 C   0  0  0  0  0  0  0  0  0  0  0  0
   11.1845  -14.9875   24.6127 O   0  0  0  0  0  0  0  0  0  0  0  0
   12.6476  -18.9367   24.6593 O   0  0  0  0  0  0  0  0  0  0  0  0
    6.5641  -12.6047   26.1912 C   0  0  0  0  0  0  0  0  0  0  0  0
    7.8382  -13.3327   25.8783 C   0  0  0  0  0  0  0  0  0  0  0  0
    8.3303  -14.0719   27.1226 C   0  0  2  0  0  0  0  0  0  0  0  0
    8.5696  -13.0563   28.1919 C   0  0  0  0  0  0  0  0  0  0  0  0
    9.5738  -14.8755   26.7996 C   0  0  2  0  0  0  0  0  0  0  0  0
    9.3240  -15.7524   25.6944 N   0  0  0  0  0  0  0  0  0  0  0  0
    9.9693  -15.7310   27.9573 C   0  0  0  0  0  0  0  0  0  0  0  0
   10.8454  -15.3165   28.9415 O   0  0  0  0  0  0  0  0  0  0  0  0
    9.4819  -16.8845   28.0409 O   0  0  0  0  0  0  0  0  0  0  0  0
  2  3  1  1
  2  1  1  0
  4  2  1  0
  4  5  1  1
  6  7  2  0
  6  4  1  0
  8  6  1  0
  9  8  1  0
  9 10  1  6
 10 11  1  0
 11 12  2  0
 11 15  1  0
 13  9  1  0
 14 13  2  0
 16 17  1  0
 18 17  1  0
 18 20  1  0
 18 19  1  1
 20 21  1  6
 21 13  1  0
 22 20  1  0
 22 23  1  0
 24 22  2  0
M  END
$$$$
