VDI.pdb
     RDKit          3D

 24 23  0  0  1  0  0  0  0  0999 V2000
    8.2495  -12.6912   18.8121 C   0  0  0  0  0  0  0  0  0  0  0  0
    8.3684  -13.3288   20.1795 C   0  0  1  0  0  0  0  0  0  0  0  0
    7.3034  -12.8594   21.1232 C   0  0  0  0  0  0  0  0  0  0  0  0
    8.2614  -14.8231   19.9867 C   0  0  2  0  0  0  0  0  0  0  0  0
    7.1232  -15.2110   19.2161 N   0  0  0  0  0  0  0  0  0  0  0  0
    8.3310  -15.5467   21.2826 C   0  0  0  0  0  0  0  0  0  0  0  0
    7.2647  -15.7966   21.8991 O   0  0  0  0  0  0  0  0  0  0  0  0
    9.5423  -15.9797   21.8767 N   0  0  0  0  0  0  0  0  0  0  0  0
    9.5880  -16.6559   23.1589 C   0  0  1  0  0  0  0  0  0  0  0  0
   10.5979  -17.7786   23.1608 C   0  0  0  0  0  0  0  0  0  0  0  0
   10.4187  -18.7281   22.0631 C   0  0  0  0  0  0  0  0  0  0  0  0
    9.3667  -19.3821   21.8582 O   0  0  0  0  0  0  0  0  0  0  0  0
    9.8461  -15.6577   24.2121 C   0  0  0  0  0  0  0  0  0  0  0  0
   10.7946  -14.8535   24.1263 O   0  0  0  0  0  0  0  0  0  0  0  0
   11.4650  -18.9365   21.1778 O   0  0  0  0  0  0  0  0  0  0  0  0
    6.1170  -12.6324   26.1696 C   0  0  0  0  0  0  0  0  0  0  0  0
    7.4182  -13.2286   25.7197 C   0  0  0  0  0  0  0  0  0  0  0  0
    8.0735  -13.9760   26.8812 C   0  0  2  0  0  0  0  0  0  0  0  0
    8.3514  -12.9841   27.9634 C   0  0  0  0  0  0  0  0  0  0  0  0
    9.3275  -14.6844   26.4102 C   0  0  2  0  0  0  0  0  0  0  0  0
    9.0137  -15.5947   25.3492 N   0  0  0  0  0  0  0  0  0  0  0  0
    9.9301  -15.4887   27.5140 C   0  0  0  0  0  0  0  0  0  0  0  0
   10.8704  -14.9858   28.3921 O   0  0  0  0  0  0  0  0  0  0  0  0
    9.5644  -16.6814   27.6516 O   0  0  0  0  0  0  0  0  0  0  0  0
  2  3  1  1
  2  1  1  0
  4  2  1  0
  4  5  1  1
  6  7  2  0
  6  4  1  0
  8  6  1  0
  9  8  1  0
  9 10  1  6
 10 11  1  0
 11 12  2  0
 11 15  1  0
 13  9  1  0
 14 13  2  0
 16 17  1  0
 18 17  1  0
 18 20  1  0
 18 19  1  1
 20 21  1  6
 21 13  1  0
 22 20  1  0
 22 23  1  0
 24 22  2  0
M  END
$$$$
