VDI.pdb
     RDKit          3D

 24 23  0  0  1  0  0  0  0  0999 V2000
    7.3335  -12.8196   18.3031 C   0  0  0  0  0  0  0  0  0  0  0  0
    7.2779  -13.9188   19.3420 C   0  0  1  0  0  0  0  0  0  0  0  0
    7.5848  -15.2668   18.7642 C   0  0  0  0  0  0  0  0  0  0  0  0
    8.2890  -13.5757   20.4103 C   0  0  2  0  0  0  0  0  0  0  0  0
    9.5985  -13.3402   19.8909 N   0  0  0  0  0  0  0  0  0  0  0  0
    8.2943  -14.5850   21.5008 C   0  0  0  0  0  0  0  0  0  0  0  0
    7.2179  -14.8463   22.0946 O   0  0  0  0  0  0  0  0  0  0  0  0
    9.4542  -15.2824   21.9202 N   0  0  0  0  0  0  0  0  0  0  0  0
    9.4373  -16.2549   22.9961 C   0  0  1  0  0  0  0  0  0  0  0  0
   10.3328  -17.4331   22.6958 C   0  0  0  0  0  0  0  0  0  0  0  0
   10.4564  -18.3725   23.8098 C   0  0  0  0  0  0  0  0  0  0  0  0
    9.5393  -19.1393   24.1936 O   0  0  0  0  0  0  0  0  0  0  0  0
    9.7944  -15.5758   24.2544 C   0  0  0  0  0  0  0  0  0  0  0  0
   10.8970  -15.0124   24.3980 O   0  0  0  0  0  0  0  0  0  0  0  0
   11.6554  -18.4386   24.5026 O   0  0  0  0  0  0  0  0  0  0  0  0
    6.3675  -12.3066   26.1856 C   0  0  0  0  0  0  0  0  0  0  0  0
    7.5964  -13.0717   25.7910 C   0  0  0  0  0  0  0  0  0  0  0  0
    8.0459  -13.9614   26.9500 C   0  0  2  0  0  0  0  0  0  0  0  0
    8.3873  -13.0730   28.1017 C   0  0  0  0  0  0  0  0  0  0  0  0
    9.2121  -14.8303   26.5244 C   0  0  2  0  0  0  0  0  0  0  0  0
    8.8832  -15.5517   25.3310 N   0  0  0  0  0  0  0  0  0  0  0  0
    9.5318  -15.8424   27.5742 C   0  0  0  0  0  0  0  0  0  0  0  0
   10.4361  -15.6171   28.5938 O   0  0  0  0  0  0  0  0  0  0  0  0
    8.9502  -16.9536   27.5286 O   0  0  0  0  0  0  0  0  0  0  0  0
  2  3  1  6
  2  1  1  0
  4  2  1  0
  4  5  1  6
  6  7  2  0
  6  4  1  0
  8  6  1  0
  9  8  1  0
  9 10  1  6
 10 11  1  0
 11 12  2  0
 11 15  1  0
 13  9  1  0
 14 13  2  0
 16 17  1  0
 18 17  1  0
 18 20  1  0
 18 19  1  1
 20 21  1  6
 21 13  1  0
 22 20  1  0
 22 23  1  0
 24 22  2  0
M  END
$$$$
