VDI.pdb
     RDKit          3D

 24 23  0  0  1  0  0  0  0  0999 V2000
    8.7342  -12.9441   21.4329 C   0  0  0  0  0  0  0  0  0  0  0  0
    7.5106  -13.5089   20.7441 C   0  0  1  0  0  0  0  0  0  0  0  0
    7.2808  -12.8970   19.3958 C   0  0  0  0  0  0  0  0  0  0  0  0
    7.7244  -14.9974   20.6029 C   0  0  2  0  0  0  0  0  0  0  0  0
    6.6585  -15.6566   19.9179 N   0  0  0  0  0  0  0  0  0  0  0  0
    8.0231  -15.6323   21.9127 C   0  0  0  0  0  0  0  0  0  0  0  0
    7.0723  -15.9107   22.6860 O   0  0  0  0  0  0  0  0  0  0  0  0
    9.3325  -15.9487   22.3521 N   0  0  0  0  0  0  0  0  0  0  0  0
    9.5933  -16.6597   23.5890 C   0  0  1  0  0  0  0  0  0  0  0  0
   10.6881  -17.6860   23.4212 C   0  0  0  0  0  0  0  0  0  0  0  0
   11.0092  -18.4053   24.6534 C   0  0  0  0  0  0  0  0  0  0  0  0
   10.1550  -18.8047   25.4824 O   0  0  0  0  0  0  0  0  0  0  0  0
    9.8925  -15.6773   24.6461 C   0  0  0  0  0  0  0  0  0  0  0  0
   10.8535  -14.8896   24.5476 O   0  0  0  0  0  0  0  0  0  0  0  0
   12.3369  -18.6754   24.9469 O   0  0  0  0  0  0  0  0  0  0  0  0
    6.6616  -12.1736   26.0889 C   0  0  0  0  0  0  0  0  0  0  0  0
    7.9167  -12.9639   25.8622 C   0  0  0  0  0  0  0  0  0  0  0  0
    8.2616  -13.7590   27.1215 C   0  0  2  0  0  0  0  0  0  0  0  0
    8.5595  -12.7813   28.2112 C   0  0  0  0  0  0  0  0  0  0  0  0
    9.4223  -14.6950   26.8511 C   0  0  2  0  0  0  0  0  0  0  0  0
    9.0863  -15.6110   25.8018 N   0  0  0  0  0  0  0  0  0  0  0  0
    9.7398  -15.5110   28.0602 C   0  0  0  0  0  0  0  0  0  0  0  0
    9.3794  -16.8376   28.1953 O   0  0  0  0  0  0  0  0  0  0  0  0
   10.3655  -14.9649   29.0012 O   0  0  0  0  0  0  0  0  0  0  0  0
  2  3  1  6
  2  1  1  0
  4  2  1  0
  4  5  1  1
  6  7  2  0
  6  4  1  0
  8  6  1  0
  9  8  1  0
  9 10  1  6
 10 11  1  0
 11 12  2  0
 11 15  1  0
 13  9  1  0
 14 13  2  0
 16 17  1  0
 18 17  1  0
 18 20  1  0
 18 19  1  1
 20 21  1  6
 21 13  1  0
 22 20  1  0
 22 23  1  0
 24 22  2  0
M  END
$$$$
