VDI.pdb
     RDKit          3D

 24 23  0  0  1  0  0  0  0  0999 V2000
    6.8984  -13.0040   20.7171 C   0  0  0  0  0  0  0  0  0  0  0  0
    8.0287  -13.4770   19.8286 C   0  0  1  0  0  0  0  0  0  0  0  0
    9.3657  -12.9889   20.2968 C   0  0  0  0  0  0  0  0  0  0  0  0
    8.0016  -14.9871   19.8366 C   0  0  2  0  0  0  0  0  0  0  0  0
    6.8397  -15.5324   19.2101 N   0  0  0  0  0  0  0  0  0  0  0  0
    8.2041  -15.5292   21.2052 C   0  0  0  0  0  0  0  0  0  0  0  0
    7.2079  -15.6705   21.9583 O   0  0  0  0  0  0  0  0  0  0  0  0
    9.4690  -15.9025   21.7232 N   0  0  0  0  0  0  0  0  0  0  0  0
    9.6268  -16.5617   23.0053 C   0  0  1  0  0  0  0  0  0  0  0  0
   10.7777  -17.5392   22.9911 C   0  0  0  0  0  0  0  0  0  0  0  0
   10.5166  -18.7383   22.1955 C   0  0  0  0  0  0  0  0  0  0  0  0
    9.5304  -19.4972   22.3627 O   0  0  0  0  0  0  0  0  0  0  0  0
    9.7671  -15.5340   24.0524 C   0  0  0  0  0  0  0  0  0  0  0  0
   10.5449  -14.5695   23.9157 O   0  0  0  0  0  0  0  0  0  0  0  0
   11.4021  -19.0798   21.1850 O   0  0  0  0  0  0  0  0  0  0  0  0
    6.3154  -12.4076   25.7572 C   0  0  0  0  0  0  0  0  0  0  0  0
    7.5724  -13.1583   25.4291 C   0  0  0  0  0  0  0  0  0  0  0  0
    8.0579  -13.9181   26.6635 C   0  0  2  0  0  0  0  0  0  0  0  0
    8.3121  -12.9183   27.7442 C   0  0  0  0  0  0  0  0  0  0  0  0
    9.2906  -14.7333   26.3283 C   0  0  2  0  0  0  0  0  0  0  0  0
    9.0143  -15.6256   25.2419 N   0  0  0  0  0  0  0  0  0  0  0  0
    9.7048  -15.5732   27.4909 C   0  0  0  0  0  0  0  0  0  0  0  0
   10.6668  -15.1839   28.4025 O   0  0  0  0  0  0  0  0  0  0  0  0
    9.1517  -16.6887   27.6482 O   0  0  0  0  0  0  0  0  0  0  0  0
  2  3  1  1
  2  1  1  0
  4  2  1  0
  4  5  1  1
  6  7  2  0
  6  4  1  0
  8  6  1  0
  9  8  1  0
  9 10  1  6
 10 11  1  0
 11 12  2  0
 11 15  1  0
 13  9  1  0
 14 13  2  0
 16 17  1  0
 18 17  1  0
 18 20  1  0
 18 19  1  1
 20 21  1  6
 21 13  1  0
 22 20  1  0
 22 23  1  0
 24 22  2  0
M  END
$$$$
