VDI.pdb
     RDKit          3D

 24 23  0  0  1  0  0  0  0  0999 V2000
    8.3884  -12.5298   18.5318 C   0  0  0  0  0  0  0  0  0  0  0  0
    8.3121  -13.2593   19.8557 C   0  0  1  0  0  0  0  0  0  0  0  0
    7.1049  -12.8703   20.6534 C   0  0  0  0  0  0  0  0  0  0  0  0
    8.2708  -14.7378   19.5495 C   0  0  2  0  0  0  0  0  0  0  0  0
    7.1957  -15.1033   18.6832 N   0  0  0  0  0  0  0  0  0  0  0  0
    8.2882  -15.5529   20.7919 C   0  0  0  0  0  0  0  0  0  0  0  0
    7.2295  -16.1182   21.1647 O   0  0  0  0  0  0  0  0  0  0  0  0
    9.4409  -15.7360   21.5953 N   0  0  0  0  0  0  0  0  0  0  0  0
    9.4359  -16.5441   22.7996 C   0  0  1  0  0  0  0  0  0  0  0  0
   10.4058  -17.6972   22.7004 C   0  0  0  0  0  0  0  0  0  0  0  0
   10.5169  -18.4756   23.9335 C   0  0  0  0  0  0  0  0  0  0  0  0
    9.5379  -18.9435   24.5653 O   0  0  0  0  0  0  0  0  0  0  0  0
    9.7063  -15.6720   23.9565 C   0  0  0  0  0  0  0  0  0  0  0  0
   10.7120  -14.9366   23.9945 O   0  0  0  0  0  0  0  0  0  0  0  0
   11.7752  -18.7263   24.4585 O   0  0  0  0  0  0  0  0  0  0  0  0
    6.0868  -12.5394   25.9068 C   0  0  0  0  0  0  0  0  0  0  0  0
    7.3434  -13.2388   25.4791 C   0  0  0  0  0  0  0  0  0  0  0  0
    7.8859  -14.0799   26.6347 C   0  0  2  0  0  0  0  0  0  0  0  0
    8.1613  -13.1595   27.7789 C   0  0  0  0  0  0  0  0  0  0  0  0
    9.1196  -14.8426   26.1961 C   0  0  2  0  0  0  0  0  0  0  0  0
    8.8204  -15.6547   25.0542 N   0  0  0  0  0  0  0  0  0  0  0  0
    9.5888  -15.7605   27.2759 C   0  0  0  0  0  0  0  0  0  0  0  0
   10.5524  -15.4111   28.2019 O   0  0  0  0  0  0  0  0  0  0  0  0
    9.0828  -16.9068   27.3463 O   0  0  0  0  0  0  0  0  0  0  0  0
  2  3  1  6
  2  1  1  0
  4  2  1  0
  4  5  1  1
  6  7  2  0
  6  4  1  0
  8  6  1  0
  9  8  1  0
  9 10  1  6
 10 11  1  0
 11 12  2  0
 11 15  1  0
 13  9  1  0
 14 13  2  0
 16 17  1  0
 18 17  1  0
 18 20  1  0
 18 19  1  1
 20 21  1  6
 21 13  1  0
 22 20  1  0
 22 23  1  0
 24 22  2  0
M  END
$$$$
