VDI.pdb
     RDKit          3D

 24 23  0  0  1  0  0  0  0  0999 V2000
    8.2087  -12.7556   21.1484 C   0  0  0  0  0  0  0  0  0  0  0  0
    7.4677  -13.3956   19.9944 C   0  0  1  0  0  0  0  0  0  0  0  0
    7.5938  -12.6065   18.7269 C   0  0  0  0  0  0  0  0  0  0  0  0
    8.0496  -14.7758   19.8001 C   0  0  2  0  0  0  0  0  0  0  0  0
    7.4160  -15.5113   18.7525 N   0  0  0  0  0  0  0  0  0  0  0  0
    8.0839  -15.5379   21.0753 C   0  0  0  0  0  0  0  0  0  0  0  0
    7.0437  -16.1290   21.4601 O   0  0  0  0  0  0  0  0  0  0  0  0
    9.2329  -15.6420   21.8977 N   0  0  0  0  0  0  0  0  0  0  0  0
    9.2544  -16.4255   23.1180 C   0  0  1  0  0  0  0  0  0  0  0  0
   10.2152  -17.5861   23.0177 C   0  0  0  0  0  0  0  0  0  0  0  0
   10.3419  -18.3492   24.2588 C   0  0  0  0  0  0  0  0  0  0  0  0
    9.3848  -18.6147   25.0268 O   0  0  0  0  0  0  0  0  0  0  0  0
    9.5590  -15.5318   24.2496 C   0  0  0  0  0  0  0  0  0  0  0  0
   10.6192  -14.8778   24.2936 O   0  0  0  0  0  0  0  0  0  0  0  0
   11.5908  -18.8208   24.6327 O   0  0  0  0  0  0  0  0  0  0  0  0
    6.1362  -12.0412   25.9616 C   0  0  0  0  0  0  0  0  0  0  0  0
    7.3464  -12.8512   25.6004 C   0  0  0  0  0  0  0  0  0  0  0  0
    7.7800  -13.6955   26.7987 C   0  0  2  0  0  0  0  0  0  0  0  0
    8.0803  -12.7647   27.9281 C   0  0  0  0  0  0  0  0  0  0  0  0
    8.9687  -14.5602   26.4304 C   0  0  2  0  0  0  0  0  0  0  0  0
    8.6444  -15.3997   25.3155 N   0  0  0  0  0  0  0  0  0  0  0  0
    9.3430  -15.4592   27.5619 C   0  0  0  0  0  0  0  0  0  0  0  0
   10.2116  -15.0877   28.5696 O   0  0  0  0  0  0  0  0  0  0  0  0
    8.8439  -16.6101   27.5998 O   0  0  0  0  0  0  0  0  0  0  0  0
  2  3  1  6
  2  1  1  0
  4  2  1  0
  4  5  1  6
  6  7  2  0
  6  4  1  0
  8  6  1  0
  9  8  1  0
  9 10  1  6
 10 11  1  0
 11 12  2  0
 11 15  1  0
 13  9  1  0
 14 13  2  0
 16 17  1  0
 18 17  1  0
 18 20  1  0
 18 19  1  1
 20 21  1  6
 21 13  1  0
 22 20  1  0
 22 23  1  0
 24 22  2  0
M  END
$$$$
