VDI.pdb
     RDKit          3D

 24 23  0  0  1  0  0  0  0  0999 V2000
    8.0708  -12.7794   18.7936 C   0  0  0  0  0  0  0  0  0  0  0  0
    8.2236  -13.3924   20.1688 C   0  0  1  0  0  0  0  0  0  0  0  0
    7.3084  -12.7677   21.1774 C   0  0  0  0  0  0  0  0  0  0  0  0
    7.9154  -14.8653   20.0384 C   0  0  2  0  0  0  0  0  0  0  0  0
    6.6521  -15.1236   19.4242 N   0  0  0  0  0  0  0  0  0  0  0  0
    8.0581  -15.5697   21.3390 C   0  0  0  0  0  0  0  0  0  0  0  0
    7.0296  -15.7993   22.0237 O   0  0  0  0  0  0  0  0  0  0  0  0
    9.2997  -16.0058   21.8642 N   0  0  0  0  0  0  0  0  0  0  0  0
    9.4130  -16.7025   23.1311 C   0  0  1  0  0  0  0  0  0  0  0  0
   10.4498  -17.7988   23.0731 C   0  0  0  0  0  0  0  0  0  0  0  0
   10.6355  -18.4960   24.3451 C   0  0  0  0  0  0  0  0  0  0  0  0
    9.6964  -18.8964   25.0760 O   0  0  0  0  0  0  0  0  0  0  0  0
    9.6874  -15.7163   24.1914 C   0  0  0  0  0  0  0  0  0  0  0  0
   10.6579  -14.9374   24.1184 O   0  0  0  0  0  0  0  0  0  0  0  0
   11.9238  -18.7423   24.7942 O   0  0  0  0  0  0  0  0  0  0  0  0
    6.1177  -12.4638   26.0354 C   0  0  0  0  0  0  0  0  0  0  0  0
    7.3902  -13.1487   25.6317 C   0  0  0  0  0  0  0  0  0  0  0  0
    7.9370  -13.9584   26.8075 C   0  0  2  0  0  0  0  0  0  0  0  0
    8.2167  -13.0077   27.9255 C   0  0  0  0  0  0  0  0  0  0  0  0
    9.1691  -14.7328   26.3850 C   0  0  2  0  0  0  0  0  0  0  0  0
    8.8461  -15.6361   25.3209 N   0  0  0  0  0  0  0  0  0  0  0  0
    9.6929  -15.5559   27.5149 C   0  0  0  0  0  0  0  0  0  0  0  0
    9.2389  -16.8292   27.7990 O   0  0  0  0  0  0  0  0  0  0  0  0
   10.5905  -15.0672   28.2433 O   0  0  0  0  0  0  0  0  0  0  0  0
  2  3  1  1
  2  1  1  0
  4  2  1  0
  4  5  1  1
  6  7  2  0
  6  4  1  0
  8  6  1  0
  9  8  1  0
  9 10  1  6
 10 11  1  0
 11 12  2  0
 11 15  1  0
 13  9  1  0
 14 13  2  0
 16 17  1  0
 18 17  1  0
 18 20  1  0
 18 19  1  1
 20 21  1  6
 21 13  1  0
 22 20  1  0
 22 23  1  0
 24 22  2  0
M  END
$$$$
