VDI.pdb
     RDKit          3D

 24 23  0  0  1  0  0  0  0  0999 V2000
    8.1137  -12.6132   18.5440 C   0  0  0  0  0  0  0  0  0  0  0  0
    8.3329  -13.3133   19.8677 C   0  0  1  0  0  0  0  0  0  0  0  0
    7.3981  -12.8266   20.9328 C   0  0  0  0  0  0  0  0  0  0  0  0
    8.1198  -14.7901   19.6330 C   0  0  2  0  0  0  0  0  0  0  0  0
    6.8652  -15.0869   19.0185 N   0  0  0  0  0  0  0  0  0  0  0  0
    8.3325  -15.5763   20.8758 C   0  0  0  0  0  0  0  0  0  0  0  0
    7.3323  -15.9547   21.5361 O   0  0  0  0  0  0  0  0  0  0  0  0
    9.6114  -15.9319   21.3713 N   0  0  0  0  0  0  0  0  0  0  0  0
    9.7956  -16.6675   22.6076 C   0  0  1  0  0  0  0  0  0  0  0  0
   11.0281  -17.5386   22.5590 C   0  0  0  0  0  0  0  0  0  0  0  0
   11.3209  -18.2088   23.8254 C   0  0  0  0  0  0  0  0  0  0  0  0
   10.4858  -18.8800   24.4801 O   0  0  0  0  0  0  0  0  0  0  0  0
    9.8193  -15.7114   23.7289 C   0  0  0  0  0  0  0  0  0  0  0  0
   10.6725  -14.8048   23.7915 O   0  0  0  0  0  0  0  0  0  0  0  0
   12.5972  -18.1110   24.3577 O   0  0  0  0  0  0  0  0  0  0  0  0
    6.5796  -11.9975   26.8106 C   0  0  0  0  0  0  0  0  0  0  0  0
    7.6700  -13.0130   26.9862 C   0  0  0  0  0  0  0  0  0  0  0  0
    7.6565  -13.9940   25.8138 C   0  0  2  0  0  0  0  0  0  0  0  0
    6.3940  -14.7884   25.8978 C   0  0  0  0  0  0  0  0  0  0  0  0
    8.8934  -14.8688   25.8457 C   0  0  2  0  0  0  0  0  0  0  0  0
    8.8649  -15.8072   24.7633 N   0  0  0  0  0  0  0  0  0  0  0  0
    8.9523  -15.6600   27.1103 C   0  0  0  0  0  0  0  0  0  0  0  0
    9.3337  -15.1218   28.3239 O   0  0  0  0  0  0  0  0  0  0  0  0
    8.6399  -16.8748   27.0692 O   0  0  0  0  0  0  0  0  0  0  0  0
  2  3  1  1
  2  1  1  0
  4  2  1  0
  4  5  1  1
  6  7  2  0
  6  4  1  0
  8  6  1  0
  9  8  1  0
  9 10  1  6
 10 11  1  0
 11 12  2  0
 11 15  1  0
 13  9  1  0
 14 13  2  0
 16 17  1  0
 18 17  1  0
 18 20  1  0
 18 19  1  1
 20 21  1  6
 21 13  1  0
 22 20  1  0
 22 23  1  0
 24 22  2  0
M  END
$$$$
