VDI.pdb
     RDKit          3D

 24 23  0  0  1  0  0  0  0  0999 V2000
    7.6770  -12.3662   18.9493 C   0  0  0  0  0  0  0  0  0  0  0  0
    7.4170  -13.4100   20.0138 C   0  0  1  0  0  0  0  0  0  0  0  0
    6.7133  -14.6164   19.4710 C   0  0  0  0  0  0  0  0  0  0  0  0
    8.7572  -13.8104   20.5839 C   0  0  2  0  0  0  0  0  0  0  0  0
    9.6489  -14.3439   19.6041 N   0  0  0  0  0  0  0  0  0  0  0  0
    8.6045  -14.7165   21.7518 C   0  0  0  0  0  0  0  0  0  0  0  0
    7.6723  -14.5066   22.5681 O   0  0  0  0  0  0  0  0  0  0  0  0
    9.4567  -15.8192   22.0074 N   0  0  0  0  0  0  0  0  0  0  0  0
    9.3984  -16.5856   23.2372 C   0  0  1  0  0  0  0  0  0  0  0  0
   10.1937  -17.8652   23.1343 C   0  0  0  0  0  0  0  0  0  0  0  0
    9.8768  -18.6566   21.9461 C   0  0  0  0  0  0  0  0  0  0  0  0
    8.7493  -19.1555   21.7085 O   0  0  0  0  0  0  0  0  0  0  0  0
    9.8424  -15.7287   24.3511 C   0  0  0  0  0  0  0  0  0  0  0  0
   10.9213  -15.1062   24.3015 O   0  0  0  0  0  0  0  0  0  0  0  0
   10.8701  -18.8844   21.0062 O   0  0  0  0  0  0  0  0  0  0  0  0
    6.2941  -12.6233   26.5315 C   0  0  0  0  0  0  0  0  0  0  0  0
    7.5757  -13.2049   26.0113 C   0  0  0  0  0  0  0  0  0  0  0  0
    8.2876  -13.9687   27.1278 C   0  0  2  0  0  0  0  0  0  0  0  0
    8.6916  -12.9792   28.1718 C   0  0  0  0  0  0  0  0  0  0  0  0
    9.4694  -14.7356   26.5698 C   0  0  2  0  0  0  0  0  0  0  0  0
    9.0441  -15.5968   25.5066 N   0  0  0  0  0  0  0  0  0  0  0  0
   10.0827  -15.6036   27.6182 C   0  0  0  0  0  0  0  0  0  0  0  0
    9.9105  -16.9734   27.6639 O   0  0  0  0  0  0  0  0  0  0  0  0
   10.7902  -15.0623   28.5022 O   0  0  0  0  0  0  0  0  0  0  0  0
  2  3  1  6
  2  1  1  0
  4  2  1  0
  4  5  1  6
  6  7  2  0
  6  4  1  0
  8  6  1  0
  9  8  1  0
  9 10  1  6
 10 11  1  0
 11 12  2  0
 11 15  1  0
 13  9  1  0
 14 13  2  0
 16 17  1  0
 18 17  1  0
 18 20  1  0
 18 19  1  1
 20 21  1  6
 21 13  1  0
 22 20  1  0
 22 23  1  0
 24 22  2  0
M  END
$$$$
