VDI.pdb
     RDKit          3D

 24 23  0  0  1  0  0  0  0  0999 V2000
    8.8327  -12.7951   20.8985 C   0  0  0  0  0  0  0  0  0  0  0  0
    7.7726  -13.3735   19.9863 C   0  0  1  0  0  0  0  0  0  0  0  0
    7.7715  -12.7310   18.6327 C   0  0  0  0  0  0  0  0  0  0  0  0
    8.0553  -14.8512   19.8531 C   0  0  2  0  0  0  0  0  0  0  0  0
    7.1340  -15.5253   18.9948 N   0  0  0  0  0  0  0  0  0  0  0  0
    8.1633  -15.5079   21.1817 C   0  0  0  0  0  0  0  0  0  0  0  0
    7.1128  -15.7610   21.8235 O   0  0  0  0  0  0  0  0  0  0  0  0
    9.3947  -15.8725   21.7802 N   0  0  0  0  0  0  0  0  0  0  0  0
    9.4734  -16.5479   23.0612 C   0  0  1  0  0  0  0  0  0  0  0  0
   10.5307  -17.6260   23.0583 C   0  0  0  0  0  0  0  0  0  0  0  0
   10.1776  -18.7892   22.2454 C   0  0  0  0  0  0  0  0  0  0  0  0
   10.7842  -19.1330   21.2012 O   0  0  0  0  0  0  0  0  0  0  0  0
    9.6914  -15.5411   24.1152 C   0  0  0  0  0  0  0  0  0  0  0  0
   10.6156  -14.7082   24.0366 O   0  0  0  0  0  0  0  0  0  0  0  0
    9.1065  -19.5794   22.6332 O   0  0  0  0  0  0  0  0  0  0  0  0
    5.8912  -12.5514   25.7772 C   0  0  0  0  0  0  0  0  0  0  0  0
    7.2358  -13.1239   25.4375 C   0  0  0  0  0  0  0  0  0  0  0  0
    7.8206  -13.8308   26.6602 C   0  0  2  0  0  0  0  0  0  0  0  0
    8.0349  -12.8027   27.7228 C   0  0  0  0  0  0  0  0  0  0  0  0
    9.0997  -14.5533   26.2883 C   0  0  2  0  0  0  0  0  0  0  0  0
    8.8474  -15.5023   25.2449 N   0  0  0  0  0  0  0  0  0  0  0  0
    9.6376  -15.3158   27.4536 C   0  0  0  0  0  0  0  0  0  0  0  0
    9.2971  -16.6270   27.7236 O   0  0  0  0  0  0  0  0  0  0  0  0
   10.4391  -14.7371   28.2266 O   0  0  0  0  0  0  0  0  0  0  0  0
  2  3  1  6
  2  1  1  0
  4  2  1  0
  4  5  1  6
  6  7  2  0
  6  4  1  0
  8  6  1  0
  9  8  1  0
  9 10  1  6
 10 11  1  0
 11 12  2  0
 11 15  1  0
 13  9  1  0
 14 13  2  0
 16 17  1  0
 18 17  1  0
 18 20  1  0
 18 19  1  1
 20 21  1  6
 21 13  1  0
 22 20  1  0
 22 23  1  0
 24 22  2  0
M  END
$$$$
