VDI.pdb
     RDKit          3D

 24 23  0  0  1  0  0  0  0  0999 V2000
    7.7704  -12.5284   18.5508 C   0  0  0  0  0  0  0  0  0  0  0  0
    7.4767  -13.4280   19.7319 C   0  0  1  0  0  0  0  0  0  0  0  0
    6.6829  -14.6383   19.3445 C   0  0  0  0  0  0  0  0  0  0  0  0
    8.8053  -13.8499   20.3136 C   0  0  2  0  0  0  0  0  0  0  0  0
    9.6401  -14.5297   19.3751 N   0  0  0  0  0  0  0  0  0  0  0  0
    8.6296  -14.6257   21.5687 C   0  0  0  0  0  0  0  0  0  0  0  0
    7.7459  -14.2680   22.3876 O   0  0  0  0  0  0  0  0  0  0  0  0
    9.4075  -15.7609   21.9060 N   0  0  0  0  0  0  0  0  0  0  0  0
    9.1826  -16.5343   23.1122 C   0  0  1  0  0  0  0  0  0  0  0  0
    9.9061  -17.8589   23.0674 C   0  0  0  0  0  0  0  0  0  0  0  0
    9.8105  -18.5340   21.7737 C   0  0  0  0  0  0  0  0  0  0  0  0
    8.7532  -19.0271   21.3096 O   0  0  0  0  0  0  0  0  0  0  0  0
    9.5651  -15.7169   24.2774 C   0  0  0  0  0  0  0  0  0  0  0  0
   10.6715  -15.1455   24.3348 O   0  0  0  0  0  0  0  0  0  0  0  0
   10.9486  -18.6495   20.9906 O   0  0  0  0  0  0  0  0  0  0  0  0
    6.3190  -12.1588   26.1297 C   0  0  0  0  0  0  0  0  0  0  0  0
    7.5208  -12.9709   25.7459 C   0  0  0  0  0  0  0  0  0  0  0  0
    7.9353  -13.8651   26.9144 C   0  0  2  0  0  0  0  0  0  0  0  0
    8.3139  -12.9784   28.0557 C   0  0  0  0  0  0  0  0  0  0  0  0
    9.0647  -14.7854   26.4977 C   0  0  2  0  0  0  0  0  0  0  0  0
    8.6746  -15.5654   25.3609 N   0  0  0  0  0  0  0  0  0  0  0  0
    9.4009  -15.7435   27.5921 C   0  0  0  0  0  0  0  0  0  0  0  0
    9.0939  -17.0893   27.5420 O   0  0  0  0  0  0  0  0  0  0  0  0
    9.9920  -15.3047   28.6086 O   0  0  0  0  0  0  0  0  0  0  0  0
  2  3  1  6
  2  1  1  0
  4  2  1  0
  4  5  1  6
  6  7  2  0
  6  4  1  0
  8  6  1  0
  9  8  1  0
  9 10  1  6
 10 11  1  0
 11 12  2  0
 11 15  1  0
 13  9  1  0
 14 13  2  0
 16 17  1  0
 18 17  1  0
 18 20  1  0
 18 19  1  1
 20 21  1  6
 21 13  1  0
 22 20  1  0
 22 23  1  0
 24 22  2  0
M  END
$$$$
