VDI.pdb
     RDKit          3D

 24 23  0  0  1  0  0  0  0  0999 V2000
    8.7106  -12.7475   20.5902 C   0  0  0  0  0  0  0  0  0  0  0  0
    7.7394  -13.3194   19.5802 C   0  0  1  0  0  0  0  0  0  0  0  0
    7.7204  -12.5394   18.3010 C   0  0  0  0  0  0  0  0  0  0  0  0
    8.1648  -14.7428   19.3075 C   0  0  2  0  0  0  0  0  0  0  0  0
    7.3413  -15.4015   18.3442 N   0  0  0  0  0  0  0  0  0  0  0  0
    8.2885  -15.5256   20.5645 C   0  0  0  0  0  0  0  0  0  0  0  0
    7.2598  -16.0524   21.0580 O   0  0  0  0  0  0  0  0  0  0  0  0
    9.5120  -15.7186   21.2526 N   0  0  0  0  0  0  0  0  0  0  0  0
    9.6092  -16.4921   22.4755 C   0  0  1  0  0  0  0  0  0  0  0  0
   10.7715  -17.4552   22.4344 C   0  0  0  0  0  0  0  0  0  0  0  0
   10.9749  -18.1802   23.6881 C   0  0  0  0  0  0  0  0  0  0  0  0
   10.0670  -18.7821   24.3124 O   0  0  0  0  0  0  0  0  0  0  0  0
    9.6800  -15.5645   23.6186 C   0  0  0  0  0  0  0  0  0  0  0  0
   10.6083  -14.7401   23.7294 O   0  0  0  0  0  0  0  0  0  0  0  0
   12.2448  -18.2194   24.2428 O   0  0  0  0  0  0  0  0  0  0  0  0
    6.5241  -11.6863   26.6147 C   0  0  0  0  0  0  0  0  0  0  0  0
    7.5949  -12.7216   26.7949 C   0  0  0  0  0  0  0  0  0  0  0  0
    7.5389  -13.7288   25.6463 C   0  0  2  0  0  0  0  0  0  0  0  0
    6.2434  -14.4660   25.7485 C   0  0  0  0  0  0  0  0  0  0  0  0
    8.7370  -14.6549   25.6998 C   0  0  2  0  0  0  0  0  0  0  0  0
    8.6860  -15.5944   24.6192 N   0  0  0  0  0  0  0  0  0  0  0  0
    8.7425  -15.4443   26.9669 C   0  0  0  0  0  0  0  0  0  0  0  0
    9.1861  -14.9382   28.1732 O   0  0  0  0  0  0  0  0  0  0  0  0
    8.3233  -16.6268   26.9351 O   0  0  0  0  0  0  0  0  0  0  0  0
  2  3  1  6
  2  1  1  0
  4  2  1  0
  4  5  1  6
  6  7  2  0
  6  4  1  0
  8  6  1  0
  9  8  1  0
  9 10  1  6
 10 11  1  0
 11 12  2  0
 11 15  1  0
 13  9  1  0
 14 13  2  0
 16 17  1  0
 18 17  1  0
 18 20  1  0
 18 19  1  1
 20 21  1  6
 21 13  1  0
 22 20  1  0
 22 23  1  0
 24 22  2  0
M  END
$$$$
