KNC.pdb
     RDKit          3D

 24 23  0  0  1  0  0  0  0  0999 V2000
   24.4213  -20.0850  -14.8681 N   0  0  0  0  0  0  0  0  0  0  0  0
   25.8196  -19.5954  -15.0012 C   0  0  1  0  0  0  0  0  0  0  0  0
   26.5184  -20.6910  -15.7781 C   0  0  0  0  0  0  0  0  0  0  0  0
   26.1278  -22.0777  -15.4036 C   0  0  0  0  0  0  0  0  0  0  0  0
   26.6748  -23.1199  -16.3413 C   0  0  0  0  0  0  0  0  0  0  0  0
   26.2992  -24.5248  -15.8899 C   0  0  0  0  0  0  0  0  0  0  0  0
   26.7379  -25.5127  -16.8547 N   0  0  0  0  0  0  0  0  0  0  0  0
   25.7191  -18.3185  -15.7575 C   0  0  0  0  0  0  0  0  0  0  0  0
   26.7485  -17.6209  -15.9839 O   0  0  0  0  0  0  0  0  0  0  0  0
   24.2321  -15.6935  -20.6241 N   0  0  0  0  0  0  0  0  0  0  0  0
   23.7349  -15.7324  -19.2974 C   0  0  0  0  0  0  0  0  0  0  0  0
   23.0229  -14.7652  -18.9111 O   0  0  0  0  0  0  0  0  0  0  0  0
   24.0242  -16.8383  -18.3997 C   0  0  0  0  0  0  0  0  0  0  0  0
   24.3932  -16.5417  -17.0064 C   0  0  2  0  0  0  0  0  0  0  0  0
   24.4852  -17.8069  -16.2711 N   0  0  0  0  0  0  0  0  0  0  0  0
   23.6432  -15.5300  -16.2726 C   0  0  0  0  0  0  0  0  0  0  0  0
   22.5713  -15.9353  -15.6785 O   0  0  0  0  0  0  0  0  0  0  0  0
   23.9465  -14.1623  -16.1363 N   0  0  0  0  0  0  0  0  0  0  0  0
   23.0155  -13.2902  -15.4344 C   0  0  1  0  0  0  0  0  0  0  0  0
   23.6765  -12.3937  -14.4302 C   0  0  0  0  0  0  0  0  0  0  0  0
   22.5181  -11.2140  -13.7067 S   0  0  0  0  0  0  0  0  0  0  0  0
   22.3165  -12.3950  -16.4290 C   0  0  0  0  0  0  0  0  0  0  0  0
   22.8853  -12.0067  -17.4667 O   0  0  0  0  0  0  0  0  0  0  0  0
   21.0292  -12.0098  -16.1682 O   0  0  0  0  0  0  0  0  0  0  0  0
  2  1  1  6
  3  2  1  0
  4  3  1  0
  4  5  1  0
  5  6  1  0
  7  6  1  0
  8 15  1  0
  8  2  1  0
  9  8  2  0
 10 11  1  0
 11 13  1  0
 12 11  2  0
 14 13  1  6
 14 15  1  0
 14 16  1  0
 16 18  1  0
 16 17  2  0
 18 19  1  0
 19 20  1  1
 21 20  1  0
 22 19  1  0
 22 24  1  0
 23 22  2  0
M  END
$$$$
