KNC.pdb
     RDKit          3D

 24 23  0  0  1  0  0  0  0  0999 V2000
   16.6641  -10.5406  -15.7996 N   0  0  0  0  0  0  0  0  0  0  0  0
   18.0470  -10.9467  -15.4318 C   0  0  1  0  0  0  0  0  0  0  0  0
   18.2591  -12.2443  -16.1827 C   0  0  0  0  0  0  0  0  0  0  0  0
   17.1549  -13.2343  -16.0560 C   0  0  0  0  0  0  0  0  0  0  0  0
   17.6264  -14.5926  -15.6117 C   0  0  0  0  0  0  0  0  0  0  0  0
   16.4690  -15.5769  -15.5118 C   0  0  0  0  0  0  0  0  0  0  0  0
   16.9149  -16.8473  -14.9767 N   0  0  0  0  0  0  0  0  0  0  0  0
   18.9221   -9.8449  -15.9143 C   0  0  0  0  0  0  0  0  0  0  0  0
   20.1773   -9.9145  -15.7833 O   0  0  0  0  0  0  0  0  0  0  0  0
   19.9575   -5.9619  -20.2567 N   0  0  0  0  0  0  0  0  0  0  0  0
   19.3999   -5.9754  -18.9538 C   0  0  0  0  0  0  0  0  0  0  0  0
   19.3957   -4.8915  -18.3083 O   0  0  0  0  0  0  0  0  0  0  0  0
   18.8480   -7.1847  -18.3659 C   0  0  0  0  0  0  0  0  0  0  0  0
   19.2883   -7.5822  -17.0192 C   0  0  2  0  0  0  0  0  0  0  0  0
   18.4186   -8.6640  -16.5469 N   0  0  0  0  0  0  0  0  0  0  0  0
   19.4913   -6.5545  -16.0057 C   0  0  0  0  0  0  0  0  0  0  0  0
   18.4281   -6.1137  -15.4212 O   0  0  0  0  0  0  0  0  0  0  0  0
   20.7082   -5.9830  -15.5894 N   0  0  0  0  0  0  0  0  0  0  0  0
   20.7018   -4.9730  -14.5406 C   0  0  1  0  0  0  0  0  0  0  0  0
   21.0886   -5.5068  -13.1935 C   0  0  0  0  0  0  0  0  0  0  0  0
   22.6393   -6.4286  -13.2480 S   0  0  0  0  0  0  0  0  0  0  0  0
   21.6915   -3.8855  -14.8825 C   0  0  0  0  0  0  0  0  0  0  0  0
   22.4325   -3.9702  -15.8799 O   0  0  0  0  0  0  0  0  0  0  0  0
   21.7640   -2.7890  -14.0664 O   0  0  0  0  0  0  0  0  0  0  0  0
  2  1  1  6
  3  2  1  0
  4  3  1  0
  4  5  1  0
  5  6  1  0
  7  6  1  0
  8 15  1  0
  8  2  1  0
  9  8  2  0
 10 11  1  0
 11 13  1  0
 12 11  2  0
 14 13  1  6
 14 15  1  0
 14 16  1  0
 16 18  1  0
 16 17  2  0
 18 19  1  0
 19 20  1  1
 21 20  1  0
 22 19  1  0
 22 24  1  0
 23 22  2  0
M  END
$$$$
