KNC.pdb
     RDKit          3D

 24 23  0  0  1  0  0  0  0  0999 V2000
   16.0281  -12.1301  -14.0257 N   0  0  0  0  0  0  0  0  0  0  0  0
   16.7018  -11.9752  -15.3428 C   0  0  1  0  0  0  0  0  0  0  0  0
   15.7195  -12.5716  -16.3285 C   0  0  0  0  0  0  0  0  0  0  0  0
   15.0774  -13.8408  -15.8898 C   0  0  0  0  0  0  0  0  0  0  0  0
   16.0350  -15.0004  -15.8359 C   0  0  0  0  0  0  0  0  0  0  0  0
   15.3365  -16.2769  -15.3877 C   0  0  0  0  0  0  0  0  0  0  0  0
   16.2693  -17.3842  -15.3301 N   0  0  0  0  0  0  0  0  0  0  0  0
   16.8874  -10.5099  -15.5198 C   0  0  0  0  0  0  0  0  0  0  0  0
   17.2802  -10.0390  -16.6250 O   0  0  0  0  0  0  0  0  0  0  0  0
   16.6891   -5.2133  -14.8243 N   0  0  0  0  0  0  0  0  0  0  0  0
   15.6047   -5.9590  -14.2983 C   0  0  0  0  0  0  0  0  0  0  0  0
   14.5919   -5.3189  -13.9030 O   0  0  0  0  0  0  0  0  0  0  0  0
   15.6398   -7.4093  -14.2097 C   0  0  0  0  0  0  0  0  0  0  0  0
   16.8506   -8.1170  -14.6553 C   0  0  2  0  0  0  0  0  0  0  0  0
   16.6369   -9.5572  -14.4817 N   0  0  0  0  0  0  0  0  0  0  0  0
   18.1500   -7.6873  -14.1539 C   0  0  0  0  0  0  0  0  0  0  0  0
   18.3598   -7.8628  -12.8924 O   0  0  0  0  0  0  0  0  0  0  0  0
   19.2033   -7.1011  -14.8805 N   0  0  0  0  0  0  0  0  0  0  0  0
   20.4401   -6.7563  -14.1940 C   0  0  1  0  0  0  0  0  0  0  0  0
   21.5922   -7.6467  -14.5531 C   0  0  0  0  0  0  0  0  0  0  0  0
   23.1488   -7.0582  -13.8548 S   0  0  0  0  0  0  0  0  0  0  0  0
   20.8433   -5.3481  -14.5593 C   0  0  0  0  0  0  0  0  0  0  0  0
   20.3027   -4.7406  -15.5026 O   0  0  0  0  0  0  0  0  0  0  0  0
   21.8278   -4.7404  -13.8278 O   0  0  0  0  0  0  0  0  0  0  0  0
  2  1  1  1
  3  2  1  0
  4  3  1  0
  4  5  1  0
  5  6  1  0
  7  6  1  0
  8 15  1  0
  8  2  1  0
  9  8  2  0
 10 11  1  0
 11 13  1  0
 12 11  2  0
 14 13  1  1
 14 15  1  0
 14 16  1  0
 16 18  1  0
 16 17  2  0
 18 19  1  0
 19 20  1  6
 21 20  1  0
 22 19  1  0
 22 24  1  0
 23 22  2  0
M  END
$$$$
