KNC.pdb
     RDKit          3D

 24 23  0  0  1  0  0  0  0  0999 V2000
   17.7941  -11.8499  -14.7921 N   0  0  0  0  0  0  0  0  0  0  0  0
   17.1907  -10.4921  -14.8625 C   0  0  1  0  0  0  0  0  0  0  0  0
   15.7001  -10.7554  -14.8951 C   0  0  0  0  0  0  0  0  0  0  0  0
   15.2180  -11.5069  -16.0861 C   0  0  0  0  0  0  0  0  0  0  0  0
   13.7278  -11.7167  -16.0898 C   0  0  0  0  0  0  0  0  0  0  0  0
   13.2712  -12.4338  -17.3529 C   0  0  0  0  0  0  0  0  0  0  0  0
   11.8318  -12.5989  -17.3625 N   0  0  0  0  0  0  0  0  0  0  0  0
   17.6329   -9.8004  -13.6221 C   0  0  0  0  0  0  0  0  0  0  0  0
   17.6912  -10.4223  -12.5233 O   0  0  0  0  0  0  0  0  0  0  0  0
   21.0804   -8.6491  -12.9594 N   0  0  0  0  0  0  0  0  0  0  0  0
   20.7919   -7.2623  -12.9134 C   0  0  0  0  0  0  0  0  0  0  0  0
   21.7458   -6.4597  -13.1075 O   0  0  0  0  0  0  0  0  0  0  0  0
   19.4515   -6.7638  -12.6534 C   0  0  0  0  0  0  0  0  0  0  0  0
   18.3835   -7.7292  -12.3486 C   0  0  2  0  0  0  0  0  0  0  0  0
   18.0166   -8.4221  -13.5876 N   0  0  0  0  0  0  0  0  0  0  0  0
   17.2159   -7.2839  -11.5986 C   0  0  0  0  0  0  0  0  0  0  0  0
   16.3154   -6.6491  -12.2711 O   0  0  0  0  0  0  0  0  0  0  0  0
   16.9535   -7.4610  -10.2271 N   0  0  0  0  0  0  0  0  0  0  0  0
   15.7264   -6.9215   -9.6586 C   0  0  1  0  0  0  0  0  0  0  0  0
   15.4154   -7.4543   -8.2917 C   0  0  0  0  0  0  0  0  0  0  0  0
   13.8530   -6.8154   -7.6531 S   0  0  0  0  0  0  0  0  0  0  0  0
   15.8481   -5.4224   -9.5282 C   0  0  0  0  0  0  0  0  0  0  0  0
   16.9459   -4.8752   -9.3124 O   0  0  0  0  0  0  0  0  0  0  0  0
   14.7163   -4.6625   -9.6514 O   0  0  0  0  0  0  0  0  0  0  0  0
  2  1  1  1
  3  2  1  0
  4  3  1  0
  4  5  1  0
  5  6  1  0
  7  6  1  0
  8 15  1  0
  8  2  1  0
  9  8  2  0
 10 11  1  0
 11 13  1  0
 12 11  2  0
 14 13  1  6
 14 15  1  0
 14 16  1  0
 16 18  1  0
 16 17  2  0
 18 19  1  0
 19 20  1  1
 21 20  1  0
 22 19  1  0
 22 24  1  0
 23 22  2  0
M  END
$$$$
