KNC.pdb
     RDKit          3D

 24 23  0  0  1  0  0  0  0  0999 V2000
   25.7963  -15.6819  -15.5964 N   0  0  0  0  0  0  0  0  0  0  0  0
   24.5178  -16.3799  -15.2953 C   0  0  1  0  0  0  0  0  0  0  0  0
   23.6775  -16.1549  -16.5345 C   0  0  0  0  0  0  0  0  0  0  0  0
   23.6887  -14.7624  -17.0601 C   0  0  0  0  0  0  0  0  0  0  0  0
   24.4764  -14.6173  -18.3341 C   0  0  0  0  0  0  0  0  0  0  0  0
   24.5011  -13.1711  -18.8100 C   0  0  0  0  0  0  0  0  0  0  0  0
   25.3736  -13.0187  -19.9567 N   0  0  0  0  0  0  0  0  0  0  0  0
   24.8867  -17.8067  -15.0930 C   0  0  0  0  0  0  0  0  0  0  0  0
   23.9932  -18.6943  -14.9858 O   0  0  0  0  0  0  0  0  0  0  0  0
   27.6263  -22.3834  -14.7142 N   0  0  0  0  0  0  0  0  0  0  0  0
   28.1140  -21.4427  -15.6554 C   0  0  0  0  0  0  0  0  0  0  0  0
   28.9713  -21.8416  -16.4906 O   0  0  0  0  0  0  0  0  0  0  0  0
   27.6547  -20.0638  -15.6734 C   0  0  0  0  0  0  0  0  0  0  0  0
   26.5957  -19.6577  -14.7357 C   0  0  2  0  0  0  0  0  0  0  0  0
   26.2410  -18.2621  -15.0122 N   0  0  0  0  0  0  0  0  0  0  0  0
   26.7726  -19.9106  -13.3112 C   0  0  0  0  0  0  0  0  0  0  0  0
   27.9661  -19.7466  -12.8478 O   0  0  0  0  0  0  0  0  0  0  0  0
   25.7976  -20.3149  -12.3801 N   0  0  0  0  0  0  0  0  0  0  0  0
   26.2138  -20.7672  -11.0602 C   0  0  1  0  0  0  0  0  0  0  0  0
   26.7485  -19.6676  -10.1918 C   0  0  0  0  0  0  0  0  0  0  0  0
   26.8135  -20.1461   -8.4529 S   0  0  0  0  0  0  0  0  0  0  0  0
   25.0309  -21.3629  -10.3356 C   0  0  0  0  0  0  0  0  0  0  0  0
   23.8617  -21.1207  -10.6899 O   0  0  0  0  0  0  0  0  0  0  0  0
   25.2666  -22.1844   -9.2664 O   0  0  0  0  0  0  0  0  0  0  0  0
  2  1  1  6
  3  2  1  0
  4  3  1  0
  4  5  1  0
  5  6  1  0
  7  6  1  0
  8 15  1  0
  8  2  1  0
  9  8  2  0
 10 11  1  0
 11 13  1  0
 12 11  2  0
 14 13  1  6
 14 15  1  0
 14 16  1  0
 16 18  1  0
 16 17  2  0
 18 19  1  0
 19 20  1  1
 21 20  1  0
 22 19  1  0
 22 24  1  0
 23 22  2  0
M  END
$$$$
