KNC.pdb
     RDKit          3D

 24 23  0  0  1  0  0  0  0  0999 V2000
   24.3362  -20.7968  -16.2494 N   0  0  0  0  0  0  0  0  0  0  0  0
   24.4807  -19.4773  -15.5781 C   0  0  1  0  0  0  0  0  0  0  0  0
   25.2826  -19.7869  -14.3317 C   0  0  0  0  0  0  0  0  0  0  0  0
   24.7197  -20.8622  -13.4701 C   0  0  0  0  0  0  0  0  0  0  0  0
   25.4809  -21.0502  -12.1856 C   0  0  0  0  0  0  0  0  0  0  0  0
   24.7419  -21.9805  -11.2334 C   0  0  0  0  0  0  0  0  0  0  0  0
   25.4882  -22.1626  -10.0049 N   0  0  0  0  0  0  0  0  0  0  0  0
   25.2169  -18.6216  -16.5467 C   0  0  0  0  0  0  0  0  0  0  0  0
   25.8545  -19.1383  -17.5081 O   0  0  0  0  0  0  0  0  0  0  0  0
   26.0399  -18.3606  -20.6403 N   0  0  0  0  0  0  0  0  0  0  0  0
   26.3382  -17.2712  -19.7842 C   0  0  0  0  0  0  0  0  0  0  0  0
   27.4738  -16.7332  -19.8963 O   0  0  0  0  0  0  0  0  0  0  0  0
   25.3829  -16.7775  -18.8064 C   0  0  0  0  0  0  0  0  0  0  0  0
   25.8761  -16.3509  -17.4871 C   0  0  2  0  0  0  0  0  0  0  0  0
   25.2505  -17.1933  -16.4630 N   0  0  0  0  0  0  0  0  0  0  0  0
   25.8378  -14.9365  -17.1375 C   0  0  0  0  0  0  0  0  0  0  0  0
   24.6746  -14.4496  -16.8615 O   0  0  0  0  0  0  0  0  0  0  0  0
   26.9176  -14.0365  -17.0672 N   0  0  0  0  0  0  0  0  0  0  0  0
   26.6697  -12.6498  -16.6987 C   0  0  1  0  0  0  0  0  0  0  0  0
   27.7854  -12.0315  -15.9100 C   0  0  0  0  0  0  0  0  0  0  0  0
   27.4692  -10.2953  -15.5325 S   0  0  0  0  0  0  0  0  0  0  0  0
   26.5023  -11.8189  -17.9479 C   0  0  0  0  0  0  0  0  0  0  0  0
   27.1462  -12.0662  -18.9849 O   0  0  0  0  0  0  0  0  0  0  0  0
   25.6197  -10.7729  -17.9227 O   0  0  0  0  0  0  0  0  0  0  0  0
  2  1  1  6
  3  2  1  0
  4  3  1  0
  4  5  1  0
  5  6  1  0
  7  6  1  0
  8 15  1  0
  8  2  1  0
  9  8  2  0
 10 11  1  0
 11 13  1  0
 12 11  2  0
 14 13  1  6
 14 15  1  0
 14 16  1  0
 16 18  1  0
 16 17  2  0
 18 19  1  0
 19 20  1  6
 21 20  1  0
 22 19  1  0
 22 24  1  0
 23 22  2  0
M  END
$$$$
