KNC.pdb
     RDKit          3D

 24 23  0  0  1  0  0  0  0  0999 V2000
   12.1488  -23.3416    0.1378 N   0  0  0  0  0  0  0  0  0  0  0  0
   13.1836  -23.9911    0.9863 C   0  0  1  0  0  0  0  0  0  0  0  0
   14.3892  -24.0965    0.0765 C   0  0  0  0  0  0  0  0  0  0  0  0
   14.1494  -24.8074   -1.2090 C   0  0  0  0  0  0  0  0  0  0  0  0
   15.3455  -24.7981   -2.1222 C   0  0  0  0  0  0  0  0  0  0  0  0
   15.0530  -25.5248   -3.4278 C   0  0  0  0  0  0  0  0  0  0  0  0
   16.2040  -25.4923   -4.3072 N   0  0  0  0  0  0  0  0  0  0  0  0
   13.3955  -23.0622    2.1286 C   0  0  0  0  0  0  0  0  0  0  0  0
   13.0872  -21.8403    2.0313 O   0  0  0  0  0  0  0  0  0  0  0  0
   13.4618  -23.1401    8.1359 N   0  0  0  0  0  0  0  0  0  0  0  0
   14.2816  -22.7542    7.0461 C   0  0  0  0  0  0  0  0  0  0  0  0
   15.0953  -21.8082    7.2325 O   0  0  0  0  0  0  0  0  0  0  0  0
   14.2021  -23.4128    5.7528 C   0  0  0  0  0  0  0  0  0  0  0  0
   14.0282  -22.5872    4.5471 C   0  0  2  0  0  0  0  0  0  0  0  0
   13.9437  -23.4761    3.3841 N   0  0  0  0  0  0  0  0  0  0  0  0
   14.9283  -21.4638    4.3191 C   0  0  0  0  0  0  0  0  0  0  0  0
   16.0833  -21.7520    3.8198 O   0  0  0  0  0  0  0  0  0  0  0  0
   14.6899  -20.1015    4.5807 N   0  0  0  0  0  0  0  0  0  0  0  0
   15.7404  -19.1285    4.3167 C   0  0  1  0  0  0  0  0  0  0  0  0
   15.3684  -18.1136    3.2771 C   0  0  0  0  0  0  0  0  0  0  0  0
   16.6150  -16.8186    3.1156 S   0  0  0  0  0  0  0  0  0  0  0  0
   16.0510  -18.3666    5.5824 C   0  0  0  0  0  0  0  0  0  0  0  0
   17.0890  -17.6876    5.6949 O   0  0  0  0  0  0  0  0  0  0  0  0
   15.1617  -18.4358    6.6207 O   0  0  0  0  0  0  0  0  0  0  0  0
  2  1  1  6
  3  2  1  0
  4  3  1  0
  4  5  1  0
  5  6  1  0
  7  6  1  0
  8 15  1  0
  8  2  1  0
  9  8  2  0
 10 11  1  0
 11 13  1  0
 12 11  2  0
 14 13  1  1
 14 15  1  0
 14 16  1  0
 16 18  1  0
 16 17  2  0
 18 19  1  0
 19 20  1  6
 21 20  1  0
 22 19  1  0
 22 24  1  0
 23 22  2  0
M  END
$$$$
