KNC.pdb
     RDKit          3D

 24 23  0  0  1  0  0  0  0  0999 V2000
   23.6201  -27.4049  -16.3829 N   0  0  0  0  0  0  0  0  0  0  0  0
   24.4820  -26.2358  -16.0620 C   0  0  1  0  0  0  0  0  0  0  0  0
   25.1837  -25.9292  -17.3681 C   0  0  0  0  0  0  0  0  0  0  0  0
   26.3350  -26.8163  -17.6893 C   0  0  0  0  0  0  0  0  0  0  0  0
   27.5302  -26.5771  -16.8068 C   0  0  0  0  0  0  0  0  0  0  0  0
   28.7253  -27.4083  -17.2533 C   0  0  0  0  0  0  0  0  0  0  0  0
   29.9205  -27.0269  -16.5284 N   0  0  0  0  0  0  0  0  0  0  0  0
   23.5452  -25.1611  -15.6379 C   0  0  0  0  0  0  0  0  0  0  0  0
   22.3069  -25.2558  -15.8730 O   0  0  0  0  0  0  0  0  0  0  0  0
   21.6039  -20.7290  -13.2672 N   0  0  0  0  0  0  0  0  0  0  0  0
   22.9384  -21.0234  -12.8914 C   0  0  0  0  0  0  0  0  0  0  0  0
   23.4555  -20.3263  -11.9758 O   0  0  0  0  0  0  0  0  0  0  0  0
   23.6996  -22.0863  -13.5265 C   0  0  0  0  0  0  0  0  0  0  0  0
   23.0388  -22.9208  -14.5428 C   0  0  2  0  0  0  0  0  0  0  0  0
   23.9678  -23.9798  -14.9494 N   0  0  0  0  0  0  0  0  0  0  0  0
   22.4004  -22.2780  -15.6845 C   0  0  0  0  0  0  0  0  0  0  0  0
   23.1913  -21.8271  -16.5996 O   0  0  0  0  0  0  0  0  0  0  0  0
   21.0238  -22.0876  -15.9078 N   0  0  0  0  0  0  0  0  0  0  0  0
   20.5755  -21.5341  -17.1777 C   0  0  1  0  0  0  0  0  0  0  0  0
   19.2019  -21.9856  -17.5757 C   0  0  0  0  0  0  0  0  0  0  0  0
   18.0632  -22.0110  -16.1757 S   0  0  0  0  0  0  0  0  0  0  0  0
   20.5324  -20.0280  -17.0836 C   0  0  0  0  0  0  0  0  0  0  0  0
   20.6611  -19.4404  -15.9930 O   0  0  0  0  0  0  0  0  0  0  0  0
   20.3455  -19.3073  -18.2322 O   0  0  0  0  0  0  0  0  0  0  0  0
  2  1  1  6
  3  2  1  0
  4  3  1  0
  4  5  1  0
  5  6  1  0
  7  6  1  0
  8 15  1  0
  8  2  1  0
  9  8  2  0
 10 11  1  0
 11 13  1  0
 12 11  2  0
 14 13  1  6
 14 15  1  0
 14 16  1  0
 16 18  1  0
 16 17  2  0
 18 19  1  0
 19 20  1  1
 21 20  1  0
 22 19  1  0
 22 24  1  0
 23 22  2  0
M  END
$$$$
