KNC.pdb
     RDKit          3D

 24 23  0  0  1  0  0  0  0  0999 V2000
   14.7003  -10.0247  -14.9176 N   0  0  0  0  0  0  0  0  0  0  0  0
   15.7610  -10.3758  -13.9356 C   0  0  1  0  0  0  0  0  0  0  0  0
   16.7793  -11.1403  -14.7548 C   0  0  0  0  0  0  0  0  0  0  0  0
   16.4294  -12.5606  -15.0304 C   0  0  0  0  0  0  0  0  0  0  0  0
   17.4591  -13.2719  -15.8661 C   0  0  0  0  0  0  0  0  0  0  0  0
   17.1009  -14.7393  -16.0582 C   0  0  0  0  0  0  0  0  0  0  0  0
   18.1077  -15.4184  -16.8485 N   0  0  0  0  0  0  0  0  0  0  0  0
   16.2771   -9.0747  -13.4320 C   0  0  0  0  0  0  0  0  0  0  0  0
   16.0752   -8.0076  -14.0786 O   0  0  0  0  0  0  0  0  0  0  0  0
   18.4714   -5.2913  -10.3334 N   0  0  0  0  0  0  0  0  0  0  0  0
   17.8108   -6.3362   -9.6402 C   0  0  0  0  0  0  0  0  0  0  0  0
   17.6396   -6.1971   -8.3980 O   0  0  0  0  0  0  0  0  0  0  0  0
   17.3402   -7.5322  -10.3189 C   0  0  0  0  0  0  0  0  0  0  0  0
   17.5878   -7.6710  -11.7628 C   0  0  2  0  0  0  0  0  0  0  0  0
   17.0138   -8.9431  -12.2122 N   0  0  0  0  0  0  0  0  0  0  0  0
   18.9359   -7.4616  -12.2760 C   0  0  0  0  0  0  0  0  0  0  0  0
   19.4512   -6.2972  -12.0641 O   0  0  0  0  0  0  0  0  0  0  0  0
   19.7428   -8.3768  -12.9777 N   0  0  0  0  0  0  0  0  0  0  0  0
   21.0306   -7.9410  -13.4990 C   0  0  1  0  0  0  0  0  0  0  0  0
   22.0724   -9.0197  -13.4985 C   0  0  0  0  0  0  0  0  0  0  0  0
   23.5681   -8.5197  -14.3760 S   0  0  0  0  0  0  0  0  0  0  0  0
   20.8678   -7.4887  -14.9300 C   0  0  0  0  0  0  0  0  0  0  0  0
   21.4120   -6.4503  -15.3501 O   0  0  0  0  0  0  0  0  0  0  0  0
   20.1002   -8.2483  -15.7712 O   0  0  0  0  0  0  0  0  0  0  0  0
  2  1  1  6
  3  2  1  0
  4  3  1  0
  4  5  1  0
  5  6  1  0
  7  6  1  0
  8 15  1  0
  8  2  1  0
  9  8  2  0
 10 11  1  0
 11 13  1  0
 12 11  2  0
 14 13  1  1
 14 15  1  0
 14 16  1  0
 16 18  1  0
 16 17  2  0
 18 19  1  0
 19 20  1  6
 21 20  1  0
 22 19  1  0
 22 24  1  0
 23 22  2  0
M  END
$$$$
