KNC.pdb
     RDKit          3D

 24 23  0  0  1  0  0  0  0  0999 V2000
   21.9506  -12.9076  -17.8792 N   0  0  0  0  0  0  0  0  0  0  0  0
   20.9284  -11.8291  -17.9471 C   0  0  1  0  0  0  0  0  0  0  0  0
   19.9812  -12.1508  -16.8105 C   0  0  0  0  0  0  0  0  0  0  0  0
   19.0155  -13.2495  -17.0857 C   0  0  0  0  0  0  0  0  0  0  0  0
   18.0906  -13.5270  -15.9314 C   0  0  0  0  0  0  0  0  0  0  0  0
   17.1081  -14.6420  -16.2628 C   0  0  0  0  0  0  0  0  0  0  0  0
   16.2614  -14.9404  -15.1256 N   0  0  0  0  0  0  0  0  0  0  0  0
   21.6789  -10.5619  -17.7387 C   0  0  0  0  0  0  0  0  0  0  0  0
   22.4745  -10.4369  -16.7645 O   0  0  0  0  0  0  0  0  0  0  0  0
   24.5139   -9.1943  -20.0210 N   0  0  0  0  0  0  0  0  0  0  0  0
   23.7048   -8.1321  -20.4963 C   0  0  0  0  0  0  0  0  0  0  0  0
   23.9719   -7.6577  -21.6344 O   0  0  0  0  0  0  0  0  0  0  0  0
   22.6027   -7.5957  -19.7152 C   0  0  0  0  0  0  0  0  0  0  0  0
   22.3129   -8.1879  -18.3995 C   0  0  2  0  0  0  0  0  0  0  0  0
   21.5596   -9.4289  -18.6048 N   0  0  0  0  0  0  0  0  0  0  0  0
   21.7282   -7.3530  -17.3577 C   0  0  0  0  0  0  0  0  0  0  0  0
   20.4663   -7.1050  -17.4682 O   0  0  0  0  0  0  0  0  0  0  0  0
   22.3757   -6.7822  -16.2459 N   0  0  0  0  0  0  0  0  0  0  0  0
   21.5887   -6.0752  -15.2455 C   0  0  1  0  0  0  0  0  0  0  0  0
   22.1828   -6.1285  -13.8695 C   0  0  0  0  0  0  0  0  0  0  0  0
   22.3518   -7.8216  -13.2680 S   0  0  0  0  0  0  0  0  0  0  0  0
   21.4863   -4.6172  -15.6232 C   0  0  0  0  0  0  0  0  0  0  0  0
   22.1061   -4.1527  -16.5985 O   0  0  0  0  0  0  0  0  0  0  0  0
   20.6909   -3.8009  -14.8651 O   0  0  0  0  0  0  0  0  0  0  0  0
  2  1  1  1
  3  2  1  0
  4  3  1  0
  4  5  1  0
  5  6  1  0
  7  6  1  0
  8 15  1  0
  8  2  1  0
  9  8  2  0
 10 11  1  0
 11 13  1  0
 12 11  2  0
 14 13  1  6
 14 15  1  0
 14 16  1  0
 16 18  1  0
 16 17  2  0
 18 19  1  0
 19 20  1  1
 21 20  1  0
 22 19  1  0
 22 24  1  0
 23 22  2  0
M  END
$$$$
