KNC.pdb
     RDKit          3D

 24 23  0  0  1  0  0  0  0  0999 V2000
   29.2855  -24.2489  -17.2176 N   0  0  0  0  0  0  0  0  0  0  0  0
   27.8662  -24.4803  -16.8370 C   0  0  1  0  0  0  0  0  0  0  0  0
   27.9345  -25.6253  -15.8488 C   0  0  0  0  0  0  0  0  0  0  0  0
   28.1029  -26.9738  -16.4561 C   0  0  0  0  0  0  0  0  0  0  0  0
   28.7198  -26.9317  -17.8280 C   0  0  0  0  0  0  0  0  0  0  0  0
   28.8248  -28.3252  -18.4326 C   0  0  0  0  0  0  0  0  0  0  0  0
   29.3970  -28.2704  -19.7626 N   0  0  0  0  0  0  0  0  0  0  0  0
   27.4113  -23.2052  -16.2206 C   0  0  0  0  0  0  0  0  0  0  0  0
   28.2495  -22.3599  -15.7956 O   0  0  0  0  0  0  0  0  0  0  0  0
   26.7085  -20.3182  -18.6982 N   0  0  0  0  0  0  0  0  0  0  0  0
   26.4677  -20.0621  -17.3253 C   0  0  0  0  0  0  0  0  0  0  0  0
   27.2760  -19.3051  -16.7210 O   0  0  0  0  0  0  0  0  0  0  0  0
   25.3354  -20.6415  -16.6218 C   0  0  0  0  0  0  0  0  0  0  0  0
   25.5924  -21.5730  -15.5119 C   0  0  2  0  0  0  0  0  0  0  0  0
   26.0318  -22.8542  -16.0734 N   0  0  0  0  0  0  0  0  0  0  0  0
   24.5801  -21.7418  -14.4770 C   0  0  0  0  0  0  0  0  0  0  0  0
   23.7101  -22.6739  -14.6783 O   0  0  0  0  0  0  0  0  0  0  0  0
   24.4359  -21.0081  -13.2846 N   0  0  0  0  0  0  0  0  0  0  0  0
   23.3723  -21.3584  -12.3539 C   0  0  1  0  0  0  0  0  0  0  0  0
   23.5617  -20.7797  -10.9834 C   0  0  0  0  0  0  0  0  0  0  0  0
   25.2257  -21.0700  -10.3477 S   0  0  0  0  0  0  0  0  0  0  0  0
   22.0554  -20.8342  -12.8735 C   0  0  0  0  0  0  0  0  0  0  0  0
   21.9983  -20.0985  -13.8769 O   0  0  0  0  0  0  0  0  0  0  0  0
   20.9079  -21.1840  -12.2143 O   0  0  0  0  0  0  0  0  0  0  0  0
  2  1  1  1
  3  2  1  0
  4  3  1  0
  4  5  1  0
  5  6  1  0
  7  6  1  0
  8 15  1  0
  8  2  1  0
  9  8  2  0
 10 11  1  0
 11 13  1  0
 12 11  2  0
 14 13  1  6
 14 15  1  0
 14 16  1  0
 16 18  1  0
 16 17  2  0
 18 19  1  0
 19 20  1  1
 21 20  1  0
 22 19  1  0
 22 24  1  0
 23 22  2  0
M  END
$$$$
