WCC.pdb
     RDKit          3D

 27 28  0  0  1  0  0  0  0  0999 V2000
   27.1632  -22.6536  -15.1837 N   0  0  0  0  0  0  0  0  0  0  0  0
   26.0350  -22.0733  -14.4877 C   0  0  1  0  0  0  0  0  0  0  0  0
   26.2383  -20.5972  -14.2246 C   0  0  0  0  0  0  0  0  0  0  0  0
   27.1977  -20.3165  -13.1336 C   0  0  0  0  0  0  0  0  0  0  0  0
   28.4855  -19.8503  -13.2941 C   0  0  0  0  0  0  0  0  0  0  0  0
   29.0925  -19.7267  -12.0853 N   0  0  0  0  0  0  0  0  0  0  0  0
   28.2302  -20.1020  -11.1341 C   0  0  0  0  0  0  0  0  0  0  0  0
   28.3693  -20.1509   -9.7644 C   0  0  0  0  0  0  0  0  0  0  0  0
   27.3048  -20.5782   -8.9885 C   0  0  0  0  0  0  0  0  0  0  0  0
   26.1457  -20.9393   -9.5994 C   0  0  0  0  0  0  0  0  0  0  0  0
   26.0234  -20.8840  -10.9804 C   0  0  0  0  0  0  0  0  0  0  0  0
   27.0437  -20.4719  -11.7740 C   0  0  0  0  0  0  0  0  0  0  0  0
   24.8114  -22.3812  -15.2276 C   0  0  0  0  0  0  0  0  0  0  0  0
   24.6733  -21.9771  -16.4095 O   0  0  0  0  0  0  0  0  0  0  0  0
   23.7055  -23.1418  -14.6954 N   0  0  0  0  0  0  0  0  0  0  0  0
   22.5206  -23.3950  -15.4964 C   0  0  1  0  0  0  0  0  0  0  0  0
   22.1585  -24.8894  -15.3796 C   0  0  0  0  0  0  0  0  0  0  0  0
   23.6174  -25.8668  -14.9657 S   0  0  0  0  0  0  0  0  0  0  0  0
   21.3735  -22.5516  -15.1816 C   0  0  0  0  0  0  0  0  0  0  0  0
   21.4260  -21.8447  -14.1161 O   0  0  0  0  0  0  0  0  0  0  0  0
   20.1772  -22.4084  -15.9240 N   0  0  0  0  0  0  0  0  0  0  0  0
   19.3715  -21.2083  -15.9026 C   0  0  1  0  0  0  0  0  0  0  0  0
   20.2069  -19.9663  -16.1518 C   0  0  0  0  0  0  0  0  0  0  0  0
   19.1486  -18.5295  -15.8241 S   0  0  0  0  0  0  0  0  0  0  0  0
   18.2064  -21.2353  -16.7832 C   0  0  0  0  0  0  0  0  0  0  0  0
   18.3618  -21.5630  -17.9950 O   0  0  0  0  0  0  0  0  0  0  0  0
   16.9183  -20.9226  -16.3782 O   0  0  0  0  0  0  0  0  0  0  0  0
  2  1  1  6
  3  2  1  0
  3  4  1  0
  4  5  2  0
  6  5  1  0
  7  6  1  0
  8  7  2  0
  9  8  1  0
 10  9  2  0
 10 11  1  0
 11 12  2  0
 12  7  1  0
 12  4  1  0
 13 14  2  0
 13  2  1  0
 15 13  1  0
 16 15  1  0
 16 17  1  1
 18 17  1  0
 19 16  1  0
 19 21  1  0
 20 19  2  0
 22 21  1  0
 22 25  1  0
 22 23  1  6
 23 24  1  0
 25 26  2  0
 25 27  1  0
M  END
$$$$
