WCC.pdb
     RDKit          3D

 27 28  0  0  1  0  0  0  0  0999 V2000
   26.4783  -20.6459  -13.2357 N   0  0  0  0  0  0  0  0  0  0  0  0
   25.4599  -20.5018  -12.2179 C   0  0  1  0  0  0  0  0  0  0  0  0
   24.2340  -21.3316  -12.5308 C   0  0  0  0  0  0  0  0  0  0  0  0
   23.5395  -20.9184  -13.7704 C   0  0  0  0  0  0  0  0  0  0  0  0
   23.8066  -21.3902  -15.0384 C   0  0  0  0  0  0  0  0  0  0  0  0
   22.9987  -20.7806  -15.9443 N   0  0  0  0  0  0  0  0  0  0  0  0
   22.2064  -19.9183  -15.2978 C   0  0  0  0  0  0  0  0  0  0  0  0
   21.2244  -19.0747  -15.7685 C   0  0  0  0  0  0  0  0  0  0  0  0
   20.5325  -18.2732  -14.8760 C   0  0  0  0  0  0  0  0  0  0  0  0
   20.8401  -18.3394  -13.5537 C   0  0  0  0  0  0  0  0  0  0  0  0
   21.8326  -19.1949  -13.0974 C   0  0  0  0  0  0  0  0  0  0  0  0
   22.5327  -19.9945  -13.9406 C   0  0  0  0  0  0  0  0  0  0  0  0
   26.0515  -20.7866  -10.9109 C   0  0  0  0  0  0  0  0  0  0  0  0
   26.3632  -21.9652  -10.6056 O   0  0  0  0  0  0  0  0  0  0  0  0
   26.3206  -19.7893   -9.9020 N   0  0  0  0  0  0  0  0  0  0  0  0
   26.3484  -20.1421   -8.4933 C   0  0  1  0  0  0  0  0  0  0  0  0
   26.9420  -18.9592   -7.7021 C   0  0  0  0  0  0  0  0  0  0  0  0
   26.9328  -19.3093   -5.9322 S   0  0  0  0  0  0  0  0  0  0  0  0
   25.0651  -20.5537   -7.9368 C   0  0  0  0  0  0  0  0  0  0  0  0
   24.0345  -19.8536   -8.2298 O   0  0  0  0  0  0  0  0  0  0  0  0
   24.8044  -21.6592   -7.0925 N   0  0  0  0  0  0  0  0  0  0  0  0
   23.4851  -21.9835   -6.5983 C   0  0  1  0  0  0  0  0  0  0  0  0
   23.3568  -23.4584   -6.2652 C   0  0  0  0  0  0  0  0  0  0  0  0
   24.5411  -23.8169   -4.9382 S   0  0  0  0  0  0  0  0  0  0  0  0
   23.0272  -21.1580   -5.4836 C   0  0  0  0  0  0  0  0  0  0  0  0
   23.8443  -20.3657   -4.9317 O   0  0  0  0  0  0  0  0  0  0  0  0
   21.7367  -21.1804   -4.9782 O   0  0  0  0  0  0  0  0  0  0  0  0
  2  1  1  6
  3  2  1  0
  3  4  1  0
  4  5  2  0
  6  5  1  0
  7  6  1  0
  8  7  2  0
  9  8  1  0
 10  9  2  0
 10 11  1  0
 11 12  2  0
 12  7  1  0
 12  4  1  0
 13 14  2  0
 13  2  1  0
 15 13  1  0
 16 15  1  0
 16 17  1  1
 18 17  1  0
 19 16  1  0
 19 21  1  0
 20 19  2  0
 22 21  1  0
 22 25  1  0
 22 23  1  1
 23 24  1  0
 25 26  2  0
 25 27  1  0
M  END
$$$$
