WCC.pdb
     RDKit          3D

 27 28  0  0  1  0  0  0  0  0999 V2000
   24.5944  -13.3432  -14.7666 N   0  0  0  0  0  0  0  0  0  0  0  0
   23.7307  -12.7763  -15.7798 C   0  0  1  0  0  0  0  0  0  0  0  0
   22.4913  -13.6175  -15.9938 C   0  0  0  0  0  0  0  0  0  0  0  0
   22.7814  -14.9927  -16.4569 C   0  0  0  0  0  0  0  0  0  0  0  0
   23.3869  -15.3298  -17.6490 C   0  0  0  0  0  0  0  0  0  0  0  0
   23.4761  -16.6802  -17.7632 N   0  0  0  0  0  0  0  0  0  0  0  0
   22.9418  -17.2374  -16.6708 C   0  0  0  0  0  0  0  0  0  0  0  0
   22.7998  -18.5607  -16.3155 C   0  0  0  0  0  0  0  0  0  0  0  0
   22.2071  -18.8791  -15.1051 C   0  0  0  0  0  0  0  0  0  0  0  0
   21.7794  -17.8750  -14.2951 C   0  0  0  0  0  0  0  0  0  0  0  0
   21.9303  -16.5474  -14.6693 C   0  0  0  0  0  0  0  0  0  0  0  0
   22.5048  -16.1959  -15.8470 C   0  0  0  0  0  0  0  0  0  0  0  0
   23.4498  -11.3821  -15.4381 C   0  0  0  0  0  0  0  0  0  0  0  0
   23.0712  -11.0835  -14.2776 O   0  0  0  0  0  0  0  0  0  0  0  0
   23.5775  -10.2751  -16.3564 N   0  0  0  0  0  0  0  0  0  0  0  0
   23.3402   -8.9110  -15.9176 C   0  0  1  0  0  0  0  0  0  0  0  0
   24.1217   -7.9548  -16.8411 C   0  0  0  0  0  0  0  0  0  0  0  0
   23.5659   -8.1243  -18.5491 S   0  0  0  0  0  0  0  0  0  0  0  0
   21.9361   -8.5273  -15.8334 C   0  0  0  0  0  0  0  0  0  0  0  0
   21.1404   -8.9711  -16.7321 O   0  0  0  0  0  0  0  0  0  0  0  0
   21.3221   -7.7063  -14.8578 N   0  0  0  0  0  0  0  0  0  0  0  0
   19.9192   -7.3584  -14.8857 C   0  0  1  0  0  0  0  0  0  0  0  0
   19.1981   -7.8314  -13.6371 C   0  0  0  0  0  0  0  0  0  0  0  0
   19.2944   -9.6431  -13.6121 S   0  0  0  0  0  0  0  0  0  0  0  0
   19.6416   -5.9474  -15.1422 C   0  0  0  0  0  0  0  0  0  0  0  0
   20.6106   -5.1579  -15.3368 O   0  0  0  0  0  0  0  0  0  0  0  0
   18.3685   -5.4015  -15.1892 O   0  0  0  0  0  0  0  0  0  0  0  0
  2  1  1  1
  3  2  1  0
  3  4  1  0
  4  5  2  0
  6  5  1  0
  7  6  1  0
  8  7  2  0
  9  8  1  0
 10  9  2  0
 10 11  1  0
 11 12  2  0
 12  7  1  0
 12  4  1  0
 13 14  2  0
 13  2  1  0
 15 13  1  0
 16 15  1  0
 16 17  1  6
 18 17  1  0
 19 16  1  0
 19 21  1  0
 20 19  2  0
 22 21  1  0
 22 25  1  0
 22 23  1  1
 23 24  1  0
 25 26  2  0
 25 27  1  0
M  END
$$$$
