WCC.pdb
     RDKit          3D

 27 28  0  0  1  0  0  0  0  0999 V2000
   23.5963  -20.0681  -12.6110 N   0  0  0  0  0  0  0  0  0  0  0  0
   22.1719  -20.2519  -12.4341 C   0  0  1  0  0  0  0  0  0  0  0  0
   21.4865  -20.6023  -13.7368 C   0  0  0  0  0  0  0  0  0  0  0  0
   21.6413  -19.5686  -14.7843 C   0  0  0  0  0  0  0  0  0  0  0  0
   22.7703  -19.3589  -15.5477 C   0  0  0  0  0  0  0  0  0  0  0  0
   22.5754  -18.3149  -16.3945 N   0  0  0  0  0  0  0  0  0  0  0  0
   21.3417  -17.8345  -16.2032 C   0  0  0  0  0  0  0  0  0  0  0  0
   20.6783  -16.7939  -16.8153 C   0  0  0  0  0  0  0  0  0  0  0  0
   19.3807  -16.4974  -16.4332 C   0  0  0  0  0  0  0  0  0  0  0  0
   18.7919  -17.2432  -15.4614 C   0  0  0  0  0  0  0  0  0  0  0  0
   19.4754  -18.2877  -14.8555 C   0  0  0  0  0  0  0  0  0  0  0  0
   20.7474  -18.6079  -15.2017 C   0  0  0  0  0  0  0  0  0  0  0  0
   21.9480  -21.2251  -11.3654 C   0  0  0  0  0  0  0  0  0  0  0  0
   21.7998  -22.4415  -11.6440 O   0  0  0  0  0  0  0  0  0  0  0  0
   21.8822  -20.8946   -9.9613 N   0  0  0  0  0  0  0  0  0  0  0  0
   21.7721  -21.9357   -8.9545 C   0  0  1  0  0  0  0  0  0  0  0  0
   22.5446  -21.4873   -7.6975 C   0  0  0  0  0  0  0  0  0  0  0  0
   24.1795  -20.8679   -8.1429 S   0  0  0  0  0  0  0  0  0  0  0  0
   20.4077  -22.3260   -8.6198 C   0  0  0  0  0  0  0  0  0  0  0  0
   19.5146  -21.4099   -8.5890 O   0  0  0  0  0  0  0  0  0  0  0  0
   19.9298  -23.6235   -8.3181 N   0  0  0  0  0  0  0  0  0  0  0  0
   18.5483  -23.9032   -7.9971 C   0  0  1  0  0  0  0  0  0  0  0  0
   18.0965  -25.2336   -8.5702 C   0  0  0  0  0  0  0  0  0  0  0  0
   16.3721  -25.4817   -8.0634 S   0  0  0  0  0  0  0  0  0  0  0  0
   18.2170  -23.8101   -6.5775 C   0  0  0  0  0  0  0  0  0  0  0  0
   19.1207  -24.0345   -5.7215 O   0  0  0  0  0  0  0  0  0  0  0  0
   16.9596  -23.4868   -6.0922 O   0  0  0  0  0  0  0  0  0  0  0  0
  2  1  1  6
  3  2  1  0
  3  4  1  0
  4  5  2  0
  6  5  1  0
  7  6  1  0
  8  7  2  0
  9  8  1  0
 10  9  2  0
 10 11  1  0
 11 12  2  0
 12  7  1  0
 12  4  1  0
 13 14  2  0
 13  2  1  0
 15 13  1  0
 16 15  1  0
 16 17  1  1
 18 17  1  0
 19 16  1  0
 19 21  1  0
 20 19  2  0
 22 21  1  0
 22 25  1  0
 22 23  1  1
 23 24  1  0
 25 26  2  0
 25 27  1  0
M  END
$$$$
