WCC.pdb
     RDKit          3D

 27 28  0  0  1  0  0  0  0  0999 V2000
   30.2032  -29.0124  -18.7847 N   0  0  0  0  0  0  0  0  0  0  0  0
   29.9257  -29.4211  -17.4246 C   0  0  1  0  0  0  0  0  0  0  0  0
   28.6846  -28.7486  -16.8799 C   0  0  0  0  0  0  0  0  0  0  0  0
   28.7203  -27.2724  -16.9753 C   0  0  0  0  0  0  0  0  0  0  0  0
   29.8161  -26.5150  -17.3320 C   0  0  0  0  0  0  0  0  0  0  0  0
   29.5041  -25.1936  -17.2941 N   0  0  0  0  0  0  0  0  0  0  0  0
   28.2261  -25.0672  -16.9198 C   0  0  0  0  0  0  0  0  0  0  0  0
   27.4498  -23.9434  -16.7403 C   0  0  0  0  0  0  0  0  0  0  0  0
   26.1293  -24.0857  -16.3483 C   0  0  0  0  0  0  0  0  0  0  0  0
   25.6303  -25.3343  -16.1504 C   0  0  0  0  0  0  0  0  0  0  0  0
   26.4268  -26.4552  -16.3357 C   0  0  0  0  0  0  0  0  0  0  0  0
   27.7247  -26.3565  -16.7181 C   0  0  0  0  0  0  0  0  0  0  0  0
   29.8826  -30.8821  -17.3675 C   0  0  0  0  0  0  0  0  0  0  0  0
   29.0856  -31.5164  -18.1035 O   0  0  0  0  0  0  0  0  0  0  0  0
   30.7121  -31.6899  -16.5048 N   0  0  0  0  0  0  0  0  0  0  0  0
   30.5458  -33.1317  -16.4469 C   0  0  1  0  0  0  0  0  0  0  0  0
   31.9243  -33.7756  -16.1960 C   0  0  0  0  0  0  0  0  0  0  0  0
   33.1344  -33.1740  -17.3914 S   0  0  0  0  0  0  0  0  0  0  0  0
   29.5643  -33.5992  -15.4753 C   0  0  0  0  0  0  0  0  0  0  0  0
   29.3477  -32.8698  -14.4462 O   0  0  0  0  0  0  0  0  0  0  0  0
   28.7973  -34.7876  -15.5257 N   0  0  0  0  0  0  0  0  0  0  0  0
   27.7515  -35.0952  -14.5763 C   0  0  1  0  0  0  0  0  0  0  0  0
   26.6952  -34.0067  -14.5316 C   0  0  0  0  0  0  0  0  0  0  0  0
   25.5502  -34.4207  -13.1864 S   0  0  0  0  0  0  0  0  0  0  0  0
   27.1359  -36.4090  -14.7454 C   0  0  0  0  0  0  0  0  0  0  0  0
   26.7703  -36.7701  -15.9013 O   0  0  0  0  0  0  0  0  0  0  0  0
   26.9203  -37.3057  -13.7107 O   0  0  0  0  0  0  0  0  0  0  0  0
  2  1  1  6
  3  2  1  0
  3  4  1  0
  4  5  2  0
  6  5  1  0
  7  6  1  0
  8  7  2  0
  9  8  1  0
 10  9  2  0
 10 11  1  0
 11 12  2  0
 12  7  1  0
 12  4  1  0
 13 14  2  0
 13  2  1  0
 15 13  1  0
 16 15  1  0
 16 17  1  1
 18 17  1  0
 19 16  1  0
 19 21  1  0
 20 19  2  0
 22 21  1  0
 22 25  1  0
 22 23  1  6
 23 24  1  0
 25 26  2  0
 25 27  1  0
M  END
$$$$
