WCC.pdb
     RDKit          3D

 27 28  0  0  1  0  0  0  0  0999 V2000
   19.2580   -9.5847  -17.4771 N   0  0  0  0  0  0  0  0  0  0  0  0
   20.4001   -8.7159  -17.6636 C   0  0  1  0  0  0  0  0  0  0  0  0
   20.4882   -8.2041  -19.0848 C   0  0  0  0  0  0  0  0  0  0  0  0
   20.6074   -9.2787  -20.0952 C   0  0  0  0  0  0  0  0  0  0  0  0
   19.6334   -9.6442  -21.0003 C   0  0  0  0  0  0  0  0  0  0  0  0
   20.0681  -10.6814  -21.7621 N   0  0  0  0  0  0  0  0  0  0  0  0
   21.3073  -11.0048  -21.3762 C   0  0  0  0  0  0  0  0  0  0  0  0
   22.1676  -11.9757  -21.8396 C   0  0  0  0  0  0  0  0  0  0  0  0
   23.4208  -12.1034  -21.2644 C   0  0  0  0  0  0  0  0  0  0  0  0
   23.7721  -11.2647  -20.2542 C   0  0  0  0  0  0  0  0  0  0  0  0
   22.8926  -10.2925  -19.7999 C   0  0  0  0  0  0  0  0  0  0  0  0
   21.6565  -10.1372  -20.3371 C   0  0  0  0  0  0  0  0  0  0  0  0
   20.3623   -7.6587  -16.6535 C   0  0  0  0  0  0  0  0  0  0  0  0
   19.2630   -7.1536  -16.3135 O   0  0  0  0  0  0  0  0  0  0  0  0
   21.5264   -7.1261  -15.9855 N   0  0  0  0  0  0  0  0  0  0  0  0
   21.4144   -5.9975  -15.0782 C   0  0  1  0  0  0  0  0  0  0  0  0
   22.4103   -6.1988  -13.9182 C   0  0  0  0  0  0  0  0  0  0  0  0
   22.4494   -4.7427  -12.8536 S   0  0  0  0  0  0  0  0  0  0  0  0
   21.5897   -4.6897  -15.6985 C   0  0  0  0  0  0  0  0  0  0  0  0
   22.6908   -4.4607  -16.3092 O   0  0  0  0  0  0  0  0  0  0  0  0
   20.6731   -3.6115  -15.7147 N   0  0  0  0  0  0  0  0  0  0  0  0
   20.9537   -2.3438  -16.3503 C   0  0  1  0  0  0  0  0  0  0  0  0
   19.7764   -1.8552  -17.1735 C   0  0  0  0  0  0  0  0  0  0  0  0
   19.3774   -3.1584  -18.3711 S   0  0  0  0  0  0  0  0  0  0  0  0
   21.4269   -1.2965  -15.4486 C   0  0  0  0  0  0  0  0  0  0  0  0
   21.7462   -0.1714  -15.9305 O   0  0  0  0  0  0  0  0  0  0  0  0
   21.5527   -1.4500  -14.0769 O   0  0  0  0  0  0  0  0  0  0  0  0
  2  1  1  6
  3  2  1  0
  3  4  1  0
  4  5  2  0
  6  5  1  0
  7  6  1  0
  8  7  2  0
  9  8  1  0
 10  9  2  0
 10 11  1  0
 11 12  2  0
 12  7  1  0
 12  4  1  0
 13 14  2  0
 13  2  1  0
 15 13  1  0
 16 15  1  0
 16 17  1  1
 18 17  1  0
 19 16  1  0
 19 21  1  0
 20 19  2  0
 22 21  1  0
 22 25  1  0
 22 23  1  1
 23 24  1  0
 25 26  2  0
 25 27  1  0
M  END
$$$$
