WCC.pdb
     RDKit          3D

 27 28  0  0  1  0  0  0  0  0999 V2000
   25.5988  -19.3784  -17.1719 N   0  0  0  0  0  0  0  0  0  0  0  0
   26.0186  -18.8456  -15.8937 C   0  0  1  0  0  0  0  0  0  0  0  0
   24.9208  -18.0386  -15.2356 C   0  0  0  0  0  0  0  0  0  0  0  0
   24.5804  -16.7966  -15.9644 C   0  0  0  0  0  0  0  0  0  0  0  0
   23.4223  -16.5742  -16.6791 C   0  0  0  0  0  0  0  0  0  0  0  0
   23.4484  -15.3373  -17.2397 N   0  0  0  0  0  0  0  0  0  0  0  0
   24.5996  -14.7424  -16.9079 C   0  0  0  0  0  0  0  0  0  0  0  0
   25.0891  -13.4941  -17.2239 C   0  0  0  0  0  0  0  0  0  0  0  0
   26.3285  -13.1085  -16.7413 C   0  0  0  0  0  0  0  0  0  0  0  0
   27.0332  -13.9736  -15.9653 C   0  0  0  0  0  0  0  0  0  0  0  0
   26.5247  -15.2274  -15.6573 C   0  0  0  0  0  0  0  0  0  0  0  0
   25.3154  -15.6415  -16.1119 C   0  0  0  0  0  0  0  0  0  0  0  0
   26.5274  -19.9399  -15.0673 C   0  0  0  0  0  0  0  0  0  0  0  0
   25.8580  -20.9960  -14.9414 O   0  0  0  0  0  0  0  0  0  0  0  0
   27.7842  -19.9101  -14.3570 N   0  0  0  0  0  0  0  0  0  0  0  0
   27.9374  -20.5913  -13.0834 C   0  0  1  0  0  0  0  0  0  0  0  0
   29.3361  -20.2697  -12.5193 C   0  0  0  0  0  0  0  0  0  0  0  0
   29.5426  -20.9941  -10.8799 S   0  0  0  0  0  0  0  0  0  0  0  0
   26.8977  -20.3031  -12.1026 C   0  0  0  0  0  0  0  0  0  0  0  0
   26.3191  -19.1631  -12.1626 O   0  0  0  0  0  0  0  0  0  0  0  0
   26.4315  -21.1454  -11.0653 N   0  0  0  0  0  0  0  0  0  0  0  0
   25.2585  -20.8505  -10.2736 C   0  0  1  0  0  0  0  0  0  0  0  0
   24.0062  -20.7835  -11.1279 C   0  0  0  0  0  0  0  0  0  0  0  0
   22.5980  -20.5650  -10.0049 S   0  0  0  0  0  0  0  0  0  0  0  0
   25.0565  -21.7297   -9.1246 C   0  0  0  0  0  0  0  0  0  0  0  0
   24.1190  -21.4739   -8.3148 O   0  0  0  0  0  0  0  0  0  0  0  0
   25.8326  -22.8455   -8.8536 O   0  0  0  0  0  0  0  0  0  0  0  0
  2  1  1  6
  3  2  1  0
  3  4  1  0
  4  5  2  0
  6  5  1  0
  7  6  1  0
  8  7  2  0
  9  8  1  0
 10  9  2  0
 10 11  1  0
 11 12  2  0
 12  7  1  0
 12  4  1  0
 13 14  2  0
 13  2  1  0
 15 13  1  0
 16 15  1  0
 16 17  1  1
 18 17  1  0
 19 16  1  0
 19 21  1  0
 20 19  2  0
 22 21  1  0
 22 25  1  0
 22 23  1  6
 23 24  1  0
 25 26  2  0
 25 27  1  0
M  END
$$$$
