WCC.pdb
     RDKit          3D

 27 28  0  0  1  0  0  0  0  0999 V2000
   20.7663  -31.1162  -10.7134 N   0  0  0  0  0  0  0  0  0  0  0  0
   21.9032  -31.9868  -10.5045 C   0  0  1  0  0  0  0  0  0  0  0  0
   22.9292  -31.8422  -11.6071 C   0  0  0  0  0  0  0  0  0  0  0  0
   22.4186  -32.2167  -12.9445 C   0  0  0  0  0  0  0  0  0  0  0  0
   21.7976  -31.3674  -13.8359 C   0  0  0  0  0  0  0  0  0  0  0  0
   21.4364  -32.0466  -14.9553 N   0  0  0  0  0  0  0  0  0  0  0  0
   21.8073  -33.3244  -14.8179 C   0  0  0  0  0  0  0  0  0  0  0  0
   21.6695  -34.3964  -15.6720 C   0  0  0  0  0  0  0  0  0  0  0  0
   22.1528  -35.6364  -15.2891 C   0  0  0  0  0  0  0  0  0  0  0  0
   22.7534  -35.7652  -14.0766 C   0  0  0  0  0  0  0  0  0  0  0  0
   22.8833  -34.6744  -13.2290 C   0  0  0  0  0  0  0  0  0  0  0  0
   22.4219  -33.4445  -13.5680 C   0  0  0  0  0  0  0  0  0  0  0  0
   22.4375  -31.7559   -9.1627 C   0  0  0  0  0  0  0  0  0  0  0  0
   22.2913  -30.6357   -8.6122 O   0  0  0  0  0  0  0  0  0  0  0  0
   23.1451  -32.7453   -8.3846 N   0  0  0  0  0  0  0  0  0  0  0  0
   23.5403  -32.4730   -7.0138 C   0  0  1  0  0  0  0  0  0  0  0  0
   22.2844  -32.0826   -6.2086 C   0  0  0  0  0  0  0  0  0  0  0  0
   21.0408  -33.3866   -6.2981 S   0  0  0  0  0  0  0  0  0  0  0  0
   24.2691  -33.5521   -6.3577 C   0  0  0  0  0  0  0  0  0  0  0  0
   24.0371  -34.7503   -6.7428 O   0  0  0  0  0  0  0  0  0  0  0  0
   25.2279  -33.4422   -5.3226 N   0  0  0  0  0  0  0  0  0  0  0  0
   25.9014  -34.5829   -4.7435 C   0  0  1  0  0  0  0  0  0  0  0  0
   27.3641  -34.6347   -5.1439 C   0  0  0  0  0  0  0  0  0  0  0  0
   28.0975  -33.0311   -4.7165 S   0  0  0  0  0  0  0  0  0  0  0  0
   25.7546  -34.7126   -3.2960 C   0  0  0  0  0  0  0  0  0  0  0  0
   25.1642  -33.7955   -2.6554 O   0  0  0  0  0  0  0  0  0  0  0  0
   26.2241  -35.7894   -2.5603 O   0  0  0  0  0  0  0  0  0  0  0  0
  2  1  1  6
  3  2  1  0
  3  4  1  0
  4  5  2  0
  6  5  1  0
  7  6  1  0
  8  7  2  0
  9  8  1  0
 10  9  2  0
 10 11  1  0
 11 12  2  0
 12  7  1  0
 12  4  1  0
 13 14  2  0
 13  2  1  0
 15 13  1  0
 16 15  1  0
 16 17  1  1
 18 17  1  0
 19 16  1  0
 19 21  1  0
 20 19  2  0
 22 21  1  0
 22 25  1  0
 22 23  1  1
 23 24  1  0
 25 26  2  0
 25 27  1  0
M  END
$$$$
