WCC.pdb
     RDKit          3D

 27 28  0  0  1  0  0  0  0  0999 V2000
   17.4954   -8.1525  -13.6796 N   0  0  0  0  0  0  0  0  0  0  0  0
   18.0413   -7.5760  -12.4698 C   0  0  1  0  0  0  0  0  0  0  0  0
   19.1406   -6.5807  -12.7704 C   0  0  0  0  0  0  0  0  0  0  0  0
   20.3673   -7.2005  -13.3188 C   0  0  0  0  0  0  0  0  0  0  0  0
   20.8803   -6.9903  -14.5814 C   0  0  0  0  0  0  0  0  0  0  0  0
   22.0020   -7.7348  -14.7608 N   0  0  0  0  0  0  0  0  0  0  0  0
   22.2367   -8.4297  -13.6422 C   0  0  0  0  0  0  0  0  0  0  0  0
   23.2453   -9.3144  -13.3295 C   0  0  0  0  0  0  0  0  0  0  0  0
   23.2659   -9.9058  -12.0775 C   0  0  0  0  0  0  0  0  0  0  0  0
   22.2880   -9.5974  -11.1855 C   0  0  0  0  0  0  0  0  0  0  0  0
   21.2796   -8.7042  -11.5177 C   0  0  0  0  0  0  0  0  0  0  0  0
   21.2247   -8.1055  -12.7338 C   0  0  0  0  0  0  0  0  0  0  0  0
   16.9467   -7.0274  -11.6696 C   0  0  0  0  0  0  0  0  0  0  0  0
   16.0266   -6.3766  -12.2257 O   0  0  0  0  0  0  0  0  0  0  0  0
   16.8272   -7.1774  -10.2385 N   0  0  0  0  0  0  0  0  0  0  0  0
   15.7540   -6.5266   -9.5075 C   0  0  1  0  0  0  0  0  0  0  0  0
   15.2528   -7.4880   -8.4110 C   0  0  0  0  0  0  0  0  0  0  0  0
   14.7328   -9.0584   -9.1310 S   0  0  0  0  0  0  0  0  0  0  0  0
   16.0930   -5.2238   -8.9474 C   0  0  0  0  0  0  0  0  0  0  0  0
   17.3281   -4.9712   -8.7268 O   0  0  0  0  0  0  0  0  0  0  0  0
   15.2081   -4.1726   -8.6086 N   0  0  0  0  0  0  0  0  0  0  0  0
   15.6507   -2.8253   -8.3278 C   0  0  1  0  0  0  0  0  0  0  0  0
   16.4455   -2.2430   -9.4818 C   0  0  0  0  0  0  0  0  0  0  0  0
   16.9756   -0.5799   -8.9869 S   0  0  0  0  0  0  0  0  0  0  0  0
   14.5946   -1.9070   -7.9093 C   0  0  0  0  0  0  0  0  0  0  0  0
   13.4637   -1.9766   -8.4718 O   0  0  0  0  0  0  0  0  0  0  0  0
   14.7455   -0.9472   -6.9209 O   0  0  0  0  0  0  0  0  0  0  0  0
  2  1  1  6
  3  2  1  0
  3  4  1  0
  4  5  2  0
  6  5  1  0
  7  6  1  0
  8  7  2  0
  9  8  1  0
 10  9  2  0
 10 11  1  0
 11 12  2  0
 12  7  1  0
 12  4  1  0
 13 14  2  0
 13  2  1  0
 15 13  1  0
 16 15  1  0
 16 17  1  1
 18 17  1  0
 19 16  1  0
 19 21  1  0
 20 19  2  0
 22 21  1  0
 22 25  1  0
 22 23  1  6
 23 24  1  0
 25 26  2  0
 25 27  1  0
M  END
$$$$
