WCC.pdb
     RDKit          3D

 27 28  0  0  1  0  0  0  0  0999 V2000
   24.9224  -19.3877  -11.9745 N   0  0  0  0  0  0  0  0  0  0  0  0
   26.1093  -20.2027  -12.1193 C   0  0  1  0  0  0  0  0  0  0  0  0
   26.1441  -21.3262  -11.1065 C   0  0  0  0  0  0  0  0  0  0  0  0
   26.2296  -20.8583   -9.7052 C   0  0  0  0  0  0  0  0  0  0  0  0
   25.1865  -20.3476   -8.9619 C   0  0  0  0  0  0  0  0  0  0  0  0
   25.6221  -19.9951   -7.7246 N   0  0  0  0  0  0  0  0  0  0  0  0
   26.9297  -20.2637   -7.6397 C   0  0  0  0  0  0  0  0  0  0  0  0
   27.8162  -20.0913   -6.5994 C   0  0  0  0  0  0  0  0  0  0  0  0
   29.1399  -20.4621   -6.7668 C   0  0  0  0  0  0  0  0  0  0  0  0
   29.5326  -20.9890   -7.9565 C   0  0  0  0  0  0  0  0  0  0  0  0
   28.6259  -21.1552   -8.9935 C   0  0  0  0  0  0  0  0  0  0  0  0
   27.3217  -20.8033   -8.8683 C   0  0  0  0  0  0  0  0  0  0  0  0
   26.2101  -20.6519  -13.5076 C   0  0  0  0  0  0  0  0  0  0  0  0
   25.1719  -20.9595  -14.1455 O   0  0  0  0  0  0  0  0  0  0  0  0
   27.4498  -20.7752  -14.2376 N   0  0  0  0  0  0  0  0  0  0  0  0
   27.4614  -21.2346  -15.6154 C   0  0  1  0  0  0  0  0  0  0  0  0
   28.8369  -20.9073  -16.2309 C   0  0  0  0  0  0  0  0  0  0  0  0
   28.9173  -21.4694  -17.9435 S   0  0  0  0  0  0  0  0  0  0  0  0
   27.1273  -22.6422  -15.7974 C   0  0  0  0  0  0  0  0  0  0  0  0
   27.5453  -23.4740  -14.9191 O   0  0  0  0  0  0  0  0  0  0  0  0
   26.3781  -23.2232  -16.8480 N   0  0  0  0  0  0  0  0  0  0  0  0
   25.7704  -24.5318  -16.7568 C   0  0  1  0  0  0  0  0  0  0  0  0
   24.9355  -24.6771  -15.4981 C   0  0  0  0  0  0  0  0  0  0  0  0
   24.4211  -26.4136  -15.3894 S   0  0  0  0  0  0  0  0  0  0  0  0
   25.0084  -24.9381  -17.9349 C   0  0  0  0  0  0  0  0  0  0  0  0
   24.1568  -24.1382  -18.4196 O   0  0  0  0  0  0  0  0  0  0  0  0
   25.1548  -26.1602  -18.5722 O   0  0  0  0  0  0  0  0  0  0  0  0
  2  1  1  6
  3  2  1  0
  3  4  1  0
  4  5  2  0
  6  5  1  0
  7  6  1  0
  8  7  2  0
  9  8  1  0
 10  9  2  0
 10 11  1  0
 11 12  2  0
 12  7  1  0
 12  4  1  0
 13 14  2  0
 13  2  1  0
 15 13  1  0
 16 15  1  0
 16 17  1  1
 18 17  1  0
 19 16  1  0
 19 21  1  0
 20 19  2  0
 22 21  1  0
 22 25  1  0
 22 23  1  1
 23 24  1  0
 25 26  2  0
 25 27  1  0
M  END
$$$$
