WCC.pdb
     RDKit          3D

 27 28  0  0  1  0  0  0  0  0999 V2000
   25.8133  -19.5798  -11.9694 N   0  0  0  0  0  0  0  0  0  0  0  0
   26.0136  -21.0113  -12.0380 C   0  0  1  0  0  0  0  0  0  0  0  0
   25.6947  -21.6852  -10.7214 C   0  0  0  0  0  0  0  0  0  0  0  0
   26.3081  -21.0190   -9.5510 C   0  0  0  0  0  0  0  0  0  0  0  0
   25.6232  -20.4048   -8.5238 C   0  0  0  0  0  0  0  0  0  0  0  0
   26.4974  -19.8770   -7.6283 N   0  0  0  0  0  0  0  0  0  0  0  0
   27.7424  -20.1318   -8.0458 C   0  0  0  0  0  0  0  0  0  0  0  0
   28.9602  -19.8111   -7.4874 C   0  0  0  0  0  0  0  0  0  0  0  0
   30.1246  -20.2035   -8.1260 C   0  0  0  0  0  0  0  0  0  0  0  0
   30.0368  -20.8978   -9.2912 C   0  0  0  0  0  0  0  0  0  0  0  0
   28.8014  -21.2119   -9.8394 C   0  0  0  0  0  0  0  0  0  0  0  0
   27.6391  -20.8442   -9.2442 C   0  0  0  0  0  0  0  0  0  0  0  0
   25.2603  -21.5420  -13.1740 C   0  0  0  0  0  0  0  0  0  0  0  0
   24.2802  -20.9025  -13.6319 O   0  0  0  0  0  0  0  0  0  0  0  0
   25.5599  -22.7865  -13.8421 N   0  0  0  0  0  0  0  0  0  0  0  0
   24.8388  -23.1828  -15.0390 C   0  0  1  0  0  0  0  0  0  0  0  0
   25.5459  -24.4062  -15.6563 C   0  0  0  0  0  0  0  0  0  0  0  0
   24.9015  -25.9365  -14.9507 S   0  0  0  0  0  0  0  0  0  0  0  0
   23.4175  -23.4425  -14.8432 C   0  0  0  0  0  0  0  0  0  0  0  0
   23.0581  -24.0094  -13.7535 O   0  0  0  0  0  0  0  0  0  0  0  0
   22.3542  -23.1385  -15.7263 N   0  0  0  0  0  0  0  0  0  0  0  0
   20.9807  -23.5083  -15.4680 C   0  0  1  0  0  0  0  0  0  0  0  0
   20.0118  -22.4476  -15.9565 C   0  0  0  0  0  0  0  0  0  0  0  0
   20.2520  -20.9786  -14.9191 S   0  0  0  0  0  0  0  0  0  0  0  0
   20.5973  -24.8285  -15.9618 C   0  0  0  0  0  0  0  0  0  0  0  0
   21.0864  -25.2401  -17.0533 O   0  0  0  0  0  0  0  0  0  0  0  0
   19.7199  -25.6787  -15.3074 O   0  0  0  0  0  0  0  0  0  0  0  0
  2  1  1  1
  3  2  1  0
  3  4  1  0
  4  5  2  0
  6  5  1  0
  7  6  1  0
  8  7  2  0
  9  8  1  0
 10  9  2  0
 10 11  1  0
 11 12  2  0
 12  7  1  0
 12  4  1  0
 13 14  2  0
 13  2  1  0
 15 13  1  0
 16 15  1  0
 16 17  1  1
 18 17  1  0
 19 16  1  0
 19 21  1  0
 20 19  2  0
 22 21  1  0
 22 25  1  0
 22 23  1  6
 23 24  1  0
 25 26  2  0
 25 27  1  0
M  END
$$$$
