WCC.pdb
     RDKit          3D

 27 28  0  0  1  0  0  0  0  0999 V2000
   16.8564  -21.7563    2.7496 N   0  0  0  0  0  0  0  0  0  0  0  0
   17.9031  -21.0725    3.4781 C   0  0  1  0  0  0  0  0  0  0  0  0
   17.8741  -19.5800    3.2313 C   0  0  0  0  0  0  0  0  0  0  0  0
   18.6429  -19.1617    2.0381 C   0  0  0  0  0  0  0  0  0  0  0  0
   18.2310  -19.2921    0.7286 C   0  0  0  0  0  0  0  0  0  0  0  0
   19.1911  -18.8275   -0.1124 N   0  0  0  0  0  0  0  0  0  0  0  0
   20.2251  -18.3945    0.6174 C   0  0  0  0  0  0  0  0  0  0  0  0
   21.4246  -17.8368    0.2331 C   0  0  0  0  0  0  0  0  0  0  0  0
   22.3399  -17.4605    1.2018 C   0  0  0  0  0  0  0  0  0  0  0  0
   22.0309  -17.6508    2.5115 C   0  0  0  0  0  0  0  0  0  0  0  0
   20.8178  -18.2143    2.8804 C   0  0  0  0  0  0  0  0  0  0  0  0
   19.8963  -18.5966    1.9611 C   0  0  0  0  0  0  0  0  0  0  0  0
   17.8176  -21.4422    4.8907 C   0  0  0  0  0  0  0  0  0  0  0  0
   16.6952  -21.6251    5.4255 O   0  0  0  0  0  0  0  0  0  0  0  0
   18.9582  -21.6240    5.7572 N   0  0  0  0  0  0  0  0  0  0  0  0
   18.7842  -21.9892    7.1522 C   0  0  1  0  0  0  0  0  0  0  0  0
   19.5582  -23.2961    7.4183 C   0  0  0  0  0  0  0  0  0  0  0  0
   21.0654  -23.3555    6.4284 S   0  0  0  0  0  0  0  0  0  0  0  0
   19.1571  -20.9550    8.1100 C   0  0  0  0  0  0  0  0  0  0  0  0
   20.2261  -20.2887    7.8840 O   0  0  0  0  0  0  0  0  0  0  0  0
   18.4692  -20.5812    9.2890 N   0  0  0  0  0  0  0  0  0  0  0  0
   18.9062  -19.5080   10.1534 C   0  0  1  0  0  0  0  0  0  0  0  0
   17.7397  -18.8524   10.8689 C   0  0  0  0  0  0  0  0  0  0  0  0
   16.6290  -18.1907    9.5960 S   0  0  0  0  0  0  0  0  0  0  0  0
   19.9575  -19.8718   11.1001 C   0  0  0  0  0  0  0  0  0  0  0  0
   20.0360  -21.0701   11.4978 O   0  0  0  0  0  0  0  0  0  0  0  0
   20.8933  -18.9815   11.6028 O   0  0  0  0  0  0  0  0  0  0  0  0
  2  1  1  6
  3  2  1  0
  3  4  1  0
  4  5  2  0
  6  5  1  0
  7  6  1  0
  8  7  2  0
  9  8  1  0
 10  9  2  0
 10 11  1  0
 11 12  2  0
 12  7  1  0
 12  4  1  0
 13 14  2  0
 13  2  1  0
 15 13  1  0
 16 15  1  0
 16 17  1  1
 18 17  1  0
 19 16  1  0
 19 21  1  0
 20 19  2  0
 22 21  1  0
 22 25  1  0
 22 23  1  1
 23 24  1  0
 25 26  2  0
 25 27  1  0
M  END
$$$$
