WCC.pdb
     RDKit          3D

 27 28  0  0  1  0  0  0  0  0999 V2000
   27.1377  -20.2239  -13.0227 N   0  0  0  0  0  0  0  0  0  0  0  0
   25.8032  -20.1918  -12.4641 C   0  0  1  0  0  0  0  0  0  0  0  0
   24.7855  -20.7904  -13.4105 C   0  0  0  0  0  0  0  0  0  0  0  0
   24.5993  -20.0078  -14.6525 C   0  0  0  0  0  0  0  0  0  0  0  0
   25.4538  -19.9999  -15.7348 C   0  0  0  0  0  0  0  0  0  0  0  0
   24.9903  -19.1538  -16.6908 N   0  0  0  0  0  0  0  0  0  0  0  0
   23.8490  -18.6057  -16.2591 C   0  0  0  0  0  0  0  0  0  0  0  0
   23.0046  -17.6985  -16.8605 C   0  0  0  0  0  0  0  0  0  0  0  0
   21.8629  -17.2876  -16.1932 C   0  0  0  0  0  0  0  0  0  0  0  0
   21.6027  -17.7915  -14.9580 C   0  0  0  0  0  0  0  0  0  0  0  0
   22.4646  -18.7045  -14.3674 C   0  0  0  0  0  0  0  0  0  0  0  0
   23.5930  -19.1301  -14.9888 C   0  0  0  0  0  0  0  0  0  0  0  0
   25.8263  -20.8195  -11.1432 C   0  0  0  0  0  0  0  0  0  0  0  0
   26.1122  -22.0381  -11.0315 O   0  0  0  0  0  0  0  0  0  0  0  0
   25.5392  -20.1305   -9.9071 N   0  0  0  0  0  0  0  0  0  0  0  0
   25.0998  -20.8608   -8.7310 C   0  0  1  0  0  0  0  0  0  0  0  0
   25.5978  -20.1163   -7.4758 C   0  0  0  0  0  0  0  0  0  0  0  0
   27.1680  -19.2915   -7.8066 S   0  0  0  0  0  0  0  0  0  0  0  0
   23.6643  -21.1061   -8.6599 C   0  0  0  0  0  0  0  0  0  0  0  0
   22.8822  -20.2282   -9.1654 O   0  0  0  0  0  0  0  0  0  0  0  0
   23.0059  -22.2217   -8.0899 N   0  0  0  0  0  0  0  0  0  0  0  0
   21.5896  -22.2418   -7.8005 C   0  0  1  0  0  0  0  0  0  0  0  0
   21.0761  -23.6562   -7.6050 C   0  0  0  0  0  0  0  0  0  0  0  0
   19.3728  -23.7028   -8.2284 S   0  0  0  0  0  0  0  0  0  0  0  0
   21.1770  -21.3822   -6.6939 C   0  0  0  0  0  0  0  0  0  0  0  0
   22.0536  -20.9624   -5.8844 O   0  0  0  0  0  0  0  0  0  0  0  0
   19.8691  -20.9855   -6.4635 O   0  0  0  0  0  0  0  0  0  0  0  0
  2  1  1  6
  3  2  1  0
  3  4  1  0
  4  5  2  0
  6  5  1  0
  7  6  1  0
  8  7  2  0
  9  8  1  0
 10  9  2  0
 10 11  1  0
 11 12  2  0
 12  7  1  0
 12  4  1  0
 13 14  2  0
 13  2  1  0
 15 13  1  0
 16 15  1  0
 16 17  1  1
 18 17  1  0
 19 16  1  0
 19 21  1  0
 20 19  2  0
 22 21  1  0
 22 25  1  0
 22 23  1  1
 23 24  1  0
 25 26  2  0
 25 27  1  0
M  END
$$$$
