WCC.pdb
     RDKit          3D

 27 28  0  0  1  0  0  0  0  0999 V2000
   23.1419  -12.1105  -19.7877 N   0  0  0  0  0  0  0  0  0  0  0  0
   22.0737  -11.3150  -19.2217 C   0  0  1  0  0  0  0  0  0  0  0  0
   21.2622  -12.1018  -18.2158 C   0  0  0  0  0  0  0  0  0  0  0  0
   20.4976  -13.2182  -18.8147 C   0  0  0  0  0  0  0  0  0  0  0  0
   21.0013  -14.4641  -19.1241 C   0  0  0  0  0  0  0  0  0  0  0  0
   20.0319  -15.2356  -19.6809 N   0  0  0  0  0  0  0  0  0  0  0  0
   18.9020  -14.5225  -19.7435 C   0  0  0  0  0  0  0  0  0  0  0  0
   17.6528  -14.8589  -20.2171 C   0  0  0  0  0  0  0  0  0  0  0  0
   16.6316  -13.9251  -20.1622 C   0  0  0  0  0  0  0  0  0  0  0  0
   16.8878  -12.6965  -19.6404 C   0  0  0  0  0  0  0  0  0  0  0  0
   18.1523  -12.3750  -19.1683 C   0  0  0  0  0  0  0  0  0  0  0  0
   19.1781  -13.2619  -19.2059 C   0  0  0  0  0  0  0  0  0  0  0  0
   22.6367  -10.0743  -18.6897 C   0  0  0  0  0  0  0  0  0  0  0  0
   23.7703  -10.0804  -18.1472 O   0  0  0  0  0  0  0  0  0  0  0  0
   21.9757   -8.7914  -18.7383 N   0  0  0  0  0  0  0  0  0  0  0  0
   22.6031   -7.6075  -18.1776 C   0  0  1  0  0  0  0  0  0  0  0  0
   22.7869   -6.5692  -19.3027 C   0  0  0  0  0  0  0  0  0  0  0  0
   23.4962   -5.0437  -18.6509 S   0  0  0  0  0  0  0  0  0  0  0  0
   21.9083   -7.0254  -17.0355 C   0  0  0  0  0  0  0  0  0  0  0  0
   20.6290   -7.0026  -17.0625 O   0  0  0  0  0  0  0  0  0  0  0  0
   22.4818   -6.4686  -15.8677 N   0  0  0  0  0  0  0  0  0  0  0  0
   21.6978   -5.8934  -14.7980 C   0  0  1  0  0  0  0  0  0  0  0  0
   21.5371   -6.8581  -13.6377 C   0  0  0  0  0  0  0  0  0  0  0  0
   20.6562   -5.9751  -12.3200 S   0  0  0  0  0  0  0  0  0  0  0  0
   22.1619   -4.5902  -14.3289 C   0  0  0  0  0  0  0  0  0  0  0  0
   23.2902   -4.1669  -14.7136 O   0  0  0  0  0  0  0  0  0  0  0  0
   21.4408   -3.7684  -13.4771 O   0  0  0  0  0  0  0  0  0  0  0  0
  2  1  1  1
  3  2  1  0
  3  4  1  0
  4  5  2  0
  6  5  1  0
  7  6  1  0
  8  7  2  0
  9  8  1  0
 10  9  2  0
 10 11  1  0
 11 12  2  0
 12  7  1  0
 12  4  1  0
 13 14  2  0
 13  2  1  0
 15 13  1  0
 16 15  1  0
 16 17  1  6
 18 17  1  0
 19 16  1  0
 19 21  1  0
 20 19  2  0
 22 21  1  0
 22 25  1  0
 22 23  1  1
 23 24  1  0
 25 26  2  0
 25 27  1  0
M  END
$$$$
