WCC.pdb
     RDKit          3D

 27 28  0  0  1  0  0  0  0  0999 V2000
   27.5454  -22.1468  -14.2473 N   0  0  0  0  0  0  0  0  0  0  0  0
   26.4379  -21.8919  -13.3516 C   0  0  1  0  0  0  0  0  0  0  0  0
   26.5558  -20.5380  -12.6863 C   0  0  0  0  0  0  0  0  0  0  0  0
   27.5673  -20.4943  -11.6071 C   0  0  0  0  0  0  0  0  0  0  0  0
   28.9284  -20.3621  -11.7842 C   0  0  0  0  0  0  0  0  0  0  0  0
   29.5609  -20.3827  -10.5824 N   0  0  0  0  0  0  0  0  0  0  0  0
   28.6436  -20.5256   -9.6194 C   0  0  0  0  0  0  0  0  0  0  0  0
   28.7820  -20.5963   -8.2507 C   0  0  0  0  0  0  0  0  0  0  0  0
   27.6539  -20.7411   -7.4606 C   0  0  0  0  0  0  0  0  0  0  0  0
   26.4346  -20.8094   -8.0570 C   0  0  0  0  0  0  0  0  0  0  0  0
   26.3140  -20.7367   -9.4374 C   0  0  0  0  0  0  0  0  0  0  0  0
   27.3952  -20.5960  -10.2446 C   0  0  0  0  0  0  0  0  0  0  0  0
   25.1842  -22.0884  -14.0790 C   0  0  0  0  0  0  0  0  0  0  0  0
   24.9284  -21.3882  -15.0907 O   0  0  0  0  0  0  0  0  0  0  0  0
   24.1761  -23.0581  -13.7208 N   0  0  0  0  0  0  0  0  0  0  0  0
   22.9500  -23.1780  -14.4900 C   0  0  1  0  0  0  0  0  0  0  0  0
   22.6081  -24.6743  -14.6396 C   0  0  0  0  0  0  0  0  0  0  0  0
   20.9967  -24.8832  -15.4237 S   0  0  0  0  0  0  0  0  0  0  0  0
   21.8154  -22.4316  -13.9594 C   0  0  0  0  0  0  0  0  0  0  0  0
   21.4029  -22.7266  -12.7843 O   0  0  0  0  0  0  0  0  0  0  0  0
   21.0925  -21.3929  -14.5929 N   0  0  0  0  0  0  0  0  0  0  0  0
   19.9352  -20.7596  -14.0016 C   0  0  1  0  0  0  0  0  0  0  0  0
   19.9221  -19.2637  -14.2557 C   0  0  0  0  0  0  0  0  0  0  0  0
   21.2769  -18.5404  -13.2897 S   0  0  0  0  0  0  0  0  0  0  0  0
   18.6541  -21.3593  -14.3662 C   0  0  0  0  0  0  0  0  0  0  0  0
   18.4075  -21.5828  -15.5866 O   0  0  0  0  0  0  0  0  0  0  0  0
   17.6711  -21.7081  -13.4535 O   0  0  0  0  0  0  0  0  0  0  0  0
  2  1  1  6
  3  2  1  0
  3  4  1  0
  4  5  2  0
  6  5  1  0
  7  6  1  0
  8  7  2  0
  9  8  1  0
 10  9  2  0
 10 11  1  0
 11 12  2  0
 12  7  1  0
 12  4  1  0
 13 14  2  0
 13  2  1  0
 15 13  1  0
 16 15  1  0
 16 17  1  1
 18 17  1  0
 19 16  1  0
 19 21  1  0
 20 19  2  0
 22 21  1  0
 22 25  1  0
 22 23  1  6
 23 24  1  0
 25 26  2  0
 25 27  1  0
M  END
$$$$
