WCC.pdb
     RDKit          3D

 27 28  0  0  1  0  0  0  0  0999 V2000
   25.6043  -19.7326  -11.9825 N   0  0  0  0  0  0  0  0  0  0  0  0
   25.9510  -21.1375  -11.9807 C   0  0  1  0  0  0  0  0  0  0  0  0
   25.6946  -21.7758  -10.6330 C   0  0  0  0  0  0  0  0  0  0  0  0
   26.2691  -21.0176   -9.4995 C   0  0  0  0  0  0  0  0  0  0  0  0
   25.5510  -20.3186   -8.5522 C   0  0  0  0  0  0  0  0  0  0  0  0
   26.3952  -19.7219   -7.6713 N   0  0  0  0  0  0  0  0  0  0  0  0
   27.6530  -20.0143   -8.0202 C   0  0  0  0  0  0  0  0  0  0  0  0
   28.8516  -19.6529   -7.4453 C   0  0  0  0  0  0  0  0  0  0  0  0
   30.0361  -20.1006   -8.0061 C   0  0  0  0  0  0  0  0  0  0  0  0
   29.9864  -20.8881   -9.1127 C   0  0  0  0  0  0  0  0  0  0  0  0
   28.7700  -21.2421   -9.6785 C   0  0  0  0  0  0  0  0  0  0  0  0
   27.5890  -20.8227   -9.1590 C   0  0  0  0  0  0  0  0  0  0  0  0
   25.2634  -21.7974  -13.0902 C   0  0  0  0  0  0  0  0  0  0  0  0
   24.1914  -21.3190  -13.5388 O   0  0  0  0  0  0  0  0  0  0  0  0
   25.7308  -22.9984  -13.7415 N   0  0  0  0  0  0  0  0  0  0  0  0
   24.9979  -23.5769  -14.8540 C   0  0  1  0  0  0  0  0  0  0  0  0
   25.8855  -24.6445  -15.5251 C   0  0  0  0  0  0  0  0  0  0  0  0
   27.4532  -23.9262  -16.0559 S   0  0  0  0  0  0  0  0  0  0  0  0
   23.6898  -24.1226  -14.5117 C   0  0  0  0  0  0  0  0  0  0  0  0
   23.4622  -24.4036  -13.2841 O   0  0  0  0  0  0  0  0  0  0  0  0
   22.6087  -24.3871  -15.3858 N   0  0  0  0  0  0  0  0  0  0  0  0
   21.2241  -24.3134  -14.9766 C   0  0  1  0  0  0  0  0  0  0  0  0
   20.8811  -22.9536  -14.3971 C   0  0  0  0  0  0  0  0  0  0  0  0
   19.2089  -23.0693  -13.7026 S   0  0  0  0  0  0  0  0  0  0  0  0
   20.2592  -24.6983  -16.0036 C   0  0  0  0  0  0  0  0  0  0  0  0
   20.3940  -24.2382  -17.1741 O   0  0  0  0  0  0  0  0  0  0  0  0
   19.1868  -25.5482  -15.7833 O   0  0  0  0  0  0  0  0  0  0  0  0
  2  1  1  1
  3  2  1  0
  3  4  1  0
  4  5  2  0
  6  5  1  0
  7  6  1  0
  8  7  2  0
  9  8  1  0
 10  9  2  0
 10 11  1  0
 11 12  2  0
 12  7  1  0
 12  4  1  0
 13 14  2  0
 13  2  1  0
 15 13  1  0
 16 15  1  0
 16 17  1  1
 18 17  1  0
 19 16  1  0
 19 21  1  0
 20 19  2  0
 22 21  1  0
 22 25  1  0
 22 23  1  6
 23 24  1  0
 25 26  2  0
 25 27  1  0
M  END
$$$$
