NVV.pdb
     RDKit          3D

 23 22  0  0  1  0  0  0  0  0999 V2000
    8.7032  -13.7761   18.3002 N   0  0  0  0  0  0  0  0  0  0  0  0
    7.7041  -14.0026   19.2706 C   0  0  0  0  0  0  0  0  0  0  0  0
    6.6831  -14.6471   18.9174 O   0  0  0  0  0  0  0  0  0  0  0  0
    7.8826  -13.4847   20.6519 C   0  0  0  0  0  0  0  0  0  0  0  0
    8.0625  -14.6654   21.5653 C   0  0  2  0  0  0  0  0  0  0  0  0
    6.8712  -15.4490   21.6670 N   0  0  0  0  0  0  0  0  0  0  0  0
    8.5352  -14.2827   22.9109 C   0  0  0  0  0  0  0  0  0  0  0  0
    9.7503  -14.0195   23.1061 O   0  0  0  0  0  0  0  0  0  0  0  0
    7.5342  -12.7741   27.4717 C   0  0  0  0  0  0  0  0  0  0  0  0
    7.0457  -13.1924   26.1048 C   0  0  1  0  0  0  0  0  0  0  0  0
    6.6137  -11.9416   25.3721 C   0  0  0  0  0  0  0  0  0  0  0  0
    8.1506  -13.9258   25.3341 C   0  0  2  0  0  0  0  0  0  0  0  0
    7.6447  -14.1978   24.0262 N   0  0  0  0  0  0  0  0  0  0  0  0
    8.4887  -15.1535   26.0962 C   0  0  0  0  0  0  0  0  0  0  0  0
    7.6029  -16.0246   26.2941 O   0  0  0  0  0  0  0  0  0  0  0  0
   11.3486  -17.4653   25.2408 C   0  0  0  0  0  0  0  0  0  0  0  0
   11.4163  -17.2472   26.7351 C   0  0  2  0  0  0  0  0  0  0  0  0
   11.8288  -18.5107   27.4233 C   0  0  0  0  0  0  0  0  0  0  0  0
   10.1441  -16.6516   27.2832 C   0  0  2  0  0  0  0  0  0  0  0  0
    9.7696  -15.4241   26.6316 N   0  0  0  0  0  0  0  0  0  0  0  0
   10.3638  -16.4080   28.7340 C   0  0  0  0  0  0  0  0  0  0  0  0
   10.3952  -17.3942   29.5133 O   0  0  0  0  0  0  0  0  0  0  0  0
   10.5371  -15.1521   29.2820 O   0  0  0  0  0  0  0  0  0  0  0  0
  1  2  1  0
  2  3  2  0
  4  5  1  0
  4  2  1  0
  5  6  1  1
  7  8  2  0
  7  5  1  0
 10  9  1  1
 10 12  1  0
 10 11  1  0
 12 13  1  6
 13  7  1  0
 14 20  1  0
 14 12  1  0
 15 14  2  0
 17 16  1  6
 17 19  1  0
 18 17  1  0
 19 20  1  6
 19 21  1  0
 21 23  1  0
 22 21  2  0
M  END
$$$$
