NVV.pdb
     RDKit          3D

 23 22  0  0  1  0  0  0  0  0999 V2000
   10.9143  -18.5139   18.7652 N   0  0  0  0  0  0  0  0  0  0  0  0
   10.9064  -17.1226   18.5297 C   0  0  0  0  0  0  0  0  0  0  0  0
   11.3337  -16.7165   17.4183 O   0  0  0  0  0  0  0  0  0  0  0  0
   10.4045  -16.1970   19.5782 C   0  0  0  0  0  0  0  0  0  0  0  0
   10.1975  -16.9958   20.8350 C   0  0  2  0  0  0  0  0  0  0  0  0
    9.1382  -17.9457   20.6964 N   0  0  0  0  0  0  0  0  0  0  0  0
    9.9675  -16.1481   22.0220 C   0  0  0  0  0  0  0  0  0  0  0  0
   10.8001  -15.2589   22.3383 O   0  0  0  0  0  0  0  0  0  0  0  0
    6.7966  -16.8798   24.9440 C   0  0  0  0  0  0  0  0  0  0  0  0
    7.1144  -15.5332   24.3376 C   0  0  1  0  0  0  0  0  0  0  0  0
    6.7453  -14.4761   25.3547 C   0  0  0  0  0  0  0  0  0  0  0  0
    8.5996  -15.4419   23.9656 C   0  0  2  0  0  0  0  0  0  0  0  0
    8.8084  -16.3024   22.8447 N   0  0  0  0  0  0  0  0  0  0  0  0
    9.3856  -15.8383   25.1603 C   0  0  0  0  0  0  0  0  0  0  0  0
   10.1264  -16.8537   25.1066 O   0  0  0  0  0  0  0  0  0  0  0  0
   10.0518  -13.0651   28.3135 C   0  0  0  0  0  0  0  0  0  0  0  0
    9.9592  -14.5249   28.6946 C   0  0  2  0  0  0  0  0  0  0  0  0
   10.8462  -14.8102   29.8659 C   0  0  0  0  0  0  0  0  0  0  0  0
   10.2025  -15.4381   27.5195 C   0  0  2  0  0  0  0  0  0  0  0  0
    9.3627  -15.1391   26.3896 N   0  0  0  0  0  0  0  0  0  0  0  0
    9.9490  -16.8280   27.9849 C   0  0  0  0  0  0  0  0  0  0  0  0
   10.9261  -17.5284   28.3532 O   0  0  0  0  0  0  0  0  0  0  0  0
    8.6934  -17.4010   28.0374 O   0  0  0  0  0  0  0  0  0  0  0  0
  1  2  1  0
  2  3  2  0
  4  5  1  0
  4  2  1  0
  5  6  1  6
  7  8  2  0
  7  5  1  0
 10  9  1  1
 10 12  1  0
 10 11  1  0
 12 13  1  6
 13  7  1  0
 14 20  1  0
 14 12  1  0
 15 14  2  0
 17 16  1  6
 17 19  1  0
 18 17  1  0
 19 20  1  6
 19 21  1  0
 21 23  1  0
 22 21  2  0
M  END
$$$$
