NVV.pdb
     RDKit          3D

 23 22  0  0  1  0  0  0  0  0999 V2000
   14.4685  -18.1376   19.7398 N   0  0  0  0  0  0  0  0  0  0  0  0
   13.3738  -17.6241   19.0122 C   0  0  0  0  0  0  0  0  0  0  0  0
   13.2213  -18.0225   17.8288 O   0  0  0  0  0  0  0  0  0  0  0  0
   12.4525  -16.6487   19.6508 C   0  0  0  0  0  0  0  0  0  0  0  0
   11.7556  -17.3492   20.7839 C   0  0  2  0  0  0  0  0  0  0  0  0
   10.7509  -18.2526   20.3170 N   0  0  0  0  0  0  0  0  0  0  0  0
   11.1782  -16.4126   21.7689 C   0  0  0  0  0  0  0  0  0  0  0  0
   11.9120  -15.5736   22.3532 O   0  0  0  0  0  0  0  0  0  0  0  0
    7.0686  -14.5447   23.8260 C   0  0  0  0  0  0  0  0  0  0  0  0
    7.7240  -15.4890   22.8458 C   0  0  1  0  0  0  0  0  0  0  0  0
    7.3177  -15.0568   21.4543 C   0  0  0  0  0  0  0  0  0  0  0  0
    9.2494  -15.4639   23.0046 C   0  0  2  0  0  0  0  0  0  0  0  0
    9.7854  -16.4228   22.0914 N   0  0  0  0  0  0  0  0  0  0  0  0
    9.5570  -15.7731   24.4230 C   0  0  0  0  0  0  0  0  0  0  0  0
    9.7308  -16.9687   24.7738 O   0  0  0  0  0  0  0  0  0  0  0  0
   10.3813  -14.1497   29.1107 C   0  0  0  0  0  0  0  0  0  0  0  0
   10.0561  -13.8337   27.6687 C   0  0  2  0  0  0  0  0  0  0  0  0
    8.8036  -13.0183   27.5885 C   0  0  0  0  0  0  0  0  0  0  0  0
   10.0249  -15.0704   26.8065 C   0  0  2  0  0  0  0  0  0  0  0  0
    9.6726  -14.7952   25.4384 N   0  0  0  0  0  0  0  0  0  0  0  0
    9.0310  -15.9992   27.4082 C   0  0  0  0  0  0  0  0  0  0  0  0
    9.3850  -16.7145   28.3798 O   0  0  0  0  0  0  0  0  0  0  0  0
    7.7307  -16.1245   26.9599 O   0  0  0  0  0  0  0  0  0  0  0  0
  1  2  1  0
  2  3  2  0
  4  5  1  0
  4  2  1  0
  5  6  1  6
  7  8  2  0
  7  5  1  0
 10  9  1  1
 10 12  1  0
 10 11  1  0
 12 13  1  6
 13  7  1  0
 14 20  1  0
 14 12  1  0
 15 14  2  0
 17 16  1  1
 17 19  1  0
 18 17  1  0
 19 20  1  6
 19 21  1  0
 21 23  1  0
 22 21  2  0
M  END
$$$$
