NVV.pdb
     RDKit          3D

 23 22  0  0  1  0  0  0  0  0999 V2000
   10.3046  -20.2295   20.3769 N   0  0  0  0  0  0  0  0  0  0  0  0
    9.2061  -19.3536   20.2450 C   0  0  0  0  0  0  0  0  0  0  0  0
    8.1469  -19.8166   19.7487 O   0  0  0  0  0  0  0  0  0  0  0  0
    9.3291  -17.9401   20.6865 C   0  0  0  0  0  0  0  0  0  0  0  0
    9.3299  -17.9271   22.1900 C   0  0  2  0  0  0  0  0  0  0  0  0
    8.1414  -18.5094   22.7303 N   0  0  0  0  0  0  0  0  0  0  0  0
    9.5345  -16.5768   22.7517 C   0  0  0  0  0  0  0  0  0  0  0  0
   10.5515  -15.9055   22.4370 O   0  0  0  0  0  0  0  0  0  0  0  0
    6.8820  -14.8597   25.7362 C   0  0  0  0  0  0  0  0  0  0  0  0
    7.4115  -14.1145   24.5335 C   0  0  1  0  0  0  0  0  0  0  0  0
    7.4896  -12.6497   24.9024 C   0  0  0  0  0  0  0  0  0  0  0  0
    8.7887  -14.6517   24.1247 C   0  0  2  0  0  0  0  0  0  0  0  0
    8.6000  -15.9894   23.6604 N   0  0  0  0  0  0  0  0  0  0  0  0
    9.6736  -14.5656   25.3129 C   0  0  0  0  0  0  0  0  0  0  0  0
   10.2089  -13.4665   25.6094 O   0  0  0  0  0  0  0  0  0  0  0  0
    8.7490  -15.3238   28.8866 C   0  0  0  0  0  0  0  0  0  0  0  0
   10.0661  -14.7341   28.4367 C   0  0  2  0  0  0  0  0  0  0  0  0
    9.8823  -13.3030   28.0388 C   0  0  0  0  0  0  0  0  0  0  0  0
   10.7340  -15.5722   27.3759 C   0  0  2  0  0  0  0  0  0  0  0  0
    9.9678  -15.6591   26.1606 N   0  0  0  0  0  0  0  0  0  0  0  0
   10.9294  -16.9308   27.9493 C   0  0  0  0  0  0  0  0  0  0  0  0
   10.3205  -17.8991   27.4273 O   0  0  0  0  0  0  0  0  0  0  0  0
   11.7469  -17.1952   29.0307 O   0  0  0  0  0  0  0  0  0  0  0  0
  1  2  1  0
  2  3  2  0
  4  5  1  0
  4  2  1  0
  5  6  1  6
  7  8  2  0
  7  5  1  0
 10  9  1  1
 10 12  1  0
 10 11  1  0
 12 13  1  1
 13  7  1  0
 14 20  1  0
 14 12  1  0
 15 14  2  0
 17 16  1  6
 17 19  1  0
 18 17  1  0
 19 20  1  6
 19 21  1  0
 21 23  1  0
 22 21  2  0
M  END
$$$$
