NVV.pdb
     RDKit          3D

 23 22  0  0  1  0  0  0  0  0999 V2000
    6.2296  -19.9341   19.1784 N   0  0  0  0  0  0  0  0  0  0  0  0
    6.6652  -19.2224   20.3164 C   0  0  0  0  0  0  0  0  0  0  0  0
    5.7872  -18.8052   21.1150 O   0  0  0  0  0  0  0  0  0  0  0  0
    8.1167  -18.9911   20.5343 C   0  0  0  0  0  0  0  0  0  0  0  0
    8.5040  -17.7542   19.7724 C   0  0  2  0  0  0  0  0  0  0  0  0
    9.4749  -18.0316   18.7605 N   0  0  0  0  0  0  0  0  0  0  0  0
    8.9812  -16.6662   20.6495 C   0  0  0  0  0  0  0  0  0  0  0  0
   10.2000  -16.5826   20.9518 O   0  0  0  0  0  0  0  0  0  0  0  0
    8.5355  -13.0699   20.0423 C   0  0  0  0  0  0  0  0  0  0  0  0
    8.0322  -13.3117   21.4460 C   0  0  1  0  0  0  0  0  0  0  0  0
    6.5211  -13.3462   21.3894 C   0  0  0  0  0  0  0  0  0  0  0  0
    8.5906  -14.6267   22.0042 C   0  0  2  0  0  0  0  0  0  0  0  0
    8.0910  -15.6816   21.1806 N   0  0  0  0  0  0  0  0  0  0  0  0
    8.1545  -14.7338   23.4185 C   0  0  0  0  0  0  0  0  0  0  0  0
    7.0588  -15.2895   23.6895 O   0  0  0  0  0  0  0  0  0  0  0  0
   10.6097  -15.2280   26.8082 C   0  0  0  0  0  0  0  0  0  0  0  0
    9.6024  -14.1025   26.8679 C   0  0  2  0  0  0  0  0  0  0  0  0
    9.1423  -13.8954   28.2770 C   0  0  0  0  0  0  0  0  0  0  0  0
    8.4722  -14.2956   25.8885 C   0  0  2  0  0  0  0  0  0  0  0  0
    8.9008  -14.2435   24.5155 N   0  0  0  0  0  0  0  0  0  0  0  0
    7.4778  -13.2207   26.1495 C   0  0  0  0  0  0  0  0  0  0  0  0
    7.5333  -12.1681   25.4640 O   0  0  0  0  0  0  0  0  0  0  0  0
    6.4878  -13.3098   27.1085 O   0  0  0  0  0  0  0  0  0  0  0  0
  1  2  1  0
  2  3  2  0
  4  5  1  0
  4  2  1  0
  5  6  1  6
  7  8  2  0
  7  5  1  0
 10  9  1  6
 10 12  1  0
 10 11  1  0
 12 13  1  6
 13  7  1  0
 14 20  1  0
 14 12  1  0
 15 14  2  0
 17 16  1  1
 17 19  1  0
 18 17  1  0
 19 20  1  6
 19 21  1  0
 21 23  1  0
 22 21  2  0
M  END
$$$$
