NVV.pdb
     RDKit          3D

 23 22  0  0  1  0  0  0  0  0999 V2000
   13.1688  -17.4855   17.9125 N   0  0  0  0  0  0  0  0  0  0  0  0
   13.5104  -17.0466   19.2094 C   0  0  0  0  0  0  0  0  0  0  0  0
   14.6511  -17.3481   19.6458 O   0  0  0  0  0  0  0  0  0  0  0  0
   12.5343  -16.2580   20.0052 C   0  0  0  0  0  0  0  0  0  0  0  0
   12.1933  -17.0547   21.2338 C   0  0  2  0  0  0  0  0  0  0  0  0
   11.4715  -18.2467   20.9149 N   0  0  0  0  0  0  0  0  0  0  0  0
   11.4541  -16.2674   22.2410 C   0  0  0  0  0  0  0  0  0  0  0  0
   11.9322  -15.1893   22.6803 O   0  0  0  0  0  0  0  0  0  0  0  0
    7.8594  -17.7770   24.1768 C   0  0  0  0  0  0  0  0  0  0  0  0
    8.0619  -16.3359   23.7714 C   0  0  1  0  0  0  0  0  0  0  0  0
    7.2723  -15.4760   24.7332 C   0  0  0  0  0  0  0  0  0  0  0  0
    9.5505  -15.9674   23.8011 C   0  0  2  0  0  0  0  0  0  0  0  0
   10.1867  -16.6930   22.7479 N   0  0  0  0  0  0  0  0  0  0  0  0
   10.0710  -16.3148   25.1466 C   0  0  0  0  0  0  0  0  0  0  0  0
   10.6630  -17.4114   25.3187 O   0  0  0  0  0  0  0  0  0  0  0  0
    8.8489  -14.3868   28.8894 C   0  0  0  0  0  0  0  0  0  0  0  0
   10.3017  -14.6585   28.5721 C   0  0  2  0  0  0  0  0  0  0  0  0
   10.9837  -13.3941   28.1519 C   0  0  0  0  0  0  0  0  0  0  0  0
   10.4693  -15.7881   27.5874 C   0  0  2  0  0  0  0  0  0  0  0  0
    9.9472  -15.4803   26.2820 N   0  0  0  0  0  0  0  0  0  0  0  0
    9.7612  -16.9689   28.1504 C   0  0  0  0  0  0  0  0  0  0  0  0
    8.6260  -17.2639   27.6976 O   0  0  0  0  0  0  0  0  0  0  0  0
   10.2804  -17.7683   29.1500 O   0  0  0  0  0  0  0  0  0  0  0  0
  1  2  1  0
  2  3  2  0
  4  5  1  0
  4  2  1  0
  5  6  1  6
  7  8  2  0
  7  5  1  0
 10  9  1  1
 10 12  1  0
 10 11  1  0
 12 13  1  6
 13  7  1  0
 14 20  1  0
 14 12  1  0
 15 14  2  0
 17 16  1  6
 17 19  1  0
 18 17  1  0
 19 20  1  6
 19 21  1  0
 21 23  1  0
 22 21  2  0
M  END
$$$$
