NVV.pdb
     RDKit          3D

 23 22  0  0  1  0  0  0  0  0999 V2000
   12.9533  -20.2109   20.7825 N   0  0  0  0  0  0  0  0  0  0  0  0
   11.8710  -19.7513   21.5627 C   0  0  0  0  0  0  0  0  0  0  0  0
   10.9156  -20.5455   21.7605 O   0  0  0  0  0  0  0  0  0  0  0  0
   11.8902  -18.3725   22.1164 C   0  0  0  0  0  0  0  0  0  0  0  0
   11.2555  -17.4617   21.1024 C   0  0  2  0  0  0  0  0  0  0  0  0
   12.1553  -17.1335   20.0412 N   0  0  0  0  0  0  0  0  0  0  0  0
   10.7070  -16.2290   21.7027 C   0  0  0  0  0  0  0  0  0  0  0  0
   11.4777  -15.3054   22.0724 O   0  0  0  0  0  0  0  0  0  0  0  0
    7.9170  -13.9969   20.3227 C   0  0  0  0  0  0  0  0  0  0  0  0
    7.5557  -14.4224   21.7265 C   0  0  1  0  0  0  0  0  0  0  0  0
    6.5686  -15.5633   21.6176 C   0  0  0  0  0  0  0  0  0  0  0  0
    8.8070  -14.8516   22.5028 C   0  0  2  0  0  0  0  0  0  0  0  0
    9.3014  -16.0405   21.8841 N   0  0  0  0  0  0  0  0  0  0  0  0
    8.4088  -15.0525   23.9182 C   0  0  0  0  0  0  0  0  0  0  0  0
    8.3524  -16.2184   24.3873 O   0  0  0  0  0  0  0  0  0  0  0  0
    5.8883  -12.4579   26.1493 C   0  0  0  0  0  0  0  0  0  0  0  0
    7.1653  -12.9184   26.8141 C   0  0  2  0  0  0  0  0  0  0  0  0
    8.1535  -11.7955   26.8681 C   0  0  0  0  0  0  0  0  0  0  0  0
    7.7155  -14.1738   26.1855 C   0  0  2  0  0  0  0  0  0  0  0  0
    8.0786  -14.0001   24.8037 N   0  0  0  0  0  0  0  0  0  0  0  0
    6.6652  -15.2203   26.3052 C   0  0  0  0  0  0  0  0  0  0  0  0
    5.8724  -15.3919   25.3445 O   0  0  0  0  0  0  0  0  0  0  0  0
    6.5067  -16.0224   27.4184 O   0  0  0  0  0  0  0  0  0  0  0  0
  1  2  1  0
  2  3  2  0
  4  5  1  0
  4  2  1  0
  5  6  1  6
  7  8  2  0
  7  5  1  0
 10  9  1  6
 10 12  1  0
 10 11  1  0
 12 13  1  6
 13  7  1  0
 14 20  1  0
 14 12  1  0
 15 14  2  0
 17 16  1  6
 17 19  1  0
 18 17  1  0
 19 20  1  6
 19 21  1  0
 21 23  1  0
 22 21  2  0
M  END
$$$$
