NVV.pdb
     RDKit          3D

 23 22  0  0  1  0  0  0  0  0999 V2000
    9.2569  -15.7237   13.2486 N   0  0  0  0  0  0  0  0  0  0  0  0
    9.8496  -16.4943   14.2715 C   0  0  0  0  0  0  0  0  0  0  0  0
    9.9864  -17.7281   14.0677 O   0  0  0  0  0  0  0  0  0  0  0  0
   10.2858  -15.8406   15.5326 C   0  0  0  0  0  0  0  0  0  0  0  0
    9.5744  -16.5180   16.6708 C   0  0  2  0  0  0  0  0  0  0  0  0
    8.1566  -16.5232   16.4877 N   0  0  0  0  0  0  0  0  0  0  0  0
    9.9146  -15.9386   17.9858 C   0  0  0  0  0  0  0  0  0  0  0  0
   11.0702  -16.0821   18.4631 O   0  0  0  0  0  0  0  0  0  0  0  0
    7.9713  -12.6646   19.3229 C   0  0  0  0  0  0  0  0  0  0  0  0
    8.2182  -13.6690   20.4239 C   0  0  1  0  0  0  0  0  0  0  0  0
    6.9153  -14.3927   20.6819 C   0  0  0  0  0  0  0  0  0  0  0  0
    9.3230  -14.6543   20.0225 C   0  0  2  0  0  0  0  0  0  0  0  0
    8.9593  -15.2041   18.7552 N   0  0  0  0  0  0  0  0  0  0  0  0
    9.4235  -15.6755   21.0945 C   0  0  0  0  0  0  0  0  0  0  0  0
    8.6346  -16.6554   21.0938 O   0  0  0  0  0  0  0  0  0  0  0  0
   12.7254  -17.3742   21.9922 C   0  0  0  0  0  0  0  0  0  0  0  0
   12.0459  -17.0111   23.2927 C   0  0  2  0  0  0  0  0  0  0  0  0
   12.2881  -18.0754   24.3168 C   0  0  0  0  0  0  0  0  0  0  0  0
   10.5869  -16.6813   23.1016 C   0  0  2  0  0  0  0  0  0  0  0  0
   10.3674  -15.6269   22.1468 N   0  0  0  0  0  0  0  0  0  0  0  0
   10.0505  -16.2810   24.4300 C   0  0  0  0  0  0  0  0  0  0  0  0
    9.9867  -15.0571   24.7109 O   0  0  0  0  0  0  0  0  0  0  0  0
    9.6143  -17.1811   25.3826 O   0  0  0  0  0  0  0  0  0  0  0  0
  1  2  1  0
  2  3  2  0
  4  5  1  0
  4  2  1  0
  5  6  1  6
  7  8  2  0
  7  5  1  0
 10  9  1  6
 10 12  1  0
 10 11  1  0
 12 13  1  6
 13  7  1  0
 14 20  1  0
 14 12  1  0
 15 14  2  0
 17 16  1  6
 17 19  1  0
 18 17  1  0
 19 20  1  6
 19 21  1  0
 21 23  1  0
 22 21  2  0
M  END
$$$$
