NVV.pdb
     RDKit          3D

 23 22  0  0  1  0  0  0  0  0999 V2000
   14.9156  -17.5778   19.8344 N   0  0  0  0  0  0  0  0  0  0  0  0
   13.5830  -17.4660   19.3837 C   0  0  0  0  0  0  0  0  0  0  0  0
   13.2345  -18.1816   18.4096 O   0  0  0  0  0  0  0  0  0  0  0  0
   12.6498  -16.5265   20.0580 C   0  0  0  0  0  0  0  0  0  0  0  0
   11.9926  -17.2658   21.1903 C   0  0  2  0  0  0  0  0  0  0  0  0
   11.0376  -18.2210   20.7223 N   0  0  0  0  0  0  0  0  0  0  0  0
   11.3666  -16.3635   22.1775 C   0  0  0  0  0  0  0  0  0  0  0  0
   12.0498  -15.4727   22.7465 O   0  0  0  0  0  0  0  0  0  0  0  0
    7.2065  -14.7989   24.3730 C   0  0  0  0  0  0  0  0  0  0  0  0
    7.8926  -15.6448   23.3261 C   0  0  1  0  0  0  0  0  0  0  0  0
    7.4864  -15.1113   21.9703 C   0  0  0  0  0  0  0  0  0  0  0  0
    9.4156  -15.5960   23.5012 C   0  0  2  0  0  0  0  0  0  0  0  0
    9.9821  -16.4655   22.5196 N   0  0  0  0  0  0  0  0  0  0  0  0
    9.7198  -16.0103   24.8933 C   0  0  0  0  0  0  0  0  0  0  0  0
    9.9500  -17.2215   25.1438 O   0  0  0  0  0  0  0  0  0  0  0  0
   10.3723  -13.0361   27.8586 C   0  0  0  0  0  0  0  0  0  0  0  0
    9.9184  -14.3966   28.3360 C   0  0  2  0  0  0  0  0  0  0  0  0
   10.4942  -14.6887   29.6863 C   0  0  0  0  0  0  0  0  0  0  0  0
   10.1891  -15.4775   27.3201 C   0  0  2  0  0  0  0  0  0  0  0  0
    9.7715  -15.1189   25.9903 N   0  0  0  0  0  0  0  0  0  0  0  0
    9.4596  -16.6935   27.7692 C   0  0  0  0  0  0  0  0  0  0  0  0
    8.2471  -16.8180   27.4604 O   0  0  0  0  0  0  0  0  0  0  0  0
   10.0391  -17.7036   28.5118 O   0  0  0  0  0  0  0  0  0  0  0  0
  1  2  1  0
  2  3  2  0
  4  5  1  0
  4  2  1  0
  5  6  1  6
  7  8  2  0
  7  5  1  0
 10  9  1  1
 10 12  1  0
 10 11  1  0
 12 13  1  6
 13  7  1  0
 14 20  1  0
 14 12  1  0
 15 14  2  0
 17 16  1  6
 17 19  1  0
 18 17  1  0
 19 20  1  6
 19 21  1  0
 21 23  1  0
 22 21  2  0
M  END
$$$$
