NVV.pdb
     RDKit          3D

 23 22  0  0  1  0  0  0  0  0999 V2000
    4.9806  -17.4602   20.3927 N   0  0  0  0  0  0  0  0  0  0  0  0
    6.2070  -16.8255   20.1021 C   0  0  0  0  0  0  0  0  0  0  0  0
    6.4410  -16.5301   18.9019 O   0  0  0  0  0  0  0  0  0  0  0  0
    7.1660  -16.5306   21.1981 C   0  0  0  0  0  0  0  0  0  0  0  0
    7.2491  -15.0367   21.3459 C   0  0  2  0  0  0  0  0  0  0  0  0
    7.8367  -14.4178   20.1991 N   0  0  0  0  0  0  0  0  0  0  0  0
    7.9633  -14.6203   22.5696 C   0  0  0  0  0  0  0  0  0  0  0  0
    9.2203  -14.5611   22.5821 O   0  0  0  0  0  0  0  0  0  0  0  0
    7.7077  -13.0139   27.2515 C   0  0  0  0  0  0  0  0  0  0  0  0
    7.0436  -13.2640   25.9179 C   0  0  1  0  0  0  0  0  0  0  0  0
    6.6668  -11.9195   25.3365 C   0  0  0  0  0  0  0  0  0  0  0  0
    7.9856  -14.0246   24.9762 C   0  0  2  0  0  0  0  0  0  0  0  0
    7.2651  -14.2739   23.7682 N   0  0  0  0  0  0  0  0  0  0  0  0
    8.4070  -15.2662   25.6713 C   0  0  0  0  0  0  0  0  0  0  0  0
    7.5374  -16.0996   26.0345 O   0  0  0  0  0  0  0  0  0  0  0  0
   11.6877  -17.2396   24.4845 C   0  0  0  0  0  0  0  0  0  0  0  0
   11.5817  -17.2334   25.9924 C   0  0  2  0  0  0  0  0  0  0  0  0
   12.0765  -18.5312   26.5502 C   0  0  0  0  0  0  0  0  0  0  0  0
   10.1986  -16.8637   26.4659 C   0  0  2  0  0  0  0  0  0  0  0  0
    9.7522  -15.5909   25.9639 N   0  0  0  0  0  0  0  0  0  0  0  0
   10.2372  -16.8362   27.9526 C   0  0  0  0  0  0  0  0  0  0  0  0
   10.4687  -15.7435   28.5299 O   0  0  0  0  0  0  0  0  0  0  0  0
   10.0322  -17.9490   28.7447 O   0  0  0  0  0  0  0  0  0  0  0  0
  1  2  1  0
  2  3  2  0
  4  5  1  0
  4  2  1  0
  5  6  1  6
  7  8  2  0
  7  5  1  0
 10  9  1  1
 10 12  1  0
 10 11  1  0
 12 13  1  6
 13  7  1  0
 14 20  1  0
 14 12  1  0
 15 14  2  0
 17 16  1  6
 17 19  1  0
 18 17  1  0
 19 20  1  6
 19 21  1  0
 21 23  1  0
 22 21  2  0
M  END
$$$$
