NVV.pdb
     RDKit          3D

 23 22  0  0  1  0  0  0  0  0999 V2000
   11.0821  -19.4508   19.4328 N   0  0  0  0  0  0  0  0  0  0  0  0
   12.2362  -19.0639   20.1469 C   0  0  0  0  0  0  0  0  0  0  0  0
   13.3226  -19.6228   19.8471 O   0  0  0  0  0  0  0  0  0  0  0  0
   12.1374  -18.0298   21.2094 C   0  0  0  0  0  0  0  0  0  0  0  0
   10.9308  -17.1825   20.9147 C   0  0  2  0  0  0  0  0  0  0  0  0
   11.1294  -16.3486   19.7708 N   0  0  0  0  0  0  0  0  0  0  0  0
   10.5067  -16.3668   22.0704 C   0  0  0  0  0  0  0  0  0  0  0  0
   11.0490  -15.2535   22.2949 O   0  0  0  0  0  0  0  0  0  0  0  0
    7.3519  -17.6636   24.7362 C   0  0  0  0  0  0  0  0  0  0  0  0
    7.5791  -16.2383   24.2899 C   0  0  1  0  0  0  0  0  0  0  0  0
    7.0331  -15.3298   25.3690 C   0  0  0  0  0  0  0  0  0  0  0  0
    9.0714  -15.9745   24.0536 C   0  0  2  0  0  0  0  0  0  0  0  0
    9.4801  -16.8035   22.9645 N   0  0  0  0  0  0  0  0  0  0  0  0
    9.7856  -16.2784   25.3185 C   0  0  0  0  0  0  0  0  0  0  0  0
   10.3792  -17.3801   25.4465 O   0  0  0  0  0  0  0  0  0  0  0  0
    9.0668  -14.1567   29.0443 C   0  0  0  0  0  0  0  0  0  0  0  0
   10.4732  -14.5342   28.6389 C   0  0  2  0  0  0  0  0  0  0  0  0
   11.2094  -13.3284   28.1445 C   0  0  0  0  0  0  0  0  0  0  0  0
   10.4975  -15.6916   27.6727 C   0  0  2  0  0  0  0  0  0  0  0  0
    9.8499  -15.3958   26.4219 N   0  0  0  0  0  0  0  0  0  0  0  0
    9.8147  -16.8329   28.3389 C   0  0  0  0  0  0  0  0  0  0  0  0
    8.6180  -17.0774   28.0401 O   0  0  0  0  0  0  0  0  0  0  0  0
   10.4214  -17.6478   29.2745 O   0  0  0  0  0  0  0  0  0  0  0  0
  1  2  1  0
  2  3  2  0
  4  5  1  0
  4  2  1  0
  5  6  1  6
  7  8  2  0
  7  5  1  0
 10  9  1  1
 10 12  1  0
 10 11  1  0
 12 13  1  6
 13  7  1  0
 14 20  1  0
 14 12  1  0
 15 14  2  0
 17 16  1  6
 17 19  1  0
 18 17  1  0
 19 20  1  6
 19 21  1  0
 21 23  1  0
 22 21  2  0
M  END
$$$$
