DRI.pdb
     RDKit          3D

 28 27  0  0  1  0  0  0  0  0999 V2000
   26.5462  -19.5559   -9.7777 N   0  0  0  0  0  0  0  0  0  0  0  0
   25.4845  -20.4499  -10.2161 C   0  0  1  0  0  0  0  0  0  0  0  0
   24.1975  -20.1454   -9.5136 C   0  0  0  0  0  0  0  0  0  0  0  0
   24.2712  -20.3601   -8.0446 C   0  0  0  0  0  0  0  0  0  0  0  0
   25.3111  -20.6357   -7.4101 O   0  0  0  0  0  0  0  0  0  0  0  0
   25.3189  -20.3877  -11.6964 C   0  0  0  0  0  0  0  0  0  0  0  0
   25.4023  -19.3168  -12.3328 O   0  0  0  0  0  0  0  0  0  0  0  0
   23.0765  -20.2447   -7.3091 O   0  0  0  0  0  0  0  0  0  0  0  0
   24.8015  -26.6027  -17.3793 N   0  0  0  0  0  0  0  0  0  0  0  0
   25.3253  -25.6094  -18.2635 C   0  0  0  0  0  0  0  0  0  0  0  0
   25.2255  -25.6981  -19.5576 N   0  0  0  0  0  0  0  0  0  0  0  0
   25.9870  -24.4764  -17.7092 N   0  0  0  0  0  0  0  0  0  0  0  0
   25.9959  -24.2794  -16.2768 C   0  0  0  0  0  0  0  0  0  0  0  0
   25.2869  -22.9582  -15.9241 C   0  0  0  0  0  0  0  0  0  0  0  0
   25.4178  -22.8209  -14.4450 C   0  0  0  0  0  0  0  0  0  0  0  0
   24.8814  -21.5364  -13.8884 C   0  0  2  0  0  0  0  0  0  0  0  0
   25.0520  -21.5787  -12.4517 N   0  0  0  0  0  0  0  0  0  0  0  0
   23.3817  -21.5353  -14.1059 C   0  0  0  0  0  0  0  0  0  0  0  0
   22.6019  -22.2626  -13.4432 O   0  0  0  0  0  0  0  0  0  0  0  0
   25.7185  -25.0051  -20.1591 C   0  0  0  0  0  0  0  0  0  0  0  0
   21.1705  -16.8491  -15.7108 C   0  0  0  0  0  0  0  0  0  0  0  0
   21.3306  -18.2000  -15.0115 C   0  0  2  0  0  0  0  0  0  0  0  0
   21.1308  -19.3028  -15.9937 C   0  0  0  0  0  0  0  0  0  0  0  0
   19.7901  -19.2973  -16.6573 C   0  0  2  0  0  0  0  0  0  0  0  0
   21.3811  -20.6353  -15.3368 N   0  0  0  0  0  0  0  0  0  0  0  0
   22.8349  -20.6837  -15.0927 C   0  0  0  0  0  0  0  0  0  0  0  0
   21.0602  -21.8020  -16.1697 O   0  0  0  0  0  0  0  0  0  0  0  0
   21.8445  -22.1927  -17.2648 O   0  0  0  0  0  0  0  0  0  0  0  0
  2  1  1  1
  2  3  1  0
  3  4  1  0
  4  8  1  0
  5  4  2  0
  6  2  1  0
  7  6  2  0
  9 10  1  0
 10 12  1  0
 11 10  2  0
 12 13  1  0
 13 14  1  0
 14 15  1  0
 16 15  1  6
 16 17  1  0
 17  6  1  0
 18 19  2  0
 18 16  1  0
 21 20  1  0
 21 22  1  0
 22 24  1  0
 22 23  1  6
 24 25  1  1
 25 18  1  0
 26 24  1  0
 27 26  1  0
 28 26  2  0
M  END
$$$$
