DRI.pdb
     RDKit          3D

 28 27  0  0  1  0  0  0  0  0999 V2000
   27.6538  -20.6428  -18.6821 N   0  0  0  0  0  0  0  0  0  0  0  0
   27.1291  -21.3340  -17.5135 C   0  0  1  0  0  0  0  0  0  0  0  0
   28.2372  -21.8392  -16.6422 C   0  0  0  0  0  0  0  0  0  0  0  0
   29.0255  -22.9286  -17.2757 C   0  0  0  0  0  0  0  0  0  0  0  0
   28.8185  -23.3958  -18.4153 O   0  0  0  0  0  0  0  0  0  0  0  0
   26.2017  -20.4515  -16.7496 C   0  0  0  0  0  0  0  0  0  0  0  0
   25.9949  -19.2630  -17.0714 O   0  0  0  0  0  0  0  0  0  0  0  0
   30.0889  -23.4782  -16.5348 O   0  0  0  0  0  0  0  0  0  0  0  0
   20.5382  -17.0292  -18.5760 N   0  0  0  0  0  0  0  0  0  0  0  0
   21.6463  -16.8091  -17.7004 C   0  0  0  0  0  0  0  0  0  0  0  0
   22.3270  -15.7005  -17.6941 N   0  0  0  0  0  0  0  0  0  0  0  0
   22.0256  -17.8445  -16.7989 N   0  0  0  0  0  0  0  0  0  0  0  0
   21.3733  -19.1330  -16.8695 C   0  0  0  0  0  0  0  0  0  0  0  0
   21.8798  -20.0409  -15.7328 C   0  0  0  0  0  0  0  0  0  0  0  0
   23.2413  -20.4803  -16.1536 C   0  0  0  0  0  0  0  0  0  0  0  0
   24.3029  -20.3053  -15.1097 C   0  0  2  0  0  0  0  0  0  0  0  0
   25.5044  -20.9484  -15.5976 N   0  0  0  0  0  0  0  0  0  0  0  0
   23.8892  -21.1145  -13.8972 C   0  0  0  0  0  0  0  0  0  0  0  0
   23.5403  -22.3181  -13.9744 O   0  0  0  0  0  0  0  0  0  0  0  0
   23.1225  -15.5904  -17.0306 C   0  0  0  0  0  0  0  0  0  0  0  0
   26.0657  -20.9131   -8.3223 C   0  0  0  0  0  0  0  0  0  0  0  0
   24.9407  -21.4619   -9.2012 C   0  0  2  0  0  0  0  0  0  0  0  0
   24.9435  -20.7638  -10.5179 C   0  0  0  0  0  0  0  0  0  0  0  0
   24.8597  -19.2733  -10.4217 C   0  0  2  0  0  0  0  0  0  0  0  0
   23.8337  -21.2926  -11.3887 N   0  0  0  0  0  0  0  0  0  0  0  0
   23.8945  -20.4940  -12.6272 C   0  0  0  0  0  0  0  0  0  0  0  0
   22.4825  -21.1101  -10.8421 O   0  0  0  0  0  0  0  0  0  0  0  0
   21.8583  -22.0635  -10.0246 O   0  0  0  0  0  0  0  0  0  0  0  0
  2  1  1  6
  2  3  1  0
  3  4  1  0
  4  8  1  0
  5  4  2  0
  6  2  1  0
  7  6  2  0
  9 10  1  0
 10 12  1  0
 11 10  2  0
 12 13  1  0
 13 14  1  0
 14 15  1  0
 16 15  1  6
 16 17  1  0
 17  6  1  0
 18 19  2  0
 18 16  1  0
 21 20  1  0
 21 22  1  0
 22 24  1  0
 22 23  1  6
 24 25  1  1
 25 18  1  0
 26 24  1  0
 27 26  1  0
 28 26  2  0
M  END
$$$$
