DRI.pdb
     RDKit          3D

 28 27  0  0  1  0  0  0  0  0999 V2000
   29.2642  -21.3609  -17.9563 N   0  0  0  0  0  0  0  0  0  0  0  0
   28.6164  -22.1502  -16.9191 C   0  0  1  0  0  0  0  0  0  0  0  0
   29.6193  -22.9378  -16.1341 C   0  0  0  0  0  0  0  0  0  0  0  0
   30.2719  -24.0089  -16.9318 C   0  0  0  0  0  0  0  0  0  0  0  0
   31.1574  -24.7816  -16.5087 O   0  0  0  0  0  0  0  0  0  0  0  0
   27.7962  -21.2809  -16.0281 C   0  0  0  0  0  0  0  0  0  0  0  0
   28.2472  -20.2348  -15.5172 O   0  0  0  0  0  0  0  0  0  0  0  0
   29.8616  -24.1664  -18.2691 O   0  0  0  0  0  0  0  0  0  0  0  0
   19.3507  -21.1798  -15.5718 N   0  0  0  0  0  0  0  0  0  0  0  0
   19.5589  -19.8198  -15.1843 C   0  0  0  0  0  0  0  0  0  0  0  0
   18.6065  -19.0707  -14.7109 N   0  0  0  0  0  0  0  0  0  0  0  0
   20.8601  -19.2574  -15.3237 N   0  0  0  0  0  0  0  0  0  0  0  0
   21.9334  -20.0569  -15.8710 C   0  0  0  0  0  0  0  0  0  0  0  0
   23.1873  -19.9293  -14.9856 C   0  0  0  0  0  0  0  0  0  0  0  0
   24.2605  -20.6695  -15.7095 C   0  0  0  0  0  0  0  0  0  0  0  0
   25.5764  -20.7180  -14.9929 C   0  0  2  0  0  0  0  0  0  0  0  0
   26.4368  -21.6253  -15.7220 N   0  0  0  0  0  0  0  0  0  0  0  0
   25.3431  -21.3886  -13.6542 C   0  0  0  0  0  0  0  0  0  0  0  0
   25.0057  -22.5935  -13.5513 O   0  0  0  0  0  0  0  0  0  0  0  0
   18.7901  -18.0618  -14.5275 C   0  0  0  0  0  0  0  0  0  0  0  0
   27.0153  -20.3550   -7.8818 C   0  0  0  0  0  0  0  0  0  0  0  0
   26.0988  -21.1170   -8.8404 C   0  0  2  0  0  0  0  0  0  0  0  0
   26.2529  -20.5774  -10.2210 C   0  0  0  0  0  0  0  0  0  0  0  0
   26.1529  -19.0875  -10.3116 C   0  0  2  0  0  0  0  0  0  0  0  0
   25.2544  -21.2234  -11.1458 N   0  0  0  0  0  0  0  0  0  0  0  0
   25.5105  -20.6316  -12.4723 C   0  0  0  0  0  0  0  0  0  0  0  0
   23.8485  -20.9398  -10.8283 O   0  0  0  0  0  0  0  0  0  0  0  0
   23.0978  -21.7215   -9.9381 O   0  0  0  0  0  0  0  0  0  0  0  0
  2  1  1  6
  2  3  1  0
  3  4  1  0
  4  8  1  0
  5  4  2  0
  6  2  1  0
  7  6  2  0
  9 10  1  0
 10 12  1  0
 11 10  2  0
 12 13  1  0
 13 14  1  0
 14 15  1  0
 16 15  1  6
 16 17  1  0
 17  6  1  0
 18 19  2  0
 18 16  1  0
 21 20  1  0
 21 22  1  0
 22 24  1  0
 22 23  1  6
 24 25  1  1
 25 18  1  0
 26 24  1  0
 27 26  1  0
 28 26  2  0
M  END
$$$$
