DRI.pdb
     RDKit          3D

 28 27  0  0  1  0  0  0  0  0999 V2000
   25.3504  -19.8130  -17.8669 N   0  0  0  0  0  0  0  0  0  0  0  0
   25.7778  -18.8451  -16.8674 C   0  0  1  0  0  0  0  0  0  0  0  0
   26.4423  -17.6655  -17.5072 C   0  0  0  0  0  0  0  0  0  0  0  0
   27.6895  -18.0225  -18.2329 C   0  0  0  0  0  0  0  0  0  0  0  0
   28.1700  -19.1726  -18.3127 O   0  0  0  0  0  0  0  0  0  0  0  0
   24.6292  -18.4215  -16.0166 C   0  0  0  0  0  0  0  0  0  0  0  0
   24.7294  -17.5159  -15.1631 O   0  0  0  0  0  0  0  0  0  0  0  0
   28.3851  -16.9846  -18.8814 O   0  0  0  0  0  0  0  0  0  0  0  0
   19.2952  -18.9724  -20.2084 N   0  0  0  0  0  0  0  0  0  0  0  0
   19.1817  -19.8776  -19.1081 C   0  0  0  0  0  0  0  0  0  0  0  0
   19.0306  -21.1600  -19.2662 N   0  0  0  0  0  0  0  0  0  0  0  0
   19.2326  -19.3577  -17.7829 N   0  0  0  0  0  0  0  0  0  0  0  0
   19.4225  -17.9396  -17.5744 C   0  0  0  0  0  0  0  0  0  0  0  0
   20.7849  -17.6856  -16.9019 C   0  0  0  0  0  0  0  0  0  0  0  0
   20.9879  -18.8338  -15.9723 C   0  0  0  0  0  0  0  0  0  0  0  0
   22.2788  -18.7985  -15.2109 C   0  0  2  0  0  0  0  0  0  0  0  0
   23.3478  -19.0536  -16.1529 N   0  0  0  0  0  0  0  0  0  0  0  0
   22.2890  -19.9891  -14.2735 C   0  0  0  0  0  0  0  0  0  0  0  0
   22.4651  -21.1651  -14.6761 O   0  0  0  0  0  0  0  0  0  0  0  0
   18.9943  -21.7796  -18.4296 C   0  0  0  0  0  0  0  0  0  0  0  0
   24.7307  -21.5653   -9.2572 C   0  0  0  0  0  0  0  0  0  0  0  0
   23.4399  -21.7518  -10.0563 C   0  0  2  0  0  0  0  0  0  0  0  0
   23.2863  -20.6369  -11.0332 C   0  0  0  0  0  0  0  0  0  0  0  0
   23.1729  -19.2835  -10.4060 C   0  0  2  0  0  0  0  0  0  0  0  0
   22.1061  -20.8940  -11.9336 N   0  0  0  0  0  0  0  0  0  0  0  0
   22.0929  -19.7717  -12.8907 C   0  0  0  0  0  0  0  0  0  0  0  0
   20.8019  -20.8796  -11.2579 O   0  0  0  0  0  0  0  0  0  0  0  0
   19.9051  -19.8061  -11.3595 O   0  0  0  0  0  0  0  0  0  0  0  0
  2  1  1  6
  2  3  1  0
  3  4  1  0
  4  8  1  0
  5  4  2  0
  6  2  1  0
  7  6  2  0
  9 10  1  0
 10 12  1  0
 11 10  2  0
 12 13  1  0
 13 14  1  0
 14 15  1  0
 16 15  1  6
 16 17  1  0
 17  6  1  0
 18 19  2  0
 18 16  1  0
 21 20  1  0
 21 22  1  0
 22 24  1  0
 22 23  1  6
 24 25  1  1
 25 18  1  0
 26 24  1  0
 27 26  1  0
 28 26  2  0
M  END
$$$$
