DRI.pdb
     RDKit          3D

 28 27  0  0  1  0  0  0  0  0999 V2000
   19.6153  -20.3649  -14.3246 N   0  0  0  0  0  0  0  0  0  0  0  0
   19.9487  -20.4770  -12.9122 C   0  0  1  0  0  0  0  0  0  0  0  0
   18.8328  -21.1133  -12.1427 C   0  0  0  0  0  0  0  0  0  0  0  0
   17.5546  -20.3608  -12.2409 C   0  0  0  0  0  0  0  0  0  0  0  0
   16.4999  -20.6548  -11.6401 O   0  0  0  0  0  0  0  0  0  0  0  0
   21.2256  -21.2241  -12.7282 C   0  0  0  0  0  0  0  0  0  0  0  0
   21.5160  -21.7952  -11.6566 O   0  0  0  0  0  0  0  0  0  0  0  0
   17.5287  -19.2279  -13.0761 O   0  0  0  0  0  0  0  0  0  0  0  0
   27.1724  -25.3892  -16.0699 N   0  0  0  0  0  0  0  0  0  0  0  0
   25.8278  -25.3804  -16.5547 C   0  0  0  0  0  0  0  0  0  0  0  0
   25.1176  -26.4637  -16.6751 N   0  0  0  0  0  0  0  0  0  0  0  0
   25.2393  -24.1374  -16.9250 N   0  0  0  0  0  0  0  0  0  0  0  0
   25.8171  -22.8995  -16.4511 C   0  0  0  0  0  0  0  0  0  0  0  0
   25.4520  -22.6827  -14.9704 C   0  0  0  0  0  0  0  0  0  0  0  0
   24.0367  -22.2130  -14.9760 C   0  0  0  0  0  0  0  0  0  0  0  0
   23.4527  -21.9780  -13.6155 C   0  0  2  0  0  0  0  0  0  0  0  0
   22.1805  -21.3117  -13.7962 N   0  0  0  0  0  0  0  0  0  0  0  0
   24.3305  -20.9638  -12.9105 C   0  0  0  0  0  0  0  0  0  0  0  0
   24.2794  -19.7347  -13.1617 O   0  0  0  0  0  0  0  0  0  0  0  0
   24.1445  -26.4013  -17.0417 C   0  0  0  0  0  0  0  0  0  0  0  0
   26.4301  -19.8033   -7.5241 C   0  0  0  0  0  0  0  0  0  0  0  0
   26.7209  -19.6531   -9.0182 C   0  0  2  0  0  0  0  0  0  0  0  0
   25.8873  -20.6152   -9.7931 C   0  0  0  0  0  0  0  0  0  0  0  0
   26.0397  -22.0408   -9.3661 C   0  0  2  0  0  0  0  0  0  0  0  0
   26.1717  -20.4798  -11.2664 N   0  0  0  0  0  0  0  0  0  0  0  0
   25.2444  -21.4146  -11.9310 C   0  0  0  0  0  0  0  0  0  0  0  0
   27.5261  -20.8794  -11.6709 O   0  0  0  0  0  0  0  0  0  0  0  0
   27.8074  -22.1188  -12.2642 O   0  0  0  0  0  0  0  0  0  0  0  0
  2  1  1  6
  2  3  1  0
  3  4  1  0
  4  8  1  0
  5  4  2  0
  6  2  1  0
  7  6  2  0
  9 10  1  0
 10 12  1  0
 11 10  2  0
 12 13  1  0
 13 14  1  0
 14 15  1  0
 16 15  1  6
 16 17  1  0
 17  6  1  0
 18 19  2  0
 18 16  1  0
 21 20  1  0
 21 22  1  0
 22 24  1  0
 22 23  1  6
 24 25  1  6
 25 18  1  0
 26 24  1  0
 27 26  1  0
 28 26  2  0
M  END
$$$$
