DRI.pdb
     RDKit          3D

 28 27  0  0  1  0  0  0  0  0999 V2000
   23.6660  -11.6788  -15.5313 N   0  0  0  0  0  0  0  0  0  0  0  0
   24.3270  -10.7636  -16.4501 C   0  0  1  0  0  0  0  0  0  0  0  0
   24.8424  -11.4871  -17.6557 C   0  0  0  0  0  0  0  0  0  0  0  0
   25.8714  -12.5079  -17.3264 C   0  0  0  0  0  0  0  0  0  0  0  0
   26.3255  -12.7277  -16.1838 O   0  0  0  0  0  0  0  0  0  0  0  0
   23.4125   -9.6520  -16.8379 C   0  0  0  0  0  0  0  0  0  0  0  0
   23.7547   -8.7538  -17.6348 O   0  0  0  0  0  0  0  0  0  0  0  0
   26.3752  -13.2890  -18.3836 O   0  0  0  0  0  0  0  0  0  0  0  0
   16.7645  -11.9907  -19.2691 N   0  0  0  0  0  0  0  0  0  0  0  0
   17.3063  -12.3363  -17.9924 C   0  0  0  0  0  0  0  0  0  0  0  0
   17.3668  -13.5632  -17.5639 N   0  0  0  0  0  0  0  0  0  0  0  0
   17.7982  -11.2977  -17.1510 N   0  0  0  0  0  0  0  0  0  0  0  0
   17.7712   -9.9271  -17.6110 C   0  0  0  0  0  0  0  0  0  0  0  0
   19.2024   -9.4490  -17.9208 C   0  0  0  0  0  0  0  0  0  0  0  0
   19.7848   -9.0625  -16.6035 C   0  0  0  0  0  0  0  0  0  0  0  0
   21.1780   -8.5136  -16.6751 C   0  0  2  0  0  0  0  0  0  0  0  0
   22.0852   -9.5761  -16.2970 N   0  0  0  0  0  0  0  0  0  0  0  0
   21.3155   -7.4726  -15.5826 C   0  0  0  0  0  0  0  0  0  0  0  0
   21.4427   -7.7765  -14.3711 O   0  0  0  0  0  0  0  0  0  0  0  0
   17.7848  -13.7607  -16.6304 C   0  0  0  0  0  0  0  0  0  0  0  0
   24.4080   -3.3680  -16.4706 C   0  0  0  0  0  0  0  0  0  0  0  0
   23.5685   -4.4768  -15.8340 C   0  0  2  0  0  0  0  0  0  0  0  0
   22.2103   -3.9569  -15.5086 C   0  0  0  0  0  0  0  0  0  0  0  0
   22.2111   -2.7550  -14.6178 C   0  0  2  0  0  0  0  0  0  0  0  0
   21.3658   -5.0500  -14.9072 N   0  0  0  0  0  0  0  0  0  0  0  0
   21.3002   -6.1042  -15.9367 C   0  0  0  0  0  0  0  0  0  0  0  0
   19.9781   -4.6660  -14.6161 O   0  0  0  0  0  0  0  0  0  0  0  0
   19.5348   -4.3385  -13.3265 O   0  0  0  0  0  0  0  0  0  0  0  0
  2  1  1  1
  2  3  1  0
  3  4  1  0
  4  8  1  0
  5  4  2  0
  6  2  1  0
  7  6  2  0
  9 10  1  0
 10 12  1  0
 11 10  2  0
 12 13  1  0
 13 14  1  0
 14 15  1  0
 16 15  1  1
 16 17  1  0
 17  6  1  0
 18 19  2  0
 18 16  1  0
 21 20  1  0
 21 22  1  0
 22 24  1  0
 22 23  1  6
 24 25  1  1
 25 18  1  0
 26 24  1  0
 27 26  1  0
 28 26  2  0
M  END
$$$$
