DRI.pdb
     RDKit          3D

 28 27  0  0  1  0  0  0  0  0999 V2000
   20.3139  -18.9791  -14.3007 N   0  0  0  0  0  0  0  0  0  0  0  0
   21.1939  -19.4008  -15.3807 C   0  0  1  0  0  0  0  0  0  0  0  0
   20.9131  -18.6351  -16.6365 C   0  0  0  0  0  0  0  0  0  0  0  0
   19.5753  -18.9319  -17.2125 C   0  0  0  0  0  0  0  0  0  0  0  0
   18.9825  -20.0277  -17.1251 O   0  0  0  0  0  0  0  0  0  0  0  0
   22.6236  -19.2718  -14.9784 C   0  0  0  0  0  0  0  0  0  0  0  0
   23.1066  -18.1963  -14.5675 O   0  0  0  0  0  0  0  0  0  0  0  0
   18.9239  -17.8984  -17.9120 O   0  0  0  0  0  0  0  0  0  0  0  0
   23.5420  -20.9406   -9.8326 N   0  0  0  0  0  0  0  0  0  0  0  0
   24.8241  -20.8879   -9.2031 C   0  0  0  0  0  0  0  0  0  0  0  0
   25.0026  -20.3925   -8.0134 N   0  0  0  0  0  0  0  0  0  0  0  0
   25.9553  -21.3943   -9.9050 N   0  0  0  0  0  0  0  0  0  0  0  0
   25.7981  -21.9019  -11.2497 C   0  0  0  0  0  0  0  0  0  0  0  0
   25.7073  -20.7306  -12.2459 C   0  0  0  0  0  0  0  0  0  0  0  0
   25.0214  -21.2853  -13.4482 C   0  0  0  0  0  0  0  0  0  0  0  0
   24.8744  -20.3176  -14.5838 C   0  0  2  0  0  0  0  0  0  0  0  0
   23.5076  -20.4001  -15.0529 N   0  0  0  0  0  0  0  0  0  0  0  0
   25.7161  -20.8320  -15.7341 C   0  0  0  0  0  0  0  0  0  0  0  0
   25.3835  -21.8275  -16.4230 O   0  0  0  0  0  0  0  0  0  0  0  0
   25.9451  -20.4430   -7.5726 C   0  0  0  0  0  0  0  0  0  0  0  0
   29.0050  -17.2319  -18.1809 C   0  0  0  0  0  0  0  0  0  0  0  0
   28.0421  -18.3976  -17.9497 C   0  0  2  0  0  0  0  0  0  0  0  0
   28.7845  -19.5604  -17.3860 C   0  0  0  0  0  0  0  0  0  0  0  0
   29.9075  -20.0463  -18.2466 C   0  0  2  0  0  0  0  0  0  0  0  0
   27.8324  -20.6888  -17.0862 N   0  0  0  0  0  0  0  0  0  0  0  0
   26.9241  -20.1682  -16.0472 C   0  0  0  0  0  0  0  0  0  0  0  0
   28.4612  -21.8916  -16.5243 O   0  0  0  0  0  0  0  0  0  0  0  0
   28.8270  -21.9979  -15.1745 O   0  0  0  0  0  0  0  0  0  0  0  0
  2  1  1  1
  2  3  1  0
  3  4  1  0
  4  8  1  0
  5  4  2  0
  6  2  1  0
  7  6  2  0
  9 10  1  0
 10 12  1  0
 11 10  2  0
 12 13  1  0
 13 14  1  0
 14 15  1  0
 16 15  1  1
 16 17  1  0
 17  6  1  0
 18 19  2  0
 18 16  1  0
 21 20  1  0
 21 22  1  0
 22 24  1  0
 22 23  1  1
 24 25  1  6
 25 18  1  0
 26 24  1  0
 27 26  1  0
 28 26  2  0
M  END
$$$$
