DRI.pdb
     RDKit          3D

 28 27  0  0  1  0  0  0  0  0999 V2000
   26.5981  -21.4212  -10.0075 N   0  0  0  0  0  0  0  0  0  0  0  0
   25.3209  -21.0727  -10.6125 C   0  0  1  0  0  0  0  0  0  0  0  0
   24.5030  -20.2189   -9.6935 C   0  0  0  0  0  0  0  0  0  0  0  0
   24.2080  -20.8785   -8.3945 C   0  0  0  0  0  0  0  0  0  0  0  0
   24.5706  -22.0302   -8.0749 O   0  0  0  0  0  0  0  0  0  0  0  0
   25.5246  -20.4056  -11.9301 C   0  0  0  0  0  0  0  0  0  0  0  0
   26.5885  -19.8230  -12.2255 O   0  0  0  0  0  0  0  0  0  0  0  0
   23.4614  -20.1500   -7.4492 O   0  0  0  0  0  0  0  0  0  0  0  0
   27.2480  -21.6215  -18.9276 N   0  0  0  0  0  0  0  0  0  0  0  0
   28.2268  -22.2180  -18.0738 C   0  0  0  0  0  0  0  0  0  0  0  0
   29.4895  -22.2712  -18.3827 N   0  0  0  0  0  0  0  0  0  0  0  0
   27.8062  -22.7810  -16.8349 N   0  0  0  0  0  0  0  0  0  0  0  0
   26.3958  -22.8729  -16.5298 C   0  0  0  0  0  0  0  0  0  0  0  0
   25.8267  -21.4693  -16.2491 C   0  0  0  0  0  0  0  0  0  0  0  0
   25.5148  -21.4526  -14.7910 C   0  0  0  0  0  0  0  0  0  0  0  0
   24.7817  -20.2309  -14.3245 C   0  0  2  0  0  0  0  0  0  0  0  0
   24.4846  -20.4107  -12.9194 N   0  0  0  0  0  0  0  0  0  0  0  0
   23.4317  -20.2177  -15.0127 C   0  0  0  0  0  0  0  0  0  0  0  0
   22.5508  -21.0841  -14.7902 O   0  0  0  0  0  0  0  0  0  0  0  0
   30.1478  -22.7896  -17.7639 C   0  0  0  0  0  0  0  0  0  0  0  0
   20.0101  -16.8998  -18.3078 C   0  0  0  0  0  0  0  0  0  0  0  0
   20.6219  -16.6621  -16.9262 C   0  0  1  0  0  0  0  0  0  0  0  0
   21.9367  -17.3572  -16.8308 C   0  0  0  0  0  0  0  0  0  0  0  0
   22.6148  -17.5696  -18.1472 C   0  0  2  0  0  0  0  0  0  0  0  0
   21.7792  -18.6699  -16.1085 N   0  0  0  0  0  0  0  0  0  0  0  0
   23.1488  -19.1915  -15.9427 C   0  0  0  0  0  0  0  0  0  0  0  0
   21.0310  -19.6941  -16.8495 O   0  0  0  0  0  0  0  0  0  0  0  0
   19.6674  -19.9429  -16.6352 O   0  0  0  0  0  0  0  0  0  0  0  0
  2  1  1  1
  2  3  1  0
  3  4  1  0
  4  8  1  0
  5  4  2  0
  6  2  1  0
  7  6  2  0
  9 10  1  0
 10 12  1  0
 11 10  2  0
 12 13  1  0
 13 14  1  0
 14 15  1  0
 16 15  1  6
 16 17  1  0
 17  6  1  0
 18 19  2  0
 18 16  1  0
 21 20  1  0
 21 22  1  0
 22 24  1  0
 22 23  1  6
 24 25  1  6
 25 18  1  0
 26 24  1  0
 27 26  1  0
 28 26  2  0
M  END
$$$$
