DRI.pdb
     RDKit          3D

 28 27  0  0  1  0  0  0  0  0999 V2000
   27.0050  -20.5627  -17.9761 N   0  0  0  0  0  0  0  0  0  0  0  0
   27.1292  -19.7201  -16.7958 C   0  0  1  0  0  0  0  0  0  0  0  0
   26.0880  -18.6439  -16.7884 C   0  0  0  0  0  0  0  0  0  0  0  0
   26.2489  -17.6704  -17.9001 C   0  0  0  0  0  0  0  0  0  0  0  0
   27.3362  -17.1878  -18.2807 O   0  0  0  0  0  0  0  0  0  0  0  0
   27.0667  -20.5398  -15.5522 C   0  0  0  0  0  0  0  0  0  0  0  0
   26.2105  -21.4327  -15.3839 O   0  0  0  0  0  0  0  0  0  0  0  0
   25.0861  -17.2586  -18.5783 O   0  0  0  0  0  0  0  0  0  0  0  0
   33.4950  -21.4609  -10.1588 N   0  0  0  0  0  0  0  0  0  0  0  0
   32.9382  -22.3666  -11.1141 C   0  0  0  0  0  0  0  0  0  0  0  0
   33.6533  -23.2560  -11.7386 N   0  0  0  0  0  0  0  0  0  0  0  0
   31.5445  -22.2934  -11.3989 N   0  0  0  0  0  0  0  0  0  0  0  0
   30.7149  -21.3460  -10.6883 C   0  0  0  0  0  0  0  0  0  0  0  0
   29.2528  -21.4743  -11.1556 C   0  0  0  0  0  0  0  0  0  0  0  0
   29.2319  -20.9321  -12.5447 C   0  0  0  0  0  0  0  0  0  0  0  0
   27.9098  -21.0530  -13.2410 C   0  0  2  0  0  0  0  0  0  0  0  0
   28.0054  -20.3243  -14.4879 N   0  0  0  0  0  0  0  0  0  0  0  0
   26.8892  -20.2922  -12.4188 C   0  0  0  0  0  0  0  0  0  0  0  0
   26.9071  -19.0418  -12.3075 O   0  0  0  0  0  0  0  0  0  0  0  0
   33.2022  -23.8717  -12.4475 C   0  0  0  0  0  0  0  0  0  0  0  0
   21.1857  -19.8318  -11.9308 C   0  0  0  0  0  0  0  0  0  0  0  0
   22.4479  -19.7653  -11.0695 C   0  0  2  0  0  0  0  0  0  0  0  0
   23.5854  -20.4012  -11.7925 C   0  0  0  0  0  0  0  0  0  0  0  0
   23.3323  -21.8150  -12.2110 C   0  0  2  0  0  0  0  0  0  0  0  0
   24.8393  -20.3209  -10.9613 N   0  0  0  0  0  0  0  0  0  0  0  0
   25.8756  -21.0145  -11.7490 C   0  0  0  0  0  0  0  0  0  0  0  0
   24.7660  -21.0144   -9.6684 O   0  0  0  0  0  0  0  0  0  0  0  0
   25.3749  -22.2565   -9.4367 O   0  0  0  0  0  0  0  0  0  0  0  0
  2  1  1  6
  2  3  1  0
  3  4  1  0
  4  8  1  0
  5  4  2  0
  6  2  1  0
  7  6  2  0
  9 10  1  0
 10 12  1  0
 11 10  2  0
 12 13  1  0
 13 14  1  0
 14 15  1  0
 16 15  1  1
 16 17  1  0
 17  6  1  0
 18 19  2  0
 18 16  1  0
 21 20  1  0
 21 22  1  0
 22 24  1  0
 22 23  1  6
 24 25  1  1
 25 18  1  0
 26 24  1  0
 27 26  1  0
 28 26  2  0
M  END
$$$$
