DRI.pdb
     RDKit          3D

 28 27  0  0  1  0  0  0  0  0999 V2000
   27.2280  -21.0882  -17.9155 N   0  0  0  0  0  0  0  0  0  0  0  0
   26.8502  -20.1615  -16.8585 C   0  0  1  0  0  0  0  0  0  0  0  0
   26.1204  -18.9776  -17.4135 C   0  0  0  0  0  0  0  0  0  0  0  0
   26.9819  -18.1032  -18.2520 C   0  0  0  0  0  0  0  0  0  0  0  0
   28.1877  -18.3106  -18.5028 O   0  0  0  0  0  0  0  0  0  0  0  0
   26.0416  -20.8525  -15.8139 C   0  0  0  0  0  0  0  0  0  0  0  0
   25.2784  -21.8036  -16.0815 O   0  0  0  0  0  0  0  0  0  0  0  0
   26.3947  -16.9507  -18.8075 O   0  0  0  0  0  0  0  0  0  0  0  0
   23.0879  -20.0522   -9.2143 N   0  0  0  0  0  0  0  0  0  0  0  0
   23.8015  -20.8244   -8.2460 C   0  0  0  0  0  0  0  0  0  0  0  0
   23.2467  -21.2731   -7.1582 N   0  0  0  0  0  0  0  0  0  0  0  0
   25.1769  -21.1137   -8.4765 N   0  0  0  0  0  0  0  0  0  0  0  0
   25.8201  -20.6341   -9.6794 C   0  0  0  0  0  0  0  0  0  0  0  0
   25.0776  -21.1662  -10.9197 C   0  0  0  0  0  0  0  0  0  0  0  0
   25.8641  -20.6817  -12.0904 C   0  0  0  0  0  0  0  0  0  0  0  0
   25.2909  -21.0557  -13.4241 C   0  0  2  0  0  0  0  0  0  0  0  0
   26.1149  -20.4384  -14.4415 N   0  0  0  0  0  0  0  0  0  0  0  0
   23.9411  -20.3780  -13.5475 C   0  0  0  0  0  0  0  0  0  0  0  0
   23.7969  -19.1350  -13.4459 O   0  0  0  0  0  0  0  0  0  0  0  0
   23.8203  -21.8079   -6.4725 C   0  0  0  0  0  0  0  0  0  0  0  0
   21.0542  -20.3642  -17.5668 C   0  0  0  0  0  0  0  0  0  0  0  0
   21.6344  -20.0820  -16.1800 C   0  0  2  0  0  0  0  0  0  0  0  0
   20.8844  -20.8583  -15.1524 C   0  0  0  0  0  0  0  0  0  0  0  0
   19.4071  -20.6231  -15.1638 C   0  0  2  0  0  0  0  0  0  0  0  0
   21.4450  -20.5825  -13.7815 N   0  0  0  0  0  0  0  0  0  0  0  0
   22.7968  -21.1726  -13.7861 C   0  0  0  0  0  0  0  0  0  0  0  0
   20.7157  -21.2222  -12.6784 O   0  0  0  0  0  0  0  0  0  0  0  0
   19.8392  -20.5198  -11.8386 O   0  0  0  0  0  0  0  0  0  0  0  0
  2  1  1  6
  2  3  1  0
  3  4  1  0
  4  8  1  0
  5  4  2  0
  6  2  1  0
  7  6  2  0
  9 10  1  0
 10 12  1  0
 11 10  2  0
 12 13  1  0
 13 14  1  0
 14 15  1  0
 16 15  1  1
 16 17  1  0
 17  6  1  0
 18 19  2  0
 18 16  1  0
 21 20  1  0
 21 22  1  0
 22 24  1  0
 22 23  1  1
 24 25  1  1
 25 18  1  0
 26 24  1  0
 27 26  1  0
 28 26  2  0
M  END
$$$$
