DRI.pdb
     RDKit          3D

 28 27  0  0  1  0  0  0  0  0999 V2000
   20.9916  -19.4956  -16.9669 N   0  0  0  0  0  0  0  0  0  0  0  0
   21.9823  -18.7461  -16.2084 C   0  0  1  0  0  0  0  0  0  0  0  0
   21.3337  -17.9205  -15.1406 C   0  0  0  0  0  0  0  0  0  0  0  0
   20.5791  -16.7592  -15.6804 C   0  0  0  0  0  0  0  0  0  0  0  0
   20.4983  -16.4539  -16.8888 O   0  0  0  0  0  0  0  0  0  0  0  0
   23.0103  -19.6602  -15.6338 C   0  0  0  0  0  0  0  0  0  0  0  0
   22.7164  -20.5856  -14.8490 O   0  0  0  0  0  0  0  0  0  0  0  0
   19.9019  -15.9379  -14.7593 O   0  0  0  0  0  0  0  0  0  0  0  0
   29.8188  -23.0925  -16.6087 N   0  0  0  0  0  0  0  0  0  0  0  0
   29.3464  -22.4442  -17.7917 C   0  0  0  0  0  0  0  0  0  0  0  0
   29.1901  -23.0705  -18.9212 N   0  0  0  0  0  0  0  0  0  0  0  0
   29.0361  -21.0551  -17.7364 N   0  0  0  0  0  0  0  0  0  0  0  0
   29.0641  -20.3628  -16.4673 C   0  0  0  0  0  0  0  0  0  0  0  0
   27.8788  -20.8174  -15.5950 C   0  0  0  0  0  0  0  0  0  0  0  0
   26.6856  -20.1174  -16.1519 C   0  0  0  0  0  0  0  0  0  0  0  0
   25.4117  -20.3638  -15.4010 C   0  0  2  0  0  0  0  0  0  0  0  0
   24.3969  -19.5022  -15.9694 N   0  0  0  0  0  0  0  0  0  0  0  0
   25.6098  -19.8571  -13.9867 C   0  0  0  0  0  0  0  0  0  0  0  0
   25.6887  -18.6348  -13.7112 O   0  0  0  0  0  0  0  0  0  0  0  0
   28.7767  -22.5673  -19.7342 C   0  0  0  0  0  0  0  0  0  0  0  0
   22.5156  -20.9728  -10.2810 C   0  0  0  0  0  0  0  0  0  0  0  0
   23.6364  -20.3483  -11.1135 C   0  0  2  0  0  0  0  0  0  0  0  0
   24.9509  -20.9079  -10.6896 C   0  0  0  0  0  0  0  0  0  0  0  0
   25.2770  -20.6819   -9.2472 C   0  0  2  0  0  0  0  0  0  0  0  0
   26.0522  -20.3663  -11.5634 N   0  0  0  0  0  0  0  0  0  0  0  0
   25.7104  -20.7939  -12.9330 C   0  0  0  0  0  0  0  0  0  0  0  0
   27.3870  -20.9099  -11.2790 O   0  0  0  0  0  0  0  0  0  0  0  0
   27.9076  -22.0315  -11.9408 O   0  0  0  0  0  0  0  0  0  0  0  0
  2  1  1  1
  2  3  1  0
  3  4  1  0
  4  8  1  0
  5  4  2  0
  6  2  1  0
  7  6  2  0
  9 10  1  0
 10 12  1  0
 11 10  2  0
 12 13  1  0
 13 14  1  0
 14 15  1  0
 16 15  1  6
 16 17  1  0
 17  6  1  0
 18 19  2  0
 18 16  1  0
 21 20  1  0
 21 22  1  0
 22 24  1  0
 22 23  1  6
 24 25  1  6
 25 18  1  0
 26 24  1  0
 27 26  1  0
 28 26  2  0
M  END
$$$$
