AHF.pdb
     RDKit          3D

 27 28  0  0  1  0  0  0  0  0999 V2000
    8.3478  -11.9788   20.1777 C   0  0  0  0  0  0  0  0  0  0  0  0
    8.5130  -13.2721   19.3683 C   0  0  2  0  0  0  0  0  0  0  0  0
    7.5129  -13.2313   18.3240 N   0  0  0  0  0  0  0  0  0  0  0  0
    8.1243  -14.3761   20.3010 C   0  0  0  0  0  0  0  0  0  0  0  0
    6.9502  -14.8258   20.3651 O   0  0  0  0  0  0  0  0  0  0  0  0
    9.1539  -14.9011   21.1221 N   0  0  0  0  0  0  0  0  0  0  0  0
    8.9195  -16.1825   21.8623 C   0  0  1  0  0  0  0  0  0  0  0  0
    9.6634  -17.2627   21.1572 C   0  0  0  0  0  0  0  0  0  0  0  0
    9.5028  -18.5641   21.8038 C   0  0  0  0  0  0  0  0  0  0  0  0
    8.4066  -19.3986   21.8876 C   0  0  0  0  0  0  0  0  0  0  0  0
    8.6879  -20.4840   22.6239 N   0  0  0  0  0  0  0  0  0  0  0  0
    9.9673  -20.3519   23.0169 C   0  0  0  0  0  0  0  0  0  0  0  0
   10.4660  -19.2061   22.5320 N   0  0  0  0  0  0  0  0  0  0  0  0
    9.2688  -15.8876   23.2390 C   0  0  0  0  0  0  0  0  0  0  0  0
   10.3470  -15.2171   23.4646 O   0  0  0  0  0  0  0  0  0  0  0  0
    8.4683  -16.3005   24.3357 N   0  0  0  0  0  0  0  0  0  0  0  0
    8.9571  -16.0548   25.7019 C   0  0  1  0  0  0  0  0  0  0  0  0
    7.7813  -15.6493   26.5780 C   0  0  0  0  0  0  0  0  0  0  0  0
    7.3290  -14.2682   26.3715 C   0  0  0  0  0  0  0  0  0  0  0  0
    8.1527  -13.2348   26.8304 C   0  0  0  0  0  0  0  0  0  0  0  0
    7.8168  -11.9138   26.6692 C   0  0  0  0  0  0  0  0  0  0  0  0
    6.6431  -11.5925   26.0419 C   0  0  0  0  0  0  0  0  0  0  0  0
    5.8012  -12.5735   25.5740 C   0  0  0  0  0  0  0  0  0  0  0  0
    6.1695  -13.8794   25.7529 C   0  0  0  0  0  0  0  0  0  0  0  0
    9.6506  -17.2028   26.2505 C   0  0  0  0  0  0  0  0  0  0  0  0
   10.2461  -17.2351   27.3424 O   0  0  0  0  0  0  0  0  0  0  0  0
    9.6685  -18.3943   25.5119 O   0  0  0  0  0  0  0  0  0  0  0  0
  2  1  1  1
  2  3  1  0
  4  2  1  0
  5  4  2  0
  6  4  1  0
  7  6  1  0
  7  8  1  6
  9  8  1  0
 10  9  2  0
 11 10  1  0
 12 11  1  0
 12 13  2  0
 13  9  1  0
 14 15  2  0
 14  7  1  0
 16 14  1  0
 17 16  1  0
 17 18  1  1
 18 19  1  0
 19 24  1  0
 19 20  2  0
 20 21  1  0
 21 22  2  0
 23 22  1  0
 24 23  2  0
 25 17  1  0
 26 25  2  0
 27 25  1  0
M  END
$$$$
