AHF.pdb
     RDKit          3D

 27 28  0  0  1  0  0  0  0  0999 V2000
    7.8867  -12.1304   19.7243 C   0  0  0  0  0  0  0  0  0  0  0  0
    8.4344  -13.3930   19.0452 C   0  0  2  0  0  0  0  0  0  0  0  0
    7.5411  -13.6860   17.9459 N   0  0  0  0  0  0  0  0  0  0  0  0
    8.2638  -14.4893   20.0495 C   0  0  0  0  0  0  0  0  0  0  0  0
    7.2576  -14.5672   20.8021 O   0  0  0  0  0  0  0  0  0  0  0  0
    9.3026  -15.4518   20.1164 N   0  0  0  0  0  0  0  0  0  0  0  0
    9.1748  -16.6036   21.0661 C   0  0  1  0  0  0  0  0  0  0  0  0
    9.7746  -17.8023   20.4174 C   0  0  0  0  0  0  0  0  0  0  0  0
    9.7313  -18.9829   21.2787 C   0  0  0  0  0  0  0  0  0  0  0  0
    9.2756  -19.1372   22.5723 C   0  0  0  0  0  0  0  0  0  0  0  0
    9.4703  -20.3936   23.0004 N   0  0  0  0  0  0  0  0  0  0  0  0
   10.0524  -21.0528   21.9830 C   0  0  0  0  0  0  0  0  0  0  0  0
   10.2140  -20.2185   20.9463 N   0  0  0  0  0  0  0  0  0  0  0  0
    9.7523  -16.1285   22.3090 C   0  0  0  0  0  0  0  0  0  0  0  0
   10.7559  -15.3211   22.2461 O   0  0  0  0  0  0  0  0  0  0  0  0
    9.2508  -16.5112   23.5802 N   0  0  0  0  0  0  0  0  0  0  0  0
    9.8905  -15.9656   24.7880 C   0  0  1  0  0  0  0  0  0  0  0  0
    8.8068  -15.5241   25.7603 C   0  0  0  0  0  0  0  0  0  0  0  0
    9.3200  -14.8974   26.9845 C   0  0  0  0  0  0  0  0  0  0  0  0
    9.6906  -15.7347   28.0419 C   0  0  0  0  0  0  0  0  0  0  0  0
   10.1924  -15.2378   29.2188 C   0  0  0  0  0  0  0  0  0  0  0  0
   10.3364  -13.8844   29.3676 C   0  0  0  0  0  0  0  0  0  0  0  0
    9.9857  -13.0219   28.3561 C   0  0  0  0  0  0  0  0  0  0  0  0
    9.4889  -13.5541   27.1972 C   0  0  0  0  0  0  0  0  0  0  0  0
   10.7958  -16.9142   25.4047 C   0  0  0  0  0  0  0  0  0  0  0  0
   10.5366  -18.1050   25.6548 O   0  0  0  0  0  0  0  0  0  0  0  0
   12.0819  -16.4837   25.7599 O   0  0  0  0  0  0  0  0  0  0  0  0
  2  1  1  1
  2  3  1  0
  4  2  1  0
  5  4  2  0
  6  4  1  0
  7  6  1  0
  7  8  1  6
  9  8  1  0
 10  9  2  0
 11 10  1  0
 12 11  1  0
 12 13  2  0
 13  9  1  0
 14 15  2  0
 14  7  1  0
 16 14  1  0
 17 16  1  0
 17 18  1  1
 18 19  1  0
 19 24  1  0
 19 20  2  0
 20 21  1  0
 21 22  2  0
 23 22  1  0
 24 23  2  0
 25 17  1  0
 26 25  2  0
 27 25  1  0
M  END
$$$$
