AHF.pdb
     RDKit          3D

 27 28  0  0  1  0  0  0  0  0999 V2000
    5.6069  -19.1724   24.9720 C   0  0  0  0  0  0  0  0  0  0  0  0
    5.6684  -19.3520   23.4492 C   0  0  2  0  0  0  0  0  0  0  0  0
    6.1725  -20.6875   23.2152 N   0  0  0  0  0  0  0  0  0  0  0  0
    6.7230  -18.3997   22.9796 C   0  0  0  0  0  0  0  0  0  0  0  0
    7.9444  -18.7031   22.9505 O   0  0  0  0  0  0  0  0  0  0  0  0
    6.2778  -17.1199   22.5624 N   0  0  0  0  0  0  0  0  0  0  0  0
    7.2830  -16.1065   22.1072 C   0  0  1  0  0  0  0  0  0  0  0  0
    6.6240  -15.2241   21.1051 C   0  0  0  0  0  0  0  0  0  0  0  0
    7.5889  -14.5122   20.2686 C   0  0  0  0  0  0  0  0  0  0  0  0
    8.9624  -14.4144   20.3628 C   0  0  0  0  0  0  0  0  0  0  0  0
    9.4508  -13.6121   19.4050 N   0  0  0  0  0  0  0  0  0  0  0  0
    8.3924  -13.1904   18.6904 C   0  0  0  0  0  0  0  0  0  0  0  0
    7.2718  -13.7227   19.1979 N   0  0  0  0  0  0  0  0  0  0  0  0
    7.7894  -15.5086   23.3280 C   0  0  0  0  0  0  0  0  0  0  0  0
    7.1199  -14.5416   23.8569 O   0  0  0  0  0  0  0  0  0  0  0  0
    8.9806  -15.9520   23.9592 N   0  0  0  0  0  0  0  0  0  0  0  0
    9.3711  -15.3453   25.2417 C   0  0  1  0  0  0  0  0  0  0  0  0
    8.2377  -15.5341   26.2390 C   0  0  0  0  0  0  0  0  0  0  0  0
    7.4645  -14.3149   26.5044 C   0  0  0  0  0  0  0  0  0  0  0  0
    6.0691  -14.4136   26.5094 C   0  0  0  0  0  0  0  0  0  0  0  0
    5.2663  -13.3291   26.7609 C   0  0  0  0  0  0  0  0  0  0  0  0
    5.8424  -12.1133   27.0148 C   0  0  0  0  0  0  0  0  0  0  0  0
    7.2094  -11.9674   27.0206 C   0  0  0  0  0  0  0  0  0  0  0  0
    7.9774  -13.0711   26.7656 C   0  0  0  0  0  0  0  0  0  0  0  0
   10.6145  -15.8894   25.7493 C   0  0  0  0  0  0  0  0  0  0  0  0
   11.2225  -15.4874   26.7576 O   0  0  0  0  0  0  0  0  0  0  0  0
   11.2070  -16.9623   25.0687 O   0  0  0  0  0  0  0  0  0  0  0  0
  2  1  1  1
  2  3  1  0
  4  2  1  0
  5  4  2  0
  6  4  1  0
  7  6  1  0
  7  8  1  6
  9  8  1  0
 10  9  2  0
 11 10  1  0
 12 11  1  0
 12 13  2  0
 13  9  1  0
 14 15  2  0
 14  7  1  0
 16 14  1  0
 17 16  1  0
 17 18  1  1
 18 19  1  0
 19 24  1  0
 19 20  2  0
 20 21  1  0
 21 22  2  0
 23 22  1  0
 24 23  2  0
 25 17  1  0
 26 25  2  0
 27 25  1  0
M  END
$$$$
