AHF.pdb
     RDKit          3D

 27 28  0  0  1  0  0  0  0  0999 V2000
    8.4616  -12.1948   19.7500 C   0  0  0  0  0  0  0  0  0  0  0  0
    8.6838  -13.6328   19.2622 C   0  0  2  0  0  0  0  0  0  0  0  0
    7.7104  -13.8651   18.2177 N   0  0  0  0  0  0  0  0  0  0  0  0
    8.3020  -14.5065   20.4158 C   0  0  0  0  0  0  0  0  0  0  0  0
    7.1510  -14.4901   20.9252 O   0  0  0  0  0  0  0  0  0  0  0  0
    9.3109  -15.3672   20.9172 N   0  0  0  0  0  0  0  0  0  0  0  0
    8.9555  -16.3858   21.9568 C   0  0  1  0  0  0  0  0  0  0  0  0
    9.2646  -17.7333   21.4039 C   0  0  0  0  0  0  0  0  0  0  0  0
    8.3311  -18.1320   20.3516 C   0  0  0  0  0  0  0  0  0  0  0  0
    6.9780  -18.3995   20.4026 C   0  0  0  0  0  0  0  0  0  0  0  0
    6.5212  -18.7815   19.2005 N   0  0  0  0  0  0  0  0  0  0  0  0
    7.5796  -18.7613   18.3710 C   0  0  0  0  0  0  0  0  0  0  0  0
    8.6692  -18.3738   19.0488 N   0  0  0  0  0  0  0  0  0  0  0  0
    9.6499  -15.9542   23.1551 C   0  0  0  0  0  0  0  0  0  0  0  0
   10.9077  -15.6839   23.0672 O   0  0  0  0  0  0  0  0  0  0  0  0
    8.9974  -15.8126   24.4073 N   0  0  0  0  0  0  0  0  0  0  0  0
    9.8147  -15.5953   25.6116 C   0  0  1  0  0  0  0  0  0  0  0  0
    9.8292  -14.1083   25.9329 C   0  0  0  0  0  0  0  0  0  0  0  0
    8.4982  -13.5310   26.1564 C   0  0  0  0  0  0  0  0  0  0  0  0
    7.6688  -13.3499   25.0445 C   0  0  0  0  0  0  0  0  0  0  0  0
    6.4041  -12.8294   25.1603 C   0  0  0  0  0  0  0  0  0  0  0  0
    5.9357  -12.4755   26.3972 C   0  0  0  0  0  0  0  0  0  0  0  0
    6.7142  -12.6350   27.5190 C   0  0  0  0  0  0  0  0  0  0  0  0
    7.9698  -13.1572   27.3644 C   0  0  0  0  0  0  0  0  0  0  0  0
    9.3447  -16.3728   26.7405 C   0  0  0  0  0  0  0  0  0  0  0  0
    8.3000  -17.0478   26.7700 O   0  0  0  0  0  0  0  0  0  0  0  0
   10.1119  -16.3870   27.9139 O   0  0  0  0  0  0  0  0  0  0  0  0
  2  1  1  1
  2  3  1  0
  4  2  1  0
  5  4  2  0
  6  4  1  0
  7  6  1  0
  7  8  1  6
  9  8  1  0
 10  9  2  0
 11 10  1  0
 12 11  1  0
 12 13  2  0
 13  9  1  0
 14 15  2  0
 14  7  1  0
 16 14  1  0
 17 16  1  0
 17 18  1  1
 18 19  1  0
 19 24  1  0
 19 20  2  0
 20 21  1  0
 21 22  2  0
 23 22  1  0
 24 23  2  0
 25 17  1  0
 26 25  2  0
 27 25  1  0
M  END
$$$$
