AHF.pdb
     RDKit          3D

 27 28  0  0  1  0  0  0  0  0999 V2000
    7.9411  -11.9392   20.0938 C   0  0  0  0  0  0  0  0  0  0  0  0
    8.3605  -13.1731   19.2834 C   0  0  2  0  0  0  0  0  0  0  0  0
    7.4094  -13.2933   18.2001 N   0  0  0  0  0  0  0  0  0  0  0  0
    8.1352  -14.3403   20.1926 C   0  0  0  0  0  0  0  0  0  0  0  0
    7.0555  -14.9874   20.2082 O   0  0  0  0  0  0  0  0  0  0  0  0
    9.2093  -14.6901   21.0493 N   0  0  0  0  0  0  0  0  0  0  0  0
    9.2207  -16.0413   21.6965 C   0  0  1  0  0  0  0  0  0  0  0  0
   10.2510  -16.8699   21.0114 C   0  0  0  0  0  0  0  0  0  0  0  0
   10.3472  -18.2165   21.5725 C   0  0  0  0  0  0  0  0  0  0  0  0
    9.7108  -18.7880   22.6557 C   0  0  0  0  0  0  0  0  0  0  0  0
   10.1333  -20.0465   22.8484 N   0  0  0  0  0  0  0  0  0  0  0  0
   11.0439  -20.2897   21.8890 C   0  0  0  0  0  0  0  0  0  0  0  0
   11.1806  -19.2012   21.1187 N   0  0  0  0  0  0  0  0  0  0  0  0
    9.3779  -15.7752   23.1137 C   0  0  0  0  0  0  0  0  0  0  0  0
   10.3282  -14.9863   23.4845 O   0  0  0  0  0  0  0  0  0  0  0  0
    8.5250  -16.3411   24.0968 N   0  0  0  0  0  0  0  0  0  0  0  0
    8.8538  -16.1453   25.5177 C   0  0  1  0  0  0  0  0  0  0  0  0
    7.5832  -15.7771   26.2691 C   0  0  0  0  0  0  0  0  0  0  0  0
    7.3020  -14.3367   26.2999 C   0  0  0  0  0  0  0  0  0  0  0  0
    8.2781  -13.4912   26.8376 C   0  0  0  0  0  0  0  0  0  0  0  0
    8.1070  -12.1306   26.8954 C   0  0  0  0  0  0  0  0  0  0  0  0
    6.9496  -11.5797   26.4144 C   0  0  0  0  0  0  0  0  0  0  0  0
    5.9618  -12.3703   25.8767 C   0  0  0  0  0  0  0  0  0  0  0  0
    6.1680  -13.7226   25.8360 C   0  0  0  0  0  0  0  0  0  0  0  0
    9.4895  -17.3107   26.0987 C   0  0  0  0  0  0  0  0  0  0  0  0
    9.5106  -18.4493   25.5975 O   0  0  0  0  0  0  0  0  0  0  0  0
   10.1466  -17.1753   27.3297 O   0  0  0  0  0  0  0  0  0  0  0  0
  2  1  1  1
  2  3  1  0
  4  2  1  0
  5  4  2  0
  6  4  1  0
  7  6  1  0
  7  8  1  6
  9  8  1  0
 10  9  2  0
 11 10  1  0
 12 11  1  0
 12 13  2  0
 13  9  1  0
 14 15  2  0
 14  7  1  0
 16 14  1  0
 17 16  1  0
 17 18  1  1
 18 19  1  0
 19 24  1  0
 19 20  2  0
 20 21  1  0
 21 22  2  0
 23 22  1  0
 24 23  2  0
 25 17  1  0
 26 25  2  0
 27 25  1  0
M  END
$$$$
