AHF.pdb
     RDKit          3D

 27 28  0  0  1  0  0  0  0  0999 V2000
    8.2670  -12.1041   20.6093 C   0  0  0  0  0  0  0  0  0  0  0  0
    8.5238  -13.3666   19.7754 C   0  0  2  0  0  0  0  0  0  0  0  0
    7.5027  -13.3945   18.7512 N   0  0  0  0  0  0  0  0  0  0  0  0
    8.2483  -14.5134   20.6967 C   0  0  0  0  0  0  0  0  0  0  0  0
    7.0942  -14.9893   20.8584 O   0  0  0  0  0  0  0  0  0  0  0  0
    9.3632  -15.0483   21.3902 N   0  0  0  0  0  0  0  0  0  0  0  0
    9.2135  -16.3412   22.1323 C   0  0  1  0  0  0  0  0  0  0  0  0
   10.1416  -17.3319   21.5203 C   0  0  0  0  0  0  0  0  0  0  0  0
    9.6253  -17.8794   20.2667 C   0  0  0  0  0  0  0  0  0  0  0  0
    9.9647  -17.6053   18.9573 C   0  0  0  0  0  0  0  0  0  0  0  0
    9.1991  -18.3075   18.1086 N   0  0  0  0  0  0  0  0  0  0  0  0
    8.3636  -19.0366   18.8694 C   0  0  0  0  0  0  0  0  0  0  0  0
    8.6092  -18.7888   20.1637 N   0  0  0  0  0  0  0  0  0  0  0  0
    9.3962  -15.9936   23.5287 C   0  0  0  0  0  0  0  0  0  0  0  0
   10.4228  -15.2828   23.8511 O   0  0  0  0  0  0  0  0  0  0  0  0
    8.4885  -16.3977   24.5419 N   0  0  0  0  0  0  0  0  0  0  0  0
    8.7893  -16.0542   25.9409 C   0  0  1  0  0  0  0  0  0  0  0  0
    7.5035  -15.6153   26.6256 C   0  0  0  0  0  0  0  0  0  0  0  0
    7.1571  -14.2065   26.4023 C   0  0  0  0  0  0  0  0  0  0  0  0
    5.9521  -13.9248   25.7500 C   0  0  0  0  0  0  0  0  0  0  0  0
    5.5410  -12.6374   25.5102 C   0  0  0  0  0  0  0  0  0  0  0  0
    6.3290  -11.5951   25.9190 C   0  0  0  0  0  0  0  0  0  0  0  0
    7.5217  -11.8226   26.5639 C   0  0  0  0  0  0  0  0  0  0  0  0
    7.8985  -13.1194   26.7855 C   0  0  0  0  0  0  0  0  0  0  0  0
    9.4161  -17.1504   26.6517 C   0  0  0  0  0  0  0  0  0  0  0  0
    9.8647  -17.0991   27.8110 O   0  0  0  0  0  0  0  0  0  0  0  0
    9.5409  -18.3879   26.0049 O   0  0  0  0  0  0  0  0  0  0  0  0
  2  1  1  1
  2  3  1  0
  4  2  1  0
  5  4  2  0
  6  4  1  0
  7  6  1  0
  7  8  1  6
  9  8  1  0
 10  9  2  0
 11 10  1  0
 12 11  1  0
 12 13  2  0
 13  9  1  0
 14 15  2  0
 14  7  1  0
 16 14  1  0
 17 16  1  0
 17 18  1  1
 18 19  1  0
 19 24  1  0
 19 20  2  0
 20 21  1  0
 21 22  2  0
 23 22  1  0
 24 23  2  0
 25 17  1  0
 26 25  2  0
 27 25  1  0
M  END
$$$$
