AHF.pdb
     RDKit          3D

 27 28  0  0  1  0  0  0  0  0999 V2000
   11.9990  -18.8125   20.9541 C   0  0  0  0  0  0  0  0  0  0  0  0
   11.3478  -17.7989   20.0035 C   0  0  2  0  0  0  0  0  0  0  0  0
   12.4249  -17.1943   19.2505 N   0  0  0  0  0  0  0  0  0  0  0  0
   10.7821  -16.7323   20.8878 C   0  0  0  0  0  0  0  0  0  0  0  0
   11.5090  -15.9415   21.5442 O   0  0  0  0  0  0  0  0  0  0  0  0
    9.3682  -16.6510   20.9541 N   0  0  0  0  0  0  0  0  0  0  0  0
    8.7335  -15.5400   21.7335 C   0  0  1  0  0  0  0  0  0  0  0  0
    7.4604  -15.1718   21.0545 C   0  0  0  0  0  0  0  0  0  0  0  0
    7.6804  -14.6161   19.7202 C   0  0  0  0  0  0  0  0  0  0  0  0
    8.1865  -13.3940   19.3262 C   0  0  0  0  0  0  0  0  0  0  0  0
    8.1692  -13.2784   17.9898 N   0  0  0  0  0  0  0  0  0  0  0  0
    7.6514  -14.4267   17.5186 C   0  0  0  0  0  0  0  0  0  0  0  0
    7.3548  -15.2358   18.5454 N   0  0  0  0  0  0  0  0  0  0  0  0
    8.6731  -16.0282   23.0981 C   0  0  0  0  0  0  0  0  0  0  0  0
    8.9534  -17.2681   23.3153 O   0  0  0  0  0  0  0  0  0  0  0  0
    8.3276  -15.1946   24.1934 N   0  0  0  0  0  0  0  0  0  0  0  0
    8.4962  -15.7140   25.5599 C   0  0  1  0  0  0  0  0  0  0  0  0
    8.8229  -14.5541   26.4887 C   0  0  0  0  0  0  0  0  0  0  0  0
    7.8090  -13.4927   26.5006 C   0  0  0  0  0  0  0  0  0  0  0  0
    7.7904  -12.5940   25.4287 C   0  0  0  0  0  0  0  0  0  0  0  0
    6.8703  -11.5787   25.3495 C   0  0  0  0  0  0  0  0  0  0  0  0
    5.9415  -11.4367   26.3454 C   0  0  0  0  0  0  0  0  0  0  0  0
    5.9204  -12.2957   27.4186 C   0  0  0  0  0  0  0  0  0  0  0  0
    6.8535  -13.2959   27.4632 C   0  0  0  0  0  0  0  0  0  0  0  0
    7.3296  -16.4417   26.0175 C   0  0  0  0  0  0  0  0  0  0  0  0
    6.2258  -16.4741   25.4445 O   0  0  0  0  0  0  0  0  0  0  0  0
    7.4219  -17.1837   27.2034 O   0  0  0  0  0  0  0  0  0  0  0  0
  2  1  1  1
  2  3  1  0
  4  2  1  0
  5  4  2  0
  6  4  1  0
  7  6  1  0
  7  8  1  6
  9  8  1  0
 10  9  2  0
 11 10  1  0
 12 11  1  0
 12 13  2  0
 13  9  1  0
 14 15  2  0
 14  7  1  0
 16 14  1  0
 17 16  1  0
 17 18  1  1
 18 19  1  0
 19 24  1  0
 19 20  2  0
 20 21  1  0
 21 22  2  0
 23 22  1  0
 24 23  2  0
 25 17  1  0
 26 25  2  0
 27 25  1  0
M  END
$$$$
