AHF.pdb
     RDKit          3D

 27 28  0  0  1  0  0  0  0  0999 V2000
    8.1323  -12.0836   20.5063 C   0  0  0  0  0  0  0  0  0  0  0  0
    8.5028  -13.3014   19.6493 C   0  0  2  0  0  0  0  0  0  0  0  0
    7.5493  -13.3416   18.5622 N   0  0  0  0  0  0  0  0  0  0  0  0
    8.2292  -14.4925   20.5131 C   0  0  0  0  0  0  0  0  0  0  0  0
    7.0995  -15.0455   20.5651 O   0  0  0  0  0  0  0  0  0  0  0  0
    9.3166  -14.9779   21.2824 N   0  0  0  0  0  0  0  0  0  0  0  0
    9.1797  -16.2846   22.0025 C   0  0  1  0  0  0  0  0  0  0  0  0
   10.1040  -17.2608   21.3622 C   0  0  0  0  0  0  0  0  0  0  0  0
    9.5328  -17.8629   20.1585 C   0  0  0  0  0  0  0  0  0  0  0  0
    9.8191  -17.6541   18.8246 C   0  0  0  0  0  0  0  0  0  0  0  0
    9.0146  -18.3896   18.0427 N   0  0  0  0  0  0  0  0  0  0  0  0
    8.2069  -19.0749   18.8713 C   0  0  0  0  0  0  0  0  0  0  0  0
    8.5076  -18.7679   20.1410 N   0  0  0  0  0  0  0  0  0  0  0  0
    9.3770  -15.9618   23.4028 C   0  0  0  0  0  0  0  0  0  0  0  0
   10.4472  -15.3245   23.7370 O   0  0  0  0  0  0  0  0  0  0  0  0
    8.4381  -16.3123   24.4076 N   0  0  0  0  0  0  0  0  0  0  0  0
    8.8069  -16.1219   25.8195 C   0  0  1  0  0  0  0  0  0  0  0  0
    7.5662  -15.7138   26.5998 C   0  0  0  0  0  0  0  0  0  0  0  0
    7.1804  -14.3090   26.4190 C   0  0  0  0  0  0  0  0  0  0  0  0
    7.9896  -13.3284   27.0024 C   0  0  0  0  0  0  0  0  0  0  0  0
    7.7133  -11.9900   26.8746 C   0  0  0  0  0  0  0  0  0  0  0  0
    6.6155  -11.5978   26.1566 C   0  0  0  0  0  0  0  0  0  0  0  0
    5.7908  -12.5252   25.5651 C   0  0  0  0  0  0  0  0  0  0  0  0
    6.0982  -13.8505   25.7142 C   0  0  0  0  0  0  0  0  0  0  0  0
    9.4217  -17.3037   26.3895 C   0  0  0  0  0  0  0  0  0  0  0  0
    9.3808  -18.4477   25.9022 O   0  0  0  0  0  0  0  0  0  0  0  0
   10.1318  -17.1794   27.5919 O   0  0  0  0  0  0  0  0  0  0  0  0
  2  1  1  1
  2  3  1  0
  4  2  1  0
  5  4  2  0
  6  4  1  0
  7  6  1  0
  7  8  1  6
  9  8  1  0
 10  9  2  0
 11 10  1  0
 12 11  1  0
 12 13  2  0
 13  9  1  0
 14 15  2  0
 14  7  1  0
 16 14  1  0
 17 16  1  0
 17 18  1  1
 18 19  1  0
 19 24  1  0
 19 20  2  0
 20 21  1  0
 21 22  2  0
 23 22  1  0
 24 23  2  0
 25 17  1  0
 26 25  2  0
 27 25  1  0
M  END
$$$$
