AHF.pdb
     RDKit          3D

 27 28  0  0  1  0  0  0  0  0999 V2000
    5.2412  -17.8337   23.0259 C   0  0  0  0  0  0  0  0  0  0  0  0
    5.3876  -17.2537   21.6127 C   0  0  2  0  0  0  0  0  0  0  0  0
    5.3189  -18.3750   20.7015 N   0  0  0  0  0  0  0  0  0  0  0  0
    6.7849  -16.7220   21.5449 C   0  0  0  0  0  0  0  0  0  0  0  0
    7.7577  -17.4229   21.1612 O   0  0  0  0  0  0  0  0  0  0  0  0
    6.9669  -15.3722   21.9384 N   0  0  0  0  0  0  0  0  0  0  0  0
    8.3534  -14.8082   22.0038 C   0  0  1  0  0  0  0  0  0  0  0  0
    8.3548  -13.5078   21.2783 C   0  0  0  0  0  0  0  0  0  0  0  0
    8.4689  -13.6770   19.8306 C   0  0  0  0  0  0  0  0  0  0  0  0
    9.5545  -14.0096   19.0458 C   0  0  0  0  0  0  0  0  0  0  0  0
    9.2225  -14.0080   17.7461 N   0  0  0  0  0  0  0  0  0  0  0  0
    7.9210  -13.6740   17.6896 C   0  0  0  0  0  0  0  0  0  0  0  0
    7.4586  -13.4734   18.9317 N   0  0  0  0  0  0  0  0  0  0  0  0
    8.6924  -14.8134   23.4142 C   0  0  0  0  0  0  0  0  0  0  0  0
    9.0915  -13.7102   23.9497 O   0  0  0  0  0  0  0  0  0  0  0  0
    8.5933  -15.9775   24.2197 N   0  0  0  0  0  0  0  0  0  0  0  0
    9.0567  -15.9153   25.6151 C   0  0  1  0  0  0  0  0  0  0  0  0
    7.8564  -15.6833   26.5207 C   0  0  0  0  0  0  0  0  0  0  0  0
    7.3418  -14.3088   26.4923 C   0  0  0  0  0  0  0  0  0  0  0  0
    8.1396  -13.3003   27.0430 C   0  0  0  0  0  0  0  0  0  0  0  0
    7.7453  -11.9857   27.0488 C   0  0  0  0  0  0  0  0  0  0  0  0
    6.5374  -11.6459   26.5012 C   0  0  0  0  0  0  0  0  0  0  0  0
    5.7190  -12.6022   25.9482 C   0  0  0  0  0  0  0  0  0  0  0  0
    6.1458  -13.9024   25.9607 C   0  0  0  0  0  0  0  0  0  0  0  0
    9.7867  -17.1052   26.0037 C   0  0  0  0  0  0  0  0  0  0  0  0
    9.9380  -18.1226   25.3038 O   0  0  0  0  0  0  0  0  0  0  0  0
   10.3866  -17.1429   27.2703 O   0  0  0  0  0  0  0  0  0  0  0  0
  2  1  1  1
  2  3  1  0
  4  2  1  0
  5  4  2  0
  6  4  1  0
  7  6  1  0
  7  8  1  1
  9  8  1  0
 10  9  2  0
 11 10  1  0
 12 11  1  0
 12 13  2  0
 13  9  1  0
 14 15  2  0
 14  7  1  0
 16 14  1  0
 17 16  1  0
 17 18  1  1
 18 19  1  0
 19 24  1  0
 19 20  2  0
 20 21  1  0
 21 22  2  0
 23 22  1  0
 24 23  2  0
 25 17  1  0
 26 25  2  0
 27 25  1  0
M  END
$$$$
