AHF.pdb
     RDKit          3D

 27 28  0  0  1  0  0  0  0  0999 V2000
    7.1933  -12.8652   19.6391 C   0  0  0  0  0  0  0  0  0  0  0  0
    8.4908  -13.3173   20.3225 C   0  0  2  0  0  0  0  0  0  0  0  0
    9.2872  -13.9624   19.3017 N   0  0  0  0  0  0  0  0  0  0  0  0
    8.0791  -14.3813   21.2911 C   0  0  0  0  0  0  0  0  0  0  0  0
    7.0530  -14.2787   22.0133 O   0  0  0  0  0  0  0  0  0  0  0  0
    8.9096  -15.5282   21.3601 N   0  0  0  0  0  0  0  0  0  0  0  0
    8.5015  -16.6775   22.2304 C   0  0  1  0  0  0  0  0  0  0  0  0
    8.9872  -17.9320   21.5918 C   0  0  0  0  0  0  0  0  0  0  0  0
    8.1543  -18.3414   20.4621 C   0  0  0  0  0  0  0  0  0  0  0  0
    6.8102  -18.1456   20.2171 C   0  0  0  0  0  0  0  0  0  0  0  0
    6.4430  -18.7363   19.0700 N   0  0  0  0  0  0  0  0  0  0  0  0
    7.5503  -19.3148   18.5723 C   0  0  0  0  0  0  0  0  0  0  0  0
    8.5817  -19.0853   19.3972 N   0  0  0  0  0  0  0  0  0  0  0  0
    8.9945  -16.3387   23.5518 C   0  0  0  0  0  0  0  0  0  0  0  0
   10.2306  -15.9907   23.6711 O   0  0  0  0  0  0  0  0  0  0  0  0
    8.1696  -16.3686   24.7062 N   0  0  0  0  0  0  0  0  0  0  0  0
    8.7801  -16.1120   26.0203 C   0  0  1  0  0  0  0  0  0  0  0  0
    7.7427  -15.4639   26.9250 C   0  0  0  0  0  0  0  0  0  0  0  0
    7.4632  -14.0589   26.6048 C   0  0  0  0  0  0  0  0  0  0  0  0
    6.1394  -13.7024   26.3268 C   0  0  0  0  0  0  0  0  0  0  0  0
    5.7833  -12.4105   26.0303 C   0  0  0  0  0  0  0  0  0  0  0  0
    6.7474  -11.4387   26.0045 C   0  0  0  0  0  0  0  0  0  0  0  0
    8.0617  -11.7411   26.2710 C   0  0  0  0  0  0  0  0  0  0  0  0
    8.3788  -13.0401   26.5626 C   0  0  0  0  0  0  0  0  0  0  0  0
    9.3205  -17.3163   26.6180 C   0  0  0  0  0  0  0  0  0  0  0  0
    9.9601  -17.3715   27.6838 O   0  0  0  0  0  0  0  0  0  0  0  0
    9.1207  -18.5402   25.9641 O   0  0  0  0  0  0  0  0  0  0  0  0
  2  1  1  6
  2  3  1  0
  4  2  1  0
  5  4  2  0
  6  4  1  0
  7  6  1  0
  7  8  1  6
  9  8  1  0
 10  9  2  0
 11 10  1  0
 12 11  1  0
 12 13  2  0
 13  9  1  0
 14 15  2  0
 14  7  1  0
 16 14  1  0
 17 16  1  0
 17 18  1  1
 18 19  1  0
 19 24  1  0
 19 20  2  0
 20 21  1  0
 21 22  2  0
 23 22  1  0
 24 23  2  0
 25 17  1  0
 26 25  2  0
 27 25  1  0
M  END
$$$$
