AHF.pdb
     RDKit          3D

 27 28  0  0  1  0  0  0  0  0999 V2000
    9.1726  -12.3594   19.4762 C   0  0  0  0  0  0  0  0  0  0  0  0
    8.6569  -13.7090   18.9586 C   0  0  2  0  0  0  0  0  0  0  0  0
    7.4446  -13.4277   18.2212 N   0  0  0  0  0  0  0  0  0  0  0  0
    8.2560  -14.4753   20.1800 C   0  0  0  0  0  0  0  0  0  0  0  0
    7.1866  -14.2447   20.8029 O   0  0  0  0  0  0  0  0  0  0  0  0
    9.1489  -15.4887   20.6111 N   0  0  0  0  0  0  0  0  0  0  0  0
    8.7358  -16.4058   21.7215 C   0  0  1  0  0  0  0  0  0  0  0  0
    8.9184  -17.8070   21.2517 C   0  0  0  0  0  0  0  0  0  0  0  0
    7.7854  -18.2814   20.4586 C   0  0  0  0  0  0  0  0  0  0  0  0
    6.5227  -17.7515   20.2860 C   0  0  0  0  0  0  0  0  0  0  0  0
    5.7751  -18.5444   19.5037 N   0  0  0  0  0  0  0  0  0  0  0  0
    6.5546  -19.5882   19.1699 C   0  0  0  0  0  0  0  0  0  0  0  0
    7.7609  -19.4420   19.7358 N   0  0  0  0  0  0  0  0  0  0  0  0
    9.4929  -15.9595   22.8755 C   0  0  0  0  0  0  0  0  0  0  0  0
   10.7466  -15.7006   22.7198 O   0  0  0  0  0  0  0  0  0  0  0  0
    8.9055  -15.7914   24.1565 N   0  0  0  0  0  0  0  0  0  0  0  0
    9.7798  -15.5044   25.3048 C   0  0  1  0  0  0  0  0  0  0  0  0
    9.7133  -14.0158   25.6121 C   0  0  0  0  0  0  0  0  0  0  0  0
    8.3674  -13.5324   25.9433 C   0  0  0  0  0  0  0  0  0  0  0  0
    7.5092  -13.2118   24.8862 C   0  0  0  0  0  0  0  0  0  0  0  0
    6.2294  -12.7649   25.1012 C   0  0  0  0  0  0  0  0  0  0  0  0
    5.7744  -12.6272   26.3851 C   0  0  0  0  0  0  0  0  0  0  0  0
    6.5813  -12.9300   27.4562 C   0  0  0  0  0  0  0  0  0  0  0  0
    7.8513  -13.3727   27.2028 C   0  0  0  0  0  0  0  0  0  0  0  0
    9.4352  -16.2974   26.4676 C   0  0  0  0  0  0  0  0  0  0  0  0
   10.0329  -16.2803   27.5586 O   0  0  0  0  0  0  0  0  0  0  0  0
    8.3383  -17.1669   26.3881 O   0  0  0  0  0  0  0  0  0  0  0  0
  2  1  1  1
  2  3  1  0
  4  2  1  0
  5  4  2  0
  6  4  1  0
  7  6  1  0
  7  8  1  6
  9  8  1  0
 10  9  2  0
 11 10  1  0
 12 11  1  0
 12 13  2  0
 13  9  1  0
 14 15  2  0
 14  7  1  0
 16 14  1  0
 17 16  1  0
 17 18  1  1
 18 19  1  0
 19 24  1  0
 19 20  2  0
 20 21  1  0
 21 22  2  0
 23 22  1  0
 24 23  2  0
 25 17  1  0
 26 25  2  0
 27 25  1  0
M  END
$$$$
