AHF.pdb
     RDKit          3D

 27 28  0  0  1  0  0  0  0  0999 V2000
    7.4747  -17.9983   19.1338 C   0  0  0  0  0  0  0  0  0  0  0  0
    7.8144  -18.1273   20.6248 C   0  0  2  0  0  0  0  0  0  0  0  0
    6.5916  -17.8540   21.3477 N   0  0  0  0  0  0  0  0  0  0  0  0
    8.7543  -16.9999   20.9166 C   0  0  0  0  0  0  0  0  0  0  0  0
    9.9098  -16.9367   20.4210 O   0  0  0  0  0  0  0  0  0  0  0  0
    8.2776  -15.9900   21.7900 N   0  0  0  0  0  0  0  0  0  0  0  0
    9.1754  -14.8445   22.1456 C   0  0  1  0  0  0  0  0  0  0  0  0
    8.5047  -13.5856   21.7181 C   0  0  0  0  0  0  0  0  0  0  0  0
    8.2538  -13.5486   20.2782 C   0  0  0  0  0  0  0  0  0  0  0  0
    7.0706  -13.4644   19.5725 C   0  0  0  0  0  0  0  0  0  0  0  0
    7.2986  -13.5087   18.2513 N   0  0  0  0  0  0  0  0  0  0  0  0
    8.6303  -13.6217   18.1019 C   0  0  0  0  0  0  0  0  0  0  0  0
    9.2132  -13.6466   19.3087 N   0  0  0  0  0  0  0  0  0  0  0  0
    9.4722  -15.0260   23.5538 C   0  0  0  0  0  0  0  0  0  0  0  0
   10.2707  -14.1876   24.1219 O   0  0  0  0  0  0  0  0  0  0  0  0
    8.9132  -16.0794   24.3231 N   0  0  0  0  0  0  0  0  0  0  0  0
    9.2219  -16.1483   25.7603 C   0  0  1  0  0  0  0  0  0  0  0  0
    7.9484  -15.8819   26.5488 C   0  0  0  0  0  0  0  0  0  0  0  0
    7.4479  -14.5069   26.4310 C   0  0  0  0  0  0  0  0  0  0  0  0
    8.2985  -13.4660   26.8179 C   0  0  0  0  0  0  0  0  0  0  0  0
    7.9200  -12.1496   26.7301 C   0  0  0  0  0  0  0  0  0  0  0  0
    6.6753  -11.8407   26.2509 C   0  0  0  0  0  0  0  0  0  0  0  0
    5.8045  -12.8296   25.8585 C   0  0  0  0  0  0  0  0  0  0  0  0
    6.2170  -14.1305   25.9605 C   0  0  0  0  0  0  0  0  0  0  0  0
    9.8158  -17.4164   26.1330 C   0  0  0  0  0  0  0  0  0  0  0  0
    9.9743  -18.3918   25.3771 O   0  0  0  0  0  0  0  0  0  0  0  0
   10.2614  -17.5892   27.4511 O   0  0  0  0  0  0  0  0  0  0  0  0
  2  1  1  6
  2  3  1  0
  4  2  1  0
  5  4  2  0
  6  4  1  0
  7  6  1  0
  7  8  1  1
  9  8  1  0
 10  9  2  0
 11 10  1  0
 12 11  1  0
 12 13  2  0
 13  9  1  0
 14 15  2  0
 14  7  1  0
 16 14  1  0
 17 16  1  0
 17 18  1  1
 18 19  1  0
 19 24  1  0
 19 20  2  0
 20 21  1  0
 21 22  2  0
 23 22  1  0
 24 23  2  0
 25 17  1  0
 26 25  2  0
 27 25  1  0
M  END
$$$$
