KEY.pdb
     RDKit          3D

 31 31  0  0  1  0  0  0  0  0999 V2000
   25.1322  -14.4462  -19.7001 N   0  0  0  0  0  0  0  0  0  0  0  0
   23.9443  -14.5816  -18.8789 C   0  0  1  0  0  0  0  0  0  0  0  0
   22.7806  -13.7592  -19.4196 C   0  0  0  0  0  0  0  0  0  0  0  0
   23.3330  -12.7663  -20.4169 C   0  0  0  0  0  0  0  0  0  0  0  0
   23.2158  -11.3519  -19.9503 C   0  0  0  0  0  0  0  0  0  0  0  0
   23.6262  -10.3453  -20.9953 C   0  0  0  0  0  0  0  0  0  0  0  0
   23.6000   -8.9973  -20.5260 N   0  0  0  0  0  0  0  0  0  0  0  0
   23.5889  -15.9911  -18.7028 C   0  0  0  0  0  0  0  0  0  0  0  0
   23.5511  -16.7606  -19.7026 O   0  0  0  0  0  0  0  0  0  0  0  0
   23.2845  -16.5186  -17.4341 N   0  0  0  0  0  0  0  0  0  0  0  0
   23.0931  -17.9274  -17.1406 C   0  0  1  0  0  0  0  0  0  0  0  0
   24.2503  -18.7587  -17.5453 C   0  0  0  0  0  0  0  0  0  0  0  0
   24.1801  -20.2181  -17.4078 C   0  0  0  0  0  0  0  0  0  0  0  0
   25.4028  -21.0155  -17.3873 C   0  0  0  0  0  0  0  0  0  0  0  0
   26.2016  -21.2067  -16.4667 O   0  0  0  0  0  0  0  0  0  0  0  0
   22.6372  -18.1053  -15.7706 C   0  0  0  0  0  0  0  0  0  0  0  0
   23.1625  -17.4136  -14.8313 O   0  0  0  0  0  0  0  0  0  0  0  0
   25.7600  -21.6923  -18.6025 O   0  0  0  0  0  0  0  0  0  0  0  0
   15.4063  -15.4236  -12.2449 O   0  0  0  0  0  0  0  0  0  0  0  0
   16.5036  -15.8964  -12.9478 C   0  0  0  0  0  0  0  0  0  0  0  0
   16.3591  -16.8545  -13.9461 C   0  0  0  0  0  0  0  0  0  0  0  0
   17.4544  -17.3400  -14.6621 C   0  0  0  0  0  0  0  0  0  0  0  0
   18.7154  -16.8641  -14.3796 C   0  0  0  0  0  0  0  0  0  0  0  0
   19.8956  -17.3619  -15.1096 C   0  0  0  0  0  0  0  0  0  0  0  0
   20.5461  -18.5697  -14.5155 C   0  0  2  0  0  0  0  0  0  0  0  0
   21.6189  -19.0271  -15.4118 N   0  0  0  0  0  0  0  0  0  0  0  0
   19.5661  -19.6763  -14.4534 C   0  0  0  0  0  0  0  0  0  0  0  0
   19.5003  -20.4744  -15.4182 O   0  0  0  0  0  0  0  0  0  0  0  0
   18.8508  -15.9146  -13.3890 C   0  0  0  0  0  0  0  0  0  0  0  0
   17.7659  -15.4333  -12.6796 C   0  0  0  0  0  0  0  0  0  0  0  0
   18.7090  -19.8887  -13.3872 O   0  0  0  0  0  0  0  0  0  0  0  0
  2  1  1  6
  2  3  1  0
  4  3  1  0
  5  4  1  0
  6  5  1  0
  7  6  1  0
  8  2  1  0
  9  8  2  0
 10  8  1  0
 11 10  1  0
 11 12  1  1
 13 14  1  0
 13 12  1  0
 14 15  2  0
 16 11  1  0
 16 17  2  0
 18 14  1  0
 20 19  1  0
 21 20  2  0
 22 21  1  0
 23 22  2  0
 23 29  1  0
 25 24  1  6
 24 23  1  0
 25 26  1  0
 26 16  1  0
 27 25  1  0
 28 27  2  0
 29 30  2  0
 30 20  1  0
 31 27  1  0
M  END
$$$$
