KEY.pdb
     RDKit          3D

 31 31  0  0  1  0  0  0  0  0999 V2000
   24.8017  -22.6994  -15.4293 N   0  0  0  0  0  0  0  0  0  0  0  0
   25.1267  -21.4798  -14.7146 C   0  0  1  0  0  0  0  0  0  0  0  0
   26.0267  -20.5617  -15.5333 C   0  0  0  0  0  0  0  0  0  0  0  0
   26.5706  -21.3574  -16.6982 C   0  0  0  0  0  0  0  0  0  0  0  0
   27.8048  -22.1236  -16.3490 C   0  0  0  0  0  0  0  0  0  0  0  0
   28.3869  -22.8777  -17.5179 C   0  0  0  0  0  0  0  0  0  0  0  0
   29.7102  -22.4638  -17.8581 N   0  0  0  0  0  0  0  0  0  0  0  0
   23.9113  -20.8001  -14.2618 C   0  0  0  0  0  0  0  0  0  0  0  0
   23.9873  -19.6497  -13.7481 O   0  0  0  0  0  0  0  0  0  0  0  0
   22.6448  -21.4012  -14.3848 N   0  0  0  0  0  0  0  0  0  0  0  0
   21.3902  -20.7933  -13.9802 C   0  0  1  0  0  0  0  0  0  0  0  0
   20.7911  -19.9547  -15.0441 C   0  0  0  0  0  0  0  0  0  0  0  0
   20.5241  -20.5369  -16.3644 C   0  0  0  0  0  0  0  0  0  0  0  0
   19.2062  -20.3991  -16.9771 C   0  0  0  0  0  0  0  0  0  0  0  0
   18.5292  -21.2343  -17.5825 O   0  0  0  0  0  0  0  0  0  0  0  0
   20.5083  -21.7886  -13.3902 C   0  0  0  0  0  0  0  0  0  0  0  0
   20.7188  -23.0318  -13.6064 O   0  0  0  0  0  0  0  0  0  0  0  0
   18.5734  -19.1136  -16.8801 O   0  0  0  0  0  0  0  0  0  0  0  0
   17.4795  -26.9027   -7.2645 O   0  0  0  0  0  0  0  0  0  0  0  0
   18.0032  -25.9178   -8.0876 C   0  0  0  0  0  0  0  0  0  0  0  0
   17.9589  -24.5765   -7.7210 C   0  0  0  0  0  0  0  0  0  0  0  0
   18.4820  -23.5739   -8.5392 C   0  0  0  0  0  0  0  0  0  0  0  0
   19.0587  -23.9120   -9.7431 C   0  0  0  0  0  0  0  0  0  0  0  0
   19.6123  -22.8779  -10.6363 C   0  0  0  0  0  0  0  0  0  0  0  0
   18.7460  -22.5141  -11.7991 C   0  0  2  0  0  0  0  0  0  0  0  0
   19.4009  -21.4466  -12.5704 N   0  0  0  0  0  0  0  0  0  0  0  0
   17.4747  -21.9405  -11.3056 C   0  0  0  0  0  0  0  0  0  0  0  0
   17.4035  -20.7009  -11.1310 O   0  0  0  0  0  0  0  0  0  0  0  0
   19.0991  -25.2433  -10.0997 C   0  0  0  0  0  0  0  0  0  0  0  0
   18.5811  -26.2368   -9.2892 C   0  0  0  0  0  0  0  0  0  0  0  0
   16.3478  -22.6928  -11.0216 O   0  0  0  0  0  0  0  0  0  0  0  0
  2  1  1  6
  2  3  1  0
  4  3  1  0
  5  4  1  0
  6  5  1  0
  7  6  1  0
  8  2  1  0
  9  8  2  0
 10  8  1  0
 11 10  1  0
 11 12  1  6
 13 14  1  0
 13 12  1  0
 14 15  2  0
 16 11  1  0
 16 17  2  0
 18 14  1  0
 20 19  1  0
 21 20  2  0
 22 21  1  0
 23 22  2  0
 23 29  1  0
 25 24  1  1
 24 23  1  0
 25 26  1  0
 26 16  1  0
 27 25  1  0
 28 27  2  0
 29 30  2  0
 30 20  1  0
 31 27  1  0
M  END
$$$$
