KEY.pdb
     RDKit          3D

 31 31  0  0  1  0  0  0  0  0999 V2000
   33.7555  -32.0323  -16.6772 N   0  0  0  0  0  0  0  0  0  0  0  0
   32.8342  -32.3079  -17.7631 C   0  0  1  0  0  0  0  0  0  0  0  0
   32.4070  -33.7706  -17.7912 C   0  0  0  0  0  0  0  0  0  0  0  0
   33.3732  -34.5231  -18.6778 C   0  0  0  0  0  0  0  0  0  0  0  0
   34.3681  -35.3226  -17.9011 C   0  0  0  0  0  0  0  0  0  0  0  0
   35.2935  -36.1309  -18.7752 C   0  0  0  0  0  0  0  0  0  0  0  0
   36.2589  -36.8813  -18.0382 N   0  0  0  0  0  0  0  0  0  0  0  0
   31.6870  -31.3990  -17.7181 C   0  0  0  0  0  0  0  0  0  0  0  0
   31.3597  -30.8515  -16.6289 O   0  0  0  0  0  0  0  0  0  0  0  0
   30.9297  -31.1151  -18.8697 N   0  0  0  0  0  0  0  0  0  0  0  0
   29.8787  -30.1169  -18.9517 C   0  0  1  0  0  0  0  0  0  0  0  0
   29.9010  -29.3658  -20.2281 C   0  0  0  0  0  0  0  0  0  0  0  0
   28.9187  -28.3009  -20.4619 C   0  0  0  0  0  0  0  0  0  0  0  0
   28.9516  -27.5275  -21.6996 C   0  0  0  0  0  0  0  0  0  0  0  0
   28.2209  -26.6050  -22.0701 O   0  0  0  0  0  0  0  0  0  0  0  0
   28.5960  -30.6958  -18.5829 C   0  0  0  0  0  0  0  0  0  0  0  0
   28.4597  -31.9673  -18.5468 O   0  0  0  0  0  0  0  0  0  0  0  0
   29.9736  -27.8630  -22.6510 O   0  0  0  0  0  0  0  0  0  0  0  0
   21.6962  -33.6826  -14.5072 O   0  0  0  0  0  0  0  0  0  0  0  0
   22.8441  -33.0873  -15.0065 C   0  0  0  0  0  0  0  0  0  0  0  0
   23.4008  -31.9709  -14.3905 C   0  0  0  0  0  0  0  0  0  0  0  0
   24.5560  -31.3608  -14.8817 C   0  0  0  0  0  0  0  0  0  0  0  0
   25.1677  -31.8701  -16.0053 C   0  0  0  0  0  0  0  0  0  0  0  0
   26.3837  -31.2449  -16.5569 C   0  0  0  0  0  0  0  0  0  0  0  0
   26.2132  -30.5961  -17.8929 C   0  0  2  0  0  0  0  0  0  0  0  0
   27.4616  -29.9077  -18.2552 N   0  0  0  0  0  0  0  0  0  0  0  0
   25.1781  -29.5431  -17.8005 C   0  0  0  0  0  0  0  0  0  0  0  0
   24.0001  -29.8814  -17.5357 O   0  0  0  0  0  0  0  0  0  0  0  0
   24.6104  -32.9767  -16.6104 C   0  0  0  0  0  0  0  0  0  0  0  0
   23.4660  -33.5815  -16.1240 C   0  0  0  0  0  0  0  0  0  0  0  0
   25.4300  -28.1950  -17.9895 O   0  0  0  0  0  0  0  0  0  0  0  0
  2  1  1  1
  2  3  1  0
  4  3  1  0
  5  4  1  0
  6  5  1  0
  7  6  1  0
  8  2  1  0
  9  8  2  0
 10  8  1  0
 11 10  1  0
 11 12  1  6
 13 14  1  0
 13 12  1  0
 14 15  2  0
 16 11  1  0
 16 17  2  0
 18 14  1  0
 20 19  1  0
 21 20  2  0
 22 21  1  0
 23 22  2  0
 23 29  1  0
 25 24  1  1
 24 23  1  0
 25 26  1  0
 26 16  1  0
 27 25  1  0
 28 27  2  0
 29 30  2  0
 30 20  1  0
 31 27  1  0
M  END
$$$$
