KEY.pdb
     RDKit          3D

 31 31  0  0  1  0  0  0  0  0999 V2000
   25.6891  -16.9959  -18.3300 N   0  0  0  0  0  0  0  0  0  0  0  0
   25.8209  -17.9120  -17.2131 C   0  0  1  0  0  0  0  0  0  0  0  0
   27.1343  -17.7144  -16.4655 C   0  0  0  0  0  0  0  0  0  0  0  0
   28.1971  -18.5331  -17.1627 C   0  0  0  0  0  0  0  0  0  0  0  0
   27.8483  -19.9835  -17.2448 C   0  0  0  0  0  0  0  0  0  0  0  0
   28.9349  -20.8215  -17.8701 C   0  0  0  0  0  0  0  0  0  0  0  0
   28.6310  -22.2162  -17.8975 N   0  0  0  0  0  0  0  0  0  0  0  0
   24.6610  -17.8216  -16.3239 C   0  0  0  0  0  0  0  0  0  0  0  0
   24.7438  -17.1717  -15.2450 O   0  0  0  0  0  0  0  0  0  0  0  0
   23.4412  -18.4468  -16.6424 N   0  0  0  0  0  0  0  0  0  0  0  0
   22.2455  -18.4104  -15.8199 C   0  0  1  0  0  0  0  0  0  0  0  0
   21.0035  -18.3027  -16.6199 C   0  0  0  0  0  0  0  0  0  0  0  0
   19.7025  -18.2731  -15.9416 C   0  0  0  0  0  0  0  0  0  0  0  0
   18.4673  -18.2399  -16.7190 C   0  0  0  0  0  0  0  0  0  0  0  0
   18.0008  -17.3350  -17.4159 O   0  0  0  0  0  0  0  0  0  0  0  0
   22.2708  -19.4816  -14.8359 C   0  0  0  0  0  0  0  0  0  0  0  0
   22.6335  -20.6574  -15.1860 O   0  0  0  0  0  0  0  0  0  0  0  0
   17.6482  -19.4192  -16.6919 O   0  0  0  0  0  0  0  0  0  0  0  0
   28.4188  -20.8897  -12.5499 O   0  0  0  0  0  0  0  0  0  0  0  0
   27.0747  -20.6914  -12.2748 C   0  0  0  0  0  0  0  0  0  0  0  0
   26.3728  -21.5666  -11.4522 C   0  0  0  0  0  0  0  0  0  0  0  0
   25.0194  -21.3799  -11.1662 C   0  0  0  0  0  0  0  0  0  0  0  0
   24.3530  -20.3038  -11.7086 C   0  0  0  0  0  0  0  0  0  0  0  0
   22.9213  -20.0816  -11.4355 C   0  0  0  0  0  0  0  0  0  0  0  0
   21.9993  -20.4326  -12.5588 C   0  0  2  0  0  0  0  0  0  0  0  0
   21.9050  -19.2882  -13.4780 N   0  0  0  0  0  0  0  0  0  0  0  0
   20.6346  -20.6438  -12.0279 C   0  0  0  0  0  0  0  0  0  0  0  0
   19.7393  -19.8194  -12.3294 O   0  0  0  0  0  0  0  0  0  0  0  0
   25.0551  -19.4405  -12.5229 C   0  0  0  0  0  0  0  0  0  0  0  0
   26.3959  -19.6252  -12.8062 C   0  0  0  0  0  0  0  0  0  0  0  0
   20.2799  -21.7042  -11.2117 O   0  0  0  0  0  0  0  0  0  0  0  0
  2  1  1  6
  2  3  1  0
  4  3  1  0
  5  4  1  0
  6  5  1  0
  7  6  1  0
  8  2  1  0
  9  8  2  0
 10  8  1  0
 11 10  1  0
 11 12  1  6
 13 14  1  0
 13 12  1  0
 14 15  2  0
 16 11  1  0
 16 17  2  0
 18 14  1  0
 20 19  1  0
 21 20  2  0
 22 21  1  0
 23 22  2  0
 23 29  1  0
 25 24  1  1
 24 23  1  0
 25 26  1  0
 26 16  1  0
 27 25  1  0
 28 27  2  0
 29 30  2  0
 30 20  1  0
 31 27  1  0
M  END
$$$$
