KEY.pdb
     RDKit          3D

 31 31  0  0  1  0  0  0  0  0999 V2000
   29.1781  -20.6219  -19.4191 N   0  0  0  0  0  0  0  0  0  0  0  0
   28.2770  -21.5716  -18.7947 C   0  0  1  0  0  0  0  0  0  0  0  0
   28.9678  -22.3800  -17.7028 C   0  0  0  0  0  0  0  0  0  0  0  0
   29.5975  -23.5941  -18.3473 C   0  0  0  0  0  0  0  0  0  0  0  0
   30.3500  -24.4409  -17.3733 C   0  0  0  0  0  0  0  0  0  0  0  0
   31.0397  -25.6171  -18.0171 C   0  0  0  0  0  0  0  0  0  0  0  0
   31.9660  -26.2748  -17.1524 N   0  0  0  0  0  0  0  0  0  0  0  0
   27.0700  -20.9022  -18.3054 C   0  0  0  0  0  0  0  0  0  0  0  0
   27.0647  -19.6500  -18.1470 O   0  0  0  0  0  0  0  0  0  0  0  0
   25.9010  -21.6251  -18.0031 N   0  0  0  0  0  0  0  0  0  0  0  0
   24.6981  -21.0594  -17.4196 C   0  0  1  0  0  0  0  0  0  0  0  0
   23.4852  -21.3426  -18.2213 C   0  0  0  0  0  0  0  0  0  0  0  0
   22.1778  -20.8672  -17.7540 C   0  0  0  0  0  0  0  0  0  0  0  0
   21.1780  -21.8160  -17.2732 C   0  0  0  0  0  0  0  0  0  0  0  0
   21.0401  -23.0137  -17.5357 O   0  0  0  0  0  0  0  0  0  0  0  0
   24.6118  -21.3928  -16.0061 C   0  0  0  0  0  0  0  0  0  0  0  0
   24.8417  -22.5909  -15.6208 O   0  0  0  0  0  0  0  0  0  0  0  0
   20.1922  -21.3157  -16.3566 O   0  0  0  0  0  0  0  0  0  0  0  0
   24.8051  -20.8063   -7.1860 O   0  0  0  0  0  0  0  0  0  0  0  0
   24.8613  -20.5847   -8.5533 C   0  0  0  0  0  0  0  0  0  0  0  0
   23.7906  -20.0132   -9.2333 C   0  0  0  0  0  0  0  0  0  0  0  0
   23.8327  -19.7841  -10.6095 C   0  0  0  0  0  0  0  0  0  0  0  0
   24.9596  -20.1300  -11.3213 C   0  0  0  0  0  0  0  0  0  0  0  0
   25.0345  -19.9111  -12.7774 C   0  0  0  0  0  0  0  0  0  0  0  0
   24.2482  -20.8762  -13.6052 C   0  0  2  0  0  0  0  0  0  0  0  0
   24.2770  -20.4391  -15.0094 N   0  0  0  0  0  0  0  0  0  0  0  0
   22.8278  -20.8348  -13.1935 C   0  0  0  0  0  0  0  0  0  0  0  0
   22.5087  -21.3332  -12.0881 O   0  0  0  0  0  0  0  0  0  0  0  0
   26.0169  -20.6959  -10.6406 C   0  0  0  0  0  0  0  0  0  0  0  0
   25.9755  -20.9228   -9.2772 C   0  0  0  0  0  0  0  0  0  0  0  0
   21.8189  -20.2751  -13.9587 O   0  0  0  0  0  0  0  0  0  0  0  0
  2  1  1  1
  2  3  1  0
  4  3  1  0
  5  4  1  0
  6  5  1  0
  7  6  1  0
  8  2  1  0
  9  8  2  0
 10  8  1  0
 11 10  1  0
 11 12  1  6
 13 14  1  0
 13 12  1  0
 14 15  2  0
 16 11  1  0
 16 17  2  0
 18 14  1  0
 20 19  1  0
 21 20  2  0
 22 21  1  0
 23 22  2  0
 23 29  1  0
 25 24  1  1
 24 23  1  0
 25 26  1  0
 26 16  1  0
 27 25  1  0
 28 27  2  0
 29 30  2  0
 30 20  1  0
 31 27  1  0
M  END
$$$$
