KEY.pdb
     RDKit          3D

 31 31  0  0  1  0  0  0  0  0999 V2000
   18.6761  -13.4691  -17.1339 N   0  0  0  0  0  0  0  0  0  0  0  0
   19.8472  -12.6213  -17.0166 C   0  0  1  0  0  0  0  0  0  0  0  0
   20.8912  -12.9407  -18.0801 C   0  0  0  0  0  0  0  0  0  0  0  0
   20.9400  -14.4420  -18.2516 C   0  0  0  0  0  0  0  0  0  0  0  0
   22.0046  -14.8810  -19.2035 C   0  0  0  0  0  0  0  0  0  0  0  0
   22.0845  -16.3790  -19.3561 C   0  0  0  0  0  0  0  0  0  0  0  0
   21.9352  -16.8207  -20.7055 N   0  0  0  0  0  0  0  0  0  0  0  0
   19.4702  -11.2064  -17.0210 C   0  0  0  0  0  0  0  0  0  0  0  0
   18.6735  -10.7697  -17.8972 O   0  0  0  0  0  0  0  0  0  0  0  0
   19.9777  -10.3084  -16.0637 N   0  0  0  0  0  0  0  0  0  0  0  0
   19.5984   -8.9120  -15.9463 C   0  0  1  0  0  0  0  0  0  0  0  0
   18.1419   -8.7293  -15.7477 C   0  0  0  0  0  0  0  0  0  0  0  0
   17.4910   -9.3096  -14.5674 C   0  0  0  0  0  0  0  0  0  0  0  0
   16.0489   -9.1784  -14.3826 C   0  0  0  0  0  0  0  0  0  0  0  0
   15.1460   -9.9752  -14.6508 O   0  0  0  0  0  0  0  0  0  0  0  0
   20.4558   -8.2295  -14.9895 C   0  0  0  0  0  0  0  0  0  0  0  0
   20.7409   -8.7931  -13.8769 O   0  0  0  0  0  0  0  0  0  0  0  0
   15.5746   -7.9520  -13.8051 O   0  0  0  0  0  0  0  0  0  0  0  0
   22.3907   -2.6521  -19.4922 O   0  0  0  0  0  0  0  0  0  0  0  0
   22.5893   -3.4686  -18.3897 C   0  0  0  0  0  0  0  0  0  0  0  0
   22.8007   -2.9292  -17.1249 C   0  0  0  0  0  0  0  0  0  0  0  0
   23.0021   -3.7385  -16.0057 C   0  0  0  0  0  0  0  0  0  0  0  0
   22.9932   -5.1082  -16.1477 C   0  0  0  0  0  0  0  0  0  0  0  0
   23.2121   -5.9928  -14.9887 C   0  0  0  0  0  0  0  0  0  0  0  0
   21.9724   -6.4038  -14.2613 C   0  0  2  0  0  0  0  0  0  0  0  0
   21.0041   -6.9422  -15.2288 N   0  0  0  0  0  0  0  0  0  0  0  0
   21.3332   -5.2105  -13.6645 C   0  0  0  0  0  0  0  0  0  0  0  0
   21.9523   -4.5799  -12.7750 O   0  0  0  0  0  0  0  0  0  0  0  0
   22.7829   -5.6356  -17.4042 C   0  0  0  0  0  0  0  0  0  0  0  0
   22.5832   -4.8340  -18.5132 C   0  0  0  0  0  0  0  0  0  0  0  0
   20.0829   -4.7414  -14.0293 O   0  0  0  0  0  0  0  0  0  0  0  0
  2  1  1  6
  2  3  1  0
  4  3  1  0
  5  4  1  0
  6  5  1  0
  7  6  1  0
  8  2  1  0
  9  8  2  0
 10  8  1  0
 11 10  1  0
 11 12  1  1
 13 14  1  0
 13 12  1  0
 14 15  2  0
 16 11  1  0
 16 17  2  0
 18 14  1  0
 20 19  1  0
 21 20  2  0
 22 21  1  0
 23 22  2  0
 23 29  1  0
 25 24  1  6
 24 23  1  0
 25 26  1  0
 26 16  1  0
 27 25  1  0
 28 27  2  0
 29 30  2  0
 30 20  1  0
 31 27  1  0
M  END
$$$$
