KEY.pdb
     RDKit          3D

 31 31  0  0  1  0  0  0  0  0999 V2000
   25.8420  -20.6235  -17.0730 N   0  0  0  0  0  0  0  0  0  0  0  0
   26.5949  -20.9418  -15.8748 C   0  0  1  0  0  0  0  0  0  0  0  0
   28.0399  -20.4655  -15.9660 C   0  0  0  0  0  0  0  0  0  0  0  0
   28.6506  -21.0606  -17.2145 C   0  0  0  0  0  0  0  0  0  0  0  0
   28.9420  -22.5194  -17.0767 C   0  0  0  0  0  0  0  0  0  0  0  0
   29.6185  -23.1075  -18.2893 C   0  0  0  0  0  0  0  0  0  0  0  0
   29.8417  -24.5140  -18.1884 N   0  0  0  0  0  0  0  0  0  0  0  0
   25.9192  -20.4283  -14.6815 C   0  0  0  0  0  0  0  0  0  0  0  0
   25.7492  -19.1857  -14.5398 O   0  0  0  0  0  0  0  0  0  0  0  0
   25.4480  -21.2924  -13.6757 N   0  0  0  0  0  0  0  0  0  0  0  0
   24.7355  -20.8730  -12.4823 C   0  0  1  0  0  0  0  0  0  0  0  0
   23.3377  -21.3619  -12.4487 C   0  0  0  0  0  0  0  0  0  0  0  0
   22.3657  -20.8516  -13.4224 C   0  0  0  0  0  0  0  0  0  0  0  0
   20.9642  -21.2522  -13.3432 C   0  0  0  0  0  0  0  0  0  0  0  0
   20.1960  -21.2393  -12.3779 O   0  0  0  0  0  0  0  0  0  0  0  0
   25.5279  -21.1461  -11.2932 C   0  0  0  0  0  0  0  0  0  0  0  0
   25.9844  -22.3240  -11.0906 O   0  0  0  0  0  0  0  0  0  0  0  0
   20.3561  -21.7390  -14.5497 O   0  0  0  0  0  0  0  0  0  0  0  0
   29.4886  -20.0737   -3.3838 O   0  0  0  0  0  0  0  0  0  0  0  0
   28.9534  -19.9100   -4.6520 C   0  0  0  0  0  0  0  0  0  0  0  0
   29.6156  -20.3874   -5.7785 C   0  0  0  0  0  0  0  0  0  0  0  0
   29.0891  -20.2300   -7.0616 C   0  0  0  0  0  0  0  0  0  0  0  0
   27.8830  -19.5862   -7.2264 C   0  0  0  0  0  0  0  0  0  0  0  0
   27.3024  -19.3940   -8.5680 C   0  0  0  0  0  0  0  0  0  0  0  0
   26.5374  -20.5624   -9.1015 C   0  0  2  0  0  0  0  0  0  0  0  0
   25.8270  -20.1540  -10.3230 N   0  0  0  0  0  0  0  0  0  0  0  0
   25.4907  -20.9503   -8.1305 C   0  0  0  0  0  0  0  0  0  0  0  0
   24.3609  -20.4140   -8.2199 O   0  0  0  0  0  0  0  0  0  0  0  0
   27.2324  -19.1159   -6.1054 C   0  0  0  0  0  0  0  0  0  0  0  0
   27.7537  -19.2717   -4.8341 C   0  0  0  0  0  0  0  0  0  0  0  0
   25.6814  -21.8770   -7.1198 O   0  0  0  0  0  0  0  0  0  0  0  0
  2  1  1  6
  2  3  1  0
  4  3  1  0
  5  4  1  0
  6  5  1  0
  7  6  1  0
  8  2  1  0
  9  8  2  0
 10  8  1  0
 11 10  1  0
 11 12  1  1
 13 14  1  0
 13 12  1  0
 14 15  2  0
 16 11  1  0
 16 17  2  0
 18 14  1  0
 20 19  1  0
 21 20  2  0
 22 21  1  0
 23 22  2  0
 23 29  1  0
 25 24  1  1
 24 23  1  0
 25 26  1  0
 26 16  1  0
 27 25  1  0
 28 27  2  0
 29 30  2  0
 30 20  1  0
 31 27  1  0
M  END
$$$$
