KEY.pdb
     RDKit          3D

 31 31  0  0  1  0  0  0  0  0999 V2000
   16.5430  -17.1733  -22.7859 N   0  0  0  0  0  0  0  0  0  0  0  0
   17.5682  -16.1473  -22.8064 C   0  0  1  0  0  0  0  0  0  0  0  0
   18.0297  -15.8307  -24.2241 C   0  0  0  0  0  0  0  0  0  0  0  0
   18.7411  -17.0491  -24.7674 C   0  0  0  0  0  0  0  0  0  0  0  0
   19.2768  -16.8389  -26.1462 C   0  0  0  0  0  0  0  0  0  0  0  0
   20.0143  -18.0380  -26.6865 C   0  0  0  0  0  0  0  0  0  0  0  0
   19.8449  -19.2131  -25.8936 N   0  0  0  0  0  0  0  0  0  0  0  0
   17.1230  -14.9499  -22.0908 C   0  0  0  0  0  0  0  0  0  0  0  0
   16.4022  -14.0966  -22.6786 O   0  0  0  0  0  0  0  0  0  0  0  0
   17.4808  -14.7208  -20.7492 N   0  0  0  0  0  0  0  0  0  0  0  0
   17.0588  -13.5802  -19.9565 C   0  0  1  0  0  0  0  0  0  0  0  0
   16.6245  -13.9604  -18.5924 C   0  0  0  0  0  0  0  0  0  0  0  0
   15.5133  -14.9033  -18.4198 C   0  0  0  0  0  0  0  0  0  0  0  0
   15.6647  -16.0696  -17.5551 C   0  0  0  0  0  0  0  0  0  0  0  0
   16.0196  -17.2171  -17.8373 O   0  0  0  0  0  0  0  0  0  0  0  0
   18.0467  -12.5148  -20.0298 C   0  0  0  0  0  0  0  0  0  0  0  0
   19.2870  -12.8056  -20.1474 O   0  0  0  0  0  0  0  0  0  0  0  0
   15.3644  -15.8917  -16.1620 O   0  0  0  0  0  0  0  0  0  0  0  0
   14.1742   -6.5555  -22.7873 O   0  0  0  0  0  0  0  0  0  0  0  0
   15.3032   -7.2912  -22.4622 C   0  0  0  0  0  0  0  0  0  0  0  0
   15.4028   -8.6387  -22.7939 C   0  0  0  0  0  0  0  0  0  0  0  0
   16.5331   -9.3923  -22.4734 C   0  0  0  0  0  0  0  0  0  0  0  0
   17.5821   -8.7948  -21.8110 C   0  0  0  0  0  0  0  0  0  0  0  0
   18.7870   -9.5632  -21.4483 C   0  0  0  0  0  0  0  0  0  0  0  0
   18.7787  -10.1429  -20.0703 C   0  0  2  0  0  0  0  0  0  0  0  0
   17.7008  -11.1392  -19.9750 N   0  0  0  0  0  0  0  0  0  0  0  0
   18.4441   -9.0841  -19.0927 C   0  0  0  0  0  0  0  0  0  0  0  0
   17.3751   -9.1819  -18.4447 O   0  0  0  0  0  0  0  0  0  0  0  0
   17.4764   -7.4591  -21.4856 C   0  0  0  0  0  0  0  0  0  0  0  0
   16.3568   -6.7121  -21.8032 C   0  0  0  0  0  0  0  0  0  0  0  0
   19.2441   -7.9817  -18.8455 O   0  0  0  0  0  0  0  0  0  0  0  0
  2  1  1  6
  2  3  1  0
  4  3  1  0
  5  4  1  0
  6  5  1  0
  7  6  1  0
  8  2  1  0
  9  8  2  0
 10  8  1  0
 11 10  1  0
 11 12  1  1
 13 14  1  0
 13 12  1  0
 14 15  2  0
 16 11  1  0
 16 17  2  0
 18 14  1  0
 20 19  1  0
 21 20  2  0
 22 21  1  0
 23 22  2  0
 23 29  1  0
 25 24  1  6
 24 23  1  0
 25 26  1  0
 26 16  1  0
 27 25  1  0
 28 27  2  0
 29 30  2  0
 30 20  1  0
 31 27  1  0
M  END
$$$$
