KEY.pdb
     RDKit          3D

 31 31  0  0  1  0  0  0  0  0999 V2000
   24.8152  -35.6267   -6.2923 N   0  0  0  0  0  0  0  0  0  0  0  0
   25.2290  -34.4136   -5.6133 C   0  0  1  0  0  0  0  0  0  0  0  0
   24.7394  -33.1622   -6.3325 C   0  0  0  0  0  0  0  0  0  0  0  0
   25.7176  -32.8472   -7.4415 C   0  0  0  0  0  0  0  0  0  0  0  0
   25.5857  -33.7708   -8.6084 C   0  0  0  0  0  0  0  0  0  0  0  0
   26.4956  -33.4121   -9.7560 C   0  0  0  0  0  0  0  0  0  0  0  0
   26.2727  -34.2009  -10.9249 N   0  0  0  0  0  0  0  0  0  0  0  0
   24.8210  -34.4370   -4.2072 C   0  0  0  0  0  0  0  0  0  0  0  0
   23.6081  -34.6140   -3.9063 O   0  0  0  0  0  0  0  0  0  0  0  0
   25.7551  -34.2655   -3.1687 N   0  0  0  0  0  0  0  0  0  0  0  0
   25.4249  -34.1583   -1.7591 C   0  0  1  0  0  0  0  0  0  0  0  0
   26.5978  -34.3674   -0.8789 C   0  0  0  0  0  0  0  0  0  0  0  0
   26.4477  -34.2367    0.5750 C   0  0  0  0  0  0  0  0  0  0  0  0
   27.6102  -34.3606    1.4494 C   0  0  0  0  0  0  0  0  0  0  0  0
   28.5973  -33.6279    1.5539 O   0  0  0  0  0  0  0  0  0  0  0  0
   24.6543  -32.9504   -1.5065 C   0  0  0  0  0  0  0  0  0  0  0  0
   24.8972  -31.8896   -2.1790 O   0  0  0  0  0  0  0  0  0  0  0  0
   27.6434  -35.4921    2.3331 O   0  0  0  0  0  0  0  0  0  0  0  0
   18.6758  -26.8295   -1.2092 O   0  0  0  0  0  0  0  0  0  0  0  0
   19.5328  -27.9152   -1.3011 C   0  0  0  0  0  0  0  0  0  0  0  0
   20.8226  -27.7720   -1.8025 C   0  0  0  0  0  0  0  0  0  0  0  0
   21.6967  -28.8558   -1.9010 C   0  0  0  0  0  0  0  0  0  0  0  0
   21.2799  -30.1035   -1.4939 C   0  0  0  0  0  0  0  0  0  0  0  0
   22.1736  -31.2719   -1.5929 C   0  0  0  0  0  0  0  0  0  0  0  0
   22.9220  -31.6058   -0.3426 C   0  0  2  0  0  0  0  0  0  0  0  0
   23.6254  -32.8839   -0.5308 N   0  0  0  0  0  0  0  0  0  0  0  0
   21.9625  -31.8263    0.7617 C   0  0  0  0  0  0  0  0  0  0  0  0
   21.2026  -30.8856    1.0931 O   0  0  0  0  0  0  0  0  0  0  0  0
   20.0004  -30.2377   -0.9980 C   0  0  0  0  0  0  0  0  0  0  0  0
   19.1342  -29.1642   -0.9001 C   0  0  0  0  0  0  0  0  0  0  0  0
   21.8491  -33.0169    1.4590 O   0  0  0  0  0  0  0  0  0  0  0  0
  2  1  1  6
  2  3  1  0
  4  3  1  0
  5  4  1  0
  6  5  1  0
  7  6  1  0
  8  2  1  0
  9  8  2  0
 10  8  1  0
 11 10  1  0
 11 12  1  1
 13 14  1  0
 13 12  1  0
 14 15  2  0
 16 11  1  0
 16 17  2  0
 18 14  1  0
 20 19  1  0
 21 20  2  0
 22 21  1  0
 23 22  2  0
 23 29  1  0
 25 24  1  6
 24 23  1  0
 25 26  1  0
 26 16  1  0
 27 25  1  0
 28 27  2  0
 29 30  2  0
 30 20  1  0
 31 27  1  0
M  END
$$$$
