KEY.pdb
     RDKit          3D

 31 31  0  0  1  0  0  0  0  0999 V2000
   33.4447  -37.5228   -7.9982 N   0  0  0  0  0  0  0  0  0  0  0  0
   33.3600  -36.3927   -7.0929 C   0  0  1  0  0  0  0  0  0  0  0  0
   33.6114  -35.0699   -7.8071 C   0  0  0  0  0  0  0  0  0  0  0  0
   34.9870  -35.1295   -8.4314 C   0  0  0  0  0  0  0  0  0  0  0  0
   34.9664  -34.8666   -9.9020 C   0  0  0  0  0  0  0  0  0  0  0  0
   35.1562  -33.4114  -10.2483 C   0  0  0  0  0  0  0  0  0  0  0  0
   35.3586  -33.1816  -11.6427 N   0  0  0  0  0  0  0  0  0  0  0  0
   32.0861  -36.3963   -6.3708 C   0  0  0  0  0  0  0  0  0  0  0  0
   30.9989  -36.4070   -7.0119 O   0  0  0  0  0  0  0  0  0  0  0  0
   32.0394  -36.3880   -4.9643 N   0  0  0  0  0  0  0  0  0  0  0  0
   30.8251  -36.4290   -4.1699 C   0  0  1  0  0  0  0  0  0  0  0  0
   30.9445  -37.3124   -2.9869 C   0  0  0  0  0  0  0  0  0  0  0  0
   29.8419  -37.3870   -2.0214 C   0  0  0  0  0  0  0  0  0  0  0  0
   29.9660  -38.2133   -0.8243 C   0  0  0  0  0  0  0  0  0  0  0  0
   29.6675  -37.9543    0.3445 O   0  0  0  0  0  0  0  0  0  0  0  0
   30.3435  -35.0820   -3.9049 C   0  0  0  0  0  0  0  0  0  0  0  0
   31.0354  -34.2923   -3.1738 O   0  0  0  0  0  0  0  0  0  0  0  0
   30.5131  -39.5301   -0.9950 O   0  0  0  0  0  0  0  0  0  0  0  0
   25.9140  -33.1133   -9.7758 O   0  0  0  0  0  0  0  0  0  0  0  0
   26.6188  -32.9053   -8.6005 C   0  0  0  0  0  0  0  0  0  0  0  0
   26.0622  -32.1883   -7.5461 C   0  0  0  0  0  0  0  0  0  0  0  0
   26.7596  -31.9708   -6.3568 C   0  0  0  0  0  0  0  0  0  0  0  0
   28.0330  -32.4752   -6.2144 C   0  0  0  0  0  0  0  0  0  0  0  0
   28.8020  -32.2561   -4.9757 C   0  0  0  0  0  0  0  0  0  0  0  0
   28.6161  -33.2990   -3.9208 C   0  0  2  0  0  0  0  0  0  0  0  0
   29.1190  -34.5863   -4.4243 N   0  0  0  0  0  0  0  0  0  0  0  0
   27.1711  -33.4944   -3.6708 C   0  0  0  0  0  0  0  0  0  0  0  0
   26.6399  -34.5713   -4.0319 O   0  0  0  0  0  0  0  0  0  0  0  0
   28.5781  -33.1849   -7.2634 C   0  0  0  0  0  0  0  0  0  0  0  0
   27.8873  -33.4007   -8.4418 C   0  0  0  0  0  0  0  0  0  0  0  0
   26.3603  -32.5547   -3.0576 O   0  0  0  0  0  0  0  0  0  0  0  0
  2  1  1  6
  2  3  1  0
  4  3  1  0
  5  4  1  0
  6  5  1  0
  7  6  1  0
  8  2  1  0
  9  8  2  0
 10  8  1  0
 11 10  1  0
 11 12  1  1
 13 14  1  0
 13 12  1  0
 14 15  2  0
 16 11  1  0
 16 17  2  0
 18 14  1  0
 20 19  1  0
 21 20  2  0
 22 21  1  0
 23 22  2  0
 23 29  1  0
 25 24  1  6
 24 23  1  0
 25 26  1  0
 26 16  1  0
 27 25  1  0
 28 27  2  0
 29 30  2  0
 30 20  1  0
 31 27  1  0
M  END
$$$$
