KEY.pdb
     RDKit          3D

 31 31  0  0  1  0  0  0  0  0999 V2000
   15.3539  -11.3977  -13.8051 N   0  0  0  0  0  0  0  0  0  0  0  0
   15.8183  -10.5416  -14.8800 C   0  0  1  0  0  0  0  0  0  0  0  0
   14.8713   -9.3734  -15.1282 C   0  0  0  0  0  0  0  0  0  0  0  0
   13.5231   -9.9382  -15.5144 C   0  0  0  0  0  0  0  0  0  0  0  0
   13.3359  -10.0275  -16.9939 C   0  0  0  0  0  0  0  0  0  0  0  0
   11.9465  -10.4570  -17.3924 C   0  0  0  0  0  0  0  0  0  0  0  0
   11.7561  -10.5223  -18.8058 N   0  0  0  0  0  0  0  0  0  0  0  0
   17.1918  -10.0962  -14.6367 C   0  0  0  0  0  0  0  0  0  0  0  0
   17.5367   -9.7206  -13.4821 O   0  0  0  0  0  0  0  0  0  0  0  0
   18.1502  -10.0750  -15.6670 N   0  0  0  0  0  0  0  0  0  0  0  0
   19.5204   -9.6178  -15.5222 C   0  0  1  0  0  0  0  0  0  0  0  0
   20.4580  -10.3243  -16.4255 C   0  0  0  0  0  0  0  0  0  0  0  0
   21.8834   -9.9758  -16.4102 C   0  0  0  0  0  0  0  0  0  0  0  0
   22.8076  -10.6143  -17.3426 C   0  0  0  0  0  0  0  0  0  0  0  0
   23.6693  -10.1082  -18.0662 O   0  0  0  0  0  0  0  0  0  0  0  0
   19.5800   -8.1648  -15.5627 C   0  0  0  0  0  0  0  0  0  0  0  0
   18.7829   -7.5173  -16.3256 O   0  0  0  0  0  0  0  0  0  0  0  0
   22.7307  -12.0434  -17.4608 O   0  0  0  0  0  0  0  0  0  0  0  0
   21.2076    0.3424  -13.7727 O   0  0  0  0  0  0  0  0  0  0  0  0
   21.1758   -1.0434  -13.7561 C   0  0  0  0  0  0  0  0  0  0  0  0
   22.2894   -1.7922  -14.1234 C   0  0  0  0  0  0  0  0  0  0  0  0
   22.2723   -3.1878  -14.1117 C   0  0  0  0  0  0  0  0  0  0  0  0
   21.1272   -3.8497  -13.7282 C   0  0  0  0  0  0  0  0  0  0  0  0
   21.0710   -5.3229  -13.7134 C   0  0  0  0  0  0  0  0  0  0  0  0
   20.5202   -5.9492  -14.9541 C   0  0  2  0  0  0  0  0  0  0  0  0
   20.4969   -7.4101  -14.7849 N   0  0  0  0  0  0  0  0  0  0  0  0
   21.4338   -5.6837  -16.0870 C   0  0  0  0  0  0  0  0  0  0  0  0
   22.4420   -6.4155  -16.2290 O   0  0  0  0  0  0  0  0  0  0  0  0
   20.0277   -3.1010  -13.3654 C   0  0  0  0  0  0  0  0  0  0  0  0
   20.0443   -1.7183  -13.3768 C   0  0  0  0  0  0  0  0  0  0  0  0
   21.2444   -4.6687  -17.0093 O   0  0  0  0  0  0  0  0  0  0  0  0
  2  1  1  1
  2  3  1  0
  4  3  1  0
  5  4  1  0
  6  5  1  0
  7  6  1  0
  8  2  1  0
  9  8  2  0
 10  8  1  0
 11 10  1  0
 11 12  1  6
 13 14  1  0
 13 12  1  0
 14 15  2  0
 16 11  1  0
 16 17  2  0
 18 14  1  0
 20 19  1  0
 21 20  2  0
 22 21  1  0
 23 22  2  0
 23 29  1  0
 25 24  1  1
 24 23  1  0
 25 26  1  0
 26 16  1  0
 27 25  1  0
 28 27  2  0
 29 30  2  0
 30 20  1  0
 31 27  1  0
M  END
$$$$
