KEY.pdb
     RDKit          3D

 31 31  0  0  1  0  0  0  0  0999 V2000
   24.9807  -26.3625  -20.1585 N   0  0  0  0  0  0  0  0  0  0  0  0
   25.9637  -26.0904  -19.1272 C   0  0  1  0  0  0  0  0  0  0  0  0
   27.3759  -26.4454  -19.5775 C   0  0  0  0  0  0  0  0  0  0  0  0
   27.4914  -27.9525  -19.6102 C   0  0  0  0  0  0  0  0  0  0  0  0
   27.7636  -28.5409  -18.2642 C   0  0  0  0  0  0  0  0  0  0  0  0
   27.8737  -30.0446  -18.2841 C   0  0  0  0  0  0  0  0  0  0  0  0
   28.2802  -30.6005  -17.0335 N   0  0  0  0  0  0  0  0  0  0  0  0
   25.8645  -24.7050  -18.6635 C   0  0  0  0  0  0  0  0  0  0  0  0
   26.8313  -24.1761  -18.0483 O   0  0  0  0  0  0  0  0  0  0  0  0
   24.7067  -23.9370  -18.8877 N   0  0  0  0  0  0  0  0  0  0  0  0
   24.5137  -22.5693  -18.4408 C   0  0  1  0  0  0  0  0  0  0  0  0
   23.5451  -21.8247  -19.2784 C   0  0  0  0  0  0  0  0  0  0  0  0
   23.9292  -21.3992  -20.6293 C   0  0  0  0  0  0  0  0  0  0  0  0
   23.0042  -20.6198  -21.4466 C   0  0  0  0  0  0  0  0  0  0  0  0
   21.8552  -20.2471  -21.1956 O   0  0  0  0  0  0  0  0  0  0  0  0
   24.2678  -22.5312  -17.0074 C   0  0  0  0  0  0  0  0  0  0  0  0
   23.6383  -23.4927  -16.4451 O   0  0  0  0  0  0  0  0  0  0  0  0
   23.4672  -20.2081  -22.7422 O   0  0  0  0  0  0  0  0  0  0  0  0
   24.8472  -20.8080   -8.3607 O   0  0  0  0  0  0  0  0  0  0  0  0
   25.0316  -20.8692   -9.7332 C   0  0  0  0  0  0  0  0  0  0  0  0
   24.8998  -19.7345  -10.5273 C   0  0  0  0  0  0  0  0  0  0  0  0
   25.0826  -19.7807  -11.9103 C   0  0  0  0  0  0  0  0  0  0  0  0
   25.4017  -20.9768  -12.5134 C   0  0  0  0  0  0  0  0  0  0  0  0
   25.5923  -21.0638  -13.9729 C   0  0  0  0  0  0  0  0  0  0  0  0
   24.3955  -21.5222  -14.7427 C   0  0  2  0  0  0  0  0  0  0  0  0
   24.6970  -21.4598  -16.1810 N   0  0  0  0  0  0  0  0  0  0  0  0
   23.2759  -20.5814  -14.5187 C   0  0  0  0  0  0  0  0  0  0  0  0
   22.6591  -20.6316  -13.4282 O   0  0  0  0  0  0  0  0  0  0  0  0
   25.5308  -22.0971  -11.7201 C   0  0  0  0  0  0  0  0  0  0  0  0
   25.3499  -22.0517  -10.3499 C   0  0  0  0  0  0  0  0  0  0  0  0
   22.8622  -19.6400  -15.4455 O   0  0  0  0  0  0  0  0  0  0  0  0
  2  1  1  6
  2  3  1  0
  4  3  1  0
  5  4  1  0
  6  5  1  0
  7  6  1  0
  8  2  1  0
  9  8  2  0
 10  8  1  0
 11 10  1  0
 11 12  1  6
 13 14  1  0
 13 12  1  0
 14 15  2  0
 16 11  1  0
 16 17  2  0
 18 14  1  0
 20 19  1  0
 21 20  2  0
 22 21  1  0
 23 22  2  0
 23 29  1  0
 25 24  1  1
 24 23  1  0
 25 26  1  0
 26 16  1  0
 27 25  1  0
 28 27  2  0
 29 30  2  0
 30 20  1  0
 31 27  1  0
M  END
$$$$
