KEY.pdb
     RDKit          3D

 31 31  0  0  1  0  0  0  0  0999 V2000
   18.8695  -13.9714  -18.9876 N   0  0  0  0  0  0  0  0  0  0  0  0
   19.5164  -13.7632  -17.7062 C   0  0  1  0  0  0  0  0  0  0  0  0
   20.6081  -14.7940  -17.4444 C   0  0  0  0  0  0  0  0  0  0  0  0
   19.9685  -16.1639  -17.4482 C   0  0  0  0  0  0  0  0  0  0  0  0
   20.9357  -17.2545  -17.1205 C   0  0  0  0  0  0  0  0  0  0  0  0
   20.3318  -18.6329  -17.2159 C   0  0  0  0  0  0  0  0  0  0  0  0
   21.2779  -19.6824  -17.0121 N   0  0  0  0  0  0  0  0  0  0  0  0
   20.0139  -12.3910  -17.5890 C   0  0  0  0  0  0  0  0  0  0  0  0
   20.8454  -11.9488  -18.4293 O   0  0  0  0  0  0  0  0  0  0  0  0
   19.5853  -11.5407  -16.5528 N   0  0  0  0  0  0  0  0  0  0  0  0
   20.0993  -10.2062  -16.3026 C   0  0  1  0  0  0  0  0  0  0  0  0
   19.2560   -9.4355  -15.3598 C   0  0  0  0  0  0  0  0  0  0  0  0
   17.8545   -9.1601  -15.6969 C   0  0  0  0  0  0  0  0  0  0  0  0
   17.0005   -8.4358  -14.7603 C   0  0  0  0  0  0  0  0  0  0  0  0
   15.9206   -8.7665  -14.2635 O   0  0  0  0  0  0  0  0  0  0  0  0
   21.5175  -10.2579  -15.9824 C   0  0  0  0  0  0  0  0  0  0  0  0
   21.9438  -11.1016  -15.1204 O   0  0  0  0  0  0  0  0  0  0  0  0
   17.4534   -7.1422  -14.3315 O   0  0  0  0  0  0  0  0  0  0  0  0
   30.1320  -11.0914  -16.2674 O   0  0  0  0  0  0  0  0  0  0  0  0
   28.7715  -10.9401  -16.4854 C   0  0  0  0  0  0  0  0  0  0  0  0
   28.2935  -10.1235  -17.5053 C   0  0  0  0  0  0  0  0  0  0  0  0
   26.9267   -9.9613  -17.7368 C   0  0  0  0  0  0  0  0  0  0  0  0
   26.0198  -10.6230  -16.9393 C   0  0  0  0  0  0  0  0  0  0  0  0
   24.5688  -10.4671  -17.1495 C   0  0  0  0  0  0  0  0  0  0  0  0
   23.8853   -9.5422  -16.1943 C   0  0  2  0  0  0  0  0  0  0  0  0
   22.4749   -9.4022  -16.5877 N   0  0  0  0  0  0  0  0  0  0  0  0
   24.4772   -8.1912  -16.3082 C   0  0  0  0  0  0  0  0  0  0  0  0
   25.6420   -8.0085  -15.8814 O   0  0  0  0  0  0  0  0  0  0  0  0
   26.5008  -11.4306  -15.9305 C   0  0  0  0  0  0  0  0  0  0  0  0
   27.8549  -11.5916  -15.7011 C   0  0  0  0  0  0  0  0  0  0  0  0
   23.8205   -7.1053  -16.8615 O   0  0  0  0  0  0  0  0  0  0  0  0
  2  1  1  6
  2  3  1  0
  4  3  1  0
  5  4  1  0
  6  5  1  0
  7  6  1  0
  8  2  1  0
  9  8  2  0
 10  8  1  0
 11 10  1  0
 11 12  1  1
 13 14  1  0
 13 12  1  0
 14 15  2  0
 16 11  1  0
 16 17  2  0
 18 14  1  0
 20 19  1  0
 21 20  2  0
 22 21  1  0
 23 22  2  0
 23 29  1  0
 25 24  1  6
 24 23  1  0
 25 26  1  0
 26 16  1  0
 27 25  1  0
 28 27  2  0
 29 30  2  0
 30 20  1  0
 31 27  1  0
M  END
$$$$
