KEY.pdb
     RDKit          3D

 31 31  0  0  1  0  0  0  0  0999 V2000
   25.0777  -10.2237  -18.5239 N   0  0  0  0  0  0  0  0  0  0  0  0
   24.3299  -11.2448  -17.8153 C   0  0  1  0  0  0  0  0  0  0  0  0
   25.2467  -12.2646  -17.1500 C   0  0  0  0  0  0  0  0  0  0  0  0
   26.2881  -12.6871  -18.1613 C   0  0  0  0  0  0  0  0  0  0  0  0
   27.1523  -13.8024  -17.6698 C   0  0  0  0  0  0  0  0  0  0  0  0
   27.0045  -15.0682  -18.4758 C   0  0  0  0  0  0  0  0  0  0  0  0
   28.1128  -15.3243  -19.3385 N   0  0  0  0  0  0  0  0  0  0  0  0
   23.3940  -10.6415  -16.8644 C   0  0  0  0  0  0  0  0  0  0  0  0
   22.7221  -11.3769  -16.0893 O   0  0  0  0  0  0  0  0  0  0  0  0
   23.2205   -9.2469  -16.7895 N   0  0  0  0  0  0  0  0  0  0  0  0
   22.3049   -8.5674  -15.8909 C   0  0  1  0  0  0  0  0  0  0  0  0
   22.5897   -7.1188  -15.7715 C   0  0  0  0  0  0  0  0  0  0  0  0
   21.7453   -6.2806  -14.9124 C   0  0  0  0  0  0  0  0  0  0  0  0
   21.9102   -4.8301  -14.9076 C   0  0  0  0  0  0  0  0  0  0  0  0
   21.6030   -4.0008  -15.7679 O   0  0  0  0  0  0  0  0  0  0  0  0
   20.9281   -8.9155  -16.2070 C   0  0  0  0  0  0  0  0  0  0  0  0
   20.5481   -8.9593  -17.4278 O   0  0  0  0  0  0  0  0  0  0  0  0
   22.5170   -4.2469  -13.7439 O   0  0  0  0  0  0  0  0  0  0  0  0
   13.1305  -12.8492  -16.5398 O   0  0  0  0  0  0  0  0  0  0  0  0
   14.4105  -12.4033  -16.2495 C   0  0  0  0  0  0  0  0  0  0  0  0
   14.6996  -11.7901  -15.0346 C   0  0  0  0  0  0  0  0  0  0  0  0
   15.9834  -11.3361  -14.7282 C   0  0  0  0  0  0  0  0  0  0  0  0
   16.9969  -11.4946  -15.6469 C   0  0  0  0  0  0  0  0  0  0  0  0
   18.3624  -11.0181  -15.3602 C   0  0  0  0  0  0  0  0  0  0  0  0
   18.6008   -9.5693  -15.6416 C   0  0  2  0  0  0  0  0  0  0  0  0
   19.9617   -9.2142  -15.2110 N   0  0  0  0  0  0  0  0  0  0  0  0
   17.6848   -8.7505  -14.8176 C   0  0  0  0  0  0  0  0  0  0  0  0
   18.0861   -8.3387  -13.7033 O   0  0  0  0  0  0  0  0  0  0  0  0
   16.7030  -12.1032  -16.8487 C   0  0  0  0  0  0  0  0  0  0  0  0
   15.4313  -12.5533  -17.1524 C   0  0  0  0  0  0  0  0  0  0  0  0
   16.4002   -8.4065  -15.2025 O   0  0  0  0  0  0  0  0  0  0  0  0
  2  1  1  1
  2  3  1  0
  4  3  1  0
  5  4  1  0
  6  5  1  0
  7  6  1  0
  8  2  1  0
  9  8  2  0
 10  8  1  0
 11 10  1  0
 11 12  1  6
 13 14  1  0
 13 12  1  0
 14 15  2  0
 16 11  1  0
 16 17  2  0
 18 14  1  0
 20 19  1  0
 21 20  2  0
 22 21  1  0
 23 22  2  0
 23 29  1  0
 25 24  1  1
 24 23  1  0
 25 26  1  0
 26 16  1  0
 27 25  1  0
 28 27  2  0
 29 30  2  0
 30 20  1  0
 31 27  1  0
M  END
$$$$
