KEY.pdb
     RDKit          3D

 31 31  0  0  1  0  0  0  0  0999 V2000
   20.9836  -13.6041  -16.2461 N   0  0  0  0  0  0  0  0  0  0  0  0
   20.8590  -13.0061  -17.5617 C   0  0  1  0  0  0  0  0  0  0  0  0
   19.9195  -13.7995  -18.4621 C   0  0  0  0  0  0  0  0  0  0  0  0
   19.8269  -15.2067  -17.9171 C   0  0  0  0  0  0  0  0  0  0  0  0
   20.0067  -16.2486  -18.9728 C   0  0  0  0  0  0  0  0  0  0  0  0
   19.7994  -17.6527  -18.4635 C   0  0  0  0  0  0  0  0  0  0  0  0
   19.9129  -18.6479  -19.4808 N   0  0  0  0  0  0  0  0  0  0  0  0
   20.4682  -11.5985  -17.4606 C   0  0  0  0  0  0  0  0  0  0  0  0
   20.3268  -10.9075  -18.5074 O   0  0  0  0  0  0  0  0  0  0  0  0
   20.2429  -10.9868  -16.2134 N   0  0  0  0  0  0  0  0  0  0  0  0
   19.8603   -9.5996  -16.0218 C   0  0  1  0  0  0  0  0  0  0  0  0
   18.7277   -9.4431  -15.0800 C   0  0  0  0  0  0  0  0  0  0  0  0
   17.4479  -10.1014  -15.3668 C   0  0  0  0  0  0  0  0  0  0  0  0
   16.2989   -9.8904  -14.4913 C   0  0  0  0  0  0  0  0  0  0  0  0
   16.0835  -10.3268  -13.3575 O   0  0  0  0  0  0  0  0  0  0  0  0
   21.0306   -8.7819  -15.7421 C   0  0  0  0  0  0  0  0  0  0  0  0
   22.0133   -9.2804  -15.0922 O   0  0  0  0  0  0  0  0  0  0  0  0
   15.2426   -9.0560  -14.9916 O   0  0  0  0  0  0  0  0  0  0  0  0
   27.1612   -2.4196  -16.5357 O   0  0  0  0  0  0  0  0  0  0  0  0
   26.1035   -3.3022  -16.6903 C   0  0  0  0  0  0  0  0  0  0  0  0
   24.8127   -2.9508  -16.3084 C   0  0  0  0  0  0  0  0  0  0  0  0
   23.7379   -3.8287  -16.4580 C   0  0  0  0  0  0  0  0  0  0  0  0
   23.9514   -5.0779  -16.9966 C   0  0  0  0  0  0  0  0  0  0  0  0
   22.8409   -6.0339  -17.1599 C   0  0  0  0  0  0  0  0  0  0  0  0
   22.4066   -6.7220  -15.9058 C   0  0  2  0  0  0  0  0  0  0  0  0
   21.1424   -7.4297  -16.1596 N   0  0  0  0  0  0  0  0  0  0  0  0
   22.1077   -5.7112  -14.8677 C   0  0  0  0  0  0  0  0  0  0  0  0
   20.9479   -5.2387  -14.8066 O   0  0  0  0  0  0  0  0  0  0  0  0
   25.2333   -5.4191  -17.3729 C   0  0  0  0  0  0  0  0  0  0  0  0
   26.2983   -4.5496  -17.2250 C   0  0  0  0  0  0  0  0  0  0  0  0
   23.0363   -5.2495  -13.9506 O   0  0  0  0  0  0  0  0  0  0  0  0
  2  1  1  1
  2  3  1  0
  4  3  1  0
  5  4  1  0
  6  5  1  0
  7  6  1  0
  8  2  1  0
  9  8  2  0
 10  8  1  0
 11 10  1  0
 11 12  1  1
 13 14  1  0
 13 12  1  0
 14 15  2  0
 16 11  1  0
 16 17  2  0
 18 14  1  0
 20 19  1  0
 21 20  2  0
 22 21  1  0
 23 22  2  0
 23 29  1  0
 25 24  1  6
 24 23  1  0
 25 26  1  0
 26 16  1  0
 27 25  1  0
 28 27  2  0
 29 30  2  0
 30 20  1  0
 31 27  1  0
M  END
$$$$
