KEY.pdb
     RDKit          3D

 31 31  0  0  1  0  0  0  0  0999 V2000
   22.3516  -13.2430  -16.5604 N   0  0  0  0  0  0  0  0  0  0  0  0
   22.6811  -12.6895  -17.8600 C   0  0  1  0  0  0  0  0  0  0  0  0
   22.1049  -13.5239  -18.9979 C   0  0  0  0  0  0  0  0  0  0  0  0
   22.5642  -14.9520  -18.8097 C   0  0  0  0  0  0  0  0  0  0  0  0
   21.9614  -15.8891  -19.8050 C   0  0  0  0  0  0  0  0  0  0  0  0
   22.4575  -17.3060  -19.6635 C   0  0  0  0  0  0  0  0  0  0  0  0
   21.8331  -18.2187  -20.5664 N   0  0  0  0  0  0  0  0  0  0  0  0
   22.2775  -11.2846  -17.9469 C   0  0  0  0  0  0  0  0  0  0  0  0
   22.3819  -10.6660  -19.0422 O   0  0  0  0  0  0  0  0  0  0  0  0
   21.7699  -10.5960  -16.8295 N   0  0  0  0  0  0  0  0  0  0  0  0
   21.1977   -9.2622  -16.8609 C   0  0  1  0  0  0  0  0  0  0  0  0
   19.8725   -9.1922  -16.2029 C   0  0  0  0  0  0  0  0  0  0  0  0
   18.8129  -10.1257  -16.6020 C   0  0  0  0  0  0  0  0  0  0  0  0
   18.1042  -10.9095  -15.5947 C   0  0  0  0  0  0  0  0  0  0  0  0
   18.2180  -12.1031  -15.3036 O   0  0  0  0  0  0  0  0  0  0  0  0
   22.1739   -8.2782  -16.4190 C   0  0  0  0  0  0  0  0  0  0  0  0
   22.7798   -8.4407  -15.3040 O   0  0  0  0  0  0  0  0  0  0  0  0
   17.1207  -10.2213  -14.8063 O   0  0  0  0  0  0  0  0  0  0  0  0
   26.9377   -0.7729  -15.9247 O   0  0  0  0  0  0  0  0  0  0  0  0
   26.1971   -1.8638  -16.3527 C   0  0  0  0  0  0  0  0  0  0  0  0
   26.8171   -3.0540  -16.7195 C   0  0  0  0  0  0  0  0  0  0  0  0
   26.0847   -4.1606  -17.1522 C   0  0  0  0  0  0  0  0  0  0  0  0
   24.7117   -4.0812  -17.2215 C   0  0  0  0  0  0  0  0  0  0  0  0
   23.9076   -5.2275  -17.6833 C   0  0  0  0  0  0  0  0  0  0  0  0
   23.4512   -6.1575  -16.6055 C   0  0  2  0  0  0  0  0  0  0  0  0
   22.4963   -7.1206  -17.1749 N   0  0  0  0  0  0  0  0  0  0  0  0
   22.7019   -5.3955  -15.5824 C   0  0  0  0  0  0  0  0  0  0  0  0
   21.4887   -5.1516  -15.7849 O   0  0  0  0  0  0  0  0  0  0  0  0
   24.1042   -2.8986  -16.8562 C   0  0  0  0  0  0  0  0  0  0  0  0
   24.8294   -1.8021  -16.4273 C   0  0  0  0  0  0  0  0  0  0  0  0
   23.2605   -4.9303  -14.4043 O   0  0  0  0  0  0  0  0  0  0  0  0
  2  1  1  1
  2  3  1  0
  4  3  1  0
  5  4  1  0
  6  5  1  0
  7  6  1  0
  8  2  1  0
  9  8  2  0
 10  8  1  0
 11 10  1  0
 11 12  1  1
 13 14  1  0
 13 12  1  0
 14 15  2  0
 16 11  1  0
 16 17  2  0
 18 14  1  0
 20 19  1  0
 21 20  2  0
 22 21  1  0
 23 22  2  0
 23 29  1  0
 25 24  1  6
 24 23  1  0
 25 26  1  0
 26 16  1  0
 27 25  1  0
 28 27  2  0
 29 30  2  0
 30 20  1  0
 31 27  1  0
M  END
$$$$
