KEY.pdb
     RDKit          3D

 31 31  0  0  1  0  0  0  0  0999 V2000
   28.6364  -36.1206   -4.2619 N   0  0  0  0  0  0  0  0  0  0  0  0
   27.8436  -36.7459   -3.2206 C   0  0  1  0  0  0  0  0  0  0  0  0
   28.7148  -37.4303   -2.1740 C   0  0  0  0  0  0  0  0  0  0  0  0
   29.7046  -38.3161   -2.8961 C   0  0  0  0  0  0  0  0  0  0  0  0
   30.6358  -39.0216   -1.9648 C   0  0  0  0  0  0  0  0  0  0  0  0
   31.6330  -39.9018   -2.6752 C   0  0  0  0  0  0  0  0  0  0  0  0
   32.5310  -40.5712   -1.7899 N   0  0  0  0  0  0  0  0  0  0  0  0
   26.9154  -35.7843   -2.6224 C   0  0  0  0  0  0  0  0  0  0  0  0
   27.2663  -35.1159   -1.6109 O   0  0  0  0  0  0  0  0  0  0  0  0
   25.6267  -35.5819   -3.1504 N   0  0  0  0  0  0  0  0  0  0  0  0
   24.6789  -34.5883   -2.6792 C   0  0  1  0  0  0  0  0  0  0  0  0
   23.7092  -34.1821   -3.7226 C   0  0  0  0  0  0  0  0  0  0  0  0
   24.1646  -33.3840   -4.8668 C   0  0  0  0  0  0  0  0  0  0  0  0
   25.0231  -33.9805   -5.8857 C   0  0  0  0  0  0  0  0  0  0  0  0
   25.4533  -35.1334   -5.9750 O   0  0  0  0  0  0  0  0  0  0  0  0
   24.1026  -34.9963   -1.4073 C   0  0  0  0  0  0  0  0  0  0  0  0
   24.4278  -36.1225   -0.8946 O   0  0  0  0  0  0  0  0  0  0  0  0
   25.4498  -33.1275   -6.9594 O   0  0  0  0  0  0  0  0  0  0  0  0
   21.4813  -37.4505    6.2529 O   0  0  0  0  0  0  0  0  0  0  0  0
   21.9854  -36.8762    5.0963 C   0  0  0  0  0  0  0  0  0  0  0  0
   22.0307  -35.4944    4.9410 C   0  0  0  0  0  0  0  0  0  0  0  0
   22.5354  -34.9018    3.7824 C   0  0  0  0  0  0  0  0  0  0  0  0
   23.0028  -35.6980    2.7607 C   0  0  0  0  0  0  0  0  0  0  0  0
   23.5336  -35.1058    1.5192 C   0  0  0  0  0  0  0  0  0  0  0  0
   22.5071  -34.7799    0.4824 C   0  0  2  0  0  0  0  0  0  0  0  0
   23.1769  -34.1948   -0.6891 N   0  0  0  0  0  0  0  0  0  0  0  0
   21.6000  -33.7320    1.0000 C   0  0  0  0  0  0  0  0  0  0  0  0
   21.5861  -32.6153    0.4300 O   0  0  0  0  0  0  0  0  0  0  0  0
   22.9549  -37.0665    2.9218 C   0  0  0  0  0  0  0  0  0  0  0  0
   22.4551  -37.6539    4.0696 C   0  0  0  0  0  0  0  0  0  0  0  0
   20.7573  -33.9080    2.0842 O   0  0  0  0  0  0  0  0  0  0  0  0
  2  1  1  6
  2  3  1  0
  4  3  1  0
  5  4  1  0
  6  5  1  0
  7  6  1  0
  8  2  1  0
  9  8  2  0
 10  8  1  0
 11 10  1  0
 11 12  1  6
 13 14  1  0
 13 12  1  0
 14 15  2  0
 16 11  1  0
 16 17  2  0
 18 14  1  0
 20 19  1  0
 21 20  2  0
 22 21  1  0
 23 22  2  0
 23 29  1  0
 25 24  1  1
 24 23  1  0
 25 26  1  0
 26 16  1  0
 27 25  1  0
 28 27  2  0
 29 30  2  0
 30 20  1  0
 31 27  1  0
M  END
$$$$
