DVV.pdb
     RDKit          3D

 23 22  0  0  1  0  0  0  0  0999 V2000
   33.6849  -25.7306  -14.9275 N   0  0  0  0  0  0  0  0  0  0  0  0
   33.0235  -25.8449  -16.2143 C   0  0  1  0  0  0  0  0  0  0  0  0
   33.6924  -26.9890  -16.9448 C   0  0  0  0  0  0  0  0  0  0  0  0
   33.1990  -27.0231  -18.3369 C   0  0  0  0  0  0  0  0  0  0  0  0
   32.5944  -26.0702  -18.8574 O   0  0  0  0  0  0  0  0  0  0  0  0
   31.5813  -26.0964  -15.9980 C   0  0  0  0  0  0  0  0  0  0  0  0
   31.1938  -26.8381  -15.0589 O   0  0  0  0  0  0  0  0  0  0  0  0
   33.4200  -28.1642  -19.0900 O   0  0  0  0  0  0  0  0  0  0  0  0
   27.0334  -24.3723  -16.5502 C   0  0  0  0  0  0  0  0  0  0  0  0
   28.5306  -24.2434  -16.7924 C   0  0  1  0  0  0  0  0  0  0  0  0
   29.1254  -23.1850  -15.9186 C   0  0  0  0  0  0  0  0  0  0  0  0
   29.1574  -25.6208  -16.5358 C   0  0  2  0  0  0  0  0  0  0  0  0
   30.5649  -25.5242  -16.8247 N   0  0  0  0  0  0  0  0  0  0  0  0
   28.4542  -26.5614  -17.4440 C   0  0  0  0  0  0  0  0  0  0  0  0
   28.5295  -26.4149  -18.6920 O   0  0  0  0  0  0  0  0  0  0  0  0
   28.5071  -30.5451  -17.3309 C   0  0  0  0  0  0  0  0  0  0  0  0
   27.0851  -30.0152  -17.3105 C   0  0  1  0  0  0  0  0  0  0  0  0
   26.4607  -30.1668  -15.9422 C   0  0  0  0  0  0  0  0  0  0  0  0
   27.0159  -28.6033  -17.8277 C   0  0  2  0  0  0  0  0  0  0  0  0
   27.6763  -27.6522  -16.9766 N   0  0  0  0  0  0  0  0  0  0  0  0
   25.5844  -28.2220  -17.9217 C   0  0  0  0  0  0  0  0  0  0  0  0
   24.8189  -28.5186  -19.0403 O   0  0  0  0  0  0  0  0  0  0  0  0
   25.0129  -27.6137  -16.9867 O   0  0  0  0  0  0  0  0  0  0  0  0
  2  1  1  1
  3  2  1  0
  4  3  1  0
  4  8  1  0
  5  4  2  0
  6  2  1  0
  7  6  2  0
 10  9  1  1
 10 11  1  0
 12 13  1  6
 12 10  1  0
 13  6  1  0
 14 12  1  0
 15 14  2  0
 17 18  1  1
 17 19  1  0
 17 16  1  0
 19 20  1  1
 20 14  1  0
 21 22  1  0
 21 19  1  0
 23 21  2  0
M  END
$$$$
