DVV.pdb
     RDKit          3D

 23 22  0  0  1  0  0  0  0  0999 V2000
   22.7243  -12.0381  -20.0822 N   0  0  0  0  0  0  0  0  0  0  0  0
   23.1664  -10.7611  -19.5526 C   0  0  1  0  0  0  0  0  0  0  0  0
   23.0912   -9.7698  -20.6935 C   0  0  0  0  0  0  0  0  0  0  0  0
   24.1006  -10.1309  -21.7099 C   0  0  0  0  0  0  0  0  0  0  0  0
   23.8745  -10.0703  -22.9304 O   0  0  0  0  0  0  0  0  0  0  0  0
   22.2890  -10.3733  -18.4258 C   0  0  0  0  0  0  0  0  0  0  0  0
   21.0659  -10.6669  -18.4353 O   0  0  0  0  0  0  0  0  0  0  0  0
   25.3484  -10.5540  -21.2828 O   0  0  0  0  0  0  0  0  0  0  0  0
   21.9890   -9.0541  -13.6938 C   0  0  0  0  0  0  0  0  0  0  0  0
   22.8255   -9.4950  -14.8866 C   0  0  1  0  0  0  0  0  0  0  0  0
   23.3181  -10.8958  -14.7069 C   0  0  0  0  0  0  0  0  0  0  0  0
   21.9511   -9.3486  -16.1396 C   0  0  2  0  0  0  0  0  0  0  0  0
   22.7681   -9.6579  -17.2845 N   0  0  0  0  0  0  0  0  0  0  0  0
   21.4790   -7.9411  -16.1420 C   0  0  0  0  0  0  0  0  0  0  0  0
   22.2984   -6.9968  -16.2882 O   0  0  0  0  0  0  0  0  0  0  0  0
   17.5772   -7.0298  -17.3070 C   0  0  0  0  0  0  0  0  0  0  0  0
   18.7188   -6.0301  -17.2829 C   0  0  1  0  0  0  0  0  0  0  0  0
   18.2098   -4.6106  -17.3879 C   0  0  0  0  0  0  0  0  0  0  0  0
   19.6103   -6.2408  -16.0885 C   0  0  2  0  0  0  0  0  0  0  0  0
   20.1152   -7.5823  -15.9845 N   0  0  0  0  0  0  0  0  0  0  0  0
   18.8148   -5.9518  -14.8691 C   0  0  0  0  0  0  0  0  0  0  0  0
   18.6785   -4.6639  -14.3712 O   0  0  0  0  0  0  0  0  0  0  0  0
   18.2340   -6.8682  -14.2417 O   0  0  0  0  0  0  0  0  0  0  0  0
  2  1  1  6
  3  2  1  0
  4  3  1  0
  4  8  1  0
  5  4  2  0
  6  2  1  0
  7  6  2  0
 10  9  1  1
 10 11  1  0
 12 13  1  6
 12 10  1  0
 13  6  1  0
 14 12  1  0
 15 14  2  0
 17 18  1  1
 17 19  1  0
 17 16  1  0
 19 20  1  1
 20 14  1  0
 21 22  1  0
 21 19  1  0
 23 21  2  0
M  END
$$$$
