DVV.pdb
     RDKit          3D

 23 22  0  0  1  0  0  0  0  0999 V2000
   18.6591  -12.7080  -16.9019 N   0  0  0  0  0  0  0  0  0  0  0  0
   19.0167  -11.3442  -17.2461 C   0  0  1  0  0  0  0  0  0  0  0  0
   17.7296  -10.6391  -17.6151 C   0  0  0  0  0  0  0  0  0  0  0  0
   17.2589  -11.1510  -18.9186 C   0  0  0  0  0  0  0  0  0  0  0  0
   18.0181  -11.3129  -19.8890 O   0  0  0  0  0  0  0  0  0  0  0  0
   19.6808  -10.7092  -16.0861 C   0  0  0  0  0  0  0  0  0  0  0  0
   19.1755  -10.7865  -14.9368 O   0  0  0  0  0  0  0  0  0  0  0  0
   15.9170  -11.4620  -19.0623 O   0  0  0  0  0  0  0  0  0  0  0  0
   22.7763  -11.4754  -14.6086 C   0  0  0  0  0  0  0  0  0  0  0  0
   22.9713  -10.0084  -14.9642 C   0  0  1  0  0  0  0  0  0  0  0  0
   23.7601   -9.8635  -16.2269 C   0  0  0  0  0  0  0  0  0  0  0  0
   21.5779   -9.3750  -15.0802 C   0  0  2  0  0  0  0  0  0  0  0  0
   20.9090   -9.9862  -16.1995 N   0  0  0  0  0  0  0  0  0  0  0  0
   21.8086   -7.9222  -15.2803 C   0  0  0  0  0  0  0  0  0  0  0  0
   22.2111   -7.4904  -16.3921 O   0  0  0  0  0  0  0  0  0  0  0  0
   19.9059   -5.2196  -16.0641 C   0  0  0  0  0  0  0  0  0  0  0  0
   20.4857   -4.8130  -14.7219 C   0  0  1  0  0  0  0  0  0  0  0  0
   19.4682   -4.9638  -13.6142 C   0  0  0  0  0  0  0  0  0  0  0  0
   21.7709   -5.5416  -14.4336 C   0  0  2  0  0  0  0  0  0  0  0  0
   21.5963   -6.9577  -14.2615 N   0  0  0  0  0  0  0  0  0  0  0  0
   22.3352   -4.9905  -13.1761 C   0  0  0  0  0  0  0  0  0  0  0  0
   22.9560   -3.7504  -13.1331 O   0  0  0  0  0  0  0  0  0  0  0  0
   22.2701   -5.6313  -12.1009 O   0  0  0  0  0  0  0  0  0  0  0  0
  2  1  1  1
  3  2  1  0
  4  3  1  0
  4  8  1  0
  5  4  2  0
  6  2  1  0
  7  6  2  0
 10  9  1  6
 10 11  1  0
 12 13  1  6
 12 10  1  0
 13  6  1  0
 14 12  1  0
 15 14  2  0
 17 18  1  1
 17 19  1  0
 17 16  1  0
 19 20  1  1
 20 14  1  0
 21 22  1  0
 21 19  1  0
 23 21  2  0
M  END
$$$$
