DVV.pdb
     RDKit          3D

 23 22  0  0  1  0  0  0  0  0999 V2000
   26.4062  -17.7645  -18.9693 N   0  0  0  0  0  0  0  0  0  0  0  0
   26.4447  -19.0455  -18.2880 C   0  0  1  0  0  0  0  0  0  0  0  0
   27.9035  -19.4312  -18.1732 C   0  0  0  0  0  0  0  0  0  0  0  0
   28.3600  -19.9721  -19.4699 C   0  0  0  0  0  0  0  0  0  0  0  0
   29.3010  -19.4733  -20.1105 O   0  0  0  0  0  0  0  0  0  0  0  0
   25.8040  -18.9086  -16.9611 C   0  0  0  0  0  0  0  0  0  0  0  0
   26.0540  -17.9177  -16.2278 O   0  0  0  0  0  0  0  0  0  0  0  0
   27.7114  -21.0794  -19.9908 O   0  0  0  0  0  0  0  0  0  0  0  0
   22.1802  -20.2456  -13.9197 C   0  0  0  0  0  0  0  0  0  0  0  0
   22.7764  -20.1281  -15.3153 C   0  0  1  0  0  0  0  0  0  0  0  0
   22.0355  -19.1166  -16.1309 C   0  0  0  0  0  0  0  0  0  0  0  0
   24.2582  -19.7623  -15.1521 C   0  0  2  0  0  0  0  0  0  0  0  0
   24.8832  -19.8727  -16.4448 N   0  0  0  0  0  0  0  0  0  0  0  0
   24.8087  -20.7302  -14.1702 C   0  0  0  0  0  0  0  0  0  0  0  0
   24.7950  -21.9641  -14.4188 O   0  0  0  0  0  0  0  0  0  0  0  0
   28.2559  -21.1001  -12.5912 C   0  0  0  0  0  0  0  0  0  0  0  0
   27.2506  -20.9416  -11.4654 C   0  0  1  0  0  0  0  0  0  0  0  0
   27.3631  -19.5820  -10.8142 C   0  0  0  0  0  0  0  0  0  0  0  0
   25.8520  -21.2503  -11.9283 C   0  0  2  0  0  0  0  0  0  0  0  0
   25.3681  -20.3371  -12.9269 N   0  0  0  0  0  0  0  0  0  0  0  0
   24.9527  -21.1645  -10.7505 C   0  0  0  0  0  0  0  0  0  0  0  0
   24.9155  -22.1582   -9.7828 O   0  0  0  0  0  0  0  0  0  0  0  0
   24.1893  -20.1838  -10.5879 O   0  0  0  0  0  0  0  0  0  0  0  0
  2  1  1  1
  3  2  1  0
  4  3  1  0
  4  8  1  0
  5  4  2  0
  6  2  1  0
  7  6  2  0
 10  9  1  1
 10 11  1  0
 12 13  1  6
 12 10  1  0
 13  6  1  0
 14 12  1  0
 15 14  2  0
 17 18  1  6
 17 19  1  0
 17 16  1  0
 19 20  1  6
 20 14  1  0
 21 22  1  0
 21 19  1  0
 23 21  2  0
M  END
$$$$
