DVV.pdb
     RDKit          3D

 23 22  0  0  1  0  0  0  0  0999 V2000
   19.2700  -13.2876  -16.0823 N   0  0  0  0  0  0  0  0  0  0  0  0
   19.1954  -11.9186  -16.5586 C   0  0  1  0  0  0  0  0  0  0  0  0
   17.7252  -11.5865  -16.6933 C   0  0  0  0  0  0  0  0  0  0  0  0
   17.1471  -12.4019  -17.7813 C   0  0  0  0  0  0  0  0  0  0  0  0
   16.0080  -12.8945  -17.7172 O   0  0  0  0  0  0  0  0  0  0  0  0
   19.8753  -11.0302  -15.5899 C   0  0  0  0  0  0  0  0  0  0  0  0
   19.5035  -10.9874  -14.3890 O   0  0  0  0  0  0  0  0  0  0  0  0
   17.9074  -12.6250  -18.9172 O   0  0  0  0  0  0  0  0  0  0  0  0
   23.3113  -11.1669  -14.5392 C   0  0  0  0  0  0  0  0  0  0  0  0
   23.1753   -9.7565  -15.0951 C   0  0  1  0  0  0  0  0  0  0  0  0
   23.6953   -9.6803  -16.4956 C   0  0  0  0  0  0  0  0  0  0  0  0
   21.6921   -9.3707  -15.0101 C   0  0  2  0  0  0  0  0  0  0  0  0
   20.9709  -10.1864  -15.9527 N   0  0  0  0  0  0  0  0  0  0  0  0
   21.6295   -7.9256  -15.3446 C   0  0  0  0  0  0  0  0  0  0  0  0
   21.6779   -7.5490  -16.5448 O   0  0  0  0  0  0  0  0  0  0  0  0
   20.0148   -3.4304  -14.5234 C   0  0  0  0  0  0  0  0  0  0  0  0
   20.0594   -4.9282  -14.2829 C   0  0  1  0  0  0  0  0  0  0  0  0
   18.9106   -5.6305  -14.9700 C   0  0  0  0  0  0  0  0  0  0  0  0
   21.3990   -5.5060  -14.6536 C   0  0  2  0  0  0  0  0  0  0  0  0
   21.5146   -6.9085  -14.3620 N   0  0  0  0  0  0  0  0  0  0  0  0
   22.4373   -4.7860  -13.8746 C   0  0  0  0  0  0  0  0  0  0  0  0
   22.9331   -5.2844  -12.6784 O   0  0  0  0  0  0  0  0  0  0  0  0
   22.9058   -3.6940  -14.2732 O   0  0  0  0  0  0  0  0  0  0  0  0
  2  1  1  1
  3  2  1  0
  4  3  1  0
  4  8  1  0
  5  4  2  0
  6  2  1  0
  7  6  2  0
 10  9  1  6
 10 11  1  0
 12 13  1  6
 12 10  1  0
 13  6  1  0
 14 12  1  0
 15 14  2  0
 17 18  1  6
 17 19  1  0
 17 16  1  0
 19 20  1  1
 20 14  1  0
 21 22  1  0
 21 19  1  0
 23 21  2  0
M  END
$$$$
