DVV.pdb
     RDKit          3D

 23 22  0  0  1  0  0  0  0  0999 V2000
   16.3729  -13.9126  -17.5840 N   0  0  0  0  0  0  0  0  0  0  0  0
   16.4163  -13.0927  -16.3872 C   0  0  1  0  0  0  0  0  0  0  0  0
   16.9953  -13.9589  -15.2897 C   0  0  0  0  0  0  0  0  0  0  0  0
   15.9804  -14.9490  -14.8745 C   0  0  0  0  0  0  0  0  0  0  0  0
   16.2664  -16.1260  -14.5968 O   0  0  0  0  0  0  0  0  0  0  0  0
   17.2517  -11.8992  -16.6468 C   0  0  0  0  0  0  0  0  0  0  0  0
   18.2613  -11.9735  -17.3933 O   0  0  0  0  0  0  0  0  0  0  0  0
   14.6576  -14.5467  -14.7925 O   0  0  0  0  0  0  0  0  0  0  0  0
   17.6461   -6.9817  -16.4240 C   0  0  0  0  0  0  0  0  0  0  0  0
   16.7974   -8.2452  -16.4187 C   0  0  1  0  0  0  0  0  0  0  0  0
   15.9240   -8.3090  -17.6314 C   0  0  0  0  0  0  0  0  0  0  0  0
   17.7557   -9.4414  -16.3360 C   0  0  2  0  0  0  0  0  0  0  0  0
   16.9678  -10.6189  -16.0774 N   0  0  0  0  0  0  0  0  0  0  0  0
   18.6953   -9.1321  -15.2290 C   0  0  0  0  0  0  0  0  0  0  0  0
   18.2696   -9.0072  -14.0511 O   0  0  0  0  0  0  0  0  0  0  0  0
   22.0293  -11.1054  -14.6740 C   0  0  0  0  0  0  0  0  0  0  0  0
   22.3107   -9.6163  -14.5931 C   0  0  1  0  0  0  0  0  0  0  0  0
   23.0844   -9.1360  -15.7996 C   0  0  0  0  0  0  0  0  0  0  0  0
   21.0490   -8.8291  -14.3608 C   0  0  2  0  0  0  0  0  0  0  0  0
   20.0906   -8.9629  -15.4234 N   0  0  0  0  0  0  0  0  0  0  0  0
   21.4194   -7.3959  -14.2517 C   0  0  0  0  0  0  0  0  0  0  0  0
   21.9558   -6.8641  -13.0878 O   0  0  0  0  0  0  0  0  0  0  0  0
   21.2592   -6.6098  -15.2147 O   0  0  0  0  0  0  0  0  0  0  0  0
  2  1  1  6
  3  2  1  0
  4  3  1  0
  4  8  1  0
  5  4  2  0
  6  2  1  0
  7  6  2  0
 10  9  1  6
 10 11  1  0
 12 13  1  1
 12 10  1  0
 13  6  1  0
 14 12  1  0
 15 14  2  0
 17 18  1  6
 17 19  1  0
 17 16  1  0
 19 20  1  6
 20 14  1  0
 21 22  1  0
 21 19  1  0
 23 21  2  0
M  END
$$$$
