DVV.pdb
     RDKit          3D

 23 22  0  0  1  0  0  0  0  0999 V2000
   14.9984  -12.9085  -14.5199 N   0  0  0  0  0  0  0  0  0  0  0  0
   14.8213  -11.6892  -15.2870 C   0  0  1  0  0  0  0  0  0  0  0  0
   13.4613  -11.1384  -14.9168 C   0  0  0  0  0  0  0  0  0  0  0  0
   12.4180  -12.0376  -15.4512 C   0  0  0  0  0  0  0  0  0  0  0  0
   12.5254  -12.6119  -16.5480 O   0  0  0  0  0  0  0  0  0  0  0  0
   15.9093  -10.7435  -14.9529 C   0  0  0  0  0  0  0  0  0  0  0  0
   16.1496  -10.4399  -13.7561 O   0  0  0  0  0  0  0  0  0  0  0  0
   11.2749  -12.2470  -14.6977 O   0  0  0  0  0  0  0  0  0  0  0  0
   20.1424   -8.6406  -16.0860 C   0  0  0  0  0  0  0  0  0  0  0  0
   19.0731   -9.7024  -16.2999 C   0  0  1  0  0  0  0  0  0  0  0  0
   19.5057  -11.0193  -15.7377 C   0  0  0  0  0  0  0  0  0  0  0  0
   17.7824   -9.1927  -15.6438 C   0  0  2  0  0  0  0  0  0  0  0  0
   16.7340  -10.1320  -15.9478 N   0  0  0  0  0  0  0  0  0  0  0  0
   17.5318   -7.8521  -16.2304 C   0  0  0  0  0  0  0  0  0  0  0  0
   17.3916   -7.7194  -17.4743 O   0  0  0  0  0  0  0  0  0  0  0  0
   14.5999   -5.6622  -15.9829 C   0  0  0  0  0  0  0  0  0  0  0  0
   15.7706   -4.8640  -15.4391 C   0  0  1  0  0  0  0  0  0  0  0  0
   15.7368   -4.7965  -13.9294 C   0  0  0  0  0  0  0  0  0  0  0  0
   17.0820   -5.3793  -15.9686 C   0  0  2  0  0  0  0  0  0  0  0  0
   17.4375   -6.6713  -15.4492 N   0  0  0  0  0  0  0  0  0  0  0  0
   18.1418   -4.4170  -15.5760 C   0  0  0  0  0  0  0  0  0  0  0  0
   19.0362   -4.6897  -14.5509 O   0  0  0  0  0  0  0  0  0  0  0  0
   18.2666   -3.3158  -16.1614 O   0  0  0  0  0  0  0  0  0  0  0  0
  2  1  1  1
  3  2  1  0
  4  3  1  0
  4  8  1  0
  5  4  2  0
  6  2  1  0
  7  6  2  0
 10  9  1  1
 10 11  1  0
 12 13  1  6
 12 10  1  0
 13  6  1  0
 14 12  1  0
 15 14  2  0
 17 18  1  1
 17 19  1  0
 17 16  1  0
 19 20  1  1
 20 14  1  0
 21 22  1  0
 21 19  1  0
 23 21  2  0
M  END
$$$$
