DVV.pdb
     RDKit          3D

 23 22  0  0  1  0  0  0  0  0999 V2000
   17.4391  -14.7831  -15.2307 N   0  0  0  0  0  0  0  0  0  0  0  0
   18.1433  -14.5619  -16.4803 C   0  0  1  0  0  0  0  0  0  0  0  0
   17.4609  -15.4235  -17.5204 C   0  0  0  0  0  0  0  0  0  0  0  0
   16.0041  -15.1850  -17.4598 C   0  0  0  0  0  0  0  0  0  0  0  0
   15.4878  -14.3894  -16.6568 O   0  0  0  0  0  0  0  0  0  0  0  0
   18.0786  -13.1244  -16.8258 C   0  0  0  0  0  0  0  0  0  0  0  0
   18.5600  -12.7032  -17.9088 O   0  0  0  0  0  0  0  0  0  0  0  0
   15.1829  -15.8775  -18.3341 O   0  0  0  0  0  0  0  0  0  0  0  0
   15.9520   -8.7687  -16.2030 C   0  0  0  0  0  0  0  0  0  0  0  0
   15.9646  -10.2883  -16.1160 C   0  0  1  0  0  0  0  0  0  0  0  0
   15.0677  -10.8916  -17.1499 C   0  0  0  0  0  0  0  0  0  0  0  0
   17.4208  -10.7453  -16.2798 C   0  0  2  0  0  0  0  0  0  0  0  0
   17.4783  -12.1502  -15.9687 N   0  0  0  0  0  0  0  0  0  0  0  0
   18.2132   -9.9208  -15.3331 C   0  0  0  0  0  0  0  0  0  0  0  0
   18.0574  -10.0539  -14.0911 O   0  0  0  0  0  0  0  0  0  0  0  0
   22.2590   -7.1766  -14.4821 C   0  0  0  0  0  0  0  0  0  0  0  0
   21.4338   -8.0864  -15.3734 C   0  0  1  0  0  0  0  0  0  0  0  0
   22.1095   -9.4241  -15.5707 C   0  0  0  0  0  0  0  0  0  0  0  0
   20.0214   -8.2175  -14.8697 C   0  0  2  0  0  0  0  0  0  0  0  0
   19.1674   -8.9595  -15.7560 N   0  0  0  0  0  0  0  0  0  0  0  0
   19.4602   -6.8509  -14.7254 C   0  0  0  0  0  0  0  0  0  0  0  0
   19.3950   -6.2115  -13.4958 O   0  0  0  0  0  0  0  0  0  0  0  0
   19.0220   -6.2222  -15.7171 O   0  0  0  0  0  0  0  0  0  0  0  0
  2  1  1  1
  3  2  1  0
  4  3  1  0
  4  8  1  0
  5  4  2  0
  6  2  1  0
  7  6  2  0
 10  9  1  6
 10 11  1  0
 12 13  1  1
 12 10  1  0
 13  6  1  0
 14 12  1  0
 15 14  2  0
 17 18  1  1
 17 19  1  0
 17 16  1  0
 19 20  1  6
 20 14  1  0
 21 22  1  0
 21 19  1  0
 23 21  2  0
M  END
$$$$
