DVV.pdb
     RDKit          3D

 23 22  0  0  1  0  0  0  0  0999 V2000
   18.8613  -12.3500  -18.0920 N   0  0  0  0  0  0  0  0  0  0  0  0
   19.5349  -11.0820  -18.3038 C   0  0  1  0  0  0  0  0  0  0  0  0
   18.5784  -10.2090  -19.0867 C   0  0  0  0  0  0  0  0  0  0  0  0
   18.6841  -10.5480  -20.5208 C   0  0  0  0  0  0  0  0  0  0  0  0
   19.6955  -11.0774  -21.0118 O   0  0  0  0  0  0  0  0  0  0  0  0
   19.8755  -10.4886  -16.9917 C   0  0  0  0  0  0  0  0  0  0  0  0
   19.0008  -10.3691  -16.0958 O   0  0  0  0  0  0  0  0  0  0  0  0
   17.6114  -10.2630  -21.3493 O   0  0  0  0  0  0  0  0  0  0  0  0
   23.8136  -10.2166  -15.9222 C   0  0  0  0  0  0  0  0  0  0  0  0
   22.7411  -10.1966  -14.8423 C   0  0  1  0  0  0  0  0  0  0  0  0
   23.2600   -9.5775  -13.5834 C   0  0  0  0  0  0  0  0  0  0  0  0
   21.5363   -9.4308  -15.4061 C   0  0  2  0  0  0  0  0  0  0  0  0
   21.1897  -10.0260  -16.6709 N   0  0  0  0  0  0  0  0  0  0  0  0
   21.9808   -8.0211  -15.5444 C   0  0  0  0  0  0  0  0  0  0  0  0
   22.7956   -7.6980  -16.4479 O   0  0  0  0  0  0  0  0  0  0  0  0
   20.6087   -5.0726  -16.8677 C   0  0  0  0  0  0  0  0  0  0  0  0
   20.8570   -4.7271  -15.4109 C   0  0  1  0  0  0  0  0  0  0  0  0
   19.5722   -4.7432  -14.6146 C   0  0  0  0  0  0  0  0  0  0  0  0
   21.9235   -5.6036  -14.8110 C   0  0  2  0  0  0  0  0  0  0  0  0
   21.5289   -6.9804  -14.6923 N   0  0  0  0  0  0  0  0  0  0  0  0
   22.2229   -5.0909  -13.4505 C   0  0  0  0  0  0  0  0  0  0  0  0
   22.9876   -3.9508  -13.2488 O   0  0  0  0  0  0  0  0  0  0  0  0
   21.7923   -5.6748  -12.4285 O   0  0  0  0  0  0  0  0  0  0  0  0
  2  1  1  1
  3  2  1  0
  4  3  1  0
  4  8  1  0
  5  4  2  0
  6  2  1  0
  7  6  2  0
 10  9  1  6
 10 11  1  0
 12 13  1  6
 12 10  1  0
 13  6  1  0
 14 12  1  0
 15 14  2  0
 17 18  1  1
 17 19  1  0
 17 16  1  0
 19 20  1  1
 20 14  1  0
 21 22  1  0
 21 19  1  0
 23 21  2  0
M  END
$$$$
