SSC.pdb
     RDKit          3D

 19 18  0  0  1  0  0  0  0  0999 V2000
    7.0714  -18.5032   18.9583 O   0  0  0  0  0  0  0  0  0  0  0  0
    8.2916  -18.2081   19.6037 C   0  0  0  0  0  0  0  0  0  0  0  0
    9.3733  -18.2597   18.5625 C   0  0  2  0  0  0  0  0  0  0  0  0
    9.5742  -19.6068   18.0940 N   0  0  0  0  0  0  0  0  0  0  0  0
   10.6481  -17.7581   19.1295 C   0  0  0  0  0  0  0  0  0  0  0  0
   11.3897  -18.5154   19.8126 O   0  0  0  0  0  0  0  0  0  0  0  0
   11.7170  -13.6876   18.9397 O   0  0  0  0  0  0  0  0  0  0  0  0
   12.6644  -14.6728   18.6693 C   0  0  0  0  0  0  0  0  0  0  0  0
   12.3184  -15.9437   19.4477 C   0  0  2  0  0  0  0  0  0  0  0  0
   11.0789  -16.4324   18.9319 N   0  0  0  0  0  0  0  0  0  0  0  0
   12.3041  -15.7042   20.8956 C   0  0  0  0  0  0  0  0  0  0  0  0
   11.2598  -15.2343   21.4165 O   0  0  0  0  0  0  0  0  0  0  0  0
   13.3939  -15.9670   21.7588 N   0  0  0  0  0  0  0  0  0  0  0  0
   13.3163  -15.7947   23.1672 C   0  0  1  0  0  0  0  0  0  0  0  0
   12.3054  -16.6812   23.8436 C   0  0  0  0  0  0  0  0  0  0  0  0
   12.4200  -16.6497   25.6299 S   0  0  0  0  0  0  0  0  0  0  0  0
   14.6501  -16.0016   23.7932 C   0  0  0  0  0  0  0  0  0  0  0  0
   14.9605  -15.4971   25.0451 O   0  0  0  0  0  0  0  0  0  0  0  0
   15.5300  -16.6539   23.1739 O   0  0  0  0  0  0  0  0  0  0  0  0
  2  1  1  0
  3  4  1  1
  3  2  1  0
  5  3  1  0
  6  5  2  0
  7  8  1  0
  9  8  1  6
  9 11  1  0
  9 10  1  0
 10  5  1  0
 11 12  2  0
 13 14  1  0
 13 11  1  0
 14 15  1  1
 15 16  1  0
 17 14  1  0
 18 17  1  0
 19 17  2  0
M  END
$$$$
