SSC.pdb
     RDKit          3D

 19 18  0  0  1  0  0  0  0  0999 V2000
    9.5261  -19.2461   17.1724 O   0  0  0  0  0  0  0  0  0  0  0  0
    8.7491  -20.2153   16.5021 C   0  0  0  0  0  0  0  0  0  0  0  0
    8.7643  -19.8692   15.0403 C   0  0  2  0  0  0  0  0  0  0  0  0
    7.8617  -20.7138   14.3010 N   0  0  0  0  0  0  0  0  0  0  0  0
   10.1315  -20.0394   14.4924 C   0  0  0  0  0  0  0  0  0  0  0  0
   10.7132  -21.1567   14.5520 O   0  0  0  0  0  0  0  0  0  0  0  0
   11.8330  -18.2716   11.3105 O   0  0  0  0  0  0  0  0  0  0  0  0
   12.4853  -17.9686   12.5038 C   0  0  0  0  0  0  0  0  0  0  0  0
   12.2090  -19.0673   13.5320 C   0  0  2  0  0  0  0  0  0  0  0  0
   10.8290  -18.9749   13.8904 N   0  0  0  0  0  0  0  0  0  0  0  0
   13.1250  -18.9810   14.6754 C   0  0  0  0  0  0  0  0  0  0  0  0
   12.8899  -18.1288   15.5704 O   0  0  0  0  0  0  0  0  0  0  0  0
   14.2677  -19.7975   14.8458 N   0  0  0  0  0  0  0  0  0  0  0  0
   15.0802  -19.7472   16.0106 C   0  0  1  0  0  0  0  0  0  0  0  0
   14.9379  -20.9415   16.9155 C   0  0  0  0  0  0  0  0  0  0  0  0
   13.7269  -20.7057   18.2127 S   0  0  0  0  0  0  0  0  0  0  0  0
   16.5115  -19.5758   15.6424 C   0  0  0  0  0  0  0  0  0  0  0  0
   17.4672  -19.1905   16.5677 O   0  0  0  0  0  0  0  0  0  0  0  0
   16.8748  -19.7852   14.4560 O   0  0  0  0  0  0  0  0  0  0  0  0
  2  1  1  0
  3  4  1  6
  3  2  1  0
  5  3  1  0
  6  5  2  0
  7  8  1  0
  9  8  1  6
  9 11  1  0
  9 10  1  0
 10  5  1  0
 11 12  2  0
 13 14  1  0
 13 11  1  0
 14 15  1  6
 15 16  1  0
 17 14  1  0
 18 17  1  0
 19 17  2  0
M  END
$$$$
