SSC.pdb
     RDKit          3D

 19 18  0  0  1  0  0  0  0  0999 V2000
   -2.3592  -28.5504   33.2518 O   0  0  0  0  0  0  0  0  0  0  0  0
   -2.9448  -27.4224   32.6378 C   0  0  0  0  0  0  0  0  0  0  0  0
   -2.6003  -27.4780   31.1766 C   0  0  2  0  0  0  0  0  0  0  0  0
   -1.2018  -27.2057   30.9659 N   0  0  0  0  0  0  0  0  0  0  0  0
   -3.3980  -26.4769   30.4284 C   0  0  0  0  0  0  0  0  0  0  0  0
   -3.0717  -25.2589   30.4368 O   0  0  0  0  0  0  0  0  0  0  0  0
   -7.0374  -27.4974   28.7010 O   0  0  0  0  0  0  0  0  0  0  0  0
   -6.1709  -26.6999   27.9562 C   0  0  0  0  0  0  0  0  0  0  0  0
   -5.2728  -25.8987   28.9007 C   0  0  2  0  0  0  0  0  0  0  0  0
   -4.5385  -26.8391   29.6867 N   0  0  0  0  0  0  0  0  0  0  0  0
   -6.0454  -24.9373   29.6961 C   0  0  0  0  0  0  0  0  0  0  0  0
   -6.4190  -25.2744   30.8491 O   0  0  0  0  0  0  0  0  0  0  0  0
   -6.4050  -23.6423   29.2541 N   0  0  0  0  0  0  0  0  0  0  0  0
   -7.1917  -22.7549   30.0371 C   0  0  1  0  0  0  0  0  0  0  0  0
   -6.7160  -21.3270   30.0185 C   0  0  0  0  0  0  0  0  0  0  0  0
   -7.7114  -20.2367   31.0310 S   0  0  0  0  0  0  0  0  0  0  0  0
   -8.6164  -22.8051   29.6112 C   0  0  0  0  0  0  0  0  0  0  0  0
   -9.6573  -22.7892   30.5246 O   0  0  0  0  0  0  0  0  0  0  0  0
   -8.8942  -22.8640   28.3854 O   0  0  0  0  0  0  0  0  0  0  0  0
  2  1  1  0
  3  4  1  1
  3  2  1  0
  5  3  1  0
  6  5  2  0
  7  8  1  0
  9  8  1  6
  9 11  1  0
  9 10  1  0
 10  5  1  0
 11 12  2  0
 13 14  1  0
 13 11  1  0
 14 15  1  6
 15 16  1  0
 17 14  1  0
 18 17  1  0
 19 17  2  0
M  END
$$$$
