SSC.pdb
     RDKit          3D

 19 18  0  0  1  0  0  0  0  0999 V2000
   10.7924  -14.5413   17.9982 O   0  0  0  0  0  0  0  0  0  0  0  0
   10.2326  -13.7611   19.0327 C   0  0  0  0  0  0  0  0  0  0  0  0
    8.7512  -14.0105   19.0307 C   0  0  2  0  0  0  0  0  0  0  0  0
    8.0612  -13.0115   18.2558 N   0  0  0  0  0  0  0  0  0  0  0  0
    8.2294  -13.9805   20.4181 C   0  0  0  0  0  0  0  0  0  0  0  0
    7.9427  -12.8853   20.9734 O   0  0  0  0  0  0  0  0  0  0  0  0
    7.3086  -17.5197   22.7111 O   0  0  0  0  0  0  0  0  0  0  0  0
    6.5544  -16.3535   22.5996 C   0  0  0  0  0  0  0  0  0  0  0  0
    7.4892  -15.1478   22.4852 C   0  0  2  0  0  0  0  0  0  0  0  0
    8.0345  -15.1582   21.1646 N   0  0  0  0  0  0  0  0  0  0  0  0
    8.5043  -15.1480   23.5452 C   0  0  0  0  0  0  0  0  0  0  0  0
    9.6588  -15.5661   23.2712 O   0  0  0  0  0  0  0  0  0  0  0  0
    8.2753  -14.7062   24.8695 N   0  0  0  0  0  0  0  0  0  0  0  0
    9.2993  -14.6687   25.8541 C   0  0  1  0  0  0  0  0  0  0  0  0
    9.2140  -13.4932   26.7902 C   0  0  0  0  0  0  0  0  0  0  0  0
    7.5329  -13.0469   27.2138 S   0  0  0  0  0  0  0  0  0  0  0  0
    9.3101  -15.9288   26.6451 C   0  0  0  0  0  0  0  0  0  0  0  0
    8.3418  -16.9057   26.4843 O   0  0  0  0  0  0  0  0  0  0  0  0
   10.2233  -16.1219   27.4890 O   0  0  0  0  0  0  0  0  0  0  0  0
  2  1  1  0
  3  4  1  6
  3  2  1  0
  5  3  1  0
  6  5  2  0
  7  8  1  0
  9  8  1  1
  9 11  1  0
  9 10  1  0
 10  5  1  0
 11 12  2  0
 13 14  1  0
 13 11  1  0
 14 15  1  1
 15 16  1  0
 17 14  1  0
 18 17  1  0
 19 17  2  0
M  END
$$$$
