SSC.pdb
     RDKit          3D

 19 18  0  0  1  0  0  0  0  0999 V2000
   11.1276  -13.7310   19.8299 O   0  0  0  0  0  0  0  0  0  0  0  0
   10.3516  -14.6943   19.1500 C   0  0  0  0  0  0  0  0  0  0  0  0
    8.9421  -14.1773   19.0959 C   0  0  2  0  0  0  0  0  0  0  0  0
    8.8937  -12.8753   18.4818 N   0  0  0  0  0  0  0  0  0  0  0  0
    8.3848  -14.0779   20.4662 C   0  0  0  0  0  0  0  0  0  0  0  0
    8.3909  -12.9789   21.0844 O   0  0  0  0  0  0  0  0  0  0  0  0
    7.0828  -17.4847   22.6321 O   0  0  0  0  0  0  0  0  0  0  0  0
    6.3494  -16.3000   22.6271 C   0  0  0  0  0  0  0  0  0  0  0  0
    7.2965  -15.1118   22.4486 C   0  0  2  0  0  0  0  0  0  0  0  0
    7.8324  -15.1919   21.1266 N   0  0  0  0  0  0  0  0  0  0  0  0
    8.3189  -15.0723   23.5008 C   0  0  0  0  0  0  0  0  0  0  0  0
    9.4883  -15.4386   23.2161 O   0  0  0  0  0  0  0  0  0  0  0  0
    8.0813  -14.6466   24.8289 N   0  0  0  0  0  0  0  0  0  0  0  0
    9.0850  -14.6725   25.8345 C   0  0  1  0  0  0  0  0  0  0  0  0
    8.9792  -13.5595   26.8422 C   0  0  0  0  0  0  0  0  0  0  0  0
    7.3839  -12.7472   26.8339 S   0  0  0  0  0  0  0  0  0  0  0  0
    9.0812  -15.9807   26.5431 C   0  0  0  0  0  0  0  0  0  0  0  0
   10.0467  -16.3122   27.4790 O   0  0  0  0  0  0  0  0  0  0  0  0
    8.1769  -16.8186   26.2911 O   0  0  0  0  0  0  0  0  0  0  0  0
  2  1  1  0
  3  4  1  1
  3  2  1  0
  5  3  1  0
  6  5  2  0
  7  8  1  0
  9  8  1  1
  9 11  1  0
  9 10  1  0
 10  5  1  0
 11 12  2  0
 13 14  1  0
 13 11  1  0
 14 15  1  1
 15 16  1  0
 17 14  1  0
 18 17  1  0
 19 17  2  0
M  END
$$$$
