SSC.pdb
     RDKit          3D

 19 18  0  0  1  0  0  0  0  0999 V2000
    3.9289  -18.8837   23.0632 O   0  0  0  0  0  0  0  0  0  0  0  0
    3.2774  -17.8151   22.4104 C   0  0  0  0  0  0  0  0  0  0  0  0
    3.7627  -17.7956   20.9888 C   0  0  2  0  0  0  0  0  0  0  0  0
    3.4650  -19.0389   20.3253 N   0  0  0  0  0  0  0  0  0  0  0  0
    5.2289  -17.5780   20.9557 C   0  0  0  0  0  0  0  0  0  0  0  0
    6.0220  -18.5549   20.8736 O   0  0  0  0  0  0  0  0  0  0  0  0
    6.7652  -13.7487   20.5369 O   0  0  0  0  0  0  0  0  0  0  0  0
    7.4257  -14.8640   20.0259 C   0  0  0  0  0  0  0  0  0  0  0  0
    7.1997  -16.0616   20.9507 C   0  0  2  0  0  0  0  0  0  0  0  0
    5.7905  -16.2882   21.0139 N   0  0  0  0  0  0  0  0  0  0  0  0
    7.8263  -15.8582   22.2621 C   0  0  0  0  0  0  0  0  0  0  0  0
    7.1387  -15.3478   23.1837 O   0  0  0  0  0  0  0  0  0  0  0  0
    9.1648  -16.1991   22.5686 N   0  0  0  0  0  0  0  0  0  0  0  0
    9.7439  -15.9637   23.8447 C   0  0  1  0  0  0  0  0  0  0  0  0
    9.3051  -16.9314   24.9107 C   0  0  0  0  0  0  0  0  0  0  0  0
   10.1746  -16.7180   26.4609 S   0  0  0  0  0  0  0  0  0  0  0  0
   11.2290  -15.9707   23.7540 C   0  0  0  0  0  0  0  0  0  0  0  0
   12.0331  -15.6774   24.8428 O   0  0  0  0  0  0  0  0  0  0  0  0
   11.7808  -16.2507   22.6584 O   0  0  0  0  0  0  0  0  0  0  0  0
  2  1  1  0
  3  4  1  1
  3  2  1  0
  5  3  1  0
  6  5  2  0
  7  8  1  0
  9  8  1  6
  9 11  1  0
  9 10  1  0
 10  5  1  0
 11 12  2  0
 13 14  1  0
 13 11  1  0
 14 15  1  1
 15 16  1  0
 17 14  1  0
 18 17  1  0
 19 17  2  0
M  END
$$$$
