SSC.pdb
     RDKit          3D

 19 18  0  0  1  0  0  0  0  0999 V2000
    8.6417  -12.8687   17.9320 O   0  0  0  0  0  0  0  0  0  0  0  0
    8.2785  -13.1586   19.2648 C   0  0  0  0  0  0  0  0  0  0  0  0
    8.0900  -14.6457   19.3647 C   0  0  2  0  0  0  0  0  0  0  0  0
    6.8714  -15.0558   18.7157 N   0  0  0  0  0  0  0  0  0  0  0  0
    8.0320  -15.0556   20.7884 C   0  0  0  0  0  0  0  0  0  0  0  0
    6.9592  -14.9540   21.4432 O   0  0  0  0  0  0  0  0  0  0  0  0
    9.9595  -18.2505   22.1571 O   0  0  0  0  0  0  0  0  0  0  0  0
   10.2293  -17.1170   22.9211 C   0  0  0  0  0  0  0  0  0  0  0  0
    9.0803  -16.1171   22.7777 C   0  0  2  0  0  0  0  0  0  0  0  0
    9.1575  -15.5689   21.4606 N   0  0  0  0  0  0  0  0  0  0  0  0
    9.1062  -15.1070   23.8422 C   0  0  0  0  0  0  0  0  0  0  0  0
    9.7851  -14.0631   23.6633 O   0  0  0  0  0  0  0  0  0  0  0  0
    8.4139  -15.2241   25.0704 N   0  0  0  0  0  0  0  0  0  0  0  0
    8.4832  -14.2346   26.0879 C   0  0  1  0  0  0  0  0  0  0  0  0
    7.1856  -13.5145   26.3392 C   0  0  0  0  0  0  0  0  0  0  0  0
    7.2928  -12.3009   27.6509 S   0  0  0  0  0  0  0  0  0  0  0  0
    8.9720  -14.8280   27.3617 C   0  0  0  0  0  0  0  0  0  0  0  0
    9.4123  -14.0451   28.4158 O   0  0  0  0  0  0  0  0  0  0  0  0
    8.9897  -16.0791   27.4949 O   0  0  0  0  0  0  0  0  0  0  0  0
  2  1  1  0
  3  4  1  6
  3  2  1  0
  5  3  1  0
  6  5  2  0
  7  8  1  0
  9  8  1  1
  9 11  1  0
  9 10  1  0
 10  5  1  0
 11 12  2  0
 13 14  1  0
 13 11  1  0
 14 15  1  1
 15 16  1  0
 17 14  1  0
 18 17  1  0
 19 17  2  0
M  END
$$$$
