SSC.pdb
     RDKit          3D

 19 18  0  0  1  0  0  0  0  0999 V2000
    0.9549  -28.5393   32.8652 O   0  0  0  0  0  0  0  0  0  0  0  0
    0.0476  -27.6583   33.4922 C   0  0  0  0  0  0  0  0  0  0  0  0
   -0.2127  -26.5284   32.5369 C   0  0  2  0  0  0  0  0  0  0  0  0
    0.9983  -25.8010   32.2564 N   0  0  0  0  0  0  0  0  0  0  0  0
   -1.2064  -25.5927   33.1160 C   0  0  0  0  0  0  0  0  0  0  0  0
   -0.8323  -24.5888   33.7812 O   0  0  0  0  0  0  0  0  0  0  0  0
   -4.8016  -24.4908   31.3593 O   0  0  0  0  0  0  0  0  0  0  0  0
   -4.8499  -25.1029   32.6100 C   0  0  0  0  0  0  0  0  0  0  0  0
   -3.5545  -24.8153   33.3715 C   0  0  2  0  0  0  0  0  0  0  0  0
   -2.5914  -25.7829   32.9500 N   0  0  0  0  0  0  0  0  0  0  0  0
   -3.7739  -24.7912   34.8225 C   0  0  0  0  0  0  0  0  0  0  0  0
   -3.7183  -25.8764   35.4566 O   0  0  0  0  0  0  0  0  0  0  0  0
   -4.0468  -23.6208   35.5690 N   0  0  0  0  0  0  0  0  0  0  0  0
   -4.0543  -23.6009   36.9898 C   0  0  1  0  0  0  0  0  0  0  0  0
   -3.6337  -22.2871   37.5918 C   0  0  0  0  0  0  0  0  0  0  0  0
   -1.9040  -21.9092   37.3269 S   0  0  0  0  0  0  0  0  0  0  0  0
   -5.3970  -23.9742   37.5107 C   0  0  0  0  0  0  0  0  0  0  0  0
   -5.6062  -24.2925   38.8422 O   0  0  0  0  0  0  0  0  0  0  0  0
   -6.3793  -24.0044   36.7249 O   0  0  0  0  0  0  0  0  0  0  0  0
  2  1  1  0
  3  4  1  1
  3  2  1  0
  5  3  1  0
  6  5  2  0
  7  8  1  0
  9  8  1  6
  9 11  1  0
  9 10  1  0
 10  5  1  0
 11 12  2  0
 13 14  1  0
 13 11  1  0
 14 15  1  6
 15 16  1  0
 17 14  1  0
 18 17  1  0
 19 17  2  0
M  END
$$$$
