SSC.pdb
     RDKit          3D

 19 18  0  0  1  0  0  0  0  0999 V2000
   14.0264  -17.8986   22.6280 O   0  0  0  0  0  0  0  0  0  0  0  0
   13.0186  -18.6271   21.9603 C   0  0  0  0  0  0  0  0  0  0  0  0
   12.1952  -17.6418   21.1806 C   0  0  2  0  0  0  0  0  0  0  0  0
   12.9958  -16.9718   20.1883 N   0  0  0  0  0  0  0  0  0  0  0  0
   11.6205  -16.6251   22.0940 C   0  0  0  0  0  0  0  0  0  0  0  0
   12.1636  -15.4940   22.2198 O   0  0  0  0  0  0  0  0  0  0  0  0
    8.1014  -17.3972   24.2478 O   0  0  0  0  0  0  0  0  0  0  0  0
    8.3933  -16.1224   23.7671 C   0  0  0  0  0  0  0  0  0  0  0  0
    9.9091  -15.9151   23.7524 C   0  0  2  0  0  0  0  0  0  0  0  0
   10.4595  -16.8761   22.8496 N   0  0  0  0  0  0  0  0  0  0  0  0
   10.4770  -15.9792   25.1042 C   0  0  0  0  0  0  0  0  0  0  0  0
   11.1697  -16.9813   25.4179 O   0  0  0  0  0  0  0  0  0  0  0  0
   10.2993  -14.9825   26.0925 N   0  0  0  0  0  0  0  0  0  0  0  0
   10.8939  -15.0641   27.3805 C   0  0  1  0  0  0  0  0  0  0  0  0
   10.6668  -13.8525   28.2441 C   0  0  0  0  0  0  0  0  0  0  0  0
    8.9734  -13.2724   28.2175 S   0  0  0  0  0  0  0  0  0  0  0  0
   10.4194  -16.2773   28.0993 C   0  0  0  0  0  0  0  0  0  0  0  0
   11.0598  -16.7601   29.2283 O   0  0  0  0  0  0  0  0  0  0  0  0
    9.4055  -16.8907   27.6759 O   0  0  0  0  0  0  0  0  0  0  0  0
  2  1  1  0
  3  4  1  6
  3  2  1  0
  5  3  1  0
  6  5  2  0
  7  8  1  0
  9  8  1  1
  9 11  1  0
  9 10  1  0
 10  5  1  0
 11 12  2  0
 13 14  1  0
 13 11  1  0
 14 15  1  1
 15 16  1  0
 17 14  1  0
 18 17  1  0
 19 17  2  0
M  END
$$$$
