SSC.pdb
     RDKit          3D

 19 18  0  0  1  0  0  0  0  0999 V2000
    4.2070  -18.6278   23.0087 O   0  0  0  0  0  0  0  0  0  0  0  0
    3.8952  -17.5813   22.1143 C   0  0  0  0  0  0  0  0  0  0  0  0
    4.7839  -17.7385   20.9133 C   0  0  2  0  0  0  0  0  0  0  0  0
    4.7674  -19.0966   20.4339 N   0  0  0  0  0  0  0  0  0  0  0  0
    6.1781  -17.3741   21.2622 C   0  0  0  0  0  0  0  0  0  0  0  0
    7.0470  -18.2675   21.4542 O   0  0  0  0  0  0  0  0  0  0  0  0
    8.3950  -14.2296   20.0233 O   0  0  0  0  0  0  0  0  0  0  0  0
    8.1500  -14.2352   21.3949 C   0  0  0  0  0  0  0  0  0  0  0  0
    7.8844  -15.6677   21.8621 C   0  0  2  0  0  0  0  0  0  0  0  0
    6.5855  -16.0327   21.3922 N   0  0  0  0  0  0  0  0  0  0  0  0
    8.0484  -15.8022   23.3143 C   0  0  0  0  0  0  0  0  0  0  0  0
    7.1016  -15.4442   24.0615 O   0  0  0  0  0  0  0  0  0  0  0  0
    9.2090  -16.3119   23.9426 N   0  0  0  0  0  0  0  0  0  0  0  0
    9.2834  -16.5485   25.3418 C   0  0  1  0  0  0  0  0  0  0  0  0
    8.2825  -17.5495   25.8535 C   0  0  0  0  0  0  0  0  0  0  0  0
    8.5435  -17.9980   27.5668 S   0  0  0  0  0  0  0  0  0  0  0  0
   10.6539  -16.9813   25.7266 C   0  0  0  0  0  0  0  0  0  0  0  0
   11.0673  -17.0235   27.0477 O   0  0  0  0  0  0  0  0  0  0  0  0
   11.4698  -17.3214   24.8311 O   0  0  0  0  0  0  0  0  0  0  0  0
  2  1  1  0
  3  4  1  1
  3  2  1  0
  5  3  1  0
  6  5  2  0
  7  8  1  0
  9  8  1  1
  9 11  1  0
  9 10  1  0
 10  5  1  0
 11 12  2  0
 13 14  1  0
 13 11  1  0
 14 15  1  6
 15 16  1  0
 17 14  1  0
 18 17  1  0
 19 17  2  0
M  END
$$$$
