SSC.pdb
     RDKit          3D

 19 18  0  0  1  0  0  0  0  0999 V2000
   14.0975  -14.2437   19.6393 O   0  0  0  0  0  0  0  0  0  0  0  0
   12.7998  -14.1214   20.1809 C   0  0  0  0  0  0  0  0  0  0  0  0
   12.1164  -15.4485   20.0114 C   0  0  2  0  0  0  0  0  0  0  0  0
   11.6384  -15.6138   18.6628 N   0  0  0  0  0  0  0  0  0  0  0  0
   10.9650  -15.5489   20.9400 C   0  0  0  0  0  0  0  0  0  0  0  0
    9.8069  -15.7913   20.5038 O   0  0  0  0  0  0  0  0  0  0  0  0
    9.3325  -18.1115   23.8767 O   0  0  0  0  0  0  0  0  0  0  0  0
   10.1988  -17.4803   22.9864 C   0  0  0  0  0  0  0  0  0  0  0  0
   10.2243  -15.9780   23.2746 C   0  0  2  0  0  0  0  0  0  0  0  0
   11.1138  -15.3802   22.3298 N   0  0  0  0  0  0  0  0  0  0  0  0
   10.5726  -15.7013   24.6732 C   0  0  0  0  0  0  0  0  0  0  0  0
   11.7284  -15.9950   25.0738 O   0  0  0  0  0  0  0  0  0  0  0  0
    9.6912  -15.1206   25.6153 N   0  0  0  0  0  0  0  0  0  0  0  0
   10.0359  -14.9459   26.9828 C   0  0  1  0  0  0  0  0  0  0  0  0
    9.1359  -13.9995   27.7310 C   0  0  0  0  0  0  0  0  0  0  0  0
    8.7179  -12.5320   26.7947 S   0  0  0  0  0  0  0  0  0  0  0  0
   10.0658  -16.2568   27.6858 C   0  0  0  0  0  0  0  0  0  0  0  0
   10.5167  -16.3814   28.9894 O   0  0  0  0  0  0  0  0  0  0  0  0
    9.6713  -17.2900   27.0858 O   0  0  0  0  0  0  0  0  0  0  0  0
  2  1  1  0
  3  4  1  6
  3  2  1  0
  5  3  1  0
  6  5  2  0
  7  8  1  0
  9  8  1  1
  9 11  1  0
  9 10  1  0
 10  5  1  0
 11 12  2  0
 13 14  1  0
 13 11  1  0
 14 15  1  1
 15 16  1  0
 17 14  1  0
 18 17  1  0
 19 17  2  0
M  END
$$$$
