SSC.pdb
     RDKit          3D

 19 18  0  0  1  0  0  0  0  0999 V2000
    7.3976  -13.1224   19.6333 O   0  0  0  0  0  0  0  0  0  0  0  0
    8.3604  -12.3690   18.9278 C   0  0  0  0  0  0  0  0  0  0  0  0
    8.9802  -13.2786   17.9054 C   0  0  2  0  0  0  0  0  0  0  0  0
    7.9824  -13.8007   17.0074 N   0  0  0  0  0  0  0  0  0  0  0  0
    9.6550  -14.4142   18.5788 C   0  0  0  0  0  0  0  0  0  0  0  0
    9.0482  -15.5039   18.7643 O   0  0  0  0  0  0  0  0  0  0  0  0
   13.8038  -14.3849   19.5059 O   0  0  0  0  0  0  0  0  0  0  0  0
   13.0659  -15.4845   19.0724 C   0  0  0  0  0  0  0  0  0  0  0  0
   11.6554  -15.4192   19.6612 C   0  0  2  0  0  0  0  0  0  0  0  0
   10.9844  -14.3251   19.0336 N   0  0  0  0  0  0  0  0  0  0  0  0
   11.6840  -15.3348   21.1261 C   0  0  0  0  0  0  0  0  0  0  0  0
   12.1393  -14.2900   21.6588 O   0  0  0  0  0  0  0  0  0  0  0  0
   11.2308  -16.3566   21.9934 N   0  0  0  0  0  0  0  0  0  0  0  0
   11.3785  -16.2867   23.4050 C   0  0  1  0  0  0  0  0  0  0  0  0
   10.0923  -16.4493   24.1698 C   0  0  0  0  0  0  0  0  0  0  0  0
    8.8002  -15.3362   23.6256 S   0  0  0  0  0  0  0  0  0  0  0  0
   12.3640  -17.2959   23.8781 C   0  0  0  0  0  0  0  0  0  0  0  0
   12.7059  -17.4190   25.2144 O   0  0  0  0  0  0  0  0  0  0  0  0
   12.9091  -18.0662   23.0457 O   0  0  0  0  0  0  0  0  0  0  0  0
  2  1  1  0
  3  4  1  6
  3  2  1  0
  5  3  1  0
  6  5  2  0
  7  8  1  0
  9  8  1  6
  9 11  1  0
  9 10  1  0
 10  5  1  0
 11 12  2  0
 13 14  1  0
 13 11  1  0
 14 15  1  1
 15 16  1  0
 17 14  1  0
 18 17  1  0
 19 17  2  0
M  END
$$$$
