SSC.pdb
     RDKit          3D

 19 18  0  0  1  0  0  0  0  0999 V2000
   12.7315  -22.5174   17.0662 O   0  0  0  0  0  0  0  0  0  0  0  0
   11.5852  -22.9071   16.3406 C   0  0  0  0  0  0  0  0  0  0  0  0
   11.0279  -21.6744   15.6874 C   0  0  2  0  0  0  0  0  0  0  0  0
   11.9686  -21.1177   14.7495 N   0  0  0  0  0  0  0  0  0  0  0  0
   10.7182  -20.6512   16.7147 C   0  0  0  0  0  0  0  0  0  0  0  0
   11.4141  -19.6039   16.8088 O   0  0  0  0  0  0  0  0  0  0  0  0
    7.7381  -21.3898   19.4742 O   0  0  0  0  0  0  0  0  0  0  0  0
    7.9258  -20.0642   19.0884 C   0  0  0  0  0  0  0  0  0  0  0  0
    9.3780  -19.8580   18.6532 C   0  0  2  0  0  0  0  0  0  0  0  0
    9.6481  -20.8036   17.6168 N   0  0  0  0  0  0  0  0  0  0  0  0
   10.3012  -19.9461   19.7907 C   0  0  0  0  0  0  0  0  0  0  0  0
   10.9283  -21.0214   19.9735 O   0  0  0  0  0  0  0  0  0  0  0  0
   10.5399  -18.8958   20.7080 N   0  0  0  0  0  0  0  0  0  0  0  0
   11.3409  -19.0591   21.8703 C   0  0  1  0  0  0  0  0  0  0  0  0
   11.4656  -17.8190   22.7143 C   0  0  0  0  0  0  0  0  0  0  0  0
   12.7427  -17.9389   23.9630 S   0  0  0  0  0  0  0  0  0  0  0  0
   10.8250  -20.1753   22.7080 C   0  0  0  0  0  0  0  0  0  0  0  0
    9.4741  -20.4691   22.7898 O   0  0  0  0  0  0  0  0  0  0  0  0
   11.6334  -20.8799   23.3662 O   0  0  0  0  0  0  0  0  0  0  0  0
  2  1  1  0
  3  4  1  6
  3  2  1  0
  5  3  1  0
  6  5  2  0
  7  8  1  0
  9  8  1  1
  9 11  1  0
  9 10  1  0
 10  5  1  0
 11 12  2  0
 13 14  1  0
 13 11  1  0
 14 15  1  1
 15 16  1  0
 17 14  1  0
 18 17  1  0
 19 17  2  0
M  END
$$$$
