SSC.pdb
     RDKit          3D

 19 18  0  0  1  0  0  0  0  0999 V2000
    8.1735  -12.9216   20.7348 O   0  0  0  0  0  0  0  0  0  0  0  0
    8.5669  -14.0575   19.9951 C   0  0  0  0  0  0  0  0  0  0  0  0
    7.6478  -15.1824   20.3785 C   0  0  2  0  0  0  0  0  0  0  0  0
    6.2696  -14.7715   20.3005 N   0  0  0  0  0  0  0  0  0  0  0  0
    7.9353  -15.6228   21.7647 C   0  0  0  0  0  0  0  0  0  0  0  0
    7.1197  -15.3853   22.6966 O   0  0  0  0  0  0  0  0  0  0  0  0
   11.7361  -16.9031   22.9402 O   0  0  0  0  0  0  0  0  0  0  0  0
   10.6363  -17.6540   23.3498 C   0  0  0  0  0  0  0  0  0  0  0  0
    9.4009  -16.7546   23.4243 C   0  0  2  0  0  0  0  0  0  0  0  0
    9.1156  -16.3156   22.0950 N   0  0  0  0  0  0  0  0  0  0  0  0
    9.5866  -15.6588   24.3828 C   0  0  0  0  0  0  0  0  0  0  0  0
    9.8855  -14.5191   23.9418 O   0  0  0  0  0  0  0  0  0  0  0  0
    9.4520  -15.7934   25.7847 N   0  0  0  0  0  0  0  0  0  0  0  0
    9.6891  -14.7200   26.6852 C   0  0  1  0  0  0  0  0  0  0  0  0
    8.4853  -13.8549   26.9463 C   0  0  0  0  0  0  0  0  0  0  0  0
    8.7752  -12.5948   28.1844 S   0  0  0  0  0  0  0  0  0  0  0  0
   10.2191  -15.2300   27.9785 C   0  0  0  0  0  0  0  0  0  0  0  0
   10.8099  -14.3941   28.9113 O   0  0  0  0  0  0  0  0  0  0  0  0
   10.1324  -16.4573   28.2419 O   0  0  0  0  0  0  0  0  0  0  0  0
  2  1  1  0
  3  4  1  1
  3  2  1  0
  5  3  1  0
  6  5  2  0
  7  8  1  0
  9  8  1  6
  9 11  1  0
  9 10  1  0
 10  5  1  0
 11 12  2  0
 13 14  1  0
 13 11  1  0
 14 15  1  1
 15 16  1  0
 17 14  1  0
 18 17  1  0
 19 17  2  0
M  END
$$$$
