SSC.pdb
     RDKit          3D

 19 18  0  0  1  0  0  0  0  0999 V2000
   10.8425  -14.0565   16.7658 O   0  0  0  0  0  0  0  0  0  0  0  0
   10.2731  -14.7959   17.8248 C   0  0  0  0  0  0  0  0  0  0  0  0
    8.7900  -14.5591   17.7901 C   0  0  2  0  0  0  0  0  0  0  0  0
    8.4875  -13.2634   17.2388 N   0  0  0  0  0  0  0  0  0  0  0  0
    8.2316  -14.6348   19.1615 C   0  0  0  0  0  0  0  0  0  0  0  0
    8.0701  -13.5897   19.8482 O   0  0  0  0  0  0  0  0  0  0  0  0
    7.1825  -18.3316   21.1247 O   0  0  0  0  0  0  0  0  0  0  0  0
    6.3961  -17.1822   21.0819 C   0  0  0  0  0  0  0  0  0  0  0  0
    7.2968  -15.9458   21.0564 C   0  0  2  0  0  0  0  0  0  0  0  0
    7.8627  -15.8608   19.7473 N   0  0  0  0  0  0  0  0  0  0  0  0
    8.2947  -15.9813   22.1320 C   0  0  0  0  0  0  0  0  0  0  0  0
    9.4721  -16.3215   21.8480 O   0  0  0  0  0  0  0  0  0  0  0  0
    8.0247  -15.6562   23.4822 N   0  0  0  0  0  0  0  0  0  0  0  0
    9.0347  -15.6269   24.4814 C   0  0  1  0  0  0  0  0  0  0  0  0
    8.6429  -14.8915   25.7348 C   0  0  0  0  0  0  0  0  0  0  0  0
    7.7082  -13.3984   25.4159 S   0  0  0  0  0  0  0  0  0  0  0  0
    9.4617  -17.0079   24.8335 C   0  0  0  0  0  0  0  0  0  0  0  0
   10.5104  -17.2533   25.7042 O   0  0  0  0  0  0  0  0  0  0  0  0
    8.8575  -17.9900   24.3298 O   0  0  0  0  0  0  0  0  0  0  0  0
  2  1  1  0
  3  4  1  1
  3  2  1  0
  5  3  1  0
  6  5  2  0
  7  8  1  0
  9  8  1  6
  9 11  1  0
  9 10  1  0
 10  5  1  0
 11 12  2  0
 13 14  1  0
 13 11  1  0
 14 15  1  1
 15 16  1  0
 17 14  1  0
 18 17  1  0
 19 17  2  0
M  END
$$$$
