SSC.pdb
     RDKit          3D

 19 18  0  0  1  0  0  0  0  0999 V2000
    9.4846  -12.2479   19.0513 O   0  0  0  0  0  0  0  0  0  0  0  0
    9.0702  -12.7535   20.3022 C   0  0  0  0  0  0  0  0  0  0  0  0
    8.5123  -14.1284   20.0675 C   0  0  2  0  0  0  0  0  0  0  0  0
    7.2303  -14.0602   19.4145 N   0  0  0  0  0  0  0  0  0  0  0  0
    8.3511  -14.8383   21.3591 C   0  0  0  0  0  0  0  0  0  0  0  0
    7.2948  -14.7097   22.0357 O   0  0  0  0  0  0  0  0  0  0  0  0
   11.2156  -17.5923   22.6677 O   0  0  0  0  0  0  0  0  0  0  0  0
    9.8593  -17.7440   22.9487 C   0  0  0  0  0  0  0  0  0  0  0  0
    9.2145  -16.3672   23.1199 C   0  0  2  0  0  0  0  0  0  0  0  0
    9.3574  -15.6751   21.8782 N   0  0  0  0  0  0  0  0  0  0  0  0
    9.7760  -15.6458   24.2681 C   0  0  0  0  0  0  0  0  0  0  0  0
   10.7048  -14.8221   24.0642 O   0  0  0  0  0  0  0  0  0  0  0  0
    9.3427  -15.8121   25.6045 N   0  0  0  0  0  0  0  0  0  0  0  0
    9.9792  -15.1736   26.7029 C   0  0  1  0  0  0  0  0  0  0  0  0
    9.1210  -14.1596   27.4106 C   0  0  0  0  0  0  0  0  0  0  0  0
    9.9222  -13.4241   28.8325 S   0  0  0  0  0  0  0  0  0  0  0  0
   10.4623  -16.1815   27.6850 C   0  0  0  0  0  0  0  0  0  0  0  0
   11.5421  -15.9378   28.5172 O   0  0  0  0  0  0  0  0  0  0  0  0
    9.8781  -17.2927   27.7695 O   0  0  0  0  0  0  0  0  0  0  0  0
  2  1  1  0
  3  4  1  1
  3  2  1  0
  5  3  1  0
  6  5  2  0
  7  8  1  0
  9  8  1  6
  9 11  1  0
  9 10  1  0
 10  5  1  0
 11 12  2  0
 13 14  1  0
 13 11  1  0
 14 15  1  1
 15 16  1  0
 17 14  1  0
 18 17  1  0
 19 17  2  0
M  END
$$$$
