LLF.pdb
     RDKit          3D

 28 28  0  0  1  0  0  0  0  0999 V2000
   28.8502  -17.2600  -16.3947 C   0  0  0  0  0  0  0  0  0  0  0  0
   27.8604  -17.7022  -17.4636 C   0  0  2  0  0  0  0  0  0  0  0  0
   27.2800  -16.4744  -18.1367 C   0  0  0  0  0  0  0  0  0  0  0  0
   26.7698  -18.5656  -16.8652 C   0  0  0  0  0  0  0  0  0  0  0  0
   27.4029  -19.7153  -16.1100 C   0  0  2  0  0  0  0  0  0  0  0  0
   27.8782  -20.6969  -17.0253 N   0  0  0  0  0  0  0  0  0  0  0  0
   26.5167  -20.3083  -15.1209 C   0  0  0  0  0  0  0  0  0  0  0  0
   25.6261  -21.1908  -15.4910 O   0  0  0  0  0  0  0  0  0  0  0  0
   24.8499  -22.4006  -10.3428 C   0  0  0  0  0  0  0  0  0  0  0  0
   25.1336  -20.9273  -10.3680 C   0  0  1  0  0  0  0  0  0  0  0  0
   25.7645  -20.5855   -9.0046 C   0  0  0  0  0  0  0  0  0  0  0  0
   26.0365  -20.4567  -11.4194 C   0  0  0  0  0  0  0  0  0  0  0  0
   25.5536  -20.5895  -12.8463 C   0  0  2  0  0  0  0  0  0  0  0  0
   26.5344  -20.0077  -13.7596 N   0  0  0  0  0  0  0  0  0  0  0  0
   24.2704  -19.9741  -13.1335 C   0  0  0  0  0  0  0  0  0  0  0  0
   24.1629  -18.7189  -13.0742 O   0  0  0  0  0  0  0  0  0  0  0  0
   23.0751  -20.6665  -13.4977 N   0  0  0  0  0  0  0  0  0  0  0  0
   21.8051  -19.9449  -13.4907 C   0  0  1  0  0  0  0  0  0  0  0  0
   21.8846  -18.8545  -14.5874 C   0  0  0  0  0  0  0  0  0  0  0  0
   21.8361  -19.4400  -15.9251 C   0  0  0  0  0  0  0  0  0  0  0  0
   20.5828  -19.7240  -16.4683 C   0  0  0  0  0  0  0  0  0  0  0  0
   20.5314  -20.2405  -17.7510 C   0  0  0  0  0  0  0  0  0  0  0  0
   21.6584  -20.4756  -18.4881 C   0  0  0  0  0  0  0  0  0  0  0  0
   22.9080  -20.1925  -17.9459 C   0  0  0  0  0  0  0  0  0  0  0  0
   22.9653  -19.6792  -16.6721 C   0  0  0  0  0  0  0  0  0  0  0  0
   20.6821  -20.8311  -13.7877 C   0  0  0  0  0  0  0  0  0  0  0  0
   20.8159  -22.2156  -14.0353 O   0  0  0  0  0  0  0  0  0  0  0  0
   19.4673  -20.4452  -13.8541 O   0  0  0  0  0  0  0  0  0  0  0  0
  2  1  1  1
  3  2  1  0
  4  2  1  0
  5  4  1  0
  5  6  1  6
  7  8  2  0
  7  5  1  0
 10  9  1  1
 10 12  1  0
 11 10  1  0
 13 12  1  1
 13 14  1  0
 14  7  1  0
 15 13  1  0
 15 17  1  0
 16 15  2  0
 18 17  1  0
 18 26  1  0
 18 19  1  6
 20 19  1  0
 20 21  2  0
 22 21  1  0
 23 22  2  0
 24 25  2  0
 24 23  1  0
 25 20  1  0
 26 28  2  0
 26 27  1  0
M  END
$$$$
