LLF.pdb
     RDKit          3D

 28 28  0  0  1  0  0  0  0  0999 V2000
   27.8498  -17.4493  -15.7815 C   0  0  0  0  0  0  0  0  0  0  0  0
   26.8782  -16.7296  -14.8564 C   0  0  2  0  0  0  0  0  0  0  0  0
   27.6099  -15.6053  -14.1507 C   0  0  0  0  0  0  0  0  0  0  0  0
   26.2657  -17.6933  -13.8619 C   0  0  0  0  0  0  0  0  0  0  0  0
   25.5791  -18.8146  -14.6131 C   0  0  2  0  0  0  0  0  0  0  0  0
   24.5608  -18.2850  -15.4556 N   0  0  0  0  0  0  0  0  0  0  0  0
   25.0489  -19.8493  -13.7392 C   0  0  0  0  0  0  0  0  0  0  0  0
   23.8460  -19.7278  -13.2420 O   0  0  0  0  0  0  0  0  0  0  0  0
   25.5031  -24.8751  -15.3134 C   0  0  0  0  0  0  0  0  0  0  0  0
   25.0141  -23.6175  -14.6569 C   0  0  1  0  0  0  0  0  0  0  0  0
   23.4753  -23.6700  -14.7153 C   0  0  0  0  0  0  0  0  0  0  0  0
   25.4110  -23.4148  -13.2628 C   0  0  0  0  0  0  0  0  0  0  0  0
   25.0687  -22.0795  -12.6409 C   0  0  2  0  0  0  0  0  0  0  0  0
   25.7368  -21.0048  -13.3712 N   0  0  0  0  0  0  0  0  0  0  0  0
   25.4136  -21.9346  -11.2381 C   0  0  0  0  0  0  0  0  0  0  0  0
   24.8389  -22.6639  -10.3846 O   0  0  0  0  0  0  0  0  0  0  0  0
   26.3774  -21.0248  -10.7049 N   0  0  0  0  0  0  0  0  0  0  0  0
   26.6021  -20.9920   -9.2619 C   0  0  1  0  0  0  0  0  0  0  0  0
   27.7788  -20.0209   -8.9972 C   0  0  0  0  0  0  0  0  0  0  0  0
   28.0410  -19.8791   -7.5669 C   0  0  0  0  0  0  0  0  0  0  0  0
   28.9707  -20.7414   -6.9850 C   0  0  0  0  0  0  0  0  0  0  0  0
   29.2517  -20.5832   -5.6393 C   0  0  0  0  0  0  0  0  0  0  0  0
   28.6520  -19.6196   -4.8776 C   0  0  0  0  0  0  0  0  0  0  0  0
   27.7246  -18.7602   -5.4581 C   0  0  0  0  0  0  0  0  0  0  0  0
   27.4415  -18.9123   -6.7945 C   0  0  0  0  0  0  0  0  0  0  0  0
   25.4233  -20.5106   -8.5455 C   0  0  0  0  0  0  0  0  0  0  0  0
   24.5494  -19.5190   -9.0445 O   0  0  0  0  0  0  0  0  0  0  0  0
   25.0637  -20.9359   -7.3971 O   0  0  0  0  0  0  0  0  0  0  0  0
  2  1  1  6
  3  2  1  0
  4  2  1  0
  5  4  1  0
  5  6  1  1
  7  8  2  0
  7  5  1  0
 10  9  1  1
 10 12  1  0
 11 10  1  0
 13 12  1  6
 13 14  1  0
 14  7  1  0
 15 13  1  0
 15 17  1  0
 16 15  2  0
 18 17  1  0
 18 26  1  0
 18 19  1  6
 20 19  1  0
 20 21  2  0
 22 21  1  0
 23 22  2  0
 24 25  2  0
 24 23  1  0
 25 20  1  0
 26 28  2  0
 26 27  1  0
M  END
$$$$
