LLF.pdb
     RDKit          3D

 28 28  0  0  1  0  0  0  0  0999 V2000
   23.1814  -18.3894  -18.6405 C   0  0  0  0  0  0  0  0  0  0  0  0
   24.6809  -18.1400  -18.5552 C   0  0  2  0  0  0  0  0  0  0  0  0
   25.2287  -17.9438  -19.9548 C   0  0  0  0  0  0  0  0  0  0  0  0
   25.3788  -19.2836  -17.8495 C   0  0  0  0  0  0  0  0  0  0  0  0
   24.7597  -19.4764  -16.4811 C   0  0  2  0  0  0  0  0  0  0  0  0
   24.6483  -18.2228  -15.8154 N   0  0  0  0  0  0  0  0  0  0  0  0
   25.4727  -20.4426  -15.6605 C   0  0  0  0  0  0  0  0  0  0  0  0
   25.6308  -21.6681  -16.0873 O   0  0  0  0  0  0  0  0  0  0  0  0
   30.2406  -19.6472  -13.8716 C   0  0  0  0  0  0  0  0  0  0  0  0
   28.8743  -20.1152  -14.2787 C   0  0  1  0  0  0  0  0  0  0  0  0
   29.0865  -21.1232  -15.4245 C   0  0  0  0  0  0  0  0  0  0  0  0
   28.0738  -20.7664  -13.2407 C   0  0  0  0  0  0  0  0  0  0  0  0
   26.6815  -21.2114  -13.6287 C   0  0  2  0  0  0  0  0  0  0  0  0
   26.0250  -20.1663  -14.4105 N   0  0  0  0  0  0  0  0  0  0  0  0
   25.8012  -21.5493  -12.5247 C   0  0  0  0  0  0  0  0  0  0  0  0
   26.2940  -22.0399  -11.4726 O   0  0  0  0  0  0  0  0  0  0  0  0
   24.3841  -21.3695  -12.5016 N   0  0  0  0  0  0  0  0  0  0  0  0
   23.7242  -21.0838  -11.2302 C   0  0  1  0  0  0  0  0  0  0  0  0
   24.3726  -19.8039  -10.6477 C   0  0  0  0  0  0  0  0  0  0  0  0
   25.0965  -20.0889   -9.4111 C   0  0  0  0  0  0  0  0  0  0  0  0
   26.0356  -19.1543   -8.9741 C   0  0  0  0  0  0  0  0  0  0  0  0
   26.6936  -19.4013   -7.7821 C   0  0  0  0  0  0  0  0  0  0  0  0
   26.4512  -20.5190   -7.0335 C   0  0  0  0  0  0  0  0  0  0  0  0
   25.5149  -21.4510   -7.4698 C   0  0  0  0  0  0  0  0  0  0  0  0
   24.8580  -21.2110   -8.6531 C   0  0  0  0  0  0  0  0  0  0  0  0
   22.2934  -20.8479  -11.4086 C   0  0  0  0  0  0  0  0  0  0  0  0
   21.6534  -20.8066  -12.6675 O   0  0  0  0  0  0  0  0  0  0  0  0
   21.4770  -20.6550  -10.4467 O   0  0  0  0  0  0  0  0  0  0  0  0
  2  1  1  6
  3  2  1  0
  4  2  1  0
  5  4  1  0
  5  6  1  1
  7  8  2  0
  7  5  1  0
 10  9  1  1
 10 12  1  0
 11 10  1  0
 13 12  1  1
 13 14  1  0
 14  7  1  0
 15 13  1  0
 15 17  1  0
 16 15  2  0
 18 17  1  0
 18 26  1  0
 18 19  1  6
 20 19  1  0
 20 21  2  0
 22 21  1  0
 23 22  2  0
 24 25  2  0
 24 23  1  0
 25 20  1  0
 26 28  2  0
 26 27  1  0
M  END
$$$$
