LLF.pdb
     RDKit          3D

 28 28  0  0  1  0  0  0  0  0999 V2000
   27.9007  -19.6092  -17.1903 C   0  0  0  0  0  0  0  0  0  0  0  0
   26.6951  -20.3835  -17.7049 C   0  0  2  0  0  0  0  0  0  0  0  0
   25.9455  -19.5232  -18.7026 C   0  0  0  0  0  0  0  0  0  0  0  0
   25.7964  -20.8051  -16.5615 C   0  0  0  0  0  0  0  0  0  0  0  0
   26.5992  -21.6247  -15.5731 C   0  0  2  0  0  0  0  0  0  0  0  0
   26.9631  -22.8717  -16.1559 N   0  0  0  0  0  0  0  0  0  0  0  0
   25.9173  -21.8202  -14.3034 C   0  0  0  0  0  0  0  0  0  0  0  0
   25.1416  -22.8587  -14.1343 O   0  0  0  0  0  0  0  0  0  0  0  0
   26.1563  -20.2061   -8.3178 C   0  0  0  0  0  0  0  0  0  0  0  0
   25.4776  -20.8903   -9.4680 C   0  0  1  0  0  0  0  0  0  0  0  0
   23.9992  -20.4596   -9.4153 C   0  0  0  0  0  0  0  0  0  0  0  0
   25.9943  -20.5854  -10.8030 C   0  0  0  0  0  0  0  0  0  0  0  0
   25.2830  -21.2245  -11.9746 C   0  0  2  0  0  0  0  0  0  0  0  0
   26.0229  -20.9648  -13.2074 N   0  0  0  0  0  0  0  0  0  0  0  0
   23.9135  -20.7923  -12.1877 C   0  0  0  0  0  0  0  0  0  0  0  0
   23.6851  -19.5817  -12.4574 O   0  0  0  0  0  0  0  0  0  0  0  0
   22.7558  -21.6275  -12.1301 N   0  0  0  0  0  0  0  0  0  0  0  0
   21.4321  -21.0132  -12.1925 C   0  0  1  0  0  0  0  0  0  0  0  0
   20.7854  -21.4388  -13.5336 C   0  0  0  0  0  0  0  0  0  0  0  0
   21.1773  -20.5453  -14.6211 C   0  0  0  0  0  0  0  0  0  0  0  0
   22.1203  -21.0087  -15.5390 C   0  0  0  0  0  0  0  0  0  0  0  0
   22.4635  -20.1810  -16.5935 C   0  0  0  0  0  0  0  0  0  0  0  0
   21.9115  -18.9412  -16.7567 C   0  0  0  0  0  0  0  0  0  0  0  0
   20.9714  -18.4793  -15.8410 C   0  0  0  0  0  0  0  0  0  0  0  0
   20.6264  -19.2971  -14.7916 C   0  0  0  0  0  0  0  0  0  0  0  0
   20.5792  -21.4623  -11.0945 C   0  0  0  0  0  0  0  0  0  0  0  0
   20.9896  -22.3833  -10.1049 O   0  0  0  0  0  0  0  0  0  0  0  0
   19.3778  -21.0691  -10.9179 O   0  0  0  0  0  0  0  0  0  0  0  0
  2  1  1  1
  3  2  1  0
  4  2  1  0
  5  4  1  0
  5  6  1  6
  7  8  2  0
  7  5  1  0
 10  9  1  1
 10 12  1  0
 11 10  1  0
 13 12  1  1
 13 14  1  0
 14  7  1  0
 15 13  1  0
 15 17  1  0
 16 15  2  0
 18 17  1  0
 18 26  1  0
 18 19  1  6
 20 19  1  0
 20 21  2  0
 22 21  1  0
 23 22  2  0
 24 25  2  0
 24 23  1  0
 25 20  1  0
 26 28  2  0
 26 27  1  0
M  END
$$$$
