LLF.pdb
     RDKit          3D

 28 28  0  0  1  0  0  0  0  0999 V2000
   26.8022  -32.7483   -9.4865 C   0  0  0  0  0  0  0  0  0  0  0  0
   25.3763  -33.2549   -9.3192 C   0  0  2  0  0  0  0  0  0  0  0  0
   24.4615  -32.0753   -9.0563 C   0  0  0  0  0  0  0  0  0  0  0  0
   25.2927  -34.2724   -8.2010 C   0  0  0  0  0  0  0  0  0  0  0  0
   26.2225  -35.4275   -8.5082 C   0  0  2  0  0  0  0  0  0  0  0  0
   25.6934  -36.2089   -9.5744 N   0  0  0  0  0  0  0  0  0  0  0  0
   26.5118  -36.2546   -7.3474 C   0  0  0  0  0  0  0  0  0  0  0  0
   26.1206  -37.5017   -7.3231 O   0  0  0  0  0  0  0  0  0  0  0  0
   29.5703  -39.8994   -4.7413 C   0  0  0  0  0  0  0  0  0  0  0  0
   28.5584  -38.8430   -4.4072 C   0  0  1  0  0  0  0  0  0  0  0  0
   29.0009  -38.2304   -3.0645 C   0  0  0  0  0  0  0  0  0  0  0  0
   28.4078  -37.7568   -5.3766 C   0  0  0  0  0  0  0  0  0  0  0  0
   27.3795  -36.6942   -5.0595 C   0  0  2  0  0  0  0  0  0  0  0  0
   27.1972  -35.8181   -6.2144 N   0  0  0  0  0  0  0  0  0  0  0  0
   27.6805  -35.8523   -3.9156 C   0  0  0  0  0  0  0  0  0  0  0  0
   28.8720  -35.4915   -3.7137 O   0  0  0  0  0  0  0  0  0  0  0  0
   26.7321  -35.3652   -2.9648 N   0  0  0  0  0  0  0  0  0  0  0  0
   27.1743  -34.4278   -1.9356 C   0  0  1  0  0  0  0  0  0  0  0  0
   26.6604  -33.0228   -2.3353 C   0  0  0  0  0  0  0  0  0  0  0  0
   25.2121  -33.0204   -2.5280 C   0  0  0  0  0  0  0  0  0  0  0  0
   24.7260  -33.1804   -3.8259 C   0  0  0  0  0  0  0  0  0  0  0  0
   23.3547  -33.2196   -4.0070 C   0  0  0  0  0  0  0  0  0  0  0  0
   22.4781  -33.1076   -2.9642 C   0  0  0  0  0  0  0  0  0  0  0  0
   22.9632  -32.9477   -1.6701 C   0  0  0  0  0  0  0  0  0  0  0  0
   24.3244  -32.9082   -1.4840 C   0  0  0  0  0  0  0  0  0  0  0  0
   26.6300  -34.7734   -0.6245 C   0  0  0  0  0  0  0  0  0  0  0  0
   26.9685  -34.1004    0.5707 O   0  0  0  0  0  0  0  0  0  0  0  0
   25.7945  -35.7176   -0.4256 O   0  0  0  0  0  0  0  0  0  0  0  0
  2  1  1  1
  3  2  1  0
  4  2  1  0
  5  4  1  0
  5  6  1  6
  7  8  2  0
  7  5  1  0
 10  9  1  6
 10 12  1  0
 11 10  1  0
 13 12  1  6
 13 14  1  0
 14  7  1  0
 15 13  1  0
 15 17  1  0
 16 15  2  0
 18 17  1  0
 18 26  1  0
 18 19  1  6
 20 19  1  0
 20 21  2  0
 22 21  1  0
 23 22  2  0
 24 25  2  0
 24 23  1  0
 25 20  1  0
 26 28  2  0
 26 27  1  0
M  END
$$$$
