LLF.pdb
     RDKit          3D

 28 28  0  0  1  0  0  0  0  0999 V2000
   25.4746  -20.0078  -20.3267 C   0  0  0  0  0  0  0  0  0  0  0  0
   26.7326  -20.8653  -20.3340 C   0  0  2  0  0  0  0  0  0  0  0  0
   26.3694  -22.2699  -20.7728 C   0  0  0  0  0  0  0  0  0  0  0  0
   27.3900  -20.8706  -18.9699 C   0  0  0  0  0  0  0  0  0  0  0  0
   27.6171  -19.4424  -18.5210 C   0  0  2  0  0  0  0  0  0  0  0  0
   28.9150  -19.0085  -18.9139 N   0  0  0  0  0  0  0  0  0  0  0  0
   27.4114  -19.2507  -17.0940 C   0  0  0  0  0  0  0  0  0  0  0  0
   28.3563  -19.5749  -16.2509 O   0  0  0  0  0  0  0  0  0  0  0  0
   25.0698  -14.7103  -15.4111 C   0  0  0  0  0  0  0  0  0  0  0  0
   25.9375  -15.9322  -15.4873 C   0  0  1  0  0  0  0  0  0  0  0  0
   27.2518  -15.5743  -14.7674 C   0  0  0  0  0  0  0  0  0  0  0  0
   25.4008  -17.1501  -14.8784 C   0  0  0  0  0  0  0  0  0  0  0  0
   26.1827  -18.4261  -15.0963 C   0  0  2  0  0  0  0  0  0  0  0  0
   26.2504  -18.7304  -16.5237 N   0  0  0  0  0  0  0  0  0  0  0  0
   25.6626  -19.6026  -14.4230 C   0  0  0  0  0  0  0  0  0  0  0  0
   24.8005  -20.3147  -15.0063 O   0  0  0  0  0  0  0  0  0  0  0  0
   26.0455  -20.0592  -13.1247 N   0  0  0  0  0  0  0  0  0  0  0  0
   25.3451  -21.1980  -12.5362 C   0  0  1  0  0  0  0  0  0  0  0  0
   26.2123  -21.7219  -11.3651 C   0  0  0  0  0  0  0  0  0  0  0  0
   26.1344  -20.8352  -10.2066 C   0  0  0  0  0  0  0  0  0  0  0  0
   25.3315  -21.2291   -9.1358 C   0  0  0  0  0  0  0  0  0  0  0  0
   25.2875  -20.4117   -8.0201 C   0  0  0  0  0  0  0  0  0  0  0  0
   25.9989  -19.2472   -7.9410 C   0  0  0  0  0  0  0  0  0  0  0  0
   26.7992  -18.8545   -9.0091 C   0  0  0  0  0  0  0  0  0  0  0  0
   26.8471  -19.6625  -10.1200 C   0  0  0  0  0  0  0  0  0  0  0  0
   24.0349  -20.8129  -12.0170 C   0  0  0  0  0  0  0  0  0  0  0  0
   23.0042  -21.7327  -11.7206 O   0  0  0  0  0  0  0  0  0  0  0  0
   23.6882  -19.6079  -11.7789 O   0  0  0  0  0  0  0  0  0  0  0  0
  2  1  1  1
  3  2  1  0
  4  2  1  0
  5  4  1  0
  5  6  1  1
  7  8  2  0
  7  5  1  0
 10  9  1  1
 10 12  1  0
 11 10  1  0
 13 12  1  6
 13 14  1  0
 14  7  1  0
 15 13  1  0
 15 17  1  0
 16 15  2  0
 18 17  1  0
 18 26  1  0
 18 19  1  1
 20 19  1  0
 20 21  2  0
 22 21  1  0
 23 22  2  0
 24 25  2  0
 24 23  1  0
 25 20  1  0
 26 28  2  0
 26 27  1  0
M  END
$$$$
