LLF.pdb
     RDKit          3D

 28 28  0  0  1  0  0  0  0  0999 V2000
   22.4156  -18.9363  -18.6773 C   0  0  0  0  0  0  0  0  0  0  0  0
   23.4079  -20.0903  -18.6359 C   0  0  2  0  0  0  0  0  0  0  0  0
   22.9715  -21.1518  -19.6259 C   0  0  0  0  0  0  0  0  0  0  0  0
   23.5166  -20.6584  -17.2365 C   0  0  0  0  0  0  0  0  0  0  0  0
   24.1323  -19.6190  -16.3235 C   0  0  2  0  0  0  0  0  0  0  0  0
   24.9637  -18.7410  -17.0752 N   0  0  0  0  0  0  0  0  0  0  0  0
   24.8596  -20.1977  -15.2048 C   0  0  0  0  0  0  0  0  0  0  0  0
   24.3688  -21.2329  -14.5751 O   0  0  0  0  0  0  0  0  0  0  0  0
   29.1824  -21.9773  -12.2879 C   0  0  0  0  0  0  0  0  0  0  0  0
   29.0146  -20.4972  -12.4690 C   0  0  1  0  0  0  0  0  0  0  0  0
   30.4342  -19.9160  -12.6134 C   0  0  0  0  0  0  0  0  0  0  0  0
   28.2264  -20.0686  -13.6254 C   0  0  0  0  0  0  0  0  0  0  0  0
   26.7447  -20.3694  -13.5931 C   0  0  2  0  0  0  0  0  0  0  0  0
   26.0821  -19.7281  -14.7264 N   0  0  0  0  0  0  0  0  0  0  0  0
   26.0474  -19.9563  -12.3885 C   0  0  0  0  0  0  0  0  0  0  0  0
   25.6463  -18.7649  -12.2876 O   0  0  0  0  0  0  0  0  0  0  0  0
   25.7500  -20.7912  -11.2680 N   0  0  0  0  0  0  0  0  0  0  0  0
   25.2679  -20.1784  -10.0328 C   0  0  1  0  0  0  0  0  0  0  0  0
   23.9081  -19.5075  -10.3473 C   0  0  0  0  0  0  0  0  0  0  0  0
   22.8905  -20.4995  -10.6862 C   0  0  0  0  0  0  0  0  0  0  0  0
   22.1906  -21.1005   -9.6396 C   0  0  0  0  0  0  0  0  0  0  0  0
   21.1979  -22.0103   -9.9584 C   0  0  0  0  0  0  0  0  0  0  0  0
   20.8899  -22.3302  -11.2512 C   0  0  0  0  0  0  0  0  0  0  0  0
   21.5883  -21.7309  -12.2946 C   0  0  0  0  0  0  0  0  0  0  0  0
   22.5754  -20.8262  -11.9841 C   0  0  0  0  0  0  0  0  0  0  0  0
   25.0706  -21.1731   -8.9811 C   0  0  0  0  0  0  0  0  0  0  0  0
   24.6837  -20.8556   -7.6599 O   0  0  0  0  0  0  0  0  0  0  0  0
   25.2280  -22.4286   -9.1483 O   0  0  0  0  0  0  0  0  0  0  0  0
  2  1  1  1
  3  2  1  0
  4  2  1  0
  5  4  1  0
  5  6  1  6
  7  8  2  0
  7  5  1  0
 10  9  1  6
 10 12  1  0
 11 10  1  0
 13 12  1  1
 13 14  1  0
 14  7  1  0
 15 13  1  0
 15 17  1  0
 16 15  2  0
 18 17  1  0
 18 26  1  0
 18 19  1  6
 20 19  1  0
 20 21  2  0
 22 21  1  0
 23 22  2  0
 24 25  2  0
 24 23  1  0
 25 20  1  0
 26 28  2  0
 26 27  1  0
M  END
$$$$
