LLF.pdb
     RDKit          3D

 28 28  0  0  1  0  0  0  0  0999 V2000
   20.3092  -19.2873  -12.9668 C   0  0  0  0  0  0  0  0  0  0  0  0
   20.5897  -20.6904  -13.4867 C   0  0  2  0  0  0  0  0  0  0  0  0
   19.4525  -21.6049  -13.0770 C   0  0  0  0  0  0  0  0  0  0  0  0
   21.9175  -21.2022  -12.9691 C   0  0  0  0  0  0  0  0  0  0  0  0
   23.0245  -20.2854  -13.4453 C   0  0  2  0  0  0  0  0  0  0  0  0
   22.8601  -20.0012  -14.8307 N   0  0  0  0  0  0  0  0  0  0  0  0
   24.3555  -20.8043  -13.1724 C   0  0  0  0  0  0  0  0  0  0  0  0
   24.6364  -22.0514  -13.4457 O   0  0  0  0  0  0  0  0  0  0  0  0
   28.6173  -18.1893  -14.8863 C   0  0  0  0  0  0  0  0  0  0  0  0
   27.6382  -19.2206  -14.4072 C   0  0  1  0  0  0  0  0  0  0  0  0
   27.8435  -20.4590  -15.3005 C   0  0  0  0  0  0  0  0  0  0  0  0
   27.7659  -19.6393  -13.0105 C   0  0  0  0  0  0  0  0  0  0  0  0
   26.7407  -20.6243  -12.4950 C   0  0  2  0  0  0  0  0  0  0  0  0
   25.3994  -20.0599  -12.6246 N   0  0  0  0  0  0  0  0  0  0  0  0
   26.9088  -21.0383  -11.1136 C   0  0  0  0  0  0  0  0  0  0  0  0
   27.9097  -21.7378  -10.7983 O   0  0  0  0  0  0  0  0  0  0  0  0
   26.0312  -20.7173  -10.0330 N   0  0  0  0  0  0  0  0  0  0  0  0
   26.5067  -20.8726   -8.6606 C   0  0  1  0  0  0  0  0  0  0  0  0
   27.6642  -19.8650   -8.4534 C   0  0  0  0  0  0  0  0  0  0  0  0
   28.1374  -19.8743   -7.0711 C   0  0  0  0  0  0  0  0  0  0  0  0
   27.5472  -18.9846   -6.1731 C   0  0  0  0  0  0  0  0  0  0  0  0
   27.9641  -19.0189   -4.8541 C   0  0  0  0  0  0  0  0  0  0  0  0
   28.9236  -19.8880   -4.4151 C   0  0  0  0  0  0  0  0  0  0  0  0
   29.5121  -20.7748   -5.3110 C   0  0  0  0  0  0  0  0  0  0  0  0
   29.1019  -20.7455   -6.6225 C   0  0  0  0  0  0  0  0  0  0  0  0
   25.4522  -20.5850   -7.6910 C   0  0  0  0  0  0  0  0  0  0  0  0
   25.3985  -21.1480   -6.3963 O   0  0  0  0  0  0  0  0  0  0  0  0
   24.4732  -19.7972   -7.9147 O   0  0  0  0  0  0  0  0  0  0  0  0
  2  1  1  1
  3  2  1  0
  4  2  1  0
  5  4  1  0
  5  6  1  6
  7  8  2  0
  7  5  1  0
 10  9  1  6
 10 12  1  0
 11 10  1  0
 13 12  1  1
 13 14  1  0
 14  7  1  0
 15 13  1  0
 15 17  1  0
 16 15  2  0
 18 17  1  0
 18 26  1  0
 18 19  1  1
 20 19  1  0
 20 21  2  0
 22 21  1  0
 23 22  2  0
 24 25  2  0
 24 23  1  0
 25 20  1  0
 26 28  2  0
 26 27  1  0
M  END
$$$$
