LLF.pdb
     RDKit          3D

 28 28  0  0  1  0  0  0  0  0999 V2000
   36.1410  -24.3942    5.9637 C   0  0  0  0  0  0  0  0  0  0  0  0
   34.7480  -24.7951    6.4293 C   0  0  2  0  0  0  0  0  0  0  0  0
   33.7559  -24.5099    5.3195 C   0  0  0  0  0  0  0  0  0  0  0  0
   34.3726  -24.0632    7.7007 C   0  0  0  0  0  0  0  0  0  0  0  0
   35.4087  -24.3528    8.7664 C   0  0  2  0  0  0  0  0  0  0  0  0
   35.2941  -25.7029    9.2036 N   0  0  0  0  0  0  0  0  0  0  0  0
   35.3471  -23.4322    9.8907 C   0  0  0  0  0  0  0  0  0  0  0  0
   34.7102  -23.7761   10.9793 O   0  0  0  0  0  0  0  0  0  0  0  0
   39.4905  -20.0921   11.5026 C   0  0  0  0  0  0  0  0  0  0  0  0
   38.2955  -20.9995   11.4994 C   0  0  1  0  0  0  0  0  0  0  0  0
   38.1935  -21.5844   12.9212 C   0  0  0  0  0  0  0  0  0  0  0  0
   37.0108  -20.3821   11.1669 C   0  0  0  0  0  0  0  0  0  0  0  0
   35.8120  -21.3001   11.0817 C   0  0  2  0  0  0  0  0  0  0  0  0
   35.9309  -22.1662    9.9111 N   0  0  0  0  0  0  0  0  0  0  0  0
   34.5211  -20.6398   11.0073 C   0  0  0  0  0  0  0  0  0  0  0  0
   34.1606  -19.8853   11.9514 O   0  0  0  0  0  0  0  0  0  0  0  0
   33.5860  -20.7530    9.9332 N   0  0  0  0  0  0  0  0  0  0  0  0
   32.3241  -20.0213   10.0090 C   0  0  1  0  0  0  0  0  0  0  0  0
   31.9504  -19.5897    8.5696 C   0  0  0  0  0  0  0  0  0  0  0  0
   30.7084  -18.8205    8.5496 C   0  0  0  0  0  0  0  0  0  0  0  0
   29.5338  -19.4863    8.1982 C   0  0  0  0  0  0  0  0  0  0  0  0
   28.3495  -18.7709    8.2179 C   0  0  0  0  0  0  0  0  0  0  0  0
   28.3011  -17.4502    8.5672 C   0  0  0  0  0  0  0  0  0  0  0  0
   29.4727  -16.7866    8.9173 C   0  0  0  0  0  0  0  0  0  0  0  0
   30.6522  -17.4921    8.8997 C   0  0  0  0  0  0  0  0  0  0  0  0
   31.2508  -20.8555   10.5446 C   0  0  0  0  0  0  0  0  0  0  0  0
   31.1090  -22.2327   10.2630 O   0  0  0  0  0  0  0  0  0  0  0  0
   30.3328  -20.4254   11.3202 O   0  0  0  0  0  0  0  0  0  0  0  0
  2  1  1  6
  3  2  1  0
  4  2  1  0
  5  4  1  0
  5  6  1  1
  7  8  2  0
  7  5  1  0
 10  9  1  1
 10 12  1  0
 11 10  1  0
 13 12  1  6
 13 14  1  0
 14  7  1  0
 15 13  1  0
 15 17  1  0
 16 15  2  0
 18 17  1  0
 18 26  1  0
 18 19  1  6
 20 19  1  0
 20 21  2  0
 22 21  1  0
 23 22  2  0
 24 25  2  0
 24 23  1  0
 25 20  1  0
 26 28  2  0
 26 27  1  0
M  END
$$$$
