LLF.pdb
     RDKit          3D

 28 28  0  0  1  0  0  0  0  0999 V2000
   25.1816  -26.7919  -17.2329 C   0  0  0  0  0  0  0  0  0  0  0  0
   26.1139  -25.6308  -17.5502 C   0  0  2  0  0  0  0  0  0  0  0  0
   26.2234  -25.4832  -19.0547 C   0  0  0  0  0  0  0  0  0  0  0  0
   27.4744  -25.8436  -16.9205 C   0  0  0  0  0  0  0  0  0  0  0  0
   28.3083  -24.5928  -17.1021 C   0  0  2  0  0  0  0  0  0  0  0  0
   29.6543  -24.8432  -16.7110 N   0  0  0  0  0  0  0  0  0  0  0  0
   27.7674  -23.4371  -16.4040 C   0  0  0  0  0  0  0  0  0  0  0  0
   27.8710  -23.3552  -15.1035 O   0  0  0  0  0  0  0  0  0  0  0  0
   28.4209  -18.0869  -17.7682 C   0  0  0  0  0  0  0  0  0  0  0  0
   28.2087  -19.3323  -16.9585 C   0  0  1  0  0  0  0  0  0  0  0  0
   28.4656  -18.9421  -15.4903 C   0  0  0  0  0  0  0  0  0  0  0  0
   26.8819  -19.9445  -17.0424 C   0  0  0  0  0  0  0  0  0  0  0  0
   26.6631  -21.2150  -16.2518 C   0  0  2  0  0  0  0  0  0  0  0  0
   27.1240  -22.3667  -17.0237 N   0  0  0  0  0  0  0  0  0  0  0  0
   25.2919  -21.4767  -15.8531 C   0  0  0  0  0  0  0  0  0  0  0  0
   24.5289  -22.0965  -16.6432 O   0  0  0  0  0  0  0  0  0  0  0  0
   24.6972  -21.0991  -14.6102 N   0  0  0  0  0  0  0  0  0  0  0  0
   23.3359  -21.5365  -14.3114 C   0  0  1  0  0  0  0  0  0  0  0  0
   23.4092  -22.4755  -13.0822 C   0  0  0  0  0  0  0  0  0  0  0  0
   24.0515  -21.8175  -11.9468 C   0  0  0  0  0  0  0  0  0  0  0  0
   25.4133  -22.0445  -11.7457 C   0  0  0  0  0  0  0  0  0  0  0  0
   26.0339  -21.3908  -10.6957 C   0  0  0  0  0  0  0  0  0  0  0  0
   25.3584  -20.5420   -9.8640 C   0  0  0  0  0  0  0  0  0  0  0  0
   24.0003  -20.3162  -10.0647 C   0  0  0  0  0  0  0  0  0  0  0  0
   23.3785  -20.9626  -11.1062 C   0  0  0  0  0  0  0  0  0  0  0  0
   22.4670  -20.4067  -13.9903 C   0  0  0  0  0  0  0  0  0  0  0  0
   21.0660  -20.5090  -13.8396 O   0  0  0  0  0  0  0  0  0  0  0  0
   22.8845  -19.2135  -13.8137 O   0  0  0  0  0  0  0  0  0  0  0  0
  2  1  1  6
  3  2  1  0
  4  2  1  0
  5  4  1  0
  5  6  1  1
  7  8  2  0
  7  5  1  0
 10  9  1  6
 10 12  1  0
 11 10  1  0
 13 12  1  6
 13 14  1  0
 14  7  1  0
 15 13  1  0
 15 17  1  0
 16 15  2  0
 18 17  1  0
 18 26  1  0
 18 19  1  1
 20 19  1  0
 20 21  2  0
 22 21  1  0
 23 22  2  0
 24 25  2  0
 24 23  1  0
 25 20  1  0
 26 28  2  0
 26 27  1  0
M  END
$$$$
