QHE.pdb
     RDKit          3D

 29 29  0  0  1  0  0  0  0  0999 V2000
   20.0874   -8.6671  -22.1381 N   0  0  0  0  0  0  0  0  0  0  0  0
   20.2923  -10.0735  -22.0896 C   0  0  0  0  0  0  0  0  0  0  0  0
   20.6904  -10.6429  -23.1211 O   0  0  0  0  0  0  0  0  0  0  0  0
   20.0156  -10.7735  -20.8019 C   0  0  0  0  0  0  0  0  0  0  0  0
   21.3537  -10.9974  -20.1338 C   0  0  0  0  0  0  0  0  0  0  0  0
   21.2200  -11.5543  -18.7468 C   0  0  2  0  0  0  0  0  0  0  0  0
   20.5008  -12.8033  -18.7448 N   0  0  0  0  0  0  0  0  0  0  0  0
   20.5237  -10.6284  -17.8256 C   0  0  0  0  0  0  0  0  0  0  0  0
   19.3736  -10.2296  -18.1304 O   0  0  0  0  0  0  0  0  0  0  0  0
   21.0956  -10.1738  -16.6189 N   0  0  0  0  0  0  0  0  0  0  0  0
   20.3233   -9.2968  -15.6836 C   0  0  1  0  0  0  0  0  0  0  0  0
   19.8484  -10.1382  -14.5574 C   0  0  0  0  0  0  0  0  0  0  0  0
   18.6237  -10.9155  -14.7340 C   0  0  0  0  0  0  0  0  0  0  0  0
   17.7913  -10.9968  -15.8209 C   0  0  0  0  0  0  0  0  0  0  0  0
   16.7315  -11.8005  -15.5599 N   0  0  0  0  0  0  0  0  0  0  0  0
   16.8980  -12.2286  -14.2983 C   0  0  0  0  0  0  0  0  0  0  0  0
   18.0263  -11.7060  -13.7936 N   0  0  0  0  0  0  0  0  0  0  0  0
   21.0687   -8.0988  -15.4349 C   0  0  0  0  0  0  0  0  0  0  0  0
   22.3389   -8.1839  -15.2473 O   0  0  0  0  0  0  0  0  0  0  0  0
   20.5552   -6.7839  -15.3775 N   0  0  0  0  0  0  0  0  0  0  0  0
   21.4255   -5.6447  -15.1020 C   0  0  1  0  0  0  0  0  0  0  0  0
   20.6312   -4.3740  -15.3587 C   0  0  0  0  0  0  0  0  0  0  0  0
   21.3836   -3.1214  -15.0925 C   0  0  0  0  0  0  0  0  0  0  0  0
   20.6246   -1.8799  -15.3513 C   0  0  0  0  0  0  0  0  0  0  0  0
   19.6740   -1.8628  -16.1624 O   0  0  0  0  0  0  0  0  0  0  0  0
   21.7829   -5.6296  -13.6786 C   0  0  0  0  0  0  0  0  0  0  0  0
   21.1191   -6.2664  -12.8044 O   0  0  0  0  0  0  0  0  0  0  0  0
   20.9406   -0.6944  -14.7045 O   0  0  0  0  0  0  0  0  0  0  0  0
   22.8676   -4.9139  -13.2350 O   0  0  0  0  0  0  0  0  0  0  0  0
  2  1  1  0
  2  3  2  0
  4  2  1  0
  5  4  1  0
  6  7  1  6
  6  5  1  0
  8  6  1  0
  9  8  2  0
 10  8  1  0
 11 18  1  0
 11 10  1  0
 11 12  1  1
 13 12  1  0
 13 14  2  0
 15 14  1  0
 16 15  1  0
 17 16  2  0
 17 13  1  0
 18 19  2  0
 20 18  1  0
 21 20  1  0
 21 22  1  1
 23 22  1  0
 24 25  2  0
 24 23  1  0
 26 29  1  0
 26 21  1  0
 27 26  2  0
 28 24  1  0
M  END
$$$$
