QHE.pdb
     RDKit          3D

 29 29  0  0  1  0  0  0  0  0999 V2000
   17.1115  -20.0734    3.2451 N   0  0  0  0  0  0  0  0  0  0  0  0
   16.0358  -19.3820    2.6228 C   0  0  0  0  0  0  0  0  0  0  0  0
   15.4742  -19.9236    1.6543 O   0  0  0  0  0  0  0  0  0  0  0  0
   15.6520  -18.0504    3.1745 C   0  0  0  0  0  0  0  0  0  0  0  0
   16.5867  -17.7744    4.3308 C   0  0  0  0  0  0  0  0  0  0  0  0
   16.2527  -16.5012    5.0514 C   0  0  2  0  0  0  0  0  0  0  0  0
   16.4651  -15.3476    4.2141 N   0  0  0  0  0  0  0  0  0  0  0  0
   17.0494  -16.3190    6.2854 C   0  0  0  0  0  0  0  0  0  0  0  0
   18.0858  -15.6134    6.2327 O   0  0  0  0  0  0  0  0  0  0  0  0
   16.6954  -16.9035    7.5195 N   0  0  0  0  0  0  0  0  0  0  0  0
   17.4157  -16.5370    8.7794 C   0  0  1  0  0  0  0  0  0  0  0  0
   16.4367  -15.9017    9.6958 C   0  0  0  0  0  0  0  0  0  0  0  0
   16.0644  -14.5080    9.4632 C   0  0  0  0  0  0  0  0  0  0  0  0
   16.8295  -13.4652    9.0069 C   0  0  0  0  0  0  0  0  0  0  0  0
   16.1118  -12.3159    8.9752 N   0  0  0  0  0  0  0  0  0  0  0  0
   14.8847  -12.6375    9.4153 C   0  0  0  0  0  0  0  0  0  0  0  0
   14.8439  -13.9461    9.7104 N   0  0  0  0  0  0  0  0  0  0  0  0
   18.2047  -17.6512    9.2140 C   0  0  0  0  0  0  0  0  0  0  0  0
   17.8234  -18.8411    8.9070 O   0  0  0  0  0  0  0  0  0  0  0  0
   19.4023  -17.5947    9.9613 N   0  0  0  0  0  0  0  0  0  0  0  0
   20.1087  -18.8120   10.3489 C   0  0  1  0  0  0  0  0  0  0  0  0
   21.3523  -18.4068   11.1238 C   0  0  0  0  0  0  0  0  0  0  0  0
   22.1775  -19.5497   11.5917 C   0  0  0  0  0  0  0  0  0  0  0  0
   23.3868  -19.1667   12.3501 C   0  0  0  0  0  0  0  0  0  0  0  0
   24.3545  -18.6142   11.7844 O   0  0  0  0  0  0  0  0  0  0  0  0
   19.2784  -19.5905   11.2756 C   0  0  0  0  0  0  0  0  0  0  0  0
   18.4366  -19.0470   12.0544 O   0  0  0  0  0  0  0  0  0  0  0  0
   23.4888  -19.4070   13.7123 O   0  0  0  0  0  0  0  0  0  0  0  0
   19.3845  -20.9583   11.3330 O   0  0  0  0  0  0  0  0  0  0  0  0
  2  1  1  0
  2  3  2  0
  4  2  1  0
  5  4  1  0
  6  7  1  6
  6  5  1  0
  8  6  1  0
  9  8  2  0
 10  8  1  0
 11 18  1  0
 11 10  1  0
 11 12  1  1
 13 12  1  0
 13 14  2  0
 15 14  1  0
 16 15  1  0
 17 16  2  0
 17 13  1  0
 18 19  2  0
 20 18  1  0
 21 20  1  0
 21 22  1  1
 23 22  1  0
 24 25  2  0
 24 23  1  0
 26 29  1  0
 26 21  1  0
 27 26  2  0
 28 24  1  0
M  END
$$$$
