QHE.pdb
     RDKit          3D

 29 29  0  0  1  0  0  0  0  0999 V2000
   11.6874  -11.9445  -11.1524 N   0  0  0  0  0  0  0  0  0  0  0  0
   11.3933  -12.9665  -12.0964 C   0  0  0  0  0  0  0  0  0  0  0  0
   10.2925  -13.5394  -12.0150 O   0  0  0  0  0  0  0  0  0  0  0  0
   12.4272  -13.2840  -13.1236 C   0  0  0  0  0  0  0  0  0  0  0  0
   13.5723  -12.3223  -12.8979 C   0  0  0  0  0  0  0  0  0  0  0  0
   14.6819  -12.5031  -13.8919 C   0  0  2  0  0  0  0  0  0  0  0  0
   15.1285  -13.8723  -13.9435 N   0  0  0  0  0  0  0  0  0  0  0  0
   15.8569  -11.6535  -13.5950 C   0  0  0  0  0  0  0  0  0  0  0  0
   16.7961  -12.1415  -12.9207 O   0  0  0  0  0  0  0  0  0  0  0  0
   15.9686  -10.3184  -14.0365 N   0  0  0  0  0  0  0  0  0  0  0  0
   17.1656   -9.4901  -13.6881 C   0  0  1  0  0  0  0  0  0  0  0  0
   18.2520   -9.8372  -14.6374 C   0  0  0  0  0  0  0  0  0  0  0  0
   19.4937   -9.0685  -14.5896 C   0  0  0  0  0  0  0  0  0  0  0  0
   20.7109   -9.4097  -14.0576 C   0  0  0  0  0  0  0  0  0  0  0  0
   21.5957   -8.3903  -14.1802 N   0  0  0  0  0  0  0  0  0  0  0  0
   20.9301   -7.3990  -14.7943 C   0  0  0  0  0  0  0  0  0  0  0  0
   19.6717   -7.7927  -15.0444 N   0  0  0  0  0  0  0  0  0  0  0  0
   16.7616   -8.1273  -13.5088 C   0  0  0  0  0  0  0  0  0  0  0  0
   15.9258   -7.6116  -14.3402 O   0  0  0  0  0  0  0  0  0  0  0  0
   17.1823   -7.2520  -12.4828 N   0  0  0  0  0  0  0  0  0  0  0  0
   16.8257   -5.8366  -12.5042 C   0  0  1  0  0  0  0  0  0  0  0  0
   16.0126   -5.5382  -11.2547 C   0  0  0  0  0  0  0  0  0  0  0  0
   16.6827   -5.9221   -9.9860 C   0  0  0  0  0  0  0  0  0  0  0  0
   15.8831   -5.6753   -8.7678 C   0  0  0  0  0  0  0  0  0  0  0  0
   14.7979   -5.0580   -8.8230 O   0  0  0  0  0  0  0  0  0  0  0  0
   18.0416   -5.0198  -12.4122 C   0  0  0  0  0  0  0  0  0  0  0  0
   19.1834   -5.5242  -12.1833 O   0  0  0  0  0  0  0  0  0  0  0  0
   16.3089   -6.1190   -7.5247 O   0  0  0  0  0  0  0  0  0  0  0  0
   17.9858   -3.6575  -12.5741 O   0  0  0  0  0  0  0  0  0  0  0  0
  2  1  1  0
  2  3  2  0
  4  2  1  0
  5  4  1  0
  6  7  1  1
  6  5  1  0
  8  6  1  0
  9  8  2  0
 10  8  1  0
 11 18  1  0
 11 10  1  0
 11 12  1  6
 13 12  1  0
 13 14  2  0
 15 14  1  0
 16 15  1  0
 17 16  2  0
 17 13  1  0
 18 19  2  0
 20 18  1  0
 21 20  1  0
 21 22  1  1
 23 22  1  0
 24 25  2  0
 24 23  1  0
 26 29  1  0
 26 21  1  0
 27 26  2  0
 28 24  1  0
M  END
$$$$
