QHE.pdb
     RDKit          3D

 29 29  0  0  1  0  0  0  0  0999 V2000
   27.3437  -11.5066  -15.5028 N   0  0  0  0  0  0  0  0  0  0  0  0
   27.3078  -12.9048  -15.7597 C   0  0  0  0  0  0  0  0  0  0  0  0
   28.3396  -13.5657  -15.5473 O   0  0  0  0  0  0  0  0  0  0  0  0
   26.0319  -13.4867  -16.2679 C   0  0  0  0  0  0  0  0  0  0  0  0
   25.0195  -12.3634  -16.2853 C   0  0  0  0  0  0  0  0  0  0  0  0
   23.6213  -12.8428  -16.0268 C   0  0  2  0  0  0  0  0  0  0  0  0
   23.2375  -13.8792  -16.9518 N   0  0  0  0  0  0  0  0  0  0  0  0
   22.6199  -11.7569  -16.1212 C   0  0  0  0  0  0  0  0  0  0  0  0
   22.0920  -11.5216  -17.2351 O   0  0  0  0  0  0  0  0  0  0  0  0
   22.2319  -10.9738  -15.0139 N   0  0  0  0  0  0  0  0  0  0  0  0
   21.2139   -9.8862  -15.1593 C   0  0  1  0  0  0  0  0  0  0  0  0
   19.9925  -10.3045  -14.4279 C   0  0  0  0  0  0  0  0  0  0  0  0
   19.1042  -11.2821  -15.0527 C   0  0  0  0  0  0  0  0  0  0  0  0
   19.1824  -11.8651  -16.2916 C   0  0  0  0  0  0  0  0  0  0  0  0
   18.1286  -12.6903  -16.5057 N   0  0  0  0  0  0  0  0  0  0  0  0
   17.3807  -12.6262  -15.3925 C   0  0  0  0  0  0  0  0  0  0  0  0
   17.9539  -11.7871  -14.5159 N   0  0  0  0  0  0  0  0  0  0  0  0
   21.8304   -8.6221  -14.8864 C   0  0  0  0  0  0  0  0  0  0  0  0
   22.6329   -8.5244  -13.8853 O   0  0  0  0  0  0  0  0  0  0  0  0
   21.6609   -7.4265  -15.6198 N   0  0  0  0  0  0  0  0  0  0  0  0
   22.3087   -6.1865  -15.2027 C   0  0  1  0  0  0  0  0  0  0  0  0
   22.1528   -5.1743  -16.3262 C   0  0  0  0  0  0  0  0  0  0  0  0
   22.9385   -3.9282  -16.1365 C   0  0  0  0  0  0  0  0  0  0  0  0
   22.8062   -2.9437  -17.2309 C   0  0  0  0  0  0  0  0  0  0  0  0
   22.1174   -3.1939  -18.2432 O   0  0  0  0  0  0  0  0  0  0  0  0
   21.6054   -5.6286  -14.0416 C   0  0  0  0  0  0  0  0  0  0  0  0
   22.0933   -4.6931  -13.3365 O   0  0  0  0  0  0  0  0  0  0  0  0
   23.4403   -1.7116  -17.1720 O   0  0  0  0  0  0  0  0  0  0  0  0
   20.3728   -6.1071  -13.6713 O   0  0  0  0  0  0  0  0  0  0  0  0
  2  1  1  0
  2  3  2  0
  4  2  1  0
  5  4  1  0
  6  7  1  6
  6  5  1  0
  8  6  1  0
  9  8  2  0
 10  8  1  0
 11 18  1  0
 11 10  1  0
 11 12  1  1
 13 12  1  0
 13 14  2  0
 15 14  1  0
 16 15  1  0
 17 16  2  0
 17 13  1  0
 18 19  2  0
 20 18  1  0
 21 20  1  0
 21 22  1  6
 23 22  1  0
 24 25  2  0
 24 23  1  0
 26 29  1  0
 26 21  1  0
 27 26  2  0
 28 24  1  0
M  END
$$$$
