QHE.pdb
     RDKit          3D

 29 29  0  0  1  0  0  0  0  0999 V2000
   19.3399  -34.2054  -13.2649 N   0  0  0  0  0  0  0  0  0  0  0  0
   19.0144  -32.9466  -13.8410 C   0  0  0  0  0  0  0  0  0  0  0  0
   17.8992  -32.4579  -13.5880 O   0  0  0  0  0  0  0  0  0  0  0  0
   20.0348  -32.2950  -14.7123 C   0  0  0  0  0  0  0  0  0  0  0  0
   21.2690  -33.1675  -14.6617 C   0  0  0  0  0  0  0  0  0  0  0  0
   22.5397  -32.3694  -14.6552 C   0  0  2  0  0  0  0  0  0  0  0  0
   23.1254  -32.2957  -15.9699 N   0  0  0  0  0  0  0  0  0  0  0  0
   23.5575  -32.9258  -13.7357 C   0  0  0  0  0  0  0  0  0  0  0  0
   24.0987  -34.0192  -14.0293 O   0  0  0  0  0  0  0  0  0  0  0  0
   23.9467  -32.2813  -12.5428 N   0  0  0  0  0  0  0  0  0  0  0  0
   24.9867  -32.8803  -11.6484 C   0  0  1  0  0  0  0  0  0  0  0  0
   26.3130  -32.3928  -12.1013 C   0  0  0  0  0  0  0  0  0  0  0  0
   26.9528  -33.0587  -13.2337 C   0  0  0  0  0  0  0  0  0  0  0  0
   26.5111  -34.1163  -13.9869 C   0  0  0  0  0  0  0  0  0  0  0  0
   27.4298  -34.4619  -14.9216 N   0  0  0  0  0  0  0  0  0  0  0  0
   28.4584  -33.6151  -14.7556 C   0  0  0  0  0  0  0  0  0  0  0  0
   28.1850  -32.7709  -13.7488 N   0  0  0  0  0  0  0  0  0  0  0  0
   24.5809  -32.7273  -10.2829 C   0  0  0  0  0  0  0  0  0  0  0  0
   24.0309  -31.6229   -9.9173 O   0  0  0  0  0  0  0  0  0  0  0  0
   24.7108  -33.6857   -9.2531 N   0  0  0  0  0  0  0  0  0  0  0  0
   24.2065  -33.4226   -7.9087 C   0  0  1  0  0  0  0  0  0  0  0  0
   23.8043  -34.7516   -7.2895 C   0  0  0  0  0  0  0  0  0  0  0  0
   23.3657  -34.6559   -5.8737 C   0  0  0  0  0  0  0  0  0  0  0  0
   23.0275  -35.9498   -5.2447 C   0  0  0  0  0  0  0  0  0  0  0  0
   22.7265  -36.0187   -4.0337 O   0  0  0  0  0  0  0  0  0  0  0  0
   25.2868  -32.8860   -7.0726 C   0  0  0  0  0  0  0  0  0  0  0  0
   26.5042  -32.9228   -7.4290 O   0  0  0  0  0  0  0  0  0  0  0  0
   23.0326  -37.1289   -5.9749 O   0  0  0  0  0  0  0  0  0  0  0  0
   25.0135  -32.3145   -5.8544 O   0  0  0  0  0  0  0  0  0  0  0  0
  2  1  1  0
  2  3  2  0
  4  2  1  0
  5  4  1  0
  6  7  1  6
  6  5  1  0
  8  6  1  0
  9  8  2  0
 10  8  1  0
 11 18  1  0
 11 10  1  0
 11 12  1  1
 13 12  1  0
 13 14  2  0
 15 14  1  0
 16 15  1  0
 17 16  2  0
 17 13  1  0
 18 19  2  0
 20 18  1  0
 21 20  1  0
 21 22  1  1
 23 22  1  0
 24 25  2  0
 24 23  1  0
 26 29  1  0
 26 21  1  0
 27 26  2  0
 28 24  1  0
M  END
$$$$
