QHE.pdb
     RDKit          3D

 29 29  0  0  1  0  0  0  0  0999 V2000
   19.7250  -10.9198  -23.0112 N   0  0  0  0  0  0  0  0  0  0  0  0
   19.9304  -11.8486  -21.9541 C   0  0  0  0  0  0  0  0  0  0  0  0
   21.0970  -12.0586  -21.5779 O   0  0  0  0  0  0  0  0  0  0  0  0
   18.7302  -12.5104  -21.3657 C   0  0  0  0  0  0  0  0  0  0  0  0
   18.7492  -12.2052  -19.8847 C   0  0  0  0  0  0  0  0  0  0  0  0
   19.8294  -12.9494  -19.1560 C   0  0  2  0  0  0  0  0  0  0  0  0
   19.4450  -14.3123  -18.8877 N   0  0  0  0  0  0  0  0  0  0  0  0
   20.1872  -12.3168  -17.8667 C   0  0  0  0  0  0  0  0  0  0  0  0
   19.4215  -12.4777  -16.8856 O   0  0  0  0  0  0  0  0  0  0  0  0
   21.3517  -11.5403  -17.6910 N   0  0  0  0  0  0  0  0  0  0  0  0
   21.7367  -11.0252  -16.3394 C   0  0  1  0  0  0  0  0  0  0  0  0
   23.0868  -11.5508  -16.0189 C   0  0  0  0  0  0  0  0  0  0  0  0
   23.2475  -12.9894  -15.8200 C   0  0  0  0  0  0  0  0  0  0  0  0
   22.2962  -13.9767  -15.7842 C   0  0  0  0  0  0  0  0  0  0  0  0
   22.8598  -15.1829  -15.5300 N   0  0  0  0  0  0  0  0  0  0  0  0
   24.1767  -14.9532  -15.4047 C   0  0  0  0  0  0  0  0  0  0  0  0
   24.4211  -13.6448  -15.5760 N   0  0  0  0  0  0  0  0  0  0  0  0
   21.4670   -9.6196  -16.2748 C   0  0  0  0  0  0  0  0  0  0  0  0
   22.0145   -8.8406  -17.1403 O   0  0  0  0  0  0  0  0  0  0  0  0
   20.6324   -8.9640  -15.3423 N   0  0  0  0  0  0  0  0  0  0  0  0
   20.3624   -7.5331  -15.4459 C   0  0  1  0  0  0  0  0  0  0  0  0
   18.9246   -7.2940  -15.0135 C   0  0  0  0  0  0  0  0  0  0  0  0
   17.9089   -7.8710  -15.9308 C   0  0  0  0  0  0  0  0  0  0  0  0
   16.7868   -8.5557  -15.2552 C   0  0  0  0  0  0  0  0  0  0  0  0
   16.6070   -8.4378  -14.0241 O   0  0  0  0  0  0  0  0  0  0  0  0
   21.2081   -6.8012  -14.4955 C   0  0  0  0  0  0  0  0  0  0  0  0
   21.9872   -7.3905  -13.6855 O   0  0  0  0  0  0  0  0  0  0  0  0
   15.8972   -9.3506  -15.9626 O   0  0  0  0  0  0  0  0  0  0  0  0
   21.1864   -5.4291  -14.4491 O   0  0  0  0  0  0  0  0  0  0  0  0
  2  1  1  0
  2  3  2  0
  4  2  1  0
  5  4  1  0
  6  7  1  1
  6  5  1  0
  8  6  1  0
  9  8  2  0
 10  8  1  0
 11 18  1  0
 11 10  1  0
 11 12  1  6
 13 12  1  0
 13 14  2  0
 15 14  1  0
 16 15  1  0
 17 16  2  0
 17 13  1  0
 18 19  2  0
 20 18  1  0
 21 20  1  0
 21 22  1  1
 23 22  1  0
 24 25  2  0
 24 23  1  0
 26 29  1  0
 26 21  1  0
 27 26  2  0
 28 24  1  0
M  END
$$$$
