QHE.pdb
     RDKit          3D

 29 29  0  0  1  0  0  0  0  0999 V2000
   25.1522  -33.2102   -4.9170 N   0  0  0  0  0  0  0  0  0  0  0  0
   25.1895  -32.6493   -6.2232 C   0  0  0  0  0  0  0  0  0  0  0  0
   24.3096  -31.8266   -6.5324 O   0  0  0  0  0  0  0  0  0  0  0  0
   26.2840  -33.0862   -7.1375 C   0  0  0  0  0  0  0  0  0  0  0  0
   27.1184  -34.0858   -6.3684 C   0  0  0  0  0  0  0  0  0  0  0  0
   28.2491  -34.6418   -7.1834 C   0  0  2  0  0  0  0  0  0  0  0  0
   27.7786  -35.5812   -8.1700 N   0  0  0  0  0  0  0  0  0  0  0  0
   29.2665  -35.3262   -6.3543 C   0  0  0  0  0  0  0  0  0  0  0  0
   29.1614  -36.5636   -6.1742 O   0  0  0  0  0  0  0  0  0  0  0  0
   30.3501  -34.6490   -5.7569 N   0  0  0  0  0  0  0  0  0  0  0  0
   31.3507  -35.3843   -4.9210 C   0  0  1  0  0  0  0  0  0  0  0  0
   32.6753  -34.7497   -5.1323 C   0  0  0  0  0  0  0  0  0  0  0  0
   33.8192  -35.2511   -4.3740 C   0  0  0  0  0  0  0  0  0  0  0  0
   34.2869  -34.8655   -3.1438 C   0  0  0  0  0  0  0  0  0  0  0  0
   35.4071  -35.5539   -2.8142 N   0  0  0  0  0  0  0  0  0  0  0  0
   35.6467  -36.3796   -3.8454 C   0  0  0  0  0  0  0  0  0  0  0  0
   34.7037  -36.2079   -4.7848 N   0  0  0  0  0  0  0  0  0  0  0  0
   30.8269  -35.5560   -3.5986 C   0  0  0  0  0  0  0  0  0  0  0  0
   30.0332  -34.6620   -3.1227 O   0  0  0  0  0  0  0  0  0  0  0  0
   31.0824  -36.6367   -2.7252 N   0  0  0  0  0  0  0  0  0  0  0  0
   30.5297  -36.6629   -1.3744 C   0  0  1  0  0  0  0  0  0  0  0  0
   29.5232  -37.8000   -1.3007 C   0  0  0  0  0  0  0  0  0  0  0  0
   28.8605  -37.9419    0.0209 C   0  0  0  0  0  0  0  0  0  0  0  0
   27.8377  -39.0068    0.0861 C   0  0  0  0  0  0  0  0  0  0  0  0
   27.3064  -39.3247    1.1716 O   0  0  0  0  0  0  0  0  0  0  0  0
   31.5907  -36.9858   -0.4132 C   0  0  0  0  0  0  0  0  0  0  0  0
   32.7466  -37.3621   -0.7778 O   0  0  0  0  0  0  0  0  0  0  0  0
   27.4335  -39.6879   -1.0525 O   0  0  0  0  0  0  0  0  0  0  0  0
   31.3666  -36.8897    0.9381 O   0  0  0  0  0  0  0  0  0  0  0  0
  2  1  1  0
  2  3  2  0
  4  2  1  0
  5  4  1  0
  6  7  1  6
  6  5  1  0
  8  6  1  0
  9  8  2  0
 10  8  1  0
 11 18  1  0
 11 10  1  0
 11 12  1  1
 13 12  1  0
 13 14  2  0
 15 14  1  0
 16 15  1  0
 17 16  2  0
 17 13  1  0
 18 19  2  0
 20 18  1  0
 21 20  1  0
 21 22  1  6
 23 22  1  0
 24 25  2  0
 24 23  1  0
 26 29  1  0
 26 21  1  0
 27 26  2  0
 28 24  1  0
M  END
$$$$
