QHE.pdb
     RDKit          3D

 29 29  0  0  1  0  0  0  0  0999 V2000
   18.0479   -9.5730  -21.4728 N   0  0  0  0  0  0  0  0  0  0  0  0
   17.3278  -10.7540  -21.8028 C   0  0  0  0  0  0  0  0  0  0  0  0
   16.1248  -10.6427  -22.0982 O   0  0  0  0  0  0  0  0  0  0  0  0
   18.0649  -12.0503  -21.7726 C   0  0  0  0  0  0  0  0  0  0  0  0
   19.5019  -11.7242  -21.4326 C   0  0  0  0  0  0  0  0  0  0  0  0
   20.1446  -12.7747  -20.5754 C   0  0  2  0  0  0  0  0  0  0  0  0
   19.1881  -13.7610  -20.1401 N   0  0  0  0  0  0  0  0  0  0  0  0
   20.7932  -12.2093  -19.3710 C   0  0  0  0  0  0  0  0  0  0  0  0
   20.0960  -12.0241  -18.3442 O   0  0  0  0  0  0  0  0  0  0  0  0
   22.1614  -11.8689  -19.3257 N   0  0  0  0  0  0  0  0  0  0  0  0
   22.7752  -11.3129  -18.0789 C   0  0  1  0  0  0  0  0  0  0  0  0
   24.2322  -11.5901  -18.1255 C   0  0  0  0  0  0  0  0  0  0  0  0
   25.0631  -11.1514  -17.0065 C   0  0  0  0  0  0  0  0  0  0  0  0
   24.7096  -10.4594  -15.8764 C   0  0  0  0  0  0  0  0  0  0  0  0
   25.7942  -10.2092  -15.1029 N   0  0  0  0  0  0  0  0  0  0  0  0
   26.8392  -10.7479  -15.7514 C   0  0  0  0  0  0  0  0  0  0  0  0
   26.4146  -11.3144  -16.8915 N   0  0  0  0  0  0  0  0  0  0  0  0
   22.2928   -9.9804  -17.8682 C   0  0  0  0  0  0  0  0  0  0  0  0
   22.0802   -9.2268  -18.8892 O   0  0  0  0  0  0  0  0  0  0  0  0
   22.0042   -9.3760  -16.6242 N   0  0  0  0  0  0  0  0  0  0  0  0
   21.5004   -8.0080  -16.5481 C   0  0  1  0  0  0  0  0  0  0  0  0
   20.0035   -8.0724  -16.2902 C   0  0  0  0  0  0  0  0  0  0  0  0
   19.3342   -6.7469  -16.2540 C   0  0  0  0  0  0  0  0  0  0  0  0
   17.8858   -6.7958  -15.9641 C   0  0  0  0  0  0  0  0  0  0  0  0
   17.3037   -7.8844  -15.7697 O   0  0  0  0  0  0  0  0  0  0  0  0
   22.0917   -7.3280  -15.3897 C   0  0  0  0  0  0  0  0  0  0  0  0
   22.6798   -7.9588  -14.4586 O   0  0  0  0  0  0  0  0  0  0  0  0
   17.1250   -5.6380  -15.8981 O   0  0  0  0  0  0  0  0  0  0  0  0
   22.0290   -5.9615  -15.2706 O   0  0  0  0  0  0  0  0  0  0  0  0
  2  1  1  0
  2  3  2  0
  4  2  1  0
  5  4  1  0
  6  7  1  1
  6  5  1  0
  8  6  1  0
  9  8  2  0
 10  8  1  0
 11 18  1  0
 11 10  1  0
 11 12  1  6
 13 12  1  0
 13 14  2  0
 15 14  1  0
 16 15  1  0
 17 16  2  0
 17 13  1  0
 18 19  2  0
 20 18  1  0
 21 20  1  0
 21 22  1  1
 23 22  1  0
 24 25  2  0
 24 23  1  0
 26 29  1  0
 26 21  1  0
 27 26  2  0
 28 24  1  0
M  END
$$$$
