QHE.pdb
     RDKit          3D

 29 29  0  0  1  0  0  0  0  0999 V2000
   25.3166  -13.2935  -15.4470 N   0  0  0  0  0  0  0  0  0  0  0  0
   25.0549  -14.6113  -15.9130 C   0  0  0  0  0  0  0  0  0  0  0  0
   26.0248  -15.3595  -16.1281 O   0  0  0  0  0  0  0  0  0  0  0  0
   23.6314  -15.0093  -16.1131 C   0  0  0  0  0  0  0  0  0  0  0  0
   22.7851  -13.8732  -15.5839 C   0  0  0  0  0  0  0  0  0  0  0  0
   21.3149  -14.1622  -15.6658 C   0  0  2  0  0  0  0  0  0  0  0  0
   21.0377  -15.2418  -16.5795 N   0  0  0  0  0  0  0  0  0  0  0  0
   20.5263  -12.9872  -16.0994 C   0  0  0  0  0  0  0  0  0  0  0  0
   20.4042  -12.7660  -17.3286 O   0  0  0  0  0  0  0  0  0  0  0  0
   19.9052  -12.1038  -15.1919 N   0  0  0  0  0  0  0  0  0  0  0  0
   19.1693  -10.8939  -15.6769 C   0  0  1  0  0  0  0  0  0  0  0  0
   17.7205  -11.1202  -15.4499 C   0  0  0  0  0  0  0  0  0  0  0  0
   16.7990  -10.0044  -15.6516 C   0  0  0  0  0  0  0  0  0  0  0  0
   15.9864   -9.3698  -14.7473 C   0  0  0  0  0  0  0  0  0  0  0  0
   15.2495   -8.4060  -15.3516 N   0  0  0  0  0  0  0  0  0  0  0  0
   15.6008   -8.4341  -16.6472 C   0  0  0  0  0  0  0  0  0  0  0  0
   16.5270   -9.3861  -16.8391 N   0  0  0  0  0  0  0  0  0  0  0  0
   19.8113   -9.7165  -15.1726 C   0  0  0  0  0  0  0  0  0  0  0  0
   20.3120   -9.7399  -13.9875 O   0  0  0  0  0  0  0  0  0  0  0  0
   19.9728   -8.4886  -15.8523 N   0  0  0  0  0  0  0  0  0  0  0  0
   20.5705   -7.3324  -15.1911 C   0  0  1  0  0  0  0  0  0  0  0  0
   21.3502   -6.5465  -16.2332 C   0  0  0  0  0  0  0  0  0  0  0  0
   21.9037   -5.2605  -15.7374 C   0  0  0  0  0  0  0  0  0  0  0  0
   22.6650   -4.4892  -16.7424 C   0  0  0  0  0  0  0  0  0  0  0  0
   22.9550   -4.9859  -17.8519 O   0  0  0  0  0  0  0  0  0  0  0  0
   19.5116   -6.4397  -14.7055 C   0  0  0  0  0  0  0  0  0  0  0  0
   18.3247   -6.4870  -15.1523 O   0  0  0  0  0  0  0  0  0  0  0  0
   23.0825   -3.1911  -16.4891 O   0  0  0  0  0  0  0  0  0  0  0  0
   19.7721   -5.5060  -13.7330 O   0  0  0  0  0  0  0  0  0  0  0  0
  2  1  1  0
  2  3  2  0
  4  2  1  0
  5  4  1  0
  6  7  1  6
  6  5  1  0
  8  6  1  0
  9  8  2  0
 10  8  1  0
 11 18  1  0
 11 10  1  0
 11 12  1  1
 13 12  1  0
 13 14  2  0
 15 14  1  0
 16 15  1  0
 17 16  2  0
 17 13  1  0
 18 19  2  0
 20 18  1  0
 21 20  1  0
 21 22  1  6
 23 22  1  0
 24 25  2  0
 24 23  1  0
 26 29  1  0
 26 21  1  0
 27 26  2  0
 28 24  1  0
M  END
$$$$
