QHE.pdb
     RDKit          3D

 29 29  0  0  1  0  0  0  0  0999 V2000
   20.8701  -36.2306  -14.9642 N   0  0  0  0  0  0  0  0  0  0  0  0
   19.8739  -36.3677  -13.9587 C   0  0  0  0  0  0  0  0  0  0  0  0
   19.7389  -37.4785  -13.4161 O   0  0  0  0  0  0  0  0  0  0  0  0
   19.0555  -35.1673  -13.6211 C   0  0  0  0  0  0  0  0  0  0  0  0
   19.4491  -34.0846  -14.6009 C   0  0  0  0  0  0  0  0  0  0  0  0
   20.1546  -32.9370  -13.9398 C   0  0  2  0  0  0  0  0  0  0  0  0
   20.5888  -31.9568  -14.9029 N   0  0  0  0  0  0  0  0  0  0  0  0
   21.3397  -33.3670  -13.1643 C   0  0  0  0  0  0  0  0  0  0  0  0
   22.4630  -33.3470  -13.7234 O   0  0  0  0  0  0  0  0  0  0  0  0
   21.2630  -33.7988  -11.8236 N   0  0  0  0  0  0  0  0  0  0  0  0
   22.5007  -34.1293  -11.0495 C   0  0  1  0  0  0  0  0  0  0  0  0
   23.3612  -32.9207  -11.0282 C   0  0  0  0  0  0  0  0  0  0  0  0
   22.9170  -31.7601  -10.2596 C   0  0  0  0  0  0  0  0  0  0  0  0
   21.6929  -31.5029   -9.6971 C   0  0  0  0  0  0  0  0  0  0  0  0
   21.6795  -30.2848   -9.1028 N   0  0  0  0  0  0  0  0  0  0  0  0
   22.9052  -29.7707   -9.2928 C   0  0  0  0  0  0  0  0  0  0  0  0
   23.6546  -30.6438   -9.9835 N   0  0  0  0  0  0  0  0  0  0  0  0
   22.1342  -34.7852   -9.8296 C   0  0  0  0  0  0  0  0  0  0  0  0
   20.9477  -34.6127   -9.3625 O   0  0  0  0  0  0  0  0  0  0  0  0
   22.9505  -35.6382   -9.0537 N   0  0  0  0  0  0  0  0  0  0  0  0
   22.4711  -36.2042   -7.7964 C   0  0  1  0  0  0  0  0  0  0  0  0
   23.5224  -37.1779   -7.2885 C   0  0  0  0  0  0  0  0  0  0  0  0
   23.1075  -37.9515   -6.0904 C   0  0  0  0  0  0  0  0  0  0  0  0
   24.1482  -38.8483   -5.5454 C   0  0  0  0  0  0  0  0  0  0  0  0
   24.1071  -40.0809   -5.7470 O   0  0  0  0  0  0  0  0  0  0  0  0
   22.3655  -35.1443   -6.7866 C   0  0  0  0  0  0  0  0  0  0  0  0
   22.8701  -33.9922   -6.9554 O   0  0  0  0  0  0  0  0  0  0  0  0
   25.2035  -38.3538   -4.7934 O   0  0  0  0  0  0  0  0  0  0  0  0
   21.7049  -35.3656   -5.6034 O   0  0  0  0  0  0  0  0  0  0  0  0
  2  1  1  0
  2  3  2  0
  4  2  1  0
  5  4  1  0
  6  7  1  6
  6  5  1  0
  8  6  1  0
  9  8  2  0
 10  8  1  0
 11 18  1  0
 11 10  1  0
 11 12  1  1
 13 12  1  0
 13 14  2  0
 15 14  1  0
 16 15  1  0
 17 16  2  0
 17 13  1  0
 18 19  2  0
 20 18  1  0
 21 20  1  0
 21 22  1  1
 23 22  1  0
 24 25  2  0
 24 23  1  0
 26 29  1  0
 26 21  1  0
 27 26  2  0
 28 24  1  0
M  END
$$$$
