QHE.pdb
     RDKit          3D

 29 29  0  0  1  0  0  0  0  0999 V2000
   44.1603   -9.4197   -3.3990 N   0  0  0  0  0  0  0  0  0  0  0  0
   45.4931   -9.9154   -3.4154 C   0  0  0  0  0  0  0  0  0  0  0  0
   46.0356  -10.1720   -2.3261 O   0  0  0  0  0  0  0  0  0  0  0  0
   46.1529  -10.0950   -4.7410 C   0  0  0  0  0  0  0  0  0  0  0  0
   45.1295   -9.7196   -5.7892 C   0  0  0  0  0  0  0  0  0  0  0  0
   44.3526  -10.9030   -6.2867 C   0  0  2  0  0  0  0  0  0  0  0  0
   45.1411  -11.7182   -7.1760 N   0  0  0  0  0  0  0  0  0  0  0  0
   43.1177  -10.5135   -7.0037 C   0  0  0  0  0  0  0  0  0  0  0  0
   43.2021  -10.1888   -8.2130 O   0  0  0  0  0  0  0  0  0  0  0  0
   41.8487  -10.4908   -6.3880 N   0  0  0  0  0  0  0  0  0  0  0  0
   40.6824   -9.8290   -7.0529 C   0  0  1  0  0  0  0  0  0  0  0  0
   39.4662  -10.6140   -6.7267 C   0  0  0  0  0  0  0  0  0  0  0  0
   38.1585  -10.0027   -6.9532 C   0  0  0  0  0  0  0  0  0  0  0  0
   37.5820   -9.5852   -8.1255 C   0  0  0  0  0  0  0  0  0  0  0  0
   36.3680   -9.0276   -7.8962 N   0  0  0  0  0  0  0  0  0  0  0  0
   36.1787   -9.0944   -6.5687 C   0  0  0  0  0  0  0  0  0  0  0  0
   37.2428   -9.6757   -5.9935 N   0  0  0  0  0  0  0  0  0  0  0  0
   40.7307   -8.4198   -6.7991 C   0  0  0  0  0  0  0  0  0  0  0  0
   40.9704   -8.0109   -5.6029 O   0  0  0  0  0  0  0  0  0  0  0  0
   40.5473   -7.3868   -7.7452 N   0  0  0  0  0  0  0  0  0  0  0  0
   40.3748   -5.9995   -7.3248 C   0  0  1  0  0  0  0  0  0  0  0  0
   41.3461   -5.1431   -8.1212 C   0  0  0  0  0  0  0  0  0  0  0  0
   41.5573   -5.6009   -9.5183 C   0  0  0  0  0  0  0  0  0  0  0  0
   42.4636   -4.7482  -10.3157 C   0  0  0  0  0  0  0  0  0  0  0  0
   42.8513   -5.1032  -11.4495 O   0  0  0  0  0  0  0  0  0  0  0  0
   39.0276   -5.5395   -7.6820 C   0  0  0  0  0  0  0  0  0  0  0  0
   38.2581   -6.2102   -8.4359 O   0  0  0  0  0  0  0  0  0  0  0  0
   42.9137   -3.5279   -9.8342 O   0  0  0  0  0  0  0  0  0  0  0  0
   38.5437   -4.3467   -7.2041 O   0  0  0  0  0  0  0  0  0  0  0  0
  2  1  1  0
  2  3  2  0
  4  2  1  0
  5  4  1  0
  6  7  1  6
  6  5  1  0
  8  6  1  0
  9  8  2  0
 10  8  1  0
 11 18  1  0
 11 10  1  0
 11 12  1  1
 13 12  1  0
 13 14  2  0
 15 14  1  0
 16 15  1  0
 17 16  2  0
 17 13  1  0
 18 19  2  0
 20 18  1  0
 21 20  1  0
 21 22  1  6
 23 22  1  0
 24 25  2  0
 24 23  1  0
 26 29  1  0
 26 21  1  0
 27 26  2  0
 28 24  1  0
M  END
$$$$
