QHE.pdb
     RDKit          3D

 29 29  0  0  1  0  0  0  0  0999 V2000
   12.6374  -10.5555  -12.2397 N   0  0  0  0  0  0  0  0  0  0  0  0
   13.5750  -11.3181  -11.4903 C   0  0  0  0  0  0  0  0  0  0  0  0
   13.6566  -11.1074  -10.2673 O   0  0  0  0  0  0  0  0  0  0  0  0
   14.3999  -12.3220  -12.2227 C   0  0  0  0  0  0  0  0  0  0  0  0
   13.9712  -12.2615  -13.6716 C   0  0  0  0  0  0  0  0  0  0  0  0
   14.8118  -13.1321  -14.5588 C   0  0  2  0  0  0  0  0  0  0  0  0
   14.9027  -14.4769  -14.0486 N   0  0  0  0  0  0  0  0  0  0  0  0
   16.1891  -12.6158  -14.7244 C   0  0  0  0  0  0  0  0  0  0  0  0
   17.1130  -13.1450  -14.0603 O   0  0  0  0  0  0  0  0  0  0  0  0
   16.5099  -11.5542  -15.5962 N   0  0  0  0  0  0  0  0  0  0  0  0
   17.9223  -11.0819  -15.7467 C   0  0  1  0  0  0  0  0  0  0  0  0
   18.4137  -11.5297  -17.0732 C   0  0  0  0  0  0  0  0  0  0  0  0
   19.7892  -11.2139  -17.4518 C   0  0  0  0  0  0  0  0  0  0  0  0
   20.9495  -11.8857  -17.1631 C   0  0  0  0  0  0  0  0  0  0  0  0
   22.0251  -11.2327  -17.6671 N   0  0  0  0  0  0  0  0  0  0  0  0
   21.5380  -10.1408  -18.2780 C   0  0  0  0  0  0  0  0  0  0  0  0
   20.2017  -10.1184  -18.1561 N   0  0  0  0  0  0  0  0  0  0  0  0
   18.0025   -9.7029  -15.3667 C   0  0  0  0  0  0  0  0  0  0  0  0
   16.9697   -8.9523  -15.5266 O   0  0  0  0  0  0  0  0  0  0  0  0
   19.1222   -9.0469  -14.8082 N   0  0  0  0  0  0  0  0  0  0  0  0
   19.1211   -7.6033  -14.5914 C   0  0  1  0  0  0  0  0  0  0  0  0
   20.3924   -7.2400  -13.8409 C   0  0  0  0  0  0  0  0  0  0  0  0
   20.4931   -5.8047  -13.4727 C   0  0  0  0  0  0  0  0  0  0  0  0
   21.7071   -5.4483  -12.7087 C   0  0  0  0  0  0  0  0  0  0  0  0
   22.3558   -4.4139  -12.9750 O   0  0  0  0  0  0  0  0  0  0  0  0
   19.1901   -6.9102  -15.8833 C   0  0  0  0  0  0  0  0  0  0  0  0
   19.8183   -7.3869  -16.8776 O   0  0  0  0  0  0  0  0  0  0  0  0
   22.1667   -6.2478  -11.6727 O   0  0  0  0  0  0  0  0  0  0  0  0
   18.5659   -5.7007  -16.0650 O   0  0  0  0  0  0  0  0  0  0  0  0
  2  1  1  0
  2  3  2  0
  4  2  1  0
  5  4  1  0
  6  7  1  1
  6  5  1  0
  8  6  1  0
  9  8  2  0
 10  8  1  0
 11 18  1  0
 11 10  1  0
 11 12  1  6
 13 12  1  0
 13 14  2  0
 15 14  1  0
 16 15  1  0
 17 16  2  0
 17 13  1  0
 18 19  2  0
 20 18  1  0
 21 20  1  0
 21 22  1  1
 23 22  1  0
 24 25  2  0
 24 23  1  0
 26 29  1  0
 26 21  1  0
 27 26  2  0
 28 24  1  0
M  END
$$$$
