QHE.pdb
     RDKit          3D

 29 29  0  0  1  0  0  0  0  0999 V2000
   24.5336  -21.9731  -17.0986 N   0  0  0  0  0  0  0  0  0  0  0  0
   24.3527  -23.0268  -16.1610 C   0  0  0  0  0  0  0  0  0  0  0  0
   23.4432  -23.8483  -16.3720 O   0  0  0  0  0  0  0  0  0  0  0  0
   25.2679  -23.0766  -14.9843 C   0  0  0  0  0  0  0  0  0  0  0  0
   26.3037  -21.9950  -15.1946 C   0  0  0  0  0  0  0  0  0  0  0  0
   26.2178  -20.9061  -14.1657 C   0  0  2  0  0  0  0  0  0  0  0  0
   25.9591  -21.4385  -12.8517 N   0  0  0  0  0  0  0  0  0  0  0  0
   25.1604  -19.9163  -14.4704 C   0  0  0  0  0  0  0  0  0  0  0  0
   24.2170  -19.7747  -13.6550 O   0  0  0  0  0  0  0  0  0  0  0  0
   25.1654  -19.1241  -15.6375 N   0  0  0  0  0  0  0  0  0  0  0  0
   24.0505  -18.1671  -15.9230 C   0  0  1  0  0  0  0  0  0  0  0  0
   24.5231  -17.2116  -16.9552 C   0  0  0  0  0  0  0  0  0  0  0  0
   23.6100  -16.1650  -17.4090 C   0  0  0  0  0  0  0  0  0  0  0  0
   23.0370  -15.1400  -16.7005 C   0  0  0  0  0  0  0  0  0  0  0  0
   22.2099  -14.4102  -17.4882 N   0  0  0  0  0  0  0  0  0  0  0  0
   22.2625  -14.9805  -18.7026 C   0  0  0  0  0  0  0  0  0  0  0  0
   23.0967  -16.0312  -18.6679 N   0  0  0  0  0  0  0  0  0  0  0  0
   22.8343  -18.9007  -16.1106 C   0  0  0  0  0  0  0  0  0  0  0  0
   22.8976  -20.1092  -16.5479 O   0  0  0  0  0  0  0  0  0  0  0  0
   21.5239  -18.4387  -15.8545 N   0  0  0  0  0  0  0  0  0  0  0  0
   20.3591  -19.2644  -16.1587 C   0  0  1  0  0  0  0  0  0  0  0  0
   19.8221  -19.8197  -14.8492 C   0  0  0  0  0  0  0  0  0  0  0  0
   18.6290  -20.6911  -15.0011 C   0  0  0  0  0  0  0  0  0  0  0  0
   18.1123  -21.2541  -13.7361 C   0  0  0  0  0  0  0  0  0  0  0  0
   18.8564  -21.3961  -12.7422 O   0  0  0  0  0  0  0  0  0  0  0  0
   19.2937  -18.4265  -16.7215 C   0  0  0  0  0  0  0  0  0  0  0  0
   19.2183  -17.1800  -16.4953 O   0  0  0  0  0  0  0  0  0  0  0  0
   16.7871  -21.6432  -13.6091 O   0  0  0  0  0  0  0  0  0  0  0  0
   18.3244  -18.9710  -17.5273 O   0  0  0  0  0  0  0  0  0  0  0  0
  2  1  1  0
  2  3  2  0
  4  2  1  0
  5  4  1  0
  6  7  1  1
  6  5  1  0
  8  6  1  0
  9  8  2  0
 10  8  1  0
 11 18  1  0
 11 10  1  0
 11 12  1  6
 13 12  1  0
 13 14  2  0
 15 14  1  0
 16 15  1  0
 17 16  2  0
 17 13  1  0
 18 19  2  0
 20 18  1  0
 21 20  1  0
 21 22  1  1
 23 22  1  0
 24 25  2  0
 24 23  1  0
 26 29  1  0
 26 21  1  0
 27 26  2  0
 28 24  1  0
M  END
$$$$
