QHE.pdb
     RDKit          3D

 29 29  0  0  1  0  0  0  0  0999 V2000
   23.1724  -31.9379  -23.2527 N   0  0  0  0  0  0  0  0  0  0  0  0
   23.7478  -30.6388  -23.1937 C   0  0  0  0  0  0  0  0  0  0  0  0
   24.9370  -30.5094  -23.5338 O   0  0  0  0  0  0  0  0  0  0  0  0
   22.8846  -29.5156  -22.7268 C   0  0  0  0  0  0  0  0  0  0  0  0
   23.2013  -29.3048  -21.2632 C   0  0  0  0  0  0  0  0  0  0  0  0
   22.3699  -30.1706  -20.3626 C   0  0  2  0  0  0  0  0  0  0  0  0
   21.0497  -29.6242  -20.1740 N   0  0  0  0  0  0  0  0  0  0  0  0
   22.9799  -30.3545  -19.0266 C   0  0  0  0  0  0  0  0  0  0  0  0
   24.1655  -30.7600  -18.9582 O   0  0  0  0  0  0  0  0  0  0  0  0
   22.2875  -30.0940  -17.8255 N   0  0  0  0  0  0  0  0  0  0  0  0
   22.9111  -30.3914  -16.4977 C   0  0  1  0  0  0  0  0  0  0  0  0
   23.0217  -29.1145  -15.7500 C   0  0  0  0  0  0  0  0  0  0  0  0
   24.1147  -28.2032  -16.0813 C   0  0  0  0  0  0  0  0  0  0  0  0
   25.1282  -28.3518  -16.9932 C   0  0  0  0  0  0  0  0  0  0  0  0
   25.9681  -27.2884  -16.9611 N   0  0  0  0  0  0  0  0  0  0  0  0
   25.4795  -26.4636  -16.0211 C   0  0  0  0  0  0  0  0  0  0  0  0
   24.3709  -26.9998  -15.4876 N   0  0  0  0  0  0  0  0  0  0  0  0
   22.2590  -31.5250  -15.9126 C   0  0  0  0  0  0  0  0  0  0  0  0
   21.0149  -31.7287  -16.1699 O   0  0  0  0  0  0  0  0  0  0  0  0
   22.8457  -32.4870  -15.0603 N   0  0  0  0  0  0  0  0  0  0  0  0
   22.0594  -33.5857  -14.5074 C   0  0  1  0  0  0  0  0  0  0  0  0
   22.9986  -34.4860  -13.7207 C   0  0  0  0  0  0  0  0  0  0  0  0
   22.3277  -35.6307  -13.0531 C   0  0  0  0  0  0  0  0  0  0  0  0
   23.2141  -36.4549  -12.2050 C   0  0  0  0  0  0  0  0  0  0  0  0
   24.4329  -36.1972  -12.1050 O   0  0  0  0  0  0  0  0  0  0  0  0
   21.0856  -33.0595  -13.5436 C   0  0  0  0  0  0  0  0  0  0  0  0
   20.1226  -33.7574  -13.1007 O   0  0  0  0  0  0  0  0  0  0  0  0
   22.7249  -37.5399  -11.4930 O   0  0  0  0  0  0  0  0  0  0  0  0
   21.1843  -31.7714  -13.0785 O   0  0  0  0  0  0  0  0  0  0  0  0
  2  1  1  0
  2  3  2  0
  4  2  1  0
  5  4  1  0
  6  7  1  1
  6  5  1  0
  8  6  1  0
  9  8  2  0
 10  8  1  0
 11 18  1  0
 11 10  1  0
 11 12  1  1
 13 12  1  0
 13 14  2  0
 15 14  1  0
 16 15  1  0
 17 16  2  0
 17 13  1  0
 18 19  2  0
 20 18  1  0
 21 20  1  0
 21 22  1  1
 23 22  1  0
 24 25  2  0
 24 23  1  0
 26 29  1  0
 26 21  1  0
 27 26  2  0
 28 24  1  0
M  END
$$$$
