QHE.pdb
     RDKit          3D

 29 29  0  0  1  0  0  0  0  0999 V2000
   16.6856  -14.6093  -14.1303 N   0  0  0  0  0  0  0  0  0  0  0  0
   16.1521  -15.0051  -15.3877 C   0  0  0  0  0  0  0  0  0  0  0  0
   15.3885  -15.9862  -15.4169 O   0  0  0  0  0  0  0  0  0  0  0  0
   16.5450  -14.2152  -16.5904 C   0  0  0  0  0  0  0  0  0  0  0  0
   17.5129  -13.1547  -16.1155 C   0  0  0  0  0  0  0  0  0  0  0  0
   17.5216  -11.9434  -17.0012 C   0  0  2  0  0  0  0  0  0  0  0  0
   17.3112  -12.2960  -18.3826 N   0  0  0  0  0  0  0  0  0  0  0  0
   18.7887  -11.1834  -16.9149 C   0  0  0  0  0  0  0  0  0  0  0  0
   19.4361  -11.2147  -15.8403 O   0  0  0  0  0  0  0  0  0  0  0  0
   19.3018  -10.4245  -17.9876 N   0  0  0  0  0  0  0  0  0  0  0  0
   20.5821   -9.6619  -17.8477 C   0  0  1  0  0  0  0  0  0  0  0  0
   21.3896   -9.8987  -19.0699 C   0  0  0  0  0  0  0  0  0  0  0  0
   22.0657  -11.1850  -19.2223 C   0  0  0  0  0  0  0  0  0  0  0  0
   22.1344  -12.2428  -18.3520 C   0  0  0  0  0  0  0  0  0  0  0  0
   22.9033  -13.2374  -18.8588 N   0  0  0  0  0  0  0  0  0  0  0  0
   23.3222  -12.8023  -20.0579 C   0  0  0  0  0  0  0  0  0  0  0  0
   22.8278  -11.5758  -20.2866 N   0  0  0  0  0  0  0  0  0  0  0  0
   20.2926   -8.3280  -17.4122 C   0  0  0  0  0  0  0  0  0  0  0  0
   19.2262   -7.7506  -17.8425 O   0  0  0  0  0  0  0  0  0  0  0  0
   21.0652   -7.5452  -16.5255 N   0  0  0  0  0  0  0  0  0  0  0  0
   20.6749   -6.1796  -16.1878 C   0  0  1  0  0  0  0  0  0  0  0  0
   21.4144   -5.7793  -14.9213 C   0  0  0  0  0  0  0  0  0  0  0  0
   21.0543   -4.4339  -14.4054 C   0  0  0  0  0  0  0  0  0  0  0  0
   21.7786   -4.0288  -13.1824 C   0  0  0  0  0  0  0  0  0  0  0  0
   22.3816   -4.8699  -12.4820 O   0  0  0  0  0  0  0  0  0  0  0  0
   21.1283   -5.2623  -17.2400 C   0  0  0  0  0  0  0  0  0  0  0  0
   22.1983   -5.4549  -17.8948 O   0  0  0  0  0  0  0  0  0  0  0  0
   21.8136   -2.7047  -12.7713 O   0  0  0  0  0  0  0  0  0  0  0  0
   20.3978   -4.1443  -17.5591 O   0  0  0  0  0  0  0  0  0  0  0  0
  2  1  1  0
  2  3  2  0
  4  2  1  0
  5  4  1  0
  6  7  1  6
  6  5  1  0
  8  6  1  0
  9  8  2  0
 10  8  1  0
 11 18  1  0
 11 10  1  0
 11 12  1  6
 13 12  1  0
 13 14  2  0
 15 14  1  0
 16 15  1  0
 17 16  2  0
 17 13  1  0
 18 19  2  0
 20 18  1  0
 21 20  1  0
 21 22  1  1
 23 22  1  0
 24 25  2  0
 24 23  1  0
 26 29  1  0
 26 21  1  0
 27 26  2  0
 28 24  1  0
M  END
$$$$
