QHE.pdb
     RDKit          3D

 29 29  0  0  1  0  0  0  0  0999 V2000
   24.7934  -16.9409  -20.9986 N   0  0  0  0  0  0  0  0  0  0  0  0
   25.3388  -15.6334  -21.1216 C   0  0  0  0  0  0  0  0  0  0  0  0
   26.3026  -15.4711  -21.8907 O   0  0  0  0  0  0  0  0  0  0  0  0
   24.7172  -14.5412  -20.3181 C   0  0  0  0  0  0  0  0  0  0  0  0
   23.5399  -15.1530  -19.5924 C   0  0  0  0  0  0  0  0  0  0  0  0
   23.8221  -15.3982  -18.1391 C   0  0  2  0  0  0  0  0  0  0  0  0
   25.0934  -14.8446  -17.7460 N   0  0  0  0  0  0  0  0  0  0  0  0
   23.8282  -16.8376  -17.7947 C   0  0  0  0  0  0  0  0  0  0  0  0
   22.8191  -17.5275  -18.0785 O   0  0  0  0  0  0  0  0  0  0  0  0
   24.9186  -17.4694  -17.1609 N   0  0  0  0  0  0  0  0  0  0  0  0
   24.9033  -18.9412  -16.8888 C   0  0  1  0  0  0  0  0  0  0  0  0
   26.2586  -19.4721  -17.1770 C   0  0  0  0  0  0  0  0  0  0  0  0
   26.5803  -20.8333  -16.7542 C   0  0  0  0  0  0  0  0  0  0  0  0
   25.8368  -21.7148  -16.0119 C   0  0  0  0  0  0  0  0  0  0  0  0
   26.5197  -22.8665  -15.8012 N   0  0  0  0  0  0  0  0  0  0  0  0
   27.7030  -22.7088  -16.4158 C   0  0  0  0  0  0  0  0  0  0  0  0
   27.7513  -21.4965  -16.9894 N   0  0  0  0  0  0  0  0  0  0  0  0
   24.2806  -19.1810  -15.6209 C   0  0  0  0  0  0  0  0  0  0  0  0
   24.6172  -18.4531  -14.6147 O   0  0  0  0  0  0  0  0  0  0  0  0
   23.2968  -20.1543  -15.3364 N   0  0  0  0  0  0  0  0  0  0  0  0
   22.7745  -20.3272  -13.9843 C   0  0  1  0  0  0  0  0  0  0  0  0
   21.4321  -19.6179  -13.9050 C   0  0  0  0  0  0  0  0  0  0  0  0
   20.2624  -20.4988  -14.1536 C   0  0  0  0  0  0  0  0  0  0  0  0
   19.0126  -19.7839  -14.4871 C   0  0  0  0  0  0  0  0  0  0  0  0
   18.9676  -18.5350  -14.4980 O   0  0  0  0  0  0  0  0  0  0  0  0
   22.5073  -21.7489  -13.7365 C   0  0  0  0  0  0  0  0  0  0  0  0
   22.5974  -22.6264  -14.6489 O   0  0  0  0  0  0  0  0  0  0  0  0
   17.8499  -20.4728  -14.7986 O   0  0  0  0  0  0  0  0  0  0  0  0
   22.1447  -22.1875  -12.4869 O   0  0  0  0  0  0  0  0  0  0  0  0
  2  1  1  0
  2  3  2  0
  4  2  1  0
  5  4  1  0
  6  7  1  6
  6  5  1  0
  8  6  1  0
  9  8  2  0
 10  8  1  0
 11 18  1  0
 11 10  1  0
 11 12  1  1
 13 12  1  0
 13 14  2  0
 15 14  1  0
 16 15  1  0
 17 16  2  0
 17 13  1  0
 18 19  2  0
 20 18  1  0
 21 20  1  0
 21 22  1  6
 23 22  1  0
 24 25  2  0
 24 23  1  0
 26 29  1  0
 26 21  1  0
 27 26  2  0
 28 24  1  0
M  END
$$$$
