QHE.pdb
     RDKit          3D

 29 29  0  0  1  0  0  0  0  0999 V2000
   11.5619   -8.7916  -12.6170 N   0  0  0  0  0  0  0  0  0  0  0  0
   11.0513  -10.0886  -12.3355 C   0  0  0  0  0  0  0  0  0  0  0  0
    9.9099  -10.1756  -11.8496 O   0  0  0  0  0  0  0  0  0  0  0  0
   11.9210  -11.2610  -12.6426 C   0  0  0  0  0  0  0  0  0  0  0  0
   13.2583  -10.7062  -13.0793 C   0  0  0  0  0  0  0  0  0  0  0  0
   13.9790  -11.6182  -14.0283 C   0  0  2  0  0  0  0  0  0  0  0  0
   14.0448  -12.9655  -13.5208 N   0  0  0  0  0  0  0  0  0  0  0  0
   15.3618  -11.1711  -14.3089 C   0  0  0  0  0  0  0  0  0  0  0  0
   16.3034  -11.6861  -13.6585 O   0  0  0  0  0  0  0  0  0  0  0  0
   15.6691  -10.1910  -15.2758 N   0  0  0  0  0  0  0  0  0  0  0  0
   17.0897   -9.8646  -15.6163 C   0  0  1  0  0  0  0  0  0  0  0  0
   17.3116  -10.2240  -17.0387 C   0  0  0  0  0  0  0  0  0  0  0  0
   17.5433  -11.6264  -17.3771 C   0  0  0  0  0  0  0  0  0  0  0  0
   17.7032  -12.7085  -16.5496 C   0  0  0  0  0  0  0  0  0  0  0  0
   17.9436  -13.8340  -17.2655 N   0  0  0  0  0  0  0  0  0  0  0  0
   17.9352  -13.4576  -18.5543 C   0  0  0  0  0  0  0  0  0  0  0  0
   17.6968  -12.1393  -18.6339 N   0  0  0  0  0  0  0  0  0  0  0  0
   17.3998   -8.5496  -15.1394 C   0  0  0  0  0  0  0  0  0  0  0  0
   16.4385   -7.7191  -14.9350 O   0  0  0  0  0  0  0  0  0  0  0  0
   18.6852   -8.0407  -14.8483 N   0  0  0  0  0  0  0  0  0  0  0  0
   18.8658   -6.6718  -14.3742 C   0  0  1  0  0  0  0  0  0  0  0  0
   20.3119   -6.5149  -13.9320 C   0  0  0  0  0  0  0  0  0  0  0  0
   20.6622   -5.1477  -13.4693 C   0  0  0  0  0  0  0  0  0  0  0  0
   22.0597   -4.9902  -13.0151 C   0  0  0  0  0  0  0  0  0  0  0  0
   22.5595   -5.7770  -12.1827 O   0  0  0  0  0  0  0  0  0  0  0  0
   18.6683   -5.7344  -15.4861 C   0  0  0  0  0  0  0  0  0  0  0  0
   18.9437   -6.0372  -16.6873 O   0  0  0  0  0  0  0  0  0  0  0  0
   22.8623   -3.9663  -13.4958 O   0  0  0  0  0  0  0  0  0  0  0  0
   18.1694   -4.4749  -15.2619 O   0  0  0  0  0  0  0  0  0  0  0  0
  2  1  1  0
  2  3  2  0
  4  2  1  0
  5  4  1  0
  6  7  1  1
  6  5  1  0
  8  6  1  0
  9  8  2  0
 10  8  1  0
 11 18  1  0
 11 10  1  0
 11 12  1  6
 13 12  1  0
 13 14  2  0
 15 14  1  0
 16 15  1  0
 17 16  2  0
 17 13  1  0
 18 19  2  0
 20 18  1  0
 21 20  1  0
 21 22  1  6
 23 22  1  0
 24 25  2  0
 24 23  1  0
 26 29  1  0
 26 21  1  0
 27 26  2  0
 28 24  1  0
M  END
$$$$
