WRT.pdb
     RDKit          3D

 33 34  0  0  1  0  0  0  0  0999 V2000
    6.3068  -18.2632   25.2397 N   0  0  0  0  0  0  0  0  0  0  0  0
    6.8989  -17.0409   24.9268 C   0  0  1  0  0  0  0  0  0  0  0  0
    7.8969  -16.6413   25.9826 C   0  0  0  0  0  0  0  0  0  0  0  0
    7.3179  -15.4708   26.7210 C   0  0  0  0  0  0  0  0  0  0  0  0
    6.6561  -15.4511   27.9188 C   0  0  0  0  0  0  0  0  0  0  0  0
    6.3250  -14.1719   28.1715 N   0  0  0  0  0  0  0  0  0  0  0  0
    6.7403  -13.3675   27.1967 C   0  0  0  0  0  0  0  0  0  0  0  0
    6.6530  -11.9933   26.9801 C   0  0  0  0  0  0  0  0  0  0  0  0
    7.1996  -11.4594   25.8400 C   0  0  0  0  0  0  0  0  0  0  0  0
    7.8301  -12.2765   24.9167 C   0  0  0  0  0  0  0  0  0  0  0  0
    7.9176  -13.6344   25.1286 C   0  0  0  0  0  0  0  0  0  0  0  0
    7.3689  -14.1705   26.2729 C   0  0  0  0  0  0  0  0  0  0  0  0
    7.5848  -16.9692   23.6215 C   0  0  0  0  0  0  0  0  0  0  0  0
    8.3115  -17.9264   23.2701 O   0  0  0  0  0  0  0  0  0  0  0  0
    7.6656  -15.5085   17.0342 N   0  0  0  0  0  0  0  0  0  0  0  0
    7.9036  -14.1954   16.4949 C   0  0  0  0  0  0  0  0  0  0  0  0
    8.0794  -14.1083   15.2347 N   0  0  0  0  0  0  0  0  0  0  0  0
    7.9474  -13.0509   17.3136 N   0  0  0  0  0  0  0  0  0  0  0  0
    7.6514  -13.1068   18.7073 C   0  0  0  0  0  0  0  0  0  0  0  0
    8.1134  -14.3217   19.4363 C   0  0  0  0  0  0  0  0  0  0  0  0
    7.5985  -14.4630   20.8378 C   0  0  0  0  0  0  0  0  0  0  0  0
    8.1356  -15.7361   21.4983 C   0  0  2  0  0  0  0  0  0  0  0  0
    7.4569  -15.8719   22.7559 N   0  0  0  0  0  0  0  0  0  0  0  0
    9.5904  -15.7782   21.5972 C   0  0  0  0  0  0  0  0  0  0  0  0
   10.2238  -14.8456   22.1884 O   0  0  0  0  0  0  0  0  0  0  0  0
    8.3292  -13.1965   14.8098 C   0  0  0  0  0  0  0  0  0  0  0  0
   12.0052  -18.4061   23.1519 C   0  0  2  0  0  0  0  0  0  0  0  0
   12.1963  -18.2348   21.6756 O   0  0  0  0  0  0  0  0  0  0  0  0
   11.4895  -19.1787   20.9581 C   0  0  2  0  0  0  0  0  0  0  0  0
   11.8311  -16.8619   21.1686 N   0  0  0  0  0  0  0  0  0  0  0  0
   10.3854  -16.8267   21.0606 C   0  0  0  0  0  0  0  0  0  0  0  0
   12.4806  -16.5619   19.8660 O   0  0  0  0  0  0  0  0  0  0  0  0
   13.8223  -16.3061   19.7113 O   0  0  0  0  0  0  0  0  0  0  0  0
  2  1  1  1
  3  2  1  0
  4  5  2  0
  4  3  1  0
  6  5  1  0
  7 12  2  0
  7  6  1  0
  8  7  1  0
  9 10  1  0
  9  8  2  0
 10 11  2  0
 11 12  1  0
 12  4  1  0
 13  2  1  0
 14 13  2  0
 16 18  1  0
 16 15  1  0
 17 16  2  0
 19 20  1  0
 19 18  1  0
 20 21  1  0
 22 21  1  1
 22 24  1  0
 22 23  1  0
 23 13  1  0
 24 25  2  0
 27 26  1  1
 27 29  1  0
 27 28  1  0
 29 31  1  0
 30 24  1  0
 29 30  1  6
 31 32  1  0
 33 31  2  0
M  END
$$$$
