WRT.pdb
     RDKit          3D

 33 34  0  0  1  0  0  0  0  0999 V2000
    5.8674  -17.8030   24.1291 N   0  0  0  0  0  0  0  0  0  0  0  0
    6.7201  -16.7275   23.8870 C   0  0  1  0  0  0  0  0  0  0  0  0
    7.5433  -16.4088   25.1083 C   0  0  0  0  0  0  0  0  0  0  0  0
    6.8466  -15.2972   25.8359 C   0  0  0  0  0  0  0  0  0  0  0  0
    5.7731  -15.3630   26.6824 C   0  0  0  0  0  0  0  0  0  0  0  0
    5.5052  -14.1081   27.0864 N   0  0  0  0  0  0  0  0  0  0  0  0
    6.3520  -13.2381   26.5425 C   0  0  0  0  0  0  0  0  0  0  0  0
    6.5013  -11.8552   26.6330 C   0  0  0  0  0  0  0  0  0  0  0  0
    7.5047  -11.2425   25.9249 C   0  0  0  0  0  0  0  0  0  0  0  0
    8.3581  -11.9898   25.1305 C   0  0  0  0  0  0  0  0  0  0  0  0
    8.2126  -13.3562   25.0397 C   0  0  0  0  0  0  0  0  0  0  0  0
    7.2054  -13.9712   25.7504 C   0  0  0  0  0  0  0  0  0  0  0  0
    7.6538  -16.8839   22.7542 C   0  0  0  0  0  0  0  0  0  0  0  0
    8.2469  -17.9771   22.6096 O   0  0  0  0  0  0  0  0  0  0  0  0
    9.1549  -14.7148   15.9736 N   0  0  0  0  0  0  0  0  0  0  0  0
    7.8221  -14.2108   16.1770 C   0  0  0  0  0  0  0  0  0  0  0  0
    6.8907  -14.7346   15.4810 N   0  0  0  0  0  0  0  0  0  0  0  0
    7.5477  -13.1817   17.0977 N   0  0  0  0  0  0  0  0  0  0  0  0
    8.1782  -13.1227   18.3754 C   0  0  0  0  0  0  0  0  0  0  0  0
    8.4244  -14.4256   19.0555 C   0  0  0  0  0  0  0  0  0  0  0  0
    9.0616  -14.3316   20.4099 C   0  0  0  0  0  0  0  0  0  0  0  0
    9.1240  -15.7035   21.0878 C   0  0  2  0  0  0  0  0  0  0  0  0
    7.9052  -15.8577   21.8304 N   0  0  0  0  0  0  0  0  0  0  0  0
   10.3338  -15.9160   21.8747 C   0  0  0  0  0  0  0  0  0  0  0  0
   10.5894  -15.1744   22.8774 O   0  0  0  0  0  0  0  0  0  0  0  0
    5.9052  -14.4587   15.6457 C   0  0  0  0  0  0  0  0  0  0  0  0
   11.8344  -18.7049   24.0643 C   0  0  2  0  0  0  0  0  0  0  0  0
   12.6231  -18.4711   22.8119 O   0  0  0  0  0  0  0  0  0  0  0  0
   12.2425  -19.3324   21.8026 C   0  0  2  0  0  0  0  0  0  0  0  0
   12.5479  -17.0545   22.2992 N   0  0  0  0  0  0  0  0  0  0  0  0
   11.2871  -16.9315   21.5934 C   0  0  0  0  0  0  0  0  0  0  0  0
   13.6981  -16.7227   21.4186 O   0  0  0  0  0  0  0  0  0  0  0  0
   14.9975  -16.6104   21.8525 O   0  0  0  0  0  0  0  0  0  0  0  0
  2  1  1  1
  3  2  1  0
  4  5  2  0
  4  3  1  0
  6  5  1  0
  7 12  2  0
  7  6  1  0
  8  7  1  0
  9 10  1  0
  9  8  2  0
 10 11  2  0
 11 12  1  0
 12  4  1  0
 13  2  1  0
 14 13  2  0
 16 18  1  0
 16 15  1  0
 17 16  2  0
 19 20  1  0
 19 18  1  0
 20 21  1  0
 22 21  1  1
 22 24  1  0
 22 23  1  0
 23 13  1  0
 24 25  2  0
 27 26  1  1
 27 29  1  0
 27 28  1  0
 29 31  1  0
 30 24  1  0
 29 30  1  1
 31 32  1  0
 33 31  2  0
M  END
$$$$
