WRT.pdb
     RDKit          3D

 33 34  0  0  1  0  0  0  0  0999 V2000
    6.4558  -18.2658   25.8107 N   0  0  0  0  0  0  0  0  0  0  0  0
    6.9000  -17.0188   25.3747 C   0  0  1  0  0  0  0  0  0  0  0  0
    7.9910  -16.4933   26.2715 C   0  0  0  0  0  0  0  0  0  0  0  0
    7.4313  -15.3112   27.0063 C   0  0  0  0  0  0  0  0  0  0  0  0
    6.7477  -15.2797   28.1916 C   0  0  0  0  0  0  0  0  0  0  0  0
    6.4480  -13.9932   28.4460 N   0  0  0  0  0  0  0  0  0  0  0  0
    6.9041  -13.1953   27.4843 C   0  0  0  0  0  0  0  0  0  0  0  0
    6.8596  -11.8179   27.2748 C   0  0  0  0  0  0  0  0  0  0  0  0
    7.4424  -11.2930   26.1486 C   0  0  0  0  0  0  0  0  0  0  0  0
    8.0671  -12.1223   25.2320 C   0  0  0  0  0  0  0  0  0  0  0  0
    8.1123  -13.4833   25.4370 C   0  0  0  0  0  0  0  0  0  0  0  0
    7.5273  -14.0103   26.5674 C   0  0  0  0  0  0  0  0  0  0  0  0
    7.4020  -16.9591   23.9877 C   0  0  0  0  0  0  0  0  0  0  0  0
    7.9406  -17.9779   23.4981 O   0  0  0  0  0  0  0  0  0  0  0  0
    9.3064  -14.9810   15.8816 N   0  0  0  0  0  0  0  0  0  0  0  0
    8.5536  -14.2109   16.8365 C   0  0  0  0  0  0  0  0  0  0  0  0
    8.8077  -12.9631   16.9059 N   0  0  0  0  0  0  0  0  0  0  0  0
    7.5803  -14.7995   17.6662 N   0  0  0  0  0  0  0  0  0  0  0  0
    7.0800  -14.1419   18.8283 C   0  0  0  0  0  0  0  0  0  0  0  0
    8.0106  -14.0429   19.9881 C   0  0  0  0  0  0  0  0  0  0  0  0
    7.3980  -14.3250   21.3277 C   0  0  0  0  0  0  0  0  0  0  0  0
    7.9337  -15.6337   21.9159 C   0  0  2  0  0  0  0  0  0  0  0  0
    7.3008  -15.8069   23.1926 N   0  0  0  0  0  0  0  0  0  0  0  0
    9.3900  -15.7075   21.9562 C   0  0  0  0  0  0  0  0  0  0  0  0
   10.0692  -14.7659   22.4783 O   0  0  0  0  0  0  0  0  0  0  0  0
    8.3490  -12.3820   17.6312 C   0  0  0  0  0  0  0  0  0  0  0  0
   11.8425  -18.6611   23.1986 C   0  0  2  0  0  0  0  0  0  0  0  0
   11.9614  -18.2849   21.7530 O   0  0  0  0  0  0  0  0  0  0  0  0
   11.2095  -19.1162   20.9474 C   0  0  2  0  0  0  0  0  0  0  0  0
   11.5860  -16.8532   21.4626 N   0  0  0  0  0  0  0  0  0  0  0  0
   10.1372  -16.7978   21.4347 C   0  0  0  0  0  0  0  0  0  0  0  0
   12.1726  -16.3757   20.1833 O   0  0  0  0  0  0  0  0  0  0  0  0
   13.4792  -15.9762   20.0328 O   0  0  0  0  0  0  0  0  0  0  0  0
  2  1  1  1
  3  2  1  0
  4  5  2  0
  4  3  1  0
  6  5  1  0
  7 12  2  0
  7  6  1  0
  8  7  1  0
  9 10  1  0
  9  8  2  0
 10 11  2  0
 11 12  1  0
 12  4  1  0
 13  2  1  0
 14 13  2  0
 16 18  1  0
 16 15  1  0
 17 16  2  0
 19 20  1  0
 19 18  1  0
 20 21  1  0
 22 21  1  1
 22 24  1  0
 22 23  1  0
 23 13  1  0
 24 25  2  0
 27 26  1  6
 27 29  1  0
 27 28  1  0
 29 31  1  0
 30 24  1  0
 29 30  1  6
 31 32  1  0
 33 31  2  0
M  END
$$$$
