WRT.pdb
     RDKit          3D

 33 34  0  0  1  0  0  0  0  0999 V2000
    6.1120  -18.3834   24.5481 N   0  0  0  0  0  0  0  0  0  0  0  0
    6.6547  -17.1254   24.2927 C   0  0  1  0  0  0  0  0  0  0  0  0
    7.4112  -16.6131   25.4911 C   0  0  0  0  0  0  0  0  0  0  0  0
    6.6828  -15.4009   25.9913 C   0  0  0  0  0  0  0  0  0  0  0  0
    5.3937  -15.2954   26.4388 C   0  0  0  0  0  0  0  0  0  0  0  0
    5.1924  -14.0094   26.7782 N   0  0  0  0  0  0  0  0  0  0  0  0
    6.2868  -13.2819   26.5717 C   0  0  0  0  0  0  0  0  0  0  0  0
    6.5962  -11.9352   26.7555 C   0  0  0  0  0  0  0  0  0  0  0  0
    7.8535  -11.4875   26.4356 C   0  0  0  0  0  0  0  0  0  0  0  0
    8.8028  -12.3637   25.9364 C   0  0  0  0  0  0  0  0  0  0  0  0
    8.4994  -13.6946   25.7541 C   0  0  0  0  0  0  0  0  0  0  0  0
    7.2373  -14.1440   26.0751 C   0  0  0  0  0  0  0  0  0  0  0  0
    7.5581  -17.0343   23.1287 C   0  0  0  0  0  0  0  0  0  0  0  0
    8.2983  -18.0088   22.8635 O   0  0  0  0  0  0  0  0  0  0  0  0
    7.6029  -15.3206   16.9896 N   0  0  0  0  0  0  0  0  0  0  0  0
    8.0368  -14.0598   16.4474 C   0  0  0  0  0  0  0  0  0  0  0  0
    8.2082  -13.9987   15.1852 N   0  0  0  0  0  0  0  0  0  0  0  0
    8.2694  -12.9379   17.2655 N   0  0  0  0  0  0  0  0  0  0  0  0
    8.0799  -12.9803   18.6782 C   0  0  0  0  0  0  0  0  0  0  0  0
    8.6055  -14.1834   19.3832 C   0  0  0  0  0  0  0  0  0  0  0  0
    8.4394  -14.1769   20.8737 C   0  0  0  0  0  0  0  0  0  0  0  0
    8.7381  -15.5559   21.4693 C   0  0  2  0  0  0  0  0  0  0  0  0
    7.6227  -15.8999   22.3047 N   0  0  0  0  0  0  0  0  0  0  0  0
   10.0326  -15.6402   22.1365 C   0  0  0  0  0  0  0  0  0  0  0  0
   10.4000  -14.7313   22.9485 O   0  0  0  0  0  0  0  0  0  0  0  0
    8.5326  -13.1157   14.7501 C   0  0  0  0  0  0  0  0  0  0  0  0
   11.8928  -18.0852   24.5304 C   0  0  2  0  0  0  0  0  0  0  0  0
   12.5046  -18.0204   23.1641 O   0  0  0  0  0  0  0  0  0  0  0  0
   12.0372  -19.0315   22.3488 C   0  0  2  0  0  0  0  0  0  0  0  0
   12.3020  -16.6982   22.4671 N   0  0  0  0  0  0  0  0  0  0  0  0
   10.9513  -16.7061   21.9392 C   0  0  0  0  0  0  0  0  0  0  0  0
   13.3043  -16.4799   21.3917 O   0  0  0  0  0  0  0  0  0  0  0  0
   14.6416  -16.2535   21.6150 O   0  0  0  0  0  0  0  0  0  0  0  0
  2  1  1  1
  3  2  1  0
  4  5  2  0
  4  3  1  0
  6  5  1  0
  7 12  2  0
  7  6  1  0
  8  7  1  0
  9 10  1  0
  9  8  2  0
 10 11  2  0
 11 12  1  0
 12  4  1  0
 13  2  1  0
 14 13  2  0
 16 18  1  0
 16 15  1  0
 17 16  2  0
 19 20  1  0
 19 18  1  0
 20 21  1  0
 22 21  1  1
 22 24  1  0
 22 23  1  0
 23 13  1  0
 24 25  2  0
 27 26  1  1
 27 29  1  0
 27 28  1  0
 29 31  1  0
 30 24  1  0
 29 30  1  6
 31 32  1  0
 33 31  2  0
M  END
$$$$
