WRT.pdb
     RDKit          3D

 33 34  0  0  1  0  0  0  0  0999 V2000
    6.5056  -17.8724   25.4589 N   0  0  0  0  0  0  0  0  0  0  0  0
    7.2595  -17.0653   24.6088 C   0  0  1  0  0  0  0  0  0  0  0  0
    8.0926  -16.0868   25.3957 C   0  0  0  0  0  0  0  0  0  0  0  0
    7.1553  -15.0650   25.9683 C   0  0  0  0  0  0  0  0  0  0  0  0
    5.9608  -15.2563   26.6084 C   0  0  0  0  0  0  0  0  0  0  0  0
    5.4848  -14.0420   26.9377 N   0  0  0  0  0  0  0  0  0  0  0  0
    6.3126  -13.0788   26.5416 C   0  0  0  0  0  0  0  0  0  0  0  0
    6.2864  -11.6884   26.6357 C   0  0  0  0  0  0  0  0  0  0  0  0
    7.3259  -10.9623   26.1103 C   0  0  0  0  0  0  0  0  0  0  0  0
    8.3875  -11.6040   25.4946 C   0  0  0  0  0  0  0  0  0  0  0  0
    8.4155  -12.9776   25.4006 C   0  0  0  0  0  0  0  0  0  0  0  0
    7.3722  -13.7065   25.9278 C   0  0  0  0  0  0  0  0  0  0  0  0
    8.1660  -17.7709   23.6816 C   0  0  0  0  0  0  0  0  0  0  0  0
    8.7031  -18.8370   24.0596 O   0  0  0  0  0  0  0  0  0  0  0  0
    9.5515  -13.2527   18.6349 N   0  0  0  0  0  0  0  0  0  0  0  0
    8.1202  -13.2826   18.4854 C   0  0  0  0  0  0  0  0  0  0  0  0
    7.5260  -12.1612   18.3592 N   0  0  0  0  0  0  0  0  0  0  0  0
    7.3969  -14.4904   18.4820 N   0  0  0  0  0  0  0  0  0  0  0  0
    8.0378  -15.7556   18.6299 C   0  0  0  0  0  0  0  0  0  0  0  0
    8.4536  -16.1323   20.0105 C   0  0  0  0  0  0  0  0  0  0  0  0
    9.1827  -17.4377   20.1269 C   0  0  0  0  0  0  0  0  0  0  0  0
    9.5534  -17.7360   21.5826 C   0  0  2  0  0  0  0  0  0  0  0  0
    8.4520  -17.2971   22.3918 N   0  0  0  0  0  0  0  0  0  0  0  0
   10.8448  -17.1893   21.9843 C   0  0  0  0  0  0  0  0  0  0  0  0
   11.1178  -15.9629   21.7793 O   0  0  0  0  0  0  0  0  0  0  0  0
    6.4928  -12.1298   18.2826 C   0  0  0  0  0  0  0  0  0  0  0  0
   12.8314  -18.0499   25.5093 C   0  0  2  0  0  0  0  0  0  0  0  0
   13.5780  -18.2604   24.2273 O   0  0  0  0  0  0  0  0  0  0  0  0
   13.5306  -19.5789   23.8214 C   0  0  2  0  0  0  0  0  0  0  0  0
   13.1048  -17.3836   23.0949 N   0  0  0  0  0  0  0  0  0  0  0  0
   11.8622  -17.9559   22.6137 C   0  0  0  0  0  0  0  0  0  0  0  0
   14.1152  -17.2881   22.0092 O   0  0  0  0  0  0  0  0  0  0  0  0
   15.3729  -16.7564   22.1675 O   0  0  0  0  0  0  0  0  0  0  0  0
  2  1  1  1
  3  2  1  0
  4  5  2  0
  4  3  1  0
  6  5  1  0
  7 12  2  0
  7  6  1  0
  8  7  1  0
  9 10  1  0
  9  8  2  0
 10 11  2  0
 11 12  1  0
 12  4  1  0
 13  2  1  0
 14 13  2  0
 16 18  1  0
 16 15  1  0
 17 16  2  0
 19 20  1  0
 19 18  1  0
 20 21  1  0
 22 21  1  6
 22 24  1  0
 22 23  1  0
 23 13  1  0
 24 25  2  0
 27 26  1  1
 27 29  1  0
 27 28  1  0
 29 31  1  0
 30 24  1  0
 29 30  1  6
 31 32  1  0
 33 31  2  0
M  END
$$$$
