WRT.pdb
     RDKit          3D

 33 34  0  0  1  0  0  0  0  0999 V2000
    8.9115  -16.0183   24.7976 N   0  0  0  0  0  0  0  0  0  0  0  0
    7.7721  -16.3198   24.0538 C   0  0  1  0  0  0  0  0  0  0  0  0
    6.6983  -15.2855   24.2725 C   0  0  0  0  0  0  0  0  0  0  0  0
    6.8077  -14.8257   25.6963 C   0  0  0  0  0  0  0  0  0  0  0  0
    6.6971  -15.5574   26.8476 C   0  0  0  0  0  0  0  0  0  0  0  0
    6.8665  -14.7092   27.8780 N   0  0  0  0  0  0  0  0  0  0  0  0
    7.0804  -13.4687   27.4478 C   0  0  0  0  0  0  0  0  0  0  0  0
    7.3086  -12.2531   28.0906 C   0  0  0  0  0  0  0  0  0  0  0  0
    7.4971  -11.1221   27.3363 C   0  0  0  0  0  0  0  0  0  0  0  0
    7.4611  -11.1886   25.9535 C   0  0  0  0  0  0  0  0  0  0  0  0
    7.2358  -12.3885   25.3163 C   0  0  0  0  0  0  0  0  0  0  0  0
    7.0466  -13.5238   26.0733 C   0  0  0  0  0  0  0  0  0  0  0  0
    7.9667  -16.4524   22.5964 C   0  0  0  0  0  0  0  0  0  0  0  0
    7.0140  -16.8662   21.8971 O   0  0  0  0  0  0  0  0  0  0  0  0
    7.8612  -12.7132   16.0980 N   0  0  0  0  0  0  0  0  0  0  0  0
    8.1872  -13.9758   15.4885 C   0  0  0  0  0  0  0  0  0  0  0  0
    8.4522  -13.9672   14.2410 N   0  0  0  0  0  0  0  0  0  0  0  0
    8.2109  -15.1747   16.2262 N   0  0  0  0  0  0  0  0  0  0  0  0
    7.9606  -15.2035   17.6297 C   0  0  0  0  0  0  0  0  0  0  0  0
    9.0648  -14.7299   18.5113 C   0  0  0  0  0  0  0  0  0  0  0  0
    8.8071  -14.8520   19.9837 C   0  0  0  0  0  0  0  0  0  0  0  0
    9.3863  -16.1561   20.5400 C   0  0  2  0  0  0  0  0  0  0  0  0
    9.1762  -16.1335   21.9599 N   0  0  0  0  0  0  0  0  0  0  0  0
   10.7689  -16.4012   20.1446 C   0  0  0  0  0  0  0  0  0  0  0  0
   11.6534  -15.4990   20.2994 O   0  0  0  0  0  0  0  0  0  0  0  0
    8.7243  -14.8466   13.7647 C   0  0  0  0  0  0  0  0  0  0  0  0
   13.0836  -19.4530   21.1817 C   0  0  2  0  0  0  0  0  0  0  0  0
   12.8933  -19.3034   19.7029 O   0  0  0  0  0  0  0  0  0  0  0  0
   11.8887  -20.1254   19.2334 C   0  0  2  0  0  0  0  0  0  0  0  0
   12.6109  -17.8880   19.2645 N   0  0  0  0  0  0  0  0  0  0  0  0
   11.2197  -17.6230   19.5763 C   0  0  0  0  0  0  0  0  0  0  0  0
   12.8907  -17.6902   17.8183 O   0  0  0  0  0  0  0  0  0  0  0  0
   14.1506  -17.6771   17.2689 O   0  0  0  0  0  0  0  0  0  0  0  0
  2  1  1  1
  3  2  1  0
  4  5  2  0
  4  3  1  0
  6  5  1  0
  7 12  2  0
  7  6  1  0
  8  7  1  0
  9 10  1  0
  9  8  2  0
 10 11  2  0
 11 12  1  0
 12  4  1  0
 13  2  1  0
 14 13  2  0
 16 18  1  0
 16 15  1  0
 17 16  2  0
 19 20  1  0
 19 18  1  0
 20 21  1  0
 22 21  1  1
 22 24  1  0
 22 23  1  0
 23 13  1  0
 24 25  2  0
 27 26  1  6
 27 29  1  0
 27 28  1  0
 29 31  1  0
 30 24  1  0
 29 30  1  6
 31 32  1  0
 33 31  2  0
M  END
$$$$
