WRT.pdb
     RDKit          3D

 33 34  0  0  1  0  0  0  0  0999 V2000
    7.0657  -17.2871   26.0296 N   0  0  0  0  0  0  0  0  0  0  0  0
    7.4947  -16.1910   25.2833 C   0  0  1  0  0  0  0  0  0  0  0  0
    8.7128  -15.5600   25.9066 C   0  0  0  0  0  0  0  0  0  0  0  0
    8.2293  -14.5929   26.9465 C   0  0  0  0  0  0  0  0  0  0  0  0
    8.2367  -14.7199   28.3092 C   0  0  0  0  0  0  0  0  0  0  0  0
    7.6983  -13.5971   28.8183 N   0  0  0  0  0  0  0  0  0  0  0  0
    7.3447  -12.7540   27.8519 C   0  0  0  0  0  0  0  0  0  0  0  0
    6.7599  -11.4888   27.8449 C   0  0  0  0  0  0  0  0  0  0  0  0
    6.5184  -10.8696   26.6441 C   0  0  0  0  0  0  0  0  0  0  0  0
    6.8521  -11.4948   25.4543 C   0  0  0  0  0  0  0  0  0  0  0  0
    7.4301  -12.7448   25.4588 C   0  0  0  0  0  0  0  0  0  0  0  0
    7.6725  -13.3664   26.6641 C   0  0  0  0  0  0  0  0  0  0  0  0
    7.8118  -16.4569   23.8662 C   0  0  0  0  0  0  0  0  0  0  0  0
    8.1373  -17.6183   23.5299 O   0  0  0  0  0  0  0  0  0  0  0  0
    9.8605  -14.6580   17.0950 N   0  0  0  0  0  0  0  0  0  0  0  0
    8.6619  -14.2730   16.3974 C   0  0  0  0  0  0  0  0  0  0  0  0
    8.5712  -14.6080   15.1702 N   0  0  0  0  0  0  0  0  0  0  0  0
    7.6302  -13.5540   17.0304 N   0  0  0  0  0  0  0  0  0  0  0  0
    7.5988  -13.3630   18.4431 C   0  0  0  0  0  0  0  0  0  0  0  0
    8.0067  -14.5266   19.2800 C   0  0  0  0  0  0  0  0  0  0  0  0
    7.7109  -14.3981   20.7447 C   0  0  0  0  0  0  0  0  0  0  0  0
    8.1677  -15.6423   21.5121 C   0  0  2  0  0  0  0  0  0  0  0  0
    7.7636  -15.4617   22.8777 N   0  0  0  0  0  0  0  0  0  0  0  0
    9.5837  -15.9500   21.3439 C   0  0  0  0  0  0  0  0  0  0  0  0
   10.4714  -15.0944   21.6605 O   0  0  0  0  0  0  0  0  0  0  0  0
    7.7820  -14.2588   14.5963 C   0  0  0  0  0  0  0  0  0  0  0  0
   11.7335  -19.2514   22.3999 C   0  0  2  0  0  0  0  0  0  0  0  0
   11.6672  -18.9349   20.9367 O   0  0  0  0  0  0  0  0  0  0  0  0
   10.6732  -19.6548   20.3049 C   0  0  2  0  0  0  0  0  0  0  0  0
   11.4736  -17.4692   20.6379 N   0  0  0  0  0  0  0  0  0  0  0  0
   10.0649  -17.1850   20.8320 C   0  0  0  0  0  0  0  0  0  0  0  0
   11.9133  -17.1220   19.2614 O   0  0  0  0  0  0  0  0  0  0  0  0
   13.2260  -17.0813   18.8557 O   0  0  0  0  0  0  0  0  0  0  0  0
  2  1  1  1
  3  2  1  0
  4  5  2  0
  4  3  1  0
  6  5  1  0
  7 12  2  0
  7  6  1  0
  8  7  1  0
  9 10  1  0
  9  8  2  0
 10 11  2  0
 11 12  1  0
 12  4  1  0
 13  2  1  0
 14 13  2  0
 16 18  1  0
 16 15  1  0
 17 16  2  0
 19 20  1  0
 19 18  1  0
 20 21  1  0
 22 21  1  6
 22 24  1  0
 22 23  1  0
 23 13  1  0
 24 25  2  0
 27 26  1  6
 27 29  1  0
 27 28  1  0
 29 31  1  0
 30 24  1  0
 29 30  1  6
 31 32  1  0
 33 31  2  0
M  END
$$$$
