WRT.pdb
     RDKit          3D

 33 34  0  0  1  0  0  0  0  0999 V2000
    7.0229  -18.2635   25.3296 N   0  0  0  0  0  0  0  0  0  0  0  0
    7.3137  -17.0882   24.6394 C   0  0  1  0  0  0  0  0  0  0  0  0
    8.0763  -16.1263   25.5134 C   0  0  0  0  0  0  0  0  0  0  0  0
    7.0903  -15.1248   26.0376 C   0  0  0  0  0  0  0  0  0  0  0  0
    5.8406  -15.3367   26.5540 C   0  0  0  0  0  0  0  0  0  0  0  0
    5.3369  -14.1348   26.8876 N   0  0  0  0  0  0  0  0  0  0  0  0
    6.1992  -13.1601   26.6120 C   0  0  0  0  0  0  0  0  0  0  0  0
    6.1657  -11.7746   26.7614 C   0  0  0  0  0  0  0  0  0  0  0  0
    7.2507  -11.0324   26.3670 C   0  0  0  0  0  0  0  0  0  0  0  0
    8.3650  -11.6531   25.8275 C   0  0  0  0  0  0  0  0  0  0  0  0
    8.4003  -13.0217   25.6790 C   0  0  0  0  0  0  0  0  0  0  0  0
    7.3113  -13.7668   26.0748 C   0  0  0  0  0  0  0  0  0  0  0  0
    8.0772  -17.2457   23.3857 C   0  0  0  0  0  0  0  0  0  0  0  0
    8.8025  -18.2567   23.2458 O   0  0  0  0  0  0  0  0  0  0  0  0
    6.4601  -14.1258   15.6647 N   0  0  0  0  0  0  0  0  0  0  0  0
    7.6898  -13.9198   16.3838 C   0  0  0  0  0  0  0  0  0  0  0  0
    8.7582  -13.8293   15.6932 N   0  0  0  0  0  0  0  0  0  0  0  0
    7.7245  -13.8256   17.7881 N   0  0  0  0  0  0  0  0  0  0  0  0
    8.9311  -13.5542   18.4978 C   0  0  0  0  0  0  0  0  0  0  0  0
    9.3727  -14.5873   19.4768 C   0  0  0  0  0  0  0  0  0  0  0  0
    8.2681  -15.3058   20.1930 C   0  0  0  0  0  0  0  0  0  0  0  0
    8.8261  -16.3613   21.1522 C   0  0  2  0  0  0  0  0  0  0  0  0
    8.0245  -16.3090   22.3419 N   0  0  0  0  0  0  0  0  0  0  0  0
   10.2597  -16.2386   21.3920 C   0  0  0  0  0  0  0  0  0  0  0  0
   10.7660  -15.1156   21.7130 O   0  0  0  0  0  0  0  0  0  0  0  0
    8.7006  -13.7343   14.6627 C   0  0  0  0  0  0  0  0  0  0  0  0
   12.6891  -18.5350   23.6673 C   0  0  2  0  0  0  0  0  0  0  0  0
   13.0370  -18.4676   22.2114 O   0  0  0  0  0  0  0  0  0  0  0  0
   12.5246  -19.5439   21.5154 C   0  0  2  0  0  0  0  0  0  0  0  0
   12.5932  -17.1937   21.5365 N   0  0  0  0  0  0  0  0  0  0  0  0
   11.1702  -17.3247   21.2899 C   0  0  0  0  0  0  0  0  0  0  0  0
   13.3421  -16.9444   20.2773 O   0  0  0  0  0  0  0  0  0  0  0  0
   14.6794  -16.6311   20.2216 O   0  0  0  0  0  0  0  0  0  0  0  0
  2  1  1  1
  3  2  1  0
  4  5  2  0
  4  3  1  0
  6  5  1  0
  7 12  2  0
  7  6  1  0
  8  7  1  0
  9 10  1  0
  9  8  2  0
 10 11  2  0
 11 12  1  0
 12  4  1  0
 13  2  1  0
 14 13  2  0
 16 18  1  0
 16 15  1  0
 17 16  2  0
 19 20  1  0
 19 18  1  0
 20 21  1  0
 22 21  1  6
 22 24  1  0
 22 23  1  0
 23 13  1  0
 24 25  2  0
 27 26  1  1
 27 29  1  0
 27 28  1  0
 29 31  1  0
 30 24  1  0
 29 30  1  6
 31 32  1  0
 33 31  2  0
M  END
$$$$
