WRT.pdb
     RDKit          3D

 33 34  0  0  1  0  0  0  0  0999 V2000
    6.9419  -18.3825   26.2645 N   0  0  0  0  0  0  0  0  0  0  0  0
    7.3088  -17.2311   25.5700 C   0  0  1  0  0  0  0  0  0  0  0  0
    8.1736  -16.3407   26.4245 C   0  0  0  0  0  0  0  0  0  0  0  0
    7.3202  -15.1920   26.8745 C   0  0  0  0  0  0  0  0  0  0  0  0
    6.3769  -15.1575   27.8656 C   0  0  0  0  0  0  0  0  0  0  0  0
    5.8755  -13.9095   27.8968 N   0  0  0  0  0  0  0  0  0  0  0  0
    6.4485  -13.1393   26.9759 C   0  0  0  0  0  0  0  0  0  0  0  0
    6.2923  -11.8049   26.6045 C   0  0  0  0  0  0  0  0  0  0  0  0
    7.0587  -11.3000   25.5840 C   0  0  0  0  0  0  0  0  0  0  0  0
    7.9759  -12.1070   24.9319 C   0  0  0  0  0  0  0  0  0  0  0  0
    8.1320  -13.4256   25.2971 C   0  0  0  0  0  0  0  0  0  0  0  0
    7.3628  -13.9325   26.3214 C   0  0  0  0  0  0  0  0  0  0  0  0
    8.0200  -17.4439   24.2939 C   0  0  0  0  0  0  0  0  0  0  0  0
    8.8510  -18.3773   24.2164 O   0  0  0  0  0  0  0  0  0  0  0  0
   10.0817  -13.4936   18.5147 N   0  0  0  0  0  0  0  0  0  0  0  0
    8.7269  -13.0077   18.5334 C   0  0  0  0  0  0  0  0  0  0  0  0
    8.5633  -11.7431   18.5145 N   0  0  0  0  0  0  0  0  0  0  0  0
    7.6233  -13.8807   18.5755 N   0  0  0  0  0  0  0  0  0  0  0  0
    7.7719  -15.2935   18.4517 C   0  0  0  0  0  0  0  0  0  0  0  0
    8.4843  -15.9863   19.5623 C   0  0  0  0  0  0  0  0  0  0  0  0
    7.8527  -15.8464   20.9153 C   0  0  0  0  0  0  0  0  0  0  0  0
    8.5823  -16.6998   21.9569 C   0  0  2  0  0  0  0  0  0  0  0  0
    7.8038  -16.6433   23.1617 N   0  0  0  0  0  0  0  0  0  0  0  0
    9.9846  -16.3395   22.1343 C   0  0  0  0  0  0  0  0  0  0  0  0
   10.3120  -15.1421   22.4163 O   0  0  0  0  0  0  0  0  0  0  0  0
    7.6060  -11.3463   18.4979 C   0  0  0  0  0  0  0  0  0  0  0  0
   12.9228  -17.6894   24.4208 C   0  0  2  0  0  0  0  0  0  0  0  0
   13.1426  -17.8970   22.9532 O   0  0  0  0  0  0  0  0  0  0  0  0
   12.7553  -19.1604   22.5543 C   0  0  2  0  0  0  0  0  0  0  0  0
   12.4518  -16.8770   22.0828 N   0  0  0  0  0  0  0  0  0  0  0  0
   11.0562  -17.2645   22.0112 C   0  0  0  0  0  0  0  0  0  0  0  0
   13.0636  -16.7977   20.7307 O   0  0  0  0  0  0  0  0  0  0  0  0
   14.3390  -16.3484   20.4839 O   0  0  0  0  0  0  0  0  0  0  0  0
  2  1  1  1
  3  2  1  0
  4  5  2  0
  4  3  1  0
  6  5  1  0
  7 12  2  0
  7  6  1  0
  8  7  1  0
  9 10  1  0
  9  8  2  0
 10 11  2  0
 11 12  1  0
 12  4  1  0
 13  2  1  0
 14 13  2  0
 16 18  1  0
 16 15  1  0
 17 16  2  0
 19 20  1  0
 19 18  1  0
 20 21  1  0
 22 21  1  6
 22 24  1  0
 22 23  1  0
 23 13  1  0
 24 25  2  0
 27 26  1  1
 27 29  1  0
 27 28  1  0
 29 31  1  0
 30 24  1  0
 29 30  1  6
 31 32  1  0
 33 31  2  0
M  END
$$$$
