NDN.pdb
     RDKit          3D

 25 24  0  0  1  0  0  0  0  0999 V2000
   10.5170  -13.9001  -12.4821 N   0  0  0  0  0  0  0  0  0  0  0  0
   10.8620  -13.2229  -11.2641 C   0  0  0  0  0  0  0  0  0  0  0  0
   10.0143  -13.0036  -10.3886 O   0  0  0  0  0  0  0  0  0  0  0  0
   12.2553  -12.7944  -11.0746 C   0  0  0  0  0  0  0  0  0  0  0  0
   13.1243  -13.1939  -12.2628 C   0  0  2  0  0  0  0  0  0  0  0  0
   13.4137  -14.5948  -12.2598 N   0  0  0  0  0  0  0  0  0  0  0  0
   14.3633  -12.3698  -12.2053 C   0  0  0  0  0  0  0  0  0  0  0  0
   15.2216  -12.5466  -11.3027 O   0  0  0  0  0  0  0  0  0  0  0  0
   14.6071  -11.3478  -13.1832 N   0  0  0  0  0  0  0  0  0  0  0  0
   15.8127  -10.5502  -13.1185 C   0  0  1  0  0  0  0  0  0  0  0  0
   16.4802  -10.4107  -14.4659 C   0  0  0  0  0  0  0  0  0  0  0  0
   17.7035   -9.6220  -14.4354 C   0  0  0  0  0  0  0  0  0  0  0  0
   18.4157   -9.5602  -13.4071 O   0  0  0  0  0  0  0  0  0  0  0  0
   15.5391   -9.2131  -12.5090 C   0  0  0  0  0  0  0  0  0  0  0  0
   14.6578   -8.4437  -12.9875 O   0  0  0  0  0  0  0  0  0  0  0  0
   18.1090   -8.9197  -15.5515 O   0  0  0  0  0  0  0  0  0  0  0  0
   15.8841   -5.0540   -9.1802 N   0  0  0  0  0  0  0  0  0  0  0  0
   16.4312   -6.2295   -8.6495 C   0  0  0  0  0  0  0  0  0  0  0  0
   16.8650   -6.1611   -7.4400 O   0  0  0  0  0  0  0  0  0  0  0  0
   16.5326   -7.4957   -9.3712 C   0  0  0  0  0  0  0  0  0  0  0  0
   16.0122   -7.4116  -10.7731 C   0  0  2  0  0  0  0  0  0  0  0  0
   16.2366   -8.7400  -11.3805 N   0  0  0  0  0  0  0  0  0  0  0  0
   16.6596   -6.3874  -11.6068 C   0  0  0  0  0  0  0  0  0  0  0  0
   17.5400   -6.8275  -12.6197 O   0  0  0  0  0  0  0  0  0  0  0  0
   16.4891   -5.1585  -11.4885 O   0  0  0  0  0  0  0  0  0  0  0  0
  2  1  1  0
  2  3  2  0
  4  2  1  0
  5  4  1  0
  5  6  1  1
  7  5  1  0
  8  7  2  0
  9  7  1  0
 10  9  1  0
 10 11  1  6
 12 11  1  0
 12 13  2  0
 14 10  1  0
 14 22  1  0
 15 14  2  0
 16 12  1  0
 18 17  1  0
 18 19  2  0
 21 20  1  1
 20 18  1  0
 21 22  1  0
 21 23  1  0
 23 25  2  0
 23 24  1  0
M  END
$$$$
