NDN.pdb
     RDKit          3D

 25 24  0  0  1  0  0  0  0  0999 V2000
   21.6454  -19.8002  -13.8554 N   0  0  0  0  0  0  0  0  0  0  0  0
   20.4865  -19.9892  -14.6815 C   0  0  0  0  0  0  0  0  0  0  0  0
   19.9461  -21.0984  -14.7861 O   0  0  0  0  0  0  0  0  0  0  0  0
   19.9479  -18.8280  -15.4041 C   0  0  0  0  0  0  0  0  0  0  0  0
   20.7469  -17.5654  -15.0976 C   0  0  2  0  0  0  0  0  0  0  0  0
   20.8648  -17.3421  -13.6896 N   0  0  0  0  0  0  0  0  0  0  0  0
   20.0695  -16.4318  -15.7858 C   0  0  0  0  0  0  0  0  0  0  0  0
   20.0443  -16.3535  -17.0411 O   0  0  0  0  0  0  0  0  0  0  0  0
   19.4275  -15.3955  -15.0279 N   0  0  0  0  0  0  0  0  0  0  0  0
   18.8368  -14.2593  -15.7018 C   0  0  1  0  0  0  0  0  0  0  0  0
   17.6892  -13.6638  -14.9217 C   0  0  0  0  0  0  0  0  0  0  0  0
   17.0504  -12.5371  -15.5864 C   0  0  0  0  0  0  0  0  0  0  0  0
   17.2027  -11.3639  -15.1754 O   0  0  0  0  0  0  0  0  0  0  0  0
   19.8701  -13.2266  -16.0178 C   0  0  0  0  0  0  0  0  0  0  0  0
   20.6647  -12.8029  -15.1309 O   0  0  0  0  0  0  0  0  0  0  0  0
   16.2565  -12.7402  -16.6963 O   0  0  0  0  0  0  0  0  0  0  0  0
   23.4209  -11.2296  -20.3836 N   0  0  0  0  0  0  0  0  0  0  0  0
   22.3140  -10.8719  -19.6026 C   0  0  0  0  0  0  0  0  0  0  0  0
   22.1985   -9.6229  -19.3155 O   0  0  0  0  0  0  0  0  0  0  0  0
   21.3089  -11.8110  -19.1107 C   0  0  0  0  0  0  0  0  0  0  0  0
   21.0248  -11.6492  -17.6490 C   0  0  2  0  0  0  0  0  0  0  0  0
   20.0174  -12.6741  -17.3050 N   0  0  0  0  0  0  0  0  0  0  0  0
   20.5113  -10.3249  -17.2674 C   0  0  0  0  0  0  0  0  0  0  0  0
   21.3469   -9.4990  -16.4836 O   0  0  0  0  0  0  0  0  0  0  0  0
   19.3935   -9.8743  -17.5849 O   0  0  0  0  0  0  0  0  0  0  0  0
  2  1  1  0
  2  3  2  0
  4  2  1  0
  5  4  1  0
  5  6  1  1
  7  5  1  0
  8  7  2  0
  9  7  1  0
 10  9  1  0
 10 11  1  1
 12 11  1  0
 12 13  2  0
 14 10  1  0
 14 22  1  0
 15 14  2  0
 16 12  1  0
 18 17  1  0
 18 19  2  0
 21 20  1  6
 20 18  1  0
 21 22  1  0
 21 23  1  0
 23 25  2  0
 23 24  1  0
M  END
$$$$
