NDN.pdb
     RDKit          3D

 25 24  0  0  1  0  0  0  0  0999 V2000
   12.7611   -6.6280   -8.1875 N   0  0  0  0  0  0  0  0  0  0  0  0
   14.0265   -5.9738   -8.0082 C   0  0  0  0  0  0  0  0  0  0  0  0
   14.1487   -5.0108   -7.2395 O   0  0  0  0  0  0  0  0  0  0  0  0
   15.1849   -6.4773   -8.7601 C   0  0  0  0  0  0  0  0  0  0  0  0
   14.8331   -7.7405   -9.5394 C   0  0  2  0  0  0  0  0  0  0  0  0
   14.6918   -8.8727   -8.6767 N   0  0  0  0  0  0  0  0  0  0  0  0
   15.8998   -7.9468  -10.5578 C   0  0  0  0  0  0  0  0  0  0  0  0
   17.0700   -8.2623  -10.2205 O   0  0  0  0  0  0  0  0  0  0  0  0
   15.6158   -7.7878  -11.9558 N   0  0  0  0  0  0  0  0  0  0  0  0
   16.5942   -8.1800  -12.9473 C   0  0  1  0  0  0  0  0  0  0  0  0
   15.9542   -8.5957  -14.2504 C   0  0  0  0  0  0  0  0  0  0  0  0
   15.4429   -9.9587  -14.2439 C   0  0  0  0  0  0  0  0  0  0  0  0
   15.5848  -10.7053  -13.2484 O   0  0  0  0  0  0  0  0  0  0  0  0
   17.6041   -7.0991  -13.1609 C   0  0  0  0  0  0  0  0  0  0  0  0
   17.2579   -5.8860  -13.2390 O   0  0  0  0  0  0  0  0  0  0  0  0
   14.7825  -10.4616  -15.3459 O   0  0  0  0  0  0  0  0  0  0  0  0
   22.3140   -4.6839  -13.7828 N   0  0  0  0  0  0  0  0  0  0  0  0
   22.2876   -5.7306  -12.8518 C   0  0  0  0  0  0  0  0  0  0  0  0
   23.3559   -5.9010  -12.1551 O   0  0  0  0  0  0  0  0  0  0  0  0
   21.1456   -6.6147  -12.6312 C   0  0  0  0  0  0  0  0  0  0  0  0
   19.9989   -6.3273  -13.5508 C   0  0  2  0  0  0  0  0  0  0  0  0
   18.9817   -7.3656  -13.2844 N   0  0  0  0  0  0  0  0  0  0  0  0
   20.3407   -6.3465  -14.9812 C   0  0  0  0  0  0  0  0  0  0  0  0
   20.6076   -5.1093  -15.6079 O   0  0  0  0  0  0  0  0  0  0  0  0
   20.4145   -7.3735  -15.6835 O   0  0  0  0  0  0  0  0  0  0  0  0
  2  1  1  0
  2  3  2  0
  4  2  1  0
  5  4  1  0
  5  6  1  1
  7  5  1  0
  8  7  2  0
  9  7  1  0
 10  9  1  0
 10 11  1  6
 12 11  1  0
 12 13  2  0
 14 10  1  0
 14 22  1  0
 15 14  2  0
 16 12  1  0
 18 17  1  0
 18 19  2  0
 21 20  1  1
 20 18  1  0
 21 22  1  0
 21 23  1  0
 23 25  2  0
 23 24  1  0
M  END
$$$$
