NDN.pdb
     RDKit          3D

 25 24  0  0  1  0  0  0  0  0999 V2000
   15.5594  -13.0452  -15.9668 N   0  0  0  0  0  0  0  0  0  0  0  0
   15.7650  -11.9125  -15.1091 C   0  0  0  0  0  0  0  0  0  0  0  0
   14.9055  -11.5630  -14.2891 O   0  0  0  0  0  0  0  0  0  0  0  0
   17.0295  -11.1715  -15.2229 C   0  0  0  0  0  0  0  0  0  0  0  0
   17.8707  -11.6866  -16.3864 C   0  0  2  0  0  0  0  0  0  0  0  0
   18.3150  -13.0282  -16.1653 N   0  0  0  0  0  0  0  0  0  0  0  0
   19.0108  -10.7450  -16.5627 C   0  0  0  0  0  0  0  0  0  0  0  0
   20.0754  -10.8814  -15.9065 O   0  0  0  0  0  0  0  0  0  0  0  0
   18.9198   -9.6528  -17.4896 N   0  0  0  0  0  0  0  0  0  0  0  0
   20.0705   -8.8121  -17.7403 C   0  0  1  0  0  0  0  0  0  0  0  0
   20.1726   -8.3978  -19.1888 C   0  0  0  0  0  0  0  0  0  0  0  0
   21.3289   -7.5626  -19.4798 C   0  0  0  0  0  0  0  0  0  0  0  0
   22.4503   -7.8002  -18.9752 O   0  0  0  0  0  0  0  0  0  0  0  0
   20.0727   -7.6222  -16.8356 C   0  0  0  0  0  0  0  0  0  0  0  0
   19.0101   -6.9821  -16.5937 O   0  0  0  0  0  0  0  0  0  0  0  0
   21.2127   -6.4809  -20.3282 O   0  0  0  0  0  0  0  0  0  0  0  0
   22.4937   -8.7872  -13.4357 N   0  0  0  0  0  0  0  0  0  0  0  0
   21.9158   -7.5124  -13.3731 C   0  0  0  0  0  0  0  0  0  0  0  0
   20.9834   -7.3513  -12.5010 O   0  0  0  0  0  0  0  0  0  0  0  0
   22.3028   -6.3849  -14.2175 C   0  0  0  0  0  0  0  0  0  0  0  0
   21.2639   -6.0369  -15.2387 C   0  0  2  0  0  0  0  0  0  0  0  0
   21.2426   -7.1526  -16.2075 N   0  0  0  0  0  0  0  0  0  0  0  0
   21.5111   -4.7796  -15.9606 C   0  0  0  0  0  0  0  0  0  0  0  0
   21.5376   -3.5855  -15.2069 O   0  0  0  0  0  0  0  0  0  0  0  0
   21.7010   -4.6874  -17.1890 O   0  0  0  0  0  0  0  0  0  0  0  0
  2  1  1  0
  2  3  2  0
  4  2  1  0
  5  4  1  0
  5  6  1  1
  7  5  1  0
  8  7  2  0
  9  7  1  0
 10  9  1  0
 10 11  1  6
 12 11  1  0
 12 13  2  0
 14 10  1  0
 14 22  1  0
 15 14  2  0
 16 12  1  0
 18 17  1  0
 18 19  2  0
 21 20  1  1
 20 18  1  0
 21 22  1  0
 21 23  1  0
 23 25  2  0
 23 24  1  0
M  END
$$$$
