NDN.pdb
     RDKit          3D

 25 24  0  0  1  0  0  0  0  0999 V2000
   12.7808  -12.1381   -9.0567 N   0  0  0  0  0  0  0  0  0  0  0  0
   14.0222  -12.2614   -9.7672 C   0  0  0  0  0  0  0  0  0  0  0  0
   14.5230  -13.3700   -9.9981 O   0  0  0  0  0  0  0  0  0  0  0  0
   14.6906  -11.0338  -10.2221 C   0  0  0  0  0  0  0  0  0  0  0  0
   13.9721   -9.7894   -9.7103 C   0  0  2  0  0  0  0  0  0  0  0  0
   12.5964   -9.7736  -10.1022 N   0  0  0  0  0  0  0  0  0  0  0  0
   14.7112   -8.6043  -10.2268 C   0  0  0  0  0  0  0  0  0  0  0  0
   14.4996   -8.1584  -11.3840 O   0  0  0  0  0  0  0  0  0  0  0  0
   15.6891   -7.9410   -9.4119 N   0  0  0  0  0  0  0  0  0  0  0  0
   16.4299   -6.8134   -9.9353 C   0  0  1  0  0  0  0  0  0  0  0  0
   16.6826   -5.7573   -8.8860 C   0  0  0  0  0  0  0  0  0  0  0  0
   17.3636   -4.5757   -9.3954 C   0  0  0  0  0  0  0  0  0  0  0  0
   18.6024   -4.4338   -9.2779 O   0  0  0  0  0  0  0  0  0  0  0  0
   17.7062   -7.2596  -10.5726 C   0  0  0  0  0  0  0  0  0  0  0  0
   18.4922   -8.0517   -9.9790 O   0  0  0  0  0  0  0  0  0  0  0  0
   16.6508   -3.5773  -10.0266 O   0  0  0  0  0  0  0  0  0  0  0  0
   21.5487   -8.1349  -14.0791 N   0  0  0  0  0  0  0  0  0  0  0  0
   20.2844   -8.7302  -14.1807 C   0  0  0  0  0  0  0  0  0  0  0  0
   20.1729   -9.6900  -15.0305 O   0  0  0  0  0  0  0  0  0  0  0  0
   19.1172   -8.3354  -13.3960 C   0  0  0  0  0  0  0  0  0  0  0  0
   19.3932   -7.1846  -12.4780 C   0  0  2  0  0  0  0  0  0  0  0  0
   18.1010   -6.8304  -11.8546 N   0  0  0  0  0  0  0  0  0  0  0  0
   19.9496   -5.9938  -13.1382 C   0  0  0  0  0  0  0  0  0  0  0  0
   21.3281   -5.7357  -12.9708 O   0  0  0  0  0  0  0  0  0  0  0  0
   19.2966   -5.1945  -13.8367 O   0  0  0  0  0  0  0  0  0  0  0  0
  2  1  1  0
  2  3  2  0
  4  2  1  0
  5  4  1  0
  5  6  1  6
  7  5  1  0
  8  7  2  0
  9  7  1  0
 10  9  1  0
 10 11  1  1
 12 11  1  0
 12 13  2  0
 14 10  1  0
 14 22  1  0
 15 14  2  0
 16 12  1  0
 18 17  1  0
 18 19  2  0
 21 20  1  6
 20 18  1  0
 21 22  1  0
 21 23  1  0
 23 25  2  0
 23 24  1  0
M  END
$$$$
