NDN.pdb
     RDKit          3D

 25 24  0  0  1  0  0  0  0  0999 V2000
   27.9036  -20.1128   -9.3453 N   0  0  0  0  0  0  0  0  0  0  0  0
   28.2695  -20.8563  -10.5176 C   0  0  0  0  0  0  0  0  0  0  0  0
   29.4067  -21.3280  -10.6503 O   0  0  0  0  0  0  0  0  0  0  0  0
   27.2565  -21.0507  -11.5649 C   0  0  0  0  0  0  0  0  0  0  0  0
   25.9898  -20.2557  -11.2649 C   0  0  2  0  0  0  0  0  0  0  0  0
   25.3647  -20.6924  -10.0547 N   0  0  0  0  0  0  0  0  0  0  0  0
   25.0863  -20.3974  -12.4401 C   0  0  0  0  0  0  0  0  0  0  0  0
   25.5466  -20.5679  -13.5985 O   0  0  0  0  0  0  0  0  0  0  0  0
   23.6613  -20.3408  -12.2774 N   0  0  0  0  0  0  0  0  0  0  0  0
   22.7926  -20.4114  -13.4325 C   0  0  1  0  0  0  0  0  0  0  0  0
   21.3328  -20.4596  -13.0492 C   0  0  0  0  0  0  0  0  0  0  0  0
   20.8910  -21.7671  -12.5859 C   0  0  0  0  0  0  0  0  0  0  0  0
   19.8852  -21.8944  -11.8505 O   0  0  0  0  0  0  0  0  0  0  0  0
   23.0668  -19.2876  -14.3791 C   0  0  0  0  0  0  0  0  0  0  0  0
   23.1736  -18.0971  -13.9684 O   0  0  0  0  0  0  0  0  0  0  0  0
   21.5778  -22.9061  -12.9526 O   0  0  0  0  0  0  0  0  0  0  0  0
   24.6191  -16.7349  -18.7664 N   0  0  0  0  0  0  0  0  0  0  0  0
   25.3225  -17.8808  -18.3724 C   0  0  0  0  0  0  0  0  0  0  0  0
   26.4375  -18.1010  -18.9759 O   0  0  0  0  0  0  0  0  0  0  0  0
   24.8752  -18.8139  -17.3412 C   0  0  0  0  0  0  0  0  0  0  0  0
   23.5748  -18.4129  -16.7156 C   0  0  2  0  0  0  0  0  0  0  0  0
   23.2216  -19.4875  -15.7647 N   0  0  0  0  0  0  0  0  0  0  0  0
   22.4676  -18.2310  -17.6666 C   0  0  0  0  0  0  0  0  0  0  0  0
   22.1936  -16.9183  -18.1100 O   0  0  0  0  0  0  0  0  0  0  0  0
   21.7524  -19.1488  -18.1132 O   0  0  0  0  0  0  0  0  0  0  0  0
  2  1  1  0
  2  3  2  0
  4  2  1  0
  5  4  1  0
  5  6  1  1
  7  5  1  0
  8  7  2  0
  9  7  1  0
 10  9  1  0
 10 11  1  1
 12 11  1  0
 12 13  2  0
 14 10  1  0
 14 22  1  0
 15 14  2  0
 16 12  1  0
 18 17  1  0
 18 19  2  0
 21 20  1  6
 20 18  1  0
 21 22  1  0
 21 23  1  0
 23 25  2  0
 23 24  1  0
M  END
$$$$
