NDN.pdb
     RDKit          3D

 25 24  0  0  1  0  0  0  0  0999 V2000
   15.5356  -13.3425  -14.6442 N   0  0  0  0  0  0  0  0  0  0  0  0
   16.8791  -13.7822  -14.8947 C   0  0  0  0  0  0  0  0  0  0  0  0
   17.1637  -14.9866  -14.9364 O   0  0  0  0  0  0  0  0  0  0  0  0
   17.9184  -12.7644  -15.1058 C   0  0  0  0  0  0  0  0  0  0  0  0
   17.3483  -11.3554  -14.9770 C   0  0  2  0  0  0  0  0  0  0  0  0
   16.4051  -11.0692  -16.0136 N   0  0  0  0  0  0  0  0  0  0  0  0
   18.4966  -10.4074  -14.9925 C   0  0  0  0  0  0  0  0  0  0  0  0
   19.5033  -10.5919  -14.2610 O   0  0  0  0  0  0  0  0  0  0  0  0
   18.4801   -9.2537  -15.8463 N   0  0  0  0  0  0  0  0  0  0  0  0
   19.5570   -8.2889  -15.7883 C   0  0  1  0  0  0  0  0  0  0  0  0
   19.7663   -7.5841  -17.1073 C   0  0  0  0  0  0  0  0  0  0  0  0
   20.8179   -6.5779  -17.0742 C   0  0  0  0  0  0  0  0  0  0  0  0
   20.6852   -5.4746  -17.6519 O   0  0  0  0  0  0  0  0  0  0  0  0
   19.3407   -7.3097  -14.6798 C   0  0  0  0  0  0  0  0  0  0  0  0
   18.2685   -6.6461  -14.5927 O   0  0  0  0  0  0  0  0  0  0  0  0
   21.9950   -6.8208  -16.3969 O   0  0  0  0  0  0  0  0  0  0  0  0
   19.7814   -4.3915  -10.3500 N   0  0  0  0  0  0  0  0  0  0  0  0
   19.6938   -5.7863  -10.2500 C   0  0  0  0  0  0  0  0  0  0  0  0
   19.4722   -6.2608   -9.0747 O   0  0  0  0  0  0  0  0  0  0  0  0
   19.8337   -6.7079  -11.3748 C   0  0  0  0  0  0  0  0  0  0  0  0
   20.1851   -6.0162  -12.6559 C   0  0  2  0  0  0  0  0  0  0  0  0
   20.3050   -7.0742  -13.6807 N   0  0  0  0  0  0  0  0  0  0  0  0
   21.4373   -5.2459  -12.6130 C   0  0  0  0  0  0  0  0  0  0  0  0
   22.4200   -5.5380  -13.5845 O   0  0  0  0  0  0  0  0  0  0  0  0
   21.6973   -4.3521  -11.7842 O   0  0  0  0  0  0  0  0  0  0  0  0
  2  1  1  0
  2  3  2  0
  4  2  1  0
  5  4  1  0
  5  6  1  6
  7  5  1  0
  8  7  2  0
  9  7  1  0
 10  9  1  0
 10 11  1  6
 12 11  1  0
 12 13  2  0
 14 10  1  0
 14 22  1  0
 15 14  2  0
 16 12  1  0
 18 17  1  0
 18 19  2  0
 21 20  1  1
 20 18  1  0
 21 22  1  0
 21 23  1  0
 23 25  2  0
 23 24  1  0
M  END
$$$$
