NDN.pdb
     RDKit          3D

 25 24  0  0  1  0  0  0  0  0999 V2000
   12.3454   -9.7709   -8.6967 N   0  0  0  0  0  0  0  0  0  0  0  0
   12.6902   -8.9063   -9.7897 C   0  0  0  0  0  0  0  0  0  0  0  0
   12.0250   -7.8927  -10.0417 O   0  0  0  0  0  0  0  0  0  0  0  0
   13.8615   -9.2502  -10.6087 C   0  0  0  0  0  0  0  0  0  0  0  0
   13.4886   -9.3801  -12.0820 C   0  0  2  0  0  0  0  0  0  0  0  0
   12.7365  -10.5704  -12.3348 N   0  0  0  0  0  0  0  0  0  0  0  0
   14.7538   -9.3445  -12.8664 C   0  0  0  0  0  0  0  0  0  0  0  0
   15.5543  -10.3150  -12.8554 O   0  0  0  0  0  0  0  0  0  0  0  0
   15.0919   -8.1945  -13.6561 N   0  0  0  0  0  0  0  0  0  0  0  0
   16.3034   -8.1845  -14.4472 C   0  0  1  0  0  0  0  0  0  0  0  0
   16.0201   -8.0932  -15.9277 C   0  0  0  0  0  0  0  0  0  0  0  0
   17.2153   -8.1402  -16.7575 C   0  0  0  0  0  0  0  0  0  0  0  0
   17.7295   -7.0970  -17.2223 O   0  0  0  0  0  0  0  0  0  0  0  0
   17.2242   -7.0936  -14.0041 C   0  0  0  0  0  0  0  0  0  0  0  0
   16.7756   -6.0008  -13.5544 O   0  0  0  0  0  0  0  0  0  0  0  0
   17.8141   -9.3479  -17.0510 O   0  0  0  0  0  0  0  0  0  0  0  0
   23.0915   -5.5526  -13.9211 N   0  0  0  0  0  0  0  0  0  0  0  0
   21.9370   -5.7918  -13.1641 C   0  0  0  0  0  0  0  0  0  0  0  0
   21.8067   -5.0979  -12.0883 O   0  0  0  0  0  0  0  0  0  0  0  0
   20.8991   -6.7569  -13.5184 C   0  0  0  0  0  0  0  0  0  0  0  0
   19.5622   -6.1201  -13.7432 C   0  0  2  0  0  0  0  0  0  0  0  0
   18.6260   -7.2187  -14.0597 N   0  0  0  0  0  0  0  0  0  0  0  0
   19.5292   -5.1329  -14.8330 C   0  0  0  0  0  0  0  0  0  0  0  0
   19.6844   -3.7718  -14.4892 O   0  0  0  0  0  0  0  0  0  0  0  0
   19.3760   -5.4064  -16.0393 O   0  0  0  0  0  0  0  0  0  0  0  0
  2  1  1  0
  2  3  2  0
  4  2  1  0
  5  4  1  0
  5  6  1  1
  7  5  1  0
  8  7  2  0
  9  7  1  0
 10  9  1  0
 10 11  1  6
 12 11  1  0
 12 13  2  0
 14 10  1  0
 14 22  1  0
 15 14  2  0
 16 12  1  0
 18 17  1  0
 18 19  2  0
 21 20  1  6
 20 18  1  0
 21 22  1  0
 21 23  1  0
 23 25  2  0
 23 24  1  0
M  END
$$$$
