NDN.pdb
     RDKit          3D

 25 24  0  0  1  0  0  0  0  0999 V2000
   47.0075  -11.8149  -12.2413 N   0  0  0  0  0  0  0  0  0  0  0  0
   46.5064  -11.8450  -10.8963 C   0  0  0  0  0  0  0  0  0  0  0  0
   47.2204  -12.2097   -9.9527 O   0  0  0  0  0  0  0  0  0  0  0  0
   45.1171  -11.4271  -10.6598 C   0  0  0  0  0  0  0  0  0  0  0  0
   44.3965  -12.3992   -9.7311 C   0  0  2  0  0  0  0  0  0  0  0  0
   44.2978  -13.7055  -10.3056 N   0  0  0  0  0  0  0  0  0  0  0  0
   43.0574  -11.8202   -9.4327 C   0  0  0  0  0  0  0  0  0  0  0  0
   42.0937  -11.9640  -10.2285 O   0  0  0  0  0  0  0  0  0  0  0  0
   42.8348  -11.0789   -8.2239 N   0  0  0  0  0  0  0  0  0  0  0  0
   41.5359  -10.5024   -7.9514 C   0  0  1  0  0  0  0  0  0  0  0  0
   41.1456  -10.6308   -6.4983 C   0  0  0  0  0  0  0  0  0  0  0  0
   39.8202  -10.1084   -6.1987 C   0  0  0  0  0  0  0  0  0  0  0  0
   39.4591   -8.9764   -6.5946 O   0  0  0  0  0  0  0  0  0  0  0  0
   41.4751   -9.0792   -8.4043 C   0  0  0  0  0  0  0  0  0  0  0  0
   42.4453   -8.2910   -8.2177 O   0  0  0  0  0  0  0  0  0  0  0  0
   38.9237  -10.8584   -5.4657 O   0  0  0  0  0  0  0  0  0  0  0  0
   37.6947   -8.2599   -9.2522 N   0  0  0  0  0  0  0  0  0  0  0  0
   38.0916   -7.8112  -10.5188 C   0  0  0  0  0  0  0  0  0  0  0  0
   37.2168   -7.9072  -11.4576 O   0  0  0  0  0  0  0  0  0  0  0  0
   39.4064   -7.2533  -10.8256 C   0  0  0  0  0  0  0  0  0  0  0  0
   40.3028   -7.1790   -9.6281 C   0  0  2  0  0  0  0  0  0  0  0  0
   40.3493   -8.5417   -9.0580 N   0  0  0  0  0  0  0  0  0  0  0  0
   39.8591   -6.2388   -8.5877 C   0  0  0  0  0  0  0  0  0  0  0  0
   39.5232   -6.7712   -7.3234 O   0  0  0  0  0  0  0  0  0  0  0  0
   39.7583   -5.0055   -8.7365 O   0  0  0  0  0  0  0  0  0  0  0  0
  2  1  1  0
  2  3  2  0
  4  2  1  0
  5  4  1  0
  5  6  1  6
  7  5  1  0
  8  7  2  0
  9  7  1  0
 10  9  1  0
 10 11  1  1
 12 11  1  0
 12 13  2  0
 14 10  1  0
 14 22  1  0
 15 14  2  0
 16 12  1  0
 18 17  1  0
 18 19  2  0
 21 20  1  6
 20 18  1  0
 21 22  1  0
 21 23  1  0
 23 25  2  0
 23 24  1  0
M  END
$$$$
