NDN.pdb
     RDKit          3D

 25 24  0  0  1  0  0  0  0  0999 V2000
   11.3370  -12.1150   -9.4308 N   0  0  0  0  0  0  0  0  0  0  0  0
   10.7642  -10.8197   -9.1953 C   0  0  0  0  0  0  0  0  0  0  0  0
    9.5703  -10.6904   -8.8935 O   0  0  0  0  0  0  0  0  0  0  0  0
   11.6328   -9.6401   -9.3175 C   0  0  0  0  0  0  0  0  0  0  0  0
   13.0835  -10.0432   -9.5619 C   0  0  2  0  0  0  0  0  0  0  0  0
   13.6998  -10.5486   -8.3741 N   0  0  0  0  0  0  0  0  0  0  0  0
   13.7947   -8.8470  -10.0918 C   0  0  0  0  0  0  0  0  0  0  0  0
   13.4860   -8.3452  -11.2033 O   0  0  0  0  0  0  0  0  0  0  0  0
   14.8562   -8.2367   -9.3427 N   0  0  0  0  0  0  0  0  0  0  0  0
   15.5637   -7.0943   -9.8798 C   0  0  1  0  0  0  0  0  0  0  0  0
   16.0199   -6.1433   -8.7992 C   0  0  0  0  0  0  0  0  0  0  0  0
   15.0006   -5.1877   -8.3903 C   0  0  0  0  0  0  0  0  0  0  0  0
   14.0791   -4.8434   -9.1655 O   0  0  0  0  0  0  0  0  0  0  0  0
   16.7081   -7.5274  -10.7382 C   0  0  0  0  0  0  0  0  0  0  0  0
   17.4126   -8.5312  -10.4322 O   0  0  0  0  0  0  0  0  0  0  0  0
   15.0277   -4.6367   -7.1258 O   0  0  0  0  0  0  0  0  0  0  0  0
   19.3031   -8.7808  -15.0502 N   0  0  0  0  0  0  0  0  0  0  0  0
   18.1936   -9.3576  -14.4182 C   0  0  0  0  0  0  0  0  0  0  0  0
   17.8275  -10.5127  -14.8511 O   0  0  0  0  0  0  0  0  0  0  0  0
   17.4498   -8.7396  -13.3231 C   0  0  0  0  0  0  0  0  0  0  0  0
   17.9915   -7.3987  -12.9334 C   0  0  2  0  0  0  0  0  0  0  0  0
   17.0621   -6.8524  -11.9226 N   0  0  0  0  0  0  0  0  0  0  0  0
   18.1113   -6.4402  -14.0424 C   0  0  0  0  0  0  0  0  0  0  0  0
   19.4032   -5.9693  -14.3649 O   0  0  0  0  0  0  0  0  0  0  0  0
   17.1581   -6.0121  -14.7219 O   0  0  0  0  0  0  0  0  0  0  0  0
  2  1  1  0
  2  3  2  0
  4  2  1  0
  5  4  1  0
  5  6  1  1
  7  5  1  0
  8  7  2  0
  9  7  1  0
 10  9  1  0
 10 11  1  1
 12 11  1  0
 12 13  2  0
 14 10  1  0
 14 22  1  0
 15 14  2  0
 16 12  1  0
 18 17  1  0
 18 19  2  0
 21 20  1  6
 20 18  1  0
 21 22  1  0
 21 23  1  0
 23 25  2  0
 23 24  1  0
M  END
$$$$
