NDN.pdb
     RDKit          3D

 25 24  0  0  1  0  0  0  0  0999 V2000
   17.3330  -12.9478  -16.1148 N   0  0  0  0  0  0  0  0  0  0  0  0
   17.1599  -12.2661  -14.8632 C   0  0  0  0  0  0  0  0  0  0  0  0
   16.3717  -12.6870  -14.0059 O   0  0  0  0  0  0  0  0  0  0  0  0
   17.9471  -11.0495  -14.6166 C   0  0  0  0  0  0  0  0  0  0  0  0
   17.6573   -9.9801  -15.6650 C   0  0  2  0  0  0  0  0  0  0  0  0
   18.1048  -10.3773  -16.9642 N   0  0  0  0  0  0  0  0  0  0  0  0
   18.3130   -8.7225  -15.2112 C   0  0  0  0  0  0  0  0  0  0  0  0
   18.0752   -8.2374  -14.0750 O   0  0  0  0  0  0  0  0  0  0  0  0
   19.2354   -8.0299  -16.0655 N   0  0  0  0  0  0  0  0  0  0  0  0
   19.9334   -6.8569  -15.5852 C   0  0  1  0  0  0  0  0  0  0  0  0
   21.4336   -7.0170  -15.6485 C   0  0  0  0  0  0  0  0  0  0  0  0
   21.9600   -7.9886  -14.7007 C   0  0  0  0  0  0  0  0  0  0  0  0
   21.7931   -7.8545  -13.4667 O   0  0  0  0  0  0  0  0  0  0  0  0
   19.4886   -5.6314  -16.3164 C   0  0  0  0  0  0  0  0  0  0  0  0
   19.7251   -5.4827  -17.5491 O   0  0  0  0  0  0  0  0  0  0  0  0
   22.6601   -9.0904  -15.1471 O   0  0  0  0  0  0  0  0  0  0  0  0
   15.1451   -4.0654  -14.5469 N   0  0  0  0  0  0  0  0  0  0  0  0
   15.9887   -3.8054  -15.6349 C   0  0  0  0  0  0  0  0  0  0  0  0
   15.7216   -4.4328  -16.7261 O   0  0  0  0  0  0  0  0  0  0  0  0
   17.1228   -2.8852  -15.6025 C   0  0  0  0  0  0  0  0  0  0  0  0
   18.2994   -3.3812  -16.3855 C   0  0  2  0  0  0  0  0  0  0  0  0
   18.7882   -4.5862  -15.6834 N   0  0  0  0  0  0  0  0  0  0  0  0
   19.4034   -2.4174  -16.5095 C   0  0  0  0  0  0  0  0  0  0  0  0
   19.1310   -1.1876  -17.1484 O   0  0  0  0  0  0  0  0  0  0  0  0
   20.5629   -2.6027  -16.0915 O   0  0  0  0  0  0  0  0  0  0  0  0
  2  1  1  0
  2  3  2  0
  4  2  1  0
  5  4  1  0
  5  6  1  6
  7  5  1  0
  8  7  2  0
  9  7  1  0
 10  9  1  0
 10 11  1  6
 12 11  1  0
 12 13  2  0
 14 10  1  0
 14 22  1  0
 15 14  2  0
 16 12  1  0
 18 17  1  0
 18 19  2  0
 21 20  1  1
 20 18  1  0
 21 22  1  0
 21 23  1  0
 23 25  2  0
 23 24  1  0
M  END
$$$$
