NDN.pdb
     RDKit          3D

 25 24  0  0  1  0  0  0  0  0999 V2000
   29.0261  -21.3932  -17.6363 N   0  0  0  0  0  0  0  0  0  0  0  0
   28.0982  -21.8062  -16.6217 C   0  0  0  0  0  0  0  0  0  0  0  0
   28.4769  -22.4252  -15.6183 O   0  0  0  0  0  0  0  0  0  0  0  0
   26.6774  -21.4733  -16.7983 C   0  0  0  0  0  0  0  0  0  0  0  0
   26.2658  -20.3087  -15.9033 C   0  0  2  0  0  0  0  0  0  0  0  0
   26.5583  -20.5691  -14.5275 N   0  0  0  0  0  0  0  0  0  0  0  0
   24.8137  -20.0667  -16.1271 C   0  0  0  0  0  0  0  0  0  0  0  0
   24.3551  -19.8811  -17.2839 O   0  0  0  0  0  0  0  0  0  0  0  0
   23.8988  -20.0378  -15.0215 N   0  0  0  0  0  0  0  0  0  0  0  0
   22.5023  -19.7270  -15.2391 C   0  0  1  0  0  0  0  0  0  0  0  0
   21.6185  -20.2588  -14.1362 C   0  0  0  0  0  0  0  0  0  0  0  0
   21.4165  -21.6995  -14.1899 C   0  0  0  0  0  0  0  0  0  0  0  0
   21.3489  -22.3097  -15.2815 O   0  0  0  0  0  0  0  0  0  0  0  0
   22.3036  -18.2581  -15.4312 C   0  0  0  0  0  0  0  0  0  0  0  0
   22.2602  -17.4689  -14.4449 O   0  0  0  0  0  0  0  0  0  0  0  0
   21.2955  -22.4310  -13.0265 O   0  0  0  0  0  0  0  0  0  0  0  0
   23.0069  -13.8510  -19.5337 N   0  0  0  0  0  0  0  0  0  0  0  0
   22.8739  -14.3687  -18.2386 C   0  0  0  0  0  0  0  0  0  0  0  0
   22.6405  -13.5149  -17.3045 O   0  0  0  0  0  0  0  0  0  0  0  0
   22.9801  -15.7852  -17.8976 C   0  0  0  0  0  0  0  0  0  0  0  0
   21.9300  -16.2324  -16.9277 C   0  0  2  0  0  0  0  0  0  0  0  0
   22.1567  -17.6756  -16.7052 N   0  0  0  0  0  0  0  0  0  0  0  0
   20.5470  -16.0290  -17.3850 C   0  0  0  0  0  0  0  0  0  0  0  0
   19.9114  -14.8182  -17.0318 O   0  0  0  0  0  0  0  0  0  0  0  0
   19.8923  -16.8446  -18.0630 O   0  0  0  0  0  0  0  0  0  0  0  0
  2  1  1  0
  2  3  2  0
  4  2  1  0
  5  4  1  0
  5  6  1  1
  7  5  1  0
  8  7  2  0
  9  7  1  0
 10  9  1  0
 10 11  1  1
 12 11  1  0
 12 13  2  0
 14 10  1  0
 14 22  1  0
 15 14  2  0
 16 12  1  0
 18 17  1  0
 18 19  2  0
 21 20  1  6
 20 18  1  0
 21 22  1  0
 21 23  1  0
 23 25  2  0
 23 24  1  0
M  END
$$$$
