NDN.pdb
     RDKit          3D

 25 24  0  0  1  0  0  0  0  0999 V2000
   20.6973  -14.1410  -16.8435 N   0  0  0  0  0  0  0  0  0  0  0  0
   20.3927  -13.4246  -18.0498 C   0  0  0  0  0  0  0  0  0  0  0  0
   20.7760  -13.8335  -19.1540 O   0  0  0  0  0  0  0  0  0  0  0  0
   19.6066  -12.1868  -17.9467 C   0  0  0  0  0  0  0  0  0  0  0  0
   19.1966  -11.9095  -16.5039 C   0  0  2  0  0  0  0  0  0  0  0  0
   18.1558  -12.7901  -16.0707 N   0  0  0  0  0  0  0  0  0  0  0  0
   18.7850  -10.4806  -16.4248 C   0  0  0  0  0  0  0  0  0  0  0  0
   19.3912   -9.5913  -17.0762 O   0  0  0  0  0  0  0  0  0  0  0  0
   17.6817  -10.0827  -15.5972 N   0  0  0  0  0  0  0  0  0  0  0  0
   17.2841   -8.6929  -15.5317 C   0  0  1  0  0  0  0  0  0  0  0  0
   15.8592   -8.5264  -15.0602 C   0  0  0  0  0  0  0  0  0  0  0  0
   15.4133   -7.1412  -15.0189 C   0  0  0  0  0  0  0  0  0  0  0  0
   16.0550   -6.2308  -15.5915 O   0  0  0  0  0  0  0  0  0  0  0  0
   18.2300   -7.9038  -14.6851 C   0  0  0  0  0  0  0  0  0  0  0  0
   18.8081   -8.4253  -13.6894 O   0  0  0  0  0  0  0  0  0  0  0  0
   14.2609   -6.7990  -14.3421 O   0  0  0  0  0  0  0  0  0  0  0  0
   22.1237   -4.6520  -13.5357 N   0  0  0  0  0  0  0  0  0  0  0  0
   22.1048   -5.8880  -14.1953 C   0  0  0  0  0  0  0  0  0  0  0  0
   23.2468   -6.4485  -14.3888 O   0  0  0  0  0  0  0  0  0  0  0  0
   20.8942   -6.5599  -14.6614 C   0  0  0  0  0  0  0  0  0  0  0  0
   19.6419   -5.8193  -14.3058 C   0  0  2  0  0  0  0  0  0  0  0  0
   18.5293   -6.5523  -14.9451 N   0  0  0  0  0  0  0  0  0  0  0  0
   19.6114   -4.4178  -14.7508 C   0  0  0  0  0  0  0  0  0  0  0  0
   18.8197   -4.1053  -15.8779 O   0  0  0  0  0  0  0  0  0  0  0  0
   20.2308   -3.4828  -14.2073 O   0  0  0  0  0  0  0  0  0  0  0  0
  2  1  1  0
  2  3  2  0
  4  2  1  0
  5  4  1  0
  5  6  1  6
  7  5  1  0
  8  7  2  0
  9  7  1  0
 10  9  1  0
 10 11  1  1
 12 11  1  0
 12 13  2  0
 14 10  1  0
 14 22  1  0
 15 14  2  0
 16 12  1  0
 18 17  1  0
 18 19  2  0
 21 20  1  6
 20 18  1  0
 21 22  1  0
 21 23  1  0
 23 25  2  0
 23 24  1  0
M  END
$$$$
