NDN.pdb
     RDKit          3D

 25 24  0  0  1  0  0  0  0  0999 V2000
   15.4504  -10.3224  -17.6553 N   0  0  0  0  0  0  0  0  0  0  0  0
   16.8139   -9.9436  -17.4136 C   0  0  0  0  0  0  0  0  0  0  0  0
   17.5747   -9.6521  -18.3461 O   0  0  0  0  0  0  0  0  0  0  0  0
   17.2916   -9.9053  -16.0240 C   0  0  0  0  0  0  0  0  0  0  0  0
   18.8156   -9.8889  -15.9622 C   0  0  2  0  0  0  0  0  0  0  0  0
   19.3659  -11.2001  -16.1178 N   0  0  0  0  0  0  0  0  0  0  0  0
   19.2020   -9.2742  -14.6621 C   0  0  0  0  0  0  0  0  0  0  0  0
   18.9295   -9.8357  -13.5698 O   0  0  0  0  0  0  0  0  0  0  0  0
   19.8967   -8.0186  -14.6253 N   0  0  0  0  0  0  0  0  0  0  0  0
   20.2090   -7.3956  -13.3571 C   0  0  1  0  0  0  0  0  0  0  0  0
   21.3649   -6.4297  -13.4628 C   0  0  0  0  0  0  0  0  0  0  0  0
   21.6925   -5.7678  -12.2082 C   0  0  0  0  0  0  0  0  0  0  0  0
   22.0880   -4.5798  -12.1799 O   0  0  0  0  0  0  0  0  0  0  0  0
   19.0026   -6.7342  -12.7731 C   0  0  0  0  0  0  0  0  0  0  0  0
   18.4364   -5.7689  -13.3607 O   0  0  0  0  0  0  0  0  0  0  0  0
   21.5713   -6.4423  -11.0109 O   0  0  0  0  0  0  0  0  0  0  0  0
   14.9055   -5.5140   -9.6937 N   0  0  0  0  0  0  0  0  0  0  0  0
   15.0224   -6.8468  -10.1097 C   0  0  0  0  0  0  0  0  0  0  0  0
   13.9945   -7.5965   -9.9168 O   0  0  0  0  0  0  0  0  0  0  0  0
   16.2125   -7.4181  -10.7354 C   0  0  0  0  0  0  0  0  0  0  0  0
   17.3278   -6.4290  -10.8798 C   0  0  2  0  0  0  0  0  0  0  0  0
   18.4332   -7.1435  -11.5515 N   0  0  0  0  0  0  0  0  0  0  0  0
   17.8191   -5.8697   -9.6113 C   0  0  0  0  0  0  0  0  0  0  0  0
   19.1706   -6.1010   -9.2729 O   0  0  0  0  0  0  0  0  0  0  0  0
   17.1327   -5.2044   -8.8114 O   0  0  0  0  0  0  0  0  0  0  0  0
  2  1  1  0
  2  3  2  0
  4  2  1  0
  5  4  1  0
  5  6  1  1
  7  5  1  0
  8  7  2  0
  9  7  1  0
 10  9  1  0
 10 11  1  6
 12 11  1  0
 12 13  2  0
 14 10  1  0
 14 22  1  0
 15 14  2  0
 16 12  1  0
 18 17  1  0
 18 19  2  0
 21 20  1  1
 20 18  1  0
 21 22  1  0
 21 23  1  0
 23 25  2  0
 23 24  1  0
M  END
$$$$
