NDN.pdb
     RDKit          3D

 25 24  0  0  1  0  0  0  0  0999 V2000
   23.1298  -11.8683  -17.9015 N   0  0  0  0  0  0  0  0  0  0  0  0
   23.4110  -11.6584  -16.5094 C   0  0  0  0  0  0  0  0  0  0  0  0
   24.0502  -12.4895  -15.8506 O   0  0  0  0  0  0  0  0  0  0  0  0
   22.9231  -10.4242  -15.8773 C   0  0  0  0  0  0  0  0  0  0  0  0
   22.2502   -9.5090  -16.8953 C   0  0  2  0  0  0  0  0  0  0  0  0
   23.2087   -8.8283  -17.7102 N   0  0  0  0  0  0  0  0  0  0  0  0
   21.3885   -8.5590  -16.1387 C   0  0  0  0  0  0  0  0  0  0  0  0
   20.4949   -8.9724  -15.3557 O   0  0  0  0  0  0  0  0  0  0  0  0
   21.5578   -7.1414  -16.2878 N   0  0  0  0  0  0  0  0  0  0  0  0
   20.7276   -6.2254  -15.5358 C   0  0  1  0  0  0  0  0  0  0  0  0
   21.4896   -5.0039  -15.0801 C   0  0  0  0  0  0  0  0  0  0  0  0
   22.4197   -5.2655  -13.9911 C   0  0  0  0  0  0  0  0  0  0  0  0
   23.5412   -4.7102  -13.9419 O   0  0  0  0  0  0  0  0  0  0  0  0
   19.5092   -5.8443  -16.3134 C   0  0  0  0  0  0  0  0  0  0  0  0
   19.6022   -5.2931  -17.4471 O   0  0  0  0  0  0  0  0  0  0  0  0
   22.0807   -6.1390  -12.9785 O   0  0  0  0  0  0  0  0  0  0  0  0
   16.4386   -9.3959  -16.2133 N   0  0  0  0  0  0  0  0  0  0  0  0
   16.5036   -8.1721  -16.8923 C   0  0  0  0  0  0  0  0  0  0  0  0
   17.0184   -8.2009  -18.0713 O   0  0  0  0  0  0  0  0  0  0  0  0
   16.0307   -6.8993  -16.3533 C   0  0  0  0  0  0  0  0  0  0  0  0
   16.9811   -5.7695  -16.6054 C   0  0  2  0  0  0  0  0  0  0  0  0
   18.2047   -6.0754  -15.8354 N   0  0  0  0  0  0  0  0  0  0  0  0
   16.4802   -4.4461  -16.2041 C   0  0  0  0  0  0  0  0  0  0  0  0
   16.6426   -4.0659  -14.8536 O   0  0  0  0  0  0  0  0  0  0  0  0
   15.9237   -3.6324  -16.9667 O   0  0  0  0  0  0  0  0  0  0  0  0
  2  1  1  0
  2  3  2  0
  4  2  1  0
  5  4  1  0
  5  6  1  1
  7  5  1  0
  8  7  2  0
  9  7  1  0
 10  9  1  0
 10 11  1  6
 12 11  1  0
 12 13  2  0
 14 10  1  0
 14 22  1  0
 15 14  2  0
 16 12  1  0
 18 17  1  0
 18 19  2  0
 21 20  1  1
 20 18  1  0
 21 22  1  0
 21 23  1  0
 23 25  2  0
 23 24  1  0
M  END
$$$$
