SGL.pdb
     RDKit          3D

 19 18  0  0  1  0  0  0  0  0999 V2000
   27.8301  -19.2683  -17.8279 O   0  0  0  0  0  0  0  0  0  0  0  0
   26.8177  -20.0435  -17.2716 C   0  0  0  0  0  0  0  0  0  0  0  0
   27.3080  -20.7494  -16.0142 C   0  0  2  0  0  0  0  0  0  0  0  0
   28.4449  -21.5379  -16.3454 N   0  0  0  0  0  0  0  0  0  0  0  0
   26.2258  -21.4833  -15.3561 C   0  0  0  0  0  0  0  0  0  0  0  0
   26.4465  -22.6834  -15.0257 O   0  0  0  0  0  0  0  0  0  0  0  0
   24.9522  -20.9586  -15.0595 N   0  0  0  0  0  0  0  0  0  0  0  0
   23.9747  -21.6269  -14.2608 C   0  0  0  0  0  0  0  0  0  0  0  0
   22.7588  -20.7730  -14.0545 C   0  0  0  0  0  0  0  0  0  0  0  0
   22.8959  -19.5954  -13.7141 O   0  0  0  0  0  0  0  0  0  0  0  0
   18.3900  -20.5166  -17.3780 C   0  0  0  0  0  0  0  0  0  0  0  0
   19.2302  -19.8490  -16.2754 C   0  0  2  0  0  0  0  0  0  0  0  0
   20.6233  -19.7156  -16.8515 C   0  0  0  0  0  0  0  0  0  0  0  0
   19.2014  -20.8097  -15.1150 C   0  0  0  0  0  0  0  0  0  0  0  0
   20.2417  -20.5474  -14.0636 C   0  0  2  0  0  0  0  0  0  0  0  0
   21.4481  -21.2908  -14.2427 N   0  0  0  0  0  0  0  0  0  0  0  0
   19.7577  -20.6489  -12.6770 C   0  0  0  0  0  0  0  0  0  0  0  0
   19.9902  -21.6970  -12.0342 O   0  0  0  0  0  0  0  0  0  0  0  0
   19.0559  -19.6441  -12.0399 O   0  0  0  0  0  0  0  0  0  0  0  0
  1  2  1  0
  2  3  1  0
  3  4  1  6
  3  5  1  0
  5  6  2  0
  7  5  1  0
  7  8  1  0
  9  8  1  0
  9 10  2  0
 12 14  1  0
 12 11  1  6
 13 12  1  0
 15 14  1  6
 15 16  1  0
 16  9  1  0
 17 15  1  0
 17 19  1  0
 18 17  2  0
M  END
$$$$
