SGL.pdb
     RDKit          3D

 19 18  0  0  1  0  0  0  0  0999 V2000
   15.2931  -10.9724  -19.0028 O   0  0  0  0  0  0  0  0  0  0  0  0
   16.1102  -10.0997  -19.7141 C   0  0  0  0  0  0  0  0  0  0  0  0
   17.4451   -9.9119  -19.0053 C   0  0  2  0  0  0  0  0  0  0  0  0
   18.1779  -11.1291  -19.0788 N   0  0  0  0  0  0  0  0  0  0  0  0
   17.2624   -9.3892  -17.6502 C   0  0  0  0  0  0  0  0  0  0  0  0
   16.7217   -8.2531  -17.5272 O   0  0  0  0  0  0  0  0  0  0  0  0
   17.6420  -10.0522  -16.4663 N   0  0  0  0  0  0  0  0  0  0  0  0
   17.4517   -9.5229  -15.1534 C   0  0  0  0  0  0  0  0  0  0  0  0
   18.7259   -8.9559  -14.6012 C   0  0  0  0  0  0  0  0  0  0  0  0
   18.7508   -8.5386  -13.4407 O   0  0  0  0  0  0  0  0  0  0  0  0
   21.6053  -11.3378  -15.3425 C   0  0  0  0  0  0  0  0  0  0  0  0
   22.7271  -10.3668  -14.9348 C   0  0  2  0  0  0  0  0  0  0  0  0
   22.6790  -10.3032  -13.4234 C   0  0  0  0  0  0  0  0  0  0  0  0
   22.3561   -9.0451  -15.5559 C   0  0  0  0  0  0  0  0  0  0  0  0
   21.1635   -8.3772  -14.9326 C   0  0  2  0  0  0  0  0  0  0  0  0
   19.9092   -8.8882  -15.3864 N   0  0  0  0  0  0  0  0  0  0  0  0
   21.1848   -6.9060  -14.9802 C   0  0  0  0  0  0  0  0  0  0  0  0
   20.5098   -6.3230  -15.8578 O   0  0  0  0  0  0  0  0  0  0  0  0
   21.9133   -6.1262  -14.1031 O   0  0  0  0  0  0  0  0  0  0  0  0
  1  2  1  0
  2  3  1  0
  3  4  1  1
  3  5  1  0
  5  6  2  0
  7  5  1  0
  7  8  1  0
  9  8  1  0
  9 10  2  0
 12 14  1  0
 12 11  1  6
 13 12  1  0
 15 14  1  6
 15 16  1  0
 16  9  1  0
 17 15  1  0
 17 19  1  0
 18 17  2  0
M  END
$$$$
