SGL.pdb
     RDKit          3D

 19 18  0  0  1  0  0  0  0  0999 V2000
   16.4980  -10.1630  -16.5910 O   0  0  0  0  0  0  0  0  0  0  0  0
   16.7498   -9.6040  -15.3422 C   0  0  0  0  0  0  0  0  0  0  0  0
   17.4835  -10.5935  -14.4464 C   0  0  2  0  0  0  0  0  0  0  0  0
   16.9110  -11.8837  -14.6239 N   0  0  0  0  0  0  0  0  0  0  0  0
   17.5259  -10.1292  -13.0587 C   0  0  0  0  0  0  0  0  0  0  0  0
   16.7448  -10.6802  -12.2313 O   0  0  0  0  0  0  0  0  0  0  0  0
   18.3702   -9.1137  -12.5678 N   0  0  0  0  0  0  0  0  0  0  0  0
   18.3746   -8.6578  -11.2142 C   0  0  0  0  0  0  0  0  0  0  0  0
   17.1402   -7.8663  -10.8986 C   0  0  0  0  0  0  0  0  0  0  0  0
   16.5792   -7.2343  -11.7972 O   0  0  0  0  0  0  0  0  0  0  0  0
   13.6885   -5.9910   -6.6483 C   0  0  0  0  0  0  0  0  0  0  0  0
   13.3835   -7.0734   -7.6986 C   0  0  2  0  0  0  0  0  0  0  0  0
   12.4494   -8.0491   -7.0160 C   0  0  0  0  0  0  0  0  0  0  0  0
   14.7128   -7.7089   -8.0140 C   0  0  0  0  0  0  0  0  0  0  0  0
   15.4138   -7.1259   -9.2080 C   0  0  2  0  0  0  0  0  0  0  0  0
   16.5999   -7.8272   -9.5841 N   0  0  0  0  0  0  0  0  0  0  0  0
   15.6564   -5.6758   -9.1345 C   0  0  0  0  0  0  0  0  0  0  0  0
   14.7388   -4.8948   -9.4716 O   0  0  0  0  0  0  0  0  0  0  0  0
   16.8496   -5.1239   -8.7104 O   0  0  0  0  0  0  0  0  0  0  0  0
  1  2  1  0
  2  3  1  0
  3  4  1  1
  3  5  1  0
  5  6  2  0
  7  5  1  0
  7  8  1  0
  9  8  1  0
  9 10  2  0
 12 14  1  0
 12 11  1  1
 13 12  1  0
 15 14  1  1
 15 16  1  0
 16  9  1  0
 17 15  1  0
 17 19  1  0
 18 17  2  0
M  END
$$$$
