SGL.pdb
     RDKit          3D

 19 18  0  0  1  0  0  0  0  0999 V2000
   17.4199  -25.5486  -13.6898 O   0  0  0  0  0  0  0  0  0  0  0  0
   17.2926  -25.1512  -12.3627 C   0  0  0  0  0  0  0  0  0  0  0  0
   18.6543  -24.8220  -11.7652 C   0  0  2  0  0  0  0  0  0  0  0  0
   19.5271  -25.9250  -11.9792 N   0  0  0  0  0  0  0  0  0  0  0  0
   18.5375  -24.3968  -10.3694 C   0  0  0  0  0  0  0  0  0  0  0  0
   17.8343  -23.3753  -10.1239 O   0  0  0  0  0  0  0  0  0  0  0  0
   19.1477  -25.0361   -9.2721 N   0  0  0  0  0  0  0  0  0  0  0  0
   19.0688  -24.5684   -7.9248 C   0  0  0  0  0  0  0  0  0  0  0  0
   17.9054  -25.1780   -7.2004 C   0  0  0  0  0  0  0  0  0  0  0  0
   17.0620  -25.8152   -7.8362 O   0  0  0  0  0  0  0  0  0  0  0  0
   17.8426  -28.2866   -4.2127 C   0  0  0  0  0  0  0  0  0  0  0  0
   18.3084  -26.9435   -3.6239 C   0  0  2  0  0  0  0  0  0  0  0  0
   18.7378  -27.2495   -2.2053 C   0  0  0  0  0  0  0  0  0  0  0  0
   17.0939  -26.0522   -3.6539 C   0  0  0  0  0  0  0  0  0  0  0  0
   16.6859  -25.6020   -5.0278 C   0  0  2  0  0  0  0  0  0  0  0  0
   17.7515  -25.0381   -5.7939 N   0  0  0  0  0  0  0  0  0  0  0  0
   15.4923  -24.7412   -5.0665 C   0  0  0  0  0  0  0  0  0  0  0  0
   15.6391  -23.5195   -5.2936 O   0  0  0  0  0  0  0  0  0  0  0  0
   14.2086  -25.2099   -4.8652 O   0  0  0  0  0  0  0  0  0  0  0  0
  1  2  1  0
  2  3  1  0
  3  4  1  1
  3  5  1  0
  5  6  2  0
  7  5  1  0
  7  8  1  0
  9  8  1  0
  9 10  2  0
 12 14  1  0
 12 11  1  1
 13 12  1  0
 15 14  1  1
 15 16  1  0
 16  9  1  0
 17 15  1  0
 17 19  1  0
 18 17  2  0
M  END
$$$$
