SGL.pdb
     RDKit          3D

 19 18  0  0  1  0  0  0  0  0999 V2000
   23.6245  -17.9048  -14.4441 O   0  0  0  0  0  0  0  0  0  0  0  0
   24.1206  -19.0819  -13.8929 C   0  0  0  0  0  0  0  0  0  0  0  0
   25.2045  -19.6785  -14.7811 C   0  0  2  0  0  0  0  0  0  0  0  0
   24.5955  -20.2139  -15.9501 N   0  0  0  0  0  0  0  0  0  0  0  0
   26.0427  -20.6233  -14.0411 C   0  0  0  0  0  0  0  0  0  0  0  0
   25.6884  -21.8368  -14.0280 O   0  0  0  0  0  0  0  0  0  0  0  0
   27.2176  -20.2889  -13.3389 N   0  0  0  0  0  0  0  0  0  0  0  0
   28.0323  -21.2325  -12.6417 C   0  0  0  0  0  0  0  0  0  0  0  0
   27.6022  -21.3768  -11.2120 C   0  0  0  0  0  0  0  0  0  0  0  0
   28.0759  -22.2855  -10.5253 O   0  0  0  0  0  0  0  0  0  0  0  0
   27.5964  -19.0571   -6.1702 C   0  0  0  0  0  0  0  0  0  0  0  0
   27.1648  -20.2457   -7.0469 C   0  0  2  0  0  0  0  0  0  0  0  0
   28.4234  -21.0516   -7.2859 C   0  0  0  0  0  0  0  0  0  0  0  0
   26.6495  -19.6334   -8.3236 C   0  0  0  0  0  0  0  0  0  0  0  0
   26.1105  -20.6241   -9.3159 C   0  0  2  0  0  0  0  0  0  0  0  0
   26.6587  -20.4880  -10.6279 N   0  0  0  0  0  0  0  0  0  0  0  0
   24.6420  -20.7152   -9.3621 C   0  0  0  0  0  0  0  0  0  0  0  0
   24.0306  -21.0956   -8.3388 O   0  0  0  0  0  0  0  0  0  0  0  0
   23.8943  -20.4013  -10.4804 O   0  0  0  0  0  0  0  0  0  0  0  0
  1  2  1  0
  2  3  1  0
  3  4  1  6
  3  5  1  0
  5  6  2  0
  7  5  1  0
  7  8  1  0
  9  8  1  0
  9 10  2  0
 12 14  1  0
 12 11  1  1
 13 12  1  0
 15 14  1  1
 15 16  1  0
 16  9  1  0
 17 15  1  0
 17 19  1  0
 18 17  2  0
M  END
$$$$
