SGL.pdb
     RDKit          3D

 19 18  0  0  1  0  0  0  0  0999 V2000
   27.5969  -17.0686  -20.4707 O   0  0  0  0  0  0  0  0  0  0  0  0
   26.6793  -17.1534  -19.4286 C   0  0  0  0  0  0  0  0  0  0  0  0
   27.0262  -18.3073  -18.4970 C   0  0  2  0  0  0  0  0  0  0  0  0
   26.8266  -19.5327  -19.1916 N   0  0  0  0  0  0  0  0  0  0  0  0
   26.3095  -18.2020  -17.2249 C   0  0  0  0  0  0  0  0  0  0  0  0
   26.6531  -17.2790  -16.4322 O   0  0  0  0  0  0  0  0  0  0  0  0
   25.2630  -19.0493  -16.8101 N   0  0  0  0  0  0  0  0  0  0  0  0
   24.5373  -18.8908  -15.5901 C   0  0  0  0  0  0  0  0  0  0  0  0
   24.5700  -20.1440  -14.7664 C   0  0  0  0  0  0  0  0  0  0  0  0
   25.4075  -21.0137  -15.0191 O   0  0  0  0  0  0  0  0  0  0  0  0
   25.1688  -21.2195   -9.7364 C   0  0  0  0  0  0  0  0  0  0  0  0
   25.3530  -20.5799  -11.1237 C   0  0  2  0  0  0  0  0  0  0  0  0
   24.3635  -19.4359  -11.1776 C   0  0  0  0  0  0  0  0  0  0  0  0
   25.0017  -21.6619  -12.1116 C   0  0  0  0  0  0  0  0  0  0  0  0
   23.6832  -21.4678  -12.8048 C   0  0  2  0  0  0  0  0  0  0  0  0
   23.6556  -20.3535  -13.6980 N   0  0  0  0  0  0  0  0  0  0  0  0
   22.5119  -21.4611  -11.9130 C   0  0  0  0  0  0  0  0  0  0  0  0
   22.3225  -22.4436  -11.1618 O   0  0  0  0  0  0  0  0  0  0  0  0
   21.6028  -20.4226  -11.8579 O   0  0  0  0  0  0  0  0  0  0  0  0
  1  2  1  0
  2  3  1  0
  3  4  1  6
  3  5  1  0
  5  6  2  0
  7  5  1  0
  7  8  1  0
  9  8  1  0
  9 10  2  0
 12 14  1  0
 12 11  1  1
 13 12  1  0
 15 14  1  1
 15 16  1  0
 16  9  1  0
 17 15  1  0
 17 19  1  0
 18 17  2  0
M  END
$$$$
