SGL.pdb
     RDKit          3D

 19 18  0  0  1  0  0  0  0  0999 V2000
   26.8069  -21.8359  -19.9591 O   0  0  0  0  0  0  0  0  0  0  0  0
   26.4904  -21.4624  -18.6569 C   0  0  0  0  0  0  0  0  0  0  0  0
   26.3405  -19.9505  -18.5508 C   0  0  2  0  0  0  0  0  0  0  0  0
   27.5996  -19.3453  -18.8200 N   0  0  0  0  0  0  0  0  0  0  0  0
   25.7352  -19.5610  -17.2760 C   0  0  0  0  0  0  0  0  0  0  0  0
   26.4715  -19.5740  -16.2484 O   0  0  0  0  0  0  0  0  0  0  0  0
   24.3927  -19.1712  -17.1002 N   0  0  0  0  0  0  0  0  0  0  0  0
   23.8365  -18.7466  -15.8551 C   0  0  0  0  0  0  0  0  0  0  0  0
   23.4094  -19.9161  -15.0185 C   0  0  0  0  0  0  0  0  0  0  0  0
   23.1658  -20.9950  -15.5645 O   0  0  0  0  0  0  0  0  0  0  0  0
   25.5656  -22.1603  -12.1559 C   0  0  0  0  0  0  0  0  0  0  0  0
   25.1292  -20.8109  -11.5592 C   0  0  2  0  0  0  0  0  0  0  0  0
   25.7989  -20.7309  -10.2043 C   0  0  0  0  0  0  0  0  0  0  0  0
   23.6304  -20.8973  -11.4311 C   0  0  0  0  0  0  0  0  0  0  0  0
   22.8916  -20.8762  -12.7389 C   0  0  2  0  0  0  0  0  0  0  0  0
   23.2785  -19.8098  -13.6068 N   0  0  0  0  0  0  0  0  0  0  0  0
   21.4265  -20.9591  -12.6218 C   0  0  0  0  0  0  0  0  0  0  0  0
   20.7467  -19.9317  -12.8409 O   0  0  0  0  0  0  0  0  0  0  0  0
   20.7540  -22.1167  -12.2814 O   0  0  0  0  0  0  0  0  0  0  0  0
  1  2  1  0
  2  3  1  0
  3  4  1  1
  3  5  1  0
  5  6  2  0
  7  5  1  0
  7  8  1  0
  9  8  1  0
  9 10  2  0
 12 14  1  0
 12 11  1  1
 13 12  1  0
 15 14  1  1
 15 16  1  0
 16  9  1  0
 17 15  1  0
 17 19  1  0
 18 17  2  0
M  END
$$$$
