SGL.pdb
     RDKit          3D

 19 18  0  0  1  0  0  0  0  0999 V2000
   27.1689  -24.6073  -18.9987 O   0  0  0  0  0  0  0  0  0  0  0  0
   26.1683  -24.3798  -18.0594 C   0  0  0  0  0  0  0  0  0  0  0  0
   26.6967  -24.5906  -16.6465 C   0  0  2  0  0  0  0  0  0  0  0  0
   26.8633  -25.9858  -16.4233 N   0  0  0  0  0  0  0  0  0  0  0  0
   25.8624  -23.9084  -15.6559 C   0  0  0  0  0  0  0  0  0  0  0  0
   26.4218  -23.0654  -14.8979 O   0  0  0  0  0  0  0  0  0  0  0  0
   24.4802  -24.1157  -15.4776 N   0  0  0  0  0  0  0  0  0  0  0  0
   23.6774  -23.4068  -14.5325 C   0  0  0  0  0  0  0  0  0  0  0  0
   22.2570  -23.8888  -14.5494 C   0  0  0  0  0  0  0  0  0  0  0  0
   21.8574  -24.5640  -15.5012 O   0  0  0  0  0  0  0  0  0  0  0  0
   20.1641  -26.9996  -13.4059 C   0  0  0  0  0  0  0  0  0  0  0  0
   20.5252  -26.0814  -12.2252 C   0  0  2  0  0  0  0  0  0  0  0  0
   20.2189  -26.8838  -10.9790 C   0  0  0  0  0  0  0  0  0  0  0  0
   19.6129  -24.8892  -12.3534 C   0  0  0  0  0  0  0  0  0  0  0  0
   19.9758  -23.9441  -13.4633 C   0  0  2  0  0  0  0  0  0  0  0  0
   21.3579  -23.5848  -13.4908 N   0  0  0  0  0  0  0  0  0  0  0  0
   19.1165  -22.7532  -13.5659 C   0  0  0  0  0  0  0  0  0  0  0  0
   17.8902  -22.9112  -13.7581 O   0  0  0  0  0  0  0  0  0  0  0  0
   19.5913  -21.4603  -13.4607 O   0  0  0  0  0  0  0  0  0  0  0  0
  1  2  1  0
  2  3  1  0
  3  4  1  1
  3  5  1  0
  5  6  2  0
  7  5  1  0
  7  8  1  0
  9  8  1  0
  9 10  2  0
 12 14  1  0
 12 11  1  6
 13 12  1  0
 15 14  1  1
 15 16  1  0
 16  9  1  0
 17 15  1  0
 17 19  1  0
 18 17  2  0
M  END
$$$$
