SGL.pdb
     RDKit          3D

 19 18  0  0  1  0  0  0  0  0999 V2000
   12.8045  -10.9843   -9.4803 O   0  0  0  0  0  0  0  0  0  0  0  0
   13.5423  -10.8667  -10.6538 C   0  0  0  0  0  0  0  0  0  0  0  0
   13.6382   -9.4096  -11.0869 C   0  0  2  0  0  0  0  0  0  0  0  0
   12.3267   -8.8611  -11.1424 N   0  0  0  0  0  0  0  0  0  0  0  0
   14.4126   -9.2682  -12.3211 C   0  0  0  0  0  0  0  0  0  0  0  0
   13.7799   -9.2780  -13.4155 O   0  0  0  0  0  0  0  0  0  0  0  0
   15.8123   -9.1214  -12.3889 N   0  0  0  0  0  0  0  0  0  0  0  0
   16.5633   -9.1372  -13.6038 C   0  0  0  0  0  0  0  0  0  0  0  0
   18.0282   -8.9448  -13.3450 C   0  0  0  0  0  0  0  0  0  0  0  0
   18.4123   -8.6802  -12.2030 O   0  0  0  0  0  0  0  0  0  0  0  0
   23.3205  -10.7769  -15.8117 C   0  0  0  0  0  0  0  0  0  0  0  0
   22.6963   -9.8201  -14.7809 C   0  0  2  0  0  0  0  0  0  0  0  0
   23.1093  -10.3565  -13.4273 C   0  0  0  0  0  0  0  0  0  0  0  0
   21.2077   -9.9271  -14.9875 C   0  0  0  0  0  0  0  0  0  0  0  0
   20.3988   -8.9201  -14.2205 C   0  0  2  0  0  0  0  0  0  0  0  0
   18.9872   -9.0606  -14.3881 N   0  0  0  0  0  0  0  0  0  0  0  0
   20.8177   -7.5211  -14.4062 C   0  0  0  0  0  0  0  0  0  0  0  0
   20.3850   -6.8902  -15.3964 O   0  0  0  0  0  0  0  0  0  0  0  0
   21.6680   -6.8597  -13.5416 O   0  0  0  0  0  0  0  0  0  0  0  0
  1  2  1  0
  2  3  1  0
  3  4  1  6
  3  5  1  0
  5  6  2  0
  7  5  1  0
  7  8  1  0
  9  8  1  0
  9 10  2  0
 12 14  1  0
 12 11  1  6
 13 12  1  0
 15 14  1  6
 15 16  1  0
 16  9  1  0
 17 15  1  0
 17 19  1  0
 18 17  2  0
M  END
$$$$
