SGL.pdb
     RDKit          3D

 19 18  0  0  1  0  0  0  0  0999 V2000
   27.0785  -20.2268   -9.2098 O   0  0  0  0  0  0  0  0  0  0  0  0
   26.5707  -20.7641  -10.3882 C   0  0  0  0  0  0  0  0  0  0  0  0
   25.0797  -20.4788  -10.5125 C   0  0  2  0  0  0  0  0  0  0  0  0
   24.3989  -21.1266   -9.4445 N   0  0  0  0  0  0  0  0  0  0  0  0
   24.5805  -20.8128  -11.8475 C   0  0  0  0  0  0  0  0  0  0  0  0
   24.4865  -22.0367  -12.1498 O   0  0  0  0  0  0  0  0  0  0  0  0
   24.1946  -19.8769  -12.8276 N   0  0  0  0  0  0  0  0  0  0  0  0
   23.7086  -20.2266  -14.1243 C   0  0  0  0  0  0  0  0  0  0  0  0
   22.3085  -20.7609  -14.0590 C   0  0  0  0  0  0  0  0  0  0  0  0
   22.1037  -21.9546  -14.2928 O   0  0  0  0  0  0  0  0  0  0  0  0
   19.3974  -22.9170  -11.9645 C   0  0  0  0  0  0  0  0  0  0  0  0
   20.3027  -21.8817  -11.2744 C   0  0  2  0  0  0  0  0  0  0  0  0
   20.0337  -22.0313   -9.7926 C   0  0  0  0  0  0  0  0  0  0  0  0
   19.8408  -20.5426  -11.7879 C   0  0  0  0  0  0  0  0  0  0  0  0
   19.9350  -20.3812  -13.2785 C   0  0  2  0  0  0  0  0  0  0  0  0
   21.2086  -19.9211  -13.7329 N   0  0  0  0  0  0  0  0  0  0  0  0
   18.8429  -19.6028  -13.8856 C   0  0  0  0  0  0  0  0  0  0  0  0
   18.9204  -18.3539  -13.8819 O   0  0  0  0  0  0  0  0  0  0  0  0
   17.7283  -20.1779  -14.4643 O   0  0  0  0  0  0  0  0  0  0  0  0
  1  2  1  0
  2  3  1  0
  3  4  1  1
  3  5  1  0
  5  6  2  0
  7  5  1  0
  7  8  1  0
  9  8  1  0
  9 10  2  0
 12 14  1  0
 12 11  1  6
 13 12  1  0
 15 14  1  1
 15 16  1  0
 16  9  1  0
 17 15  1  0
 17 19  1  0
 18 17  2  0
M  END
$$$$
