SGL.pdb
     RDKit          3D

 19 18  0  0  1  0  0  0  0  0999 V2000
   15.7658  -13.3581  -17.3334 O   0  0  0  0  0  0  0  0  0  0  0  0
   16.0034  -12.2751  -16.4931 C   0  0  0  0  0  0  0  0  0  0  0  0
   17.2724  -11.5408  -16.9055 C   0  0  2  0  0  0  0  0  0  0  0  0
   18.3963  -12.2404  -16.3845 N   0  0  0  0  0  0  0  0  0  0  0  0
   17.2125  -10.1238  -16.5427 C   0  0  0  0  0  0  0  0  0  0  0  0
   16.2496   -9.4419  -16.9966 O   0  0  0  0  0  0  0  0  0  0  0  0
   18.1448   -9.4550  -15.7249 N   0  0  0  0  0  0  0  0  0  0  0  0
   18.0628   -8.0714  -15.3798 C   0  0  0  0  0  0  0  0  0  0  0  0
   19.1521   -7.6791  -14.4260 C   0  0  0  0  0  0  0  0  0  0  0  0
   18.9418   -7.7302  -13.2116 O   0  0  0  0  0  0  0  0  0  0  0  0
   22.1683   -9.8420  -13.0753 C   0  0  0  0  0  0  0  0  0  0  0  0
   22.4221   -9.3543  -14.5124 C   0  0  2  0  0  0  0  0  0  0  0  0
   23.6159  -10.1441  -15.0039 C   0  0  0  0  0  0  0  0  0  0  0  0
   22.7438   -7.8878  -14.3850 C   0  0  0  0  0  0  0  0  0  0  0  0
   21.5634   -7.0176  -14.0591 C   0  0  2  0  0  0  0  0  0  0  0  0
   20.4250   -7.2486  -14.8904 N   0  0  0  0  0  0  0  0  0  0  0  0
   21.8646   -5.5799  -13.9607 C   0  0  0  0  0  0  0  0  0  0  0  0
   21.3697   -4.8026  -14.8071 O   0  0  0  0  0  0  0  0  0  0  0  0
   22.6689   -5.0360  -12.9782 O   0  0  0  0  0  0  0  0  0  0  0  0
  1  2  1  0
  2  3  1  0
  3  4  1  1
  3  5  1  0
  5  6  2  0
  7  5  1  0
  7  8  1  0
  9  8  1  0
  9 10  2  0
 12 14  1  0
 12 11  1  1
 13 12  1  0
 15 14  1  6
 15 16  1  0
 16  9  1  0
 17 15  1  0
 17 19  1  0
 18 17  2  0
M  END
$$$$
