SGL.pdb
     RDKit          3D

 19 18  0  0  1  0  0  0  0  0999 V2000
   13.6082  -10.6639  -16.2779 O   0  0  0  0  0  0  0  0  0  0  0  0
   14.5616  -10.7837  -15.2720 C   0  0  0  0  0  0  0  0  0  0  0  0
   15.9659  -10.6137  -15.8368 C   0  0  2  0  0  0  0  0  0  0  0  0
   16.8131  -11.6020  -15.2628 N   0  0  0  0  0  0  0  0  0  0  0  0
   16.4410   -9.2375  -15.6838 C   0  0  0  0  0  0  0  0  0  0  0  0
   15.7255   -8.4408  -15.0119 O   0  0  0  0  0  0  0  0  0  0  0  0
   17.6364   -8.7263  -16.2269 N   0  0  0  0  0  0  0  0  0  0  0  0
   18.0292   -7.3550  -16.1541 C   0  0  0  0  0  0  0  0  0  0  0  0
   18.8184   -7.0763  -14.9093 C   0  0  0  0  0  0  0  0  0  0  0  0
   18.2464   -7.0766  -13.8164 O   0  0  0  0  0  0  0  0  0  0  0  0
   22.5769  -10.1052  -13.6025 C   0  0  0  0  0  0  0  0  0  0  0  0
   22.0706   -8.8669  -14.3627 C   0  0  2  0  0  0  0  0  0  0  0  0
   23.2535   -8.3731  -15.1673 C   0  0  0  0  0  0  0  0  0  0  0  0
   21.6755   -7.8783  -13.2965 C   0  0  0  0  0  0  0  0  0  0  0  0
   21.0512   -6.6157  -13.8189 C   0  0  2  0  0  0  0  0  0  0  0  0
   20.2142   -6.8111  -14.9597 N   0  0  0  0  0  0  0  0  0  0  0  0
   21.9930   -5.5054  -14.0366 C   0  0  0  0  0  0  0  0  0  0  0  0
   22.1524   -5.0714  -15.1993 O   0  0  0  0  0  0  0  0  0  0  0  0
   22.7163   -4.9102  -13.0214 O   0  0  0  0  0  0  0  0  0  0  0  0
  1  2  1  0
  2  3  1  0
  3  4  1  1
  3  5  1  0
  5  6  2  0
  7  5  1  0
  7  8  1  0
  9  8  1  0
  9 10  2  0
 12 14  1  0
 12 11  1  1
 13 12  1  0
 15 14  1  6
 15 16  1  0
 16  9  1  0
 17 15  1  0
 17 19  1  0
 18 17  2  0
M  END
$$$$
