VSG.pdb
     RDKit          3D

 18 17  0  0  1  0  0  0  0  0999 V2000
   18.3366   -6.7473  -18.1009 C   0  0  0  0  0  0  0  0  0  0  0  0
   17.3864   -7.5654  -17.2547 C   0  0  1  0  0  0  0  0  0  0  0  0
   16.7000   -8.5828  -18.1349 C   0  0  0  0  0  0  0  0  0  0  0  0
   18.0904   -8.2624  -16.1238 C   0  0  2  0  0  0  0  0  0  0  0  0
   17.1148   -9.0190  -15.3588 N   0  0  0  0  0  0  0  0  0  0  0  0
   18.7807   -7.3017  -15.2182 C   0  0  0  0  0  0  0  0  0  0  0  0
   18.1301   -6.5563  -14.4515 O   0  0  0  0  0  0  0  0  0  0  0  0
   21.8916   -7.5211  -12.5647 O   0  0  0  0  0  0  0  0  0  0  0  0
   22.1574   -6.9186  -13.7696 C   0  0  0  0  0  0  0  0  0  0  0  0
   20.9534   -6.2901  -14.4142 C   0  0  2  0  0  0  0  0  0  0  0  0
   20.1852   -7.2128  -15.2064 N   0  0  0  0  0  0  0  0  0  0  0  0
   21.2735   -5.0566  -15.1517 C   0  0  0  0  0  0  0  0  0  0  0  0
   21.6973   -5.1250  -16.3194 O   0  0  0  0  0  0  0  0  0  0  0  0
   21.1083   -3.7830  -14.5566 N   0  0  0  0  0  0  0  0  0  0  0  0
   21.3414   -2.5614  -15.3041 C   0  0  0  0  0  0  0  0  0  0  0  0
   21.0453   -1.3835  -14.4753 C   0  0  0  0  0  0  0  0  0  0  0  0
   21.3326   -0.1201  -14.9992 O   0  0  0  0  0  0  0  0  0  0  0  0
   20.5449   -1.4912  -13.3192 O   0  0  0  0  0  0  0  0  0  0  0  0
  2  1  1  6
  2  3  1  0
  4  2  1  0
  4  5  1  1
  6  4  1  0
  6 11  1  0
  7  6  2  0
  9  8  1  0
 10 11  1  0
 10  9  1  6
 12 10  1  0
 13 12  2  0
 14 12  1  0
 15 14  1  0
 15 16  1  0
 16 18  2  0
 16 17  1  0
M  END
$$$$
