VSG.pdb
     RDKit          3D

 18 17  0  0  1  0  0  0  0  0999 V2000
   19.4310  -10.1777  -18.7604 C   0  0  0  0  0  0  0  0  0  0  0  0
   18.8351  -11.3669  -18.0402 C   0  0  1  0  0  0  0  0  0  0  0  0
   18.1687  -12.2681  -19.0524 C   0  0  0  0  0  0  0  0  0  0  0  0
   19.8694  -12.1414  -17.2716 C   0  0  2  0  0  0  0  0  0  0  0  0
   19.2329  -13.2937  -16.6580 N   0  0  0  0  0  0  0  0  0  0  0  0
   20.5108  -11.3164  -16.2097 C   0  0  0  0  0  0  0  0  0  0  0  0
   19.8650  -10.9421  -15.2050 O   0  0  0  0  0  0  0  0  0  0  0  0
   24.0779  -11.9538  -14.8302 O   0  0  0  0  0  0  0  0  0  0  0  0
   23.9862  -10.6152  -15.1215 C   0  0  0  0  0  0  0  0  0  0  0  0
   22.5802  -10.1393  -15.3597 C   0  0  2  0  0  0  0  0  0  0  0  0
   21.8627  -10.9394  -16.3156 N   0  0  0  0  0  0  0  0  0  0  0  0
   22.5036   -8.7017  -15.6688 C   0  0  0  0  0  0  0  0  0  0  0  0
   22.6616   -8.3104  -16.8393 O   0  0  0  0  0  0  0  0  0  0  0  0
   22.2521   -7.7463  -14.6553 N   0  0  0  0  0  0  0  0  0  0  0  0
   22.1862   -6.3273  -14.9512 C   0  0  0  0  0  0  0  0  0  0  0  0
   22.0032   -5.5497  -13.7167 C   0  0  0  0  0  0  0  0  0  0  0  0
   22.8586   -5.8084  -12.6422 O   0  0  0  0  0  0  0  0  0  0  0  0
   21.1032   -4.6681  -13.6120 O   0  0  0  0  0  0  0  0  0  0  0  0
  2  1  1  6
  2  3  1  0
  4  2  1  0
  4  5  1  1
  6  4  1  0
  6 11  1  0
  7  6  2  0
  9  8  1  0
 10 11  1  0
 10  9  1  6
 12 10  1  0
 13 12  2  0
 14 12  1  0
 15 14  1  0
 15 16  1  0
 16 18  2  0
 16 17  1  0
M  END
$$$$
