VSG.pdb
     RDKit          3D

 18 17  0  0  1  0  0  0  0  0999 V2000
   20.6967  -22.5089  -14.6105 C   0  0  0  0  0  0  0  0  0  0  0  0
   22.0424  -21.9772  -14.1695 C   0  0  1  0  0  0  0  0  0  0  0  0
   22.8244  -21.5528  -15.3898 C   0  0  0  0  0  0  0  0  0  0  0  0
   21.9114  -20.8188  -13.2201 C   0  0  2  0  0  0  0  0  0  0  0  0
   21.1473  -19.7663  -13.8664 N   0  0  0  0  0  0  0  0  0  0  0  0
   23.2380  -20.2774  -12.8122 C   0  0  0  0  0  0  0  0  0  0  0  0
   23.7459  -19.2993  -13.4054 O   0  0  0  0  0  0  0  0  0  0  0  0
   24.8132  -20.3904   -8.9814 O   0  0  0  0  0  0  0  0  0  0  0  0
   25.6223  -20.9375   -9.9464 C   0  0  0  0  0  0  0  0  0  0  0  0
   25.2841  -20.4992  -11.3442 C   0  0  2  0  0  0  0  0  0  0  0  0
   23.9504  -20.8580  -11.7462 N   0  0  0  0  0  0  0  0  0  0  0  0
   26.2928  -20.9084  -12.3357 C   0  0  0  0  0  0  0  0  0  0  0  0
   26.4562  -22.1150  -12.5916 O   0  0  0  0  0  0  0  0  0  0  0  0
   27.0879  -19.9513  -13.0104 N   0  0  0  0  0  0  0  0  0  0  0  0
   28.1766  -20.3502  -13.8828 C   0  0  0  0  0  0  0  0  0  0  0  0
   27.7196  -20.4264  -15.2783 C   0  0  0  0  0  0  0  0  0  0  0  0
   28.6697  -20.2743  -16.2920 O   0  0  0  0  0  0  0  0  0  0  0  0
   26.5058  -20.6232  -15.5720 O   0  0  0  0  0  0  0  0  0  0  0  0
  2  1  1  6
  2  3  1  0
  4  2  1  0
  4  5  1  6
  6  4  1  0
  6 11  1  0
  7  6  2  0
  9  8  1  0
 10 11  1  0
 10  9  1  1
 12 10  1  0
 13 12  2  0
 14 12  1  0
 15 14  1  0
 15 16  1  0
 16 18  2  0
 16 17  1  0
M  END
$$$$
