VSG.pdb
     RDKit          3D

 18 17  0  0  1  0  0  0  0  0999 V2000
   20.5440  -20.6387  -18.1976 C   0  0  0  0  0  0  0  0  0  0  0  0
   19.0515  -20.8806  -18.1543 C   0  0  1  0  0  0  0  0  0  0  0  0
   18.7745  -22.3053  -18.5717 C   0  0  0  0  0  0  0  0  0  0  0  0
   18.4753  -20.6286  -16.7887 C   0  0  2  0  0  0  0  0  0  0  0  0
   17.0481  -20.8956  -16.8248 N   0  0  0  0  0  0  0  0  0  0  0  0
   18.6971  -19.2259  -16.3383 C   0  0  0  0  0  0  0  0  0  0  0  0
   18.0843  -18.2729  -16.8701 O   0  0  0  0  0  0  0  0  0  0  0  0
   20.6065  -18.7776  -12.7464 O   0  0  0  0  0  0  0  0  0  0  0  0
   19.9663  -17.6646  -13.2328 C   0  0  0  0  0  0  0  0  0  0  0  0
   19.8371  -17.6429  -14.7305 C   0  0  2  0  0  0  0  0  0  0  0  0
   19.6048  -18.9429  -15.3006 N   0  0  0  0  0  0  0  0  0  0  0  0
   20.9447  -16.9348  -15.3936 C   0  0  0  0  0  0  0  0  0  0  0  0
   21.8881  -17.5811  -15.8838 O   0  0  0  0  0  0  0  0  0  0  0  0
   20.9606  -15.5226  -15.4867 N   0  0  0  0  0  0  0  0  0  0  0  0
   22.1069  -14.8113  -16.0209 C   0  0  0  0  0  0  0  0  0  0  0  0
   21.8880  -13.3585  -15.9607 C   0  0  0  0  0  0  0  0  0  0  0  0
   22.9548  -12.5173  -16.2886 O   0  0  0  0  0  0  0  0  0  0  0  0
   20.7733  -12.8662  -15.6239 O   0  0  0  0  0  0  0  0  0  0  0  0
  2  1  1  1
  2  3  1  0
  4  2  1  0
  4  5  1  6
  6  4  1  0
  6 11  1  0
  7  6  2  0
  9  8  1  0
 10 11  1  0
 10  9  1  1
 12 10  1  0
 13 12  2  0
 14 12  1  0
 15 14  1  0
 15 16  1  0
 16 18  2  0
 16 17  1  0
M  END
$$$$
