VSG.pdb
     RDKit          3D

 18 17  0  0  1  0  0  0  0  0999 V2000
   27.6372  -25.6305  -18.0130 C   0  0  0  0  0  0  0  0  0  0  0  0
   27.1951  -24.4885  -17.1250 C   0  0  1  0  0  0  0  0  0  0  0  0
   27.1532  -24.9695  -15.6940 C   0  0  0  0  0  0  0  0  0  0  0  0
   28.1065  -23.2979  -17.2358 C   0  0  2  0  0  0  0  0  0  0  0  0
   29.4429  -23.6898  -16.8236 N   0  0  0  0  0  0  0  0  0  0  0  0
   27.6484  -22.1623  -16.3872 C   0  0  0  0  0  0  0  0  0  0  0  0
   28.2949  -21.8118  -15.3744 O   0  0  0  0  0  0  0  0  0  0  0  0
   27.3020  -18.5596  -16.9125 O   0  0  0  0  0  0  0  0  0  0  0  0
   26.0261  -19.0409  -16.7520 C   0  0  0  0  0  0  0  0  0  0  0  0
   25.9546  -20.3300  -15.9818 C   0  0  2  0  0  0  0  0  0  0  0  0
   26.4737  -21.4572  -16.7092 N   0  0  0  0  0  0  0  0  0  0  0  0
   24.6171  -20.5951  -15.4261 C   0  0  0  0  0  0  0  0  0  0  0  0
   23.8179  -21.3153  -16.0511 O   0  0  0  0  0  0  0  0  0  0  0  0
   24.2164  -20.0440  -14.1855 N   0  0  0  0  0  0  0  0  0  0  0  0
   22.9499  -20.3988  -13.5724 C   0  0  0  0  0  0  0  0  0  0  0  0
   21.8311  -19.7925  -14.3091 C   0  0  0  0  0  0  0  0  0  0  0  0
   20.5300  -20.1185  -13.9165 O   0  0  0  0  0  0  0  0  0  0  0  0
   22.0214  -18.9968  -15.2729 O   0  0  0  0  0  0  0  0  0  0  0  0
  2  1  1  6
  2  3  1  0
  4  2  1  0
  4  5  1  1
  6  4  1  0
  6 11  1  0
  7  6  2  0
  9  8  1  0
 10 11  1  0
 10  9  1  6
 12 10  1  0
 13 12  2  0
 14 12  1  0
 15 14  1  0
 15 16  1  0
 16 18  2  0
 16 17  1  0
M  END
$$$$
