VSG.pdb
     RDKit          3D

 18 17  0  0  1  0  0  0  0  0999 V2000
   16.9965  -11.7824  -18.8996 C   0  0  0  0  0  0  0  0  0  0  0  0
   17.6704  -10.8547  -17.9130 C   0  0  1  0  0  0  0  0  0  0  0  0
   16.6201   -9.9857  -17.2629 C   0  0  0  0  0  0  0  0  0  0  0  0
   18.4342  -11.6061  -16.8583 C   0  0  2  0  0  0  0  0  0  0  0  0
   17.5122  -12.4593  -16.1293 N   0  0  0  0  0  0  0  0  0  0  0  0
   19.1118  -10.6895  -15.8990 C   0  0  0  0  0  0  0  0  0  0  0  0
   18.4783  -10.1525  -14.9625 O   0  0  0  0  0  0  0  0  0  0  0  0
   23.4169  -10.3099  -15.8641 O   0  0  0  0  0  0  0  0  0  0  0  0
   22.5865  -10.1041  -14.7901 C   0  0  0  0  0  0  0  0  0  0  0  0
   21.2410   -9.5447  -15.1598 C   0  0  2  0  0  0  0  0  0  0  0  0
   20.4847  -10.4076  -16.0273 N   0  0  0  0  0  0  0  0  0  0  0  0
   21.3116   -8.1657  -15.6711 C   0  0  0  0  0  0  0  0  0  0  0  0
   21.2356   -7.9539  -16.8948 O   0  0  0  0  0  0  0  0  0  0  0  0
   21.4655   -7.0656  -14.7939 N   0  0  0  0  0  0  0  0  0  0  0  0
   21.6404   -5.7153  -15.2955 C   0  0  0  0  0  0  0  0  0  0  0  0
   21.8120   -4.7689  -14.1833 C   0  0  0  0  0  0  0  0  0  0  0  0
   22.1287   -3.4426  -14.4897 O   0  0  0  0  0  0  0  0  0  0  0  0
   21.6808   -5.1266  -12.9779 O   0  0  0  0  0  0  0  0  0  0  0  0
  2  1  1  6
  2  3  1  0
  4  2  1  0
  4  5  1  1
  6  4  1  0
  6 11  1  0
  7  6  2  0
  9  8  1  0
 10 11  1  0
 10  9  1  6
 12 10  1  0
 13 12  2  0
 14 12  1  0
 15 14  1  0
 15 16  1  0
 16 18  2  0
 16 17  1  0
M  END
$$$$
