VSG.pdb
     RDKit          3D

 18 17  0  0  1  0  0  0  0  0999 V2000
   23.7881  -10.1239  -14.8610 C   0  0  0  0  0  0  0  0  0  0  0  0
   23.1303  -10.8928  -15.9853 C   0  0  1  0  0  0  0  0  0  0  0  0
   23.7603  -12.2625  -16.0752 C   0  0  0  0  0  0  0  0  0  0  0  0
   21.6458  -11.0268  -15.7885 C   0  0  2  0  0  0  0  0  0  0  0  0
   21.0932  -11.7923  -16.8922 N   0  0  0  0  0  0  0  0  0  0  0  0
   20.9681   -9.7015  -15.7275 C   0  0  0  0  0  0  0  0  0  0  0  0
   20.7995   -9.0147  -16.7603 O   0  0  0  0  0  0  0  0  0  0  0  0
   17.8991   -6.7799  -13.5277 O   0  0  0  0  0  0  0  0  0  0  0  0
   18.5363   -7.9905  -13.6444 C   0  0  0  0  0  0  0  0  0  0  0  0
   19.8787   -7.9091  -14.3164 C   0  0  2  0  0  0  0  0  0  0  0  0
   20.5014   -9.1925  -14.5011 N   0  0  0  0  0  0  0  0  0  0  0  0
   20.7838   -6.9386  -13.6786 C   0  0  0  0  0  0  0  0  0  0  0  0
   21.4902   -7.2896  -12.7164 O   0  0  0  0  0  0  0  0  0  0  0  0
   20.8691   -5.6031  -14.1397 N   0  0  0  0  0  0  0  0  0  0  0  0
   21.7511   -4.6387  -13.5092 C   0  0  0  0  0  0  0  0  0  0  0  0
   21.6174   -3.3209  -14.1478 C   0  0  0  0  0  0  0  0  0  0  0  0
   22.3850   -2.2655  -13.6478 O   0  0  0  0  0  0  0  0  0  0  0  0
   20.8354   -3.1293  -15.1225 O   0  0  0  0  0  0  0  0  0  0  0  0
  2  1  1  1
  2  3  1  0
  4  2  1  0
  4  5  1  6
  6  4  1  0
  6 11  1  0
  7  6  2  0
  9  8  1  0
 10 11  1  0
 10  9  1  1
 12 10  1  0
 13 12  2  0
 14 12  1  0
 15 14  1  0
 15 16  1  0
 16 18  2  0
 16 17  1  0
M  END
$$$$
