VSG.pdb
     RDKit          3D

 18 17  0  0  1  0  0  0  0  0999 V2000
   17.8639   -9.6898  -17.7450 C   0  0  0  0  0  0  0  0  0  0  0  0
   17.5767  -11.0089  -17.0627 C   0  0  1  0  0  0  0  0  0  0  0  0
   16.5526  -11.7665  -17.8741 C   0  0  0  0  0  0  0  0  0  0  0  0
   18.8158  -11.8443  -16.8983 C   0  0  2  0  0  0  0  0  0  0  0  0
   18.4645  -13.0752  -16.2120 N   0  0  0  0  0  0  0  0  0  0  0  0
   19.8687  -11.1353  -16.1185 C   0  0  0  0  0  0  0  0  0  0  0  0
   19.7266  -10.9143  -14.8947 O   0  0  0  0  0  0  0  0  0  0  0  0
   24.4835   -9.6369  -15.9503 O   0  0  0  0  0  0  0  0  0  0  0  0
   23.4732  -10.3175  -16.5839 C   0  0  0  0  0  0  0  0  0  0  0  0
   22.0965   -9.9405  -16.1119 C   0  0  2  0  0  0  0  0  0  0  0  0
   21.0504  -10.6976  -16.7454 N   0  0  0  0  0  0  0  0  0  0  0  0
   21.8457   -8.4907  -16.1681 C   0  0  0  0  0  0  0  0  0  0  0  0
   21.4522   -7.9705  -17.2276 O   0  0  0  0  0  0  0  0  0  0  0  0
   22.0439   -7.6679  -15.0335 N   0  0  0  0  0  0  0  0  0  0  0  0
   21.8318   -6.2336  -15.0913 C   0  0  0  0  0  0  0  0  0  0  0  0
   22.1382   -5.6130  -13.7939 C   0  0  0  0  0  0  0  0  0  0  0  0
   22.0466   -4.2223  -13.6908 O   0  0  0  0  0  0  0  0  0  0  0  0
   22.4765   -6.3019  -12.7893 O   0  0  0  0  0  0  0  0  0  0  0  0
  2  1  1  6
  2  3  1  0
  4  2  1  0
  4  5  1  1
  6  4  1  0
  6 11  1  0
  7  6  2  0
  9  8  1  0
 10 11  1  0
 10  9  1  6
 12 10  1  0
 13 12  2  0
 14 12  1  0
 15 14  1  0
 15 16  1  0
 16 18  2  0
 16 17  1  0
M  END
$$$$
