VSG.pdb
     RDKit          3D

 18 17  0  0  1  0  0  0  0  0999 V2000
   16.5812  -11.1836  -16.9398 C   0  0  0  0  0  0  0  0  0  0  0  0
   17.5317  -10.6535  -15.8892 C   0  0  1  0  0  0  0  0  0  0  0  0
   18.5445  -11.7247  -15.5609 C   0  0  0  0  0  0  0  0  0  0  0  0
   18.2382   -9.4057  -16.3411 C   0  0  2  0  0  0  0  0  0  0  0  0
   18.9457   -9.6885  -17.5776 N   0  0  0  0  0  0  0  0  0  0  0  0
   19.2107   -8.9147  -15.3249 C   0  0  0  0  0  0  0  0  0  0  0  0
   18.8349   -8.5907  -14.1758 O   0  0  0  0  0  0  0  0  0  0  0  0
   22.8055  -10.3274  -14.1922 O   0  0  0  0  0  0  0  0  0  0  0  0
   22.8750   -9.1065  -14.8166 C   0  0  0  0  0  0  0  0  0  0  0  0
   21.5983   -8.3154  -14.7498 C   0  0  2  0  0  0  0  0  0  0  0  0
   20.5784   -8.8047  -15.6382 N   0  0  0  0  0  0  0  0  0  0  0  0
   21.8114   -6.8655  -14.8928 C   0  0  0  0  0  0  0  0  0  0  0  0
   21.7343   -6.3357  -16.0160 O   0  0  0  0  0  0  0  0  0  0  0  0
   22.1045   -6.0535  -13.7712 N   0  0  0  0  0  0  0  0  0  0  0  0
   22.3391   -4.6281  -13.9082 C   0  0  0  0  0  0  0  0  0  0  0  0
   21.0841   -3.8795  -13.7451 C   0  0  0  0  0  0  0  0  0  0  0  0
   19.9002   -4.6049  -13.5852 O   0  0  0  0  0  0  0  0  0  0  0  0
   21.0573   -2.6156  -13.7468 O   0  0  0  0  0  0  0  0  0  0  0  0
  2  1  1  6
  2  3  1  0
  4  2  1  0
  4  5  1  6
  6  4  1  0
  6 11  1  0
  7  6  2  0
  9  8  1  0
 10 11  1  0
 10  9  1  6
 12 10  1  0
 13 12  2  0
 14 12  1  0
 15 14  1  0
 15 16  1  0
 16 18  2  0
 16 17  1  0
M  END
$$$$
