VSG.pdb
     RDKit          3D

 18 17  0  0  1  0  0  0  0  0999 V2000
   15.8632  -10.6395  -16.9923 C   0  0  0  0  0  0  0  0  0  0  0  0
   17.0304  -10.0832  -16.2072 C   0  0  1  0  0  0  0  0  0  0  0  0
   16.6238   -9.9431  -14.7595 C   0  0  0  0  0  0  0  0  0  0  0  0
   18.2512  -10.9545  -16.3116 C   0  0  2  0  0  0  0  0  0  0  0  0
   17.9435  -12.2617  -15.7583 N   0  0  0  0  0  0  0  0  0  0  0  0
   19.4140  -10.3776  -15.5805 C   0  0  0  0  0  0  0  0  0  0  0  0
   19.6678  -10.7155  -14.4023 O   0  0  0  0  0  0  0  0  0  0  0  0
   22.9849  -10.0892  -16.8902 O   0  0  0  0  0  0  0  0  0  0  0  0
   22.6225   -8.8333  -16.4700 C   0  0  0  0  0  0  0  0  0  0  0  0
   21.4001   -8.8136  -15.5951 C   0  0  2  0  0  0  0  0  0  0  0  0
   20.2548   -9.4362  -16.2032 N   0  0  0  0  0  0  0  0  0  0  0  0
   21.0905   -7.4738  -15.0687 C   0  0  0  0  0  0  0  0  0  0  0  0
   20.2244   -6.7746  -15.6245 O   0  0  0  0  0  0  0  0  0  0  0  0
   21.7620   -6.9589  -13.9341 N   0  0  0  0  0  0  0  0  0  0  0  0
   21.4647   -5.6379  -13.4125 C   0  0  0  0  0  0  0  0  0  0  0  0
   22.2032   -4.6088  -14.1593 C   0  0  0  0  0  0  0  0  0  0  0  0
   22.0123   -3.2712  -13.8022 O   0  0  0  0  0  0  0  0  0  0  0  0
   22.9927   -4.9068  -15.1007 O   0  0  0  0  0  0  0  0  0  0  0  0
  2  1  1  6
  2  3  1  0
  4  2  1  0
  4  5  1  1
  6  4  1  0
  6 11  1  0
  7  6  2  0
  9  8  1  0
 10 11  1  0
 10  9  1  6
 12 10  1  0
 13 12  2  0
 14 12  1  0
 15 14  1  0
 15 16  1  0
 16 18  2  0
 16 17  1  0
M  END
$$$$
