VSG.pdb
     RDKit          3D

 18 17  0  0  1  0  0  0  0  0999 V2000
   15.0974   -7.3979  -12.8084 C   0  0  0  0  0  0  0  0  0  0  0  0
   14.9186   -8.6874  -12.0381 C   0  0  1  0  0  0  0  0  0  0  0  0
   13.4612   -9.0815  -12.0757 C   0  0  0  0  0  0  0  0  0  0  0  0
   15.7621   -9.8014  -12.5929 C   0  0  2  0  0  0  0  0  0  0  0  0
   15.5396  -10.9981  -11.8005 N   0  0  0  0  0  0  0  0  0  0  0  0
   17.2138   -9.4669  -12.5727 C   0  0  0  0  0  0  0  0  0  0  0  0
   17.8762   -9.5318  -11.5127 O   0  0  0  0  0  0  0  0  0  0  0  0
   20.0070  -10.8312  -15.1588 O   0  0  0  0  0  0  0  0  0  0  0  0
   19.8321   -9.4694  -15.1797 C   0  0  0  0  0  0  0  0  0  0  0  0
   19.2944   -8.9053  -13.8940 C   0  0  2  0  0  0  0  0  0  0  0  0
   17.8726   -9.0692  -13.7511 N   0  0  0  0  0  0  0  0  0  0  0  0
   19.7213   -7.5171  -13.6515 C   0  0  0  0  0  0  0  0  0  0  0  0
   18.9655   -6.5752  -13.9508 O   0  0  0  0  0  0  0  0  0  0  0  0
   20.9835   -7.2275  -13.0804 N   0  0  0  0  0  0  0  0  0  0  0  0
   21.3985   -5.8633  -12.8115 C   0  0  0  0  0  0  0  0  0  0  0  0
   21.7461   -5.1726  -14.0622 C   0  0  0  0  0  0  0  0  0  0  0  0
   21.5602   -5.8570  -15.2664 O   0  0  0  0  0  0  0  0  0  0  0  0
   22.2015   -3.9932  -14.0675 O   0  0  0  0  0  0  0  0  0  0  0  0
  2  1  1  6
  2  3  1  0
  4  2  1  0
  4  5  1  1
  6  4  1  0
  6 11  1  0
  7  6  2  0
  9  8  1  0
 10 11  1  0
 10  9  1  6
 12 10  1  0
 13 12  2  0
 14 12  1  0
 15 14  1  0
 15 16  1  0
 16 18  2  0
 16 17  1  0
M  END
$$$$
