VSG.pdb
     RDKit          3D

 18 17  0  0  1  0  0  0  0  0999 V2000
   15.2001  -10.7599  -10.7574 C   0  0  0  0  0  0  0  0  0  0  0  0
   13.7551  -10.6879  -10.3158 C   0  0  1  0  0  0  0  0  0  0  0  0
   13.3146  -12.0582   -9.8584 C   0  0  0  0  0  0  0  0  0  0  0  0
   13.5490   -9.6908   -9.2096 C   0  0  2  0  0  0  0  0  0  0  0  0
   12.1381   -9.6555   -8.8664 N   0  0  0  0  0  0  0  0  0  0  0  0
   13.9895   -8.3225   -9.6009 C   0  0  0  0  0  0  0  0  0  0  0  0
   13.3114   -7.6274  -10.3907 O   0  0  0  0  0  0  0  0  0  0  0  0
   14.9535   -5.1496   -7.6225 O   0  0  0  0  0  0  0  0  0  0  0  0
   16.0623   -5.6371   -8.2692 C   0  0  0  0  0  0  0  0  0  0  0  0
   15.7428   -6.5075   -9.4526 C   0  0  2  0  0  0  0  0  0  0  0  0
   15.1830   -7.7812   -9.0877 N   0  0  0  0  0  0  0  0  0  0  0  0
   16.8715   -6.6437  -10.3884 C   0  0  0  0  0  0  0  0  0  0  0  0
   17.8434   -7.3596  -10.0869 O   0  0  0  0  0  0  0  0  0  0  0  0
   16.8756   -5.9725  -11.6345 N   0  0  0  0  0  0  0  0  0  0  0  0
   17.9898   -6.0929  -12.5563 C   0  0  0  0  0  0  0  0  0  0  0  0
   17.7188   -5.3485  -13.7950 C   0  0  0  0  0  0  0  0  0  0  0  0
   18.7096   -5.3260  -14.7804 O   0  0  0  0  0  0  0  0  0  0  0  0
   16.6263   -4.7400  -13.9810 O   0  0  0  0  0  0  0  0  0  0  0  0
  2  1  1  1
  2  3  1  0
  4  2  1  0
  4  5  1  6
  6  4  1  0
  6 11  1  0
  7  6  2  0
  9  8  1  0
 10 11  1  0
 10  9  1  1
 12 10  1  0
 13 12  2  0
 14 12  1  0
 15 14  1  0
 15 16  1  0
 16 18  2  0
 16 17  1  0
M  END
$$$$
