VSG.pdb
     RDKit          3D

 18 17  0  0  1  0  0  0  0  0999 V2000
   18.0607   -9.4507  -18.1722 C   0  0  0  0  0  0  0  0  0  0  0  0
   17.6502  -10.7972  -17.6185 C   0  0  1  0  0  0  0  0  0  0  0  0
   16.9011  -11.5576  -18.6869 C   0  0  0  0  0  0  0  0  0  0  0  0
   18.8308  -11.6030  -17.1526 C   0  0  2  0  0  0  0  0  0  0  0  0
   18.3578  -12.8804  -16.6486 N   0  0  0  0  0  0  0  0  0  0  0  0
   19.5933  -10.9077  -16.0780 C   0  0  0  0  0  0  0  0  0  0  0  0
   19.1163  -10.7793  -14.9279 O   0  0  0  0  0  0  0  0  0  0  0  0
   23.8195  -10.1772  -16.3926 O   0  0  0  0  0  0  0  0  0  0  0  0
   23.0699  -10.2484  -15.2444 C   0  0  0  0  0  0  0  0  0  0  0  0
   21.6876   -9.6739  -15.3837 C   0  0  2  0  0  0  0  0  0  0  0  0
   20.8717  -10.3785  -16.3359 N   0  0  0  0  0  0  0  0  0  0  0  0
   21.6894   -8.2207  -15.6206 C   0  0  0  0  0  0  0  0  0  0  0  0
   21.5666   -7.7814  -16.7782 O   0  0  0  0  0  0  0  0  0  0  0  0
   21.8290   -7.3038  -14.5514 N   0  0  0  0  0  0  0  0  0  0  0  0
   22.0025   -5.8829  -14.7895 C   0  0  0  0  0  0  0  0  0  0  0  0
   22.0442   -5.1469  -13.5172 C   0  0  0  0  0  0  0  0  0  0  0  0
   22.3804   -3.7907  -13.5513 O   0  0  0  0  0  0  0  0  0  0  0  0
   21.7863   -5.7081  -12.4142 O   0  0  0  0  0  0  0  0  0  0  0  0
  2  1  1  6
  2  3  1  0
  4  2  1  0
  4  5  1  1
  6  4  1  0
  6 11  1  0
  7  6  2  0
  9  8  1  0
 10 11  1  0
 10  9  1  6
 12 10  1  0
 13 12  2  0
 14 12  1  0
 15 14  1  0
 15 16  1  0
 16 18  2  0
 16 17  1  0
M  END
$$$$
