VSG.pdb
     RDKit          3D

 18 17  0  0  1  0  0  0  0  0999 V2000
   15.2327  -10.5830  -12.7156 C   0  0  0  0  0  0  0  0  0  0  0  0
   16.2322   -9.4994  -13.0548 C   0  0  1  0  0  0  0  0  0  0  0  0
   15.5111   -8.1744  -13.1278 C   0  0  0  0  0  0  0  0  0  0  0  0
   17.3454   -9.4188  -12.0475 C   0  0  2  0  0  0  0  0  0  0  0  0
   16.7746   -9.1640  -10.7365 N   0  0  0  0  0  0  0  0  0  0  0  0
   18.3175   -8.3381  -12.3738 C   0  0  0  0  0  0  0  0  0  0  0  0
   18.2509   -7.2199  -11.8153 O   0  0  0  0  0  0  0  0  0  0  0  0
   22.3323   -8.6148  -13.2790 O   0  0  0  0  0  0  0  0  0  0  0  0
   21.5509   -8.1078  -14.2877 C   0  0  0  0  0  0  0  0  0  0  0  0
   20.2370   -7.5488  -13.8170 C   0  0  2  0  0  0  0  0  0  0  0  0
   19.3356   -8.5541  -13.3213 N   0  0  0  0  0  0  0  0  0  0  0  0
   19.5973   -6.6688  -14.8092 C   0  0  0  0  0  0  0  0  0  0  0  0
   18.9011   -7.1603  -15.7158 O   0  0  0  0  0  0  0  0  0  0  0  0
   19.7579   -5.2636  -14.7544 N   0  0  0  0  0  0  0  0  0  0  0  0
   19.0927   -4.3874  -15.7006 C   0  0  0  0  0  0  0  0  0  0  0  0
   19.3089   -2.9782  -15.3406 C   0  0  0  0  0  0  0  0  0  0  0  0
   18.7677   -1.9950  -16.1734 O   0  0  0  0  0  0  0  0  0  0  0  0
   19.9632   -2.6466  -14.3109 O   0  0  0  0  0  0  0  0  0  0  0  0
  2  1  1  1
  2  3  1  0
  4  2  1  0
  4  5  1  1
  6  4  1  0
  6 11  1  0
  7  6  2  0
  9  8  1  0
 10 11  1  0
 10  9  1  6
 12 10  1  0
 13 12  2  0
 14 12  1  0
 15 14  1  0
 15 16  1  0
 16 18  2  0
 16 17  1  0
M  END
$$$$
