VSG.pdb
     RDKit          3D

 18 17  0  0  1  0  0  0  0  0999 V2000
   17.8159   -6.7315  -17.6354 C   0  0  0  0  0  0  0  0  0  0  0  0
   16.8444   -7.6627  -16.9446 C   0  0  1  0  0  0  0  0  0  0  0  0
   15.8180   -8.1312  -17.9485 C   0  0  0  0  0  0  0  0  0  0  0  0
   17.5346   -8.8488  -16.3303 C   0  0  2  0  0  0  0  0  0  0  0  0
   16.5398   -9.6903  -15.6887 N   0  0  0  0  0  0  0  0  0  0  0  0
   18.5528   -8.4425  -15.3215 C   0  0  0  0  0  0  0  0  0  0  0  0
   18.2139   -8.0810  -14.1720 O   0  0  0  0  0  0  0  0  0  0  0  0
   23.0281   -9.0243  -13.7502 O   0  0  0  0  0  0  0  0  0  0  0  0
   22.0280   -9.2610  -14.6607 C   0  0  0  0  0  0  0  0  0  0  0  0
   20.9946   -8.1711  -14.7264 C   0  0  2  0  0  0  0  0  0  0  0  0
   19.9230   -8.4572  -15.6423 N   0  0  0  0  0  0  0  0  0  0  0  0
   21.5776   -6.8379  -14.9517 C   0  0  0  0  0  0  0  0  0  0  0  0
   21.9056   -6.4912  -16.1007 O   0  0  0  0  0  0  0  0  0  0  0  0
   21.7751   -5.9337  -13.8809 N   0  0  0  0  0  0  0  0  0  0  0  0
   22.3091   -4.6027  -14.1017 C   0  0  0  0  0  0  0  0  0  0  0  0
   21.2325   -3.6658  -14.4555 C   0  0  0  0  0  0  0  0  0  0  0  0
   20.8244   -2.7375  -13.4937 O   0  0  0  0  0  0  0  0  0  0  0  0
   20.6799   -3.6846  -15.5924 O   0  0  0  0  0  0  0  0  0  0  0  0
  2  1  1  6
  2  3  1  0
  4  2  1  0
  4  5  1  1
  6  4  1  0
  6 11  1  0
  7  6  2  0
  9  8  1  0
 10 11  1  0
 10  9  1  6
 12 10  1  0
 13 12  2  0
 14 12  1  0
 15 14  1  0
 15 16  1  0
 16 18  2  0
 16 17  1  0
M  END
$$$$
