EPW.pdb
     RDKit          3D

 31 33  0  0  1  0  0  0  0  0999 V2000
   26.0735  -22.8094  -17.1220 N   0  0  0  0  0  0  0  0  0  0  0  0
   26.1430  -21.5460  -16.4167 C   0  0  1  0  0  0  0  0  0  0  0  0
   24.8285  -20.8622  -16.6275 C   0  0  0  0  0  0  0  0  0  0  0  0
   23.9180  -21.0897  -15.4760 C   0  0  0  0  0  0  0  0  0  0  0  0
   22.6136  -20.3892  -15.7669 C   0  0  0  0  0  0  0  0  0  0  0  0
   22.0317  -19.7209  -14.8859 O   0  0  0  0  0  0  0  0  0  0  0  0
   26.5851  -21.6789  -15.0320 C   0  0  0  0  0  0  0  0  0  0  0  0
   26.4510  -22.7793  -14.4045 O   0  0  0  0  0  0  0  0  0  0  0  0
   22.0894  -20.5156  -17.0416 O   0  0  0  0  0  0  0  0  0  0  0  0
   27.1947  -20.6173  -14.2680 N   0  0  0  0  0  0  0  0  0  0  0  0
   27.2998  -19.2775  -14.7736 C   0  0  0  0  0  0  0  0  0  0  0  0
   28.0856  -18.5083  -13.7703 C   0  0  0  0  0  0  0  0  0  0  0  0
   28.7631  -19.5670  -12.9362 C   0  0  0  0  0  0  0  0  0  0  0  0
   27.7643  -20.7306  -12.9593 C   0  0  1  0  0  0  0  0  0  0  0  0
   26.7778  -20.4073  -11.8826 C   0  0  0  0  0  0  0  0  0  0  0  0
   25.8043  -19.6605  -12.1505 O   0  0  0  0  0  0  0  0  0  0  0  0
   26.8950  -20.9086  -10.5704 N   0  0  0  0  0  0  0  0  0  0  0  0
   25.8094  -21.3859   -9.7576 C   0  0  1  0  0  0  0  0  0  0  0  0
   26.2545  -21.7029   -8.3426 C   0  0  0  0  0  0  0  0  0  0  0  0
   26.9193  -20.5536   -7.6986 C   0  0  0  0  0  0  0  0  0  0  0  0
   26.6776  -19.2216   -8.0011 C   0  0  0  0  0  0  0  0  0  0  0  0
   27.4668  -18.4364   -7.2169 N   0  0  0  0  0  0  0  0  0  0  0  0
   28.2121  -19.2167   -6.4159 C   0  0  0  0  0  0  0  0  0  0  0  0
   29.1492  -18.8756   -5.4619 C   0  0  0  0  0  0  0  0  0  0  0  0
   29.7849  -19.8845   -4.7657 C   0  0  0  0  0  0  0  0  0  0  0  0
   29.4610  -21.1961   -5.0485 C   0  0  0  0  0  0  0  0  0  0  0  0
   28.5115  -21.5158   -6.0160 C   0  0  0  0  0  0  0  0  0  0  0  0
   27.8815  -20.5150   -6.7060 C   0  0  0  0  0  0  0  0  0  0  0  0
   24.7862  -20.3098   -9.6668 C   0  0  0  0  0  0  0  0  0  0  0  0
   23.4605  -20.5848   -9.3609 O   0  0  0  0  0  0  0  0  0  0  0  0
   25.0997  -19.1114   -9.8671 O   0  0  0  0  0  0  0  0  0  0  0  0
  2  1  1  1
  2  3  1  0
  3  4  1  0
  5  9  1  0
  5  4  1  0
  6  5  2  0
  7 10  1  0
  7  2  1  0
  8  7  2  0
 10 11  1  0
 11 12  1  0
 12 13  1  0
 14 15  1  1
 14 10  1  0
 14 13  1  0
 15 16  2  0
 17 18  1  0
 17 15  1  0
 18 29  1  0
 18 19  1  1
 20 19  1  0
 21 20  2  0
 22 21  1  0
 23 22  1  0
 23 28  2  0
 24 23  1  0
 25 24  2  0
 25 26  1  0
 26 27  2  0
 27 28  1  0
 28 20  1  0
 29 31  2  0
 29 30  1  0
M  END
$$$$
