EPW.pdb
     RDKit          3D

 31 33  0  0  1  0  0  0  0  0999 V2000
   25.5247  -22.6719  -17.0156 N   0  0  0  0  0  0  0  0  0  0  0  0
   25.3073  -21.5532  -16.1212 C   0  0  1  0  0  0  0  0  0  0  0  0
   23.8261  -21.3624  -16.0222 C   0  0  0  0  0  0  0  0  0  0  0  0
   23.4962  -20.1458  -15.2362 C   0  0  0  0  0  0  0  0  0  0  0  0
   22.8189  -19.1631  -16.1595 C   0  0  0  0  0  0  0  0  0  0  0  0
   21.7292  -19.4391  -16.7054 O   0  0  0  0  0  0  0  0  0  0  0  0
   26.0271  -21.6734  -14.8572 C   0  0  0  0  0  0  0  0  0  0  0  0
   26.0858  -22.7864  -14.2403 O   0  0  0  0  0  0  0  0  0  0  0  0
   23.4490  -17.9502  -16.3772 O   0  0  0  0  0  0  0  0  0  0  0  0
   26.7167  -20.5849  -14.2078 N   0  0  0  0  0  0  0  0  0  0  0  0
   26.7327  -19.2577  -14.7555 C   0  0  0  0  0  0  0  0  0  0  0  0
   27.6334  -18.4530  -13.8856 C   0  0  0  0  0  0  0  0  0  0  0  0
   28.4324  -19.4811  -13.1239 C   0  0  0  0  0  0  0  0  0  0  0  0
   27.4575  -20.6569  -12.9847 C   0  0  1  0  0  0  0  0  0  0  0  0
   26.6186  -20.3171  -11.7939 C   0  0  0  0  0  0  0  0  0  0  0  0
   25.6406  -19.5423  -11.9369 O   0  0  0  0  0  0  0  0  0  0  0  0
   26.8808  -20.8332  -10.5087 N   0  0  0  0  0  0  0  0  0  0  0  0
   25.9449  -21.5557   -9.6908 C   0  0  1  0  0  0  0  0  0  0  0  0
   26.4788  -21.7957   -8.2914 C   0  0  0  0  0  0  0  0  0  0  0  0
   26.9352  -20.5480   -7.6493 C   0  0  0  0  0  0  0  0  0  0  0  0
   26.5656  -19.2695   -8.0405 C   0  0  0  0  0  0  0  0  0  0  0  0
   27.1751  -18.3617   -7.2289 N   0  0  0  0  0  0  0  0  0  0  0  0
   27.9277  -19.0107   -6.3244 C   0  0  0  0  0  0  0  0  0  0  0  0
   28.7203  -18.5180   -5.3076 C   0  0  0  0  0  0  0  0  0  0  0  0
   29.4023  -19.4115   -4.5056 C   0  0  0  0  0  0  0  0  0  0  0  0
   29.2671  -20.7634   -4.7491 C   0  0  0  0  0  0  0  0  0  0  0  0
   28.4611  -21.2370   -5.7815 C   0  0  0  0  0  0  0  0  0  0  0  0
   27.7852  -20.3505   -6.5764 C   0  0  0  0  0  0  0  0  0  0  0  0
   24.7114  -20.7349   -9.5569 C   0  0  0  0  0  0  0  0  0  0  0  0
   24.6223  -19.4561  -10.0896 O   0  0  0  0  0  0  0  0  0  0  0  0
   23.7080  -21.1832   -8.9516 O   0  0  0  0  0  0  0  0  0  0  0  0
  2  1  1  6
  2  3  1  0
  3  4  1  0
  5  9  1  0
  5  4  1  0
  6  5  2  0
  7 10  1  0
  7  2  1  0
  8  7  2  0
 10 11  1  0
 11 12  1  0
 12 13  1  0
 14 15  1  1
 14 10  1  0
 14 13  1  0
 15 16  2  0
 17 18  1  0
 17 15  1  0
 18 29  1  0
 18 19  1  1
 20 19  1  0
 21 20  2  0
 22 21  1  0
 23 22  1  0
 23 28  2  0
 24 23  1  0
 25 24  2  0
 25 26  1  0
 26 27  2  0
 27 28  1  0
 28 20  1  0
 29 31  2  0
 29 30  1  0
M  END
$$$$
