EPW.pdb
     RDKit          3D

 31 33  0  0  1  0  0  0  0  0999 V2000
   25.4382  -19.4255  -16.1489 N   0  0  0  0  0  0  0  0  0  0  0  0
   25.9717  -19.1261  -14.8357 C   0  0  1  0  0  0  0  0  0  0  0  0
   25.0126  -18.1777  -14.1873 C   0  0  0  0  0  0  0  0  0  0  0  0
   25.0336  -16.8539  -14.8611 C   0  0  0  0  0  0  0  0  0  0  0  0
   23.9863  -16.8666  -15.9474 C   0  0  0  0  0  0  0  0  0  0  0  0
   24.2775  -16.5678  -17.1253 O   0  0  0  0  0  0  0  0  0  0  0  0
   26.3197  -20.3166  -14.0664 C   0  0  0  0  0  0  0  0  0  0  0  0
   25.6691  -21.4024  -14.2099 O   0  0  0  0  0  0  0  0  0  0  0  0
   22.6970  -17.2203  -15.5897 O   0  0  0  0  0  0  0  0  0  0  0  0
   27.3942  -20.3779  -13.1052 N   0  0  0  0  0  0  0  0  0  0  0  0
   28.1897  -19.2285  -12.7767 C   0  0  0  0  0  0  0  0  0  0  0  0
   29.2596  -19.7045  -11.8578 C   0  0  0  0  0  0  0  0  0  0  0  0
   29.2765  -21.2007  -12.0486 C   0  0  0  0  0  0  0  0  0  0  0  0
   27.8151  -21.5341  -12.3730 C   0  0  1  0  0  0  0  0  0  0  0  0
   27.1429  -21.6363  -11.0409 C   0  0  0  0  0  0  0  0  0  0  0  0
   27.5730  -22.4659  -10.2018 O   0  0  0  0  0  0  0  0  0  0  0  0
   26.0392  -20.8353  -10.6842 N   0  0  0  0  0  0  0  0  0  0  0  0
   24.9552  -21.2378   -9.8299 C   0  0  1  0  0  0  0  0  0  0  0  0
   24.9248  -20.4451   -8.5371 C   0  0  0  0  0  0  0  0  0  0  0  0
   26.2588  -19.9338   -8.1674 C   0  0  0  0  0  0  0  0  0  0  0  0
   27.1722  -19.3786   -9.0516 C   0  0  0  0  0  0  0  0  0  0  0  0
   28.2928  -19.0187   -8.3669 N   0  0  0  0  0  0  0  0  0  0  0  0
   28.1351  -19.3228   -7.0675 C   0  0  0  0  0  0  0  0  0  0  0  0
   28.9934  -19.1460   -6.0012 C   0  0  0  0  0  0  0  0  0  0  0  0
   28.5845  -19.5510   -4.7460 C   0  0  0  0  0  0  0  0  0  0  0  0
   27.3339  -20.1173   -4.6029 C   0  0  0  0  0  0  0  0  0  0  0  0
   26.4850  -20.2855   -5.6941 C   0  0  0  0  0  0  0  0  0  0  0  0
   26.8910  -19.8837   -6.9385 C   0  0  0  0  0  0  0  0  0  0  0  0
   23.6763  -20.9698  -10.5411 C   0  0  0  0  0  0  0  0  0  0  0  0
   23.6440  -20.3264  -11.7707 O   0  0  0  0  0  0  0  0  0  0  0  0
   22.5810  -21.3230  -10.0413 O   0  0  0  0  0  0  0  0  0  0  0  0
  2  1  1  6
  2  3  1  0
  3  4  1  0
  5  9  1  0
  5  4  1  0
  6  5  2  0
  7 10  1  0
  7  2  1  0
  8  7  2  0
 10 11  1  0
 11 12  1  0
 12 13  1  0
 14 15  1  1
 14 10  1  0
 14 13  1  0
 15 16  2  0
 17 18  1  0
 17 15  1  0
 18 29  1  0
 18 19  1  1
 20 19  1  0
 21 20  2  0
 22 21  1  0
 23 22  1  0
 23 28  2  0
 24 23  1  0
 25 24  2  0
 25 26  1  0
 26 27  2  0
 27 28  1  0
 28 20  1  0
 29 31  2  0
 29 30  1  0
M  END
$$$$
