EPW.pdb
     RDKit          3D

 31 33  0  0  1  0  0  0  0  0999 V2000
   25.5138  -18.3958  -18.0545 N   0  0  0  0  0  0  0  0  0  0  0  0
   25.6382  -18.4351  -16.6117 C   0  0  1  0  0  0  0  0  0  0  0  0
   24.2967  -18.0761  -16.0538 C   0  0  0  0  0  0  0  0  0  0  0  0
   23.9677  -16.6539  -16.3290 C   0  0  0  0  0  0  0  0  0  0  0  0
   22.5697  -16.3923  -15.8249 C   0  0  0  0  0  0  0  0  0  0  0  0
   21.8065  -17.3356  -15.5259 O   0  0  0  0  0  0  0  0  0  0  0  0
   26.2323  -19.6723  -16.1149 C   0  0  0  0  0  0  0  0  0  0  0  0
   25.9299  -20.7972  -16.6305 O   0  0  0  0  0  0  0  0  0  0  0  0
   22.1678  -15.0731  -15.7075 O   0  0  0  0  0  0  0  0  0  0  0  0
   27.1846  -19.7394  -15.0328 N   0  0  0  0  0  0  0  0  0  0  0  0
   27.4763  -18.6047  -14.2026 C   0  0  0  0  0  0  0  0  0  0  0  0
   28.5799  -19.0194  -13.2938 C   0  0  0  0  0  0  0  0  0  0  0  0
   29.1595  -20.2488  -13.9481 C   0  0  0  0  0  0  0  0  0  0  0  0
   27.9497  -20.8852  -14.6434 C   0  0  1  0  0  0  0  0  0  0  0  0
   27.2718  -21.6821  -13.5745 C   0  0  0  0  0  0  0  0  0  0  0  0
   27.7939  -22.7579  -13.1909 O   0  0  0  0  0  0  0  0  0  0  0  0
   26.0630  -21.2742  -12.9750 N   0  0  0  0  0  0  0  0  0  0  0  0
   25.3421  -22.0025  -11.9667 C   0  0  1  0  0  0  0  0  0  0  0  0
   26.1714  -22.2127  -10.7141 C   0  0  0  0  0  0  0  0  0  0  0  0
   26.2426  -20.9947   -9.8841 C   0  0  0  0  0  0  0  0  0  0  0  0
   25.2495  -20.0300   -9.7984 C   0  0  0  0  0  0  0  0  0  0  0  0
   25.6532  -19.0496   -8.9440 N   0  0  0  0  0  0  0  0  0  0  0  0
   26.8761  -19.3478   -8.4733 C   0  0  0  0  0  0  0  0  0  0  0  0
   27.6824  -18.6591   -7.5899 C   0  0  0  0  0  0  0  0  0  0  0  0
   28.9151  -19.1896   -7.2649 C   0  0  0  0  0  0  0  0  0  0  0  0
   29.2963  -20.3878   -7.8342 C   0  0  0  0  0  0  0  0  0  0  0  0
   28.4651  -21.0648   -8.7234 C   0  0  0  0  0  0  0  0  0  0  0  0
   27.2429  -20.5383   -9.0453 C   0  0  0  0  0  0  0  0  0  0  0  0
   24.1496  -21.2032  -11.5765 C   0  0  0  0  0  0  0  0  0  0  0  0
   23.9947  -19.8809  -11.9696 O   0  0  0  0  0  0  0  0  0  0  0  0
   23.2425  -21.7104  -10.8735 O   0  0  0  0  0  0  0  0  0  0  0  0
  2  1  1  6
  2  3  1  0
  3  4  1  0
  5  9  1  0
  5  4  1  0
  6  5  2  0
  7 10  1  0
  7  2  1  0
  8  7  2  0
 10 11  1  0
 11 12  1  0
 12 13  1  0
 14 15  1  1
 14 10  1  0
 14 13  1  0
 15 16  2  0
 17 18  1  0
 17 15  1  0
 18 29  1  0
 18 19  1  1
 20 19  1  0
 21 20  2  0
 22 21  1  0
 23 22  1  0
 23 28  2  0
 24 23  1  0
 25 24  2  0
 25 26  1  0
 26 27  2  0
 27 28  1  0
 28 20  1  0
 29 31  2  0
 29 30  1  0
M  END
$$$$
