EPW.pdb
     RDKit          3D

 31 33  0  0  1  0  0  0  0  0999 V2000
   20.5971  -11.0445  -17.5318 N   0  0  0  0  0  0  0  0  0  0  0  0
   20.3040   -9.6299  -17.6399 C   0  0  1  0  0  0  0  0  0  0  0  0
   18.8369   -9.5137  -17.9119 C   0  0  0  0  0  0  0  0  0  0  0  0
   18.4603  -10.2645  -19.1372 C   0  0  0  0  0  0  0  0  0  0  0  0
   17.2680  -11.1284  -18.8071 C   0  0  0  0  0  0  0  0  0  0  0  0
   16.1194  -10.6410  -18.7391 O   0  0  0  0  0  0  0  0  0  0  0  0
   20.8157   -8.8448  -16.5209 C   0  0  0  0  0  0  0  0  0  0  0  0
   20.9155   -9.3519  -15.3566 O   0  0  0  0  0  0  0  0  0  0  0  0
   17.4953  -12.4753  -18.5837 O   0  0  0  0  0  0  0  0  0  0  0  0
   21.2429   -7.4701  -16.6206 N   0  0  0  0  0  0  0  0  0  0  0  0
   21.2680   -6.7685  -17.8732 C   0  0  0  0  0  0  0  0  0  0  0  0
   21.8745   -5.4371  -17.5989 C   0  0  0  0  0  0  0  0  0  0  0  0
   22.5653   -5.6089  -16.2690 C   0  0  0  0  0  0  0  0  0  0  0  0
   21.6898   -6.6385  -15.5441 C   0  0  1  0  0  0  0  0  0  0  0  0
   20.5761   -5.8385  -14.9469 C   0  0  0  0  0  0  0  0  0  0  0  0
   19.6701   -5.3981  -15.6969 O   0  0  0  0  0  0  0  0  0  0  0  0
   20.4994   -5.5556  -13.5681 N   0  0  0  0  0  0  0  0  0  0  0  0
   19.3594   -5.0005  -12.8905 C   0  0  1  0  0  0  0  0  0  0  0  0
   18.7790   -5.9623  -11.8714 C   0  0  0  0  0  0  0  0  0  0  0  0
   19.7656   -6.3435  -10.8423 C   0  0  0  0  0  0  0  0  0  0  0  0
   19.8627   -5.7728   -9.5818 C   0  0  0  0  0  0  0  0  0  0  0  0
   20.8828   -6.3654   -8.9018 N   0  0  0  0  0  0  0  0  0  0  0  0
   21.4499   -7.3019   -9.6811 C   0  0  0  0  0  0  0  0  0  0  0  0
   22.5072   -8.1515   -9.4260 C   0  0  0  0  0  0  0  0  0  0  0  0
   22.9015   -9.0346  -10.4116 C   0  0  0  0  0  0  0  0  0  0  0  0
   22.2251   -9.0361  -11.6148 C   0  0  0  0  0  0  0  0  0  0  0  0
   21.1606   -8.1691  -11.8490 C   0  0  0  0  0  0  0  0  0  0  0  0
   20.7701   -7.2936  -10.8714 C   0  0  0  0  0  0  0  0  0  0  0  0
   19.8014   -3.7881  -12.1503 C   0  0  0  0  0  0  0  0  0  0  0  0
   21.1444   -3.4677  -12.0068 O   0  0  0  0  0  0  0  0  0  0  0  0
   18.9609   -3.0150  -11.6305 O   0  0  0  0  0  0  0  0  0  0  0  0
  2  1  1  1
  2  3  1  0
  3  4  1  0
  5  9  1  0
  5  4  1  0
  6  5  2  0
  7 10  1  0
  7  2  1  0
  8  7  2  0
 10 11  1  0
 11 12  1  0
 12 13  1  0
 14 15  1  6
 14 10  1  0
 14 13  1  0
 15 16  2  0
 17 18  1  0
 17 15  1  0
 18 29  1  0
 18 19  1  1
 20 19  1  0
 21 20  2  0
 22 21  1  0
 23 22  1  0
 23 28  2  0
 24 23  1  0
 25 24  2  0
 25 26  1  0
 26 27  2  0
 27 28  1  0
 28 20  1  0
 29 31  2  0
 29 30  1  0
M  END
$$$$
