EPW.pdb
     RDKit          3D

 31 33  0  0  1  0  0  0  0  0999 V2000
   24.2664  -18.8254  -16.1516 N   0  0  0  0  0  0  0  0  0  0  0  0
   25.5053  -18.6007  -15.4351 C   0  0  1  0  0  0  0  0  0  0  0  0
   25.5614  -17.1387  -15.1200 C   0  0  0  0  0  0  0  0  0  0  0  0
   24.5928  -16.7859  -14.0504 C   0  0  0  0  0  0  0  0  0  0  0  0
   23.8827  -15.5199  -14.4628 C   0  0  0  0  0  0  0  0  0  0  0  0
   23.0399  -15.5263  -15.3854 O   0  0  0  0  0  0  0  0  0  0  0  0
   25.6968  -19.5099  -14.3095 C   0  0  0  0  0  0  0  0  0  0  0  0
   24.6998  -20.0247  -13.7065 O   0  0  0  0  0  0  0  0  0  0  0  0
   24.2002  -14.3571  -13.7827 O   0  0  0  0  0  0  0  0  0  0  0  0
   26.9852  -19.9002  -13.7900 N   0  0  0  0  0  0  0  0  0  0  0  0
   28.2020  -19.2666  -14.2143 C   0  0  0  0  0  0  0  0  0  0  0  0
   29.3146  -20.0113  -13.5638 C   0  0  0  0  0  0  0  0  0  0  0  0
   28.6894  -21.3152  -13.1343 C   0  0  0  0  0  0  0  0  0  0  0  0
   27.2374  -20.9288  -12.8266 C   0  0  1  0  0  0  0  0  0  0  0  0
   27.2725  -20.3988  -11.4285 C   0  0  0  0  0  0  0  0  0  0  0  0
   28.3580  -19.9698  -10.9650 O   0  0  0  0  0  0  0  0  0  0  0  0
   26.1307  -20.3599  -10.6027 N   0  0  0  0  0  0  0  0  0  0  0  0
   25.7497  -21.3711   -9.6545 C   0  0  1  0  0  0  0  0  0  0  0  0
   26.8440  -21.6405   -8.6392 C   0  0  0  0  0  0  0  0  0  0  0  0
   27.1454  -20.4518   -7.8186 C   0  0  0  0  0  0  0  0  0  0  0  0
   26.7914  -19.1501   -8.1418 C   0  0  0  0  0  0  0  0  0  0  0  0
   27.2308  -18.3126   -7.1621 N   0  0  0  0  0  0  0  0  0  0  0  0
   27.8582  -19.0296   -6.2145 C   0  0  0  0  0  0  0  0  0  0  0  0
   28.4627  -18.6209   -5.0430 C   0  0  0  0  0  0  0  0  0  0  0  0
   29.0460  -19.5727   -4.2302 C   0  0  0  0  0  0  0  0  0  0  0  0
   29.0036  -20.8967   -4.6178 C   0  0  0  0  0  0  0  0  0  0  0  0
   28.3876  -21.2852   -5.8050 C   0  0  0  0  0  0  0  0  0  0  0  0
   27.8094  -20.3410   -6.6105 C   0  0  0  0  0  0  0  0  0  0  0  0
   24.5623  -20.8825   -8.9031 C   0  0  0  0  0  0  0  0  0  0  0  0
   23.9417  -19.6810   -9.2167 O   0  0  0  0  0  0  0  0  0  0  0  0
   24.0859  -21.5523   -7.9551 O   0  0  0  0  0  0  0  0  0  0  0  0
  2  1  1  1
  2  3  1  0
  3  4  1  0
  5  9  1  0
  5  4  1  0
  6  5  2  0
  7 10  1  0
  7  2  1  0
  8  7  2  0
 10 11  1  0
 11 12  1  0
 12 13  1  0
 14 15  1  1
 14 10  1  0
 14 13  1  0
 15 16  2  0
 17 18  1  0
 17 15  1  0
 18 29  1  0
 18 19  1  1
 20 19  1  0
 21 20  2  0
 22 21  1  0
 23 22  1  0
 23 28  2  0
 24 23  1  0
 25 24  2  0
 25 26  1  0
 26 27  2  0
 27 28  1  0
 28 20  1  0
 29 31  2  0
 29 30  1  0
M  END
$$$$
