EPW.pdb
     RDKit          3D

 31 33  0  0  1  0  0  0  0  0999 V2000
   28.9826  -22.4703  -16.9390 N   0  0  0  0  0  0  0  0  0  0  0  0
   27.8296  -21.8001  -16.3733 C   0  0  1  0  0  0  0  0  0  0  0  0
   26.6404  -22.6547  -16.6818 C   0  0  0  0  0  0  0  0  0  0  0  0
   25.4363  -21.8222  -16.9347 C   0  0  0  0  0  0  0  0  0  0  0  0
   25.3564  -21.5556  -18.4178 C   0  0  0  0  0  0  0  0  0  0  0  0
   25.1665  -22.4865  -19.2295 O   0  0  0  0  0  0  0  0  0  0  0  0
   28.0068  -21.4238  -14.9742 C   0  0  0  0  0  0  0  0  0  0  0  0
   28.6541  -22.1719  -14.1717 O   0  0  0  0  0  0  0  0  0  0  0  0
   25.5010  -20.2460  -18.8416 O   0  0  0  0  0  0  0  0  0  0  0  0
   27.4863  -20.2133  -14.3859 N   0  0  0  0  0  0  0  0  0  0  0  0
   26.6826  -19.2871  -15.1329 C   0  0  0  0  0  0  0  0  0  0  0  0
   26.4431  -18.1205  -14.2399 C   0  0  0  0  0  0  0  0  0  0  0  0
   27.4930  -18.2523  -13.1648 C   0  0  0  0  0  0  0  0  0  0  0  0
   27.6848  -19.7688  -13.0395 C   0  0  1  0  0  0  0  0  0  0  0  0
   26.5875  -20.2174  -12.1276 C   0  0  0  0  0  0  0  0  0  0  0  0
   25.4261  -20.3474  -12.5875 O   0  0  0  0  0  0  0  0  0  0  0  0
   26.8028  -20.5026  -10.7640 N   0  0  0  0  0  0  0  0  0  0  0  0
   26.0112  -21.3948   -9.9612 C   0  0  1  0  0  0  0  0  0  0  0  0
   26.6790  -21.7128   -8.6369 C   0  0  0  0  0  0  0  0  0  0  0  0
   26.9152  -20.5009   -7.8287 C   0  0  0  0  0  0  0  0  0  0  0  0
   26.4052  -19.2425   -8.1122 C   0  0  0  0  0  0  0  0  0  0  0  0
   26.8264  -18.3660   -7.1590 N   0  0  0  0  0  0  0  0  0  0  0  0
   27.5929  -19.0159   -6.2669 C   0  0  0  0  0  0  0  0  0  0  0  0
   28.2364  -18.5492   -5.1387 C   0  0  0  0  0  0  0  0  0  0  0  0
   28.9735  -19.4369   -4.3801 C   0  0  0  0  0  0  0  0  0  0  0  0
   29.0403  -20.7573   -4.7768 C   0  0  0  0  0  0  0  0  0  0  0  0
   28.3820  -21.2051   -5.9196 C   0  0  0  0  0  0  0  0  0  0  0  0
   27.6513  -20.3244   -6.6713 C   0  0  0  0  0  0  0  0  0  0  0  0
   24.7197  -20.7238   -9.6534 C   0  0  0  0  0  0  0  0  0  0  0  0
   24.4813  -19.4012  -10.0012 O   0  0  0  0  0  0  0  0  0  0  0  0
   23.8017  -21.3441   -9.0643 O   0  0  0  0  0  0  0  0  0  0  0  0
  2  1  1  1
  2  3  1  0
  3  4  1  0
  5  9  1  0
  5  4  1  0
  6  5  2  0
  7 10  1  0
  7  2  1  0
  8  7  2  0
 10 11  1  0
 11 12  1  0
 12 13  1  0
 14 15  1  1
 14 10  1  0
 14 13  1  0
 15 16  2  0
 17 18  1  0
 17 15  1  0
 18 29  1  0
 18 19  1  1
 20 19  1  0
 21 20  2  0
 22 21  1  0
 23 22  1  0
 23 28  2  0
 24 23  1  0
 25 24  2  0
 25 26  1  0
 26 27  2  0
 27 28  1  0
 28 20  1  0
 29 31  2  0
 29 30  1  0
M  END
$$$$
