EPW.pdb
     RDKit          3D

 31 33  0  0  1  0  0  0  0  0999 V2000
   26.5039  -19.5454  -15.9963 N   0  0  0  0  0  0  0  0  0  0  0  0
   26.7958  -19.2920  -14.6002 C   0  0  1  0  0  0  0  0  0  0  0  0
   25.7496  -18.3422  -14.1070 C   0  0  0  0  0  0  0  0  0  0  0  0
   25.9281  -16.9943  -14.7054 C   0  0  0  0  0  0  0  0  0  0  0  0
   24.6022  -16.5594  -15.2797 C   0  0  0  0  0  0  0  0  0  0  0  0
   23.6468  -16.2550  -14.5339 O   0  0  0  0  0  0  0  0  0  0  0  0
   26.9811  -20.5095  -13.8167 C   0  0  0  0  0  0  0  0  0  0  0  0
   26.2191  -21.5169  -13.9819 O   0  0  0  0  0  0  0  0  0  0  0  0
   24.4862  -16.5112  -16.6580 O   0  0  0  0  0  0  0  0  0  0  0  0
   28.0069  -20.6845  -12.8170 N   0  0  0  0  0  0  0  0  0  0  0  0
   28.8428  -19.6001  -12.3846 C   0  0  0  0  0  0  0  0  0  0  0  0
   29.8454  -20.1856  -11.4531 C   0  0  0  0  0  0  0  0  0  0  0  0
   29.7967  -21.6665  -11.7359 C   0  0  0  0  0  0  0  0  0  0  0  0
   28.3366  -21.9031  -12.1415 C   0  0  1  0  0  0  0  0  0  0  0  0
   27.6010  -22.0500  -10.8476 C   0  0  0  0  0  0  0  0  0  0  0  0
   27.9754  -22.9250  -10.0282 O   0  0  0  0  0  0  0  0  0  0  0  0
   26.4973  -21.2424  -10.5061 N   0  0  0  0  0  0  0  0  0  0  0  0
   25.4081  -21.6323   -9.6525 C   0  0  1  0  0  0  0  0  0  0  0  0
   25.8088  -21.6481   -8.1897 C   0  0  0  0  0  0  0  0  0  0  0  0
   26.4595  -20.3892   -7.7783 C   0  0  0  0  0  0  0  0  0  0  0  0
   26.3096  -19.1684   -8.4197 C   0  0  0  0  0  0  0  0  0  0  0  0
   27.0535  -18.2302   -7.7712 N   0  0  0  0  0  0  0  0  0  0  0  0
   27.6806  -18.8036   -6.7302 C   0  0  0  0  0  0  0  0  0  0  0  0
   28.5348  -18.2567   -5.7943 C   0  0  0  0  0  0  0  0  0  0  0  0
   29.0528  -19.0752   -4.8102 C   0  0  0  0  0  0  0  0  0  0  0  0
   28.6984  -20.4092   -4.7979 C   0  0  0  0  0  0  0  0  0  0  0  0
   27.8343  -20.9385   -5.7533 C   0  0  0  0  0  0  0  0  0  0  0  0
   27.3210  -20.1263   -6.7288 C   0  0  0  0  0  0  0  0  0  0  0  0
   24.3181  -20.6306   -9.7999 C   0  0  0  0  0  0  0  0  0  0  0  0
   24.4337  -19.5444  -10.6564 O   0  0  0  0  0  0  0  0  0  0  0  0
   23.2535  -20.7438   -9.1456 O   0  0  0  0  0  0  0  0  0  0  0  0
  2  1  1  6
  2  3  1  0
  3  4  1  0
  5  9  1  0
  5  4  1  0
  6  5  2  0
  7 10  1  0
  7  2  1  0
  8  7  2  0
 10 11  1  0
 11 12  1  0
 12 13  1  0
 14 15  1  1
 14 10  1  0
 14 13  1  0
 15 16  2  0
 17 18  1  0
 17 15  1  0
 18 29  1  0
 18 19  1  1
 20 19  1  0
 21 20  2  0
 22 21  1  0
 23 22  1  0
 23 28  2  0
 24 23  1  0
 25 24  2  0
 25 26  1  0
 26 27  2  0
 27 28  1  0
 28 20  1  0
 29 31  2  0
 29 30  1  0
M  END
$$$$
