EPW.pdb
     RDKit          3D

 31 33  0  0  1  0  0  0  0  0999 V2000
   19.7733  -11.9831  -18.2417 N   0  0  0  0  0  0  0  0  0  0  0  0
   21.0579  -11.5381  -17.7412 C   0  0  1  0  0  0  0  0  0  0  0  0
   21.7686  -10.8949  -18.8906 C   0  0  0  0  0  0  0  0  0  0  0  0
   21.0363   -9.6929  -19.3654 C   0  0  0  0  0  0  0  0  0  0  0  0
   21.9169   -8.4891  -19.1364 C   0  0  0  0  0  0  0  0  0  0  0  0
   21.7049   -7.7087  -18.1838 O   0  0  0  0  0  0  0  0  0  0  0  0
   20.9608  -10.7458  -16.5192 C   0  0  0  0  0  0  0  0  0  0  0  0
   19.8944  -10.1102  -16.2338 O   0  0  0  0  0  0  0  0  0  0  0  0
   22.9634   -8.2843  -20.0187 O   0  0  0  0  0  0  0  0  0  0  0  0
   22.0227  -10.6109  -15.5515 N   0  0  0  0  0  0  0  0  0  0  0  0
   23.3003  -11.2418  -15.7287 C   0  0  0  0  0  0  0  0  0  0  0  0
   24.0761  -10.9805  -14.4855 C   0  0  0  0  0  0  0  0  0  0  0  0
   23.0337  -10.5714  -13.4747 C   0  0  0  0  0  0  0  0  0  0  0  0
   21.9680   -9.8711  -14.3269 C   0  0  1  0  0  0  0  0  0  0  0  0
   22.4689   -8.4711  -14.4883 C   0  0  0  0  0  0  0  0  0  0  0  0
   23.2981   -8.2203  -15.3976 O   0  0  0  0  0  0  0  0  0  0  0  0
   22.0469   -7.4135  -13.6574 N   0  0  0  0  0  0  0  0  0  0  0  0
   22.3128   -6.0183  -13.8798 C   0  0  1  0  0  0  0  0  0  0  0  0
   23.6256   -5.7978  -14.6069 C   0  0  0  0  0  0  0  0  0  0  0  0
   23.5628   -4.6491  -15.5310 C   0  0  0  0  0  0  0  0  0  0  0  0
   22.9055   -3.4549  -15.2738 C   0  0  0  0  0  0  0  0  0  0  0  0
   23.0536   -2.6255  -16.3435 N   0  0  0  0  0  0  0  0  0  0  0  0
   23.7856   -3.2437  -17.2857 C   0  0  0  0  0  0  0  0  0  0  0  0
   24.1910   -2.8036  -18.5294 C   0  0  0  0  0  0  0  0  0  0  0  0
   24.9485   -3.6473  -19.3175 C   0  0  0  0  0  0  0  0  0  0  0  0
   25.2726   -4.8989  -18.8340 C   0  0  0  0  0  0  0  0  0  0  0  0
   24.8519   -5.3210  -17.5752 C   0  0  0  0  0  0  0  0  0  0  0  0
   24.1008   -4.4839  -16.7942 C   0  0  0  0  0  0  0  0  0  0  0  0
   21.2331   -5.4694  -14.7437 C   0  0  0  0  0  0  0  0  0  0  0  0
   20.7604   -6.1598  -15.8512 O   0  0  0  0  0  0  0  0  0  0  0  0
   20.7162   -4.3547  -14.4898 O   0  0  0  0  0  0  0  0  0  0  0  0
  2  1  1  6
  2  3  1  0
  3  4  1  0
  5  9  1  0
  5  4  1  0
  6  5  2  0
  7 10  1  0
  7  2  1  0
  8  7  2  0
 10 11  1  0
 11 12  1  0
 12 13  1  0
 14 15  1  6
 14 10  1  0
 14 13  1  0
 15 16  2  0
 17 18  1  0
 17 15  1  0
 18 29  1  0
 18 19  1  6
 20 19  1  0
 21 20  2  0
 22 21  1  0
 23 22  1  0
 23 28  2  0
 24 23  1  0
 25 24  2  0
 25 26  1  0
 26 27  2  0
 27 28  1  0
 28 20  1  0
 29 31  2  0
 29 30  1  0
M  END
$$$$
