EPW.pdb
     RDKit          3D

 31 33  0  0  1  0  0  0  0  0999 V2000
   22.4672  -20.7078  -19.1365 N   0  0  0  0  0  0  0  0  0  0  0  0
   23.0727  -19.8438  -18.1438 C   0  0  1  0  0  0  0  0  0  0  0  0
   22.4564  -20.2019  -16.8277 C   0  0  0  0  0  0  0  0  0  0  0  0
   23.0014  -19.3554  -15.7354 C   0  0  0  0  0  0  0  0  0  0  0  0
   21.8440  -18.8783  -14.8930 C   0  0  0  0  0  0  0  0  0  0  0  0
   21.8982  -17.7891  -14.2829 O   0  0  0  0  0  0  0  0  0  0  0  0
   24.5315  -19.8391  -18.1919 C   0  0  0  0  0  0  0  0  0  0  0  0
   25.1871  -20.9273  -18.2853 O   0  0  0  0  0  0  0  0  0  0  0  0
   20.7256  -19.6906  -14.8228 O   0  0  0  0  0  0  0  0  0  0  0  0
   25.3426  -18.6468  -18.1409 N   0  0  0  0  0  0  0  0  0  0  0  0
   24.7648  -17.3329  -18.1008 C   0  0  0  0  0  0  0  0  0  0  0  0
   25.8980  -16.3710  -18.1798 C   0  0  0  0  0  0  0  0  0  0  0  0
   27.0507  -17.1946  -18.6978 C   0  0  0  0  0  0  0  0  0  0  0  0
   26.7732  -18.5916  -18.1289 C   0  0  1  0  0  0  0  0  0  0  0  0
   27.3267  -18.5540  -16.7399 C   0  0  0  0  0  0  0  0  0  0  0  0
   28.0879  -17.6107  -16.4112 O   0  0  0  0  0  0  0  0  0  0  0  0
   27.0282  -19.5393  -15.7771 N   0  0  0  0  0  0  0  0  0  0  0  0
   27.8544  -19.8876  -14.6533 C   0  0  1  0  0  0  0  0  0  0  0  0
   27.5860  -19.0002  -13.4528 C   0  0  0  0  0  0  0  0  0  0  0  0
   26.8053  -19.6955  -12.4113 C   0  0  0  0  0  0  0  0  0  0  0  0
   27.3471  -20.4340  -11.3696 C   0  0  0  0  0  0  0  0  0  0  0  0
   26.3370  -20.9328  -10.6047 N   0  0  0  0  0  0  0  0  0  0  0  0
   25.1581  -20.5413  -11.1171 C   0  0  0  0  0  0  0  0  0  0  0  0
   23.8716  -20.7989  -10.6889 C   0  0  0  0  0  0  0  0  0  0  0  0
   22.8156  -20.2707  -11.4049 C   0  0  0  0  0  0  0  0  0  0  0  0
   23.0841  -19.5052  -12.5216 C   0  0  0  0  0  0  0  0  0  0  0  0
   24.3913  -19.2589  -12.9345 C   0  0  0  0  0  0  0  0  0  0  0  0
   25.4379  -19.7829  -12.2241 C   0  0  0  0  0  0  0  0  0  0  0  0
   27.5307  -21.2828  -14.2509 C   0  0  0  0  0  0  0  0  0  0  0  0
   26.4090  -21.9421  -14.7346 O   0  0  0  0  0  0  0  0  0  0  0  0
   28.2727  -21.9066  -13.4541 O   0  0  0  0  0  0  0  0  0  0  0  0
  2  1  1  6
  2  3  1  0
  3  4  1  0
  5  9  1  0
  5  4  1  0
  6  5  2  0
  7 10  1  0
  7  2  1  0
  8  7  2  0
 10 11  1  0
 11 12  1  0
 12 13  1  0
 14 15  1  1
 14 10  1  0
 14 13  1  0
 15 16  2  0
 17 18  1  0
 17 15  1  0
 18 29  1  0
 18 19  1  1
 20 19  1  0
 21 20  2  0
 22 21  1  0
 23 22  1  0
 23 28  2  0
 24 23  1  0
 25 24  2  0
 25 26  1  0
 26 27  2  0
 27 28  1  0
 28 20  1  0
 29 31  2  0
 29 30  1  0
M  END
$$$$
