REI.pdb
     RDKit          3D

 29 28  0  0  1  0  0  0  0  0999 V2000
   24.7799  -22.0257  -19.5487 N   0  0  0  0  0  0  0  0  0  0  0  0
   25.3400  -23.3025  -19.7714 C   0  0  0  0  0  0  0  0  0  0  0  0
   24.8079  -24.1509  -20.6133 N   0  0  0  0  0  0  0  0  0  0  0  0
   26.5169  -23.7522  -19.0981 N   0  0  0  0  0  0  0  0  0  0  0  0
   27.1719  -22.8897  -18.1129 C   0  0  0  0  0  0  0  0  0  0  0  0
   28.4372  -22.3233  -18.7140 C   0  0  0  0  0  0  0  0  0  0  0  0
   29.2883  -21.6546  -17.6859 C   0  0  0  0  0  0  0  0  0  0  0  0
   29.0861  -22.1370  -16.2796 C   0  0  2  0  0  0  0  0  0  0  0  0
   28.7771  -23.5223  -16.1489 N   0  0  0  0  0  0  0  0  0  0  0  0
   28.1660  -21.2627  -15.4972 C   0  0  0  0  0  0  0  0  0  0  0  0
   28.3797  -20.0413  -15.4835 O   0  0  0  0  0  0  0  0  0  0  0  0
   25.1746  -25.0920  -20.7826 N   0  0  0  0  0  0  0  0  0  0  0  0
   27.0646  -21.7663  -14.7732 C   0  0  1  0  0  0  0  0  0  0  0  0
   26.1215  -20.9346  -14.0625 C   0  0  0  0  0  0  0  0  0  0  0  0
   24.7661  -20.9041  -14.7258 C   0  0  0  0  0  0  0  0  0  0  0  0
   23.8240  -19.9650  -13.9600 C   0  0  0  0  0  0  0  0  0  0  0  0
   22.4917  -20.0999  -14.6140 O   0  0  0  0  0  0  0  0  0  0  0  0
   21.7357  -21.0838  -14.4527 C   0  0  0  0  0  0  0  0  0  0  0  0
   25.9366  -21.3603  -12.6603 O   0  0  0  0  0  0  0  0  0  0  0  0
   25.7921  -22.5626  -12.3182 O   0  0  0  0  0  0  0  0  0  0  0  0
   22.0953  -19.0600  -15.4423 C   0  0  0  0  0  0  0  0  0  0  0  0
   28.8616  -19.2464   -8.6176 C   0  0  0  0  0  0  0  0  0  0  0  0
   28.0278  -20.1921   -9.4737 C   0  0  2  0  0  0  0  0  0  0  0  0
   26.5818  -19.8548   -9.3865 C   0  0  0  0  0  0  0  0  0  0  0  0
   26.1192  -20.0600   -7.9367 C   0  0  2  0  0  0  0  0  0  0  0  0
   25.6627  -20.6395  -10.2502 N   0  0  0  0  0  0  0  0  0  0  0  0
   25.9220  -20.3613  -11.6491 C   0  0  0  0  0  0  0  0  0  0  0  0
   24.2418  -20.5852   -9.9170 O   0  0  0  0  0  0  0  0  0  0  0  0
   23.3906  -19.8542  -10.4312 O   0  0  0  0  0  0  0  0  0  0  0  0
  1  2  1  0
  2  3  2  0
  4  2  1  0
  4  5  1  0
  6  5  1  0
  7  6  1  0
  8 10  1  0
  8  7  1  0
  8  9  1  6
 10 11  2  0
 12 13  1  0
 12 10  1  0
 13 14  1  6
 15 14  1  0
 16 20  1  0
 16 15  1  0
 17 16  2  0
 18 19  2  0
 18 13  1  0
 21 22  1  0
 22 23  1  0
 23 25  1  0
 23 24  1  6
 25 26  1  1
 25 27  1  0
 26 18  1  0
 27 29  1  0
 28 27  2  0
M  END
$$$$
