REI.pdb
     RDKit          3D

 29 28  0  0  1  0  0  0  0  0999 V2000
   30.1029  -22.7300   -9.9513 N   0  0  0  0  0  0  0  0  0  0  0  0
   31.0660  -21.7105  -10.1145 C   0  0  0  0  0  0  0  0  0  0  0  0
   32.2629  -21.8039   -9.5945 N   0  0  0  0  0  0  0  0  0  0  0  0
   30.8020  -20.5165  -10.8529 N   0  0  0  0  0  0  0  0  0  0  0  0
   29.4562  -20.2560  -11.3674 C   0  0  0  0  0  0  0  0  0  0  0  0
   29.1577  -21.2260  -12.4868 C   0  0  0  0  0  0  0  0  0  0  0  0
   27.8548  -20.9236  -13.1497 C   0  0  0  0  0  0  0  0  0  0  0  0
   26.6366  -21.2201  -12.3255 C   0  0  2  0  0  0  0  0  0  0  0  0
   26.7085  -22.4045  -11.5357 N   0  0  0  0  0  0  0  0  0  0  0  0
   25.3724  -21.1238  -13.1102 C   0  0  0  0  0  0  0  0  0  0  0  0
   25.1002  -20.0480  -13.6636 O   0  0  0  0  0  0  0  0  0  0  0  0
   32.9893  -21.0904   -9.7039 N   0  0  0  0  0  0  0  0  0  0  0  0
   24.4750  -22.2037  -13.2490 C   0  0  1  0  0  0  0  0  0  0  0  0
   23.2545  -22.1410  -14.0189 C   0  0  0  0  0  0  0  0  0  0  0  0
   22.6631  -23.5061  -14.2734 C   0  0  0  0  0  0  0  0  0  0  0  0
   23.3056  -24.1370  -15.5164 C   0  0  0  0  0  0  0  0  0  0  0  0
   22.6621  -25.4715  -15.6766 O   0  0  0  0  0  0  0  0  0  0  0  0
   21.7534  -25.7092  -16.5033 C   0  0  0  0  0  0  0  0  0  0  0  0
   22.2211  -21.3062  -13.3737 O   0  0  0  0  0  0  0  0  0  0  0  0
   22.4199  -20.6613  -12.3115 O   0  0  0  0  0  0  0  0  0  0  0  0
   23.1175  -26.4872  -14.8486 C   0  0  0  0  0  0  0  0  0  0  0  0
   20.6067  -16.3824  -13.4780 C   0  0  0  0  0  0  0  0  0  0  0  0
   19.8156  -17.6788  -13.3521 C   0  0  2  0  0  0  0  0  0  0  0  0
   20.6348  -18.8462  -13.7745 C   0  0  0  0  0  0  0  0  0  0  0  0
   21.0693  -18.6357  -15.2323 C   0  0  2  0  0  0  0  0  0  0  0  0
   19.9804  -20.1779  -13.7050 N   0  0  0  0  0  0  0  0  0  0  0  0
   20.9397  -21.2282  -13.9842 C   0  0  0  0  0  0  0  0  0  0  0  0
   18.7347  -20.3372  -14.4504 O   0  0  0  0  0  0  0  0  0  0  0  0
   18.6190  -20.6896  -15.6276 O   0  0  0  0  0  0  0  0  0  0  0  0
  1  2  1  0
  2  3  2  0
  4  2  1  0
  4  5  1  0
  6  5  1  0
  7  6  1  0
  8 10  1  0
  8  7  1  0
  8  9  1  6
 10 11  2  0
 12 13  1  0
 12 10  1  0
 13 14  1  6
 15 14  1  0
 16 20  1  0
 16 15  1  0
 17 16  2  0
 18 19  2  0
 18 13  1  0
 21 22  1  0
 22 23  1  0
 23 25  1  0
 23 24  1  1
 25 26  1  6
 25 27  1  0
 26 18  1  0
 27 29  1  0
 28 27  2  0
M  END
$$$$
