REI.pdb
     RDKit          3D

 29 28  0  0  1  0  0  0  0  0999 V2000
    9.4619  -13.6694  -11.1181 N   0  0  0  0  0  0  0  0  0  0  0  0
   10.5745  -14.4202  -10.6798 C   0  0  0  0  0  0  0  0  0  0  0  0
   10.4375  -15.4696   -9.9105 N   0  0  0  0  0  0  0  0  0  0  0  0
   11.9155  -14.0884  -11.0432 N   0  0  0  0  0  0  0  0  0  0  0  0
   12.1819  -12.8968  -11.8512 C   0  0  0  0  0  0  0  0  0  0  0  0
   13.6675  -12.7943  -12.1077 C   0  0  0  0  0  0  0  0  0  0  0  0
   14.0020  -11.6206  -12.9673 C   0  0  0  0  0  0  0  0  0  0  0  0
   15.4526  -11.4871  -13.3269 C   0  0  2  0  0  0  0  0  0  0  0  0
   16.2288  -12.6734  -13.1793 N   0  0  0  0  0  0  0  0  0  0  0  0
   16.0938  -10.2947  -12.7022 C   0  0  0  0  0  0  0  0  0  0  0  0
   16.8115  -10.4633  -11.7052 O   0  0  0  0  0  0  0  0  0  0  0  0
   11.2199  -16.0475   -9.5898 N   0  0  0  0  0  0  0  0  0  0  0  0
   15.9182   -8.9852  -13.1975 C   0  0  2  0  0  0  0  0  0  0  0  0
   16.5734   -7.8223  -12.6455 C   0  0  0  0  0  0  0  0  0  0  0  0
   17.0627   -6.8753  -13.7141 C   0  0  0  0  0  0  0  0  0  0  0  0
   17.8829   -5.7428  -13.0812 C   0  0  0  0  0  0  0  0  0  0  0  0
   18.3207   -4.8745  -14.2105 O   0  0  0  0  0  0  0  0  0  0  0  0
   17.6849   -4.7557  -15.2816 C   0  0  0  0  0  0  0  0  0  0  0  0
   15.7008   -7.0647  -11.7257 O   0  0  0  0  0  0  0  0  0  0  0  0
   14.4460   -7.1590  -11.7314 O   0  0  0  0  0  0  0  0  0  0  0  0
   19.5034   -4.1711  -14.0343 C   0  0  0  0  0  0  0  0  0  0  0  0
   12.8936   -6.5425   -7.3151 C   0  0  0  0  0  0  0  0  0  0  0  0
   13.8310   -5.5587   -8.0050 C   0  0  2  0  0  0  0  0  0  0  0  0
   14.6659   -6.2453   -9.0267 C   0  0  0  0  0  0  0  0  0  0  0  0
   15.5532   -7.2788   -8.3178 C   0  0  2  0  0  0  0  0  0  0  0  0
   15.5652   -5.3852   -9.8378 N   0  0  0  0  0  0  0  0  0  0  0  0
   16.3104   -6.1869  -10.7884 C   0  0  0  0  0  0  0  0  0  0  0  0
   16.4100   -4.4448   -9.1066 O   0  0  0  0  0  0  0  0  0  0  0  0
   17.6362   -4.5008   -8.9772 O   0  0  0  0  0  0  0  0  0  0  0  0
  1  2  1  0
  2  3  2  0
  4  2  1  0
  4  5  1  0
  6  5  1  0
  7  6  1  0
  8 10  1  0
  8  7  1  0
  8  9  1  1
 10 11  2  0
 12 13  1  0
 12 10  1  0
 13 14  1  6
 15 14  1  0
 16 20  1  0
 16 15  1  0
 17 16  2  0
 18 19  2  0
 18 13  1  0
 21 22  1  0
 22 23  1  0
 23 25  1  0
 23 24  1  6
 25 26  1  1
 25 27  1  0
 26 18  1  0
 27 29  1  0
 28 27  2  0
M  END
$$$$
