REI.pdb
     RDKit          3D

 29 28  0  0  1  0  0  0  0  0999 V2000
   26.8707  -22.7806  -16.7222 N   0  0  0  0  0  0  0  0  0  0  0  0
   27.4984  -24.0331  -16.5459 C   0  0  0  0  0  0  0  0  0  0  0  0
   28.7994  -24.1638  -16.5894 N   0  0  0  0  0  0  0  0  0  0  0  0
   26.7618  -25.2340  -16.3097 N   0  0  0  0  0  0  0  0  0  0  0  0
   25.6933  -25.2531  -15.3089 C   0  0  0  0  0  0  0  0  0  0  0  0
   24.7395  -24.1131  -15.5809 C   0  0  0  0  0  0  0  0  0  0  0  0
   24.1094  -23.6060  -14.3262 C   0  0  0  0  0  0  0  0  0  0  0  0
   24.7214  -22.3558  -13.7661 C   0  0  2  0  0  0  0  0  0  0  0  0
   25.3471  -22.5007  -12.4936 N   0  0  0  0  0  0  0  0  0  0  0  0
   23.7997  -21.1854  -13.8277 C   0  0  0  0  0  0  0  0  0  0  0  0
   22.9489  -21.0549  -12.9351 O   0  0  0  0  0  0  0  0  0  0  0  0
   29.2879  -25.0535  -16.4523 N   0  0  0  0  0  0  0  0  0  0  0  0
   23.8553  -20.2222  -14.8573 C   0  0  2  0  0  0  0  0  0  0  0  0
   23.0177  -19.0464  -14.9043 C   0  0  0  0  0  0  0  0  0  0  0  0
   23.4556  -18.0694  -15.9681 C   0  0  0  0  0  0  0  0  0  0  0  0
   22.6704  -16.7572  -15.8358 C   0  0  0  0  0  0  0  0  0  0  0  0
   23.2522  -15.8289  -16.8461 O   0  0  0  0  0  0  0  0  0  0  0  0
   23.7222  -14.7037  -16.5655 C   0  0  0  0  0  0  0  0  0  0  0  0
   21.5966  -19.3733  -15.1385 O   0  0  0  0  0  0  0  0  0  0  0  0
   21.2188  -20.2926  -15.9104 O   0  0  0  0  0  0  0  0  0  0  0  0
   23.2587  -16.2649  -18.1631 C   0  0  0  0  0  0  0  0  0  0  0  0
   18.2346  -20.8428  -11.5125 C   0  0  0  0  0  0  0  0  0  0  0  0
   18.9404  -20.5523  -12.8316 C   0  0  2  0  0  0  0  0  0  0  0  0
   18.5483  -19.2198  -13.3637 C   0  0  0  0  0  0  0  0  0  0  0  0
   17.0302  -19.2141  -13.5949 C   0  0  2  0  0  0  0  0  0  0  0  0
   19.1829  -18.8002  -14.6394 N   0  0  0  0  0  0  0  0  0  0  0  0
   20.6086  -18.6114  -14.4572 C   0  0  0  0  0  0  0  0  0  0  0  0
   18.5528  -17.6929  -15.3534 O   0  0  0  0  0  0  0  0  0  0  0  0
   18.7790  -16.4897  -15.1967 O   0  0  0  0  0  0  0  0  0  0  0  0
  1  2  1  0
  2  3  2  0
  4  2  1  0
  4  5  1  0
  6  5  1  0
  7  6  1  0
  8 10  1  0
  8  7  1  0
  8  9  1  1
 10 11  2  0
 12 13  1  0
 12 10  1  0
 13 14  1  1
 15 14  1  0
 16 20  1  0
 16 15  1  0
 17 16  2  0
 18 19  2  0
 18 13  1  0
 21 22  1  0
 22 23  1  0
 23 25  1  0
 23 24  1  1
 25 26  1  6
 25 27  1  0
 26 18  1  0
 27 29  1  0
 28 27  2  0
M  END
$$$$
