REI.pdb
     RDKit          3D

 29 28  0  0  1  0  0  0  0  0999 V2000
   28.3535  -26.9959  -16.2050 N   0  0  0  0  0  0  0  0  0  0  0  0
   27.2433  -27.3954  -16.9805 C   0  0  0  0  0  0  0  0  0  0  0  0
   26.9314  -28.6561  -17.1387 N   0  0  0  0  0  0  0  0  0  0  0  0
   26.3910  -26.4581  -17.6405 N   0  0  0  0  0  0  0  0  0  0  0  0
   26.5620  -25.0227  -17.4079 C   0  0  0  0  0  0  0  0  0  0  0  0
   27.7750  -24.5388  -18.1679 C   0  0  0  0  0  0  0  0  0  0  0  0
   28.0005  -23.0753  -17.9786 C   0  0  0  0  0  0  0  0  0  0  0  0
   29.0184  -22.7171  -16.9362 C   0  0  2  0  0  0  0  0  0  0  0  0
   29.8161  -23.8006  -16.4655 N   0  0  0  0  0  0  0  0  0  0  0  0
   28.4466  -21.8965  -15.8303 C   0  0  0  0  0  0  0  0  0  0  0  0
   28.7603  -22.1756  -14.6635 O   0  0  0  0  0  0  0  0  0  0  0  0
   26.1328  -28.9808  -17.6915 N   0  0  0  0  0  0  0  0  0  0  0  0
   27.5653  -20.8180  -16.0559 C   0  0  2  0  0  0  0  0  0  0  0  0
   27.1288  -19.9070  -15.0235 C   0  0  0  0  0  0  0  0  0  0  0  0
   26.6015  -18.6093  -15.5857 C   0  0  0  0  0  0  0  0  0  0  0  0
   27.6431  -17.9753  -16.5180 C   0  0  0  0  0  0  0  0  0  0  0  0
   26.9538  -16.8354  -17.1861 O   0  0  0  0  0  0  0  0  0  0  0  0
   27.2162  -16.4499  -18.3472 C   0  0  0  0  0  0  0  0  0  0  0  0
   26.0835  -20.4909  -14.1589 O   0  0  0  0  0  0  0  0  0  0  0  0
   25.2853  -21.3825  -14.5483 O   0  0  0  0  0  0  0  0  0  0  0  0
   25.9708  -16.1853  -16.4542 C   0  0  0  0  0  0  0  0  0  0  0  0
   27.1793  -20.6184   -8.7122 C   0  0  0  0  0  0  0  0  0  0  0  0
   26.7249  -21.0204  -10.1102 C   0  0  2  0  0  0  0  0  0  0  0  0
   25.4673  -20.3194  -10.4838 C   0  0  0  0  0  0  0  0  0  0  0  0
   24.3444  -20.8030   -9.5548 C   0  0  2  0  0  0  0  0  0  0  0  0
   24.9892  -20.5090  -11.8773 N   0  0  0  0  0  0  0  0  0  0  0  0
   25.9755  -20.0217  -12.8214 C   0  0  0  0  0  0  0  0  0  0  0  0
   23.6391  -20.0404  -12.1779 O   0  0  0  0  0  0  0  0  0  0  0  0
   23.3096  -18.8945  -12.4970 O   0  0  0  0  0  0  0  0  0  0  0  0
  1  2  1  0
  2  3  2  0
  4  2  1  0
  4  5  1  0
  6  5  1  0
  7  6  1  0
  8 10  1  0
  8  7  1  0
  8  9  1  1
 10 11  2  0
 12 13  1  0
 12 10  1  0
 13 14  1  6
 15 14  1  0
 16 20  1  0
 16 15  1  0
 17 16  2  0
 18 19  2  0
 18 13  1  0
 21 22  1  0
 22 23  1  0
 23 25  1  0
 23 24  1  6
 25 26  1  6
 25 27  1  0
 26 18  1  0
 27 29  1  0
 28 27  2  0
M  END
$$$$
