REI.pdb
     RDKit          3D

 29 28  0  0  1  0  0  0  0  0999 V2000
   21.1132  -27.2424  -10.6702 N   0  0  0  0  0  0  0  0  0  0  0  0
   20.2044  -26.5106  -11.4653 C   0  0  0  0  0  0  0  0  0  0  0  0
   20.2631  -26.5285  -12.7722 N   0  0  0  0  0  0  0  0  0  0  0  0
   19.1666  -25.7068  -10.9020 N   0  0  0  0  0  0  0  0  0  0  0  0
   19.1198  -25.4787   -9.4565 C   0  0  0  0  0  0  0  0  0  0  0  0
   18.0933  -26.4021   -8.8424 C   0  0  0  0  0  0  0  0  0  0  0  0
   18.6948  -27.7054   -8.4326 C   0  0  0  0  0  0  0  0  0  0  0  0
   17.7203  -28.7220   -7.9147 C   0  0  2  0  0  0  0  0  0  0  0  0
   16.8621  -29.2988   -8.8958 N   0  0  0  0  0  0  0  0  0  0  0  0
   16.9839  -28.2512   -6.7067 C   0  0  0  0  0  0  0  0  0  0  0  0
   15.7720  -28.0096   -6.8095 O   0  0  0  0  0  0  0  0  0  0  0  0
   19.5990  -26.0396  -13.3795 N   0  0  0  0  0  0  0  0  0  0  0  0
   17.6074  -28.0694   -5.4541 C   0  0  2  0  0  0  0  0  0  0  0  0
   16.9105  -27.6411   -4.2637 C   0  0  0  0  0  0  0  0  0  0  0  0
   17.6267  -28.0479   -2.9990 C   0  0  0  0  0  0  0  0  0  0  0  0
   16.7882  -27.6672   -1.7710 C   0  0  0  0  0  0  0  0  0  0  0  0
   17.5387  -28.1777   -0.5891 O   0  0  0  0  0  0  0  0  0  0  0  0
   17.5424  -29.3777   -0.2345 C   0  0  0  0  0  0  0  0  0  0  0  0
   16.7043  -26.1792   -4.2242 O   0  0  0  0  0  0  0  0  0  0  0  0
   17.6276  -25.3471   -4.4210 O   0  0  0  0  0  0  0  0  0  0  0  0
   18.2645  -27.2461    0.1389 C   0  0  0  0  0  0  0  0  0  0  0  0
   13.5591  -23.6086   -7.2796 C   0  0  0  0  0  0  0  0  0  0  0  0
   14.6261  -24.0414   -6.2812 C   0  0  2  0  0  0  0  0  0  0  0  0
   14.1589  -23.8441   -4.8830 C   0  0  0  0  0  0  0  0  0  0  0  0
   13.8923  -22.3478   -4.6638 C   0  0  2  0  0  0  0  0  0  0  0  0
   15.0823  -24.2825   -3.8052 N   0  0  0  0  0  0  0  0  0  0  0  0
   15.3979  -25.6899   -3.9507 C   0  0  0  0  0  0  0  0  0  0  0  0
   14.7135  -23.9243   -2.4383 O   0  0  0  0  0  0  0  0  0  0  0  0
   14.7586  -22.7994   -1.9324 O   0  0  0  0  0  0  0  0  0  0  0  0
  1  2  1  0
  2  3  2  0
  4  2  1  0
  4  5  1  0
  6  5  1  0
  7  6  1  0
  8 10  1  0
  8  7  1  0
  8  9  1  6
 10 11  2  0
 12 13  1  0
 12 10  1  0
 13 14  1  6
 15 14  1  0
 16 20  1  0
 16 15  1  0
 17 16  2  0
 18 19  2  0
 18 13  1  0
 21 22  1  0
 22 23  1  0
 23 25  1  0
 23 24  1  1
 25 26  1  6
 25 27  1  0
 26 18  1  0
 27 29  1  0
 28 27  2  0
M  END
$$$$
