REI.pdb
     RDKit          3D

 29 28  0  0  1  0  0  0  0  0999 V2000
   18.0647  -21.5727  -11.7001 N   0  0  0  0  0  0  0  0  0  0  0  0
   18.3249  -22.1163  -12.9770 C   0  0  0  0  0  0  0  0  0  0  0  0
   17.6028  -23.0886  -13.4720 N   0  0  0  0  0  0  0  0  0  0  0  0
   19.3860  -21.6458  -13.8097 N   0  0  0  0  0  0  0  0  0  0  0  0
   20.4824  -20.8679  -13.2295 C   0  0  0  0  0  0  0  0  0  0  0  0
   21.0239  -21.5988  -12.0230 C   0  0  0  0  0  0  0  0  0  0  0  0
   21.4239  -20.6559  -10.9370 C   0  0  0  0  0  0  0  0  0  0  0  0
   22.7618  -20.0022  -11.1216 C   0  0  2  0  0  0  0  0  0  0  0  0
   23.1808  -19.8428  -12.4746 N   0  0  0  0  0  0  0  0  0  0  0  0
   23.8187  -20.5982  -10.2550 C   0  0  0  0  0  0  0  0  0  0  0  0
   23.5235  -20.9105   -9.0918 O   0  0  0  0  0  0  0  0  0  0  0  0
   17.8063  -23.5543  -14.3611 N   0  0  0  0  0  0  0  0  0  0  0  0
   25.1382  -20.8210  -10.7026 C   0  0  1  0  0  0  0  0  0  0  0  0
   26.2134  -21.2647   -9.8463 C   0  0  0  0  0  0  0  0  0  0  0  0
   27.4547  -21.6307  -10.6231 C   0  0  0  0  0  0  0  0  0  0  0  0
   27.3730  -21.0645  -12.0474 C   0  0  0  0  0  0  0  0  0  0  0  0
   28.6265  -21.4925  -12.7302 O   0  0  0  0  0  0  0  0  0  0  0  0
   29.5242  -22.1650  -12.1757 C   0  0  0  0  0  0  0  0  0  0  0  0
   26.5858  -20.2539   -8.8360 O   0  0  0  0  0  0  0  0  0  0  0  0
   26.3635  -19.0234   -8.9774 O   0  0  0  0  0  0  0  0  0  0  0  0
   28.7777  -21.1084  -14.0547 C   0  0  0  0  0  0  0  0  0  0  0  0
   27.6701  -21.9055   -3.4832 C   0  0  0  0  0  0  0  0  0  0  0  0
   27.1463  -21.2074   -4.7326 C   0  0  2  0  0  0  0  0  0  0  0  0
   28.2495  -20.5345   -5.4691 C   0  0  0  0  0  0  0  0  0  0  0  0
   28.9147  -19.5179   -4.5298 C   0  0  2  0  0  0  0  0  0  0  0  0
   27.8738  -19.8016   -6.7053 N   0  0  0  0  0  0  0  0  0  0  0  0
   27.2264  -20.6946   -7.6459 C   0  0  0  0  0  0  0  0  0  0  0  0
   28.9128  -18.9839   -7.3254 O   0  0  0  0  0  0  0  0  0  0  0  0
   29.6743  -19.3236   -8.2354 O   0  0  0  0  0  0  0  0  0  0  0  0
  1  2  1  0
  2  3  2  0
  4  2  1  0
  4  5  1  0
  6  5  1  0
  7  6  1  0
  8 10  1  0
  8  7  1  0
  8  9  1  6
 10 11  2  0
 12 13  1  0
 12 10  1  0
 13 14  1  1
 15 14  1  0
 16 20  1  0
 16 15  1  0
 17 16  2  0
 18 19  2  0
 18 13  1  0
 21 22  1  0
 22 23  1  0
 23 25  1  0
 23 24  1  6
 25 26  1  1
 25 27  1  0
 26 18  1  0
 27 29  1  0
 28 27  2  0
M  END
$$$$
