REI.pdb
     RDKit          3D

 29 28  0  0  1  0  0  0  0  0999 V2000
   19.5119  -18.0047  -14.1727 N   0  0  0  0  0  0  0  0  0  0  0  0
   20.8025  -17.9309  -14.7405 C   0  0  0  0  0  0  0  0  0  0  0  0
   21.1058  -17.0388  -15.6482 N   0  0  0  0  0  0  0  0  0  0  0  0
   21.8576  -18.8180  -14.3658 N   0  0  0  0  0  0  0  0  0  0  0  0
   21.6118  -19.8742  -13.3821 C   0  0  0  0  0  0  0  0  0  0  0  0
   21.4766  -19.2527  -12.0114 C   0  0  0  0  0  0  0  0  0  0  0  0
   22.2689  -19.9938  -10.9861 C   0  0  0  0  0  0  0  0  0  0  0  0
   23.3401  -20.8902  -11.5341 C   0  0  2  0  0  0  0  0  0  0  0  0
   22.8785  -22.1093  -12.1107 N   0  0  0  0  0  0  0  0  0  0  0  0
   24.4670  -21.0923  -10.5788 C   0  0  0  0  0  0  0  0  0  0  0  0
   24.2909  -21.8409   -9.6061 O   0  0  0  0  0  0  0  0  0  0  0  0
   22.0262  -16.9667  -16.0915 N   0  0  0  0  0  0  0  0  0  0  0  0
   25.7227  -20.4682  -10.7354 C   0  0  2  0  0  0  0  0  0  0  0  0
   26.8570  -20.7173   -9.8764 C   0  0  0  0  0  0  0  0  0  0  0  0
   28.1727  -20.5513  -10.5970 C   0  0  0  0  0  0  0  0  0  0  0  0
   28.7554  -21.9251  -10.9563 C   0  0  0  0  0  0  0  0  0  0  0  0
   29.7951  -21.6699  -11.9930 O   0  0  0  0  0  0  0  0  0  0  0  0
   29.9888  -20.5525  -12.5215 C   0  0  0  0  0  0  0  0  0  0  0  0
   26.8704  -19.8396   -8.6887 O   0  0  0  0  0  0  0  0  0  0  0  0
   25.8718  -19.1721   -8.3133 O   0  0  0  0  0  0  0  0  0  0  0  0
   30.5762  -22.7518  -12.3726 C   0  0  0  0  0  0  0  0  0  0  0  0
   26.0629  -20.0584   -3.4895 C   0  0  0  0  0  0  0  0  0  0  0  0
   26.9782  -19.2063   -4.3607 C   0  0  2  0  0  0  0  0  0  0  0  0
   27.1602  -19.8210   -5.7028 C   0  0  0  0  0  0  0  0  0  0  0  0
   27.6220  -21.2736   -5.5159 C   0  0  2  0  0  0  0  0  0  0  0  0
   28.1412  -19.1669   -6.6063 N   0  0  0  0  0  0  0  0  0  0  0  0
   28.0711  -19.7460   -7.9335 C   0  0  0  0  0  0  0  0  0  0  0  0
   29.5106  -19.0479   -6.1131 O   0  0  0  0  0  0  0  0  0  0  0  0
   30.4804  -19.7302   -6.4558 O   0  0  0  0  0  0  0  0  0  0  0  0
  1  2  1  0
  2  3  2  0
  4  2  1  0
  4  5  1  0
  6  5  1  0
  7  6  1  0
  8 10  1  0
  8  7  1  0
  8  9  1  1
 10 11  2  0
 12 13  1  0
 12 10  1  0
 13 14  1  6
 15 14  1  0
 16 20  1  0
 16 15  1  0
 17 16  2  0
 18 19  2  0
 18 13  1  0
 21 22  1  0
 22 23  1  0
 23 25  1  0
 23 24  1  6
 25 26  1  1
 25 27  1  0
 26 18  1  0
 27 29  1  0
 28 27  2  0
M  END
$$$$
