REI.pdb
     RDKit          3D

 29 28  0  0  1  0  0  0  0  0999 V2000
   19.3742  -20.2384  -14.7235 N   0  0  0  0  0  0  0  0  0  0  0  0
   18.4793  -19.4487  -13.9691 C   0  0  0  0  0  0  0  0  0  0  0  0
   17.9449  -18.3580  -14.4554 N   0  0  0  0  0  0  0  0  0  0  0  0
   18.0988  -19.7837  -12.6336 N   0  0  0  0  0  0  0  0  0  0  0  0
   19.0516  -20.4545  -11.7470 C   0  0  0  0  0  0  0  0  0  0  0  0
   19.4917  -19.4887  -10.6714 C   0  0  0  0  0  0  0  0  0  0  0  0
   20.4171  -20.1327   -9.6930 C   0  0  0  0  0  0  0  0  0  0  0  0
   21.0035  -21.4406  -10.1365 C   0  0  2  0  0  0  0  0  0  0  0  0
   20.2895  -22.6015   -9.7191 N   0  0  0  0  0  0  0  0  0  0  0  0
   22.4677  -21.5353   -9.8708 C   0  0  0  0  0  0  0  0  0  0  0  0
   22.8424  -21.9094   -8.7495 O   0  0  0  0  0  0  0  0  0  0  0  0
   17.3107  -17.7501  -13.9289 N   0  0  0  0  0  0  0  0  0  0  0  0
   23.4424  -21.2176  -10.8402 C   0  0  2  0  0  0  0  0  0  0  0  0
   24.8630  -21.3797  -10.6352 C   0  0  0  0  0  0  0  0  0  0  0  0
   25.6399  -21.3400  -11.9286 C   0  0  0  0  0  0  0  0  0  0  0  0
   27.1021  -21.7345  -11.6790 C   0  0  0  0  0  0  0  0  0  0  0  0
   27.7728  -21.6811  -13.0087 O   0  0  0  0  0  0  0  0  0  0  0  0
   28.0597  -20.6159  -13.5991 C   0  0  0  0  0  0  0  0  0  0  0  0
   25.4244  -20.3556   -9.7311 O   0  0  0  0  0  0  0  0  0  0  0  0
   25.0870  -19.1439   -9.7679 O   0  0  0  0  0  0  0  0  0  0  0  0
   28.0838  -22.8971  -13.5997 C   0  0  0  0  0  0  0  0  0  0  0  0
   27.4032  -19.9417   -4.0804 C   0  0  0  0  0  0  0  0  0  0  0  0
   27.7039  -19.4368   -5.4864 C   0  0  2  0  0  0  0  0  0  0  0  0
   27.1213  -20.3414   -6.5134 C   0  0  0  0  0  0  0  0  0  0  0  0
   27.9214  -21.6521   -6.5197 C   0  0  2  0  0  0  0  0  0  0  0  0
   27.1038  -19.8372   -7.9106 N   0  0  0  0  0  0  0  0  0  0  0  0
   26.3931  -20.7608   -8.7728 C   0  0  0  0  0  0  0  0  0  0  0  0
   28.3832  -19.4111   -8.4712 O   0  0  0  0  0  0  0  0  0  0  0  0
   28.9962  -18.3732   -8.2060 O   0  0  0  0  0  0  0  0  0  0  0  0
  1  2  1  0
  2  3  2  0
  4  2  1  0
  4  5  1  0
  6  5  1  0
  7  6  1  0
  8 10  1  0
  8  7  1  0
  8  9  1  1
 10 11  2  0
 12 13  1  0
 12 10  1  0
 13 14  1  6
 15 14  1  0
 16 20  1  0
 16 15  1  0
 17 16  2  0
 18 19  2  0
 18 13  1  0
 21 22  1  0
 22 23  1  0
 23 25  1  0
 23 24  1  6
 25 26  1  6
 25 27  1  0
 26 18  1  0
 27 29  1  0
 28 27  2  0
M  END
$$$$
