REI.pdb
     RDKit          3D

 29 28  0  0  1  0  0  0  0  0999 V2000
   11.2163  -10.2104  -10.5588 N   0  0  0  0  0  0  0  0  0  0  0  0
   10.7482  -11.4761  -10.9742 C   0  0  0  0  0  0  0  0  0  0  0  0
   10.1421  -12.2911  -10.1496 N   0  0  0  0  0  0  0  0  0  0  0  0
   10.9032  -11.9501  -12.3128 N   0  0  0  0  0  0  0  0  0  0  0  0
   11.7870  -11.2438  -13.2423 C   0  0  0  0  0  0  0  0  0  0  0  0
   13.2209  -11.6093  -12.9365 C   0  0  0  0  0  0  0  0  0  0  0  0
   14.1633  -11.0537  -13.9522 C   0  0  0  0  0  0  0  0  0  0  0  0
   15.6133  -11.3498  -13.7051 C   0  0  2  0  0  0  0  0  0  0  0  0
   15.9128  -12.7066  -13.3871 N   0  0  0  0  0  0  0  0  0  0  0  0
   16.2471  -10.3817  -12.7648 C   0  0  0  0  0  0  0  0  0  0  0  0
   16.1418  -10.5854  -11.5461 O   0  0  0  0  0  0  0  0  0  0  0  0
    9.8173  -13.2271  -10.4089 N   0  0  0  0  0  0  0  0  0  0  0  0
   16.9603   -9.2459  -13.2030 C   0  0  1  0  0  0  0  0  0  0  0  0
   17.6328   -8.3267  -12.3147 C   0  0  0  0  0  0  0  0  0  0  0  0
   18.7453   -7.5722  -13.0010 C   0  0  0  0  0  0  0  0  0  0  0  0
   19.4664   -6.6639  -11.9956 C   0  0  0  0  0  0  0  0  0  0  0  0
   20.5342   -5.9668  -12.7668 O   0  0  0  0  0  0  0  0  0  0  0  0
   21.5215   -6.5495  -13.2679 C   0  0  0  0  0  0  0  0  0  0  0  0
   16.7101   -7.3404  -11.7171 O   0  0  0  0  0  0  0  0  0  0  0  0
   15.8309   -6.7297  -12.3786 O   0  0  0  0  0  0  0  0  0  0  0  0
   20.3978   -4.5948  -12.9208 C   0  0  0  0  0  0  0  0  0  0  0  0
   12.8373   -6.3651   -7.5904 C   0  0  0  0  0  0  0  0  0  0  0  0
   14.0723   -5.6654   -8.1450 C   0  0  2  0  0  0  0  0  0  0  0  0
   14.9206   -6.6132   -8.9160 C   0  0  0  0  0  0  0  0  0  0  0  0
   15.4893   -7.6592   -7.9462 C   0  0  2  0  0  0  0  0  0  0  0  0
   16.0733   -6.0292   -9.6486 N   0  0  0  0  0  0  0  0  0  0  0  0
   16.8219   -7.0694  -10.3261 C   0  0  0  0  0  0  0  0  0  0  0  0
   16.9296   -5.1117   -8.9017 O   0  0  0  0  0  0  0  0  0  0  0  0
   16.5924   -4.0424   -8.3857 O   0  0  0  0  0  0  0  0  0  0  0  0
  1  2  1  0
  2  3  2  0
  4  2  1  0
  4  5  1  0
  6  5  1  0
  7  6  1  0
  8 10  1  0
  8  7  1  0
  8  9  1  1
 10 11  2  0
 12 13  1  0
 12 10  1  0
 13 14  1  6
 15 14  1  0
 16 20  1  0
 16 15  1  0
 17 16  2  0
 18 19  2  0
 18 13  1  0
 21 22  1  0
 22 23  1  0
 23 25  1  0
 23 24  1  6
 25 26  1  1
 25 27  1  0
 26 18  1  0
 27 29  1  0
 28 27  2  0
M  END
$$$$
