REI.pdb
     RDKit          3D

 29 28  0  0  1  0  0  0  0  0999 V2000
   28.3406  -21.5370  -17.8026 N   0  0  0  0  0  0  0  0  0  0  0  0
   29.5186  -22.2505  -17.4911 C   0  0  0  0  0  0  0  0  0  0  0  0
   30.3168  -22.7030  -18.4237 N   0  0  0  0  0  0  0  0  0  0  0  0
   29.9167  -22.5251  -16.1470 N   0  0  0  0  0  0  0  0  0  0  0  0
   29.0796  -22.0825  -15.0303 C   0  0  0  0  0  0  0  0  0  0  0  0
   29.3787  -20.6317  -14.7318 C   0  0  0  0  0  0  0  0  0  0  0  0
   28.6257  -20.1445  -13.5385 C   0  0  0  0  0  0  0  0  0  0  0  0
   27.1609  -20.4697  -13.5330 C   0  0  2  0  0  0  0  0  0  0  0  0
   26.4337  -20.0256  -14.6756 N   0  0  0  0  0  0  0  0  0  0  0  0
   26.4956  -20.1100  -12.2480 C   0  0  0  0  0  0  0  0  0  0  0  0
   26.7158  -18.9912  -11.7608 O   0  0  0  0  0  0  0  0  0  0  0  0
   31.1917  -23.2002  -18.2335 N   0  0  0  0  0  0  0  0  0  0  0  0
   25.6277  -20.9880  -11.5648 C   0  0  2  0  0  0  0  0  0  0  0  0
   24.9770  -20.6654  -10.3163 C   0  0  0  0  0  0  0  0  0  0  0  0
   23.5993  -21.2726  -10.2109 C   0  0  0  0  0  0  0  0  0  0  0  0
   22.8345  -20.6469   -9.0364 C   0  0  0  0  0  0  0  0  0  0  0  0
   21.6818  -19.9202   -9.6397 O   0  0  0  0  0  0  0  0  0  0  0  0
   20.7828  -20.4775  -10.3080 C   0  0  0  0  0  0  0  0  0  0  0  0
   25.7605  -21.0988   -9.1417 O   0  0  0  0  0  0  0  0  0  0  0  0
   26.2602  -22.2485   -9.0324 O   0  0  0  0  0  0  0  0  0  0  0  0
   21.6303  -18.5496   -9.4311 C   0  0  0  0  0  0  0  0  0  0  0  0
   29.6187  -19.8164   -7.0033 C   0  0  0  0  0  0  0  0  0  0  0  0
   28.4454  -18.8449   -7.0506 C   0  0  1  0  0  0  0  0  0  0  0  0
   27.2985  -19.3553   -6.2528 C   0  0  0  0  0  0  0  0  0  0  0  0
   27.8151  -19.7759   -4.8692 C   0  0  2  0  0  0  0  0  0  0  0  0
   26.5638  -20.5182   -6.8134 N   0  0  0  0  0  0  0  0  0  0  0  0
   25.9591  -20.1700   -8.0840 C   0  0  0  0  0  0  0  0  0  0  0  0
   25.6383  -21.2048   -5.9162 O   0  0  0  0  0  0  0  0  0  0  0  0
   25.9291  -22.0336   -5.0491 O   0  0  0  0  0  0  0  0  0  0  0  0
  1  2  1  0
  2  3  2  0
  4  2  1  0
  4  5  1  0
  6  5  1  0
  7  6  1  0
  8 10  1  0
  8  7  1  0
  8  9  1  6
 10 11  2  0
 12 13  1  0
 12 10  1  0
 13 14  1  6
 15 14  1  0
 16 20  1  0
 16 15  1  0
 17 16  2  0
 18 19  2  0
 18 13  1  0
 21 22  1  0
 22 23  1  0
 23 25  1  0
 23 24  1  1
 25 26  1  6
 25 27  1  0
 26 18  1  0
 27 29  1  0
 28 27  2  0
M  END
$$$$
