REI.pdb
     RDKit          3D

 29 28  0  0  1  0  0  0  0  0999 V2000
   31.9726  -21.8805  -20.6003 N   0  0  0  0  0  0  0  0  0  0  0  0
   30.6757  -22.0039  -21.1448 C   0  0  0  0  0  0  0  0  0  0  0  0
   30.4659  -22.5792  -22.3009 N   0  0  0  0  0  0  0  0  0  0  0  0
   29.5128  -21.5128  -20.4761 N   0  0  0  0  0  0  0  0  0  0  0  0
   29.6206  -20.9758  -19.1183 C   0  0  0  0  0  0  0  0  0  0  0  0
   28.8659  -21.8764  -18.1682 C   0  0  0  0  0  0  0  0  0  0  0  0
   28.8895  -21.3521  -16.7708 C   0  0  0  0  0  0  0  0  0  0  0  0
   28.1345  -22.1749  -15.7687 C   0  0  2  0  0  0  0  0  0  0  0  0
   27.3590  -23.2392  -16.3143 N   0  0  0  0  0  0  0  0  0  0  0  0
   27.3700  -21.3412  -14.7972 C   0  0  0  0  0  0  0  0  0  0  0  0
   27.9411  -20.3758  -14.2685 O   0  0  0  0  0  0  0  0  0  0  0  0
   29.5515  -22.6184  -22.7606 N   0  0  0  0  0  0  0  0  0  0  0  0
   26.0267  -21.6045  -14.4553 C   0  0  1  0  0  0  0  0  0  0  0  0
   25.2735  -20.8276  -13.4985 C   0  0  0  0  0  0  0  0  0  0  0  0
   23.8252  -20.6732  -13.8944 C   0  0  0  0  0  0  0  0  0  0  0  0
   23.1069  -19.7347  -12.9151 C   0  0  0  0  0  0  0  0  0  0  0  0
   21.6709  -19.7492  -13.3134 O   0  0  0  0  0  0  0  0  0  0  0  0
   20.8509  -20.6100  -12.9231 C   0  0  0  0  0  0  0  0  0  0  0  0
   25.3187  -21.4053  -12.1400 O   0  0  0  0  0  0  0  0  0  0  0  0
   25.1036  -22.6218  -11.9006 O   0  0  0  0  0  0  0  0  0  0  0  0
   21.2498  -18.7388  -14.1657 C   0  0  0  0  0  0  0  0  0  0  0  0
   27.9414  -19.7201   -6.8403 C   0  0  0  0  0  0  0  0  0  0  0  0
   26.9101  -20.6231   -7.5063 C   0  0  2  0  0  0  0  0  0  0  0  0
   26.6001  -20.1528   -8.8830 C   0  0  0  0  0  0  0  0  0  0  0  0
   26.0061  -18.7396   -8.7939 C   0  0  2  0  0  0  0  0  0  0  0  0
   25.6447  -20.9762   -9.6676 N   0  0  0  0  0  0  0  0  0  0  0  0
   25.6207  -20.5432  -11.0508 C   0  0  0  0  0  0  0  0  0  0  0  0
   24.3076  -21.1456   -9.1050 O   0  0  0  0  0  0  0  0  0  0  0  0
   23.2719  -20.5914   -9.4838 O   0  0  0  0  0  0  0  0  0  0  0  0
  1  2  1  0
  2  3  2  0
  4  2  1  0
  4  5  1  0
  6  5  1  0
  7  6  1  0
  8 10  1  0
  8  7  1  0
  8  9  1  6
 10 11  2  0
 12 13  1  0
 12 10  1  0
 13 14  1  6
 15 14  1  0
 16 20  1  0
 16 15  1  0
 17 16  2  0
 18 19  2  0
 18 13  1  0
 21 22  1  0
 22 23  1  0
 23 25  1  0
 23 24  1  6
 25 26  1  1
 25 27  1  0
 26 18  1  0
 27 29  1  0
 28 27  2  0
M  END
$$$$
