REI.pdb
     RDKit          3D

 29 28  0  0  1  0  0  0  0  0999 V2000
   29.0236  -24.6523  -18.0318 N   0  0  0  0  0  0  0  0  0  0  0  0
   28.5429  -25.1740  -16.8109 C   0  0  0  0  0  0  0  0  0  0  0  0
   28.6640  -26.4409  -16.5079 N   0  0  0  0  0  0  0  0  0  0  0  0
   27.8964  -24.3607  -15.8305 N   0  0  0  0  0  0  0  0  0  0  0  0
   27.8921  -22.9037  -15.9747 C   0  0  0  0  0  0  0  0  0  0  0  0
   29.0400  -22.3241  -15.1814 C   0  0  0  0  0  0  0  0  0  0  0  0
   28.5608  -21.5388  -14.0058 C   0  0  0  0  0  0  0  0  0  0  0  0
   27.2904  -20.7718  -14.2270 C   0  0  2  0  0  0  0  0  0  0  0  0
   27.3159  -19.8510  -15.3148 N   0  0  0  0  0  0  0  0  0  0  0  0
   26.7544  -20.1703  -12.9723 C   0  0  0  0  0  0  0  0  0  0  0  0
   27.1492  -19.0424  -12.6414 O   0  0  0  0  0  0  0  0  0  0  0  0
   28.3006  -26.8583  -15.6462 N   0  0  0  0  0  0  0  0  0  0  0  0
   25.8187  -20.8300  -12.1476 C   0  0  2  0  0  0  0  0  0  0  0  0
   25.2365  -20.2431  -10.9632 C   0  0  0  0  0  0  0  0  0  0  0  0
   23.7279  -20.2818  -10.9829 C   0  0  0  0  0  0  0  0  0  0  0  0
   23.2105  -19.9960  -12.3994 C   0  0  0  0  0  0  0  0  0  0  0  0
   21.7246  -20.0747  -12.3157 O   0  0  0  0  0  0  0  0  0  0  0  0
   21.1020  -20.3459  -11.2649 C   0  0  0  0  0  0  0  0  0  0  0  0
   25.6962  -20.8992   -9.7224 O   0  0  0  0  0  0  0  0  0  0  0  0
   25.9593  -22.1276   -9.6489 O   0  0  0  0  0  0  0  0  0  0  0  0
   21.0201  -19.8283  -13.4852 C   0  0  0  0  0  0  0  0  0  0  0  0
   28.8414  -18.1362   -6.1162 C   0  0  0  0  0  0  0  0  0  0  0  0
   28.2204  -19.2214   -6.9874 C   0  0  2  0  0  0  0  0  0  0  0  0
   26.9111  -19.6627   -6.4364 C   0  0  0  0  0  0  0  0  0  0  0  0
   27.1509  -20.3024   -5.0612 C   0  0  2  0  0  0  0  0  0  0  0  0
   26.1470  -20.6468   -7.2452 N   0  0  0  0  0  0  0  0  0  0  0  0
   25.8486  -20.1023   -8.5552 C   0  0  0  0  0  0  0  0  0  0  0  0
   24.9833  -21.2578   -6.6086 O   0  0  0  0  0  0  0  0  0  0  0  0
   24.9902  -22.1790   -5.7871 O   0  0  0  0  0  0  0  0  0  0  0  0
  1  2  1  0
  2  3  2  0
  4  2  1  0
  4  5  1  0
  6  5  1  0
  7  6  1  0
  8 10  1  0
  8  7  1  0
  8  9  1  6
 10 11  2  0
 12 13  1  0
 12 10  1  0
 13 14  1  6
 15 14  1  0
 16 20  1  0
 16 15  1  0
 17 16  2  0
 18 19  2  0
 18 13  1  0
 21 22  1  0
 22 23  1  0
 23 25  1  0
 23 24  1  6
 25 26  1  6
 25 27  1  0
 26 18  1  0
 27 29  1  0
 28 27  2  0
M  END
$$$$
