HND.pdb
     RDKit          3D

 27 27  0  0  1  0  0  0  0  0999 V2000
   27.8888  -21.3680  -16.9822 N   0  0  0  0  0  0  0  0  0  0  0  0
   27.2960  -20.2946  -16.2475 C   0  0  1  0  0  0  0  0  0  0  0  0
   26.3005  -19.4722  -16.9942 C   0  0  0  0  0  0  0  0  0  0  0  0
   26.9155  -18.6667  -18.0817 C   0  0  0  0  0  0  0  0  0  0  0  0
   28.2747  -18.6769  -18.3223 C   0  0  0  0  0  0  0  0  0  0  0  0
   28.5293  -17.8530  -19.3651 N   0  0  0  0  0  0  0  0  0  0  0  0
   27.3487  -17.3506  -19.7518 C   0  0  0  0  0  0  0  0  0  0  0  0
   26.3786  -17.8438  -18.9753 N   0  0  0  0  0  0  0  0  0  0  0  0
   26.5767  -20.9043  -15.0740 C   0  0  0  0  0  0  0  0  0  0  0  0
   26.0990  -22.0677  -15.1589 O   0  0  0  0  0  0  0  0  0  0  0  0
   25.2329  -20.5239   -9.3028 N   0  0  0  0  0  0  0  0  0  0  0  0
   25.8501  -21.2917  -10.3531 C   0  0  0  0  0  0  0  0  0  0  0  0
   25.7311  -22.5471  -10.2023 O   0  0  0  0  0  0  0  0  0  0  0  0
   26.5468  -20.6607  -11.4835 C   0  0  0  0  0  0  0  0  0  0  0  0
   25.7564  -20.8493  -12.7378 C   0  0  2  0  0  0  0  0  0  0  0  0
   26.4125  -20.2064  -13.8529 N   0  0  0  0  0  0  0  0  0  0  0  0
   24.3531  -20.3117  -12.5847 C   0  0  0  0  0  0  0  0  0  0  0  0
   24.1846  -19.1094  -12.2592 O   0  0  0  0  0  0  0  0  0  0  0  0
   23.2125  -21.1312  -12.7993 N   0  0  0  0  0  0  0  0  0  0  0  0
   21.9280  -20.5665  -13.0573 C   0  0  1  0  0  0  0  0  0  0  0  0
   21.9116  -19.5986  -14.2138 C   0  0  0  0  0  0  0  0  0  0  0  0
   20.5901  -18.9523  -14.4067 C   0  0  0  0  0  0  0  0  0  0  0  0
   19.5370  -19.5598  -14.1349 O   0  0  0  0  0  0  0  0  0  0  0  0
   20.8568  -21.5822  -13.1824 C   0  0  0  0  0  0  0  0  0  0  0  0
   21.1314  -22.8177  -13.7517 O   0  0  0  0  0  0  0  0  0  0  0  0
   20.4746  -17.6588  -14.8923 O   0  0  0  0  0  0  0  0  0  0  0  0
   19.6683  -21.4037  -12.7959 O   0  0  0  0  0  0  0  0  0  0  0  0
  2  1  1  6
  2  9  1  0
  3  4  1  0
  3  2  1  0
  4  5  2  0
  4  8  1  0
  5  6  1  0
  6  7  1  0
  8  7  2  0
  9 10  2  0
 11 12  1  0
 12 14  1  0
 13 12  2  0
 15 14  1  1
 15 17  1  0
 16  9  1  0
 16 15  1  0
 17 19  1  0
 17 18  2  0
 19 20  1  0
 20 24  1  0
 20 21  1  6
 22 21  1  0
 23 22  2  0
 24 25  1  0
 26 22  1  0
 27 24  2  0
M  END
$$$$
