HND.pdb
     RDKit          3D

 27 27  0  0  1  0  0  0  0  0999 V2000
   23.6228  -13.0287  -18.0436 N   0  0  0  0  0  0  0  0  0  0  0  0
   23.3456  -12.5434  -16.7279 C   0  0  1  0  0  0  0  0  0  0  0  0
   24.5304  -12.0913  -15.9425 C   0  0  0  0  0  0  0  0  0  0  0  0
   25.5040  -13.1845  -15.6839 C   0  0  0  0  0  0  0  0  0  0  0  0
   25.3137  -14.4642  -16.1652 C   0  0  0  0  0  0  0  0  0  0  0  0
   26.3582  -15.2281  -15.7697 N   0  0  0  0  0  0  0  0  0  0  0  0
   27.1684  -14.4297  -15.0613 C   0  0  0  0  0  0  0  0  0  0  0  0
   26.6495  -13.1986  -15.0120 N   0  0  0  0  0  0  0  0  0  0  0  0
   22.4325  -11.3558  -16.8764 C   0  0  0  0  0  0  0  0  0  0  0  0
   22.6146  -10.5299  -17.8111 O   0  0  0  0  0  0  0  0  0  0  0  0
   18.0380  -12.6110  -16.5986 N   0  0  0  0  0  0  0  0  0  0  0  0
   18.5136  -11.2860  -16.9012 C   0  0  0  0  0  0  0  0  0  0  0  0
   18.4168  -10.9795  -18.1299 O   0  0  0  0  0  0  0  0  0  0  0  0
   19.0558  -10.3900  -15.8695 C   0  0  0  0  0  0  0  0  0  0  0  0
   20.4611  -10.0126  -16.2107 C   0  0  2  0  0  0  0  0  0  0  0  0
   21.3542  -11.1260  -15.9877 N   0  0  0  0  0  0  0  0  0  0  0  0
   20.9157   -8.8172  -15.4070 C   0  0  0  0  0  0  0  0  0  0  0  0
   22.0540   -8.8282  -14.8741 O   0  0  0  0  0  0  0  0  0  0  0  0
   20.0884   -7.6750  -15.2355 N   0  0  0  0  0  0  0  0  0  0  0  0
   20.5618   -6.5061  -14.5685 C   0  0  1  0  0  0  0  0  0  0  0  0
   21.8523   -5.9662  -15.1324 C   0  0  0  0  0  0  0  0  0  0  0  0
   22.3180   -4.7410  -14.4373 C   0  0  0  0  0  0  0  0  0  0  0  0
   21.7196   -4.3110  -13.4327 O   0  0  0  0  0  0  0  0  0  0  0  0
   19.5350   -5.4451  -14.4473 C   0  0  0  0  0  0  0  0  0  0  0  0
   18.4053   -5.4738  -15.2529 O   0  0  0  0  0  0  0  0  0  0  0  0
   23.4270   -4.0319  -14.8728 O   0  0  0  0  0  0  0  0  0  0  0  0
   19.6111   -4.4806  -13.6364 O   0  0  0  0  0  0  0  0  0  0  0  0
  2  1  1  6
  2  9  1  0
  3  4  1  0
  3  2  1  0
  4  5  2  0
  4  8  1  0
  5  6  1  0
  6  7  1  0
  8  7  2  0
  9 10  2  0
 11 12  1  0
 12 14  1  0
 13 12  2  0
 15 14  1  1
 15 17  1  0
 16  9  1  0
 16 15  1  0
 17 19  1  0
 17 18  2  0
 19 20  1  0
 20 24  1  0
 20 21  1  6
 22 21  1  0
 23 22  2  0
 24 25  1  0
 26 22  1  0
 27 24  2  0
M  END
$$$$
