HND.pdb
     RDKit          3D

 27 27  0  0  1  0  0  0  0  0999 V2000
   19.9539  -19.4183  -18.2769 N   0  0  0  0  0  0  0  0  0  0  0  0
   20.4713  -20.4561  -17.4410 C   0  0  1  0  0  0  0  0  0  0  0  0
   21.9541  -20.4780  -17.2803 C   0  0  0  0  0  0  0  0  0  0  0  0
   22.6742  -20.5956  -18.5754 C   0  0  0  0  0  0  0  0  0  0  0  0
   22.7594  -21.7909  -19.2605 C   0  0  0  0  0  0  0  0  0  0  0  0
   23.4702  -21.5834  -20.3931 N   0  0  0  0  0  0  0  0  0  0  0  0
   23.8115  -20.2876  -20.3976 C   0  0  0  0  0  0  0  0  0  0  0  0
   23.3296  -19.6959  -19.2998 N   0  0  0  0  0  0  0  0  0  0  0  0
   19.8796  -20.2585  -16.0709 C   0  0  0  0  0  0  0  0  0  0  0  0
   20.1565  -21.0616  -15.1396 O   0  0  0  0  0  0  0  0  0  0  0  0
   20.9507  -17.8903  -13.8750 N   0  0  0  0  0  0  0  0  0  0  0  0
   19.7816  -17.0533  -13.7947 C   0  0  0  0  0  0  0  0  0  0  0  0
   20.0351  -15.8578  -13.4493 O   0  0  0  0  0  0  0  0  0  0  0  0
   18.4321  -17.5567  -14.0891 C   0  0  0  0  0  0  0  0  0  0  0  0
   18.4959  -19.0077  -14.4416 C   0  0  2  0  0  0  0  0  0  0  0  0
   19.0055  -19.1825  -15.7821 N   0  0  0  0  0  0  0  0  0  0  0  0
   17.1393  -19.6601  -14.3159 C   0  0  0  0  0  0  0  0  0  0  0  0
   16.3693  -19.6799  -15.3091 O   0  0  0  0  0  0  0  0  0  0  0  0
   16.7071  -20.2548  -13.1001 N   0  0  0  0  0  0  0  0  0  0  0  0
   15.4172  -20.8525  -12.9810 C   0  0  1  0  0  0  0  0  0  0  0  0
   15.3332  -21.9055  -11.9045 C   0  0  0  0  0  0  0  0  0  0  0  0
   14.0179  -22.5911  -11.8692 C   0  0  0  0  0  0  0  0  0  0  0  0
   13.1869  -22.3315  -10.9780 O   0  0  0  0  0  0  0  0  0  0  0  0
   14.3222  -19.8619  -12.8600 C   0  0  0  0  0  0  0  0  0  0  0  0
   13.1017  -20.0938  -13.4785 O   0  0  0  0  0  0  0  0  0  0  0  0
   13.6635  -23.5389  -12.8169 O   0  0  0  0  0  0  0  0  0  0  0  0
   14.4174  -18.7824  -12.2124 O   0  0  0  0  0  0  0  0  0  0  0  0
  2  1  1  6
  2  9  1  0
  3  4  1  0
  3  2  1  0
  4  5  2  0
  4  8  1  0
  5  6  1  0
  6  7  1  0
  8  7  2  0
  9 10  2  0
 11 12  1  0
 12 14  1  0
 13 12  2  0
 15 14  1  6
 15 17  1  0
 16  9  1  0
 16 15  1  0
 17 19  1  0
 17 18  2  0
 19 20  1  0
 20 24  1  0
 20 21  1  1
 22 21  1  0
 23 22  2  0
 24 25  1  0
 26 22  1  0
 27 24  2  0
M  END
$$$$
