HND.pdb
     RDKit          3D

 27 27  0  0  1  0  0  0  0  0999 V2000
   24.2577  -17.3637  -16.4430 N   0  0  0  0  0  0  0  0  0  0  0  0
   24.1874  -18.7224  -16.8816 C   0  0  1  0  0  0  0  0  0  0  0  0
   25.4826  -19.4618  -16.9062 C   0  0  0  0  0  0  0  0  0  0  0  0
   26.5896  -18.6691  -17.5029 C   0  0  0  0  0  0  0  0  0  0  0  0
   26.7817  -18.5907  -18.8676 C   0  0  0  0  0  0  0  0  0  0  0  0
   27.8575  -17.8041  -19.1021 N   0  0  0  0  0  0  0  0  0  0  0  0
   28.3118  -17.4115  -17.9042 C   0  0  0  0  0  0  0  0  0  0  0  0
   27.5445  -17.9354  -16.9428 N   0  0  0  0  0  0  0  0  0  0  0  0
   23.2793  -19.4503  -15.9267 C   0  0  0  0  0  0  0  0  0  0  0  0
   23.0141  -20.6690  -16.1093 O   0  0  0  0  0  0  0  0  0  0  0  0
   20.3134  -19.3476  -10.6536 N   0  0  0  0  0  0  0  0  0  0  0  0
   21.0675  -19.9916  -11.6976 C   0  0  0  0  0  0  0  0  0  0  0  0
   20.8107  -21.2293  -11.8208 O   0  0  0  0  0  0  0  0  0  0  0  0
   22.0377  -19.2653  -12.5298 C   0  0  0  0  0  0  0  0  0  0  0  0
   21.7546  -19.5142  -13.9760 C   0  0  2  0  0  0  0  0  0  0  0  0
   22.6993  -18.8048  -14.8076 N   0  0  0  0  0  0  0  0  0  0  0  0
   20.3447  -19.1074  -14.3340 C   0  0  0  0  0  0  0  0  0  0  0  0
   20.0428  -17.8876  -14.3643 O   0  0  0  0  0  0  0  0  0  0  0  0
   19.3450  -20.0698  -14.6389 N   0  0  0  0  0  0  0  0  0  0  0  0
   17.9896  -19.6883  -14.8686 C   0  0  1  0  0  0  0  0  0  0  0  0
   17.5302  -19.9056  -16.2886 C   0  0  0  0  0  0  0  0  0  0  0  0
   16.1348  -19.4571  -16.5187 C   0  0  0  0  0  0  0  0  0  0  0  0
   15.4596  -18.9715  -15.5911 O   0  0  0  0  0  0  0  0  0  0  0  0
   17.0426  -20.2782  -13.8939 C   0  0  0  0  0  0  0  0  0  0  0  0
   16.0739  -19.4843  -13.2961 O   0  0  0  0  0  0  0  0  0  0  0  0
   15.5315  -19.5590  -17.7628 O   0  0  0  0  0  0  0  0  0  0  0  0
   17.0488  -21.4936  -13.5528 O   0  0  0  0  0  0  0  0  0  0  0  0
  2  1  1  1
  2  9  1  0
  3  4  1  0
  3  2  1  0
  4  5  2  0
  4  8  1  0
  5  6  1  0
  6  7  1  0
  8  7  2  0
  9 10  2  0
 11 12  1  0
 12 14  1  0
 13 12  2  0
 15 14  1  1
 15 17  1  0
 16  9  1  0
 16 15  1  0
 17 19  1  0
 17 18  2  0
 19 20  1  0
 20 24  1  0
 20 21  1  6
 22 21  1  0
 23 22  2  0
 24 25  1  0
 26 22  1  0
 27 24  2  0
M  END
$$$$
