HND.pdb
     RDKit          3D

 27 27  0  0  1  0  0  0  0  0999 V2000
   26.8042  -18.1740  -14.4945 N   0  0  0  0  0  0  0  0  0  0  0  0
   26.1656  -18.8832  -15.5587 C   0  0  1  0  0  0  0  0  0  0  0  0
   27.0502  -19.2844  -16.6907 C   0  0  0  0  0  0  0  0  0  0  0  0
   27.7567  -18.1318  -17.3089 C   0  0  0  0  0  0  0  0  0  0  0  0
   27.6107  -16.8434  -16.8355 C   0  0  0  0  0  0  0  0  0  0  0  0
   28.3709  -16.0214  -17.5954 N   0  0  0  0  0  0  0  0  0  0  0  0
   28.9677  -16.7936  -18.5136 C   0  0  0  0  0  0  0  0  0  0  0  0
   28.5945  -18.0652  -18.3373 N   0  0  0  0  0  0  0  0  0  0  0  0
   25.5967  -20.1470  -14.9710 C   0  0  0  0  0  0  0  0  0  0  0  0
   25.0951  -21.0254  -15.7231 O   0  0  0  0  0  0  0  0  0  0  0  0
   25.6786  -19.7714  -10.9662 N   0  0  0  0  0  0  0  0  0  0  0  0
   25.7948  -21.2029  -10.8619 C   0  0  0  0  0  0  0  0  0  0  0  0
   26.3617  -21.5903   -9.7934 O   0  0  0  0  0  0  0  0  0  0  0  0
   25.2973  -22.1106  -11.9057 C   0  0  0  0  0  0  0  0  0  0  0  0
   24.6586  -21.3226  -13.0033 C   0  0  2  0  0  0  0  0  0  0  0  0
   25.6035  -20.3920  -13.5763 N   0  0  0  0  0  0  0  0  0  0  0  0
   23.4408  -20.5806  -12.5051 C   0  0  0  0  0  0  0  0  0  0  0  0
   23.5707  -19.4165  -12.0490 O   0  0  0  0  0  0  0  0  0  0  0  0
   22.1461  -21.1647  -12.5375 N   0  0  0  0  0  0  0  0  0  0  0  0
   20.9976  -20.4088  -12.9184 C   0  0  1  0  0  0  0  0  0  0  0  0
   21.1550  -19.6866  -14.2330 C   0  0  0  0  0  0  0  0  0  0  0  0
   19.9375  -18.9367  -14.6288 C   0  0  0  0  0  0  0  0  0  0  0  0
   19.1892  -18.4351  -13.7682 O   0  0  0  0  0  0  0  0  0  0  0  0
   19.7408  -21.1919  -12.8747 C   0  0  0  0  0  0  0  0  0  0  0  0
   19.5665  -22.2772  -13.7218 O   0  0  0  0  0  0  0  0  0  0  0  0
   19.5865  -18.7651  -15.9591 O   0  0  0  0  0  0  0  0  0  0  0  0
   18.7798  -20.9386  -12.0961 O   0  0  0  0  0  0  0  0  0  0  0  0
  2  1  1  1
  2  9  1  0
  3  4  1  0
  3  2  1  0
  4  5  2  0
  4  8  1  0
  5  6  1  0
  6  7  1  0
  8  7  2  0
  9 10  2  0
 11 12  1  0
 12 14  1  0
 13 12  2  0
 15 14  1  1
 15 17  1  0
 16  9  1  0
 16 15  1  0
 17 19  1  0
 17 18  2  0
 19 20  1  0
 20 24  1  0
 20 21  1  6
 22 21  1  0
 23 22  2  0
 24 25  1  0
 26 22  1  0
 27 24  2  0
M  END
$$$$
