HND.pdb
     RDKit          3D

 27 27  0  0  1  0  0  0  0  0999 V2000
   18.3760  -13.6550  -16.8943 N   0  0  0  0  0  0  0  0  0  0  0  0
   17.9641  -12.3235  -16.5766 C   0  0  1  0  0  0  0  0  0  0  0  0
   17.5268  -12.1007  -15.1680 C   0  0  0  0  0  0  0  0  0  0  0  0
   16.2596  -12.8042  -14.8379 C   0  0  0  0  0  0  0  0  0  0  0  0
   15.5648  -13.5410  -15.7760 C   0  0  0  0  0  0  0  0  0  0  0  0
   14.4632  -14.0564  -15.1826 N   0  0  0  0  0  0  0  0  0  0  0  0
   14.4864  -13.6415  -13.9086 C   0  0  0  0  0  0  0  0  0  0  0  0
   15.5711  -12.8868  -13.7052 N   0  0  0  0  0  0  0  0  0  0  0  0
   19.1455  -11.4233  -16.8219 C   0  0  0  0  0  0  0  0  0  0  0  0
   20.3050  -11.7978  -16.4988 O   0  0  0  0  0  0  0  0  0  0  0  0
   21.5424   -6.9662  -20.0987 N   0  0  0  0  0  0  0  0  0  0  0  0
   21.5009   -8.1636  -19.3000 C   0  0  0  0  0  0  0  0  0  0  0  0
   22.6305   -8.4968  -18.8245 O   0  0  0  0  0  0  0  0  0  0  0  0
   20.2574   -8.9133  -19.0702 C   0  0  0  0  0  0  0  0  0  0  0  0
   20.1647   -9.3173  -17.6343 C   0  0  2  0  0  0  0  0  0  0  0  0
   19.0013  -10.1451  -17.4139 N   0  0  0  0  0  0  0  0  0  0  0  0
   20.1173   -8.1089  -16.7293 C   0  0  0  0  0  0  0  0  0  0  0  0
   19.0036   -7.6415  -16.3810 O   0  0  0  0  0  0  0  0  0  0  0  0
   21.3024   -7.4824  -16.2584 N   0  0  0  0  0  0  0  0  0  0  0  0
   21.2523   -6.3619  -15.3767 C   0  0  1  0  0  0  0  0  0  0  0  0
   22.5154   -6.1617  -14.5772 C   0  0  0  0  0  0  0  0  0  0  0  0
   22.4165   -5.0380  -13.6136 C   0  0  0  0  0  0  0  0  0  0  0  0
   22.6699   -3.8705  -13.9669 O   0  0  0  0  0  0  0  0  0  0  0  0
   20.8270   -5.1100  -16.0450 C   0  0  0  0  0  0  0  0  0  0  0  0
   19.8896   -4.2827  -15.4428 O   0  0  0  0  0  0  0  0  0  0  0  0
   22.0417   -5.2393  -12.2940 O   0  0  0  0  0  0  0  0  0  0  0  0
   21.2690   -4.7229  -17.1624 O   0  0  0  0  0  0  0  0  0  0  0  0
  2  1  1  1
  2  9  1  0
  3  4  1  0
  3  2  1  0
  4  5  2  0
  4  8  1  0
  5  6  1  0
  6  7  1  0
  8  7  2  0
  9 10  2  0
 11 12  1  0
 12 14  1  0
 13 12  2  0
 15 14  1  6
 15 17  1  0
 16  9  1  0
 16 15  1  0
 17 19  1  0
 17 18  2  0
 19 20  1  0
 20 24  1  0
 20 21  1  6
 22 21  1  0
 23 22  2  0
 24 25  1  0
 26 22  1  0
 27 24  2  0
M  END
$$$$
