HND.pdb
     RDKit          3D

 27 27  0  0  1  0  0  0  0  0999 V2000
   17.7363   -9.5305  -12.7290 N   0  0  0  0  0  0  0  0  0  0  0  0
   18.2988   -8.6336  -11.7684 C   0  0  1  0  0  0  0  0  0  0  0  0
   19.2999   -7.6632  -12.2985 C   0  0  0  0  0  0  0  0  0  0  0  0
   20.4877   -8.3269  -12.8972 C   0  0  0  0  0  0  0  0  0  0  0  0
   21.4595   -8.9276  -12.1226 C   0  0  0  0  0  0  0  0  0  0  0  0
   22.4042   -9.4396  -12.9451 N   0  0  0  0  0  0  0  0  0  0  0  0
   22.0156   -9.1562  -14.1958 C   0  0  0  0  0  0  0  0  0  0  0  0
   20.8597   -8.4852  -14.1623 N   0  0  0  0  0  0  0  0  0  0  0  0
   17.1630   -7.8298  -11.1938 C   0  0  0  0  0  0  0  0  0  0  0  0
   16.4455   -7.1187  -11.9477 O   0  0  0  0  0  0  0  0  0  0  0  0
   13.8797   -8.9957  -10.0734 N   0  0  0  0  0  0  0  0  0  0  0  0
   14.1520   -8.8284   -8.6693 C   0  0  0  0  0  0  0  0  0  0  0  0
   13.5055   -9.6309   -7.9270 O   0  0  0  0  0  0  0  0  0  0  0  0
   15.0933   -7.8177   -8.1655 C   0  0  0  0  0  0  0  0  0  0  0  0
   15.7294   -7.0990   -9.3111 C   0  0  2  0  0  0  0  0  0  0  0  0
   16.8635   -7.8421   -9.8098 N   0  0  0  0  0  0  0  0  0  0  0  0
   16.1596   -5.7073   -8.9113 C   0  0  0  0  0  0  0  0  0  0  0  0
   17.1517   -5.5615   -8.1534 O   0  0  0  0  0  0  0  0  0  0  0  0
   15.4705   -4.5526   -9.3700 N   0  0  0  0  0  0  0  0  0  0  0  0
   15.8997   -3.2393   -9.0147 C   0  0  1  0  0  0  0  0  0  0  0  0
   16.5117   -2.4704  -10.1588 C   0  0  0  0  0  0  0  0  0  0  0  0
   16.8864   -1.0837   -9.7873 C   0  0  0  0  0  0  0  0  0  0  0  0
   17.1612   -0.7914   -8.6078 O   0  0  0  0  0  0  0  0  0  0  0  0
   14.8538   -2.4484   -8.3252 C   0  0  0  0  0  0  0  0  0  0  0  0
   15.2032   -1.5590   -7.3188 O   0  0  0  0  0  0  0  0  0  0  0  0
   16.9455   -0.0670  -10.7281 O   0  0  0  0  0  0  0  0  0  0  0  0
   13.6225   -2.5237   -8.5932 O   0  0  0  0  0  0  0  0  0  0  0  0
  2  1  1  6
  2  9  1  0
  3  4  1  0
  3  2  1  0
  4  5  2  0
  4  8  1  0
  5  6  1  0
  6  7  1  0
  8  7  2  0
  9 10  2  0
 11 12  1  0
 12 14  1  0
 13 12  2  0
 15 14  1  1
 15 17  1  0
 16  9  1  0
 16 15  1  0
 17 19  1  0
 17 18  2  0
 19 20  1  0
 20 24  1  0
 20 21  1  6
 22 21  1  0
 23 22  2  0
 24 25  1  0
 26 22  1  0
 27 24  2  0
M  END
$$$$
