HND.pdb
     RDKit          3D

 27 27  0  0  1  0  0  0  0  0999 V2000
   23.5135  -11.2251  -18.5200 N   0  0  0  0  0  0  0  0  0  0  0  0
   23.5923   -9.9209  -19.1000 C   0  0  1  0  0  0  0  0  0  0  0  0
   23.0488   -9.7945  -20.4833 C   0  0  0  0  0  0  0  0  0  0  0  0
   23.7890  -10.6204  -21.4730 C   0  0  0  0  0  0  0  0  0  0  0  0
   23.1733  -11.6184  -22.2013 C   0  0  0  0  0  0  0  0  0  0  0  0
   24.0965  -12.1870  -23.0108 N   0  0  0  0  0  0  0  0  0  0  0  0
   25.2517  -11.5484  -22.7800 C   0  0  0  0  0  0  0  0  0  0  0  0
   25.0618  -10.6047  -21.8522 N   0  0  0  0  0  0  0  0  0  0  0  0
   22.7915   -8.9963  -18.2226 C   0  0  0  0  0  0  0  0  0  0  0  0
   21.6021   -9.2831  -17.9191 O   0  0  0  0  0  0  0  0  0  0  0  0
   21.0430   -5.4916  -15.0560 N   0  0  0  0  0  0  0  0  0  0  0  0
   22.4125   -5.7962  -14.7318 C   0  0  0  0  0  0  0  0  0  0  0  0
   22.7777   -5.3521  -13.5994 O   0  0  0  0  0  0  0  0  0  0  0  0
   23.2868   -6.5513  -15.6410 C   0  0  0  0  0  0  0  0  0  0  0  0
   22.5301   -6.9377  -16.8705 C   0  0  2  0  0  0  0  0  0  0  0  0
   23.3343   -7.7911  -17.7144 N   0  0  0  0  0  0  0  0  0  0  0  0
   22.0855   -5.7185  -17.6436 C   0  0  0  0  0  0  0  0  0  0  0  0
   22.8995   -5.1413  -18.4079 O   0  0  0  0  0  0  0  0  0  0  0  0
   20.7664   -5.2031  -17.5301 N   0  0  0  0  0  0  0  0  0  0  0  0
   20.3471   -4.0604  -18.2742 C   0  0  1  0  0  0  0  0  0  0  0  0
   18.9341   -4.1586  -18.7924 C   0  0  0  0  0  0  0  0  0  0  0  0
   18.5542   -3.0117  -19.6535 C   0  0  0  0  0  0  0  0  0  0  0  0
   19.3407   -2.0628  -19.8360 O   0  0  0  0  0  0  0  0  0  0  0  0
   20.5781   -2.7817  -17.5626 C   0  0  0  0  0  0  0  0  0  0  0  0
   20.3399   -1.5745  -18.2043 O   0  0  0  0  0  0  0  0  0  0  0  0
   17.3209   -2.9497  -20.2840 O   0  0  0  0  0  0  0  0  0  0  0  0
   20.9902   -2.7028  -16.3719 O   0  0  0  0  0  0  0  0  0  0  0  0
  2  1  1  1
  2  9  1  0
  3  4  1  0
  3  2  1  0
  4  5  2  0
  4  8  1  0
  5  6  1  0
  6  7  1  0
  8  7  2  0
  9 10  2  0
 11 12  1  0
 12 14  1  0
 13 12  2  0
 15 14  1  1
 15 17  1  0
 16  9  1  0
 16 15  1  0
 17 19  1  0
 17 18  2  0
 19 20  1  0
 20 24  1  0
 20 21  1  1
 22 21  1  0
 23 22  2  0
 24 25  1  0
 26 22  1  0
 27 24  2  0
M  END
$$$$
