DGW.pdb
     RDKit          3D

 27 28  0  0  1  0  0  0  0  0999 V2000
    8.4656  -19.7512   21.5766 N   0  0  0  0  0  0  0  0  0  0  0  0
    7.3120  -18.9709   21.1872 C   0  0  1  0  0  0  0  0  0  0  0  0
    6.0849  -19.4094   22.0009 C   0  0  0  0  0  0  0  0  0  0  0  0
    5.8660  -20.8530   21.7841 C   0  0  0  0  0  0  0  0  0  0  0  0
    5.4701  -21.2637   20.6725 O   0  0  0  0  0  0  0  0  0  0  0  0
    7.5962  -17.5375   21.5133 C   0  0  0  0  0  0  0  0  0  0  0  0
    6.6416  -16.7953   21.8448 O   0  0  0  0  0  0  0  0  0  0  0  0
    6.0977  -21.7537   22.8069 O   0  0  0  0  0  0  0  0  0  0  0  0
    8.9334  -17.1022   21.4281 N   0  0  0  0  0  0  0  0  0  0  0  0
    9.2882  -15.7537   21.6972 C   0  0  0  0  0  0  0  0  0  0  0  0
    9.6889  -15.4875   23.1037 C   0  0  0  0  0  0  0  0  0  0  0  0
   10.2265  -14.3891   23.3959 O   0  0  0  0  0  0  0  0  0  0  0  0
    9.4900  -16.4215   24.1349 N   0  0  0  0  0  0  0  0  0  0  0  0
   10.0228  -16.3190   25.4871 C   0  0  1  0  0  0  0  0  0  0  0  0
    8.9321  -16.3561   26.4992 C   0  0  0  0  0  0  0  0  0  0  0  0
    7.7935  -15.5026   26.1358 C   0  0  0  0  0  0  0  0  0  0  0  0
    6.6317  -15.9297   25.5073 C   0  0  0  0  0  0  0  0  0  0  0  0
    5.8121  -14.9154   25.2918 N   0  0  0  0  0  0  0  0  0  0  0  0
    6.4093  -13.7926   25.7721 C   0  0  0  0  0  0  0  0  0  0  0  0
    6.0063  -12.4710   25.8299 C   0  0  0  0  0  0  0  0  0  0  0  0
    6.7837  -11.5021   26.3906 C   0  0  0  0  0  0  0  0  0  0  0  0
    8.0100  -11.8677   26.9136 C   0  0  0  0  0  0  0  0  0  0  0  0
    8.4636  -13.1686   26.8837 C   0  0  0  0  0  0  0  0  0  0  0  0
    7.6332  -14.1226   26.2992 C   0  0  0  0  0  0  0  0  0  0  0  0
   11.1322  -17.1846   25.7881 C   0  0  0  0  0  0  0  0  0  0  0  0
   11.6965  -17.0821   26.9409 O   0  0  0  0  0  0  0  0  0  0  0  0
   11.6656  -18.1427   24.9537 O   0  0  0  0  0  0  0  0  0  0  0  0
  2  1  1  1
  2  6  1  0
  3  4  1  0
  3  2  1  0
  4  5  2  0
  6  9  1  0
  7  6  2  0
  8  4  1  0
  9 10  1  0
 10 11  1  0
 11 13  1  0
 11 12  2  0
 13 14  1  0
 14 25  1  0
 14 15  1  1
 16 15  1  0
 17 16  2  0
 18 17  1  0
 19 24  2  0
 19 18  1  0
 20 19  1  0
 21 20  2  0
 21 22  1  0
 22 23  2  0
 23 24  1  0
 24 16  1  0
 25 26  2  0
 25 27  1  0
M  END
$$$$
