DGW.pdb
     RDKit          3D

 27 28  0  0  1  0  0  0  0  0999 V2000
   11.8772  -19.2259   19.8750 N   0  0  0  0  0  0  0  0  0  0  0  0
   11.6539  -18.2676   18.8152 C   0  0  1  0  0  0  0  0  0  0  0  0
   10.8549  -18.9220   17.6779 C   0  0  0  0  0  0  0  0  0  0  0  0
   11.8030  -19.5343   16.7265 C   0  0  0  0  0  0  0  0  0  0  0  0
   13.0334  -19.4258   16.9153 O   0  0  0  0  0  0  0  0  0  0  0  0
   10.8320  -17.1481   19.3745 C   0  0  0  0  0  0  0  0  0  0  0  0
   10.5822  -16.1613   18.6424 O   0  0  0  0  0  0  0  0  0  0  0  0
   11.3351  -20.2282   15.6263 O   0  0  0  0  0  0  0  0  0  0  0  0
   10.3823  -17.2704   20.7040 N   0  0  0  0  0  0  0  0  0  0  0  0
    9.6283  -16.2395   21.3249 C   0  0  0  0  0  0  0  0  0  0  0  0
   10.2892  -15.6093   22.4979 C   0  0  0  0  0  0  0  0  0  0  0  0
   11.5410  -15.4926   22.5131 O   0  0  0  0  0  0  0  0  0  0  0  0
    9.5670  -15.1312   23.6047 N   0  0  0  0  0  0  0  0  0  0  0  0
    9.4499  -15.7990   24.8943 C   0  0  1  0  0  0  0  0  0  0  0  0
    8.0685  -16.3084   25.1128 C   0  0  0  0  0  0  0  0  0  0  0  0
    7.1690  -15.2865   25.6637 C   0  0  0  0  0  0  0  0  0  0  0  0
    5.9070  -15.5211   26.1924 C   0  0  0  0  0  0  0  0  0  0  0  0
    5.3399  -14.3912   26.5781 N   0  0  0  0  0  0  0  0  0  0  0  0
    6.2110  -13.3813   26.3155 C   0  0  0  0  0  0  0  0  0  0  0  0
    6.1507  -12.0159   26.5266 C   0  0  0  0  0  0  0  0  0  0  0  0
    7.1798  -11.1867   26.1933 C   0  0  0  0  0  0  0  0  0  0  0  0
    8.3120  -11.7430   25.6280 C   0  0  0  0  0  0  0  0  0  0  0  0
    8.4280  -13.0961   25.3940 C   0  0  0  0  0  0  0  0  0  0  0  0
    7.3490  -13.9020   25.7510 C   0  0  0  0  0  0  0  0  0  0  0  0
   10.4824  -16.7538   25.1988 C   0  0  0  0  0  0  0  0  0  0  0  0
   10.7163  -17.6965   24.3535 O   0  0  0  0  0  0  0  0  0  0  0  0
   11.2742  -16.7632   26.3265 O   0  0  0  0  0  0  0  0  0  0  0  0
  2  1  1  1
  2  6  1  0
  3  4  1  0
  3  2  1  0
  4  5  2  0
  6  9  1  0
  7  6  2  0
  8  4  1  0
  9 10  1  0
 10 11  1  0
 11 13  1  0
 11 12  2  0
 13 14  1  0
 14 25  1  0
 14 15  1  6
 16 15  1  0
 17 16  2  0
 18 17  1  0
 19 24  2  0
 19 18  1  0
 20 19  1  0
 21 20  2  0
 21 22  1  0
 22 23  2  0
 23 24  1  0
 24 16  1  0
 25 26  2  0
 25 27  1  0
M  END
$$$$
