DGW.pdb
     RDKit          3D

 27 28  0  0  1  0  0  0  0  0999 V2000
   10.1410  -19.0327   19.5628 N   0  0  0  0  0  0  0  0  0  0  0  0
   10.9962  -17.8720   19.4497 C   0  0  1  0  0  0  0  0  0  0  0  0
   10.9651  -17.3375   18.0098 C   0  0  0  0  0  0  0  0  0  0  0  0
   12.1346  -17.8699   17.2833 C   0  0  0  0  0  0  0  0  0  0  0  0
   12.7751  -18.8340   17.7539 O   0  0  0  0  0  0  0  0  0  0  0  0
   10.4486  -16.8090   20.3506 C   0  0  0  0  0  0  0  0  0  0  0  0
   11.0678  -15.7229   20.4452 O   0  0  0  0  0  0  0  0  0  0  0  0
   12.5246  -17.3060   16.0830 O   0  0  0  0  0  0  0  0  0  0  0  0
    9.2570  -17.0939   21.0462 N   0  0  0  0  0  0  0  0  0  0  0  0
    8.6811  -16.1515   21.9389 C   0  0  0  0  0  0  0  0  0  0  0  0
    8.9170  -16.4375   23.3785 C   0  0  0  0  0  0  0  0  0  0  0  0
    8.1431  -17.2185   23.9883 O   0  0  0  0  0  0  0  0  0  0  0  0
    9.9814  -15.8665   24.0970 N   0  0  0  0  0  0  0  0  0  0  0  0
   10.2792  -16.1026   25.5035 C   0  0  1  0  0  0  0  0  0  0  0  0
    9.7706  -14.9926   26.3547 C   0  0  0  0  0  0  0  0  0  0  0  0
    8.3418  -14.7265   26.1437 C   0  0  0  0  0  0  0  0  0  0  0  0
    7.3870  -15.6713   25.7932 C   0  0  0  0  0  0  0  0  0  0  0  0
    6.1987  -15.1103   25.6504 N   0  0  0  0  0  0  0  0  0  0  0  0
    6.3363  -13.7818   25.9031 C   0  0  0  0  0  0  0  0  0  0  0  0
    5.4331  -12.7346   25.9190 C   0  0  0  0  0  0  0  0  0  0  0  0
    5.8077  -11.4615   26.2292 C   0  0  0  0  0  0  0  0  0  0  0  0
    7.1350  -11.2258   26.5353 C   0  0  0  0  0  0  0  0  0  0  0  0
    8.0791  -12.2297   26.5349 C   0  0  0  0  0  0  0  0  0  0  0  0
    7.6472  -13.5140   26.2105 C   0  0  0  0  0  0  0  0  0  0  0  0
    9.9582  -17.4154   25.9976 C   0  0  0  0  0  0  0  0  0  0  0  0
   10.1640  -17.6707   27.2428 O   0  0  0  0  0  0  0  0  0  0  0  0
    9.4329  -18.4551   25.2616 O   0  0  0  0  0  0  0  0  0  0  0  0
  2  1  1  6
  2  6  1  0
  3  4  1  0
  3  2  1  0
  4  5  2  0
  6  9  1  0
  7  6  2  0
  8  4  1  0
  9 10  1  0
 10 11  1  0
 11 13  1  0
 11 12  2  0
 13 14  1  0
 14 25  1  0
 14 15  1  1
 16 15  1  0
 17 16  2  0
 18 17  1  0
 19 24  2  0
 19 18  1  0
 20 19  1  0
 21 20  2  0
 21 22  1  0
 22 23  2  0
 23 24  1  0
 24 16  1  0
 25 26  2  0
 25 27  1  0
M  END
$$$$
