DGW.pdb
     RDKit          3D

 27 28  0  0  1  0  0  0  0  0999 V2000
    8.1289  -18.9545   21.1733 N   0  0  0  0  0  0  0  0  0  0  0  0
    8.3817  -18.3029   19.9073 C   0  0  1  0  0  0  0  0  0  0  0  0
    7.0511  -17.9383   19.2316 C   0  0  0  0  0  0  0  0  0  0  0  0
    6.7391  -18.9655   18.2185 C   0  0  0  0  0  0  0  0  0  0  0  0
    7.5192  -19.9258   18.0434 O   0  0  0  0  0  0  0  0  0  0  0  0
    9.1238  -17.0326   20.1852 C   0  0  0  0  0  0  0  0  0  0  0  0
    9.3929  -16.2710   19.2261 O   0  0  0  0  0  0  0  0  0  0  0  0
    5.5862  -18.8698   17.4618 O   0  0  0  0  0  0  0  0  0  0  0  0
    9.4794  -16.7641   21.5217 N   0  0  0  0  0  0  0  0  0  0  0  0
   10.1377  -15.5583   21.8814 C   0  0  0  0  0  0  0  0  0  0  0  0
   10.3719  -15.3917   23.3399 C   0  0  0  0  0  0  0  0  0  0  0  0
   11.1971  -14.5312   23.7391 O   0  0  0  0  0  0  0  0  0  0  0  0
    9.7022  -16.1634   24.3049 N   0  0  0  0  0  0  0  0  0  0  0  0
   10.2253  -16.5233   25.6162 C   0  0  1  0  0  0  0  0  0  0  0  0
    9.2368  -16.2283   26.6892 C   0  0  0  0  0  0  0  0  0  0  0  0
    7.9979  -15.6351   26.1698 C   0  0  0  0  0  0  0  0  0  0  0  0
    6.9918  -16.3202   25.5023 C   0  0  0  0  0  0  0  0  0  0  0  0
    6.0232  -15.4980   25.1377 N   0  0  0  0  0  0  0  0  0  0  0  0
    6.3626  -14.2495   25.5546 C   0  0  0  0  0  0  0  0  0  0  0  0
    5.7226  -13.0270   25.4630 C   0  0  0  0  0  0  0  0  0  0  0  0
    6.2595  -11.8889   25.9865 C   0  0  0  0  0  0  0  0  0  0  0  0
    7.4820  -11.9758   26.6261 C   0  0  0  0  0  0  0  0  0  0  0  0
    8.1654  -13.1664   26.7472 C   0  0  0  0  0  0  0  0  0  0  0  0
    7.5759  -14.3016   26.1949 C   0  0  0  0  0  0  0  0  0  0  0  0
   10.8242  -17.8281   25.7127 C   0  0  0  0  0  0  0  0  0  0  0  0
   10.5505  -18.6986   24.8043 O   0  0  0  0  0  0  0  0  0  0  0  0
   11.6888  -18.2551   26.6970 O   0  0  0  0  0  0  0  0  0  0  0  0
  2  1  1  1
  2  6  1  0
  3  4  1  0
  3  2  1  0
  4  5  2  0
  6  9  1  0
  7  6  2  0
  8  4  1  0
  9 10  1  0
 10 11  1  0
 11 13  1  0
 11 12  2  0
 13 14  1  0
 14 25  1  0
 14 15  1  1
 16 15  1  0
 17 16  2  0
 18 17  1  0
 19 24  2  0
 19 18  1  0
 20 19  1  0
 21 20  2  0
 21 22  1  0
 22 23  2  0
 23 24  1  0
 24 16  1  0
 25 26  2  0
 25 27  1  0
M  END
$$$$
