DGW.pdb
     RDKit          3D

 27 28  0  0  1  0  0  0  0  0999 V2000
    8.1858  -18.9360   21.1098 N   0  0  0  0  0  0  0  0  0  0  0  0
    9.0222  -18.4552   20.0325 C   0  0  1  0  0  0  0  0  0  0  0  0
    8.1552  -18.1028   18.8142 C   0  0  0  0  0  0  0  0  0  0  0  0
    7.7813  -19.3526   18.1236 C   0  0  0  0  0  0  0  0  0  0  0  0
    6.7366  -19.3987   17.4396 O   0  0  0  0  0  0  0  0  0  0  0  0
    9.6967  -17.2026   20.4992 C   0  0  0  0  0  0  0  0  0  0  0  0
   10.1837  -16.4268   19.6430 O   0  0  0  0  0  0  0  0  0  0  0  0
    8.5829  -20.4738   18.2303 O   0  0  0  0  0  0  0  0  0  0  0  0
    9.7448  -16.9662   21.8872 N   0  0  0  0  0  0  0  0  0  0  0  0
   10.4198  -15.8359   22.4196 C   0  0  0  0  0  0  0  0  0  0  0  0
   10.3913  -15.7392   23.9027 C   0  0  0  0  0  0  0  0  0  0  0  0
   11.0106  -14.8055   24.4732 O   0  0  0  0  0  0  0  0  0  0  0  0
    9.6929  -16.6571   24.7057 N   0  0  0  0  0  0  0  0  0  0  0  0
    9.7588  -16.7352   26.1592 C   0  0  1  0  0  0  0  0  0  0  0  0
    8.4085  -16.5866   26.7675 C   0  0  0  0  0  0  0  0  0  0  0  0
    7.5667  -15.6218   26.0483 C   0  0  0  0  0  0  0  0  0  0  0  0
    6.7810  -15.9042   24.9392 C   0  0  0  0  0  0  0  0  0  0  0  0
    6.1668  -14.8164   24.5071 N   0  0  0  0  0  0  0  0  0  0  0  0
    6.5293  -13.7877   25.3184 C   0  0  0  0  0  0  0  0  0  0  0  0
    6.1808  -12.4498   25.3443 C   0  0  0  0  0  0  0  0  0  0  0  0
    6.6660  -11.5944   26.2879 C   0  0  0  0  0  0  0  0  0  0  0  0
    7.5320  -12.0950   27.2420 C   0  0  0  0  0  0  0  0  0  0  0  0
    7.9147  -13.4187   27.2653 C   0  0  0  0  0  0  0  0  0  0  0  0
    7.3925  -14.2531   26.2792 C   0  0  0  0  0  0  0  0  0  0  0  0
   10.5247  -17.8309   26.6913 C   0  0  0  0  0  0  0  0  0  0  0  0
   10.9755  -18.7191   25.8753 O   0  0  0  0  0  0  0  0  0  0  0  0
   10.8420  -18.0330   28.0169 O   0  0  0  0  0  0  0  0  0  0  0  0
  2  1  1  1
  2  6  1  0
  3  4  1  0
  3  2  1  0
  4  5  2  0
  6  9  1  0
  7  6  2  0
  8  4  1  0
  9 10  1  0
 10 11  1  0
 11 13  1  0
 11 12  2  0
 13 14  1  0
 14 25  1  0
 14 15  1  1
 16 15  1  0
 17 16  2  0
 18 17  1  0
 19 24  2  0
 19 18  1  0
 20 19  1  0
 21 20  2  0
 21 22  1  0
 22 23  2  0
 23 24  1  0
 24 16  1  0
 25 26  2  0
 25 27  1  0
M  END
$$$$
