DGW.pdb
     RDKit          3D

 27 28  0  0  1  0  0  0  0  0999 V2000
   10.4834  -19.4418   20.1759 N   0  0  0  0  0  0  0  0  0  0  0  0
    9.5182  -18.8466   19.2784 C   0  0  1  0  0  0  0  0  0  0  0  0
    8.4160  -19.8639   18.9460 C   0  0  0  0  0  0  0  0  0  0  0  0
    8.9512  -20.8396   17.9762 C   0  0  0  0  0  0  0  0  0  0  0  0
   10.1083  -20.7005   17.5256 O   0  0  0  0  0  0  0  0  0  0  0  0
    8.8835  -17.6910   19.9879 C   0  0  0  0  0  0  0  0  0  0  0  0
    7.8506  -17.1772   19.4967 O   0  0  0  0  0  0  0  0  0  0  0  0
    8.1769  -21.9079   17.5639 O   0  0  0  0  0  0  0  0  0  0  0  0
    9.4899  -17.2441   21.1785 N   0  0  0  0  0  0  0  0  0  0  0  0
    8.9807  -16.1259   21.8905 C   0  0  0  0  0  0  0  0  0  0  0  0
    9.7631  -15.7518   23.0979 C   0  0  0  0  0  0  0  0  0  0  0  0
   10.9073  -15.2487   22.9615 O   0  0  0  0  0  0  0  0  0  0  0  0
    9.2734  -15.9374   24.4021 N   0  0  0  0  0  0  0  0  0  0  0  0
   10.0879  -16.1004   25.5992 C   0  0  1  0  0  0  0  0  0  0  0  0
    9.3998  -15.5470   26.7974 C   0  0  0  0  0  0  0  0  0  0  0  0
    8.0950  -14.9540   26.4772 C   0  0  0  0  0  0  0  0  0  0  0  0
    6.9518  -15.6584   26.1247 C   0  0  0  0  0  0  0  0  0  0  0  0
    5.9501  -14.8346   25.8699 N   0  0  0  0  0  0  0  0  0  0  0  0
    6.4038  -13.5655   26.0475 C   0  0  0  0  0  0  0  0  0  0  0  0
    5.7919  -12.3301   25.9389 C   0  0  0  0  0  0  0  0  0  0  0  0
    6.4582  -11.1686   26.1928 C   0  0  0  0  0  0  0  0  0  0  0  0
    7.7861  -11.2445   26.5696 C   0  0  0  0  0  0  0  0  0  0  0  0
    8.4475  -12.4471   26.6937 C   0  0  0  0  0  0  0  0  0  0  0  0
    7.7238  -13.6063   26.4226 C   0  0  0  0  0  0  0  0  0  0  0  0
   10.6501  -17.4100   25.7980 C   0  0  0  0  0  0  0  0  0  0  0  0
   11.4814  -17.5813   26.7663 O   0  0  0  0  0  0  0  0  0  0  0  0
   10.3811  -18.5330   25.0463 O   0  0  0  0  0  0  0  0  0  0  0  0
  2  1  1  1
  2  6  1  0
  3  4  1  0
  3  2  1  0
  4  5  2  0
  6  9  1  0
  7  6  2  0
  8  4  1  0
  9 10  1  0
 10 11  1  0
 11 13  1  0
 11 12  2  0
 13 14  1  0
 14 25  1  0
 14 15  1  1
 16 15  1  0
 17 16  2  0
 18 17  1  0
 19 24  2  0
 19 18  1  0
 20 19  1  0
 21 20  2  0
 21 22  1  0
 22 23  2  0
 23 24  1  0
 24 16  1  0
 25 26  2  0
 25 27  1  0
M  END
$$$$
