DGW.pdb
     RDKit          3D

 27 28  0  0  1  0  0  0  0  0999 V2000
    8.3456  -19.2162   20.7506 N   0  0  0  0  0  0  0  0  0  0  0  0
    7.6212  -18.0800   20.2256 C   0  0  1  0  0  0  0  0  0  0  0  0
    6.2207  -18.0165   20.8540 C   0  0  0  0  0  0  0  0  0  0  0  0
    5.4064  -19.1181   20.3044 C   0  0  0  0  0  0  0  0  0  0  0  0
    5.9284  -19.9591   19.5419 O   0  0  0  0  0  0  0  0  0  0  0  0
    8.3628  -16.8407   20.6201 C   0  0  0  0  0  0  0  0  0  0  0  0
    7.8447  -15.7256   20.3745 O   0  0  0  0  0  0  0  0  0  0  0  0
    4.0671  -19.2237   20.6302 O   0  0  0  0  0  0  0  0  0  0  0  0
    9.6121  -17.0015   21.2512 N   0  0  0  0  0  0  0  0  0  0  0  0
   10.3636  -15.8810   21.6948 C   0  0  0  0  0  0  0  0  0  0  0  0
   10.5687  -15.8158   23.1657 C   0  0  0  0  0  0  0  0  0  0  0  0
   11.4231  -15.0223   23.6360 O   0  0  0  0  0  0  0  0  0  0  0  0
    9.8397  -16.6120   24.0655 N   0  0  0  0  0  0  0  0  0  0  0  0
   10.0630  -16.6896   25.5032 C   0  0  1  0  0  0  0  0  0  0  0  0
    9.8691  -15.3632   26.1500 C   0  0  0  0  0  0  0  0  0  0  0  0
    8.4741  -14.9071   26.0989 C   0  0  0  0  0  0  0  0  0  0  0  0
    7.3801  -15.6896   25.7552 C   0  0  0  0  0  0  0  0  0  0  0  0
    6.2663  -14.9782   25.7759 N   0  0  0  0  0  0  0  0  0  0  0  0
    6.5940  -13.7085   26.1340 C   0  0  0  0  0  0  0  0  0  0  0  0
    5.8375  -12.5674   26.3294 C   0  0  0  0  0  0  0  0  0  0  0  0
    6.3971  -11.3867   26.7173 C   0  0  0  0  0  0  0  0  0  0  0  0
    7.7642  -11.3448   26.9177 C   0  0  0  0  0  0  0  0  0  0  0  0
    8.5679  -12.4497   26.7378 C   0  0  0  0  0  0  0  0  0  0  0  0
    7.9492  -13.6330   26.3401 C   0  0  0  0  0  0  0  0  0  0  0  0
    9.4027  -17.7745   26.1798 C   0  0  0  0  0  0  0  0  0  0  0  0
    8.5228  -18.4571   25.5335 O   0  0  0  0  0  0  0  0  0  0  0  0
    9.6228  -18.1764   27.4793 O   0  0  0  0  0  0  0  0  0  0  0  0
  2  1  1  1
  2  6  1  0
  3  4  1  0
  3  2  1  0
  4  5  2  0
  6  9  1  0
  7  6  2  0
  8  4  1  0
  9 10  1  0
 10 11  1  0
 11 13  1  0
 11 12  2  0
 13 14  1  0
 14 25  1  0
 14 15  1  1
 16 15  1  0
 17 16  2  0
 18 17  1  0
 19 24  2  0
 19 18  1  0
 20 19  1  0
 21 20  2  0
 21 22  1  0
 22 23  2  0
 23 24  1  0
 24 16  1  0
 25 26  2  0
 25 27  1  0
M  END
$$$$
