DGW.pdb
     RDKit          3D

 27 28  0  0  1  0  0  0  0  0999 V2000
    8.9308  -19.2370   21.3569 N   0  0  0  0  0  0  0  0  0  0  0  0
    8.4727  -18.0374   20.6917 C   0  0  1  0  0  0  0  0  0  0  0  0
    6.9876  -17.7999   21.0054 C   0  0  0  0  0  0  0  0  0  0  0  0
    6.1933  -18.8661   20.3640 C   0  0  0  0  0  0  0  0  0  0  0  0
    6.1983  -20.0206   20.8418 O   0  0  0  0  0  0  0  0  0  0  0  0
    9.2524  -16.8827   21.2395 C   0  0  0  0  0  0  0  0  0  0  0  0
    8.9902  -15.7289   20.8248 O   0  0  0  0  0  0  0  0  0  0  0  0
    5.4430  -18.5924   19.2357 O   0  0  0  0  0  0  0  0  0  0  0  0
   10.2452  -17.1628   22.1990 N   0  0  0  0  0  0  0  0  0  0  0  0
   11.0545  -16.1315   22.7452 C   0  0  0  0  0  0  0  0  0  0  0  0
   10.9192  -15.9505   24.2145 C   0  0  0  0  0  0  0  0  0  0  0  0
   11.5901  -15.0573   24.7915 O   0  0  0  0  0  0  0  0  0  0  0  0
   10.0628  -16.7437   24.9971 N   0  0  0  0  0  0  0  0  0  0  0  0
    9.8954  -16.6422   26.4409 C   0  0  1  0  0  0  0  0  0  0  0  0
    8.4554  -16.6507   26.8173 C   0  0  0  0  0  0  0  0  0  0  0  0
    7.6434  -15.7689   25.9690 C   0  0  0  0  0  0  0  0  0  0  0  0
    6.8843  -16.1712   24.8785 C   0  0  0  0  0  0  0  0  0  0  0  0
    6.2936  -15.1358   24.3075 N   0  0  0  0  0  0  0  0  0  0  0  0
    6.6456  -14.0232   25.0048 C   0  0  0  0  0  0  0  0  0  0  0  0
    6.3109  -12.6885   24.8670 C   0  0  0  0  0  0  0  0  0  0  0  0
    6.7802  -11.7339   25.7189 C   0  0  0  0  0  0  0  0  0  0  0  0
    7.6152  -12.1278   26.7477 C   0  0  0  0  0  0  0  0  0  0  0  0
    7.9828  -13.4429   26.9336 C   0  0  0  0  0  0  0  0  0  0  0  0
    7.4780  -14.3814   26.0361 C   0  0  0  0  0  0  0  0  0  0  0  0
   10.7128  -17.5273   27.2277 C   0  0  0  0  0  0  0  0  0  0  0  0
   11.3483  -18.4728   26.6278 O   0  0  0  0  0  0  0  0  0  0  0  0
   10.8987  -17.4648   28.5916 O   0  0  0  0  0  0  0  0  0  0  0  0
  2  1  1  1
  2  6  1  0
  3  4  1  0
  3  2  1  0
  4  5  2  0
  6  9  1  0
  7  6  2  0
  8  4  1  0
  9 10  1  0
 10 11  1  0
 11 13  1  0
 11 12  2  0
 13 14  1  0
 14 25  1  0
 14 15  1  6
 16 15  1  0
 17 16  2  0
 18 17  1  0
 19 24  2  0
 19 18  1  0
 20 19  1  0
 21 20  2  0
 21 22  1  0
 22 23  2  0
 23 24  1  0
 24 16  1  0
 25 26  2  0
 25 27  1  0
M  END
$$$$
