DGW.pdb
     RDKit          3D

 27 28  0  0  1  0  0  0  0  0999 V2000
    8.6673  -17.8480   21.1761 N   0  0  0  0  0  0  0  0  0  0  0  0
    9.5574  -17.4395   20.1120 C   0  0  1  0  0  0  0  0  0  0  0  0
    8.8269  -16.4830   19.1571 C   0  0  0  0  0  0  0  0  0  0  0  0
    8.0014  -17.2812   18.2297 C   0  0  0  0  0  0  0  0  0  0  0  0
    8.1309  -18.5234   18.1909 O   0  0  0  0  0  0  0  0  0  0  0  0
   10.6998  -16.6948   20.7298 C   0  0  0  0  0  0  0  0  0  0  0  0
   11.5470  -16.1598   19.9760 O   0  0  0  0  0  0  0  0  0  0  0  0
    7.0843  -16.6597   17.4028 O   0  0  0  0  0  0  0  0  0  0  0  0
   10.7565  -16.6376   22.1363 N   0  0  0  0  0  0  0  0  0  0  0  0
   11.9151  -16.1663   22.8088 C   0  0  0  0  0  0  0  0  0  0  0  0
   11.7828  -16.0842   24.2872 C   0  0  0  0  0  0  0  0  0  0  0  0
   12.7873  -15.7860   24.9821 O   0  0  0  0  0  0  0  0  0  0  0  0
   10.5682  -16.3280   24.9511 N   0  0  0  0  0  0  0  0  0  0  0  0
   10.4069  -16.5028   26.3885 C   0  0  1  0  0  0  0  0  0  0  0  0
    9.7170  -15.3334   26.9985 C   0  0  0  0  0  0  0  0  0  0  0  0
    8.3859  -15.0988   26.4242 C   0  0  0  0  0  0  0  0  0  0  0  0
    7.5380  -16.0773   25.9234 C   0  0  0  0  0  0  0  0  0  0  0  0
    6.4258  -15.5410   25.4516 N   0  0  0  0  0  0  0  0  0  0  0  0
    6.5087  -14.1957   25.6284 C   0  0  0  0  0  0  0  0  0  0  0  0
    5.6383  -13.1598   25.3428 C   0  0  0  0  0  0  0  0  0  0  0  0
    5.9366  -11.8629   25.6375 C   0  0  0  0  0  0  0  0  0  0  0  0
    7.1504  -11.5911   26.2405 C   0  0  0  0  0  0  0  0  0  0  0  0
    8.0569  -12.5824   26.5479 C   0  0  0  0  0  0  0  0  0  0  0  0
    7.7067  -13.8920   26.2263 C   0  0  0  0  0  0  0  0  0  0  0  0
    9.8847  -17.7764   26.8077 C   0  0  0  0  0  0  0  0  0  0  0  0
    9.3115  -18.5245   25.9303 O   0  0  0  0  0  0  0  0  0  0  0  0
    9.9402  -18.2985   28.0817 O   0  0  0  0  0  0  0  0  0  0  0  0
  2  1  1  1
  2  6  1  0
  3  4  1  0
  3  2  1  0
  4  5  2  0
  6  9  1  0
  7  6  2  0
  8  4  1  0
  9 10  1  0
 10 11  1  0
 11 13  1  0
 11 12  2  0
 13 14  1  0
 14 25  1  0
 14 15  1  6
 16 15  1  0
 17 16  2  0
 18 17  1  0
 19 24  2  0
 19 18  1  0
 20 19  1  0
 21 20  2  0
 21 22  1  0
 22 23  2  0
 23 24  1  0
 24 16  1  0
 25 26  2  0
 25 27  1  0
M  END
$$$$
