DGW.pdb
     RDKit          3D

 27 28  0  0  1  0  0  0  0  0999 V2000
    8.9286  -20.1832   23.2251 N   0  0  0  0  0  0  0  0  0  0  0  0
    7.9243  -19.2501   22.7647 C   0  0  1  0  0  0  0  0  0  0  0  0
    6.6805  -19.3349   23.6625 C   0  0  0  0  0  0  0  0  0  0  0  0
    6.3726  -20.7573   23.9092 C   0  0  0  0  0  0  0  0  0  0  0  0
    7.0958  -21.6471   23.4128 O   0  0  0  0  0  0  0  0  0  0  0  0
    8.4905  -17.8695   22.8865 C   0  0  0  0  0  0  0  0  0  0  0  0
    7.7131  -16.9215   23.1493 O   0  0  0  0  0  0  0  0  0  0  0  0
    5.2864  -21.1096   24.6882 O   0  0  0  0  0  0  0  0  0  0  0  0
    9.8779  -17.7146   22.6972 N   0  0  0  0  0  0  0  0  0  0  0  0
   10.4896  -16.4337   22.7418 C   0  0  0  0  0  0  0  0  0  0  0  0
   10.7509  -15.9195   24.1119 C   0  0  0  0  0  0  0  0  0  0  0  0
   11.5868  -14.9947   24.2760 O   0  0  0  0  0  0  0  0  0  0  0  0
   10.0957  -16.4277   25.2466 N   0  0  0  0  0  0  0  0  0  0  0  0
   10.4848  -16.1874   26.6300 C   0  0  1  0  0  0  0  0  0  0  0  0
    9.9265  -14.9014   27.1301 C   0  0  0  0  0  0  0  0  0  0  0  0
    8.5453  -14.6733   26.6863 C   0  0  0  0  0  0  0  0  0  0  0  0
    7.6561  -15.6565   26.2742 C   0  0  0  0  0  0  0  0  0  0  0  0
    6.5018  -15.1257   25.9099 N   0  0  0  0  0  0  0  0  0  0  0  0
    6.5970  -13.7794   26.0718 C   0  0  0  0  0  0  0  0  0  0  0  0
    5.6996  -12.7473   25.8672 C   0  0  0  0  0  0  0  0  0  0  0  0
    6.0207  -11.4482   26.1258 C   0  0  0  0  0  0  0  0  0  0  0  0
    7.2863  -11.1700   26.6073 C   0  0  0  0  0  0  0  0  0  0  0  0
    8.2216  -12.1572   26.8300 C   0  0  0  0  0  0  0  0  0  0  0  0
    7.8462  -13.4693   26.5496 C   0  0  0  0  0  0  0  0  0  0  0  0
   10.3042  -17.2951   27.5306 C   0  0  0  0  0  0  0  0  0  0  0  0
   10.6075  -17.1339   28.7715 O   0  0  0  0  0  0  0  0  0  0  0  0
    9.8216  -18.5424   27.1988 O   0  0  0  0  0  0  0  0  0  0  0  0
  2  1  1  1
  2  6  1  0
  3  4  1  0
  3  2  1  0
  4  5  2  0
  6  9  1  0
  7  6  2  0
  8  4  1  0
  9 10  1  0
 10 11  1  0
 11 13  1  0
 11 12  2  0
 13 14  1  0
 14 25  1  0
 14 15  1  1
 16 15  1  0
 17 16  2  0
 18 17  1  0
 19 24  2  0
 19 18  1  0
 20 19  1  0
 21 20  2  0
 21 22  1  0
 22 23  2  0
 23 24  1  0
 24 16  1  0
 25 26  2  0
 25 27  1  0
M  END
$$$$
