SIG.pdb
     RDKit          3D

 19 18  0  0  1  0  0  0  0  0999 V2000
    7.5280  -17.7889   22.5755 O   0  0  0  0  0  0  0  0  0  0  0  0
    8.3407  -17.1843   21.5932 C   0  0  0  0  0  0  0  0  0  0  0  0
    7.8357  -15.7397   21.4734 C   0  0  2  0  0  0  0  0  0  0  0  0
    8.3973  -15.1893   20.2915 N   0  0  0  0  0  0  0  0  0  0  0  0
    8.3776  -14.9803   22.6338 C   0  0  0  0  0  0  0  0  0  0  0  0
    9.5753  -14.5553   22.6617 O   0  0  0  0  0  0  0  0  0  0  0  0
    6.3926  -11.2303   26.9983 C   0  0  0  0  0  0  0  0  0  0  0  0
    7.5425  -12.0735   26.4881 C   0  0  0  0  0  0  0  0  0  0  0  0
    6.9896  -13.0193   25.4494 C   0  0  2  0  0  0  0  0  0  0  0  0
    5.9436  -13.8884   26.1072 C   0  0  0  0  0  0  0  0  0  0  0  0
    8.0527  -13.8943   24.8431 C   0  0  2  0  0  0  0  0  0  0  0  0
    7.5573  -14.7041   23.7623 N   0  0  0  0  0  0  0  0  0  0  0  0
    8.6746  -14.7127   25.9139 C   0  0  0  0  0  0  0  0  0  0  0  0
    9.2095  -14.1439   26.8987 O   0  0  0  0  0  0  0  0  0  0  0  0
    8.6728  -16.1389   25.8392 N   0  0  0  0  0  0  0  0  0  0  0  0
    9.1132  -16.8677   27.0091 C   0  0  0  0  0  0  0  0  0  0  0  0
   10.4662  -17.4429   26.7950 C   0  0  0  0  0  0  0  0  0  0  0  0
   10.9671  -18.3198   27.7352 O   0  0  0  0  0  0  0  0  0  0  0  0
   11.1671  -17.1613   25.7943 O   0  0  0  0  0  0  0  0  0  0  0  0
  2  1  1  0
  3  4  1  6
  3  2  1  0
  5  6  2  0
  5  3  1  0
  8  7  1  0
  8  9  1  0
  9 11  1  0
  9 10  1  1
 11 13  1  0
 11 12  1  6
 12  5  1  0
 13 15  1  0
 14 13  2  0
 15 16  1  0
 16 17  1  0
 17 19  2  0
 17 18  1  0
M  END
$$$$
