SIG.pdb
     RDKit          3D

 19 18  0  0  1  0  0  0  0  0999 V2000
    5.6821  -20.3988   19.4031 O   0  0  0  0  0  0  0  0  0  0  0  0
    6.9393  -19.7867   19.5925 C   0  0  0  0  0  0  0  0  0  0  0  0
    6.8884  -18.4832   18.7835 C   0  0  2  0  0  0  0  0  0  0  0  0
    7.3313  -18.7812   17.4681 N   0  0  0  0  0  0  0  0  0  0  0  0
    7.8673  -17.5415   19.3932 C   0  0  0  0  0  0  0  0  0  0  0  0
    9.1085  -17.5901   19.1227 O   0  0  0  0  0  0  0  0  0  0  0  0
    6.6820  -12.3057   20.1840 C   0  0  0  0  0  0  0  0  0  0  0  0
    7.3868  -13.5975   19.8265 C   0  0  0  0  0  0  0  0  0  0  0  0
    7.8081  -14.2600   21.1160 C   0  0  2  0  0  0  0  0  0  0  0  0
    8.8458  -13.3869   21.7816 C   0  0  0  0  0  0  0  0  0  0  0  0
    8.3810  -15.6338   20.8974 C   0  0  2  0  0  0  0  0  0  0  0  0
    7.4347  -16.5445   20.3106 N   0  0  0  0  0  0  0  0  0  0  0  0
    8.9220  -16.1425   22.1826 C   0  0  0  0  0  0  0  0  0  0  0  0
    8.1834  -16.1721   23.1990 O   0  0  0  0  0  0  0  0  0  0  0  0
   10.2718  -16.5991   22.2788 N   0  0  0  0  0  0  0  0  0  0  0  0
   10.7310  -17.0523   23.5740 C   0  0  0  0  0  0  0  0  0  0  0  0
   11.9973  -16.3738   23.9528 C   0  0  0  0  0  0  0  0  0  0  0  0
   12.4838  -16.5503   25.2318 O   0  0  0  0  0  0  0  0  0  0  0  0
   12.6378  -15.6491   23.1550 O   0  0  0  0  0  0  0  0  0  0  0  0
  2  1  1  0
  3  4  1  6
  3  2  1  0
  5  6  2  0
  5  3  1  0
  8  7  1  0
  8  9  1  0
  9 11  1  0
  9 10  1  6
 11 13  1  0
 11 12  1  1
 12  5  1  0
 13 15  1  0
 14 13  2  0
 15 16  1  0
 16 17  1  0
 17 19  2  0
 17 18  1  0
M  END
$$$$
