SIG.pdb
     RDKit          3D

 19 18  0  0  1  0  0  0  0  0999 V2000
    6.1270  -17.1355   21.0425 O   0  0  0  0  0  0  0  0  0  0  0  0
    7.4238  -16.6587   20.7558 C   0  0  0  0  0  0  0  0  0  0  0  0
    7.3455  -15.1337   20.9125 C   0  0  2  0  0  0  0  0  0  0  0  0
    8.0446  -14.5573   19.8198 N   0  0  0  0  0  0  0  0  0  0  0  0
    8.0733  -14.7758   22.1611 C   0  0  0  0  0  0  0  0  0  0  0  0
    9.3415  -14.6995   22.2041 O   0  0  0  0  0  0  0  0  0  0  0  0
    7.3688  -11.5878   27.2781 C   0  0  0  0  0  0  0  0  0  0  0  0
    8.1522  -12.6830   26.5850 C   0  0  0  0  0  0  0  0  0  0  0  0
    7.3379  -13.1484   25.4020 C   0  0  2  0  0  0  0  0  0  0  0  0
    6.0511  -13.7488   25.9177 C   0  0  0  0  0  0  0  0  0  0  0  0
    8.0637  -14.1696   24.5690 C   0  0  2  0  0  0  0  0  0  0  0  0
    7.3589  -14.5047   23.3606 N   0  0  0  0  0  0  0  0  0  0  0  0
    8.3411  -15.3656   25.4032 C   0  0  0  0  0  0  0  0  0  0  0  0
    7.3960  -16.1256   25.7329 O   0  0  0  0  0  0  0  0  0  0  0  0
    9.6691  -15.6638   25.8359 N   0  0  0  0  0  0  0  0  0  0  0  0
    9.9113  -16.9814   26.3830 C   0  0  0  0  0  0  0  0  0  0  0  0
   10.1110  -16.9143   27.8536 C   0  0  0  0  0  0  0  0  0  0  0  0
   10.5632  -18.0403   28.5105 O   0  0  0  0  0  0  0  0  0  0  0  0
    9.8842  -15.8751   28.5174 O   0  0  0  0  0  0  0  0  0  0  0  0
  2  1  1  0
  3  4  1  6
  3  2  1  0
  5  6  2  0
  5  3  1  0
  8  7  1  0
  8  9  1  0
  9 11  1  0
  9 10  1  1
 11 13  1  0
 11 12  1  6
 12  5  1  0
 13 15  1  0
 14 13  2  0
 15 16  1  0
 16 17  1  0
 17 19  2  0
 17 18  1  0
M  END
$$$$
