SIG.pdb
     RDKit          3D

 19 18  0  0  1  0  0  0  0  0999 V2000
    7.7067  -16.4328   20.1397 O   0  0  0  0  0  0  0  0  0  0  0  0
    6.4932  -15.7954   20.4744 C   0  0  0  0  0  0  0  0  0  0  0  0
    6.8353  -14.3053   20.6118 C   0  0  2  0  0  0  0  0  0  0  0  0
    7.6271  -13.9454   19.4900 N   0  0  0  0  0  0  0  0  0  0  0  0
    7.6742  -14.1511   21.8321 C   0  0  0  0  0  0  0  0  0  0  0  0
    8.9408  -14.0606   21.7728 O   0  0  0  0  0  0  0  0  0  0  0  0
    7.2393  -12.0052   27.5345 C   0  0  0  0  0  0  0  0  0  0  0  0
    8.0566  -12.8057   26.5422 C   0  0  0  0  0  0  0  0  0  0  0  0
    7.1664  -13.1172   25.3633 C   0  0  2  0  0  0  0  0  0  0  0  0
    5.9830  -13.9147   25.8593 C   0  0  0  0  0  0  0  0  0  0  0  0
    7.8793  -13.8993   24.2939 C   0  0  2  0  0  0  0  0  0  0  0  0
    7.0726  -14.0997   23.1199 N   0  0  0  0  0  0  0  0  0  0  0  0
    8.3561  -15.1819   24.8690 C   0  0  0  0  0  0  0  0  0  0  0  0
    7.5268  -16.0844   25.1465 O   0  0  0  0  0  0  0  0  0  0  0  0
    9.7461  -15.4033   25.1112 N   0  0  0  0  0  0  0  0  0  0  0  0
   10.1551  -16.7456   25.4644 C   0  0  0  0  0  0  0  0  0  0  0  0
   10.3010  -16.8833   26.9365 C   0  0  0  0  0  0  0  0  0  0  0  0
   11.5593  -17.1055   27.4572 O   0  0  0  0  0  0  0  0  0  0  0  0
    9.3255  -16.8052   27.7202 O   0  0  0  0  0  0  0  0  0  0  0  0
  2  1  1  0
  3  4  1  6
  3  2  1  0
  5  6  2  0
  5  3  1  0
  8  7  1  0
  8  9  1  0
  9 11  1  0
  9 10  1  1
 11 13  1  0
 11 12  1  6
 12  5  1  0
 13 15  1  0
 14 13  2  0
 15 16  1  0
 16 17  1  0
 17 19  2  0
 17 18  1  0
M  END
$$$$
