SIG.pdb
     RDKit          3D

 19 18  0  0  1  0  0  0  0  0999 V2000
    7.6072  -15.6673   20.1351 O   0  0  0  0  0  0  0  0  0  0  0  0
    6.4521  -14.9123   20.4296 C   0  0  0  0  0  0  0  0  0  0  0  0
    6.9611  -13.5207   20.8301 C   0  0  2  0  0  0  0  0  0  0  0  0
    7.8589  -13.0888   19.8189 N   0  0  0  0  0  0  0  0  0  0  0  0
    7.7346  -13.6751   22.0928 C   0  0  0  0  0  0  0  0  0  0  0  0
    9.0042  -13.7386   22.1026 O   0  0  0  0  0  0  0  0  0  0  0  0
    5.7045  -11.5206   26.6856 C   0  0  0  0  0  0  0  0  0  0  0  0
    6.6238  -11.8876   25.5395 C   0  0  0  0  0  0  0  0  0  0  0  0
    7.0758  -13.3119   25.7546 C   0  0  2  0  0  0  0  0  0  0  0  0
    7.9800  -13.3457   26.9644 C   0  0  0  0  0  0  0  0  0  0  0  0
    7.8139  -13.8676   24.5672 C   0  0  2  0  0  0  0  0  0  0  0  0
    7.0642  -13.7573   23.3445 N   0  0  0  0  0  0  0  0  0  0  0  0
    8.2085  -15.2692   24.8554 C   0  0  0  0  0  0  0  0  0  0  0  0
    7.3218  -16.1281   25.0910 O   0  0  0  0  0  0  0  0  0  0  0  0
    9.5837  -15.6542   24.8683 N   0  0  0  0  0  0  0  0  0  0  0  0
    9.8810  -17.0565   25.0662 C   0  0  0  0  0  0  0  0  0  0  0  0
   11.3450  -17.3006   24.9998 C   0  0  0  0  0  0  0  0  0  0  0  0
   11.9366  -18.0427   26.0014 O   0  0  0  0  0  0  0  0  0  0  0  0
   12.0601  -16.8583   24.0698 O   0  0  0  0  0  0  0  0  0  0  0  0
  2  1  1  0
  3  4  1  6
  3  2  1  0
  5  6  2  0
  5  3  1  0
  8  7  1  0
  8  9  1  0
  9 11  1  0
  9 10  1  1
 11 13  1  0
 11 12  1  6
 12  5  1  0
 13 15  1  0
 14 13  2  0
 15 16  1  0
 16 17  1  0
 17 19  2  0
 17 18  1  0
M  END
$$$$
