SIG.pdb
     RDKit          3D

 19 18  0  0  1  0  0  0  0  0999 V2000
    5.8594  -19.8387   23.5821 O   0  0  0  0  0  0  0  0  0  0  0  0
    6.8852  -18.8707   23.5418 C   0  0  0  0  0  0  0  0  0  0  0  0
    6.2317  -17.6018   22.9770 C   0  0  2  0  0  0  0  0  0  0  0  0
    6.2897  -17.6874   21.5612 N   0  0  0  0  0  0  0  0  0  0  0  0
    7.0668  -16.4440   23.3998 C   0  0  0  0  0  0  0  0  0  0  0  0
    8.1693  -16.1646   22.8319 O   0  0  0  0  0  0  0  0  0  0  0  0
    6.4559  -11.2008   26.5886 C   0  0  0  0  0  0  0  0  0  0  0  0
    7.3737  -12.1478   25.8441 C   0  0  0  0  0  0  0  0  0  0  0  0
    6.5896  -13.4025   25.5441 C   0  0  2  0  0  0  0  0  0  0  0  0
    6.1038  -13.9830   26.8515 C   0  0  0  0  0  0  0  0  0  0  0  0
    7.4087  -14.4336   24.8166 C   0  0  2  0  0  0  0  0  0  0  0  0
    6.6482  -15.6040   24.4683 N   0  0  0  0  0  0  0  0  0  0  0  0
    8.6030  -14.7666   25.6327 C   0  0  0  0  0  0  0  0  0  0  0  0
    9.4651  -13.8814   25.8617 O   0  0  0  0  0  0  0  0  0  0  0  0
    8.7848  -16.0809   26.1611 N   0  0  0  0  0  0  0  0  0  0  0  0
   10.0194  -16.3504   26.8660 C   0  0  0  0  0  0  0  0  0  0  0  0
   10.0517  -17.7519   27.3581 C   0  0  0  0  0  0  0  0  0  0  0  0
   11.1112  -18.1503   28.1471 O   0  0  0  0  0  0  0  0  0  0  0  0
    9.1541  -18.5830   27.0833 O   0  0  0  0  0  0  0  0  0  0  0  0
  2  1  1  0
  3  4  1  6
  3  2  1  0
  5  6  2  0
  5  3  1  0
  8  7  1  0
  8  9  1  0
  9 11  1  0
  9 10  1  1
 11 13  1  0
 11 12  1  1
 12  5  1  0
 13 15  1  0
 14 13  2  0
 15 16  1  0
 16 17  1  0
 17 19  2  0
 17 18  1  0
M  END
$$$$
