SIG.pdb
     RDKit          3D

 19 18  0  0  1  0  0  0  0  0999 V2000
    6.3706  -17.0684   20.0378 O   0  0  0  0  0  0  0  0  0  0  0  0
    7.1420  -16.7699   21.1809 C   0  0  0  0  0  0  0  0  0  0  0  0
    7.2446  -15.2388   21.2198 C   0  0  2  0  0  0  0  0  0  0  0  0
    8.0366  -14.8372   20.1123 N   0  0  0  0  0  0  0  0  0  0  0  0
    7.9776  -14.8724   22.4629 C   0  0  0  0  0  0  0  0  0  0  0  0
    9.2475  -14.8568   22.5173 O   0  0  0  0  0  0  0  0  0  0  0  0
    5.7303  -11.5104   26.1888 C   0  0  0  0  0  0  0  0  0  0  0  0
    6.6567  -12.1778   25.1939 C   0  0  0  0  0  0  0  0  0  0  0  0
    7.1902  -13.4344   25.8384 C   0  0  2  0  0  0  0  0  0  0  0  0
    8.0841  -13.0354   26.9890 C   0  0  0  0  0  0  0  0  0  0  0  0
    7.9702  -14.2886   24.8764 C   0  0  2  0  0  0  0  0  0  0  0  0
    7.2663  -14.5238   23.6441 N   0  0  0  0  0  0  0  0  0  0  0  0
    8.3506  -15.5543   25.5521 C   0  0  0  0  0  0  0  0  0  0  0  0
    7.4612  -16.2676   26.0809 O   0  0  0  0  0  0  0  0  0  0  0  0
    9.7151  -15.9720   25.6088 N   0  0  0  0  0  0  0  0  0  0  0  0
    9.9949  -17.2522   26.2226 C   0  0  0  0  0  0  0  0  0  0  0  0
   11.4579  -17.5064   26.2709 C   0  0  0  0  0  0  0  0  0  0  0  0
   11.9093  -18.6454   26.9055 O   0  0  0  0  0  0  0  0  0  0  0  0
   12.2944  -16.7262   25.7577 O   0  0  0  0  0  0  0  0  0  0  0  0
  2  1  1  0
  3  4  1  6
  3  2  1  0
  5  6  2  0
  5  3  1  0
  8  7  1  0
  8  9  1  0
  9 11  1  0
  9 10  1  1
 11 13  1  0
 11 12  1  6
 12  5  1  0
 13 15  1  0
 14 13  2  0
 15 16  1  0
 16 17  1  0
 17 19  2  0
 17 18  1  0
M  END
$$$$
