SIG.pdb
     RDKit          3D

 19 18  0  0  1  0  0  0  0  0999 V2000
    6.3007  -16.6536   20.1378 O   0  0  0  0  0  0  0  0  0  0  0  0
    7.4543  -16.2907   20.8648 C   0  0  0  0  0  0  0  0  0  0  0  0
    7.2741  -14.8055   21.2081 C   0  0  2  0  0  0  0  0  0  0  0  0
    7.8624  -14.0518   20.1589 N   0  0  0  0  0  0  0  0  0  0  0  0
    8.0471  -14.5385   22.4522 C   0  0  0  0  0  0  0  0  0  0  0  0
    9.3109  -14.4009   22.4446 O   0  0  0  0  0  0  0  0  0  0  0  0
    5.8496  -11.7075   26.4948 C   0  0  0  0  0  0  0  0  0  0  0  0
    6.8601  -12.2064   25.4830 C   0  0  0  0  0  0  0  0  0  0  0  0
    7.3946  -13.5264   25.9841 C   0  0  2  0  0  0  0  0  0  0  0  0
    8.3231  -13.2532   27.1442 C   0  0  0  0  0  0  0  0  0  0  0  0
    8.1387  -14.2875   24.9210 C   0  0  2  0  0  0  0  0  0  0  0  0
    7.3830  -14.4278   23.7050 N   0  0  0  0  0  0  0  0  0  0  0  0
    8.5599  -15.6003   25.4708 C   0  0  0  0  0  0  0  0  0  0  0  0
    7.6885  -16.4393   25.8115 O   0  0  0  0  0  0  0  0  0  0  0  0
    9.9435  -15.9221   25.6177 N   0  0  0  0  0  0  0  0  0  0  0  0
   10.2746  -17.2746   26.0116 C   0  0  0  0  0  0  0  0  0  0  0  0
   10.4260  -17.3733   27.4862 C   0  0  0  0  0  0  0  0  0  0  0  0
   10.7870  -18.5876   28.0330 O   0  0  0  0  0  0  0  0  0  0  0  0
   10.2383  -16.3964   28.2494 O   0  0  0  0  0  0  0  0  0  0  0  0
  2  1  1  0
  3  4  1  6
  3  2  1  0
  5  6  2  0
  5  3  1  0
  8  7  1  0
  8  9  1  0
  9 11  1  0
  9 10  1  1
 11 13  1  0
 11 12  1  6
 12  5  1  0
 13 15  1  0
 14 13  2  0
 15 16  1  0
 16 17  1  0
 17 19  2  0
 17 18  1  0
M  END
$$$$
