SIG.pdb
     RDKit          3D

 19 18  0  0  1  0  0  0  0  0999 V2000
    7.2830  -17.2365   21.8034 O   0  0  0  0  0  0  0  0  0  0  0  0
    6.2361  -16.2913   21.7633 C   0  0  0  0  0  0  0  0  0  0  0  0
    6.9212  -14.9234   21.6381 C   0  0  2  0  0  0  0  0  0  0  0  0
    7.8462  -15.0075   20.5646 N   0  0  0  0  0  0  0  0  0  0  0  0
    7.6936  -14.6953   22.8904 C   0  0  0  0  0  0  0  0  0  0  0  0
    8.9637  -14.7430   22.9176 O   0  0  0  0  0  0  0  0  0  0  0  0
    5.8417  -11.1717   26.6826 C   0  0  0  0  0  0  0  0  0  0  0  0
    6.7513  -11.8939   25.7107 C   0  0  0  0  0  0  0  0  0  0  0  0
    7.0284  -13.2654   26.2774 C   0  0  2  0  0  0  0  0  0  0  0  0
    7.8490  -13.1027   27.5354 C   0  0  0  0  0  0  0  0  0  0  0  0
    7.7700  -14.1488   25.3114 C   0  0  2  0  0  0  0  0  0  0  0  0
    7.0217  -14.4129   24.1116 N   0  0  0  0  0  0  0  0  0  0  0  0
    8.1691  -15.3981   26.0066 C   0  0  0  0  0  0  0  0  0  0  0  0
    8.9401  -15.3384   26.9972 O   0  0  0  0  0  0  0  0  0  0  0  0
    7.6876  -16.6676   25.5637 N   0  0  0  0  0  0  0  0  0  0  0  0
    7.9554  -17.8126   26.4070 C   0  0  0  0  0  0  0  0  0  0  0  0
    9.3361  -18.3168   26.1906 C   0  0  0  0  0  0  0  0  0  0  0  0
   10.0006  -18.8974   27.2513 O   0  0  0  0  0  0  0  0  0  0  0  0
    9.9174  -18.2341   25.0828 O   0  0  0  0  0  0  0  0  0  0  0  0
  2  1  1  0
  3  4  1  6
  3  2  1  0
  5  6  2  0
  5  3  1  0
  8  7  1  0
  8  9  1  0
  9 11  1  0
  9 10  1  1
 11 13  1  0
 11 12  1  6
 12  5  1  0
 13 15  1  0
 14 13  2  0
 15 16  1  0
 16 17  1  0
 17 19  2  0
 17 18  1  0
M  END
$$$$
