SIG.pdb
     RDKit          3D

 19 18  0  0  1  0  0  0  0  0999 V2000
    7.3106  -19.0163   25.0612 O   0  0  0  0  0  0  0  0  0  0  0  0
    7.0552  -19.1219   23.6775 C   0  0  0  0  0  0  0  0  0  0  0  0
    6.1200  -17.9521   23.3412 C   0  0  2  0  0  0  0  0  0  0  0  0
    5.7875  -18.0553   21.9650 N   0  0  0  0  0  0  0  0  0  0  0  0
    6.8933  -16.6941   23.5317 C   0  0  0  0  0  0  0  0  0  0  0  0
    7.7597  -16.3008   22.6888 O   0  0  0  0  0  0  0  0  0  0  0  0
    6.5782  -11.3052   26.3980 C   0  0  0  0  0  0  0  0  0  0  0  0
    7.4569  -12.3129   25.6869 C   0  0  0  0  0  0  0  0  0  0  0  0
    6.6679  -13.5931   25.5533 C   0  0  2  0  0  0  0  0  0  0  0  0
    6.2626  -14.0477   26.9358 C   0  0  0  0  0  0  0  0  0  0  0  0
    7.4531  -14.6862   24.8812 C   0  0  2  0  0  0  0  0  0  0  0  0
    6.6811  -15.8835   24.6809 N   0  0  0  0  0  0  0  0  0  0  0  0
    8.6896  -14.9435   25.6611 C   0  0  0  0  0  0  0  0  0  0  0  0
    9.5394  -14.0278   25.7977 O   0  0  0  0  0  0  0  0  0  0  0  0
    8.9257  -16.2191   26.2584 N   0  0  0  0  0  0  0  0  0  0  0  0
   10.1181  -16.3664   27.0650 C   0  0  0  0  0  0  0  0  0  0  0  0
   10.1886  -17.7258   27.6603 C   0  0  0  0  0  0  0  0  0  0  0  0
   11.1913  -17.9976   28.5683 O   0  0  0  0  0  0  0  0  0  0  0  0
    9.3727  -18.6320   27.3685 O   0  0  0  0  0  0  0  0  0  0  0  0
  2  1  1  0
  3  4  1  6
  3  2  1  0
  5  6  2  0
  5  3  1  0
  8  7  1  0
  8  9  1  0
  9 11  1  0
  9 10  1  1
 11 13  1  0
 11 12  1  1
 12  5  1  0
 13 15  1  0
 14 13  2  0
 15 16  1  0
 16 17  1  0
 17 19  2  0
 17 18  1  0
M  END
$$$$
