SIG.pdb
     RDKit          3D

 19 18  0  0  1  0  0  0  0  0999 V2000
    8.9440  -18.2680   22.3683 O   0  0  0  0  0  0  0  0  0  0  0  0
    7.6194  -17.9008   22.6871 C   0  0  0  0  0  0  0  0  0  0  0  0
    7.3838  -16.5576   21.9824 C   0  0  2  0  0  0  0  0  0  0  0  0
    8.1124  -16.5826   20.7644 N   0  0  0  0  0  0  0  0  0  0  0  0
    7.9691  -15.4935   22.8437 C   0  0  0  0  0  0  0  0  0  0  0  0
    9.0987  -14.9674   22.5920 O   0  0  0  0  0  0  0  0  0  0  0  0
    6.2441  -11.0394   26.6192 C   0  0  0  0  0  0  0  0  0  0  0  0
    7.3859  -11.9106   26.1389 C   0  0  0  0  0  0  0  0  0  0  0  0
    6.7860  -13.0900   25.4120 C   0  0  2  0  0  0  0  0  0  0  0  0
    5.9476  -13.8759   26.3926 C   0  0  0  0  0  0  0  0  0  0  0  0
    7.8322  -13.9931   24.8175 C   0  0  2  0  0  0  0  0  0  0  0  0
    7.2698  -15.0276   23.9911 N   0  0  0  0  0  0  0  0  0  0  0  0
    8.6715  -14.5459   25.9098 C   0  0  0  0  0  0  0  0  0  0  0  0
    9.3372  -13.7663   26.6367 O   0  0  0  0  0  0  0  0  0  0  0  0
    8.7323  -15.9532   26.1451 N   0  0  0  0  0  0  0  0  0  0  0  0
    9.5336  -16.4080   27.2609 C   0  0  0  0  0  0  0  0  0  0  0  0
    9.5065  -17.8901   27.3614 C   0  0  0  0  0  0  0  0  0  0  0  0
   10.1385  -18.4908   28.4307 O   0  0  0  0  0  0  0  0  0  0  0  0
    8.9320  -18.6123   26.5127 O   0  0  0  0  0  0  0  0  0  0  0  0
  2  1  1  0
  3  4  1  6
  3  2  1  0
  5  6  2  0
  5  3  1  0
  8  7  1  0
  8  9  1  0
  9 11  1  0
  9 10  1  1
 11 13  1  0
 11 12  1  1
 12  5  1  0
 13 15  1  0
 14 13  2  0
 15 16  1  0
 16 17  1  0
 17 19  2  0
 17 18  1  0
M  END
$$$$
