SIG.pdb
     RDKit          3D

 19 18  0  0  1  0  0  0  0  0999 V2000
    5.7144  -16.9405   20.2703 O   0  0  0  0  0  0  0  0  0  0  0  0
    6.5770  -16.7423   21.3693 C   0  0  0  0  0  0  0  0  0  0  0  0
    6.8322  -15.2297   21.4245 C   0  0  2  0  0  0  0  0  0  0  0  0
    7.6733  -14.8999   20.3296 N   0  0  0  0  0  0  0  0  0  0  0  0
    7.5836  -14.9497   22.6790 C   0  0  0  0  0  0  0  0  0  0  0  0
    8.8427  -15.1053   22.7599 O   0  0  0  0  0  0  0  0  0  0  0  0
    5.8867  -11.2968   26.3555 C   0  0  0  0  0  0  0  0  0  0  0  0
    6.7856  -12.1033   25.4417 C   0  0  0  0  0  0  0  0  0  0  0  0
    6.9673  -13.4658   26.0658 C   0  0  2  0  0  0  0  0  0  0  0  0
    7.8641  -13.3197   27.2727 C   0  0  0  0  0  0  0  0  0  0  0  0
    7.5745  -14.4594   25.1132 C   0  0  2  0  0  0  0  0  0  0  0  0
    6.9032  -14.4929   23.8413 N   0  0  0  0  0  0  0  0  0  0  0  0
    7.6075  -15.7940   25.7621 C   0  0  0  0  0  0  0  0  0  0  0  0
    6.5368  -16.3168   26.1619 O   0  0  0  0  0  0  0  0  0  0  0  0
    8.8411  -16.4918   25.9379 N   0  0  0  0  0  0  0  0  0  0  0  0
    8.7820  -17.8097   26.5326 C   0  0  0  0  0  0  0  0  0  0  0  0
    9.7500  -17.9273   27.6536 C   0  0  0  0  0  0  0  0  0  0  0  0
    9.7439  -19.0793   28.4129 O   0  0  0  0  0  0  0  0  0  0  0  0
   10.5694  -17.0207   27.9337 O   0  0  0  0  0  0  0  0  0  0  0  0
  2  1  1  0
  3  4  1  6
  3  2  1  0
  5  6  2  0
  5  3  1  0
  8  7  1  0
  8  9  1  0
  9 11  1  0
  9 10  1  1
 11 13  1  0
 11 12  1  6
 12  5  1  0
 13 15  1  0
 14 13  2  0
 15 16  1  0
 16 17  1  0
 17 19  2  0
 17 18  1  0
M  END
$$$$
