SIG.pdb
     RDKit          3D

 19 18  0  0  1  0  0  0  0  0999 V2000
    8.6781  -17.5464   22.1078 O   0  0  0  0  0  0  0  0  0  0  0  0
    7.2982  -17.2563   22.0576 C   0  0  0  0  0  0  0  0  0  0  0  0
    7.2012  -15.7965   21.5930 C   0  0  2  0  0  0  0  0  0  0  0  0
    7.9352  -15.6855   20.3830 N   0  0  0  0  0  0  0  0  0  0  0  0
    7.8795  -14.9563   22.6180 C   0  0  0  0  0  0  0  0  0  0  0  0
    9.0467  -14.4855   22.4394 O   0  0  0  0  0  0  0  0  0  0  0  0
    6.2736  -11.1743   27.1501 C   0  0  0  0  0  0  0  0  0  0  0  0
    7.4020  -11.9208   26.4698 C   0  0  0  0  0  0  0  0  0  0  0  0
    6.7831  -12.9093   25.5112 C   0  0  2  0  0  0  0  0  0  0  0  0
    5.8969  -13.8448   26.2999 C   0  0  0  0  0  0  0  0  0  0  0  0
    7.8143  -13.7123   24.7661 C   0  0  2  0  0  0  0  0  0  0  0  0
    7.2303  -14.6515   23.8462 N   0  0  0  0  0  0  0  0  0  0  0  0
    8.7119  -14.3747   25.7452 C   0  0  0  0  0  0  0  0  0  0  0  0
    9.2837  -13.6868   26.6279 O   0  0  0  0  0  0  0  0  0  0  0  0
    8.9340  -15.7847   25.6968 N   0  0  0  0  0  0  0  0  0  0  0  0
    9.7275  -16.3707   26.7554 C   0  0  0  0  0  0  0  0  0  0  0  0
    9.8220  -17.8443   26.5911 C   0  0  0  0  0  0  0  0  0  0  0  0
   10.4732  -18.5765   27.5625 O   0  0  0  0  0  0  0  0  0  0  0  0
    9.3330  -18.4447   25.6050 O   0  0  0  0  0  0  0  0  0  0  0  0
  2  1  1  0
  3  4  1  6
  3  2  1  0
  5  6  2  0
  5  3  1  0
  8  7  1  0
  8  9  1  0
  9 11  1  0
  9 10  1  1
 11 13  1  0
 11 12  1  1
 12  5  1  0
 13 15  1  0
 14 13  2  0
 15 16  1  0
 16 17  1  0
 17 19  2  0
 17 18  1  0
M  END
$$$$
