SIG.pdb
     RDKit          3D

 19 18  0  0  1  0  0  0  0  0999 V2000
    7.4366  -19.3349   24.5562 O   0  0  0  0  0  0  0  0  0  0  0  0
    6.1801  -18.9311   25.0553 C   0  0  0  0  0  0  0  0  0  0  0  0
    5.6643  -17.8761   24.0668 C   0  0  2  0  0  0  0  0  0  0  0  0
    5.5193  -18.5102   22.8050 N   0  0  0  0  0  0  0  0  0  0  0  0
    6.7195  -16.8338   23.9362 C   0  0  0  0  0  0  0  0  0  0  0  0
    7.6088  -16.8842   23.0293 O   0  0  0  0  0  0  0  0  0  0  0  0
    7.1001  -12.4363   27.5943 C   0  0  0  0  0  0  0  0  0  0  0  0
    6.7969  -13.6567   26.7504 C   0  0  0  0  0  0  0  0  0  0  0  0
    7.4184  -13.4385   25.3920 C   0  0  2  0  0  0  0  0  0  0  0  0
    6.4298  -12.6857   24.5327 C   0  0  0  0  0  0  0  0  0  0  0  0
    7.7852  -14.7295   24.7122 C   0  0  2  0  0  0  0  0  0  0  0  0
    6.7632  -15.7341   24.8371 N   0  0  0  0  0  0  0  0  0  0  0  0
    9.0937  -15.1966   25.2345 C   0  0  0  0  0  0  0  0  0  0  0  0
    9.1576  -15.7110   26.3793 O   0  0  0  0  0  0  0  0  0  0  0  0
   10.2816  -15.0688   24.4520 N   0  0  0  0  0  0  0  0  0  0  0  0
   11.5393  -15.3853   25.0940 C   0  0  0  0  0  0  0  0  0  0  0  0
   11.9122  -16.8035   24.8551 C   0  0  0  0  0  0  0  0  0  0  0  0
   12.4011  -17.5444   25.9115 O   0  0  0  0  0  0  0  0  0  0  0  0
   11.7992  -17.3496   23.7323 O   0  0  0  0  0  0  0  0  0  0  0  0
  2  1  1  0
  3  4  1  6
  3  2  1  0
  5  6  2  0
  5  3  1  0
  8  7  1  0
  8  9  1  0
  9 11  1  0
  9 10  1  6
 11 13  1  0
 11 12  1  1
 12  5  1  0
 13 15  1  0
 14 13  2  0
 15 16  1  0
 16 17  1  0
 17 19  2  0
 17 18  1  0
M  END
$$$$
