SIG.pdb
     RDKit          3D

 19 18  0  0  1  0  0  0  0  0999 V2000
    4.9225  -17.6360   21.5093 O   0  0  0  0  0  0  0  0  0  0  0  0
    6.2270  -17.2699   21.9035 C   0  0  0  0  0  0  0  0  0  0  0  0
    6.2499  -15.7353   21.8754 C   0  0  2  0  0  0  0  0  0  0  0  0
    6.6437  -15.3394   20.5703 N   0  0  0  0  0  0  0  0  0  0  0  0
    7.3041  -15.2876   22.8267 C   0  0  0  0  0  0  0  0  0  0  0  0
    8.5208  -15.1691   22.4782 O   0  0  0  0  0  0  0  0  0  0  0  0
    6.0662  -11.9100   26.8175 C   0  0  0  0  0  0  0  0  0  0  0  0
    6.9304  -12.4867   25.7156 C   0  0  0  0  0  0  0  0  0  0  0  0
    7.5352  -13.7693   26.2335 C   0  0  2  0  0  0  0  0  0  0  0  0
    8.7031  -13.4177   27.1250 C   0  0  0  0  0  0  0  0  0  0  0  0
    8.0093  -14.6709   25.1264 C   0  0  2  0  0  0  0  0  0  0  0  0
    6.9745  -14.9746   24.1744 N   0  0  0  0  0  0  0  0  0  0  0  0
    8.5990  -15.8970   25.7198 C   0  0  0  0  0  0  0  0  0  0  0  0
    7.8909  -16.6367   26.4484 O   0  0  0  0  0  0  0  0  0  0  0  0
    9.9615  -16.2469   25.4730 N   0  0  0  0  0  0  0  0  0  0  0  0
   10.3901  -17.5724   25.8645 C   0  0  0  0  0  0  0  0  0  0  0  0
   10.8456  -17.5841   27.2786 C   0  0  0  0  0  0  0  0  0  0  0  0
   10.0987  -18.2799   28.2069 O   0  0  0  0  0  0  0  0  0  0  0  0
   11.8807  -16.9867   27.6578 O   0  0  0  0  0  0  0  0  0  0  0  0
  2  1  1  0
  3  4  1  6
  3  2  1  0
  5  6  2  0
  5  3  1  0
  8  7  1  0
  8  9  1  0
  9 11  1  0
  9 10  1  1
 11 13  1  0
 11 12  1  6
 12  5  1  0
 13 15  1  0
 14 13  2  0
 15 16  1  0
 16 17  1  0
 17 19  2  0
 17 18  1  0
M  END
$$$$
