DYL.pdb
     RDKit          3D

 29 29  0  0  1  0  0  0  0  0999 V2000
   10.2604  -18.9489   19.8299 N   0  0  0  0  0  0  0  0  0  0  0  0
    9.4761  -18.6532   21.0124 C   0  0  1  0  0  0  0  0  0  0  0  0
    9.7354  -19.7511   22.0252 C   0  0  0  0  0  0  0  0  0  0  0  0
    9.4830  -21.0892   21.4533 C   0  0  0  0  0  0  0  0  0  0  0  0
    9.4611  -21.3594   20.2409 O   0  0  0  0  0  0  0  0  0  0  0  0
    9.9045  -17.3515   21.5740 C   0  0  0  0  0  0  0  0  0  0  0  0
   11.1081  -17.0365   21.6819 O   0  0  0  0  0  0  0  0  0  0  0  0
    9.2502  -22.1348   22.3447 O   0  0  0  0  0  0  0  0  0  0  0  0
    7.2644  -13.0798   16.7749 O   0  0  0  0  0  0  0  0  0  0  0  0
    7.5258  -13.2811   18.1182 C   0  0  0  0  0  0  0  0  0  0  0  0
    8.3816  -12.4857   18.8454 C   0  0  0  0  0  0  0  0  0  0  0  0
    8.6252  -12.7079   20.1845 C   0  0  0  0  0  0  0  0  0  0  0  0
    8.0208  -13.7345   20.8440 C   0  0  0  0  0  0  0  0  0  0  0  0
    8.2182  -14.0502   22.2733 C   0  0  0  0  0  0  0  0  0  0  0  0
    9.2584  -15.1003   22.5204 C   0  0  2  0  0  0  0  0  0  0  0  0
    8.9590  -16.3883   22.0217 N   0  0  0  0  0  0  0  0  0  0  0  0
    9.4630  -15.1780   23.9893 C   0  0  0  0  0  0  0  0  0  0  0  0
   10.4609  -14.5977   24.4776 O   0  0  0  0  0  0  0  0  0  0  0  0
    7.1578  -14.5424   20.1255 C   0  0  0  0  0  0  0  0  0  0  0  0
    6.9034  -14.3284   18.7721 C   0  0  0  0  0  0  0  0  0  0  0  0
    5.9612  -14.2306   26.5075 C   0  0  0  0  0  0  0  0  0  0  0  0
    7.3079  -13.6565   26.1699 C   0  0  1  0  0  0  0  0  0  0  0  0
    7.3091  -12.1702   26.4747 C   0  0  0  0  0  0  0  0  0  0  0  0
    8.4671  -14.3841   26.6679 C   0  0  0  0  0  0  0  0  0  0  0  0
    8.7372  -15.7892   26.3485 C   0  0  2  0  0  0  0  0  0  0  0  0
    8.6050  -15.8628   24.8620 N   0  0  0  0  0  0  0  0  0  0  0  0
    7.8956  -16.8411   26.8798 C   0  0  0  0  0  0  0  0  0  0  0  0
    7.0603  -17.4451   26.1311 O   0  0  0  0  0  0  0  0  0  0  0  0
    7.8855  -17.3148   28.2008 O   0  0  0  0  0  0  0  0  0  0  0  0
  2  1  1  6
  3  2  1  0
  4  3  1  0
  5  4  2  0
  6  2  1  0
  7  6  2  0
  8  4  1  0
  9 10  1  0
 10 11  2  0
 11 12  1  0
 13 12  2  0
 13 14  1  0
 15 14  1  1
 15 17  1  0
 15 16  1  0
 16  6  1  0
 17 18  2  0
 19 13  1  0
 20 10  1  0
 20 19  2  0
 22 21  1  1
 23 22  1  0
 24 22  1  0
 25 24  1  1
 26 25  1  0
 26 17  1  0
 27 25  1  0
 27 29  1  0
 28 27  2  0
M  END
$$$$
