DYL.pdb
     RDKit          3D

 29 29  0  0  1  0  0  0  0  0999 V2000
    8.0304  -18.6214   21.0448 N   0  0  0  0  0  0  0  0  0  0  0  0
    9.4718  -18.6025   20.8923 C   0  0  1  0  0  0  0  0  0  0  0  0
    9.7797  -18.6278   19.4080 C   0  0  0  0  0  0  0  0  0  0  0  0
    9.4986  -19.9517   18.8169 C   0  0  0  0  0  0  0  0  0  0  0  0
    9.0177  -20.9222   19.4252 O   0  0  0  0  0  0  0  0  0  0  0  0
   10.0132  -17.3594   21.4882 C   0  0  0  0  0  0  0  0  0  0  0  0
   11.2387  -17.1261   21.5432 O   0  0  0  0  0  0  0  0  0  0  0  0
    9.7964  -20.1283   17.4670 O   0  0  0  0  0  0  0  0  0  0  0  0
    7.6865  -13.2197   16.6101 O   0  0  0  0  0  0  0  0  0  0  0  0
    7.9633  -13.3920   17.9544 C   0  0  0  0  0  0  0  0  0  0  0  0
    9.2324  -13.3007   18.4787 C   0  0  0  0  0  0  0  0  0  0  0  0
    9.4818  -13.4769   19.8236 C   0  0  0  0  0  0  0  0  0  0  0  0
    8.4696  -13.7509   20.6922 C   0  0  0  0  0  0  0  0  0  0  0  0
    8.6381  -13.9546   22.1454 C   0  0  0  0  0  0  0  0  0  0  0  0
    9.5560  -15.0871   22.4926 C   0  0  2  0  0  0  0  0  0  0  0  0
    9.1573  -16.3622   22.0316 N   0  0  0  0  0  0  0  0  0  0  0  0
    9.6767  -15.1160   23.9726 C   0  0  0  0  0  0  0  0  0  0  0  0
   10.7549  -14.7328   24.4842 O   0  0  0  0  0  0  0  0  0  0  0  0
    7.1883  -13.8456   20.1791 C   0  0  0  0  0  0  0  0  0  0  0  0
    6.9233  -13.6697   18.8223 C   0  0  0  0  0  0  0  0  0  0  0  0
    6.3744  -12.4565   26.7160 C   0  0  0  0  0  0  0  0  0  0  0  0
    7.6598  -13.1776   26.4247 C   0  0  1  0  0  0  0  0  0  0  0  0
    8.8211  -12.3749   26.9808 C   0  0  0  0  0  0  0  0  0  0  0  0
    7.6923  -14.5992   26.7394 C   0  0  0  0  0  0  0  0  0  0  0  0
    8.7743  -15.4949   26.3196 C   0  0  2  0  0  0  0  0  0  0  0  0
    8.6550  -15.5470   24.8311 N   0  0  0  0  0  0  0  0  0  0  0  0
    8.8083  -16.8712   26.7687 C   0  0  0  0  0  0  0  0  0  0  0  0
    8.8731  -17.1478   28.0107 O   0  0  0  0  0  0  0  0  0  0  0  0
    8.7715  -18.0153   25.9567 O   0  0  0  0  0  0  0  0  0  0  0  0
  2  1  1  6
  3  2  1  0
  4  3  1  0
  5  4  2  0
  6  2  1  0
  7  6  2  0
  8  4  1  0
  9 10  1  0
 10 11  2  0
 11 12  1  0
 13 12  2  0
 13 14  1  0
 15 14  1  1
 15 17  1  0
 15 16  1  0
 16  6  1  0
 17 18  2  0
 19 13  1  0
 20 10  1  0
 20 19  2  0
 22 21  1  1
 23 22  1  0
 24 22  1  0
 25 24  1  1
 26 25  1  0
 26 17  1  0
 27 25  1  0
 27 29  1  0
 28 27  2  0
M  END
$$$$
