DYL.pdb
     RDKit          3D

 29 29  0  0  1  0  0  0  0  0999 V2000
   10.9388  -18.2926   20.0835 N   0  0  0  0  0  0  0  0  0  0  0  0
   11.9901  -17.4616   20.6359 C   0  0  1  0  0  0  0  0  0  0  0  0
   12.5810  -16.6488   19.5006 C   0  0  0  0  0  0  0  0  0  0  0  0
   13.2999  -17.5051   18.5356 C   0  0  0  0  0  0  0  0  0  0  0  0
   12.9402  -17.7298   17.3680 O   0  0  0  0  0  0  0  0  0  0  0  0
   11.4139  -16.5485   21.6496 C   0  0  0  0  0  0  0  0  0  0  0  0
   12.0549  -15.5851   22.1190 O   0  0  0  0  0  0  0  0  0  0  0  0
   14.4779  -18.1110   18.9684 O   0  0  0  0  0  0  0  0  0  0  0  0
    5.6977  -12.1528   26.7156 O   0  0  0  0  0  0  0  0  0  0  0  0
    6.2756  -13.0188   25.8048 C   0  0  0  0  0  0  0  0  0  0  0  0
    7.0453  -12.5935   24.7463 C   0  0  0  0  0  0  0  0  0  0  0  0
    7.6104  -13.4781   23.8519 C   0  0  0  0  0  0  0  0  0  0  0  0
    7.4254  -14.8205   23.9848 C   0  0  0  0  0  0  0  0  0  0  0  0
    7.9891  -15.8427   23.0798 C   0  0  0  0  0  0  0  0  0  0  0  0
    9.4797  -15.9689   23.1675 C   0  0  2  0  0  0  0  0  0  0  0  0
   10.0918  -16.7252   22.1424 N   0  0  0  0  0  0  0  0  0  0  0  0
    9.7912  -16.5832   24.4833 C   0  0  0  0  0  0  0  0  0  0  0  0
   10.1239  -17.7915   24.5064 O   0  0  0  0  0  0  0  0  0  0  0  0
    6.6536  -15.2626   25.0445 C   0  0  0  0  0  0  0  0  0  0  0  0
    6.0772  -14.3790   25.9550 C   0  0  0  0  0  0  0  0  0  0  0  0
    9.5351  -13.0485   28.5995 C   0  0  0  0  0  0  0  0  0  0  0  0
   10.3573  -14.1011   27.9115 C   0  0  1  0  0  0  0  0  0  0  0  0
   11.8157  -13.9241   28.2906 C   0  0  0  0  0  0  0  0  0  0  0  0
    9.8644  -15.4688   27.9975 C   0  0  0  0  0  0  0  0  0  0  0  0
   10.1617  -16.4990   26.9976 C   0  0  2  0  0  0  0  0  0  0  0  0
    9.7348  -15.8906   25.7014 N   0  0  0  0  0  0  0  0  0  0  0  0
    9.5220  -17.7965   27.0630 C   0  0  0  0  0  0  0  0  0  0  0  0
   10.0779  -18.7646   27.6769 O   0  0  0  0  0  0  0  0  0  0  0  0
    8.2832  -18.1454   26.5035 O   0  0  0  0  0  0  0  0  0  0  0  0
  2  1  1  6
  3  2  1  0
  4  3  1  0
  5  4  2  0
  6  2  1  0
  7  6  2  0
  8  4  1  0
  9 10  1  0
 10 11  2  0
 11 12  1  0
 13 12  2  0
 13 14  1  0
 15 14  1  6
 15 17  1  0
 15 16  1  0
 16  6  1  0
 17 18  2  0
 19 13  1  0
 20 10  1  0
 20 19  2  0
 22 21  1  1
 23 22  1  0
 24 22  1  0
 25 24  1  1
 26 25  1  0
 26 17  1  0
 27 25  1  0
 27 29  1  0
 28 27  2  0
M  END
$$$$
