DYL.pdb
     RDKit          3D

 29 29  0  0  1  0  0  0  0  0999 V2000
    8.4100  -18.4930   20.8559 N   0  0  0  0  0  0  0  0  0  0  0  0
    9.8333  -18.2261   20.7928 C   0  0  1  0  0  0  0  0  0  0  0  0
   10.2365  -18.2129   19.3314 C   0  0  0  0  0  0  0  0  0  0  0  0
    9.9427  -19.5027   18.6746 C   0  0  0  0  0  0  0  0  0  0  0  0
    9.6307  -20.5525   19.2611 O   0  0  0  0  0  0  0  0  0  0  0  0
   10.1126  -16.9019   21.3945 C   0  0  0  0  0  0  0  0  0  0  0  0
   11.2550  -16.3975   21.3934 O   0  0  0  0  0  0  0  0  0  0  0  0
   10.0213  -19.5476   17.2840 O   0  0  0  0  0  0  0  0  0  0  0  0
    7.6592  -13.2577   16.4025 O   0  0  0  0  0  0  0  0  0  0  0  0
    7.7398  -13.4461   17.7705 C   0  0  0  0  0  0  0  0  0  0  0  0
    7.1329  -14.4952   18.4224 C   0  0  0  0  0  0  0  0  0  0  0  0
    7.2287  -14.6605   19.7882 C   0  0  0  0  0  0  0  0  0  0  0  0
    7.9356  -13.7814   20.5508 C   0  0  0  0  0  0  0  0  0  0  0  0
    8.0950  -13.8754   22.0162 C   0  0  0  0  0  0  0  0  0  0  0  0
    9.1989  -14.7939   22.4445 C   0  0  2  0  0  0  0  0  0  0  0  0
    9.0855  -16.1333   22.0079 N   0  0  0  0  0  0  0  0  0  0  0  0
    9.2438  -14.7636   23.9287 C   0  0  0  0  0  0  0  0  0  0  0  0
   10.0291  -13.9563   24.4789 O   0  0  0  0  0  0  0  0  0  0  0  0
    8.5512  -12.7216   19.9089 C   0  0  0  0  0  0  0  0  0  0  0  0
    8.4619  -12.5437   18.5296 C   0  0  0  0  0  0  0  0  0  0  0  0
    5.7058  -12.6756   26.3956 C   0  0  0  0  0  0  0  0  0  0  0  0
    7.0846  -13.2584   26.2684 C   0  0  1  0  0  0  0  0  0  0  0  0
    8.0665  -12.3929   27.0358 C   0  0  0  0  0  0  0  0  0  0  0  0
    7.2098  -14.6888   26.5119 C   0  0  0  0  0  0  0  0  0  0  0  0
    8.4320  -15.4509   26.2384 C   0  0  2  0  0  0  0  0  0  0  0  0
    8.4590  -15.5853   24.7505 N   0  0  0  0  0  0  0  0  0  0  0  0
    8.6004  -16.7887   26.7663 C   0  0  0  0  0  0  0  0  0  0  0  0
    8.4726  -17.8062   26.0104 O   0  0  0  0  0  0  0  0  0  0  0  0
    8.9122  -17.1299   28.0914 O   0  0  0  0  0  0  0  0  0  0  0  0
  2  1  1  6
  3  2  1  0
  4  3  1  0
  5  4  2  0
  6  2  1  0
  7  6  2  0
  8  4  1  0
  9 10  1  0
 10 11  2  0
 11 12  1  0
 13 12  2  0
 13 14  1  0
 15 14  1  1
 15 17  1  0
 15 16  1  0
 16  6  1  0
 17 18  2  0
 19 13  1  0
 20 10  1  0
 20 19  2  0
 22 21  1  1
 23 22  1  0
 24 22  1  0
 25 24  1  6
 26 25  1  0
 26 17  1  0
 27 25  1  0
 27 29  1  0
 28 27  2  0
M  END
$$$$
