DYL.pdb
     RDKit          3D

 29 29  0  0  1  0  0  0  0  0999 V2000
   10.7386  -16.9496   19.1265 N   0  0  0  0  0  0  0  0  0  0  0  0
    9.5004  -17.1384   19.8561 C   0  0  1  0  0  0  0  0  0  0  0  0
    9.3394  -18.6233   20.1163 C   0  0  0  0  0  0  0  0  0  0  0  0
    8.8440  -19.3343   18.9203 C   0  0  0  0  0  0  0  0  0  0  0  0
    8.7141  -18.8347   17.7904 O   0  0  0  0  0  0  0  0  0  0  0  0
    9.5747  -16.4157   21.1467 C   0  0  0  0  0  0  0  0  0  0  0  0
   10.6175  -16.3838   21.8329 O   0  0  0  0  0  0  0  0  0  0  0  0
    8.4934  -20.6747   19.0698 O   0  0  0  0  0  0  0  0  0  0  0  0
    7.0010  -11.6760   28.2087 O   0  0  0  0  0  0  0  0  0  0  0  0
    7.0725  -12.2612   26.9573 C   0  0  0  0  0  0  0  0  0  0  0  0
    7.8350  -11.7519   25.9312 C   0  0  0  0  0  0  0  0  0  0  0  0
    7.8891  -12.3549   24.6921 C   0  0  0  0  0  0  0  0  0  0  0  0
    7.1816  -13.4897   24.4355 C   0  0  0  0  0  0  0  0  0  0  0  0
    7.1765  -14.2056   23.1436 C   0  0  0  0  0  0  0  0  0  0  0  0
    8.4104  -15.0208   22.9016 C   0  0  2  0  0  0  0  0  0  0  0  0
    8.4534  -15.7167   21.6722 N   0  0  0  0  0  0  0  0  0  0  0  0
    8.5206  -15.9922   24.0196 C   0  0  0  0  0  0  0  0  0  0  0  0
    7.9882  -17.1180   23.8777 O   0  0  0  0  0  0  0  0  0  0  0  0
    6.4105  -14.0131   25.4579 C   0  0  0  0  0  0  0  0  0  0  0  0
    6.3475  -13.4132   26.7142 C   0  0  0  0  0  0  0  0  0  0  0  0
   10.5164  -19.8172   26.4867 C   0  0  0  0  0  0  0  0  0  0  0  0
   11.3476  -18.7096   25.9043 C   0  0  1  0  0  0  0  0  0  0  0  0
   12.3780  -19.3004   24.9602 C   0  0  0  0  0  0  0  0  0  0  0  0
   10.6223  -17.5618   25.3775 C   0  0  0  0  0  0  0  0  0  0  0  0
    9.6394  -16.8010   26.1551 C   0  0  2  0  0  0  0  0  0  0  0  0
    9.1855  -15.7235   25.2247 N   0  0  0  0  0  0  0  0  0  0  0  0
   10.0250  -16.1366   27.3826 C   0  0  0  0  0  0  0  0  0  0  0  0
   10.5362  -14.9699   27.3568 O   0  0  0  0  0  0  0  0  0  0  0  0
    9.8941  -16.6457   28.6838 O   0  0  0  0  0  0  0  0  0  0  0  0
  2  1  1  1
  3  2  1  0
  4  3  1  0
  5  4  2  0
  6  2  1  0
  7  6  2  0
  8  4  1  0
  9 10  1  0
 10 11  2  0
 11 12  1  0
 13 12  2  0
 13 14  1  0
 15 14  1  1
 15 17  1  0
 15 16  1  0
 16  6  1  0
 17 18  2  0
 19 13  1  0
 20 10  1  0
 20 19  2  0
 22 21  1  6
 23 22  1  0
 24 22  1  0
 25 24  1  6
 26 25  1  0
 26 17  1  0
 27 25  1  0
 27 29  1  0
 28 27  2  0
M  END
$$$$
