DYL.pdb
     RDKit          3D

 29 29  0  0  1  0  0  0  0  0999 V2000
    6.4021  -17.7527   19.4088 N   0  0  0  0  0  0  0  0  0  0  0  0
    7.3252  -16.8275   20.0358 C   0  0  1  0  0  0  0  0  0  0  0  0
    7.0534  -15.4481   19.4683 C   0  0  0  0  0  0  0  0  0  0  0  0
    7.8644  -15.1868   18.2620 C   0  0  0  0  0  0  0  0  0  0  0  0
    8.6769  -15.9796   17.7574 O   0  0  0  0  0  0  0  0  0  0  0  0
    7.0920  -16.8150   21.4982 C   0  0  0  0  0  0  0  0  0  0  0  0
    6.0004  -16.4677   21.9956 O   0  0  0  0  0  0  0  0  0  0  0  0
    7.7068  -13.9508   17.6378 O   0  0  0  0  0  0  0  0  0  0  0  0
    8.0348  -19.4331   29.9163 O   0  0  0  0  0  0  0  0  0  0  0  0
    8.1095  -19.2647   28.5453 C   0  0  0  0  0  0  0  0  0  0  0  0
    7.0179  -19.3703   27.7139 C   0  0  0  0  0  0  0  0  0  0  0  0
    7.1193  -19.1978   26.3494 C   0  0  0  0  0  0  0  0  0  0  0  0
    8.3172  -18.9132   25.7679 C   0  0  0  0  0  0  0  0  0  0  0  0
    8.5241  -18.7114   24.3195 C   0  0  0  0  0  0  0  0  0  0  0  0
    7.9317  -17.4375   23.7979 C   0  0  2  0  0  0  0  0  0  0  0  0
    8.1076  -17.2011   22.4156 N   0  0  0  0  0  0  0  0  0  0  0  0
    8.5407  -16.3231   24.5678 C   0  0  0  0  0  0  0  0  0  0  0  0
    9.7245  -16.0040   24.3076 O   0  0  0  0  0  0  0  0  0  0  0  0
    9.4234  -18.8040   26.5916 C   0  0  0  0  0  0  0  0  0  0  0  0
    9.3340  -18.9761   27.9716 C   0  0  0  0  0  0  0  0  0  0  0  0
    7.4441  -12.0600   24.8878 C   0  0  0  0  0  0  0  0  0  0  0  0
    7.2144  -12.3130   26.3508 C   0  0  1  0  0  0  0  0  0  0  0  0
    5.8972  -11.6851   26.7666 C   0  0  0  0  0  0  0  0  0  0  0  0
    7.4132  -13.6799   26.8123 C   0  0  0  0  0  0  0  0  0  0  0  0
    8.5237  -14.5286   26.3694 C   0  0  2  0  0  0  0  0  0  0  0  0
    7.8687  -15.6070   25.5690 N   0  0  0  0  0  0  0  0  0  0  0  0
    9.3685  -15.2007   27.3345 C   0  0  0  0  0  0  0  0  0  0  0  0
    9.0369  -16.3356   27.8091 O   0  0  0  0  0  0  0  0  0  0  0  0
   10.5895  -14.7326   27.8440 O   0  0  0  0  0  0  0  0  0  0  0  0
  2  1  1  6
  3  2  1  0
  4  3  1  0
  5  4  2  0
  6  2  1  0
  7  6  2  0
  8  4  1  0
  9 10  1  0
 10 11  2  0
 11 12  1  0
 13 12  2  0
 13 14  1  0
 15 14  1  1
 15 17  1  0
 15 16  1  0
 16  6  1  0
 17 18  2  0
 19 13  1  0
 20 10  1  0
 20 19  2  0
 22 21  1  6
 23 22  1  0
 24 22  1  0
 25 24  1  1
 26 25  1  0
 26 17  1  0
 27 25  1  0
 27 29  1  0
 28 27  2  0
M  END
$$$$
