DYL.pdb
     RDKit          3D

 29 29  0  0  1  0  0  0  0  0999 V2000
    7.9306  -18.4477   21.1406 N   0  0  0  0  0  0  0  0  0  0  0  0
    9.3547  -18.2654   20.9406 C   0  0  1  0  0  0  0  0  0  0  0  0
    9.6308  -18.3796   19.4543 C   0  0  0  0  0  0  0  0  0  0  0  0
    9.2976  -19.7238   18.9409 C   0  0  0  0  0  0  0  0  0  0  0  0
    8.9294  -20.6864   19.6346 O   0  0  0  0  0  0  0  0  0  0  0  0
    9.7496  -16.9191   21.4147 C   0  0  0  0  0  0  0  0  0  0  0  0
   10.8856  -16.4454   21.2034 O   0  0  0  0  0  0  0  0  0  0  0  0
    9.4043  -19.9309   17.5670 O   0  0  0  0  0  0  0  0  0  0  0  0
    7.6018  -13.4021   16.4566 O   0  0  0  0  0  0  0  0  0  0  0  0
    7.7615  -13.4597   17.8294 C   0  0  0  0  0  0  0  0  0  0  0  0
    8.7965  -12.8414   18.4930 C   0  0  0  0  0  0  0  0  0  0  0  0
    8.9332  -12.9144   19.8633 C   0  0  0  0  0  0  0  0  0  0  0  0
    8.0385  -13.6091   20.6190 C   0  0  0  0  0  0  0  0  0  0  0  0
    8.1013  -13.7433   22.0886 C   0  0  0  0  0  0  0  0  0  0  0  0
    9.0916  -14.7651   22.5585 C   0  0  2  0  0  0  0  0  0  0  0  0
    8.8476  -16.0926   22.1395 N   0  0  0  0  0  0  0  0  0  0  0  0
    9.1043  -14.7135   24.0427 C   0  0  0  0  0  0  0  0  0  0  0  0
    9.3713  -13.6193   24.5927 O   0  0  0  0  0  0  0  0  0  0  0  0
    6.9926  -14.2359   19.9653 C   0  0  0  0  0  0  0  0  0  0  0  0
    6.8436  -14.1697   18.5813 C   0  0  0  0  0  0  0  0  0  0  0  0
    5.9685  -12.7351   26.4433 C   0  0  0  0  0  0  0  0  0  0  0  0
    7.3085  -13.4126   26.3945 C   0  0  1  0  0  0  0  0  0  0  0  0
    8.2112  -12.8136   27.4568 C   0  0  0  0  0  0  0  0  0  0  0  0
    7.2986  -14.8683   26.3499 C   0  0  0  0  0  0  0  0  0  0  0  0
    8.5166  -15.6838   26.3186 C   0  0  2  0  0  0  0  0  0  0  0  0
    8.8352  -15.8173   24.8648 N   0  0  0  0  0  0  0  0  0  0  0  0
    8.5176  -17.0285   26.8557 C   0  0  0  0  0  0  0  0  0  0  0  0
    8.1845  -18.0193   26.1273 O   0  0  0  0  0  0  0  0  0  0  0  0
    8.8668  -17.4053   28.1617 O   0  0  0  0  0  0  0  0  0  0  0  0
  2  1  1  6
  3  2  1  0
  4  3  1  0
  5  4  2  0
  6  2  1  0
  7  6  2  0
  8  4  1  0
  9 10  1  0
 10 11  2  0
 11 12  1  0
 13 12  2  0
 13 14  1  0
 15 14  1  1
 15 17  1  0
 15 16  1  0
 16  6  1  0
 17 18  2  0
 19 13  1  0
 20 10  1  0
 20 19  2  0
 22 21  1  1
 23 22  1  0
 24 22  1  0
 25 24  1  6
 26 25  1  0
 26 17  1  0
 27 25  1  0
 27 29  1  0
 28 27  2  0
M  END
$$$$
