DYL.pdb
     RDKit          3D

 29 29  0  0  1  0  0  0  0  0999 V2000
    8.4070  -18.6393   20.0473 N   0  0  0  0  0  0  0  0  0  0  0  0
    8.7272  -18.6152   21.4608 C   0  0  1  0  0  0  0  0  0  0  0  0
    9.7151  -19.7333   21.7299 C   0  0  0  0  0  0  0  0  0  0  0  0
    9.1750  -21.0460   21.3222 C   0  0  0  0  0  0  0  0  0  0  0  0
    8.4031  -21.2400   20.3683 O   0  0  0  0  0  0  0  0  0  0  0  0
    9.3476  -17.3145   21.8026 C   0  0  0  0  0  0  0  0  0  0  0  0
   10.5767  -17.1167   21.7041 O   0  0  0  0  0  0  0  0  0  0  0  0
    9.5617  -22.1586   22.0669 O   0  0  0  0  0  0  0  0  0  0  0  0
    7.5198  -13.4136   16.4651 O   0  0  0  0  0  0  0  0  0  0  0  0
    7.6450  -13.5411   17.8368 C   0  0  0  0  0  0  0  0  0  0  0  0
    6.9596  -14.4823   18.5703 C   0  0  0  0  0  0  0  0  0  0  0  0
    7.1023  -14.5887   19.9379 C   0  0  0  0  0  0  0  0  0  0  0  0
    7.9364  -13.7565   20.6205 C   0  0  0  0  0  0  0  0  0  0  0  0
    8.1547  -13.7942   22.0808 C   0  0  0  0  0  0  0  0  0  0  0  0
    9.0444  -14.9140   22.5283 C   0  0  2  0  0  0  0  0  0  0  0  0
    8.5682  -16.2180   22.2633 N   0  0  0  0  0  0  0  0  0  0  0  0
    9.2493  -14.7540   23.9905 C   0  0  0  0  0  0  0  0  0  0  0  0
   10.1885  -14.0199   24.3778 O   0  0  0  0  0  0  0  0  0  0  0  0
    8.6320  -12.8052   19.8959 C   0  0  0  0  0  0  0  0  0  0  0  0
    8.4964  -12.6876   18.5139 C   0  0  0  0  0  0  0  0  0  0  0  0
    9.1390  -12.3591   26.6803 C   0  0  0  0  0  0  0  0  0  0  0  0
    7.9488  -13.0200   27.3155 C   0  0  1  0  0  0  0  0  0  0  0  0
    6.7397  -12.1139   27.1763 C   0  0  0  0  0  0  0  0  0  0  0  0
    7.7135  -14.4128   26.9609 C   0  0  0  0  0  0  0  0  0  0  0  0
    8.7533  -15.2965   26.4248 C   0  0  2  0  0  0  0  0  0  0  0  0
    8.4535  -15.3763   24.9632 N   0  0  0  0  0  0  0  0  0  0  0  0
    8.8689  -16.6640   26.8869 C   0  0  0  0  0  0  0  0  0  0  0  0
    9.0766  -16.9184   28.1179 O   0  0  0  0  0  0  0  0  0  0  0  0
    8.7698  -17.8220   26.1002 O   0  0  0  0  0  0  0  0  0  0  0  0
  2  1  1  6
  3  2  1  0
  4  3  1  0
  5  4  2  0
  6  2  1  0
  7  6  2  0
  8  4  1  0
  9 10  1  0
 10 11  2  0
 11 12  1  0
 13 12  2  0
 13 14  1  0
 15 14  1  1
 15 17  1  0
 15 16  1  0
 16  6  1  0
 17 18  2  0
 19 13  1  0
 20 10  1  0
 20 19  2  0
 22 21  1  6
 23 22  1  0
 24 22  1  0
 25 24  1  1
 26 25  1  0
 26 17  1  0
 27 25  1  0
 27 29  1  0
 28 27  2  0
M  END
$$$$
