DYL.pdb
     RDKit          3D

 29 29  0  0  1  0  0  0  0  0999 V2000
    9.2549  -18.6972   21.1705 N   0  0  0  0  0  0  0  0  0  0  0  0
   10.5650  -18.1062   20.9818 C   0  0  1  0  0  0  0  0  0  0  0  0
   10.8729  -18.1297   19.4975 C   0  0  0  0  0  0  0  0  0  0  0  0
   11.8097  -19.2184   19.1536 C   0  0  0  0  0  0  0  0  0  0  0  0
   12.6400  -19.1862   18.2301 O   0  0  0  0  0  0  0  0  0  0  0  0
   10.5460  -16.7048   21.4605 C   0  0  0  0  0  0  0  0  0  0  0  0
   11.5644  -15.9822   21.4457 O   0  0  0  0  0  0  0  0  0  0  0  0
   11.7596  -20.3766   19.9270 O   0  0  0  0  0  0  0  0  0  0  0  0
    7.4407  -13.7690   16.2272 O   0  0  0  0  0  0  0  0  0  0  0  0
    7.5404  -13.8919   17.6014 C   0  0  0  0  0  0  0  0  0  0  0  0
    7.1127  -15.0039   18.2901 C   0  0  0  0  0  0  0  0  0  0  0  0
    7.2235  -15.1015   19.6613 C   0  0  0  0  0  0  0  0  0  0  0  0
    7.7666  -14.0894   20.3925 C   0  0  0  0  0  0  0  0  0  0  0  0
    7.9273  -14.1026   21.8607 C   0  0  0  0  0  0  0  0  0  0  0  0
    9.1976  -14.7501   22.3220 C   0  0  2  0  0  0  0  0  0  0  0  0
    9.3577  -16.1081   21.9646 N   0  0  0  0  0  0  0  0  0  0  0  0
    9.2426  -14.6233   23.8010 C   0  0  0  0  0  0  0  0  0  0  0  0
    9.5949  -13.5236   24.2884 O   0  0  0  0  0  0  0  0  0  0  0  0
    8.2009  -12.9651   19.7133 C   0  0  0  0  0  0  0  0  0  0  0  0
    8.0945  -12.8543   18.3282 C   0  0  0  0  0  0  0  0  0  0  0  0
    8.2174  -12.4101   27.0673 C   0  0  0  0  0  0  0  0  0  0  0  0
    7.1377  -13.4506   26.9731 C   0  0  1  0  0  0  0  0  0  0  0  0
    5.7935  -12.7643   26.8179 C   0  0  0  0  0  0  0  0  0  0  0  0
    7.3743  -14.5494   26.0470 C   0  0  0  0  0  0  0  0  0  0  0  0
    8.5499  -15.4229   26.1134 C   0  0  2  0  0  0  0  0  0  0  0  0
    8.9143  -15.6620   24.6842 N   0  0  0  0  0  0  0  0  0  0  0  0
    8.4634  -16.7300   26.7306 C   0  0  0  0  0  0  0  0  0  0  0  0
    8.0083  -17.7266   26.0803 O   0  0  0  0  0  0  0  0  0  0  0  0
    8.8471  -17.0622   28.0390 O   0  0  0  0  0  0  0  0  0  0  0  0
  2  1  1  6
  3  2  1  0
  4  3  1  0
  5  4  2  0
  6  2  1  0
  7  6  2  0
  8  4  1  0
  9 10  1  0
 10 11  2  0
 11 12  1  0
 13 12  2  0
 13 14  1  0
 15 14  1  1
 15 17  1  0
 15 16  1  0
 16  6  1  0
 17 18  2  0
 19 13  1  0
 20 10  1  0
 20 19  2  0
 22 21  1  6
 23 22  1  0
 24 22  1  0
 25 24  1  6
 26 25  1  0
 26 17  1  0
 27 25  1  0
 27 29  1  0
 28 27  2  0
M  END
$$$$
