DYL.pdb
     RDKit          3D

 29 29  0  0  1  0  0  0  0  0999 V2000
    9.3220  -18.7791   21.0801 N   0  0  0  0  0  0  0  0  0  0  0  0
   10.6895  -18.2995   21.1103 C   0  0  1  0  0  0  0  0  0  0  0  0
   11.2356  -18.3716   19.6977 C   0  0  0  0  0  0  0  0  0  0  0  0
   11.4559  -19.7681   19.2705 C   0  0  0  0  0  0  0  0  0  0  0  0
   11.3926  -20.7639   20.0106 O   0  0  0  0  0  0  0  0  0  0  0  0
   10.7077  -16.8937   21.5760 C   0  0  0  0  0  0  0  0  0  0  0  0
   11.7721  -16.2727   21.7775 O   0  0  0  0  0  0  0  0  0  0  0  0
   11.7595  -19.9885   17.9284 O   0  0  0  0  0  0  0  0  0  0  0  0
    7.1389  -13.6023   16.3741 O   0  0  0  0  0  0  0  0  0  0  0  0
    7.3991  -13.6922   17.7297 C   0  0  0  0  0  0  0  0  0  0  0  0
    8.0475  -12.7065   18.4381 C   0  0  0  0  0  0  0  0  0  0  0  0
    8.2949  -12.8207   19.7900 C   0  0  0  0  0  0  0  0  0  0  0  0
    7.9020  -13.9259   20.4816 C   0  0  0  0  0  0  0  0  0  0  0  0
    8.1213  -14.1378   21.9268 C   0  0  0  0  0  0  0  0  0  0  0  0
    9.4107  -14.8319   22.2451 C   0  0  2  0  0  0  0  0  0  0  0  0
    9.5043  -16.1761   21.8186 N   0  0  0  0  0  0  0  0  0  0  0  0
    9.5897  -14.7709   23.7182 C   0  0  0  0  0  0  0  0  0  0  0  0
   10.3411  -13.8829   24.1849 O   0  0  0  0  0  0  0  0  0  0  0  0
    7.2489  -14.9251   19.7823 C   0  0  0  0  0  0  0  0  0  0  0  0
    6.9930  -14.8216   18.4163 C   0  0  0  0  0  0  0  0  0  0  0  0
    8.8188  -12.3101   27.4906 C   0  0  0  0  0  0  0  0  0  0  0  0
    7.6619  -13.1822   27.0932 C   0  0  1  0  0  0  0  0  0  0  0  0
    6.4057  -12.3362   27.0014 C   0  0  0  0  0  0  0  0  0  0  0  0
    7.8808  -14.0768   25.9649 C   0  0  0  0  0  0  0  0  0  0  0  0
    8.7002  -15.2900   26.0432 C   0  0  2  0  0  0  0  0  0  0  0  0
    8.9672  -15.6487   24.6175 N   0  0  0  0  0  0  0  0  0  0  0  0
    8.1841  -16.4892   26.6697 C   0  0  0  0  0  0  0  0  0  0  0  0
    7.3394  -17.2263   26.0645 O   0  0  0  0  0  0  0  0  0  0  0  0
    8.5218  -16.9781   27.9412 O   0  0  0  0  0  0  0  0  0  0  0  0
  2  1  1  6
  3  2  1  0
  4  3  1  0
  5  4  2  0
  6  2  1  0
  7  6  2  0
  8  4  1  0
  9 10  1  0
 10 11  2  0
 11 12  1  0
 13 12  2  0
 13 14  1  0
 15 14  1  1
 15 17  1  0
 15 16  1  0
 16  6  1  0
 17 18  2  0
 19 13  1  0
 20 10  1  0
 20 19  2  0
 22 21  1  6
 23 22  1  0
 24 22  1  0
 25 24  1  6
 26 25  1  0
 26 17  1  0
 27 25  1  0
 27 29  1  0
 28 27  2  0
M  END
$$$$
