DYL.pdb
     RDKit          3D

 29 29  0  0  1  0  0  0  0  0999 V2000
    9.9879  -17.9876   19.3927 N   0  0  0  0  0  0  0  0  0  0  0  0
    9.3030  -16.8540   19.9818 C   0  0  1  0  0  0  0  0  0  0  0  0
    7.8819  -16.8474   19.4536 C   0  0  0  0  0  0  0  0  0  0  0  0
    7.8502  -16.8872   17.9776 C   0  0  0  0  0  0  0  0  0  0  0  0
    8.4248  -17.7309   17.2695 O   0  0  0  0  0  0  0  0  0  0  0  0
    9.2820  -17.0033   21.4551 C   0  0  0  0  0  0  0  0  0  0  0  0
    8.3920  -17.6497   22.0463 O   0  0  0  0  0  0  0  0  0  0  0  0
    7.1166  -15.8987   17.3244 O   0  0  0  0  0  0  0  0  0  0  0  0
   13.7538  -21.7978   21.4780 O   0  0  0  0  0  0  0  0  0  0  0  0
   13.2835  -20.6703   22.1268 C   0  0  0  0  0  0  0  0  0  0  0  0
   12.5257  -20.7239   23.2743 C   0  0  0  0  0  0  0  0  0  0  0  0
   12.0688  -19.5842   23.9021 C   0  0  0  0  0  0  0  0  0  0  0  0
   12.3540  -18.3495   23.4038 C   0  0  0  0  0  0  0  0  0  0  0  0
   11.9106  -17.0752   24.0047 C   0  0  0  0  0  0  0  0  0  0  0  0
   10.5072  -16.6944   23.6425 C   0  0  2  0  0  0  0  0  0  0  0  0
   10.2821  -16.4131   22.2758 N   0  0  0  0  0  0  0  0  0  0  0  0
   10.1530  -15.5018   24.4537 C   0  0  0  0  0  0  0  0  0  0  0  0
   10.9173  -14.5094   24.4086 O   0  0  0  0  0  0  0  0  0  0  0  0
   13.1150  -18.2803   22.2505 C   0  0  0  0  0  0  0  0  0  0  0  0
   13.5826  -19.4245   21.6068 C   0  0  0  0  0  0  0  0  0  0  0  0
    5.7915  -12.4917   25.8003 C   0  0  0  0  0  0  0  0  0  0  0  0
    7.2315  -12.9114   25.7143 C   0  0  1  0  0  0  0  0  0  0  0  0
    8.1180  -11.6856   25.8322 C   0  0  0  0  0  0  0  0  0  0  0  0
    7.6304  -14.0373   26.5474 C   0  0  0  0  0  0  0  0  0  0  0  0
    8.9757  -14.6199   26.5279 C   0  0  2  0  0  0  0  0  0  0  0  0
    9.0136  -15.4212   25.2673 N   0  0  0  0  0  0  0  0  0  0  0  0
    9.4086  -15.5110   27.5841 C   0  0  0  0  0  0  0  0  0  0  0  0
    9.9010  -15.0475   28.6639 O   0  0  0  0  0  0  0  0  0  0  0  0
    9.3462  -16.9129   27.5712 O   0  0  0  0  0  0  0  0  0  0  0  0
  2  1  1  6
  3  2  1  0
  4  3  1  0
  5  4  2  0
  6  2  1  0
  7  6  2  0
  8  4  1  0
  9 10  1  0
 10 11  2  0
 11 12  1  0
 13 12  2  0
 13 14  1  0
 15 14  1  6
 15 17  1  0
 15 16  1  0
 16  6  1  0
 17 18  2  0
 19 13  1  0
 20 10  1  0
 20 19  2  0
 22 21  1  1
 23 22  1  0
 24 22  1  0
 25 24  1  1
 26 25  1  0
 26 17  1  0
 27 25  1  0
 27 29  1  0
 28 27  2  0
M  END
$$$$
