DYL.pdb
     RDKit          3D

 29 29  0  0  1  0  0  0  0  0999 V2000
    8.2297  -19.1444   21.9738 N   0  0  0  0  0  0  0  0  0  0  0  0
    9.5794  -19.0366   21.4566 C   0  0  1  0  0  0  0  0  0  0  0  0
    9.4984  -19.0730   19.9430 C   0  0  0  0  0  0  0  0  0  0  0  0
    9.3285  -20.4514   19.4406 C   0  0  0  0  0  0  0  0  0  0  0  0
    9.7304  -21.4786   20.0121 O   0  0  0  0  0  0  0  0  0  0  0  0
   10.1706  -17.7494   21.8890 C   0  0  0  0  0  0  0  0  0  0  0  0
   11.3464  -17.4308   21.6141 O   0  0  0  0  0  0  0  0  0  0  0  0
    8.6636  -20.6148   18.2268 O   0  0  0  0  0  0  0  0  0  0  0  0
    6.7893  -12.7171   18.1068 O   0  0  0  0  0  0  0  0  0  0  0  0
    7.2368  -13.1770   19.3322 C   0  0  0  0  0  0  0  0  0  0  0  0
    6.6099  -14.1817   20.0332 C   0  0  0  0  0  0  0  0  0  0  0  0
    7.0766  -14.6221   21.2539 C   0  0  0  0  0  0  0  0  0  0  0  0
    8.1879  -14.0725   21.8170 C   0  0  0  0  0  0  0  0  0  0  0  0
    8.7622  -14.4769   23.1163 C   0  0  0  0  0  0  0  0  0  0  0  0
    9.8464  -15.5051   23.0021 C   0  0  2  0  0  0  0  0  0  0  0  0
    9.4226  -16.8050   22.6445 N   0  0  0  0  0  0  0  0  0  0  0  0
   10.5402  -15.5585   24.3141 C   0  0  0  0  0  0  0  0  0  0  0  0
   11.4921  -14.7671   24.5109 O   0  0  0  0  0  0  0  0  0  0  0  0
    8.8286  -13.0613   21.1234 C   0  0  0  0  0  0  0  0  0  0  0  0
    8.3669  -12.6075   19.8893 C   0  0  0  0  0  0  0  0  0  0  0  0
    9.6454  -14.7322   29.5237 C   0  0  0  0  0  0  0  0  0  0  0  0
    9.4543  -14.8936   28.0424 C   0  0  1  0  0  0  0  0  0  0  0  0
    8.6124  -13.7453   27.5182 C   0  0  0  0  0  0  0  0  0  0  0  0
   10.6492  -15.1824   27.2614 C   0  0  0  0  0  0  0  0  0  0  0  0
   10.9192  -16.4876   26.6506 C   0  0  2  0  0  0  0  0  0  0  0  0
   10.1928  -16.4428   25.3456 N   0  0  0  0  0  0  0  0  0  0  0  0
   10.4971  -17.7089   27.3042 C   0  0  0  0  0  0  0  0  0  0  0  0
   10.9953  -18.0512   28.4257 O   0  0  0  0  0  0  0  0  0  0  0  0
    9.5420  -18.6218   26.8307 O   0  0  0  0  0  0  0  0  0  0  0  0
  2  1  1  1
  3  2  1  0
  4  3  1  0
  5  4  2  0
  6  2  1  0
  7  6  2  0
  8  4  1  0
  9 10  1  0
 10 11  2  0
 11 12  1  0
 13 12  2  0
 13 14  1  0
 15 14  1  1
 15 17  1  0
 15 16  1  0
 16  6  1  0
 17 18  2  0
 19 13  1  0
 20 10  1  0
 20 19  2  0
 22 21  1  1
 23 22  1  0
 24 22  1  0
 25 24  1  1
 26 25  1  0
 26 17  1  0
 27 25  1  0
 27 29  1  0
 28 27  2  0
M  END
$$$$
