IPK.pdb
     RDKit          3D

 25 25  0  0  1  0  0  0  0  0999 V2000
    8.3783  -12.9524   28.1025 C   0  0  0  0  0  0  0  0  0  0  0  0
    7.2578  -13.7809   27.4804 C   0  0  0  0  0  0  0  0  0  0  0  0
    7.8809  -14.4761   26.2738 C   0  0  2  0  0  0  0  0  0  0  0  0
    8.3407  -13.3904   25.3253 C   0  0  0  0  0  0  0  0  0  0  0  0
    6.8082  -15.3077   25.5475 C   0  0  2  0  0  0  0  0  0  0  0  0
    6.3946  -16.2777   26.5828 N   0  0  0  0  0  0  0  0  0  0  0  0
    7.3653  -16.0667   24.4250 C   0  0  0  0  0  0  0  0  0  0  0  0
    7.6025  -17.3108   24.6267 O   0  0  0  0  0  0  0  0  0  0  0  0
    7.6557  -15.5220   23.1412 N   0  0  0  0  0  0  0  0  0  0  0  0
    7.3223  -14.1427   22.7480 C   0  0  0  0  0  0  0  0  0  0  0  0
    7.2446  -14.1373   21.2537 C   0  0  0  0  0  0  0  0  0  0  0  0
    7.5581  -15.5376   20.7767 C   0  0  0  0  0  0  0  0  0  0  0  0
    8.2775  -16.0991   22.0070 C   0  0  1  0  0  0  0  0  0  0  0  0
    9.7379  -15.8306   21.9242 C   0  0  0  0  0  0  0  0  0  0  0  0
   10.2167  -14.8528   22.5558 O   0  0  0  0  0  0  0  0  0  0  0  0
   10.6459  -16.6135   21.1696 N   0  0  0  0  0  0  0  0  0  0  0  0
   11.8743  -17.1720   21.7238 C   0  0  1  0  0  0  0  0  0  0  0  0
   11.5021  -17.9042   22.9834 C   0  0  0  0  0  0  0  0  0  0  0  0
   12.6072  -18.6823   23.6133 C   0  0  0  0  0  0  0  0  0  0  0  0
   12.0960  -19.4010   24.8677 C   0  0  0  0  0  0  0  0  0  0  0  0
   13.2069  -20.2628   25.4226 C   0  0  0  0  0  0  0  0  0  0  0  0
   12.8587  -20.8324   26.7031 N   0  0  0  0  0  0  0  0  0  0  0  0
   12.6012  -17.9871   20.7570 C   0  0  0  0  0  0  0  0  0  0  0  0
   11.9799  -19.0671   20.1572 O   0  0  0  0  0  0  0  0  0  0  0  0
   13.7832  -17.7308   20.4545 O   0  0  0  0  0  0  0  0  0  0  0  0
  2  1  1  0
  3  2  1  0
  3  4  1  6
  5  3  1  0
  5  7  1  0
  5  6  1  1
  7  8  2  0
  9  7  1  0
  9 13  1  0
 10 11  1  0
 10  9  1  0
 11 12  1  0
 12 13  1  0
 13 14  1  6
 14 15  2  0
 16 14  1  0
 17 16  1  0
 17 23  1  0
 17 18  1  1
 19 18  1  0
 20 19  1  0
 21 20  1  0
 22 21  1  0
 23 24  1  0
 25 23  2  0
M  END
$$$$
