IPK.pdb
     RDKit          3D

 25 25  0  0  1  0  0  0  0  0999 V2000
    6.8477  -11.7491   27.7249 C   0  0  0  0  0  0  0  0  0  0  0  0
    5.9902  -12.6645   26.8556 C   0  0  0  0  0  0  0  0  0  0  0  0
    6.9684  -13.6038   26.1570 C   0  0  2  0  0  0  0  0  0  0  0  0
    7.8569  -12.7472   25.2814 C   0  0  0  0  0  0  0  0  0  0  0  0
    6.1928  -14.5646   25.2377 C   0  0  2  0  0  0  0  0  0  0  0  0
    5.4193  -15.3783   26.1986 N   0  0  0  0  0  0  0  0  0  0  0  0
    7.0845  -15.4687   24.5069 C   0  0  0  0  0  0  0  0  0  0  0  0
    7.2588  -16.6382   25.0034 O   0  0  0  0  0  0  0  0  0  0  0  0
    7.7604  -15.1396   23.2970 N   0  0  0  0  0  0  0  0  0  0  0  0
    7.7750  -13.7871   22.7148 C   0  0  0  0  0  0  0  0  0  0  0  0
    8.0549  -13.9593   21.2551 C   0  0  0  0  0  0  0  0  0  0  0  0
    8.2233  -15.4395   20.9955 C   0  0  0  0  0  0  0  0  0  0  0  0
    8.5224  -15.9408   22.4118 C   0  0  1  0  0  0  0  0  0  0  0  0
    9.9847  -15.9034   22.6797 C   0  0  0  0  0  0  0  0  0  0  0  0
   10.5642  -14.7887   22.7554 O   0  0  0  0  0  0  0  0  0  0  0  0
   10.7871  -17.0570   22.8591 N   0  0  0  0  0  0  0  0  0  0  0  0
   12.0881  -17.0329   23.5186 C   0  0  1  0  0  0  0  0  0  0  0  0
   12.1668  -18.2538   24.3931 C   0  0  0  0  0  0  0  0  0  0  0  0
   11.3085  -18.2156   25.6118 C   0  0  0  0  0  0  0  0  0  0  0  0
   11.5056  -19.4949   26.4342 C   0  0  0  0  0  0  0  0  0  0  0  0
   10.6918  -19.3886   27.7035 C   0  0  0  0  0  0  0  0  0  0  0  0
   10.8218  -20.5676   28.5273 N   0  0  0  0  0  0  0  0  0  0  0  0
   13.1904  -16.9101   22.5714 C   0  0  0  0  0  0  0  0  0  0  0  0
   12.9626  -17.0850   21.2188 O   0  0  0  0  0  0  0  0  0  0  0  0
   14.3470  -16.6480   22.9561 O   0  0  0  0  0  0  0  0  0  0  0  0
  2  1  1  0
  3  2  1  0
  3  4  1  6
  5  3  1  0
  5  7  1  0
  5  6  1  1
  7  8  2  0
  9  7  1  0
  9 13  1  0
 10 11  1  0
 10  9  1  0
 11 12  1  0
 12 13  1  0
 13 14  1  1
 14 15  2  0
 16 14  1  0
 17 16  1  0
 17 23  1  0
 17 18  1  6
 19 18  1  0
 20 19  1  0
 21 20  1  0
 22 21  1  0
 23 24  1  0
 25 23  2  0
M  END
$$$$
