IPK.pdb
     RDKit          3D

 25 25  0  0  1  0  0  0  0  0999 V2000
    6.8789  -11.7121   27.4884 C   0  0  0  0  0  0  0  0  0  0  0  0
    6.0107  -12.6473   26.6514 C   0  0  0  0  0  0  0  0  0  0  0  0
    6.9798  -13.6070   25.9679 C   0  0  2  0  0  0  0  0  0  0  0  0
    7.8674  -12.7748   25.0682 C   0  0  0  0  0  0  0  0  0  0  0  0
    6.1936  -14.5837   25.0747 C   0  0  2  0  0  0  0  0  0  0  0  0
    5.4268  -15.3762   26.0584 N   0  0  0  0  0  0  0  0  0  0  0  0
    7.0764  -15.5044   24.3539 C   0  0  0  0  0  0  0  0  0  0  0  0
    7.2720  -16.6555   24.8846 O   0  0  0  0  0  0  0  0  0  0  0  0
    7.7222  -15.2102   23.1188 N   0  0  0  0  0  0  0  0  0  0  0  0
    7.6765  -13.8886   22.4711 C   0  0  0  0  0  0  0  0  0  0  0  0
    7.9423  -14.1220   21.0173 C   0  0  0  0  0  0  0  0  0  0  0  0
    8.1639  -15.6058   20.8277 C   0  0  0  0  0  0  0  0  0  0  0  0
    8.5019  -16.0249   22.2618 C   0  0  1  0  0  0  0  0  0  0  0  0
    9.9654  -15.9191   22.5043 C   0  0  0  0  0  0  0  0  0  0  0  0
   10.4693  -14.7859   22.7188 O   0  0  0  0  0  0  0  0  0  0  0  0
   10.8494  -17.0260   22.5110 N   0  0  0  0  0  0  0  0  0  0  0  0
   12.0032  -17.1240   23.3981 C   0  0  1  0  0  0  0  0  0  0  0  0
   11.8213  -18.3633   24.2303 C   0  0  0  0  0  0  0  0  0  0  0  0
   12.9229  -18.6454   25.1948 C   0  0  0  0  0  0  0  0  0  0  0  0
   12.7073  -20.0129   25.8543 C   0  0  0  0  0  0  0  0  0  0  0  0
   13.8108  -20.2485   26.8600 C   0  0  0  0  0  0  0  0  0  0  0  0
   13.3484  -21.0042   28.0004 N   0  0  0  0  0  0  0  0  0  0  0  0
   13.2683  -17.0767   22.6738 C   0  0  0  0  0  0  0  0  0  0  0  0
   14.3782  -16.4944   23.2579 O   0  0  0  0  0  0  0  0  0  0  0  0
   13.3747  -17.5543   21.5270 O   0  0  0  0  0  0  0  0  0  0  0  0
  2  1  1  0
  3  2  1  0
  3  4  1  6
  5  3  1  0
  5  7  1  0
  5  6  1  1
  7  8  2  0
  9  7  1  0
  9 13  1  0
 10 11  1  0
 10  9  1  0
 11 12  1  0
 12 13  1  0
 13 14  1  1
 14 15  2  0
 16 14  1  0
 17 16  1  0
 17 23  1  0
 17 18  1  6
 19 18  1  0
 20 19  1  0
 21 20  1  0
 22 21  1  0
 23 24  1  0
 25 23  2  0
M  END
$$$$
