IPK.pdb
     RDKit          3D

 25 25  0  0  1  0  0  0  0  0999 V2000
    6.8043  -11.5269   27.4014 C   0  0  0  0  0  0  0  0  0  0  0  0
    5.9471  -12.5139   26.6141 C   0  0  0  0  0  0  0  0  0  0  0  0
    6.9255  -13.5103   25.9999 C   0  0  2  0  0  0  0  0  0  0  0  0
    7.8302  -12.7288   25.0722 C   0  0  0  0  0  0  0  0  0  0  0  0
    6.1526  -14.5326   25.1472 C   0  0  2  0  0  0  0  0  0  0  0  0
    5.4443  -15.3347   26.1664 N   0  0  0  0  0  0  0  0  0  0  0  0
    7.0495  -15.4329   24.4180 C   0  0  0  0  0  0  0  0  0  0  0  0
    7.2510  -16.5911   24.9304 O   0  0  0  0  0  0  0  0  0  0  0  0
    7.7025  -15.1117   23.1935 N   0  0  0  0  0  0  0  0  0  0  0  0
    7.7102  -13.7619   22.6049 C   0  0  0  0  0  0  0  0  0  0  0  0
    7.9605  -13.9418   21.1407 C   0  0  0  0  0  0  0  0  0  0  0  0
    8.1187  -15.4237   20.8847 C   0  0  0  0  0  0  0  0  0  0  0  0
    8.4440  -15.9197   22.2971 C   0  0  1  0  0  0  0  0  0  0  0  0
    9.9115  -15.8862   22.5359 C   0  0  0  0  0  0  0  0  0  0  0  0
   10.4682  -14.7815   22.7681 O   0  0  0  0  0  0  0  0  0  0  0  0
   10.7432  -17.0328   22.5200 N   0  0  0  0  0  0  0  0  0  0  0  0
   12.0206  -17.1054   23.2206 C   0  0  1  0  0  0  0  0  0  0  0  0
   12.0373  -18.4011   23.9837 C   0  0  0  0  0  0  0  0  0  0  0  0
   11.4805  -18.3291   25.3651 C   0  0  0  0  0  0  0  0  0  0  0  0
   11.5922  -19.6971   26.0491 C   0  0  0  0  0  0  0  0  0  0  0  0
   11.0353  -19.5885   27.4501 C   0  0  0  0  0  0  0  0  0  0  0  0
   11.0491  -20.8595   28.1355 N   0  0  0  0  0  0  0  0  0  0  0  0
   13.1580  -16.9305   22.3244 C   0  0  0  0  0  0  0  0  0  0  0  0
   12.9868  -17.0537   20.9578 O   0  0  0  0  0  0  0  0  0  0  0  0
   14.2945  -16.6695   22.7657 O   0  0  0  0  0  0  0  0  0  0  0  0
  2  1  1  0
  3  2  1  0
  3  4  1  6
  5  3  1  0
  5  7  1  0
  5  6  1  1
  7  8  2  0
  9  7  1  0
  9 13  1  0
 10 11  1  0
 10  9  1  0
 11 12  1  0
 12 13  1  0
 13 14  1  1
 14 15  2  0
 16 14  1  0
 17 16  1  0
 17 23  1  0
 17 18  1  6
 19 18  1  0
 20 19  1  0
 21 20  1  0
 22 21  1  0
 23 24  1  0
 25 23  2  0
M  END
$$$$
