IPK.pdb
     RDKit          3D

 25 25  0  0  1  0  0  0  0  0999 V2000
    7.2983  -11.9048   26.3909 C   0  0  0  0  0  0  0  0  0  0  0  0
    6.9268  -12.9557   25.3486 C   0  0  0  0  0  0  0  0  0  0  0  0
    6.4912  -14.1848   26.1403 C   0  0  2  0  0  0  0  0  0  0  0  0
    7.6977  -14.6606   26.9199 C   0  0  0  0  0  0  0  0  0  0  0  0
    6.0904  -15.3088   25.1677 C   0  0  2  0  0  0  0  0  0  0  0  0
    5.6576  -16.3875   26.0804 N   0  0  0  0  0  0  0  0  0  0  0  0
    7.2343  -15.8083   24.4007 C   0  0  0  0  0  0  0  0  0  0  0  0
    7.7857  -16.8883   24.8182 O   0  0  0  0  0  0  0  0  0  0  0  0
    7.7667  -15.1830   23.2368 N   0  0  0  0  0  0  0  0  0  0  0  0
    7.3780  -13.8358   22.7867 C   0  0  0  0  0  0  0  0  0  0  0  0
    7.6736  -13.7793   21.3211 C   0  0  0  0  0  0  0  0  0  0  0  0
    8.2616  -15.1145   20.9235 C   0  0  0  0  0  0  0  0  0  0  0  0
    8.7152  -15.6395   22.2892 C   0  0  1  0  0  0  0  0  0  0  0  0
   10.1073  -15.2036   22.5788 C   0  0  0  0  0  0  0  0  0  0  0  0
   10.2981  -14.0760   23.1045 O   0  0  0  0  0  0  0  0  0  0  0  0
   11.2562  -15.9836   22.2989 N   0  0  0  0  0  0  0  0  0  0  0  0
   12.1709  -16.4607   23.3302 C   0  0  1  0  0  0  0  0  0  0  0  0
   11.3378  -17.1217   24.3934 C   0  0  0  0  0  0  0  0  0  0  0  0
   12.1103  -17.7486   25.5042 C   0  0  0  0  0  0  0  0  0  0  0  0
   11.1535  -18.4187   26.4976 C   0  0  0  0  0  0  0  0  0  0  0  0
   11.9640  -19.0384   27.6128 C   0  0  0  0  0  0  0  0  0  0  0  0
   11.1222  -19.6135   28.6355 N   0  0  0  0  0  0  0  0  0  0  0  0
   13.2254  -17.3110   22.7893 C   0  0  0  0  0  0  0  0  0  0  0  0
   12.9341  -18.2248   21.7932 O   0  0  0  0  0  0  0  0  0  0  0  0
   14.3971  -17.2331   23.2083 O   0  0  0  0  0  0  0  0  0  0  0  0
  2  1  1  0
  3  2  1  0
  3  4  1  6
  5  3  1  0
  5  7  1  0
  5  6  1  1
  7  8  2  0
  9  7  1  0
  9 13  1  0
 10 11  1  0
 10  9  1  0
 11 12  1  0
 12 13  1  0
 13 14  1  1
 14 15  2  0
 16 14  1  0
 17 16  1  0
 17 23  1  0
 17 18  1  1
 19 18  1  0
 20 19  1  0
 21 20  1  0
 22 21  1  0
 23 24  1  0
 25 23  2  0
M  END
$$$$
