IPK.pdb
     RDKit          3D

 25 25  0  0  1  0  0  0  0  0999 V2000
    6.6621  -11.7184   27.3180 C   0  0  0  0  0  0  0  0  0  0  0  0
    5.9330  -12.8546   26.6064 C   0  0  0  0  0  0  0  0  0  0  0  0
    7.0213  -13.6817   25.9291 C   0  0  2  0  0  0  0  0  0  0  0  0
    7.7261  -12.7694   24.9489 C   0  0  0  0  0  0  0  0  0  0  0  0
    6.3747  -14.8230   25.1233 C   0  0  2  0  0  0  0  0  0  0  0  0
    5.8210  -15.6931   26.1817 N   0  0  0  0  0  0  0  0  0  0  0  0
    7.3666  -15.6041   24.3801 C   0  0  0  0  0  0  0  0  0  0  0  0
    7.8071  -16.6687   24.9432 O   0  0  0  0  0  0  0  0  0  0  0  0
    7.8664  -15.2646   23.0901 N   0  0  0  0  0  0  0  0  0  0  0  0
    7.5405  -14.0075   22.3959 C   0  0  0  0  0  0  0  0  0  0  0  0
    7.7484  -14.2653   20.9368 C   0  0  0  0  0  0  0  0  0  0  0  0
    8.2215  -15.6941   20.7900 C   0  0  0  0  0  0  0  0  0  0  0  0
    8.7227  -15.9714   22.2107 C   0  0  1  0  0  0  0  0  0  0  0  0
   10.1557  -15.5952   22.3404 C   0  0  0  0  0  0  0  0  0  0  0  0
   10.4760  -14.3792   22.2852 O   0  0  0  0  0  0  0  0  0  0  0  0
   11.2061  -16.5275   22.5252 N   0  0  0  0  0  0  0  0  0  0  0  0
   12.1231  -16.4864   23.6589 C   0  0  1  0  0  0  0  0  0  0  0  0
   11.2862  -16.4236   24.9067 C   0  0  0  0  0  0  0  0  0  0  0  0
   12.0542  -16.4325   26.1849 C   0  0  0  0  0  0  0  0  0  0  0  0
   11.0921  -16.3641   27.3770 C   0  0  0  0  0  0  0  0  0  0  0  0
   11.9004  -16.2899   28.6521 C   0  0  0  0  0  0  0  0  0  0  0  0
   11.0578  -16.1572   29.8174 N   0  0  0  0  0  0  0  0  0  0  0  0
   13.0798  -17.5873   23.6415 C   0  0  0  0  0  0  0  0  0  0  0  0
   12.7027  -18.8234   23.1498 O   0  0  0  0  0  0  0  0  0  0  0  0
   14.2434  -17.4391   24.0643 O   0  0  0  0  0  0  0  0  0  0  0  0
  2  1  1  0
  3  2  1  0
  3  4  1  6
  5  3  1  0
  5  7  1  0
  5  6  1  1
  7  8  2  0
  9  7  1  0
  9 13  1  0
 10 11  1  0
 10  9  1  0
 11 12  1  0
 12 13  1  0
 13 14  1  6
 14 15  2  0
 16 14  1  0
 17 16  1  0
 17 23  1  0
 17 18  1  1
 19 18  1  0
 20 19  1  0
 21 20  1  0
 22 21  1  0
 23 24  1  0
 25 23  2  0
M  END
$$$$
