IPK.pdb
     RDKit          3D

 25 25  0  0  1  0  0  0  0  0999 V2000
    6.7081  -12.0692   27.7305 C   0  0  0  0  0  0  0  0  0  0  0  0
    5.9142  -12.9388   26.7596 C   0  0  0  0  0  0  0  0  0  0  0  0
    6.9454  -13.8114   26.0507 C   0  0  2  0  0  0  0  0  0  0  0  0
    7.8372  -12.8847   25.2533 C   0  0  0  0  0  0  0  0  0  0  0  0
    6.2333  -14.7454   25.0557 C   0  0  2  0  0  0  0  0  0  0  0  0
    5.4779  -15.6513   25.9459 N   0  0  0  0  0  0  0  0  0  0  0  0
    7.1799  -15.5617   24.2913 C   0  0  0  0  0  0  0  0  0  0  0  0
    7.5249  -16.6847   24.8056 O   0  0  0  0  0  0  0  0  0  0  0  0
    7.7340  -15.1960   23.0310 N   0  0  0  0  0  0  0  0  0  0  0  0
    7.4661  -13.9094   22.3666 C   0  0  0  0  0  0  0  0  0  0  0  0
    7.7189  -14.1273   20.9081 C   0  0  0  0  0  0  0  0  0  0  0  0
    8.1592  -15.5632   20.7320 C   0  0  0  0  0  0  0  0  0  0  0  0
    8.6021  -15.8983   22.1596 C   0  0  1  0  0  0  0  0  0  0  0  0
   10.0390  -15.5657   22.3509 C   0  0  0  0  0  0  0  0  0  0  0  0
   10.3537  -14.4052   22.7230 O   0  0  0  0  0  0  0  0  0  0  0  0
   11.0991  -16.4812   22.1395 N   0  0  0  0  0  0  0  0  0  0  0  0
   12.1304  -16.7558   23.1340 C   0  0  1  0  0  0  0  0  0  0  0  0
   11.4340  -16.9775   24.4483 C   0  0  0  0  0  0  0  0  0  0  0  0
   11.6807  -18.3059   25.0791 C   0  0  0  0  0  0  0  0  0  0  0  0
   11.0377  -18.3551   26.4704 C   0  0  0  0  0  0  0  0  0  0  0  0
   11.4135  -19.6595   27.1352 C   0  0  0  0  0  0  0  0  0  0  0  0
   11.1434  -19.6388   28.5537 N   0  0  0  0  0  0  0  0  0  0  0  0
   13.0096  -17.8497   22.7370 C   0  0  0  0  0  0  0  0  0  0  0  0
   14.3683  -17.7679   22.9805 O   0  0  0  0  0  0  0  0  0  0  0  0
   12.5607  -18.8690   22.1768 O   0  0  0  0  0  0  0  0  0  0  0  0
  2  1  1  0
  3  2  1  0
  3  4  1  6
  5  3  1  0
  5  7  1  0
  5  6  1  1
  7  8  2  0
  9  7  1  0
  9 13  1  0
 10 11  1  0
 10  9  1  0
 11 12  1  0
 12 13  1  0
 13 14  1  6
 14 15  2  0
 16 14  1  0
 17 16  1  0
 17 23  1  0
 17 18  1  1
 19 18  1  0
 20 19  1  0
 21 20  1  0
 22 21  1  0
 23 24  1  0
 25 23  2  0
M  END
$$$$
