IPK.pdb
     RDKit          3D

 25 25  0  0  1  0  0  0  0  0999 V2000
    6.7691  -11.3015   27.2039 C   0  0  0  0  0  0  0  0  0  0  0  0
    5.9487  -12.3632   26.4766 C   0  0  0  0  0  0  0  0  0  0  0  0
    6.9643  -13.3434   25.8979 C   0  0  2  0  0  0  0  0  0  0  0  0
    7.8430  -12.5611   24.9462 C   0  0  0  0  0  0  0  0  0  0  0  0
    6.2314  -14.4209   25.0784 C   0  0  2  0  0  0  0  0  0  0  0  0
    5.5103  -15.1839   26.1185 N   0  0  0  0  0  0  0  0  0  0  0  0
    7.1621  -15.3400   24.4184 C   0  0  0  0  0  0  0  0  0  0  0  0
    7.3510  -16.4771   24.9805 O   0  0  0  0  0  0  0  0  0  0  0  0
    7.8607  -15.0584   23.2093 N   0  0  0  0  0  0  0  0  0  0  0  0
    7.8334  -13.7470   22.5401 C   0  0  0  0  0  0  0  0  0  0  0  0
    8.1667  -13.9998   21.1035 C   0  0  0  0  0  0  0  0  0  0  0  0
    8.4089  -15.4842   20.9468 C   0  0  0  0  0  0  0  0  0  0  0  0
    8.6851  -15.8788   22.4009 C   0  0  1  0  0  0  0  0  0  0  0  0
   10.1351  -15.7563   22.7076 C   0  0  0  0  0  0  0  0  0  0  0  0
   10.5913  -14.6408   23.0704 O   0  0  0  0  0  0  0  0  0  0  0  0
   11.0572  -16.8281   22.6181 N   0  0  0  0  0  0  0  0  0  0  0  0
   11.9793  -17.1828   23.6914 C   0  0  1  0  0  0  0  0  0  0  0  0
   11.3271  -18.2724   24.4970 C   0  0  0  0  0  0  0  0  0  0  0  0
   12.1550  -18.8180   25.6107 C   0  0  0  0  0  0  0  0  0  0  0  0
   11.3940  -19.9365   26.3327 C   0  0  0  0  0  0  0  0  0  0  0  0
   12.1714  -20.3381   27.5652 C   0  0  0  0  0  0  0  0  0  0  0  0
   11.3867  -21.1653   28.4515 N   0  0  0  0  0  0  0  0  0  0  0  0
   13.3067  -17.5267   23.1942 C   0  0  0  0  0  0  0  0  0  0  0  0
   13.4477  -18.1227   21.9545 O   0  0  0  0  0  0  0  0  0  0  0  0
   14.3295  -17.2936   23.8679 O   0  0  0  0  0  0  0  0  0  0  0  0
  2  1  1  0
  3  2  1  0
  3  4  1  6
  5  3  1  0
  5  7  1  0
  5  6  1  1
  7  8  2  0
  9  7  1  0
  9 13  1  0
 10 11  1  0
 10  9  1  0
 11 12  1  0
 12 13  1  0
 13 14  1  1
 14 15  2  0
 16 14  1  0
 17 16  1  0
 17 23  1  0
 17 18  1  6
 19 18  1  0
 20 19  1  0
 21 20  1  0
 22 21  1  0
 23 24  1  0
 25 23  2  0
M  END
$$$$
