IPK.pdb
     RDKit          3D

 25 25  0  0  1  0  0  0  0  0999 V2000
    7.0463  -12.2684   28.0474 C   0  0  0  0  0  0  0  0  0  0  0  0
    6.1750  -13.1149   27.1237 C   0  0  0  0  0  0  0  0  0  0  0  0
    7.1445  -13.9604   26.3037 C   0  0  2  0  0  0  0  0  0  0  0  0
    8.0283  -13.0019   25.5357 C   0  0  0  0  0  0  0  0  0  0  0  0
    6.3584  -14.7958   25.2771 C   0  0  2  0  0  0  0  0  0  0  0  0
    5.6118  -15.7414   26.1329 N   0  0  0  0  0  0  0  0  0  0  0  0
    7.2425  -15.5820   24.4129 C   0  0  0  0  0  0  0  0  0  0  0  0
    7.5516  -16.7593   24.8166 O   0  0  0  0  0  0  0  0  0  0  0  0
    7.7733  -15.1317   23.1701 N   0  0  0  0  0  0  0  0  0  0  0  0
    7.5942  -13.7633   22.6565 C   0  0  0  0  0  0  0  0  0  0  0  0
    7.7643  -13.8444   21.1722 C   0  0  0  0  0  0  0  0  0  0  0  0
    8.0660  -15.2853   20.8267 C   0  0  0  0  0  0  0  0  0  0  0  0
    8.5371  -15.8078   22.1874 C   0  0  1  0  0  0  0  0  0  0  0  0
   10.0048  -15.6207   22.3376 C   0  0  0  0  0  0  0  0  0  0  0  0
   10.4577  -14.4610   22.5224 O   0  0  0  0  0  0  0  0  0  0  0  0
   10.9475  -16.6769   22.2861 N   0  0  0  0  0  0  0  0  0  0  0  0
   11.9918  -16.8677   23.2867 C   0  0  1  0  0  0  0  0  0  0  0  0
   11.5774  -18.0295   24.1469 C   0  0  0  0  0  0  0  0  0  0  0  0
   12.5100  -18.3540   25.2643 C   0  0  0  0  0  0  0  0  0  0  0  0
   11.9423  -19.5029   26.1064 C   0  0  0  0  0  0  0  0  0  0  0  0
   12.9168  -19.8208   27.2172 C   0  0  0  0  0  0  0  0  0  0  0  0
   12.2499  -19.9927   28.4865 N   0  0  0  0  0  0  0  0  0  0  0  0
   13.3147  -17.0139   22.6901 C   0  0  0  0  0  0  0  0  0  0  0  0
   13.4377  -17.3691   21.3594 O   0  0  0  0  0  0  0  0  0  0  0  0
   14.3498  -16.8240   23.3587 O   0  0  0  0  0  0  0  0  0  0  0  0
  2  1  1  0
  3  2  1  0
  3  4  1  6
  5  3  1  0
  5  7  1  0
  5  6  1  1
  7  8  2  0
  9  7  1  0
  9 13  1  0
 10 11  1  0
 10  9  1  0
 11 12  1  0
 12 13  1  0
 13 14  1  1
 14 15  2  0
 16 14  1  0
 17 16  1  0
 17 23  1  0
 17 18  1  6
 19 18  1  0
 20 19  1  0
 21 20  1  0
 22 21  1  0
 23 24  1  0
 25 23  2  0
M  END
$$$$
