IPK.pdb
     RDKit          3D

 25 25  0  0  1  0  0  0  0  0999 V2000
    6.8563  -11.1957   27.3835 C   0  0  0  0  0  0  0  0  0  0  0  0
    5.9728  -12.1543   26.5901 C   0  0  0  0  0  0  0  0  0  0  0  0
    6.9186  -13.2014   26.0101 C   0  0  2  0  0  0  0  0  0  0  0  0
    7.9112  -12.4664   25.1358 C   0  0  0  0  0  0  0  0  0  0  0  0
    6.1280  -14.1673   25.1091 C   0  0  2  0  0  0  0  0  0  0  0  0
    5.2900  -14.9023   26.0794 N   0  0  0  0  0  0  0  0  0  0  0  0
    6.9991  -15.1416   24.4470 C   0  0  0  0  0  0  0  0  0  0  0  0
    7.1313  -16.2829   25.0167 O   0  0  0  0  0  0  0  0  0  0  0  0
    7.6983  -14.9087   23.2280 N   0  0  0  0  0  0  0  0  0  0  0  0
    7.8036  -13.5858   22.5900 C   0  0  0  0  0  0  0  0  0  0  0  0
    8.0752  -13.8371   21.1403 C   0  0  0  0  0  0  0  0  0  0  0  0
    8.1462  -15.3347   20.9435 C   0  0  0  0  0  0  0  0  0  0  0  0
    8.4079  -15.7948   22.3810 C   0  0  1  0  0  0  0  0  0  0  0  0
    9.8689  -15.8426   22.6549 C   0  0  0  0  0  0  0  0  0  0  0  0
   10.4747  -14.7742   22.9299 O   0  0  0  0  0  0  0  0  0  0  0  0
   10.6418  -17.0294   22.6273 N   0  0  0  0  0  0  0  0  0  0  0  0
   11.7922  -17.2563   23.4952 C   0  0  1  0  0  0  0  0  0  0  0  0
   11.7160  -18.6802   23.9727 C   0  0  0  0  0  0  0  0  0  0  0  0
   12.8378  -19.1129   24.8547 C   0  0  0  0  0  0  0  0  0  0  0  0
   12.7017  -20.6040   25.1856 C   0  0  0  0  0  0  0  0  0  0  0  0
   13.8533  -21.0131   26.0750 C   0  0  0  0  0  0  0  0  0  0  0  0
   13.8042  -22.4172   26.4088 N   0  0  0  0  0  0  0  0  0  0  0  0
   13.0539  -16.9147   22.8481 C   0  0  0  0  0  0  0  0  0  0  0  0
   13.1163  -16.8003   21.4715 O   0  0  0  0  0  0  0  0  0  0  0  0
   14.0901  -16.7210   23.5140 O   0  0  0  0  0  0  0  0  0  0  0  0
  2  1  1  0
  3  2  1  0
  3  4  1  6
  5  3  1  0
  5  7  1  0
  5  6  1  1
  7  8  2  0
  9  7  1  0
  9 13  1  0
 10 11  1  0
 10  9  1  0
 11 12  1  0
 12 13  1  0
 13 14  1  1
 14 15  2  0
 16 14  1  0
 17 16  1  0
 17 23  1  0
 17 18  1  6
 19 18  1  0
 20 19  1  0
 21 20  1  0
 22 21  1  0
 23 24  1  0
 25 23  2  0
M  END
$$$$
