IPK.pdb
     RDKit          3D

 25 25  0  0  1  0  0  0  0  0999 V2000
    6.8903  -11.4498   27.6211 C   0  0  0  0  0  0  0  0  0  0  0  0
    6.0133  -12.3177   26.7229 C   0  0  0  0  0  0  0  0  0  0  0  0
    6.9494  -13.3565   26.1131 C   0  0  2  0  0  0  0  0  0  0  0  0
    7.9609  -12.6046   25.2758 C   0  0  0  0  0  0  0  0  0  0  0  0
    6.1535  -14.2766   25.1698 C   0  0  2  0  0  0  0  0  0  0  0  0
    5.2569  -14.9953   26.0991 N   0  0  0  0  0  0  0  0  0  0  0  0
    7.0090  -15.2722   24.5190 C   0  0  0  0  0  0  0  0  0  0  0  0
    7.0881  -16.4235   25.0783 O   0  0  0  0  0  0  0  0  0  0  0  0
    7.7477  -15.0493   23.3217 N   0  0  0  0  0  0  0  0  0  0  0  0
    7.8453  -13.7386   22.6575 C   0  0  0  0  0  0  0  0  0  0  0  0
    8.1769  -14.0154   21.2250 C   0  0  0  0  0  0  0  0  0  0  0  0
    8.2910  -15.5149   21.0658 C   0  0  0  0  0  0  0  0  0  0  0  0
    8.5096  -15.9362   22.5223 C   0  0  1  0  0  0  0  0  0  0  0  0
    9.9600  -15.9417   22.8510 C   0  0  0  0  0  0  0  0  0  0  0  0
   10.5584  -14.8439   22.9955 O   0  0  0  0  0  0  0  0  0  0  0  0
   10.7306  -17.1189   23.0159 N   0  0  0  0  0  0  0  0  0  0  0  0
   12.0721  -17.1241   23.5886 C   0  0  1  0  0  0  0  0  0  0  0  0
   12.2250  -18.4099   24.3534 C   0  0  0  0  0  0  0  0  0  0  0  0
   11.3147  -18.5616   25.5247 C   0  0  0  0  0  0  0  0  0  0  0  0
   11.6151  -19.8746   26.2577 C   0  0  0  0  0  0  0  0  0  0  0  0
   10.6155  -20.0471   27.3782 C   0  0  0  0  0  0  0  0  0  0  0  0
   10.8128  -21.2879   28.0903 N   0  0  0  0  0  0  0  0  0  0  0  0
   13.1072  -16.9049   22.5846 C   0  0  0  0  0  0  0  0  0  0  0  0
   14.3637  -16.4746   22.9694 O   0  0  0  0  0  0  0  0  0  0  0  0
   12.8840  -17.0984   21.3733 O   0  0  0  0  0  0  0  0  0  0  0  0
  2  1  1  0
  3  2  1  0
  3  4  1  6
  5  3  1  0
  5  7  1  0
  5  6  1  1
  7  8  2  0
  9  7  1  0
  9 13  1  0
 10 11  1  0
 10  9  1  0
 11 12  1  0
 12 13  1  0
 13 14  1  1
 14 15  2  0
 16 14  1  0
 17 16  1  0
 17 23  1  0
 17 18  1  6
 19 18  1  0
 20 19  1  0
 21 20  1  0
 22 21  1  0
 23 24  1  0
 25 23  2  0
M  END
$$$$
