IPK.pdb
     RDKit          3D

 25 25  0  0  1  0  0  0  0  0999 V2000
    6.7318  -11.6839   27.4221 C   0  0  0  0  0  0  0  0  0  0  0  0
    5.9336  -12.7005   26.6108 C   0  0  0  0  0  0  0  0  0  0  0  0
    6.9701  -13.5866   25.9270 C   0  0  2  0  0  0  0  0  0  0  0  0
    7.7836  -12.6944   25.0148 C   0  0  0  0  0  0  0  0  0  0  0  0
    6.2568  -14.6287   25.0466 C   0  0  2  0  0  0  0  0  0  0  0  0
    5.5487  -15.4620   26.0407 N   0  0  0  0  0  0  0  0  0  0  0  0
    7.2040  -15.4925   24.3372 C   0  0  0  0  0  0  0  0  0  0  0  0
    7.4970  -16.6109   24.8920 O   0  0  0  0  0  0  0  0  0  0  0  0
    7.8119  -15.1769   23.0882 N   0  0  0  0  0  0  0  0  0  0  0  0
    7.6623  -13.8754   22.4159 C   0  0  0  0  0  0  0  0  0  0  0  0
    7.9271  -14.1181   20.9635 C   0  0  0  0  0  0  0  0  0  0  0  0
    8.2541  -15.5853   20.7994 C   0  0  0  0  0  0  0  0  0  0  0  0
    8.6387  -15.9498   22.2367 C   0  0  1  0  0  0  0  0  0  0  0  0
   10.0934  -15.7331   22.4576 C   0  0  0  0  0  0  0  0  0  0  0  0
   10.5097  -14.5682   22.6897 O   0  0  0  0  0  0  0  0  0  0  0  0
   11.0623  -16.7659   22.4245 N   0  0  0  0  0  0  0  0  0  0  0  0
   12.0381  -16.9829   23.4870 C   0  0  1  0  0  0  0  0  0  0  0  0
   11.4015  -17.8982   24.4962 C   0  0  0  0  0  0  0  0  0  0  0  0
   12.2179  -18.1607   25.7161 C   0  0  0  0  0  0  0  0  0  0  0  0
   11.4201  -19.0143   26.7092 C   0  0  0  0  0  0  0  0  0  0  0  0
   12.1830  -19.0872   28.0121 C   0  0  0  0  0  0  0  0  0  0  0  0
   11.4560  -19.8199   29.0220 N   0  0  0  0  0  0  0  0  0  0  0  0
   13.3187  -17.4608   22.9779 C   0  0  0  0  0  0  0  0  0  0  0  0
   14.4926  -17.1060   23.6168 O   0  0  0  0  0  0  0  0  0  0  0  0
   13.3815  -18.1900   21.9686 O   0  0  0  0  0  0  0  0  0  0  0  0
  2  1  1  0
  3  2  1  0
  3  4  1  6
  5  3  1  0
  5  7  1  0
  5  6  1  1
  7  8  2  0
  9  7  1  0
  9 13  1  0
 10 11  1  0
 10  9  1  0
 11 12  1  0
 12 13  1  0
 13 14  1  1
 14 15  2  0
 16 14  1  0
 17 16  1  0
 17 23  1  0
 17 18  1  1
 19 18  1  0
 20 19  1  0
 21 20  1  0
 22 21  1  0
 23 24  1  0
 25 23  2  0
M  END
$$$$
