ALC.pdb
     RDKit          3D

 20 19  0  0  1  0  0  0  0  0999 V2000
   27.2393  -19.0714  -15.8012 C   0  0  0  0  0  0  0  0  0  0  0  0
   27.7699  -20.0861  -14.7852 C   0  0  2  0  0  0  0  0  0  0  0  0
   28.4112  -21.1389  -15.5478 N   0  0  0  0  0  0  0  0  0  0  0  0
   26.5893  -20.6211  -14.0634 C   0  0  0  0  0  0  0  0  0  0  0  0
   25.9561  -21.5904  -14.5605 O   0  0  0  0  0  0  0  0  0  0  0  0
   26.2325  -19.9711   -8.5310 C   0  0  0  0  0  0  0  0  0  0  0  0
   26.3018  -20.5280   -9.9418 C   0  0  1  0  0  0  0  0  0  0  0  0
   26.4893  -22.0662   -9.8601 C   0  0  0  0  0  0  0  0  0  0  0  0
   25.0331  -20.2312  -10.6584 C   0  0  0  0  0  0  0  0  0  0  0  0
   25.0362  -20.7012  -12.0752 C   0  0  2  0  0  0  0  0  0  0  0  0
   26.1319  -20.0911  -12.8282 N   0  0  0  0  0  0  0  0  0  0  0  0
   23.7455  -20.4900  -12.7172 C   0  0  0  0  0  0  0  0  0  0  0  0
   23.4281  -19.3801  -13.1981 O   0  0  0  0  0  0  0  0  0  0  0  0
   22.7532  -21.5174  -12.8477 N   0  0  0  0  0  0  0  0  0  0  0  0
   21.5160  -21.2481  -13.5322 C   0  0  1  0  0  0  0  0  0  0  0  0
   21.0543  -22.4434  -14.3450 C   0  0  0  0  0  0  0  0  0  0  0  0
   20.3252  -21.9170  -15.9082 S   0  0  0  0  0  0  0  0  0  0  0  0
   20.4658  -20.8093  -12.5786 C   0  0  0  0  0  0  0  0  0  0  0  0
   20.5931  -20.9123  -11.3352 O   0  0  0  0  0  0  0  0  0  0  0  0
   19.3038  -20.2663  -13.0914 O   0  0  0  0  0  0  0  0  0  0  0  0
  2  1  1  6
  2  4  1  0
  3  2  1  0
  4  5  2  0
  7  6  1  1
  7  9  1  0
  8  7  1  0
 10  9  1  1
 10 12  1  0
 11 10  1  0
 11  4  1  0
 12 13  2  0
 12 14  1  0
 14 15  1  0
 15 18  1  0
 15 16  1  1
 17 16  1  0
 18 19  2  0
 18 20  1  0
M  END
$$$$
