ALC.pdb
     RDKit          3D

 20 19  0  0  1  0  0  0  0  0999 V2000
   18.6860  -10.2351  -18.7132 C   0  0  0  0  0  0  0  0  0  0  0  0
   19.8774  -11.0503  -18.2040 C   0  0  2  0  0  0  0  0  0  0  0  0
   19.3471  -12.3227  -17.7557 N   0  0  0  0  0  0  0  0  0  0  0  0
   20.4473  -10.2992  -17.0585 C   0  0  0  0  0  0  0  0  0  0  0  0
   19.7446  -10.1331  -16.0259 O   0  0  0  0  0  0  0  0  0  0  0  0
   25.5786  -10.6779  -15.1979 C   0  0  0  0  0  0  0  0  0  0  0  0
   24.0724  -10.5359  -15.3260 C   0  0  1  0  0  0  0  0  0  0  0  0
   23.4299  -10.7835  -13.9354 C   0  0  0  0  0  0  0  0  0  0  0  0
   23.7374   -9.1591  -15.7770 C   0  0  0  0  0  0  0  0  0  0  0  0
   22.2721   -8.9430  -15.9621 C   0  0  2  0  0  0  0  0  0  0  0  0
   21.7575   -9.7525  -17.0666 N   0  0  0  0  0  0  0  0  0  0  0  0
   21.9500   -7.5310  -16.1209 C   0  0  0  0  0  0  0  0  0  0  0  0
   22.1093   -6.9426  -17.2128 O   0  0  0  0  0  0  0  0  0  0  0  0
   21.4343   -6.7165  -15.0588 N   0  0  0  0  0  0  0  0  0  0  0  0
   21.1202   -5.3317  -15.2938 C   0  0  1  0  0  0  0  0  0  0  0  0
   19.6711   -5.0229  -14.9661 C   0  0  0  0  0  0  0  0  0  0  0  0
   19.3702   -3.2450  -14.9870 S   0  0  0  0  0  0  0  0  0  0  0  0
   22.0419   -4.4427  -14.5421 C   0  0  0  0  0  0  0  0  0  0  0  0
   22.5087   -4.7449  -13.4179 O   0  0  0  0  0  0  0  0  0  0  0  0
   22.3941   -3.2349  -15.1123 O   0  0  0  0  0  0  0  0  0  0  0  0
  2  1  1  1
  2  4  1  0
  3  2  1  0
  4  5  2  0
  7  6  1  1
  7  9  1  0
  8  7  1  0
 10  9  1  6
 10 12  1  0
 11 10  1  0
 11  4  1  0
 12 13  2  0
 12 14  1  0
 14 15  1  0
 15 18  1  0
 15 16  1  1
 17 16  1  0
 18 19  2  0
 18 20  1  0
M  END
$$$$
