ALC.pdb
     RDKit          3D

 20 19  0  0  1  0  0  0  0  0999 V2000
   18.8755  -12.8737  -18.5575 C   0  0  0  0  0  0  0  0  0  0  0  0
   19.3042  -11.5047  -19.0917 C   0  0  2  0  0  0  0  0  0  0  0  0
   20.5363  -11.7141  -19.8260 N   0  0  0  0  0  0  0  0  0  0  0  0
   19.5517  -10.6455  -17.9078 C   0  0  0  0  0  0  0  0  0  0  0  0
   18.5977  -10.3954  -17.1237 O   0  0  0  0  0  0  0  0  0  0  0  0
   24.1523  -11.0209  -14.9971 C   0  0  0  0  0  0  0  0  0  0  0  0
   22.6859  -10.8588  -15.3558 C   0  0  1  0  0  0  0  0  0  0  0  0
   21.8366  -11.0429  -14.0701 C   0  0  0  0  0  0  0  0  0  0  0  0
   22.4530   -9.4947  -15.8999 C   0  0  0  0  0  0  0  0  0  0  0  0
   21.0623   -9.2938  -16.4036 C   0  0  2  0  0  0  0  0  0  0  0  0
   20.8217  -10.0849  -17.6103 N   0  0  0  0  0  0  0  0  0  0  0  0
   20.7585   -7.8830  -16.6034 C   0  0  0  0  0  0  0  0  0  0  0  0
   21.1844   -7.2569  -17.5986 O   0  0  0  0  0  0  0  0  0  0  0  0
   19.9619   -7.1123  -15.6930 N   0  0  0  0  0  0  0  0  0  0  0  0
   19.7212   -5.7155  -15.9435 C   0  0  1  0  0  0  0  0  0  0  0  0
   18.2450   -5.4296  -16.1476 C   0  0  0  0  0  0  0  0  0  0  0  0
   17.6026   -6.3383  -17.5666 S   0  0  0  0  0  0  0  0  0  0  0  0
   20.2855   -4.8757  -14.8566 C   0  0  0  0  0  0  0  0  0  0  0  0
   20.7499   -5.3603  -13.7972 O   0  0  0  0  0  0  0  0  0  0  0  0
   20.2951   -3.5052  -15.0283 O   0  0  0  0  0  0  0  0  0  0  0  0
  2  1  1  1
  2  4  1  0
  3  2  1  0
  4  5  2  0
  7  6  1  1
  7  9  1  0
  8  7  1  0
 10  9  1  6
 10 12  1  0
 11 10  1  0
 11  4  1  0
 12 13  2  0
 12 14  1  0
 14 15  1  0
 15 18  1  0
 15 16  1  1
 17 16  1  0
 18 19  2  0
 18 20  1  0
M  END
$$$$
