ALC.pdb
     RDKit          3D

 20 19  0  0  1  0  0  0  0  0999 V2000
   23.1262  -39.3431   -5.7008 C   0  0  0  0  0  0  0  0  0  0  0  0
   23.7277  -38.2592   -6.5989 C   0  0  2  0  0  0  0  0  0  0  0  0
   24.4306  -38.9469   -7.6638 N   0  0  0  0  0  0  0  0  0  0  0  0
   24.6850  -37.4963   -5.7607 C   0  0  0  0  0  0  0  0  0  0  0  0
   25.8552  -37.9390   -5.6119 O   0  0  0  0  0  0  0  0  0  0  0  0
   27.3146  -33.2927   -4.0936 C   0  0  0  0  0  0  0  0  0  0  0  0
   25.9368  -33.2858   -3.4555 C   0  0  1  0  0  0  0  0  0  0  0  0
   25.4315  -31.8205   -3.3803 C   0  0  0  0  0  0  0  0  0  0  0  0
   24.9967  -34.0810   -4.2891 C   0  0  0  0  0  0  0  0  0  0  0  0
   25.3044  -35.5417   -4.2885 C   0  0  2  0  0  0  0  0  0  0  0  0
   24.3463  -36.2802   -5.1110 N   0  0  0  0  0  0  0  0  0  0  0  0
   25.3910  -36.0750   -2.9355 C   0  0  0  0  0  0  0  0  0  0  0  0
   24.3701  -36.4249   -2.3038 O   0  0  0  0  0  0  0  0  0  0  0  0
   26.6299  -36.2390   -2.2315 N   0  0  0  0  0  0  0  0  0  0  0  0
   26.6420  -36.8001   -0.9060 C   0  0  1  0  0  0  0  0  0  0  0  0
   26.4986  -38.3104   -0.9360 C   0  0  0  0  0  0  0  0  0  0  0  0
   26.9032  -39.0284    0.6680 S   0  0  0  0  0  0  0  0  0  0  0  0
   27.8635  -36.3913   -0.1671 C   0  0  0  0  0  0  0  0  0  0  0  0
   28.7699  -35.6976   -0.6868 O   0  0  0  0  0  0  0  0  0  0  0  0
   27.9983  -36.7965    1.1465 O   0  0  0  0  0  0  0  0  0  0  0  0
  2  1  1  1
  2  4  1  0
  3  2  1  0
  4  5  2  0
  7  6  1  6
  7  9  1  0
  8  7  1  0
 10  9  1  1
 10 12  1  0
 11 10  1  0
 11  4  1  0
 12 13  2  0
 12 14  1  0
 14 15  1  0
 15 18  1  0
 15 16  1  6
 17 16  1  0
 18 19  2  0
 18 20  1  0
M  END
$$$$
