ALC.pdb
     RDKit          3D

 20 19  0  0  1  0  0  0  0  0999 V2000
   18.5464  -10.0864  -13.7864 C   0  0  0  0  0  0  0  0  0  0  0  0
   17.5309  -10.6487  -12.7885 C   0  0  2  0  0  0  0  0  0  0  0  0
   16.6927  -11.5724  -13.5268 N   0  0  0  0  0  0  0  0  0  0  0  0
   16.7271   -9.4983  -12.3071 C   0  0  0  0  0  0  0  0  0  0  0  0
   15.8767   -8.9807  -13.0794 O   0  0  0  0  0  0  0  0  0  0  0  0
   13.6191   -7.1583   -8.8908 C   0  0  0  0  0  0  0  0  0  0  0  0
   15.0419   -6.7844   -8.5149 C   0  0  1  0  0  0  0  0  0  0  0  0
   15.1532   -6.7462   -6.9675 C   0  0  0  0  0  0  0  0  0  0  0  0
   15.9830   -7.8069   -9.0439 C   0  0  0  0  0  0  0  0  0  0  0  0
   16.0370   -7.8383  -10.5353 C   0  0  2  0  0  0  0  0  0  0  0  0
   16.8687   -8.9453  -11.0072 N   0  0  0  0  0  0  0  0  0  0  0  0
   16.4623   -6.5589  -11.0875 C   0  0  0  0  0  0  0  0  0  0  0  0
   17.6395   -6.1541  -10.9686 O   0  0  0  0  0  0  0  0  0  0  0  0
   15.5829   -5.6767  -11.7986 N   0  0  0  0  0  0  0  0  0  0  0  0
   16.0793   -4.4385  -12.3392 C   0  0  1  0  0  0  0  0  0  0  0  0
   15.9489   -4.3952  -13.8504 C   0  0  0  0  0  0  0  0  0  0  0  0
   16.4504   -2.7874  -14.4949 S   0  0  0  0  0  0  0  0  0  0  0  0
   15.4054   -3.2752  -11.7086 C   0  0  0  0  0  0  0  0  0  0  0  0
   14.1911   -3.2833  -11.3950 O   0  0  0  0  0  0  0  0  0  0  0  0
   16.1548   -2.1417  -11.4610 O   0  0  0  0  0  0  0  0  0  0  0  0
  2  1  1  6
  2  4  1  0
  3  2  1  0
  4  5  2  0
  7  6  1  1
  7  9  1  0
  8  7  1  0
 10  9  1  1
 10 12  1  0
 11 10  1  0
 11  4  1  0
 12 13  2  0
 12 14  1  0
 14 15  1  0
 15 18  1  0
 15 16  1  6
 17 16  1  0
 18 19  2  0
 18 20  1  0
M  END
$$$$
