ALC.pdb
     RDKit          3D

 20 19  0  0  1  0  0  0  0  0999 V2000
   22.6279   -8.9873  -21.9151 C   0  0  0  0  0  0  0  0  0  0  0  0
   23.0195  -10.1212  -20.9641 C   0  0  2  0  0  0  0  0  0  0  0  0
   22.4396  -11.3344  -21.5052 N   0  0  0  0  0  0  0  0  0  0  0  0
   22.4098   -9.8025  -19.6497 C   0  0  0  0  0  0  0  0  0  0  0  0
   21.1598   -9.6642  -19.5728 O   0  0  0  0  0  0  0  0  0  0  0  0
   21.4402  -10.5005  -14.6830 C   0  0  0  0  0  0  0  0  0  0  0  0
   22.7453   -9.7253  -14.7151 C   0  0  1  0  0  0  0  0  0  0  0  0
   23.6906  -10.2986  -13.6262 C   0  0  0  0  0  0  0  0  0  0  0  0
   23.3872   -9.8836  -16.0471 C   0  0  0  0  0  0  0  0  0  0  0  0
   22.5485   -9.3649  -17.1676 C   0  0  2  0  0  0  0  0  0  0  0  0
   23.1709   -9.6436  -18.4617 N   0  0  0  0  0  0  0  0  0  0  0  0
   22.2391   -7.9510  -17.0012 C   0  0  0  0  0  0  0  0  0  0  0  0
   22.9287   -7.0620  -17.5471 O   0  0  0  0  0  0  0  0  0  0  0  0
   21.1402   -7.4726  -16.2132 N   0  0  0  0  0  0  0  0  0  0  0  0
   20.7499   -6.0887  -16.2776 C   0  0  1  0  0  0  0  0  0  0  0  0
   20.4931   -5.6453  -17.7059 C   0  0  0  0  0  0  0  0  0  0  0  0
   21.8699   -4.6644  -18.3338 S   0  0  0  0  0  0  0  0  0  0  0  0
   19.5701   -5.8286  -15.4143 C   0  0  0  0  0  0  0  0  0  0  0  0
   18.6634   -6.6757  -15.2320 O   0  0  0  0  0  0  0  0  0  0  0  0
   19.4757   -4.6000  -14.7902 O   0  0  0  0  0  0  0  0  0  0  0  0
  2  1  1  6
  2  4  1  0
  3  2  1  0
  4  5  2  0
  7  6  1  6
  7  9  1  0
  8  7  1  0
 10  9  1  1
 10 12  1  0
 11 10  1  0
 11  4  1  0
 12 13  2  0
 12 14  1  0
 14 15  1  0
 15 18  1  0
 15 16  1  6
 17 16  1  0
 18 19  2  0
 18 20  1  0
M  END
$$$$
