ALC.pdb
     RDKit          3D

 20 19  0  0  1  0  0  0  0  0999 V2000
   17.7219   -9.1214  -19.3755 C   0  0  0  0  0  0  0  0  0  0  0  0
   18.6143   -9.7163  -18.2833 C   0  0  2  0  0  0  0  0  0  0  0  0
   18.0245  -10.9878  -17.9137 N   0  0  0  0  0  0  0  0  0  0  0  0
   18.5667   -8.7756  -17.1370 C   0  0  0  0  0  0  0  0  0  0  0  0
   17.5281   -8.7311  -16.4251 O   0  0  0  0  0  0  0  0  0  0  0  0
   20.2798   -6.4589  -12.7707 C   0  0  0  0  0  0  0  0  0  0  0  0
   20.9129   -5.7685  -13.9657 C   0  0  1  0  0  0  0  0  0  0  0  0
   22.3712   -5.3829  -13.6016 C   0  0  0  0  0  0  0  0  0  0  0  0
   20.9322   -6.6977  -15.1265 C   0  0  0  0  0  0  0  0  0  0  0  0
   19.5723   -6.9830  -15.6719 C   0  0  2  0  0  0  0  0  0  0  0  0
   19.6430   -7.9141  -16.7979 N   0  0  0  0  0  0  0  0  0  0  0  0
   18.8607   -5.7592  -16.0163 C   0  0  0  0  0  0  0  0  0  0  0  0
   19.1139   -5.1289  -17.0662 O   0  0  0  0  0  0  0  0  0  0  0  0
   17.8320   -5.1887  -15.1955 N   0  0  0  0  0  0  0  0  0  0  0  0
   17.1492   -3.9931  -15.6149 C   0  0  1  0  0  0  0  0  0  0  0  0
   15.6453   -4.1917  -15.6540 C   0  0  0  0  0  0  0  0  0  0  0  0
   14.7933   -2.6195  -15.8877 S   0  0  0  0  0  0  0  0  0  0  0  0
   17.5163   -2.8412  -14.7527 C   0  0  0  0  0  0  0  0  0  0  0  0
   17.5025   -2.9005  -13.5001 O   0  0  0  0  0  0  0  0  0  0  0  0
   17.8872   -1.6597  -15.3645 O   0  0  0  0  0  0  0  0  0  0  0  0
  2  1  1  6
  2  4  1  0
  3  2  1  0
  4  5  2  0
  7  6  1  1
  7  9  1  0
  8  7  1  0
 10  9  1  6
 10 12  1  0
 11 10  1  0
 11  4  1  0
 12 13  2  0
 12 14  1  0
 14 15  1  0
 15 18  1  0
 15 16  1  1
 17 16  1  0
 18 19  2  0
 18 20  1  0
M  END
$$$$
