ALC.pdb
     RDKit          3D

 20 19  0  0  1  0  0  0  0  0999 V2000
   16.3696  -23.6597  -14.5973 C   0  0  0  0  0  0  0  0  0  0  0  0
   17.6332  -22.8150  -14.7797 C   0  0  2  0  0  0  0  0  0  0  0  0
   18.3553  -23.3866  -15.8990 N   0  0  0  0  0  0  0  0  0  0  0  0
   18.4231  -22.9580  -13.5320 C   0  0  0  0  0  0  0  0  0  0  0  0
   18.9549  -24.0696  -13.2690 O   0  0  0  0  0  0  0  0  0  0  0  0
   21.9770  -21.7568   -9.8990 C   0  0  0  0  0  0  0  0  0  0  0  0
   20.7655  -20.8664   -9.6872 C   0  0  1  0  0  0  0  0  0  0  0  0
   21.2540  -19.4527   -9.2739 C   0  0  0  0  0  0  0  0  0  0  0  0
   19.9950  -20.7621  -10.9548 C   0  0  0  0  0  0  0  0  0  0  0  0
   19.3881  -22.0578  -11.3804 C   0  0  2  0  0  0  0  0  0  0  0  0
   18.6124  -21.8953  -12.6099 N   0  0  0  0  0  0  0  0  0  0  0  0
   18.6029  -22.6631  -10.3128 C   0  0  0  0  0  0  0  0  0  0  0  0
   17.5506  -22.1331   -9.8937 O   0  0  0  0  0  0  0  0  0  0  0  0
   18.9656  -23.8919   -9.6680 N   0  0  0  0  0  0  0  0  0  0  0  0
   18.1688  -24.4053   -8.5848 C   0  0  1  0  0  0  0  0  0  0  0  0
   17.7175  -25.8300   -8.8482 C   0  0  0  0  0  0  0  0  0  0  0  0
   17.8313  -26.2281  -10.6034 S   0  0  0  0  0  0  0  0  0  0  0  0
   18.8964  -24.3025   -7.2945 C   0  0  0  0  0  0  0  0  0  0  0  0
   20.1106  -23.9965   -7.2235 O   0  0  0  0  0  0  0  0  0  0  0  0
   18.1991  -24.5561   -6.1295 O   0  0  0  0  0  0  0  0  0  0  0  0
  2  1  1  1
  2  4  1  0
  3  2  1  0
  4  5  2  0
  7  6  1  6
  7  9  1  0
  8  7  1  0
 10  9  1  1
 10 12  1  0
 11 10  1  0
 11  4  1  0
 12 13  2  0
 12 14  1  0
 14 15  1  0
 15 18  1  0
 15 16  1  6
 17 16  1  0
 18 19  2  0
 18 20  1  0
M  END
$$$$
