ALC.pdb
     RDKit          3D

 20 19  0  0  1  0  0  0  0  0999 V2000
   17.1566   -9.0985  -18.7157 C   0  0  0  0  0  0  0  0  0  0  0  0
   17.8578  -10.4022  -18.3256 C   0  0  2  0  0  0  0  0  0  0  0  0
   16.8176  -11.3262  -17.9190 N   0  0  0  0  0  0  0  0  0  0  0  0
   18.7391  -10.0827  -17.1758 C   0  0  0  0  0  0  0  0  0  0  0  0
   18.2251   -9.9270  -16.0361 O   0  0  0  0  0  0  0  0  0  0  0  0
   22.4136  -10.1625  -13.6347 C   0  0  0  0  0  0  0  0  0  0  0  0
   23.1179  -10.0114  -14.9712 C   0  0  1  0  0  0  0  0  0  0  0  0
   24.3601  -10.9413  -14.9861 C   0  0  0  0  0  0  0  0  0  0  0  0
   22.1981  -10.4129  -16.0684 C   0  0  0  0  0  0  0  0  0  0  0  0
   20.9897   -9.5424  -16.1687 C   0  0  2  0  0  0  0  0  0  0  0  0
   20.1468   -9.9421  -17.2954 N   0  0  0  0  0  0  0  0  0  0  0  0
   21.3442   -8.1303  -16.2230 C   0  0  0  0  0  0  0  0  0  0  0  0
   22.0223   -7.6620  -17.1636 O   0  0  0  0  0  0  0  0  0  0  0  0
   20.9521   -7.1808  -15.2220 N   0  0  0  0  0  0  0  0  0  0  0  0
   21.3810   -5.8099  -15.3152 C   0  0  1  0  0  0  0  0  0  0  0  0
   20.2413   -4.8930  -15.7190 C   0  0  0  0  0  0  0  0  0  0  0  0
   18.8140   -5.1258  -14.6417 S   0  0  0  0  0  0  0  0  0  0  0  0
   22.0067   -5.3614  -14.0454 C   0  0  0  0  0  0  0  0  0  0  0  0
   22.0076   -6.0623  -13.0054 O   0  0  0  0  0  0  0  0  0  0  0  0
   22.6105   -4.1194  -14.0180 O   0  0  0  0  0  0  0  0  0  0  0  0
  2  1  1  1
  2  4  1  0
  3  2  1  0
  4  5  2  0
  7  6  1  1
  7  9  1  0
  8  7  1  0
 10  9  1  6
 10 12  1  0
 11 10  1  0
 11  4  1  0
 12 13  2  0
 12 14  1  0
 14 15  1  0
 15 18  1  0
 15 16  1  1
 17 16  1  0
 18 19  2  0
 18 20  1  0
M  END
$$$$
