ALC.pdb
     RDKit          3D

 20 19  0  0  1  0  0  0  0  0999 V2000
   28.4800  -19.7778  -17.4771 C   0  0  0  0  0  0  0  0  0  0  0  0
   28.9415  -21.1973  -17.8165 C   0  0  2  0  0  0  0  0  0  0  0  0
   29.3685  -21.1738  -19.2015 N   0  0  0  0  0  0  0  0  0  0  0  0
   27.7578  -22.0777  -17.6590 C   0  0  0  0  0  0  0  0  0  0  0  0
   26.7594  -21.8996  -18.4066 O   0  0  0  0  0  0  0  0  0  0  0  0
   28.0657  -27.4278  -16.0963 C   0  0  0  0  0  0  0  0  0  0  0  0
   27.5386  -26.2296  -16.8656 C   0  0  1  0  0  0  0  0  0  0  0  0
   26.4949  -26.7244  -17.9018 C   0  0  0  0  0  0  0  0  0  0  0  0
   26.8792  -25.2841  -15.9262 C   0  0  0  0  0  0  0  0  0  0  0  0
   26.5176  -23.9827  -16.5616 C   0  0  2  0  0  0  0  0  0  0  0  0
   27.6920  -23.1214  -16.6988 N   0  0  0  0  0  0  0  0  0  0  0  0
   25.4309  -23.3192  -15.8536 C   0  0  0  0  0  0  0  0  0  0  0  0
   25.6197  -22.7384  -14.7624 O   0  0  0  0  0  0  0  0  0  0  0  0
   24.0823  -23.2789  -16.3406 N   0  0  0  0  0  0  0  0  0  0  0  0
   23.0633  -22.5854  -15.5974 C   0  0  1  0  0  0  0  0  0  0  0  0
   22.5460  -21.3748  -16.3521 C   0  0  0  0  0  0  0  0  0  0  0  0
   20.8680  -20.9622  -15.8363 S   0  0  0  0  0  0  0  0  0  0  0  0
   21.9552  -23.5034  -15.2310 C   0  0  0  0  0  0  0  0  0  0  0  0
   21.1048  -23.2231  -14.3528 O   0  0  0  0  0  0  0  0  0  0  0  0
   21.8652  -24.7141  -15.8899 O   0  0  0  0  0  0  0  0  0  0  0  0
  2  1  1  6
  2  4  1  0
  3  2  1  0
  4  5  2  0
  7  6  1  1
  7  9  1  0
  8  7  1  0
 10  9  1  1
 10 12  1  0
 11 10  1  0
 11  4  1  0
 12 13  2  0
 12 14  1  0
 14 15  1  0
 15 18  1  0
 15 16  1  6
 17 16  1  0
 18 19  2  0
 18 20  1  0
M  END
$$$$
