ALC.pdb
     RDKit          3D

 20 19  0  0  1  0  0  0  0  0999 V2000
 -144.5358  105.9452   18.0831 C   0  0  0  0  0  0  0  0  0  0  0  0
 -144.1491  104.6951   18.8773 C   0  0  2  0  0  0  0  0  0  0  0  0
 -142.8326  104.3019   18.4154 N   0  0  0  0  0  0  0  0  0  0  0  0
 -145.1459  103.6504   18.5367 C   0  0  0  0  0  0  0  0  0  0  0  0
 -144.7705  102.6328   17.8955 O   0  0  0  0  0  0  0  0  0  0  0  0
 -150.0949  106.5334   19.9079 C   0  0  0  0  0  0  0  0  0  0  0  0
 -148.6810  106.0764   19.5955 C   0  0  1  0  0  0  0  0  0  0  0  0
 -147.9076  105.9062   20.9300 C   0  0  0  0  0  0  0  0  0  0  0  0
 -148.7237  104.7685   18.8894 C   0  0  0  0  0  0  0  0  0  0  0  0
 -147.4874  104.4867   18.1018 C   0  0  2  0  0  0  0  0  0  0  0  0
 -146.5154  103.7398   18.9000 N   0  0  0  0  0  0  0  0  0  0  0  0
 -146.9160  105.7032   17.5396 C   0  0  0  0  0  0  0  0  0  0  0  0
 -147.5447  106.7841   17.5449 O   0  0  0  0  0  0  0  0  0  0  0  0
 -145.6115  105.7593   16.9459 N   0  0  0  0  0  0  0  0  0  0  0  0
 -144.9554  107.0262   16.7552 C   0  0  1  0  0  0  0  0  0  0  0  0
 -144.8928  107.8239   18.0445 C   0  0  0  0  0  0  0  0  0  0  0  0
 -143.5426  109.0184   17.9986 S   0  0  0  0  0  0  0  0  0  0  0  0
 -143.6023  106.8414   16.1720 C   0  0  0  0  0  0  0  0  0  0  0  0
 -143.2354  107.4111   15.1167 O   0  0  0  0  0  0  0  0  0  0  0  0
 -142.7180  106.0057   16.8259 O   0  0  0  0  0  0  0  0  0  0  0  0
  2  1  1  6
  2  4  1  0
  3  2  1  0
  4  5  2  0
  7  6  1  1
  7  9  1  0
  8  7  1  0
 10  9  1  1
 10 12  1  0
 11 10  1  0
 11  4  1  0
 12 13  2  0
 12 14  1  0
 14 15  1  0
 15 18  1  0
 15 16  1  1
 17 16  1  0
 18 19  2  0
 18 20  1  0
M  END
$$$$
