AVL.pdb
     RDKit          3D

 21 20  0  0  1  0  0  0  0  0999 V2000
    8.1467  -19.3874   20.6663 C   0  0  0  0  0  0  0  0  0  0  0  0
    8.5409  -18.3036   19.6533 C   0  0  2  0  0  0  0  0  0  0  0  0
    9.6385  -18.8406   18.8964 N   0  0  0  0  0  0  0  0  0  0  0  0
    8.9456  -17.0621   20.3571 C   0  0  0  0  0  0  0  0  0  0  0  0
   10.0811  -16.9405   20.8847 O   0  0  0  0  0  0  0  0  0  0  0  0
    7.8162  -13.5893   18.9387 C   0  0  0  0  0  0  0  0  0  0  0  0
    7.4790  -13.6506   20.4145 C   0  0  2  0  0  0  0  0  0  0  0  0
    7.8712  -12.3381   21.0617 C   0  0  0  0  0  0  0  0  0  0  0  0
    8.3191  -14.7292   21.0513 C   0  0  2  0  0  0  0  0  0  0  0  0
    8.0258  -15.9861   20.4353 N   0  0  0  0  0  0  0  0  0  0  0  0
    8.0410  -14.8463   22.5169 C   0  0  0  0  0  0  0  0  0  0  0  0
    6.9884  -15.3981   22.9316 O   0  0  0  0  0  0  0  0  0  0  0  0
    7.7822  -12.0343   27.2216 C   0  0  0  0  0  0  0  0  0  0  0  0
    6.9584  -13.0291   26.4176 C   0  0  1  0  0  0  0  0  0  0  0  0
    5.4973  -12.5468   26.4378 C   0  0  0  0  0  0  0  0  0  0  0  0
    7.4478  -13.1611   25.0107 C   0  0  0  0  0  0  0  0  0  0  0  0
    8.5614  -14.1240   24.8989 C   0  0  2  0  0  0  0  0  0  0  0  0
    8.9410  -14.3462   23.4944 N   0  0  0  0  0  0  0  0  0  0  0  0
    8.3850  -15.4097   25.5898 C   0  0  0  0  0  0  0  0  0  0  0  0
    7.3733  -16.1010   25.4615 O   0  0  0  0  0  0  0  0  0  0  0  0
    9.3945  -15.8614   26.4185 O   0  0  0  0  0  0  0  0  0  0  0  0
  2  1  1  1
  3  2  1  0
  4  5  2  0
  4  2  1  0
  7  6  1  6
  7  9  1  0
  8  7  1  0
  9 11  1  0
  9 10  1  6
 10  4  1  0
 11 18  1  0
 12 11  2  0
 14 15  1  6
 14 13  1  0
 16 14  1  0
 17 16  1  6
 18 17  1  0
 19 21  1  0
 19 17  1  0
 20 19  2  0
M  END
$$$$
