AVL.pdb
     RDKit          3D

 21 20  0  0  1  0  0  0  0  0999 V2000
    8.4685  -12.0932   19.5426 C   0  0  0  0  0  0  0  0  0  0  0  0
    8.5524  -13.5499   19.0659 C   0  0  2  0  0  0  0  0  0  0  0  0
    7.7491  -13.6308   17.8766 N   0  0  0  0  0  0  0  0  0  0  0  0
    8.0357  -14.4658   20.1121 C   0  0  0  0  0  0  0  0  0  0  0  0
    6.8171  -14.7700   20.1823 O   0  0  0  0  0  0  0  0  0  0  0  0
    8.9732  -17.7466   20.3663 C   0  0  0  0  0  0  0  0  0  0  0  0
    9.3310  -17.2709   21.7597 C   0  0  2  0  0  0  0  0  0  0  0  0
    8.8482  -18.2953   22.7662 C   0  0  0  0  0  0  0  0  0  0  0  0
    8.5822  -15.9908   22.0337 C   0  0  2  0  0  0  0  0  0  0  0  0
    8.9420  -15.0109   21.0561 N   0  0  0  0  0  0  0  0  0  0  0  0
    8.9068  -15.4459   23.3890 C   0  0  0  0  0  0  0  0  0  0  0  0
   10.0964  -15.1957   23.7156 O   0  0  0  0  0  0  0  0  0  0  0  0
    5.4860  -12.1246   26.2472 C   0  0  0  0  0  0  0  0  0  0  0  0
    6.7207  -12.7947   25.6631 C   0  0  1  0  0  0  0  0  0  0  0  0
    7.8925  -11.8063   25.7949 C   0  0  0  0  0  0  0  0  0  0  0  0
    7.0419  -14.0838   26.3499 C   0  0  0  0  0  0  0  0  0  0  0  0
    8.1967  -14.7673   25.7345 C   0  0  2  0  0  0  0  0  0  0  0  0
    7.8997  -15.1894   24.3562 N   0  0  0  0  0  0  0  0  0  0  0  0
    8.7774  -15.8827   26.4963 C   0  0  0  0  0  0  0  0  0  0  0  0
    8.3957  -17.0469   26.3674 O   0  0  0  0  0  0  0  0  0  0  0  0
    9.7924  -15.6147   27.3951 O   0  0  0  0  0  0  0  0  0  0  0  0
  2  1  1  1
  3  2  1  0
  4  5  2  0
  4  2  1  0
  7  6  1  6
  7  9  1  0
  8  7  1  0
  9 11  1  0
  9 10  1  6
 10  4  1  0
 11 18  1  0
 12 11  2  0
 14 15  1  1
 14 13  1  0
 16 14  1  0
 17 16  1  1
 18 17  1  0
 19 21  1  0
 19 17  1  0
 20 19  2  0
M  END
$$$$
