AVL.pdb
     RDKit          3D

 21 20  0  0  1  0  0  0  0  0999 V2000
    8.2914  -12.1184   19.7030 C   0  0  0  0  0  0  0  0  0  0  0  0
    8.4087  -13.5911   19.2863 C   0  0  2  0  0  0  0  0  0  0  0  0
    7.5115  -13.7680   18.1773 N   0  0  0  0  0  0  0  0  0  0  0  0
    8.0315  -14.4780   20.4139 C   0  0  0  0  0  0  0  0  0  0  0  0
    6.8390  -14.8267   20.6114 O   0  0  0  0  0  0  0  0  0  0  0  0
    9.3106  -17.7243   20.7180 C   0  0  0  0  0  0  0  0  0  0  0  0
    9.7072  -17.1198   22.0495 C   0  0  2  0  0  0  0  0  0  0  0  0
    9.4283  -18.1262   23.1471 C   0  0  0  0  0  0  0  0  0  0  0  0
    8.8286  -15.9221   22.3102 C   0  0  2  0  0  0  0  0  0  0  0  0
    9.0442  -14.9432   21.2901 N   0  0  0  0  0  0  0  0  0  0  0  0
    9.1336  -15.2972   23.6352 C   0  0  0  0  0  0  0  0  0  0  0  0
   10.2954  -14.8961   23.9070 O   0  0  0  0  0  0  0  0  0  0  0  0
    5.6633  -12.0660   26.3699 C   0  0  0  0  0  0  0  0  0  0  0  0
    6.8941  -12.7549   25.7996 C   0  0  1  0  0  0  0  0  0  0  0  0
    8.0379  -11.7257   25.7840 C   0  0  0  0  0  0  0  0  0  0  0  0
    7.2846  -13.9612   26.5926 C   0  0  0  0  0  0  0  0  0  0  0  0
    8.4373  -14.6664   25.9982 C   0  0  2  0  0  0  0  0  0  0  0  0
    8.1384  -15.1305   24.6338 N   0  0  0  0  0  0  0  0  0  0  0  0
    9.0158  -15.7590   26.7939 C   0  0  0  0  0  0  0  0  0  0  0  0
    8.7278  -16.9423   26.6083 O   0  0  0  0  0  0  0  0  0  0  0  0
    9.9187  -15.4463   27.7924 O   0  0  0  0  0  0  0  0  0  0  0  0
  2  1  1  1
  3  2  1  0
  4  5  2  0
  4  2  1  0
  7  6  1  6
  7  9  1  0
  8  7  1  0
  9 11  1  0
  9 10  1  6
 10  4  1  0
 11 18  1  0
 12 11  2  0
 14 15  1  1
 14 13  1  0
 16 14  1  0
 17 16  1  1
 18 17  1  0
 19 21  1  0
 19 17  1  0
 20 19  2  0
M  END
$$$$
