AVL.pdb
     RDKit          3D

 21 20  0  0  1  0  0  0  0  0999 V2000
    7.3781  -13.2506   17.9286 C   0  0  0  0  0  0  0  0  0  0  0  0
    8.5034  -13.3244   18.9700 C   0  0  2  0  0  0  0  0  0  0  0  0
    9.6365  -13.8991   18.2978 N   0  0  0  0  0  0  0  0  0  0  0  0
    8.0898  -14.1682   20.1177 C   0  0  0  0  0  0  0  0  0  0  0  0
    7.0679  -13.9013   20.8011 O   0  0  0  0  0  0  0  0  0  0  0  0
    8.9229  -18.1783   20.1517 C   0  0  0  0  0  0  0  0  0  0  0  0
    9.3844  -17.4480   21.3964 C   0  0  2  0  0  0  0  0  0  0  0  0
    9.0875  -18.3082   22.6077 C   0  0  0  0  0  0  0  0  0  0  0  0
    8.5719  -16.1853   21.5375 C   0  0  2  0  0  0  0  0  0  0  0  0
    8.8692  -15.3047   20.4505 N   0  0  0  0  0  0  0  0  0  0  0  0
    8.8815  -15.4750   22.8177 C   0  0  0  0  0  0  0  0  0  0  0  0
    9.9918  -14.9068   22.9878 O   0  0  0  0  0  0  0  0  0  0  0  0
    8.1985  -11.7432   26.3959 C   0  0  0  0  0  0  0  0  0  0  0  0
    7.1816  -12.8630   26.5589 C   0  0  1  0  0  0  0  0  0  0  0  0
    5.8439  -12.2208   26.9665 C   0  0  0  0  0  0  0  0  0  0  0  0
    7.0188  -13.6647   25.3071 C   0  0  0  0  0  0  0  0  0  0  0  0
    8.1535  -14.5826   25.0848 C   0  0  2  0  0  0  0  0  0  0  0  0
    7.9482  -15.4107   23.8855 N   0  0  0  0  0  0  0  0  0  0  0  0
    8.5463  -15.4236   26.2249 C   0  0  0  0  0  0  0  0  0  0  0  0
    9.2058  -14.9941   27.1728 O   0  0  0  0  0  0  0  0  0  0  0  0
    8.1615  -16.7509   26.2338 O   0  0  0  0  0  0  0  0  0  0  0  0
  2  1  1  6
  3  2  1  0
  4  5  2  0
  4  2  1  0
  7  6  1  6
  7  9  1  0
  8  7  1  0
  9 11  1  0
  9 10  1  6
 10  4  1  0
 11 18  1  0
 12 11  2  0
 14 15  1  6
 14 13  1  0
 16 14  1  0
 17 16  1  1
 18 17  1  0
 19 21  1  0
 19 17  1  0
 20 19  2  0
M  END
$$$$
