AVL.pdb
     RDKit          3D

 21 20  0  0  1  0  0  0  0  0999 V2000
    8.3574  -12.0856   19.8014 C   0  0  0  0  0  0  0  0  0  0  0  0
    8.4276  -13.5170   19.2514 C   0  0  2  0  0  0  0  0  0  0  0  0
    7.5161  -13.5664   18.1411 N   0  0  0  0  0  0  0  0  0  0  0  0
    8.0342  -14.4918   20.2979 C   0  0  0  0  0  0  0  0  0  0  0  0
    6.8405  -14.8613   20.4431 O   0  0  0  0  0  0  0  0  0  0  0  0
    9.2761  -17.7673   20.5033 C   0  0  0  0  0  0  0  0  0  0  0  0
    9.6412  -17.2263   21.8706 C   0  0  2  0  0  0  0  0  0  0  0  0
    9.2988  -18.2674   22.9168 C   0  0  0  0  0  0  0  0  0  0  0  0
    8.7844  -16.0169   22.1494 C   0  0  2  0  0  0  0  0  0  0  0  0
    9.0325  -15.0191   21.1553 N   0  0  0  0  0  0  0  0  0  0  0  0
    9.0863  -15.4297   23.4922 C   0  0  0  0  0  0  0  0  0  0  0  0
   10.2564  -15.0764   23.7934 O   0  0  0  0  0  0  0  0  0  0  0  0
    5.5799  -12.1912   26.2092 C   0  0  0  0  0  0  0  0  0  0  0  0
    6.8338  -12.8571   25.6624 C   0  0  1  0  0  0  0  0  0  0  0  0
    7.9729  -11.8244   25.7228 C   0  0  0  0  0  0  0  0  0  0  0  0
    7.2000  -14.0876   26.4294 C   0  0  0  0  0  0  0  0  0  0  0  0
    8.3636  -14.7812   25.8424 C   0  0  2  0  0  0  0  0  0  0  0  0
    8.0788  -15.2467   24.4756 N   0  0  0  0  0  0  0  0  0  0  0  0
    8.9469  -15.8689   26.6413 C   0  0  0  0  0  0  0  0  0  0  0  0
    8.6129  -17.0470   26.5061 O   0  0  0  0  0  0  0  0  0  0  0  0
    9.9086  -15.5577   27.5837 O   0  0  0  0  0  0  0  0  0  0  0  0
  2  1  1  1
  3  2  1  0
  4  5  2  0
  4  2  1  0
  7  6  1  6
  7  9  1  0
  8  7  1  0
  9 11  1  0
  9 10  1  6
 10  4  1  0
 11 18  1  0
 12 11  2  0
 14 15  1  1
 14 13  1  0
 16 14  1  0
 17 16  1  1
 18 17  1  0
 19 21  1  0
 19 17  1  0
 20 19  2  0
M  END
$$$$
