AVL.pdb
     RDKit          3D

 21 20  0  0  1  0  0  0  0  0999 V2000
    7.0594  -18.7843   24.1074 C   0  0  0  0  0  0  0  0  0  0  0  0
    7.0510  -18.5524   22.5901 C   0  0  2  0  0  0  0  0  0  0  0  0
    7.5434  -19.7647   21.9952 N   0  0  0  0  0  0  0  0  0  0  0  0
    7.9213  -17.4037   22.2388 C   0  0  0  0  0  0  0  0  0  0  0  0
    9.1554  -17.5448   22.0399 O   0  0  0  0  0  0  0  0  0  0  0  0
    6.7784  -14.3177   19.7356 C   0  0  0  0  0  0  0  0  0  0  0  0
    7.1079  -13.9295   21.1627 C   0  0  2  0  0  0  0  0  0  0  0  0
    7.8259  -12.5954   21.1541 C   0  0  0  0  0  0  0  0  0  0  0  0
    8.0680  -14.9479   21.7244 C   0  0  2  0  0  0  0  0  0  0  0  0
    7.3435  -16.1141   22.1250 N   0  0  0  0  0  0  0  0  0  0  0  0
    8.7975  -14.4135   22.9166 C   0  0  0  0  0  0  0  0  0  0  0  0
    9.4104  -13.3155   22.8590 O   0  0  0  0  0  0  0  0  0  0  0  0
    8.3628  -11.8657   27.0844 C   0  0  0  0  0  0  0  0  0  0  0  0
    7.2888  -12.9029   26.7918 C   0  0  1  0  0  0  0  0  0  0  0  0
    5.9267  -12.1889   26.8424 C   0  0  0  0  0  0  0  0  0  0  0  0
    7.4868  -13.5617   25.4639 C   0  0  0  0  0  0  0  0  0  0  0  0
    8.6659  -14.4501   25.4558 C   0  0  2  0  0  0  0  0  0  0  0  0
    8.8310  -15.1124   24.1519 N   0  0  0  0  0  0  0  0  0  0  0  0
    8.7484  -15.4358   26.5434 C   0  0  0  0  0  0  0  0  0  0  0  0
    8.6988  -15.1201   27.7332 O   0  0  0  0  0  0  0  0  0  0  0  0
    8.8889  -16.7718   26.2186 O   0  0  0  0  0  0  0  0  0  0  0  0
  2  1  1  1
  3  2  1  0
  4  5  2  0
  4  2  1  0
  7  6  1  6
  7  9  1  0
  8  7  1  0
  9 11  1  0
  9 10  1  1
 10  4  1  0
 11 18  1  0
 12 11  2  0
 14 15  1  6
 14 13  1  0
 16 14  1  0
 17 16  1  6
 18 17  1  0
 19 21  1  0
 19 17  1  0
 20 19  2  0
M  END
$$$$
