AVL.pdb
     RDKit          3D

 21 20  0  0  1  0  0  0  0  0999 V2000
    6.8172  -19.0392   23.1804 C   0  0  0  0  0  0  0  0  0  0  0  0
    6.9398  -18.5695   21.7242 C   0  0  2  0  0  0  0  0  0  0  0  0
    7.4431  -19.6919   20.9806 N   0  0  0  0  0  0  0  0  0  0  0  0
    7.8695  -17.4175   21.6301 C   0  0  0  0  0  0  0  0  0  0  0  0
    9.1134  -17.5772   21.5314 O   0  0  0  0  0  0  0  0  0  0  0  0
    6.9513  -13.9238   19.7357 C   0  0  0  0  0  0  0  0  0  0  0  0
    7.2957  -13.7477   21.2006 C   0  0  2  0  0  0  0  0  0  0  0  0
    8.1435  -12.5020   21.3583 C   0  0  0  0  0  0  0  0  0  0  0  0
    8.1402  -14.9188   21.6362 C   0  0  2  0  0  0  0  0  0  0  0  0
    7.3387  -16.1031   21.6522 N   0  0  0  0  0  0  0  0  0  0  0  0
    8.7001  -14.7099   23.0081 C   0  0  0  0  0  0  0  0  0  0  0  0
    9.8566  -14.2392   23.1681 O   0  0  0  0  0  0  0  0  0  0  0  0
    5.8675  -12.0905   26.4821 C   0  0  0  0  0  0  0  0  0  0  0  0
    7.1183  -12.6809   25.8483 C   0  0  1  0  0  0  0  0  0  0  0  0
    8.2919  -11.7396   26.1710 C   0  0  0  0  0  0  0  0  0  0  0  0
    7.4033  -14.0632   26.3427 C   0  0  0  0  0  0  0  0  0  0  0  0
    8.4412  -14.7372   25.5376 C   0  0  2  0  0  0  0  0  0  0  0  0
    7.9611  -15.0295   24.1774 N   0  0  0  0  0  0  0  0  0  0  0  0
    9.0533  -15.9347   26.1315 C   0  0  0  0  0  0  0  0  0  0  0  0
    9.6329  -15.9166   27.2185 O   0  0  0  0  0  0  0  0  0  0  0  0
    8.9770  -17.1300   25.4420 O   0  0  0  0  0  0  0  0  0  0  0  0
  2  1  1  1
  3  2  1  0
  4  5  2  0
  4  2  1  0
  7  6  1  6
  7  9  1  0
  8  7  1  0
  9 11  1  0
  9 10  1  1
 10  4  1  0
 11 18  1  0
 12 11  2  0
 14 15  1  1
 14 13  1  0
 16 14  1  0
 17 16  1  1
 18 17  1  0
 19 21  1  0
 19 17  1  0
 20 19  2  0
M  END
$$$$
