AVL.pdb
     RDKit          3D

 21 20  0  0  1  0  0  0  0  0999 V2000
   11.2533  -18.9834   20.5025 C   0  0  0  0  0  0  0  0  0  0  0  0
   10.7556  -17.7608   19.7190 C   0  0  2  0  0  0  0  0  0  0  0  0
   11.7817  -17.4522   18.7609 N   0  0  0  0  0  0  0  0  0  0  0  0
   10.5317  -16.6166   20.6359 C   0  0  0  0  0  0  0  0  0  0  0  0
   11.4621  -15.8326   20.9556 O   0  0  0  0  0  0  0  0  0  0  0  0
    7.3611  -14.2121   20.5215 C   0  0  0  0  0  0  0  0  0  0  0  0
    7.4642  -14.9356   21.8487 C   0  0  2  0  0  0  0  0  0  0  0  0
    7.1020  -13.9729   22.9610 C   0  0  0  0  0  0  0  0  0  0  0  0
    8.9015  -15.3403   22.0609 C   0  0  2  0  0  0  0  0  0  0  0  0
    9.2334  -16.4038   21.1641 N   0  0  0  0  0  0  0  0  0  0  0  0
    9.1360  -15.8138   23.4609 C   0  0  0  0  0  0  0  0  0  0  0  0
    9.1321  -17.0423   23.7355 O   0  0  0  0  0  0  0  0  0  0  0  0
   11.3573  -15.0032   28.5061 C   0  0  0  0  0  0  0  0  0  0  0  0
    9.9012  -14.6412   28.2549 C   0  0  1  0  0  0  0  0  0  0  0  0
    9.5252  -13.5175   29.2365 C   0  0  0  0  0  0  0  0  0  0  0  0
    9.6625  -14.2069   26.8439 C   0  0  0  0  0  0  0  0  0  0  0  0
    9.6538  -15.3473   25.9064 C   0  0  2  0  0  0  0  0  0  0  0  0
    9.3709  -14.9097   24.5300 N   0  0  0  0  0  0  0  0  0  0  0  0
    8.7935  -16.4834   26.2680 C   0  0  0  0  0  0  0  0  0  0  0  0
    9.2272  -17.4998   26.8127 O   0  0  0  0  0  0  0  0  0  0  0  0
    7.4430  -16.4096   25.9842 O   0  0  0  0  0  0  0  0  0  0  0  0
  2  1  1  1
  3  2  1  0
  4  5  2  0
  4  2  1  0
  7  6  1  6
  7  9  1  0
  8  7  1  0
  9 11  1  0
  9 10  1  6
 10  4  1  0
 11 18  1  0
 12 11  2  0
 14 15  1  1
 14 13  1  0
 16 14  1  0
 17 16  1  1
 18 17  1  0
 19 21  1  0
 19 17  1  0
 20 19  2  0
M  END
$$$$
