AVL.pdb
     RDKit          3D

 21 20  0  0  1  0  0  0  0  0999 V2000
    8.0200  -19.2919   21.1128 C   0  0  0  0  0  0  0  0  0  0  0  0
    8.3283  -18.2269   20.0512 C   0  0  2  0  0  0  0  0  0  0  0  0
    9.3550  -18.7813   19.2117 N   0  0  0  0  0  0  0  0  0  0  0  0
    8.7958  -16.9756   20.6961 C   0  0  0  0  0  0  0  0  0  0  0  0
    9.9395  -16.8843   21.2122 O   0  0  0  0  0  0  0  0  0  0  0  0
    7.7620  -13.4048   19.3330 C   0  0  0  0  0  0  0  0  0  0  0  0
    7.4178  -13.5123   20.8046 C   0  0  2  0  0  0  0  0  0  0  0  0
    7.8353  -12.2327   21.5002 C   0  0  0  0  0  0  0  0  0  0  0  0
    8.2322  -14.6309   21.4045 C   0  0  2  0  0  0  0  0  0  0  0  0
    7.9283  -15.8549   20.7300 N   0  0  0  0  0  0  0  0  0  0  0  0
    7.9318  -14.8076   22.8597 C   0  0  0  0  0  0  0  0  0  0  0  0
    6.8520  -15.3336   23.2362 O   0  0  0  0  0  0  0  0  0  0  0  0
    5.6781  -12.2815   26.1248 C   0  0  0  0  0  0  0  0  0  0  0  0
    7.0822  -12.7081   25.7234 C   0  0  1  0  0  0  0  0  0  0  0  0
    8.0632  -12.0905   26.7354 C   0  0  0  0  0  0  0  0  0  0  0  0
    7.2322  -14.1956   25.6882 C   0  0  0  0  0  0  0  0  0  0  0  0
    8.5976  -14.6065   25.3057 C   0  0  2  0  0  0  0  0  0  0  0  0
    8.8403  -14.3947   23.8696 N   0  0  0  0  0  0  0  0  0  0  0  0
    9.0053  -15.9635   25.6978 C   0  0  0  0  0  0  0  0  0  0  0  0
    9.3291  -16.8243   24.8781 O   0  0  0  0  0  0  0  0  0  0  0  0
    9.0250  -16.2881   27.0410 O   0  0  0  0  0  0  0  0  0  0  0  0
  2  1  1  1
  3  2  1  0
  4  5  2  0
  4  2  1  0
  7  6  1  6
  7  9  1  0
  8  7  1  0
  9 11  1  0
  9 10  1  6
 10  4  1  0
 11 18  1  0
 12 11  2  0
 14 15  1  1
 14 13  1  0
 16 14  1  0
 17 16  1  6
 18 17  1  0
 19 21  1  0
 19 17  1  0
 20 19  2  0
M  END
$$$$
