AVL.pdb
     RDKit          3D

 21 20  0  0  1  0  0  0  0  0999 V2000
    8.1199  -12.1144   19.8568 C   0  0  0  0  0  0  0  0  0  0  0  0
    8.3282  -13.5545   19.3678 C   0  0  2  0  0  0  0  0  0  0  0  0
    7.4575  -13.7251   18.2369 N   0  0  0  0  0  0  0  0  0  0  0  0
    7.9887  -14.5187   20.4426 C   0  0  0  0  0  0  0  0  0  0  0  0
    6.8334  -15.0036   20.5560 O   0  0  0  0  0  0  0  0  0  0  0  0
    9.2805  -17.6664   20.7442 C   0  0  0  0  0  0  0  0  0  0  0  0
    9.6968  -17.0817   22.0785 C   0  0  2  0  0  0  0  0  0  0  0  0
    9.4465  -18.1093   23.1633 C   0  0  0  0  0  0  0  0  0  0  0  0
    8.8134  -15.8962   22.3763 C   0  0  2  0  0  0  0  0  0  0  0  0
    8.9951  -14.9018   21.3646 N   0  0  0  0  0  0  0  0  0  0  0  0
    9.1444  -15.2859   23.7019 C   0  0  0  0  0  0  0  0  0  0  0  0
   10.3237  -14.9426   23.9775 O   0  0  0  0  0  0  0  0  0  0  0  0
    5.6766  -12.0510   26.4206 C   0  0  0  0  0  0  0  0  0  0  0  0
    6.9109  -12.7340   25.8507 C   0  0  1  0  0  0  0  0  0  0  0  0
    8.0332  -11.6836   25.7808 C   0  0  0  0  0  0  0  0  0  0  0  0
    7.3395  -13.9056   26.6753 C   0  0  0  0  0  0  0  0  0  0  0  0
    8.4727  -14.6287   26.0648 C   0  0  2  0  0  0  0  0  0  0  0  0
    8.1551  -15.0690   24.6968 N   0  0  0  0  0  0  0  0  0  0  0  0
    9.0317  -15.7436   26.8432 C   0  0  0  0  0  0  0  0  0  0  0  0
    8.7556  -16.9216   26.6114 O   0  0  0  0  0  0  0  0  0  0  0  0
    9.9015  -15.4591   27.8788 O   0  0  0  0  0  0  0  0  0  0  0  0
  2  1  1  1
  3  2  1  0
  4  5  2  0
  4  2  1  0
  7  6  1  6
  7  9  1  0
  8  7  1  0
  9 11  1  0
  9 10  1  6
 10  4  1  0
 11 18  1  0
 12 11  2  0
 14 15  1  1
 14 13  1  0
 16 14  1  0
 17 16  1  1
 18 17  1  0
 19 21  1  0
 19 17  1  0
 20 19  2  0
M  END
$$$$
