AVL.pdb
     RDKit          3D

 21 20  0  0  1  0  0  0  0  0999 V2000
    8.4884  -12.1418   19.4178 C   0  0  0  0  0  0  0  0  0  0  0  0
    8.6115  -13.6249   19.0415 C   0  0  2  0  0  0  0  0  0  0  0  0
    7.9291  -13.7793   17.7859 N   0  0  0  0  0  0  0  0  0  0  0  0
    7.9897  -14.4755   20.0855 C   0  0  0  0  0  0  0  0  0  0  0  0
    6.7981  -14.8686   19.9958 O   0  0  0  0  0  0  0  0  0  0  0  0
   10.3191  -17.0998   21.7198 C   0  0  0  0  0  0  0  0  0  0  0  0
    8.8134  -17.1575   21.8786 C   0  0  2  0  0  0  0  0  0  0  0  0
    8.1953  -17.5463   20.5511 C   0  0  0  0  0  0  0  0  0  0  0  0
    8.3156  -15.7737   22.2128 C   0  0  2  0  0  0  0  0  0  0  0  0
    8.7616  -14.8535   21.2129 N   0  0  0  0  0  0  0  0  0  0  0  0
    8.8296  -15.3127   23.5404 C   0  0  0  0  0  0  0  0  0  0  0  0
   10.0502  -15.0525   23.7046 O   0  0  0  0  0  0  0  0  0  0  0  0
    5.8287  -12.1176   26.7179 C   0  0  0  0  0  0  0  0  0  0  0  0
    6.9918  -12.8083   26.0215 C   0  0  1  0  0  0  0  0  0  0  0  0
    8.1372  -11.7873   25.9060 C   0  0  0  0  0  0  0  0  0  0  0  0
    7.4478  -14.0272   26.7582 C   0  0  0  0  0  0  0  0  0  0  0  0
    8.4633  -14.7854   26.0009 C   0  0  2  0  0  0  0  0  0  0  0  0
    7.9740  -15.1499   24.6616 N   0  0  0  0  0  0  0  0  0  0  0  0
    9.0361  -15.9610   26.6728 C   0  0  0  0  0  0  0  0  0  0  0  0
    8.7632  -17.1158   26.3414 O   0  0  0  0  0  0  0  0  0  0  0  0
    9.9158  -15.7634   27.7201 O   0  0  0  0  0  0  0  0  0  0  0  0
  2  1  1  1
  3  2  1  0
  4  5  2  0
  4  2  1  0
  7  6  1  6
  7  9  1  0
  8  7  1  0
  9 11  1  0
  9 10  1  6
 10  4  1  0
 11 18  1  0
 12 11  2  0
 14 15  1  1
 14 13  1  0
 16 14  1  0
 17 16  1  1
 18 17  1  0
 19 21  1  0
 19 17  1  0
 20 19  2  0
M  END
$$$$
