HHK.pdb
     RDKit          3D

 30 31  0  0  1  0  0  0  0  0999 V2000
   11.5171  -16.6416   18.9550 N   0  0  0  0  0  0  0  0  0  0  0  0
   12.2183  -15.6649   19.7298 C   0  0  1  0  0  0  0  0  0  0  0  0
   12.1677  -14.3428   18.9959 C   0  0  0  0  0  0  0  0  0  0  0  0
   10.8360  -14.0705   18.4445 C   0  0  0  0  0  0  0  0  0  0  0  0
    9.7289  -14.8966   18.4724 C   0  0  0  0  0  0  0  0  0  0  0  0
    8.6959  -14.2892   17.8616 N   0  0  0  0  0  0  0  0  0  0  0  0
    9.1275  -13.0911   17.4459 C   0  0  0  0  0  0  0  0  0  0  0  0
   10.4323  -12.9481   17.7968 N   0  0  0  0  0  0  0  0  0  0  0  0
   11.5848  -15.4473   21.0810 C   0  0  0  0  0  0  0  0  0  0  0  0
   12.1717  -14.6894   21.8735 O   0  0  0  0  0  0  0  0  0  0  0  0
   10.3932  -16.0588   21.4475 N   0  0  0  0  0  0  0  0  0  0  0  0
    9.6341  -16.0350   22.6391 C   0  0  1  0  0  0  0  0  0  0  0  0
    8.2496  -16.6312   22.5835 C   0  0  0  0  0  0  0  0  0  0  0  0
    7.3236  -15.8958   21.7078 C   0  0  0  0  0  0  0  0  0  0  0  0
    7.5812  -14.7092   21.0615 C   0  0  0  0  0  0  0  0  0  0  0  0
    6.4709  -14.3101   20.4139 N   0  0  0  0  0  0  0  0  0  0  0  0
    5.5132  -15.2218   20.6374 C   0  0  0  0  0  0  0  0  0  0  0  0
    6.0490  -16.1841   21.4292 N   0  0  0  0  0  0  0  0  0  0  0  0
   10.3167  -16.3895   23.8756 C   0  0  0  0  0  0  0  0  0  0  0  0
   11.2183  -17.2945   23.9224 O   0  0  0  0  0  0  0  0  0  0  0  0
   10.0310  -15.7556   25.1104 N   0  0  0  0  0  0  0  0  0  0  0  0
   10.7214  -16.1141   26.3440 C   0  0  1  0  0  0  0  0  0  0  0  0
   10.2595  -15.2127   27.4688 C   0  0  0  0  0  0  0  0  0  0  0  0
   10.8931  -15.5756   28.7756 C   0  0  0  0  0  0  0  0  0  0  0  0
   10.3900  -14.6150   29.8341 C   0  0  0  0  0  0  0  0  0  0  0  0
   11.0804  -14.9656   31.1360 C   0  0  0  0  0  0  0  0  0  0  0  0
   10.6655  -14.0179   32.1567 N   0  0  0  0  0  0  0  0  0  0  0  0
   10.3170  -17.5006   26.6874 C   0  0  0  0  0  0  0  0  0  0  0  0
   11.1963  -18.3906   27.2496 O   0  0  0  0  0  0  0  0  0  0  0  0
    9.1473  -17.9217   26.4777 O   0  0  0  0  0  0  0  0  0  0  0  0
  2  1  1  6
  2  3  1  0
  3  4  1  0
  4  5  2  0
  4  8  1  0
  5  6  1  0
  6  7  1  0
  8  7  2  0
  9  2  1  0
  9 10  2  0
 11  9  1  0
 12 11  1  0
 12 13  1  6
 14 13  1  0
 14 15  2  0
 16 15  1  0
 17 16  1  0
 18 17  2  0
 18 14  1  0
 19 12  1  0
 20 19  2  0
 21 19  1  0
 22 21  1  0
 22 28  1  0
 22 23  1  1
 24 25  1  0
 24 23  1  0
 25 26  1  0
 27 26  1  0
 28 29  1  0
 30 28  2  0
M  END
$$$$
