HHK.pdb
     RDKit          3D

 30 31  0  0  1  0  0  0  0  0999 V2000
   15.6032  -13.7958   17.5420 N   0  0  0  0  0  0  0  0  0  0  0  0
   14.3902  -14.5126   17.2955 C   0  0  1  0  0  0  0  0  0  0  0  0
   14.7296  -15.9710   17.0786 C   0  0  0  0  0  0  0  0  0  0  0  0
   15.3079  -16.2096   15.7518 C   0  0  0  0  0  0  0  0  0  0  0  0
   14.9284  -15.6367   14.5532 C   0  0  0  0  0  0  0  0  0  0  0  0
   15.7008  -16.1121   13.5600 N   0  0  0  0  0  0  0  0  0  0  0  0
   16.5648  -16.9776   14.1069 C   0  0  0  0  0  0  0  0  0  0  0  0
   16.3332  -17.0441   15.4440 N   0  0  0  0  0  0  0  0  0  0  0  0
   13.4414  -14.4468   18.4659 C   0  0  0  0  0  0  0  0  0  0  0  0
   13.9204  -14.6124   19.6017 O   0  0  0  0  0  0  0  0  0  0  0  0
   12.0823  -14.2116   18.3053 N   0  0  0  0  0  0  0  0  0  0  0  0
   10.9981  -14.2171   19.2115 C   0  0  1  0  0  0  0  0  0  0  0  0
    9.6532  -13.7930   18.6759 C   0  0  0  0  0  0  0  0  0  0  0  0
    8.6021  -13.7247   19.7034 C   0  0  0  0  0  0  0  0  0  0  0  0
    8.4159  -12.7102   20.6135 C   0  0  0  0  0  0  0  0  0  0  0  0
    7.4012  -13.0362   21.4353 N   0  0  0  0  0  0  0  0  0  0  0  0
    6.9398  -14.2391   21.0635 C   0  0  0  0  0  0  0  0  0  0  0  0
    7.6832  -14.6468   20.0045 N   0  0  0  0  0  0  0  0  0  0  0  0
   10.8783  -15.3598   20.1061 C   0  0  0  0  0  0  0  0  0  0  0  0
   11.0420  -16.5620   19.7037 O   0  0  0  0  0  0  0  0  0  0  0  0
   10.5742  -15.2187   21.4830 N   0  0  0  0  0  0  0  0  0  0  0  0
   10.6570  -16.3383   22.4139 C   0  0  1  0  0  0  0  0  0  0  0  0
   10.3644  -15.8576   23.8190 C   0  0  0  0  0  0  0  0  0  0  0  0
   10.5439  -16.9439   24.8331 C   0  0  0  0  0  0  0  0  0  0  0  0
   10.3073  -16.3568   26.2099 C   0  0  0  0  0  0  0  0  0  0  0  0
   10.6247  -17.4329   27.2275 C   0  0  0  0  0  0  0  0  0  0  0  0
   10.4483  -16.8837   28.5613 N   0  0  0  0  0  0  0  0  0  0  0  0
    9.5907  -17.3012   22.0398 C   0  0  0  0  0  0  0  0  0  0  0  0
    8.5471  -16.9419   21.2254 O   0  0  0  0  0  0  0  0  0  0  0  0
    9.5970  -18.4919   22.4539 O   0  0  0  0  0  0  0  0  0  0  0  0
  2  1  1  1
  2  3  1  0
  3  4  1  0
  4  5  2  0
  4  8  1  0
  5  6  1  0
  6  7  1  0
  8  7  2  0
  9  2  1  0
  9 10  2  0
 11  9  1  0
 12 11  1  0
 12 13  1  6
 14 13  1  0
 14 15  2  0
 16 15  1  0
 17 16  1  0
 18 17  2  0
 18 14  1  0
 19 12  1  0
 20 19  2  0
 21 19  1  0
 22 21  1  0
 22 28  1  0
 22 23  1  1
 24 25  1  0
 24 23  1  0
 25 26  1  0
 27 26  1  0
 28 29  1  0
 30 28  2  0
M  END
$$$$
