HHK.pdb
     RDKit          3D

 30 31  0  0  1  0  0  0  0  0999 V2000
    8.4252  -16.2702   19.0448 N   0  0  0  0  0  0  0  0  0  0  0  0
    7.9415  -15.1233   19.7495 C   0  0  1  0  0  0  0  0  0  0  0  0
    6.7493  -14.5676   19.0019 C   0  0  0  0  0  0  0  0  0  0  0  0
    7.0949  -14.1712   17.6326 C   0  0  0  0  0  0  0  0  0  0  0  0
    8.3225  -14.2838   17.0085 C   0  0  0  0  0  0  0  0  0  0  0  0
    8.2366  -13.8098   15.7527 N   0  0  0  0  0  0  0  0  0  0  0  0
    6.9754  -13.3977   15.5679 C   0  0  0  0  0  0  0  0  0  0  0  0
    6.2707  -13.6140   16.7092 N   0  0  0  0  0  0  0  0  0  0  0  0
    7.4726  -15.4656   21.1415 C   0  0  0  0  0  0  0  0  0  0  0  0
    6.9884  -14.5463   21.8251 O   0  0  0  0  0  0  0  0  0  0  0  0
    7.5680  -16.7501   21.6604 N   0  0  0  0  0  0  0  0  0  0  0  0
    7.2409  -17.2980   22.9211 C   0  0  1  0  0  0  0  0  0  0  0  0
    6.4220  -18.5648   22.9278 C   0  0  0  0  0  0  0  0  0  0  0  0
    5.1435  -18.4465   22.2090 C   0  0  0  0  0  0  0  0  0  0  0  0
    4.5938  -17.2896   21.7074 C   0  0  0  0  0  0  0  0  0  0  0  0
    3.3863  -17.5674   21.1818 N   0  0  0  0  0  0  0  0  0  0  0  0
    3.1595  -18.8794   21.3405 C   0  0  0  0  0  0  0  0  0  0  0  0
    4.2416  -19.4028   21.9694 N   0  0  0  0  0  0  0  0  0  0  0  0
    8.2927  -17.3391   23.9272 C   0  0  0  0  0  0  0  0  0  0  0  0
    9.4121  -17.9211   23.7213 O   0  0  0  0  0  0  0  0  0  0  0  0
    8.1497  -16.7362   25.2017 N   0  0  0  0  0  0  0  0  0  0  0  0
    9.2252  -16.7407   26.1866 C   0  0  1  0  0  0  0  0  0  0  0  0
    8.9702  -15.6713   27.2269 C   0  0  0  0  0  0  0  0  0  0  0  0
    9.9501  -15.7413   28.3564 C   0  0  0  0  0  0  0  0  0  0  0  0
    9.5994  -14.6628   29.3614 C   0  0  0  0  0  0  0  0  0  0  0  0
   10.6399  -14.7060   30.4614 C   0  0  0  0  0  0  0  0  0  0  0  0
   10.3739  -13.6297   31.4010 N   0  0  0  0  0  0  0  0  0  0  0  0
    9.1842  -18.0545   26.8767 C   0  0  0  0  0  0  0  0  0  0  0  0
   10.3104  -18.6217   27.4166 O   0  0  0  0  0  0  0  0  0  0  0  0
    8.1124  -18.7073   26.9973 O   0  0  0  0  0  0  0  0  0  0  0  0
  2  1  1  6
  2  3  1  0
  3  4  1  0
  4  5  2  0
  4  8  1  0
  5  6  1  0
  6  7  1  0
  8  7  2  0
  9  2  1  0
  9 10  2  0
 11  9  1  0
 12 11  1  0
 12 13  1  6
 14 13  1  0
 14 15  2  0
 16 15  1  0
 17 16  1  0
 18 17  2  0
 18 14  1  0
 19 12  1  0
 20 19  2  0
 21 19  1  0
 22 21  1  0
 22 28  1  0
 22 23  1  1
 24 25  1  0
 24 23  1  0
 25 26  1  0
 27 26  1  0
 28 29  1  0
 30 28  2  0
M  END
$$$$
