HHK.pdb
     RDKit          3D

 30 31  0  0  1  0  0  0  0  0999 V2000
    9.7171  -17.5078   14.3648 N   0  0  0  0  0  0  0  0  0  0  0  0
    9.3092  -18.1377   15.5824 C   0  0  1  0  0  0  0  0  0  0  0  0
   10.0888  -19.4245   15.7424 C   0  0  0  0  0  0  0  0  0  0  0  0
    9.7871  -20.3863   14.6768 C   0  0  0  0  0  0  0  0  0  0  0  0
    8.5568  -20.6523   14.1071 C   0  0  0  0  0  0  0  0  0  0  0  0
    8.6915  -21.5993   13.1615 N   0  0  0  0  0  0  0  0  0  0  0  0
    9.9864  -21.9399   13.1205 C   0  0  0  0  0  0  0  0  0  0  0  0
   10.6634  -21.2053   14.0414 N   0  0  0  0  0  0  0  0  0  0  0  0
    9.6049  -17.2861   16.7915 C   0  0  0  0  0  0  0  0  0  0  0  0
   10.7639  -17.3135   17.2420 O   0  0  0  0  0  0  0  0  0  0  0  0
    8.6365  -16.4946   17.3948 N   0  0  0  0  0  0  0  0  0  0  0  0
    8.5877  -15.8262   18.6388 C   0  0  1  0  0  0  0  0  0  0  0  0
    7.2895  -15.1512   19.0054 C   0  0  0  0  0  0  0  0  0  0  0  0
    7.3734  -14.3290   20.2228 C   0  0  0  0  0  0  0  0  0  0  0  0
    7.8888  -13.0569   20.3139 C   0  0  0  0  0  0  0  0  0  0  0  0
    7.8606  -12.6611   21.6000 N   0  0  0  0  0  0  0  0  0  0  0  0
    7.3367  -13.6588   22.3269 C   0  0  0  0  0  0  0  0  0  0  0  0
    7.0442  -14.6705   21.4719 N   0  0  0  0  0  0  0  0  0  0  0  0
    9.1789  -16.5012   19.7857 C   0  0  0  0  0  0  0  0  0  0  0  0
    8.9401  -17.7282   20.0534 O   0  0  0  0  0  0  0  0  0  0  0  0
   10.0598  -15.8466   20.6822 N   0  0  0  0  0  0  0  0  0  0  0  0
   10.6625  -16.5348   21.8180 C   0  0  1  0  0  0  0  0  0  0  0  0
   12.0997  -16.0891   21.9817 C   0  0  0  0  0  0  0  0  0  0  0  0
   12.8041  -16.8494   23.0618 C   0  0  0  0  0  0  0  0  0  0  0  0
   14.2403  -16.3707   23.1251 C   0  0  0  0  0  0  0  0  0  0  0  0
   14.9516  -17.1941   24.1789 C   0  0  0  0  0  0  0  0  0  0  0  0
   16.3604  -16.8373   24.1809 N   0  0  0  0  0  0  0  0  0  0  0  0
    9.9219  -16.1107   23.0328 C   0  0  0  0  0  0  0  0  0  0  0  0
    9.9458  -16.8505   24.1876 O   0  0  0  0  0  0  0  0  0  0  0  0
    9.2381  -15.0519   23.0570 O   0  0  0  0  0  0  0  0  0  0  0  0
  2  1  1  6
  2  3  1  0
  3  4  1  0
  4  5  2  0
  4  8  1  0
  5  6  1  0
  6  7  1  0
  8  7  2  0
  9  2  1  0
  9 10  2  0
 11  9  1  0
 12 11  1  0
 12 13  1  1
 14 13  1  0
 14 15  2  0
 16 15  1  0
 17 16  1  0
 18 17  2  0
 18 14  1  0
 19 12  1  0
 20 19  2  0
 21 19  1  0
 22 21  1  0
 22 28  1  0
 22 23  1  1
 24 25  1  0
 24 23  1  0
 25 26  1  0
 27 26  1  0
 28 29  1  0
 30 28  2  0
M  END
$$$$
