HHK.pdb
     RDKit          3D

 30 31  0  0  1  0  0  0  0  0999 V2000
    9.1111  -18.0006   17.8405 N   0  0  0  0  0  0  0  0  0  0  0  0
   10.3621  -17.3203   17.9748 C   0  0  1  0  0  0  0  0  0  0  0  0
   10.4491  -16.2582   16.9009 C   0  0  0  0  0  0  0  0  0  0  0  0
   10.1506  -16.7966   15.5694 C   0  0  0  0  0  0  0  0  0  0  0  0
    8.9117  -16.9217   14.9709 C   0  0  0  0  0  0  0  0  0  0  0  0
    9.0532  -17.4608   13.7467 N   0  0  0  0  0  0  0  0  0  0  0  0
   10.3610  -17.6803   13.5569 C   0  0  0  0  0  0  0  0  0  0  0  0
   11.0392  -17.2784   14.6635 N   0  0  0  0  0  0  0  0  0  0  0  0
   10.4898  -16.6194   19.3041 C   0  0  0  0  0  0  0  0  0  0  0  0
   11.5499  -16.0096   19.5306 O   0  0  0  0  0  0  0  0  0  0  0  0
    9.4763  -16.6406   20.2530 N   0  0  0  0  0  0  0  0  0  0  0  0
    9.4203  -16.2194   21.6006 C   0  0  1  0  0  0  0  0  0  0  0  0
    8.2724  -15.3227   21.9928 C   0  0  0  0  0  0  0  0  0  0  0  0
    7.8840  -14.3662   20.9443 C   0  0  0  0  0  0  0  0  0  0  0  0
    8.2161  -13.0323   20.8938 C   0  0  0  0  0  0  0  0  0  0  0  0
    7.6192  -12.4698   19.8265 N   0  0  0  0  0  0  0  0  0  0  0  0
    6.9145  -13.4224   19.1988 C   0  0  0  0  0  0  0  0  0  0  0  0
    7.0860  -14.5750   19.8932 N   0  0  0  0  0  0  0  0  0  0  0  0
    9.6906  -17.2170   22.6263 C   0  0  0  0  0  0  0  0  0  0  0  0
    9.2385  -18.4105   22.5538 O   0  0  0  0  0  0  0  0  0  0  0  0
   10.4737  -16.9354   23.7733 N   0  0  0  0  0  0  0  0  0  0  0  0
   10.8517  -17.9714   24.7275 C   0  0  1  0  0  0  0  0  0  0  0  0
   11.7929  -18.9558   24.0671 C   0  0  0  0  0  0  0  0  0  0  0  0
   13.1997  -18.4460   24.0245 C   0  0  0  0  0  0  0  0  0  0  0  0
   14.0680  -19.4934   23.3574 C   0  0  0  0  0  0  0  0  0  0  0  0
   15.4823  -18.9531   23.3096 C   0  0  0  0  0  0  0  0  0  0  0  0
   16.3303  -19.9183   22.6305 N   0  0  0  0  0  0  0  0  0  0  0  0
   11.5982  -17.3070   25.8254 C   0  0  0  0  0  0  0  0  0  0  0  0
   11.8744  -15.9637   25.8007 O   0  0  0  0  0  0  0  0  0  0  0  0
   12.0114  -17.9479   26.8293 O   0  0  0  0  0  0  0  0  0  0  0  0
  2  1  1  1
  2  3  1  0
  3  4  1  0
  4  5  2  0
  4  8  1  0
  5  6  1  0
  6  7  1  0
  8  7  2  0
  9  2  1  0
  9 10  2  0
 11  9  1  0
 12 11  1  0
 12 13  1  1
 14 13  1  0
 14 15  2  0
 16 15  1  0
 17 16  1  0
 18 17  2  0
 18 14  1  0
 19 12  1  0
 20 19  2  0
 21 19  1  0
 22 21  1  0
 22 28  1  0
 22 23  1  6
 24 25  1  0
 24 23  1  0
 25 26  1  0
 27 26  1  0
 28 29  1  0
 30 28  2  0
M  END
$$$$
