HHK.pdb
     RDKit          3D

 30 31  0  0  1  0  0  0  0  0999 V2000
   10.6690  -16.9663   15.7475 N   0  0  0  0  0  0  0  0  0  0  0  0
   10.1546  -17.5794   16.9330 C   0  0  1  0  0  0  0  0  0  0  0  0
   10.5842  -19.0300   16.9488 C   0  0  0  0  0  0  0  0  0  0  0  0
    9.8998  -19.8176   15.9178 C   0  0  0  0  0  0  0  0  0  0  0  0
   10.3836  -20.1774   14.6747 C   0  0  0  0  0  0  0  0  0  0  0  0
    9.4564  -20.8993   14.0202 N   0  0  0  0  0  0  0  0  0  0  0  0
    8.3915  -21.0044   14.8261 C   0  0  0  0  0  0  0  0  0  0  0  0
    8.6522  -20.3476   15.9866 N   0  0  0  0  0  0  0  0  0  0  0  0
   10.6985  -16.9414   18.1866 C   0  0  0  0  0  0  0  0  0  0  0  0
   11.8583  -16.4941   18.1450 O   0  0  0  0  0  0  0  0  0  0  0  0
    9.9514  -16.8460   19.3533 N   0  0  0  0  0  0  0  0  0  0  0  0
   10.2050  -16.2376   20.6031 C   0  0  1  0  0  0  0  0  0  0  0  0
    9.0208  -15.6636   21.3405 C   0  0  0  0  0  0  0  0  0  0  0  0
    8.2470  -14.6921   20.5516 C   0  0  0  0  0  0  0  0  0  0  0  0
    6.9654  -14.8599   20.0810 C   0  0  0  0  0  0  0  0  0  0  0  0
    6.6234  -13.7880   19.3422 N   0  0  0  0  0  0  0  0  0  0  0  0
    7.6646  -12.9429   19.3354 C   0  0  0  0  0  0  0  0  0  0  0  0
    8.6485  -13.5088   20.0782 N   0  0  0  0  0  0  0  0  0  0  0  0
   11.1151  -16.9232   21.5098 C   0  0  0  0  0  0  0  0  0  0  0  0
   10.8756  -18.0954   21.9600 O   0  0  0  0  0  0  0  0  0  0  0  0
   12.3281  -16.3405   21.9540 N   0  0  0  0  0  0  0  0  0  0  0  0
   13.2765  -17.0670   22.7905 C   0  0  1  0  0  0  0  0  0  0  0  0
   14.5834  -16.3067   22.8602 C   0  0  0  0  0  0  0  0  0  0  0  0
   15.5842  -16.9892   23.7395 C   0  0  0  0  0  0  0  0  0  0  0  0
   16.8334  -16.1335   23.7963 C   0  0  0  0  0  0  0  0  0  0  0  0
   17.8374  -16.8466   24.6784 C   0  0  0  0  0  0  0  0  0  0  0  0
   19.0351  -16.0300   24.7806 N   0  0  0  0  0  0  0  0  0  0  0  0
   12.7104  -17.1095   24.1623 C   0  0  0  0  0  0  0  0  0  0  0  0
   13.0330  -18.1082   25.0455 O   0  0  0  0  0  0  0  0  0  0  0  0
   11.9080  -16.2297   24.5764 O   0  0  0  0  0  0  0  0  0  0  0  0
  2  1  1  6
  2  3  1  0
  3  4  1  0
  4  5  2  0
  4  8  1  0
  5  6  1  0
  6  7  1  0
  8  7  2  0
  9  2  1  0
  9 10  2  0
 11  9  1  0
 12 11  1  0
 12 13  1  1
 14 13  1  0
 14 15  2  0
 16 15  1  0
 17 16  1  0
 18 17  2  0
 18 14  1  0
 19 12  1  0
 20 19  2  0
 21 19  1  0
 22 21  1  0
 22 28  1  0
 22 23  1  1
 24 25  1  0
 24 23  1  0
 25 26  1  0
 27 26  1  0
 28 29  1  0
 30 28  2  0
M  END
$$$$
