HHK.pdb
     RDKit          3D

 30 31  0  0  1  0  0  0  0  0999 V2000
    8.7962  -17.4144   18.5619 N   0  0  0  0  0  0  0  0  0  0  0  0
    9.7063  -16.6498   19.3574 C   0  0  1  0  0  0  0  0  0  0  0  0
    8.9083  -15.8383   20.3542 C   0  0  0  0  0  0  0  0  0  0  0  0
    8.2290  -14.7030   19.7207 C   0  0  0  0  0  0  0  0  0  0  0  0
    8.2325  -14.3607   18.3822 C   0  0  0  0  0  0  0  0  0  0  0  0
    7.4917  -13.2536   18.1964 N   0  0  0  0  0  0  0  0  0  0  0  0
    7.0172  -12.8862   19.3942 C   0  0  0  0  0  0  0  0  0  0  0  0
    7.4615  -13.7643   20.3309 N   0  0  0  0  0  0  0  0  0  0  0  0
   10.6460  -17.5251   20.1483 C   0  0  0  0  0  0  0  0  0  0  0  0
   10.1875  -18.0960   21.1537 O   0  0  0  0  0  0  0  0  0  0  0  0
   11.9751  -17.7013   19.7867 N   0  0  0  0  0  0  0  0  0  0  0  0
   13.0728  -18.3004   20.4445 C   0  0  1  0  0  0  0  0  0  0  0  0
   14.4302  -18.1309   19.8089 C   0  0  0  0  0  0  0  0  0  0  0  0
   15.4629  -19.0130   20.3752 C   0  0  0  0  0  0  0  0  0  0  0  0
   15.2608  -20.0291   21.2800 C   0  0  0  0  0  0  0  0  0  0  0  0
   16.4500  -20.5614   21.6175 N   0  0  0  0  0  0  0  0  0  0  0  0
   17.4032  -19.9018   20.9434 C   0  0  0  0  0  0  0  0  0  0  0  0
   16.7849  -18.9591   20.1889 N   0  0  0  0  0  0  0  0  0  0  0  0
   13.1425  -18.1634   21.8925 C   0  0  0  0  0  0  0  0  0  0  0  0
   13.1667  -17.0232   22.4699 O   0  0  0  0  0  0  0  0  0  0  0  0
   13.1864  -19.2825   22.7608 N   0  0  0  0  0  0  0  0  0  0  0  0
   13.1462  -19.1400   24.2117 C   0  0  1  0  0  0  0  0  0  0  0  0
   12.2307  -20.1901   24.8032 C   0  0  0  0  0  0  0  0  0  0  0  0
   12.1564  -20.0946   26.2952 C   0  0  0  0  0  0  0  0  0  0  0  0
   11.1931  -21.1521   26.7950 C   0  0  0  0  0  0  0  0  0  0  0  0
   11.0689  -20.9863   28.2955 C   0  0  0  0  0  0  0  0  0  0  0  0
   10.1909  -22.0233   28.8108 N   0  0  0  0  0  0  0  0  0  0  0  0
   14.5165  -19.4053   24.7178 C   0  0  0  0  0  0  0  0  0  0  0  0
   15.0717  -18.6566   25.7241 O   0  0  0  0  0  0  0  0  0  0  0  0
   15.2307  -20.3305   24.2452 O   0  0  0  0  0  0  0  0  0  0  0  0
  2  1  1  1
  2  3  1  0
  3  4  1  0
  4  5  2  0
  4  8  1  0
  5  6  1  0
  6  7  1  0
  8  7  2  0
  9  2  1  0
  9 10  2  0
 11  9  1  0
 12 11  1  0
 12 13  1  6
 14 13  1  0
 14 15  2  0
 16 15  1  0
 17 16  1  0
 18 17  2  0
 18 14  1  0
 19 12  1  0
 20 19  2  0
 21 19  1  0
 22 21  1  0
 22 28  1  0
 22 23  1  1
 24 25  1  0
 24 23  1  0
 25 26  1  0
 27 26  1  0
 28 29  1  0
 30 28  2  0
M  END
$$$$
