HHK.pdb
     RDKit          3D

 30 31  0  0  1  0  0  0  0  0999 V2000
    9.1406  -15.7857   17.9751 N   0  0  0  0  0  0  0  0  0  0  0  0
    8.7496  -14.5541   18.5883 C   0  0  1  0  0  0  0  0  0  0  0  0
    7.6841  -13.9074   17.7306 C   0  0  0  0  0  0  0  0  0  0  0  0
    8.1271  -13.7306   16.3435 C   0  0  0  0  0  0  0  0  0  0  0  0
    9.3563  -14.0585   15.8046 C   0  0  0  0  0  0  0  0  0  0  0  0
    9.3757  -13.7426   14.4973 N   0  0  0  0  0  0  0  0  0  0  0  0
    8.1798  -13.2195   14.1961 C   0  0  0  0  0  0  0  0  0  0  0  0
    7.4106  -13.2078   15.3160 N   0  0  0  0  0  0  0  0  0  0  0  0
    8.1515  -14.7635   19.9569 C   0  0  0  0  0  0  0  0  0  0  0  0
    7.6475  -13.7752   20.5192 O   0  0  0  0  0  0  0  0  0  0  0  0
    8.1522  -16.0025   20.5839 N   0  0  0  0  0  0  0  0  0  0  0  0
    7.7960  -16.4135   21.8880 C   0  0  1  0  0  0  0  0  0  0  0  0
    6.9706  -17.6702   22.0106 C   0  0  0  0  0  0  0  0  0  0  0  0
    5.6506  -17.5761   21.3672 C   0  0  0  0  0  0  0  0  0  0  0  0
    5.0672  -16.4358   20.8656 C   0  0  0  0  0  0  0  0  0  0  0  0
    3.8313  -16.7316   20.4223 N   0  0  0  0  0  0  0  0  0  0  0  0
    3.6196  -18.0388   20.6334 C   0  0  0  0  0  0  0  0  0  0  0  0
    4.7396  -18.5410   21.2110 N   0  0  0  0  0  0  0  0  0  0  0  0
    8.8263  -16.3514   22.9151 C   0  0  0  0  0  0  0  0  0  0  0  0
   10.0467  -16.6482   22.6766 O   0  0  0  0  0  0  0  0  0  0  0  0
    8.5489  -15.9567   24.2475 N   0  0  0  0  0  0  0  0  0  0  0  0
    9.5952  -15.8469   25.2574 C   0  0  1  0  0  0  0  0  0  0  0  0
    9.0200  -15.2576   26.5274 C   0  0  0  0  0  0  0  0  0  0  0  0
   10.0567  -15.1071   27.5967 C   0  0  0  0  0  0  0  0  0  0  0  0
    9.4257  -14.3991   28.7785 C   0  0  0  0  0  0  0  0  0  0  0  0
   10.4982  -14.2246   29.8338 C   0  0  0  0  0  0  0  0  0  0  0  0
    9.9538  -13.4419   30.9307 N   0  0  0  0  0  0  0  0  0  0  0  0
   10.0508  -17.2248   25.5704 C   0  0  0  0  0  0  0  0  0  0  0  0
   11.3580  -17.4993   25.8822 O   0  0  0  0  0  0  0  0  0  0  0  0
    9.2565  -18.2038   25.5634 O   0  0  0  0  0  0  0  0  0  0  0  0
  2  1  1  6
  2  3  1  0
  3  4  1  0
  4  5  2  0
  4  8  1  0
  5  6  1  0
  6  7  1  0
  8  7  2  0
  9  2  1  0
  9 10  2  0
 11  9  1  0
 12 11  1  0
 12 13  1  6
 14 13  1  0
 14 15  2  0
 16 15  1  0
 17 16  1  0
 18 17  2  0
 18 14  1  0
 19 12  1  0
 20 19  2  0
 21 19  1  0
 22 21  1  0
 22 28  1  0
 22 23  1  1
 24 25  1  0
 24 23  1  0
 25 26  1  0
 27 26  1  0
 28 29  1  0
 30 28  2  0
M  END
$$$$
