HHK.pdb
     RDKit          3D

 30 31  0  0  1  0  0  0  0  0999 V2000
    9.4708  -17.4236   18.6446 N   0  0  0  0  0  0  0  0  0  0  0  0
    9.5673  -16.6891   19.8682 C   0  0  1  0  0  0  0  0  0  0  0  0
    8.2958  -15.8895   20.0501 C   0  0  0  0  0  0  0  0  0  0  0  0
    8.4187  -14.5309   19.5111 C   0  0  0  0  0  0  0  0  0  0  0  0
    9.5116  -13.9736   18.8755 C   0  0  0  0  0  0  0  0  0  0  0  0
    9.2340  -12.7042   18.5279 N   0  0  0  0  0  0  0  0  0  0  0  0
    7.9832  -12.4452   18.9317 C   0  0  0  0  0  0  0  0  0  0  0  0
    7.4771  -13.5535   19.5328 N   0  0  0  0  0  0  0  0  0  0  0  0
    9.6981  -17.5943   21.0674 C   0  0  0  0  0  0  0  0  0  0  0  0
    8.8738  -18.5189   21.1799 O   0  0  0  0  0  0  0  0  0  0  0  0
   10.6922  -17.4210   22.0213 N   0  0  0  0  0  0  0  0  0  0  0  0
   11.0667  -18.1718   23.1582 C   0  0  1  0  0  0  0  0  0  0  0  0
   11.5357  -19.5861   22.9234 C   0  0  0  0  0  0  0  0  0  0  0  0
   10.5064  -20.4617   22.3412 C   0  0  0  0  0  0  0  0  0  0  0  0
    9.1497  -20.3774   22.5518 C   0  0  0  0  0  0  0  0  0  0  0  0
    8.5404  -21.3917   21.9104 N   0  0  0  0  0  0  0  0  0  0  0  0
    9.4856  -22.1182   21.2964 C   0  0  0  0  0  0  0  0  0  0  0  0
   10.6811  -21.5379   21.5687 N   0  0  0  0  0  0  0  0  0  0  0  0
   11.8776  -17.5027   24.1658 C   0  0  0  0  0  0  0  0  0  0  0  0
   12.9970  -17.9741   24.5645 O   0  0  0  0  0  0  0  0  0  0  0  0
   11.4840  -16.2837   24.7719 N   0  0  0  0  0  0  0  0  0  0  0  0
   10.9458  -16.2297   26.1263 C   0  0  1  0  0  0  0  0  0  0  0  0
    9.4358  -16.3228   26.0803 C   0  0  0  0  0  0  0  0  0  0  0  0
    8.7983  -15.7138   27.2901 C   0  0  0  0  0  0  0  0  0  0  0  0
    8.5058  -14.2567   26.9943 C   0  0  0  0  0  0  0  0  0  0  0  0
    8.0170  -13.6179   28.2778 C   0  0  0  0  0  0  0  0  0  0  0  0
    7.8017  -12.2000   28.0435 N   0  0  0  0  0  0  0  0  0  0  0  0
   11.4458  -17.4278   26.8464 C   0  0  0  0  0  0  0  0  0  0  0  0
   11.9188  -17.3521   28.1317 O   0  0  0  0  0  0  0  0  0  0  0  0
   11.4579  -18.5680   26.3087 O   0  0  0  0  0  0  0  0  0  0  0  0
  2  1  1  6
  2  3  1  0
  3  4  1  0
  4  5  2  0
  4  8  1  0
  5  6  1  0
  6  7  1  0
  8  7  2  0
  9  2  1  0
  9 10  2  0
 11  9  1  0
 12 11  1  0
 12 13  1  6
 14 13  1  0
 14 15  2  0
 16 15  1  0
 17 16  1  0
 18 17  2  0
 18 14  1  0
 19 12  1  0
 20 19  2  0
 21 19  1  0
 22 21  1  0
 22 28  1  0
 22 23  1  6
 24 25  1  0
 24 23  1  0
 25 26  1  0
 27 26  1  0
 28 29  1  0
 30 28  2  0
M  END
$$$$
