HHK.pdb
     RDKit          3D

 30 31  0  0  1  0  0  0  0  0999 V2000
    8.5360  -16.8442   17.8630 N   0  0  0  0  0  0  0  0  0  0  0  0
    8.7486  -15.4915   18.2762 C   0  0  1  0  0  0  0  0  0  0  0  0
    7.7753  -14.6033   17.5328 C   0  0  0  0  0  0  0  0  0  0  0  0
    8.1531  -14.4300   16.1260 C   0  0  0  0  0  0  0  0  0  0  0  0
    9.2579  -14.9520   15.4812 C   0  0  0  0  0  0  0  0  0  0  0  0
    9.2532  -14.5669   14.1925 N   0  0  0  0  0  0  0  0  0  0  0  0
    8.1642  -13.8090   14.0071 C   0  0  0  0  0  0  0  0  0  0  0  0
    7.4862  -13.7195   15.1812 N   0  0  0  0  0  0  0  0  0  0  0  0
    8.4900  -15.2983   19.7495 C   0  0  0  0  0  0  0  0  0  0  0  0
    8.7957  -14.1994   20.2455 O   0  0  0  0  0  0  0  0  0  0  0  0
    7.9332  -16.2944   20.5406 N   0  0  0  0  0  0  0  0  0  0  0  0
    8.4444  -17.0616   21.6114 C   0  0  1  0  0  0  0  0  0  0  0  0
    9.1733  -18.3341   21.2578 C   0  0  0  0  0  0  0  0  0  0  0  0
    8.3216  -19.3426   20.6076 C   0  0  0  0  0  0  0  0  0  0  0  0
    6.9971  -19.5915   20.8830 C   0  0  0  0  0  0  0  0  0  0  0  0
    6.5804  -20.6324   20.1385 N   0  0  0  0  0  0  0  0  0  0  0  0
    7.6162  -21.0487   19.3955 C   0  0  0  0  0  0  0  0  0  0  0  0
    8.6725  -20.2512   19.6930 N   0  0  0  0  0  0  0  0  0  0  0  0
    9.1145  -16.3463   22.6883 C   0  0  0  0  0  0  0  0  0  0  0  0
   10.2655  -15.8104   22.5392 O   0  0  0  0  0  0  0  0  0  0  0  0
    8.5376  -16.1932   23.9736 N   0  0  0  0  0  0  0  0  0  0  0  0
    9.1655  -15.3872   25.0142 C   0  0  1  0  0  0  0  0  0  0  0  0
    8.1050  -14.8324   25.9408 C   0  0  0  0  0  0  0  0  0  0  0  0
    7.7071  -13.4382   25.5684 C   0  0  0  0  0  0  0  0  0  0  0  0
    6.6679  -12.9563   26.5602 C   0  0  0  0  0  0  0  0  0  0  0  0
    6.3624  -11.5084   26.2365 C   0  0  0  0  0  0  0  0  0  0  0  0
    5.2600  -11.0635   27.0724 N   0  0  0  0  0  0  0  0  0  0  0  0
   10.0272  -16.2943   25.8133 C   0  0  0  0  0  0  0  0  0  0  0  0
   10.9923  -15.8123   26.6605 O   0  0  0  0  0  0  0  0  0  0  0  0
    9.9103  -17.5479   25.7488 O   0  0  0  0  0  0  0  0  0  0  0  0
  2  1  1  6
  2  3  1  0
  3  4  1  0
  4  5  2  0
  4  8  1  0
  5  6  1  0
  6  7  1  0
  8  7  2  0
  9  2  1  0
  9 10  2  0
 11  9  1  0
 12 11  1  0
 12 13  1  6
 14 13  1  0
 14 15  2  0
 16 15  1  0
 17 16  1  0
 18 17  2  0
 18 14  1  0
 19 12  1  0
 20 19  2  0
 21 19  1  0
 22 21  1  0
 22 28  1  0
 22 23  1  1
 24 25  1  0
 24 23  1  0
 25 26  1  0
 27 26  1  0
 28 29  1  0
 30 28  2  0
M  END
$$$$
