HHK.pdb
     RDKit          3D

 30 31  0  0  1  0  0  0  0  0999 V2000
    7.9584  -16.9552   18.9126 N   0  0  0  0  0  0  0  0  0  0  0  0
    8.9028  -16.3296   19.7858 C   0  0  1  0  0  0  0  0  0  0  0  0
    8.3084  -15.0310   20.2852 C   0  0  0  0  0  0  0  0  0  0  0  0
    8.0362  -14.0938   19.1900 C   0  0  0  0  0  0  0  0  0  0  0  0
    8.3268  -14.2591   17.8495 C   0  0  0  0  0  0  0  0  0  0  0  0
    7.9210  -13.1766   17.1619 N   0  0  0  0  0  0  0  0  0  0  0  0
    7.3773  -12.3261   18.0426 C   0  0  0  0  0  0  0  0  0  0  0  0
    7.4428  -12.8766   19.2831 N   0  0  0  0  0  0  0  0  0  0  0  0
    9.2051  -17.1747   20.9979 C   0  0  0  0  0  0  0  0  0  0  0  0
    8.2606  -17.4366   21.7637 O   0  0  0  0  0  0  0  0  0  0  0  0
   10.4805  -17.6526   21.2683 N   0  0  0  0  0  0  0  0  0  0  0  0
   11.0156  -18.3891   22.3489 C   0  0  1  0  0  0  0  0  0  0  0  0
   11.8352  -19.6092   22.0096 C   0  0  0  0  0  0  0  0  0  0  0  0
   11.0851  -20.6402   21.2752 C   0  0  0  0  0  0  0  0  0  0  0  0
    9.7226  -20.6812   21.0904 C   0  0  0  0  0  0  0  0  0  0  0  0
    9.4010  -21.8104   20.4324 N   0  0  0  0  0  0  0  0  0  0  0  0
   10.5345  -22.4869   20.1961 C   0  0  0  0  0  0  0  0  0  0  0  0
   11.5544  -21.7597   20.7167 N   0  0  0  0  0  0  0  0  0  0  0  0
   11.6110  -17.6359   23.4437 C   0  0  0  0  0  0  0  0  0  0  0  0
   12.5402  -16.7782   23.2563 O   0  0  0  0  0  0  0  0  0  0  0  0
   11.2013  -17.7995   24.7904 N   0  0  0  0  0  0  0  0  0  0  0  0
   11.7908  -17.0290   25.8792 C   0  0  1  0  0  0  0  0  0  0  0  0
   10.7029  -16.5609   26.8217 C   0  0  0  0  0  0  0  0  0  0  0  0
   11.2637  -15.9275   28.0566 C   0  0  0  0  0  0  0  0  0  0  0  0
   10.1104  -15.5194   28.9508 C   0  0  0  0  0  0  0  0  0  0  0  0
   10.6942  -14.8176   30.1596 C   0  0  0  0  0  0  0  0  0  0  0  0
    9.6062  -14.2998   30.9720 N   0  0  0  0  0  0  0  0  0  0  0  0
   12.6758  -17.9475   26.6391 C   0  0  0  0  0  0  0  0  0  0  0  0
   13.6604  -17.4775   27.4704 O   0  0  0  0  0  0  0  0  0  0  0  0
   12.5616  -19.2001   26.5541 O   0  0  0  0  0  0  0  0  0  0  0  0
  2  1  1  6
  2  3  1  0
  3  4  1  0
  4  5  2  0
  4  8  1  0
  5  6  1  0
  6  7  1  0
  8  7  2  0
  9  2  1  0
  9 10  2  0
 11  9  1  0
 12 11  1  0
 12 13  1  6
 14 13  1  0
 14 15  2  0
 16 15  1  0
 17 16  1  0
 18 17  2  0
 18 14  1  0
 19 12  1  0
 20 19  2  0
 21 19  1  0
 22 21  1  0
 22 28  1  0
 22 23  1  1
 24 25  1  0
 24 23  1  0
 25 26  1  0
 27 26  1  0
 28 29  1  0
 30 28  2  0
M  END
$$$$
