HHK.pdb
     RDKit          3D

 30 31  0  0  1  0  0  0  0  0999 V2000
   14.4210  -16.1547   19.5770 N   0  0  0  0  0  0  0  0  0  0  0  0
   13.6123  -15.0035   19.3188 C   0  0  1  0  0  0  0  0  0  0  0  0
   13.4463  -14.8589   17.8219 C   0  0  0  0  0  0  0  0  0  0  0  0
   14.7355  -14.8695   17.1221 C   0  0  0  0  0  0  0  0  0  0  0  0
   15.1222  -15.6946   16.0836 C   0  0  0  0  0  0  0  0  0  0  0  0
   16.3800  -15.3956   15.7127 N   0  0  0  0  0  0  0  0  0  0  0  0
   16.7995  -14.3945   16.4979 C   0  0  0  0  0  0  0  0  0  0  0  0
   15.8031  -14.0663   17.3613 N   0  0  0  0  0  0  0  0  0  0  0  0
   12.2303  -15.1339   19.9083 C   0  0  0  0  0  0  0  0  0  0  0  0
   11.4033  -14.2471   19.6314 O   0  0  0  0  0  0  0  0  0  0  0  0
   11.8728  -16.1942   20.7307 N   0  0  0  0  0  0  0  0  0  0  0  0
   10.6787  -16.5110   21.4164 C   0  0  1  0  0  0  0  0  0  0  0  0
   10.2036  -17.9408   21.3438 C   0  0  0  0  0  0  0  0  0  0  0  0
    9.8290  -18.3715   19.9875 C   0  0  0  0  0  0  0  0  0  0  0  0
   10.6089  -19.0980   19.1180 C   0  0  0  0  0  0  0  0  0  0  0  0
    9.9551  -19.2356   17.9496 N   0  0  0  0  0  0  0  0  0  0  0  0
    8.7745  -18.6097   18.0616 C   0  0  0  0  0  0  0  0  0  0  0  0
    8.7120  -18.0869   19.3118 N   0  0  0  0  0  0  0  0  0  0  0  0
   10.5078  -15.9609   22.7538 C   0  0  0  0  0  0  0  0  0  0  0  0
   11.4348  -16.0034   23.6330 O   0  0  0  0  0  0  0  0  0  0  0  0
    9.3049  -15.3396   23.1725 N   0  0  0  0  0  0  0  0  0  0  0  0
    9.1626  -14.7362   24.4924 C   0  0  1  0  0  0  0  0  0  0  0  0
    7.8855  -13.9259   24.5491 C   0  0  0  0  0  0  0  0  0  0  0  0
    7.6258  -13.3816   25.9192 C   0  0  0  0  0  0  0  0  0  0  0  0
    6.3651  -12.5424   25.8695 C   0  0  0  0  0  0  0  0  0  0  0  0
    6.1833  -11.9077   27.2327 C   0  0  0  0  0  0  0  0  0  0  0  0
    4.9521  -11.1356   27.2301 N   0  0  0  0  0  0  0  0  0  0  0  0
    9.0323  -15.8449   25.4712 C   0  0  0  0  0  0  0  0  0  0  0  0
    9.4746  -15.7221   26.7638 O   0  0  0  0  0  0  0  0  0  0  0  0
    8.5095  -16.9484   25.1579 O   0  0  0  0  0  0  0  0  0  0  0  0
  2  1  1  6
  2  3  1  0
  3  4  1  0
  4  5  2  0
  4  8  1  0
  5  6  1  0
  6  7  1  0
  8  7  2  0
  9  2  1  0
  9 10  2  0
 11  9  1  0
 12 11  1  0
 12 13  1  1
 14 13  1  0
 14 15  2  0
 16 15  1  0
 17 16  1  0
 18 17  2  0
 18 14  1  0
 19 12  1  0
 20 19  2  0
 21 19  1  0
 22 21  1  0
 22 28  1  0
 22 23  1  6
 24 25  1  0
 24 23  1  0
 25 26  1  0
 27 26  1  0
 28 29  1  0
 30 28  2  0
M  END
$$$$
