HHK.pdb
     RDKit          3D

 30 31  0  0  1  0  0  0  0  0999 V2000
   11.1408  -15.5733   11.8283 N   0  0  0  0  0  0  0  0  0  0  0  0
   10.7527  -16.7331   12.5698 C   0  0  1  0  0  0  0  0  0  0  0  0
   11.4500  -17.9379   11.9771 C   0  0  0  0  0  0  0  0  0  0  0  0
   10.8871  -18.3141   10.6759 C   0  0  0  0  0  0  0  0  0  0  0  0
   10.3747  -17.4738    9.7062 C   0  0  0  0  0  0  0  0  0  0  0  0
    9.9548  -18.1998    8.6546 N   0  0  0  0  0  0  0  0  0  0  0  0
   10.1916  -19.4872    8.9393 C   0  0  0  0  0  0  0  0  0  0  0  0
   10.7604  -19.5675   10.1706 N   0  0  0  0  0  0  0  0  0  0  0  0
   11.1660  -16.6485   14.0178 C   0  0  0  0  0  0  0  0  0  0  0  0
   12.2168  -16.0364   14.2788 O   0  0  0  0  0  0  0  0  0  0  0  0
   10.4180  -17.2240   15.0365 N   0  0  0  0  0  0  0  0  0  0  0  0
   10.5694  -17.2395   16.4412 C   0  0  1  0  0  0  0  0  0  0  0  0
    9.3611  -16.8722   17.2663 C   0  0  0  0  0  0  0  0  0  0  0  0
    8.8820  -15.5003   17.0354 C   0  0  0  0  0  0  0  0  0  0  0  0
    9.0988  -14.4129   17.8494 C   0  0  0  0  0  0  0  0  0  0  0  0
    8.4453  -13.3490   17.3468 N   0  0  0  0  0  0  0  0  0  0  0  0
    7.8176  -13.7413   16.2287 C   0  0  0  0  0  0  0  0  0  0  0  0
    8.0937  -15.0576   16.0515 N   0  0  0  0  0  0  0  0  0  0  0  0
   11.2913  -18.3612   17.0251 C   0  0  0  0  0  0  0  0  0  0  0  0
   11.0924  -19.5684   16.6545 O   0  0  0  0  0  0  0  0  0  0  0  0
   12.2642  -18.1929   18.0417 N   0  0  0  0  0  0  0  0  0  0  0  0
   13.0221  -19.3151   18.5830 C   0  0  1  0  0  0  0  0  0  0  0  0
   14.0790  -18.8047   19.5387 C   0  0  0  0  0  0  0  0  0  0  0  0
   15.0802  -19.8620   19.8859 C   0  0  0  0  0  0  0  0  0  0  0  0
   16.0672  -19.2791   20.8768 C   0  0  0  0  0  0  0  0  0  0  0  0
   17.1465  -20.3157   21.1119 C   0  0  0  0  0  0  0  0  0  0  0  0
   18.1763  -19.7368   21.9583 N   0  0  0  0  0  0  0  0  0  0  0  0
   12.0754  -20.1479   19.3668 C   0  0  0  0  0  0  0  0  0  0  0  0
   10.8186  -19.7028   19.6888 O   0  0  0  0  0  0  0  0  0  0  0  0
   12.3846  -21.3013   19.7713 O   0  0  0  0  0  0  0  0  0  0  0  0
  2  1  1  6
  2  3  1  0
  3  4  1  0
  4  5  2  0
  4  8  1  0
  5  6  1  0
  6  7  1  0
  8  7  2  0
  9  2  1  0
  9 10  2  0
 11  9  1  0
 12 11  1  0
 12 13  1  1
 14 13  1  0
 14 15  2  0
 16 15  1  0
 17 16  1  0
 18 17  2  0
 18 14  1  0
 19 12  1  0
 20 19  2  0
 21 19  1  0
 22 21  1  0
 22 28  1  0
 22 23  1  1
 24 25  1  0
 24 23  1  0
 25 26  1  0
 27 26  1  0
 28 29  1  0
 30 28  2  0
M  END
$$$$
