NYN.pdb
     RDKit          3D

 29 29  0  0  1  0  0  0  0  0999 V2000
   25.3366  -15.8316  -20.1640 N   0  0  0  0  0  0  0  0  0  0  0  0
   24.0829  -15.3640  -19.7329 C   0  0  0  0  0  0  0  0  0  0  0  0
   23.0731  -15.7539  -20.3998 O   0  0  0  0  0  0  0  0  0  0  0  0
   23.8251  -14.4773  -18.5978 C   0  0  0  0  0  0  0  0  0  0  0  0
   25.0620  -13.9711  -17.9211 C   0  0  2  0  0  0  0  0  0  0  0  0
   25.9390  -15.0449  -17.5592 N   0  0  0  0  0  0  0  0  0  0  0  0
   24.8106  -13.0878  -16.7713 C   0  0  0  0  0  0  0  0  0  0  0  0
   24.1845  -13.4552  -15.7480 O   0  0  0  0  0  0  0  0  0  0  0  0
   31.1975  -10.6050  -17.7717 O   0  0  0  0  0  0  0  0  0  0  0  0
   29.9767  -10.5692  -17.0674 C   0  0  0  0  0  0  0  0  0  0  0  0
   29.5968  -11.6094  -16.2512 C   0  0  0  0  0  0  0  0  0  0  0  0
   28.3888  -11.5685  -15.5573 C   0  0  0  0  0  0  0  0  0  0  0  0
   27.5303  -10.4957  -15.6569 C   0  0  0  0  0  0  0  0  0  0  0  0
   26.2799  -10.4945  -14.9142 C   0  0  0  0  0  0  0  0  0  0  0  0
   25.0509  -10.8209  -15.6867 C   0  0  2  0  0  0  0  0  0  0  0  0
   25.2850  -11.7405  -16.7827 N   0  0  0  0  0  0  0  0  0  0  0  0
   24.2456   -9.6471  -16.1126 C   0  0  0  0  0  0  0  0  0  0  0  0
   24.4030   -9.0925  -17.2392 O   0  0  0  0  0  0  0  0  0  0  0  0
   27.9263   -9.4621  -16.4789 C   0  0  0  0  0  0  0  0  0  0  0  0
   29.1248   -9.4934  -17.1726 C   0  0  0  0  0  0  0  0  0  0  0  0
   20.8683   -6.4418  -18.2949 N   0  0  0  0  0  0  0  0  0  0  0  0
   20.5148   -7.3352  -17.2544 C   0  0  0  0  0  0  0  0  0  0  0  0
   19.4084   -7.2067  -16.6944 O   0  0  0  0  0  0  0  0  0  0  0  0
   21.4531   -8.3897  -16.8572 C   0  0  0  0  0  0  0  0  0  0  0  0
   22.4385   -7.9416  -15.7705 C   0  0  2  0  0  0  0  0  0  0  0  0
   23.2381   -9.0551  -15.2995 N   0  0  0  0  0  0  0  0  0  0  0  0
   21.6160   -7.4795  -14.6458 C   0  0  0  0  0  0  0  0  0  0  0  0
   21.5429   -8.2195  -13.4848 O   0  0  0  0  0  0  0  0  0  0  0  0
   20.9776   -6.4203  -14.7245 O   0  0  0  0  0  0  0  0  0  0  0  0
  2  1  1  0
  3  2  2  0
  4  5  1  0
  4  2  1  0
  5  6  1  1
  7  5  1  0
  7  8  2  0
  9 10  1  0
 10 11  2  0
 11 12  1  0
 13 12  2  0
 13 14  1  0
 15 14  1  6
 15 16  1  0
 16  7  1  0
 17 18  2  0
 17 15  1  0
 19 13  1  0
 20 10  1  0
 20 19  2  0
 22 23  2  0
 22 21  1  0
 24 22  1  0
 25 26  1  0
 25 24  1  6
 26 17  1  0
 27 25  1  0
 28 27  1  0
 29 27  2  0
M  END
$$$$
