NYN.pdb
     RDKit          3D

 29 29  0  0  1  0  0  0  0  0999 V2000
   17.9978   -9.2587  -23.4884 N   0  0  0  0  0  0  0  0  0  0  0  0
   18.8881   -9.2737  -22.4006 C   0  0  0  0  0  0  0  0  0  0  0  0
   20.1222   -9.3975  -22.6803 O   0  0  0  0  0  0  0  0  0  0  0  0
   18.5378   -9.1613  -20.9843 C   0  0  0  0  0  0  0  0  0  0  0  0
   19.2678  -10.1192  -20.0936 C   0  0  2  0  0  0  0  0  0  0  0  0
   18.8384  -11.4689  -20.3107 N   0  0  0  0  0  0  0  0  0  0  0  0
   19.2232   -9.7774  -18.6630 C   0  0  0  0  0  0  0  0  0  0  0  0
   18.1558   -9.7075  -18.0074 O   0  0  0  0  0  0  0  0  0  0  0  0
   17.6813  -15.1547  -16.2441 O   0  0  0  0  0  0  0  0  0  0  0  0
   18.4882  -14.0042  -16.1305 C   0  0  0  0  0  0  0  0  0  0  0  0
   18.1780  -13.0044  -15.2378 C   0  0  0  0  0  0  0  0  0  0  0  0
   18.9794  -11.8693  -15.1298 C   0  0  0  0  0  0  0  0  0  0  0  0
   20.1061  -11.6996  -15.9042 C   0  0  0  0  0  0  0  0  0  0  0  0
   20.9142  -10.4993  -15.7579 C   0  0  0  0  0  0  0  0  0  0  0  0
   20.4631   -9.3013  -16.5162 C   0  0  2  0  0  0  0  0  0  0  0  0
   20.4312   -9.5044  -17.9512 N   0  0  0  0  0  0  0  0  0  0  0  0
   21.1465   -8.0330  -16.1527 C   0  0  0  0  0  0  0  0  0  0  0  0
   22.2631   -7.7012  -16.6474 O   0  0  0  0  0  0  0  0  0  0  0  0
   20.4023  -12.7108  -16.7933 C   0  0  0  0  0  0  0  0  0  0  0  0
   19.6122  -13.8427  -16.9080 C   0  0  0  0  0  0  0  0  0  0  0  0
   22.4617   -3.5118  -13.9964 N   0  0  0  0  0  0  0  0  0  0  0  0
   21.1256   -3.4393  -14.4606 C   0  0  0  0  0  0  0  0  0  0  0  0
   20.5347   -2.3417  -14.4387 O   0  0  0  0  0  0  0  0  0  0  0  0
   20.4655   -4.6514  -14.9558 C   0  0  0  0  0  0  0  0  0  0  0  0
   21.3415   -5.9051  -14.8390 C   0  0  2  0  0  0  0  0  0  0  0  0
   20.6079   -7.0929  -15.2293 N   0  0  0  0  0  0  0  0  0  0  0  0
   21.6710   -6.0357  -13.4144 C   0  0  0  0  0  0  0  0  0  0  0  0
   22.5604   -5.1650  -12.8216 O   0  0  0  0  0  0  0  0  0  0  0  0
   21.1551   -6.9284  -12.7269 O   0  0  0  0  0  0  0  0  0  0  0  0
  2  1  1  0
  3  2  2  0
  4  5  1  0
  4  2  1  0
  5  6  1  1
  7  5  1  0
  7  8  2  0
  9 10  1  0
 10 11  2  0
 11 12  1  0
 13 12  2  0
 13 14  1  0
 15 14  1  1
 15 16  1  0
 16  7  1  0
 17 18  2  0
 17 15  1  0
 19 13  1  0
 20 10  1  0
 20 19  2  0
 22 23  2  0
 22 21  1  0
 24 22  1  0
 25 26  1  0
 25 24  1  1
 26 17  1  0
 27 25  1  0
 28 27  1  0
 29 27  2  0
M  END
$$$$
