NYN.pdb
     RDKit          3D

 29 29  0  0  1  0  0  0  0  0999 V2000
   27.9439  -15.5939  -15.1462 N   0  0  0  0  0  0  0  0  0  0  0  0
   26.6307  -15.8442  -15.5814 C   0  0  0  0  0  0  0  0  0  0  0  0
   26.0127  -14.8662  -16.1088 O   0  0  0  0  0  0  0  0  0  0  0  0
   25.9073  -17.1127  -15.4885 C   0  0  0  0  0  0  0  0  0  0  0  0
   26.6709  -18.2063  -14.8067 C   0  0  2  0  0  0  0  0  0  0  0  0
   27.7385  -18.6926  -15.6294 N   0  0  0  0  0  0  0  0  0  0  0  0
   25.8393  -19.3162  -14.3147 C   0  0  0  0  0  0  0  0  0  0  0  0
   25.5268  -20.3047  -15.0214 O   0  0  0  0  0  0  0  0  0  0  0  0
   30.6020  -21.8601  -10.3793 O   0  0  0  0  0  0  0  0  0  0  0  0
   29.2286  -21.5814  -10.5326 C   0  0  0  0  0  0  0  0  0  0  0  0
   28.4360  -22.3471  -11.3560 C   0  0  0  0  0  0  0  0  0  0  0  0
   27.0787  -22.0668  -11.5036 C   0  0  0  0  0  0  0  0  0  0  0  0
   26.4767  -21.0213  -10.8385 C   0  0  0  0  0  0  0  0  0  0  0  0
   25.0568  -20.7654  -11.0213 C   0  0  0  0  0  0  0  0  0  0  0  0
   24.6187  -20.4204  -12.4007 C   0  0  2  0  0  0  0  0  0  0  0  0
   25.3442  -19.3044  -12.9750 N   0  0  0  0  0  0  0  0  0  0  0  0
   23.1505  -20.2740  -12.5760 C   0  0  0  0  0  0  0  0  0  0  0  0
   22.5444  -19.1921  -12.3234 O   0  0  0  0  0  0  0  0  0  0  0  0
   27.2853  -20.2643  -10.0176 C   0  0  0  0  0  0  0  0  0  0  0  0
   28.6351  -20.5348   -9.8643 C   0  0  0  0  0  0  0  0  0  0  0  0
   21.2679  -20.4412  -15.9215 N   0  0  0  0  0  0  0  0  0  0  0  0
   20.6133  -21.6750  -15.6872 C   0  0  0  0  0  0  0  0  0  0  0  0
   20.2708  -22.3743  -16.6607 O   0  0  0  0  0  0  0  0  0  0  0  0
   20.3520  -22.1045  -14.3096 C   0  0  0  0  0  0  0  0  0  0  0  0
   20.8924  -21.1250  -13.2602 C   0  0  2  0  0  0  0  0  0  0  0  0
   22.3110  -21.3258  -13.0402 N   0  0  0  0  0  0  0  0  0  0  0  0
   20.1990  -21.4520  -12.0083 C   0  0  0  0  0  0  0  0  0  0  0  0
   20.7308  -22.3798  -11.1382 O   0  0  0  0  0  0  0  0  0  0  0  0
   19.1285  -20.8996  -11.7173 O   0  0  0  0  0  0  0  0  0  0  0  0
  2  1  1  0
  3  2  2  0
  4  5  1  0
  4  2  1  0
  5  6  1  6
  7  5  1  0
  7  8  2  0
  9 10  1  0
 10 11  2  0
 11 12  1  0
 13 12  2  0
 13 14  1  0
 15 14  1  1
 15 16  1  0
 16  7  1  0
 17 18  2  0
 17 15  1  0
 19 13  1  0
 20 10  1  0
 20 19  2  0
 22 23  2  0
 22 21  1  0
 24 22  1  0
 25 26  1  0
 25 24  1  6
 26 17  1  0
 27 25  1  0
 28 27  1  0
 29 27  2  0
M  END
$$$$
