NYN.pdb
     RDKit          3D

 29 29  0  0  1  0  0  0  0  0999 V2000
   22.4123  -15.8607   15.8269 N   0  0  0  0  0  0  0  0  0  0  0  0
   22.5303  -16.1531   14.4569 C   0  0  0  0  0  0  0  0  0  0  0  0
   23.6944  -16.4473   14.0386 O   0  0  0  0  0  0  0  0  0  0  0  0
   21.4515  -16.1529   13.4683 C   0  0  0  0  0  0  0  0  0  0  0  0
   21.5516  -15.0581   12.4508 C   0  0  2  0  0  0  0  0  0  0  0  0
   21.2969  -13.7744   13.0345 N   0  0  0  0  0  0  0  0  0  0  0  0
   20.7250  -15.2628   11.2506 C   0  0  0  0  0  0  0  0  0  0  0  0
   19.5610  -14.8095   11.1339 O   0  0  0  0  0  0  0  0  0  0  0  0
   21.3506  -10.0050    7.2713 O   0  0  0  0  0  0  0  0  0  0  0  0
   21.2899  -11.4096    7.3768 C   0  0  0  0  0  0  0  0  0  0  0  0
   22.3325  -12.1271    7.9159 C   0  0  0  0  0  0  0  0  0  0  0  0
   22.2669  -13.5156    8.0176 C   0  0  0  0  0  0  0  0  0  0  0  0
   21.1666  -14.2239    7.5871 C   0  0  0  0  0  0  0  0  0  0  0  0
   21.1403  -15.6726    7.7132 C   0  0  0  0  0  0  0  0  0  0  0  0
   20.4770  -16.2192    8.9276 C   0  0  2  0  0  0  0  0  0  0  0  0
   21.2360  -16.0084   10.1446 N   0  0  0  0  0  0  0  0  0  0  0  0
   20.0037  -17.6226    8.8077 C   0  0  0  0  0  0  0  0  0  0  0  0
   20.7835  -18.6116    8.9315 O   0  0  0  0  0  0  0  0  0  0  0  0
   20.1310  -13.4895    7.0495 C   0  0  0  0  0  0  0  0  0  0  0  0
   20.1867  -12.1095    6.9442 C   0  0  0  0  0  0  0  0  0  0  0  0
   17.1390  -22.0116    9.7667 N   0  0  0  0  0  0  0  0  0  0  0  0
   16.4183  -20.9448    9.1766 C   0  0  0  0  0  0  0  0  0  0  0  0
   15.3544  -21.1912    8.5751 O   0  0  0  0  0  0  0  0  0  0  0  0
   16.9350  -19.5767    9.2837 C   0  0  0  0  0  0  0  0  0  0  0  0
   18.2179  -19.3520    8.4735 C   0  0  2  0  0  0  0  0  0  0  0  0
   18.6475  -17.9696    8.5488 N   0  0  0  0  0  0  0  0  0  0  0  0
   17.8664  -19.6314    7.0758 C   0  0  0  0  0  0  0  0  0  0  0  0
   17.6554  -18.5967    6.1895 O   0  0  0  0  0  0  0  0  0  0  0  0
   17.7550  -20.7986    6.6746 O   0  0  0  0  0  0  0  0  0  0  0  0
  2  1  1  0
  3  2  2  0
  4  5  1  0
  4  2  1  0
  5  6  1  1
  7  5  1  0
  7  8  2  0
  9 10  1  0
 10 11  2  0
 11 12  1  0
 13 12  2  0
 13 14  1  0
 15 14  1  6
 15 16  1  0
 16  7  1  0
 17 18  2  0
 17 15  1  0
 19 13  1  0
 20 10  1  0
 20 19  2  0
 22 23  2  0
 22 21  1  0
 24 22  1  0
 25 26  1  0
 25 24  1  1
 26 17  1  0
 27 25  1  0
 28 27  1  0
 29 27  2  0
M  END
$$$$
