NYN.pdb
     RDKit          3D

 29 29  0  0  1  0  0  0  0  0999 V2000
   13.1846  -13.7303  -15.3645 N   0  0  0  0  0  0  0  0  0  0  0  0
   12.8533  -12.5710  -14.6415 C   0  0  0  0  0  0  0  0  0  0  0  0
   11.6213  -12.2591  -14.6046 O   0  0  0  0  0  0  0  0  0  0  0  0
   13.7811  -11.6913  -13.9298 C   0  0  0  0  0  0  0  0  0  0  0  0
   15.2242  -12.0560  -14.0982 C   0  0  2  0  0  0  0  0  0  0  0  0
   15.4754  -13.4062  -13.6896 N   0  0  0  0  0  0  0  0  0  0  0  0
   16.1674  -11.1281  -13.4543 C   0  0  0  0  0  0  0  0  0  0  0  0
   16.5689  -11.2676  -12.2738 O   0  0  0  0  0  0  0  0  0  0  0  0
   21.9662   -4.4017  -12.4689 O   0  0  0  0  0  0  0  0  0  0  0  0
   21.1665   -5.4647  -12.9361 C   0  0  0  0  0  0  0  0  0  0  0  0
   21.3572   -6.7495  -12.4828 C   0  0  0  0  0  0  0  0  0  0  0  0
   20.5637   -7.7964  -12.9483 C   0  0  0  0  0  0  0  0  0  0  0  0
   19.5633   -7.5933  -13.8735 C   0  0  0  0  0  0  0  0  0  0  0  0
   18.7584   -8.7148  -14.3312 C   0  0  0  0  0  0  0  0  0  0  0  0
   17.5186   -8.9983  -13.5591 C   0  0  2  0  0  0  0  0  0  0  0  0
   16.6724  -10.0022  -14.1737 N   0  0  0  0  0  0  0  0  0  0  0  0
   16.7442   -7.7979  -13.1502 C   0  0  0  0  0  0  0  0  0  0  0  0
   15.8452   -7.2917  -13.8832 O   0  0  0  0  0  0  0  0  0  0  0  0
   19.3858   -6.3000  -14.3171 C   0  0  0  0  0  0  0  0  0  0  0  0
   20.1692   -5.2529  -13.8605 C   0  0  0  0  0  0  0  0  0  0  0  0
   15.7023   -7.4053   -8.0505 N   0  0  0  0  0  0  0  0  0  0  0  0
   15.2375   -6.7506   -9.2172 C   0  0  0  0  0  0  0  0  0  0  0  0
   14.0645   -6.9420   -9.5936 O   0  0  0  0  0  0  0  0  0  0  0  0
   16.1412   -5.8639   -9.9570 C   0  0  0  0  0  0  0  0  0  0  0  0
   16.0648   -6.0574  -11.4767 C   0  0  2  0  0  0  0  0  0  0  0  0
   16.9440   -7.1245  -11.9120 N   0  0  0  0  0  0  0  0  0  0  0  0
   16.5582   -4.8076  -12.0678 C   0  0  0  0  0  0  0  0  0  0  0  0
   15.8868   -3.6224  -11.8545 O   0  0  0  0  0  0  0  0  0  0  0  0
   17.5828   -4.8008  -12.7650 O   0  0  0  0  0  0  0  0  0  0  0  0
  2  1  1  0
  3  2  2  0
  4  5  1  0
  4  2  1  0
  5  6  1  1
  7  5  1  0
  7  8  2  0
  9 10  1  0
 10 11  2  0
 11 12  1  0
 13 12  2  0
 13 14  1  0
 15 14  1  6
 15 16  1  0
 16  7  1  0
 17 18  2  0
 17 15  1  0
 19 13  1  0
 20 10  1  0
 20 19  2  0
 22 23  2  0
 22 21  1  0
 24 22  1  0
 25 26  1  0
 25 24  1  1
 26 17  1  0
 27 25  1  0
 28 27  1  0
 29 27  2  0
M  END
$$$$
