NYN.pdb
     RDKit          3D

 29 29  0  0  1  0  0  0  0  0999 V2000
   22.3110  -14.7814  -19.0886 N   0  0  0  0  0  0  0  0  0  0  0  0
   21.2031  -14.2417  -19.7648 C   0  0  0  0  0  0  0  0  0  0  0  0
   20.6236  -15.0039  -20.6014 O   0  0  0  0  0  0  0  0  0  0  0  0
   20.6521  -12.8958  -19.6025 C   0  0  0  0  0  0  0  0  0  0  0  0
   21.4393  -12.0176  -18.6790 C   0  0  2  0  0  0  0  0  0  0  0  0
   21.5710  -12.6070  -17.3796 N   0  0  0  0  0  0  0  0  0  0  0  0
   20.9440  -10.6354  -18.5813 C   0  0  0  0  0  0  0  0  0  0  0  0
   20.7520   -9.9032  -19.5819 O   0  0  0  0  0  0  0  0  0  0  0  0
   14.5998  -10.4478  -19.9935 O   0  0  0  0  0  0  0  0  0  0  0  0
   15.6343  -10.0098  -19.1416 C   0  0  0  0  0  0  0  0  0  0  0  0
   16.4094   -8.9210  -19.4673 C   0  0  0  0  0  0  0  0  0  0  0  0
   17.4307   -8.4925  -18.6213 C   0  0  0  0  0  0  0  0  0  0  0  0
   17.7067   -9.1337  -17.4336 C   0  0  0  0  0  0  0  0  0  0  0  0
   18.7815   -8.6519  -16.5805 C   0  0  0  0  0  0  0  0  0  0  0  0
   20.1552   -8.7121  -17.1489 C   0  0  2  0  0  0  0  0  0  0  0  0
   20.6572  -10.0632  -17.3043 N   0  0  0  0  0  0  0  0  0  0  0  0
   21.1484   -7.8261  -16.4885 C   0  0  0  0  0  0  0  0  0  0  0  0
   21.7972   -8.1848  -15.4628 O   0  0  0  0  0  0  0  0  0  0  0  0
   16.9205  -10.2228  -17.1227 C   0  0  0  0  0  0  0  0  0  0  0  0
   15.9032  -10.6563  -17.9568 C   0  0  0  0  0  0  0  0  0  0  0  0
   24.1700   -3.8541  -15.1245 N   0  0  0  0  0  0  0  0  0  0  0  0
   23.6094   -3.4757  -16.3688 C   0  0  0  0  0  0  0  0  0  0  0  0
   23.9200   -2.3747  -16.8642 O   0  0  0  0  0  0  0  0  0  0  0  0
   22.6781   -4.3824  -17.0477 C   0  0  0  0  0  0  0  0  0  0  0  0
   22.3953   -5.6626  -16.2516 C   0  0  2  0  0  0  0  0  0  0  0  0
   21.4526   -6.5141  -16.9498 N   0  0  0  0  0  0  0  0  0  0  0  0
   21.7590   -5.2282  -15.0020 C   0  0  0  0  0  0  0  0  0  0  0  0
   22.5233   -4.9635  -13.8855 O   0  0  0  0  0  0  0  0  0  0  0  0
   20.5290   -5.0939  -14.9339 O   0  0  0  0  0  0  0  0  0  0  0  0
  2  1  1  0
  3  2  2  0
  4  5  1  0
  4  2  1  0
  5  6  1  1
  7  5  1  0
  7  8  2  0
  9 10  1  0
 10 11  2  0
 11 12  1  0
 13 12  2  0
 13 14  1  0
 15 14  1  1
 15 16  1  0
 16  7  1  0
 17 18  2  0
 17 15  1  0
 19 13  1  0
 20 10  1  0
 20 19  2  0
 22 23  2  0
 22 21  1  0
 24 22  1  0
 25 26  1  0
 25 24  1  6
 26 17  1  0
 27 25  1  0
 28 27  1  0
 29 27  2  0
M  END
$$$$
