NYN.pdb
     RDKit          3D

 29 29  0  0  1  0  0  0  0  0999 V2000
   21.3756  -19.8076  -19.4938 N   0  0  0  0  0  0  0  0  0  0  0  0
   22.1516  -19.6455  -18.3329 C   0  0  0  0  0  0  0  0  0  0  0  0
   22.4850  -20.7092  -17.7213 O   0  0  0  0  0  0  0  0  0  0  0  0
   22.6124  -18.3801  -17.7606 C   0  0  0  0  0  0  0  0  0  0  0  0
   22.1899  -17.1676  -18.5322 C   0  0  2  0  0  0  0  0  0  0  0  0
   22.7968  -17.1335  -19.8298 N   0  0  0  0  0  0  0  0  0  0  0  0
   22.3909  -15.8932  -17.8245 C   0  0  0  0  0  0  0  0  0  0  0  0
   21.9905  -15.6884  -16.6532 O   0  0  0  0  0  0  0  0  0  0  0  0
   27.9231  -17.2125  -15.1590 O   0  0  0  0  0  0  0  0  0  0  0  0
   27.1272  -16.2167  -15.7610 C   0  0  0  0  0  0  0  0  0  0  0  0
   27.1027  -16.0566  -17.1272 C   0  0  0  0  0  0  0  0  0  0  0  0
   26.3140  -15.0704  -17.7168 C   0  0  0  0  0  0  0  0  0  0  0  0
   25.5319  -14.2207  -16.9656 C   0  0  0  0  0  0  0  0  0  0  0  0
   24.7234  -13.2060  -17.6228 C   0  0  0  0  0  0  0  0  0  0  0  0
   23.2858  -13.5327  -17.8232 C   0  0  2  0  0  0  0  0  0  0  0  0
   23.0689  -14.8130  -18.4677 N   0  0  0  0  0  0  0  0  0  0  0  0
   22.4774  -12.4547  -18.4493 C   0  0  0  0  0  0  0  0  0  0  0  0
   22.2025  -12.4471  -19.6847 O   0  0  0  0  0  0  0  0  0  0  0  0
   25.5683  -14.3948  -15.5984 C   0  0  0  0  0  0  0  0  0  0  0  0
   26.3488  -15.3720  -15.0030 C   0  0  0  0  0  0  0  0  0  0  0  0
   19.7210   -8.1506  -19.3235 N   0  0  0  0  0  0  0  0  0  0  0  0
   19.4603   -8.5308  -17.9844 C   0  0  0  0  0  0  0  0  0  0  0  0
   18.5875   -7.9178  -17.3388 O   0  0  0  0  0  0  0  0  0  0  0  0
   20.2187   -9.6336  -17.3854 C   0  0  0  0  0  0  0  0  0  0  0  0
   21.1797  -10.3096  -18.3714 C   0  0  2  0  0  0  0  0  0  0  0  0
   21.9473  -11.3528  -17.7204 N   0  0  0  0  0  0  0  0  0  0  0  0
   22.1210   -9.2665  -18.7966 C   0  0  0  0  0  0  0  0  0  0  0  0
   23.4272   -9.2839  -18.3558 O   0  0  0  0  0  0  0  0  0  0  0  0
   21.7551   -8.3581  -19.5561 O   0  0  0  0  0  0  0  0  0  0  0  0
  2  1  1  0
  3  2  2  0
  4  5  1  0
  4  2  1  0
  5  6  1  6
  7  5  1  0
  7  8  2  0
  9 10  1  0
 10 11  2  0
 11 12  1  0
 13 12  2  0
 13 14  1  0
 15 14  1  6
 15 16  1  0
 16  7  1  0
 17 18  2  0
 17 15  1  0
 19 13  1  0
 20 10  1  0
 20 19  2  0
 22 23  2  0
 22 21  1  0
 24 22  1  0
 25 26  1  0
 25 24  1  1
 26 17  1  0
 27 25  1  0
 28 27  1  0
 29 27  2  0
M  END
$$$$
