NYN.pdb
     RDKit          3D

 29 29  0  0  1  0  0  0  0  0999 V2000
   28.6343  -22.0357  -19.4522 N   0  0  0  0  0  0  0  0  0  0  0  0
   28.5545  -23.1765  -18.6345 C   0  0  0  0  0  0  0  0  0  0  0  0
   29.2746  -24.1679  -18.9736 O   0  0  0  0  0  0  0  0  0  0  0  0
   27.7289  -23.3361  -17.4370 C   0  0  0  0  0  0  0  0  0  0  0  0
   26.9605  -22.1088  -17.0532 C   0  0  2  0  0  0  0  0  0  0  0  0
   27.8185  -20.9670  -16.9384 N   0  0  0  0  0  0  0  0  0  0  0  0
   26.1262  -22.2622  -15.8508 C   0  0  0  0  0  0  0  0  0  0  0  0
   25.3778  -23.2504  -15.6566 O   0  0  0  0  0  0  0  0  0  0  0  0
   22.6524  -20.6628   -7.7800 O   0  0  0  0  0  0  0  0  0  0  0  0
   23.4573  -20.6662   -8.9375 C   0  0  0  0  0  0  0  0  0  0  0  0
   23.0746  -19.9869  -10.0708 C   0  0  0  0  0  0  0  0  0  0  0  0
   23.8744  -19.9938  -11.2121 C   0  0  0  0  0  0  0  0  0  0  0  0
   25.0714  -20.6742  -11.2557 C   0  0  0  0  0  0  0  0  0  0  0  0
   25.8750  -20.6538  -12.4678 C   0  0  0  0  0  0  0  0  0  0  0  0
   25.2916  -21.3259  -13.6600 C   0  0  2  0  0  0  0  0  0  0  0  0
   26.1404  -21.2598  -14.8334 N   0  0  0  0  0  0  0  0  0  0  0  0
   23.8886  -20.9483  -13.9710 C   0  0  0  0  0  0  0  0  0  0  0  0
   23.5871  -19.8304  -14.4821 O   0  0  0  0  0  0  0  0  0  0  0  0
   25.4399  -21.3495  -10.1116 C   0  0  0  0  0  0  0  0  0  0  0  0
   24.6520  -21.3486   -8.9724 C   0  0  0  0  0  0  0  0  0  0  0  0
   18.1980  -22.8038  -14.5852 N   0  0  0  0  0  0  0  0  0  0  0  0
   19.2652  -22.0166  -15.0825 C   0  0  0  0  0  0  0  0  0  0  0  0
   19.0062  -20.9987  -15.7541 O   0  0  0  0  0  0  0  0  0  0  0  0
   20.6484  -22.4123  -14.7992 C   0  0  0  0  0  0  0  0  0  0  0  0
   21.4163  -21.3713  -13.9749 C   0  0  2  0  0  0  0  0  0  0  0  0
   22.7772  -21.8033  -13.7254 N   0  0  0  0  0  0  0  0  0  0  0  0
   20.7302  -21.2970  -12.6792 C   0  0  0  0  0  0  0  0  0  0  0  0
   19.6684  -20.4360  -12.5006 O   0  0  0  0  0  0  0  0  0  0  0  0
   21.0955  -22.0057  -11.7304 O   0  0  0  0  0  0  0  0  0  0  0  0
  2  1  1  0
  3  2  2  0
  4  5  1  0
  4  2  1  0
  5  6  1  1
  7  5  1  0
  7  8  2  0
  9 10  1  0
 10 11  2  0
 11 12  1  0
 13 12  2  0
 13 14  1  0
 15 14  1  1
 15 16  1  0
 16  7  1  0
 17 18  2  0
 17 15  1  0
 19 13  1  0
 20 10  1  0
 20 19  2  0
 22 23  2  0
 22 21  1  0
 24 22  1  0
 25 26  1  0
 25 24  1  6
 26 17  1  0
 27 25  1  0
 28 27  1  0
 29 27  2  0
M  END
$$$$
