NYN.pdb
     RDKit          3D

 29 29  0  0  1  0  0  0  0  0999 V2000
   26.7400  -17.5069  -19.8323 N   0  0  0  0  0  0  0  0  0  0  0  0
   26.1587  -16.3915  -20.4603 C   0  0  0  0  0  0  0  0  0  0  0  0
   26.8913  -15.7607  -21.2860 O   0  0  0  0  0  0  0  0  0  0  0  0
   24.8001  -15.8864  -20.2597 C   0  0  0  0  0  0  0  0  0  0  0  0
   24.0083  -16.6439  -19.2383 C   0  0  2  0  0  0  0  0  0  0  0  0
   23.8116  -18.0075  -19.6323 N   0  0  0  0  0  0  0  0  0  0  0  0
   22.7309  -16.0148  -18.8669 C   0  0  0  0  0  0  0  0  0  0  0  0
   21.7026  -16.0753  -19.5833 O   0  0  0  0  0  0  0  0  0  0  0  0
   18.7015  -20.3719  -15.9444 O   0  0  0  0  0  0  0  0  0  0  0  0
   19.2229  -19.0620  -15.9499 C   0  0  0  0  0  0  0  0  0  0  0  0
   20.5241  -18.8139  -15.5789 C   0  0  0  0  0  0  0  0  0  0  0  0
   21.0341  -17.5168  -15.5863 C   0  0  0  0  0  0  0  0  0  0  0  0
   20.2658  -16.4367  -15.9615 C   0  0  0  0  0  0  0  0  0  0  0  0
   20.8390  -15.1001  -15.9553 C   0  0  0  0  0  0  0  0  0  0  0  0
   21.3967  -14.6131  -17.2458 C   0  0  2  0  0  0  0  0  0  0  0  0
   22.6156  -15.2912  -17.6408 N   0  0  0  0  0  0  0  0  0  0  0  0
   21.5240  -13.1371  -17.3587 C   0  0  0  0  0  0  0  0  0  0  0  0
   22.5586  -12.5168  -16.9759 O   0  0  0  0  0  0  0  0  0  0  0  0
   18.9642  -16.7031  -16.3303 C   0  0  0  0  0  0  0  0  0  0  0  0
   18.4482  -17.9885  -16.3263 C   0  0  0  0  0  0  0  0  0  0  0  0
   21.4999   -8.2241  -20.3634 N   0  0  0  0  0  0  0  0  0  0  0  0
   20.6410   -8.8640  -19.4368 C   0  0  0  0  0  0  0  0  0  0  0  0
   19.9188   -8.1666  -18.6976 O   0  0  0  0  0  0  0  0  0  0  0  0
   20.6177  -10.3285  -19.3648 C   0  0  0  0  0  0  0  0  0  0  0  0
   20.6349  -10.8615  -17.9267 C   0  0  2  0  0  0  0  0  0  0  0  0
   20.5053  -12.3050  -17.9033 N   0  0  0  0  0  0  0  0  0  0  0  0
   19.4464  -10.2991  -17.2738 C   0  0  0  0  0  0  0  0  0  0  0  0
   19.5398   -9.1390  -16.5347 O   0  0  0  0  0  0  0  0  0  0  0  0
   18.3454  -10.8582  -17.3782 O   0  0  0  0  0  0  0  0  0  0  0  0
  2  1  1  0
  3  2  2  0
  4  5  1  0
  4  2  1  0
  5  6  1  6
  7  5  1  0
  7  8  2  0
  9 10  1  0
 10 11  2  0
 11 12  1  0
 13 12  2  0
 13 14  1  0
 15 14  1  1
 15 16  1  0
 16  7  1  0
 17 18  2  0
 17 15  1  0
 19 13  1  0
 20 10  1  0
 20 19  2  0
 22 23  2  0
 22 21  1  0
 24 22  1  0
 25 26  1  0
 25 24  1  6
 26 17  1  0
 27 25  1  0
 28 27  1  0
 29 27  2  0
M  END
$$$$
