NYN.pdb
     RDKit          3D

 29 29  0  0  1  0  0  0  0  0999 V2000
   28.7992  -20.2006  -21.0612 N   0  0  0  0  0  0  0  0  0  0  0  0
   29.5869  -20.9955  -20.2102 C   0  0  0  0  0  0  0  0  0  0  0  0
   30.5603  -21.6103  -20.7497 O   0  0  0  0  0  0  0  0  0  0  0  0
   29.3992  -21.1849  -18.7714 C   0  0  0  0  0  0  0  0  0  0  0  0
   28.2185  -20.4573  -18.2054 C   0  0  2  0  0  0  0  0  0  0  0  0
   28.4360  -19.0412  -18.1832 N   0  0  0  0  0  0  0  0  0  0  0  0
   27.7772  -20.9419  -16.8879 C   0  0  0  0  0  0  0  0  0  0  0  0
   27.8540  -22.1444  -16.5383 O   0  0  0  0  0  0  0  0  0  0  0  0
   24.7257  -21.0028   -8.5062 O   0  0  0  0  0  0  0  0  0  0  0  0
   25.2974  -20.6597   -9.7484 C   0  0  0  0  0  0  0  0  0  0  0  0
   24.6245  -19.8608  -10.6437 C   0  0  0  0  0  0  0  0  0  0  0  0
   25.1947  -19.5249  -11.8702 C   0  0  0  0  0  0  0  0  0  0  0  0
   26.4446  -19.9734  -12.2370 C   0  0  0  0  0  0  0  0  0  0  0  0
   27.0018  -19.5975  -13.5267 C   0  0  0  0  0  0  0  0  0  0  0  0
   26.6491  -20.4695  -14.6795 C   0  0  2  0  0  0  0  0  0  0  0  0
   27.2288  -20.0312  -15.9338 N   0  0  0  0  0  0  0  0  0  0  0  0
   25.2016  -20.7755  -14.8167 C   0  0  0  0  0  0  0  0  0  0  0  0
   24.3967  -19.9892  -15.3960 O   0  0  0  0  0  0  0  0  0  0  0  0
   27.1050  -20.7727  -11.3282 C   0  0  0  0  0  0  0  0  0  0  0  0
   26.5468  -21.1121  -10.1068 C   0  0  0  0  0  0  0  0  0  0  0  0
   24.2299  -25.7722  -14.6812 N   0  0  0  0  0  0  0  0  0  0  0  0
   23.5749  -24.6191  -15.1780 C   0  0  0  0  0  0  0  0  0  0  0  0
   23.6001  -24.3875  -16.4027 O   0  0  0  0  0  0  0  0  0  0  0  0
   22.8824  -23.7232  -14.2462 C   0  0  0  0  0  0  0  0  0  0  0  0
   23.1922  -22.2413  -14.4924 C   0  0  2  0  0  0  0  0  0  0  0  0
   24.6046  -21.9669  -14.3161 N   0  0  0  0  0  0  0  0  0  0  0  0
   22.4638  -21.4994  -13.4561 C   0  0  0  0  0  0  0  0  0  0  0  0
   23.1501  -20.7958  -12.4893 O   0  0  0  0  0  0  0  0  0  0  0  0
   21.2247  -21.4953  -13.4363 O   0  0  0  0  0  0  0  0  0  0  0  0
  2  1  1  0
  3  2  2  0
  4  5  1  0
  4  2  1  0
  5  6  1  1
  7  5  1  0
  7  8  2  0
  9 10  1  0
 10 11  2  0
 11 12  1  0
 13 12  2  0
 13 14  1  0
 15 14  1  1
 15 16  1  0
 16  7  1  0
 17 18  2  0
 17 15  1  0
 19 13  1  0
 20 10  1  0
 20 19  2  0
 22 23  2  0
 22 21  1  0
 24 22  1  0
 25 26  1  0
 25 24  1  1
 26 17  1  0
 27 25  1  0
 28 27  1  0
 29 27  2  0
M  END
$$$$
