SKS.pdb
     RDKit          3D

 22 21  0  0  1  0  0  0  0  0999 V2000
   16.9464  -20.4720   22.3773 O   0  0  0  0  0  0  0  0  0  0  0  0
   16.9410  -21.7606   21.8501 C   0  0  0  0  0  0  0  0  0  0  0  0
   15.6319  -22.0275   21.0963 C   0  0  2  0  0  0  0  0  0  0  0  0
   15.5450  -21.1106   20.0332 N   0  0  0  0  0  0  0  0  0  0  0  0
   14.5123  -21.9954   22.0593 C   0  0  0  0  0  0  0  0  0  0  0  0
   13.8567  -20.9320   22.0935 O   0  0  0  0  0  0  0  0  0  0  0  0
   14.2090  -23.0929   22.8814 N   0  0  0  0  0  0  0  0  0  0  0  0
   13.1065  -23.2409   23.7823 C   0  0  1  0  0  0  0  0  0  0  0  0
   12.7477  -24.6539   24.1674 C   0  0  0  0  0  0  0  0  0  0  0  0
   11.5511  -24.8017   25.0288 C   0  0  0  0  0  0  0  0  0  0  0  0
   11.1533  -26.2429   25.2616 C   0  0  0  0  0  0  0  0  0  0  0  0
    9.8331  -26.3564   25.9801 C   0  0  0  0  0  0  0  0  0  0  0  0
    9.3782  -27.7046   26.1273 N   0  0  0  0  0  0  0  0  0  0  0  0
   13.2946  -22.4290   24.9966 C   0  0  0  0  0  0  0  0  0  0  0  0
   14.3749  -22.5239   25.6790 O   0  0  0  0  0  0  0  0  0  0  0  0
   10.9787  -19.1497   25.7080 O   0  0  0  0  0  0  0  0  0  0  0  0
   12.2555  -19.2500   26.2676 C   0  0  0  0  0  0  0  0  0  0  0  0
   12.5614  -20.7058   26.5979 C   0  0  2  0  0  0  0  0  0  0  0  0
   12.2967  -21.5226   25.4491 N   0  0  0  0  0  0  0  0  0  0  0  0
   11.7760  -21.0817   27.7759 C   0  0  0  0  0  0  0  0  0  0  0  0
   10.8780  -21.9506   27.6905 O   0  0  0  0  0  0  0  0  0  0  0  0
   12.0017  -20.4930   29.0060 O   0  0  0  0  0  0  0  0  0  0  0  0
  2  1  1  0
  3  5  1  0
  3  2  1  0
  3  4  1  6
  5  7  1  0
  5  6  2  0
  7  8  1  0
  8 14  1  0
  9 10  1  0
  8  9  1  1
 10 11  1  0
 11 12  1  0
 12 13  1  0
 14 15  2  0
 14 19  1  0
 17 16  1  0
 18 17  1  6
 19 18  1  0
 20 18  1  0
 20 22  1  0
 21 20  2  0
M  END
$$$$
