SKS.pdb
     RDKit          3D

 22 21  0  0  1  0  0  0  0  0999 V2000
   10.9941  -20.1085   18.7493 O   0  0  0  0  0  0  0  0  0  0  0  0
   10.0857  -19.2645   18.1164 C   0  0  0  0  0  0  0  0  0  0  0  0
   10.7400  -17.9147   17.7950 C   0  0  2  0  0  0  0  0  0  0  0  0
   11.8274  -18.1502   16.9344 N   0  0  0  0  0  0  0  0  0  0  0  0
   11.0663  -17.2294   19.0621 C   0  0  0  0  0  0  0  0  0  0  0  0
   12.2545  -17.3217   19.4383 O   0  0  0  0  0  0  0  0  0  0  0  0
   10.0987  -16.5209   19.7931 N   0  0  0  0  0  0  0  0  0  0  0  0
   10.2751  -15.7899   21.0110 C   0  0  1  0  0  0  0  0  0  0  0  0
    9.1405  -14.8811   21.4111 C   0  0  0  0  0  0  0  0  0  0  0  0
    8.8352  -13.7797   20.4679 C   0  0  0  0  0  0  0  0  0  0  0  0
    7.3804  -13.7287   20.0551 C   0  0  0  0  0  0  0  0  0  0  0  0
    7.1252  -12.6719   19.0112 C   0  0  0  0  0  0  0  0  0  0  0  0
    5.7609  -12.6078   18.5863 N   0  0  0  0  0  0  0  0  0  0  0  0
   10.6097  -16.6869   22.1302 C   0  0  0  0  0  0  0  0  0  0  0  0
    9.9472  -17.7680   22.3149 O   0  0  0  0  0  0  0  0  0  0  0  0
   14.0507  -16.1343   24.4067 O   0  0  0  0  0  0  0  0  0  0  0  0
   13.5467  -17.4129   24.1529 C   0  0  0  0  0  0  0  0  0  0  0  0
   12.0289  -17.3546   24.0304 C   0  0  2  0  0  0  0  0  0  0  0  0
   11.6664  -16.3889   23.0339 N   0  0  0  0  0  0  0  0  0  0  0  0
   11.4746  -17.0641   25.3549 C   0  0  0  0  0  0  0  0  0  0  0  0
   10.6981  -16.0955   25.5207 O   0  0  0  0  0  0  0  0  0  0  0  0
   11.7901  -17.8446   26.4513 O   0  0  0  0  0  0  0  0  0  0  0  0
  2  1  1  0
  3  5  1  0
  3  2  1  0
  3  4  1  1
  5  7  1  0
  5  6  2  0
  7  8  1  0
  8 14  1  0
  9 10  1  0
  8  9  1  1
 10 11  1  0
 11 12  1  0
 12 13  1  0
 14 15  2  0
 14 19  1  0
 17 16  1  0
 18 17  1  1
 19 18  1  0
 20 18  1  0
 20 22  1  0
 21 20  2  0
M  END
$$$$
