SKS.pdb
     RDKit          3D

 22 21  0  0  1  0  0  0  0  0999 V2000
    9.6749  -12.6998   18.4904 O   0  0  0  0  0  0  0  0  0  0  0  0
    8.5807  -12.9067   17.6548 C   0  0  0  0  0  0  0  0  0  0  0  0
    8.4358  -14.3962   17.3178 C   0  0  2  0  0  0  0  0  0  0  0  0
    7.3852  -14.5348   16.3928 N   0  0  0  0  0  0  0  0  0  0  0  0
    8.2831  -15.1566   18.5749 C   0  0  0  0  0  0  0  0  0  0  0  0
    7.1297  -15.1845   19.0552 O   0  0  0  0  0  0  0  0  0  0  0  0
    9.3685  -15.8048   19.1866 N   0  0  0  0  0  0  0  0  0  0  0  0
    9.3502  -16.6656   20.3300 C   0  0  1  0  0  0  0  0  0  0  0  0
   10.0777  -17.9784   20.1856 C   0  0  0  0  0  0  0  0  0  0  0  0
   10.0172  -18.8799   21.3601 C   0  0  0  0  0  0  0  0  0  0  0  0
   10.7518  -20.1863   21.1526 C   0  0  0  0  0  0  0  0  0  0  0  0
   10.5436  -21.1410   22.3002 C   0  0  0  0  0  0  0  0  0  0  0  0
    9.9079  -22.3637   21.9166 N   0  0  0  0  0  0  0  0  0  0  0  0
    9.8261  -15.9653   21.5351 C   0  0  0  0  0  0  0  0  0  0  0  0
   11.0010  -15.4550   21.5667 O   0  0  0  0  0  0  0  0  0  0  0  0
    7.2779  -15.0481   24.6295 O   0  0  0  0  0  0  0  0  0  0  0  0
    8.4472  -14.2990   24.4716 C   0  0  0  0  0  0  0  0  0  0  0  0
    9.5345  -15.1648   23.8470 C   0  0  2  0  0  0  0  0  0  0  0  0
    9.0093  -15.8324   22.6914 N   0  0  0  0  0  0  0  0  0  0  0  0
   10.0351  -16.0813   24.8744 C   0  0  0  0  0  0  0  0  0  0  0  0
    9.8356  -17.3141   24.7785 O   0  0  0  0  0  0  0  0  0  0  0  0
   10.7364  -15.6155   25.9707 O   0  0  0  0  0  0  0  0  0  0  0  0
  2  1  1  0
  3  5  1  0
  3  2  1  0
  3  4  1  6
  5  7  1  0
  5  6  2  0
  7  8  1  0
  8 14  1  0
  9 10  1  0
  8  9  1  6
 10 11  1  0
 11 12  1  0
 12 13  1  0
 14 15  2  0
 14 19  1  0
 17 16  1  0
 18 17  1  1
 19 18  1  0
 20 18  1  0
 20 22  1  0
 21 20  2  0
M  END
$$$$
