SKS.pdb
     RDKit          3D

 22 21  0  0  1  0  0  0  0  0999 V2000
   13.0221  -20.2650   16.5744 O   0  0  0  0  0  0  0  0  0  0  0  0
   11.7924  -20.5415   17.1656 C   0  0  0  0  0  0  0  0  0  0  0  0
   10.9717  -19.2554   17.3258 C   0  0  2  0  0  0  0  0  0  0  0  0
   10.8026  -18.6834   16.0519 N   0  0  0  0  0  0  0  0  0  0  0  0
   11.6277  -18.3933   18.3299 C   0  0  0  0  0  0  0  0  0  0  0  0
   12.1050  -17.3227   17.8967 O   0  0  0  0  0  0  0  0  0  0  0  0
   11.7070  -18.7589   19.6836 N   0  0  0  0  0  0  0  0  0  0  0  0
   12.1715  -17.9698   20.7836 C   0  0  1  0  0  0  0  0  0  0  0  0
   11.7534  -18.4318   22.1567 C   0  0  0  0  0  0  0  0  0  0  0  0
   12.2624  -17.6241   23.2899 C   0  0  0  0  0  0  0  0  0  0  0  0
   11.7328  -18.0744   24.6339 C   0  0  0  0  0  0  0  0  0  0  0  0
   12.1679  -17.1587   25.7492 C   0  0  0  0  0  0  0  0  0  0  0  0
   11.7342  -17.5894   27.0425 N   0  0  0  0  0  0  0  0  0  0  0  0
   13.6340  -17.8010   20.7417 C   0  0  0  0  0  0  0  0  0  0  0  0
   14.4063  -18.8215   20.8032 O   0  0  0  0  0  0  0  0  0  0  0  0
   15.4169  -14.2893   19.4867 O   0  0  0  0  0  0  0  0  0  0  0  0
   16.0459  -15.5324   19.3750 C   0  0  0  0  0  0  0  0  0  0  0  0
   15.6617  -16.4134   20.5573 C   0  0  2  0  0  0  0  0  0  0  0  0
   14.2332  -16.5160   20.6330 N   0  0  0  0  0  0  0  0  0  0  0  0
   16.2720  -15.8502   21.7641 C   0  0  0  0  0  0  0  0  0  0  0  0
   15.5601  -15.5073   22.7359 O   0  0  0  0  0  0  0  0  0  0  0  0
   17.6404  -15.6823   21.8642 O   0  0  0  0  0  0  0  0  0  0  0  0
  2  1  1  0
  3  5  1  0
  3  2  1  0
  3  4  1  6
  5  7  1  0
  5  6  2  0
  7  8  1  0
  8 14  1  0
  9 10  1  0
  8  9  1  1
 10 11  1  0
 11 12  1  0
 12 13  1  0
 14 15  2  0
 14 19  1  0
 17 16  1  0
 18 17  1  6
 19 18  1  0
 20 18  1  0
 20 22  1  0
 21 20  2  0
M  END
$$$$
