SKS.pdb
     RDKit          3D

 22 21  0  0  1  0  0  0  0  0999 V2000
    6.0851  -22.2336   18.8251 O   0  0  0  0  0  0  0  0  0  0  0  0
    4.9953  -23.0940   18.7238 C   0  0  0  0  0  0  0  0  0  0  0  0
    3.7105  -22.3901   19.1790 C   0  0  2  0  0  0  0  0  0  0  0  0
    3.4163  -21.3748   18.2511 N   0  0  0  0  0  0  0  0  0  0  0  0
    3.8802  -21.9462   20.5776 C   0  0  0  0  0  0  0  0  0  0  0  0
    4.1060  -20.7273   20.7361 O   0  0  0  0  0  0  0  0  0  0  0  0
    3.7923  -22.8415   21.6561 N   0  0  0  0  0  0  0  0  0  0  0  0
    3.9553  -22.5604   23.0501 C   0  0  1  0  0  0  0  0  0  0  0  0
    3.2104  -23.4621   24.0016 C   0  0  0  0  0  0  0  0  0  0  0  0
    1.7497  -23.5691   23.7761 C   0  0  0  0  0  0  0  0  0  0  0  0
    1.0792  -24.5970   24.6612 C   0  0  0  0  0  0  0  0  0  0  0  0
   -0.3982  -24.7057   24.3831 C   0  0  0  0  0  0  0  0  0  0  0  0
   -1.0660  -25.6596   25.2138 N   0  0  0  0  0  0  0  0  0  0  0  0
    5.3790  -22.5135   23.4240 C   0  0  0  0  0  0  0  0  0  0  0  0
    6.2027  -23.3724   22.9487 O   0  0  0  0  0  0  0  0  0  0  0  0
    7.2604  -19.1622   24.8670 O   0  0  0  0  0  0  0  0  0  0  0  0
    7.9206  -20.2288   24.2507 C   0  0  0  0  0  0  0  0  0  0  0  0
    7.2742  -21.5449   24.6653 C   0  0  2  0  0  0  0  0  0  0  0  0
    5.8838  -21.5263   24.3143 N   0  0  0  0  0  0  0  0  0  0  0  0
    7.5130  -21.7399   26.0974 C   0  0  0  0  0  0  0  0  0  0  0  0
    6.5521  -21.8271   26.8961 O   0  0  0  0  0  0  0  0  0  0  0  0
    8.7956  -21.8325   26.6046 O   0  0  0  0  0  0  0  0  0  0  0  0
  2  1  1  0
  3  5  1  0
  3  2  1  0
  3  4  1  6
  5  7  1  0
  5  6  2  0
  7  8  1  0
  8 14  1  0
  9 10  1  0
  8  9  1  1
 10 11  1  0
 11 12  1  0
 12 13  1  0
 14 15  2  0
 14 19  1  0
 17 16  1  0
 18 17  1  1
 19 18  1  0
 20 18  1  0
 20 22  1  0
 21 20  2  0
M  END
$$$$
