SKS.pdb
     RDKit          3D

 22 21  0  0  1  0  0  0  0  0999 V2000
    9.3971  -17.1025   14.3943 O   0  0  0  0  0  0  0  0  0  0  0  0
    8.1291  -16.5489   14.5492 C   0  0  0  0  0  0  0  0  0  0  0  0
    8.2149  -15.0186   14.6132 C   0  0  2  0  0  0  0  0  0  0  0  0
    8.7494  -14.5596   13.3957 N   0  0  0  0  0  0  0  0  0  0  0  0
    8.9665  -14.6336   15.8250 C   0  0  0  0  0  0  0  0  0  0  0  0
   10.1467  -14.2677   15.6379 O   0  0  0  0  0  0  0  0  0  0  0  0
    8.3865  -14.6780   17.1033 N   0  0  0  0  0  0  0  0  0  0  0  0
    9.0051  -14.3922   18.3620 C   0  0  1  0  0  0  0  0  0  0  0  0
    8.0899  -14.3568   19.5598 C   0  0  0  0  0  0  0  0  0  0  0  0
    8.7530  -14.1609   20.8704 C   0  0  0  0  0  0  0  0  0  0  0  0
    7.7871  -14.1419   22.0350 C   0  0  0  0  0  0  0  0  0  0  0  0
    8.4786  -13.8349   23.3386 C   0  0  0  0  0  0  0  0  0  0  0  0
    7.5891  -13.7840   24.4577 N   0  0  0  0  0  0  0  0  0  0  0  0
   10.1304  -15.3053   18.6252 C   0  0  0  0  0  0  0  0  0  0  0  0
    9.9845  -16.5707   18.4864 O   0  0  0  0  0  0  0  0  0  0  0  0
   14.1134  -14.0288   19.0453 O   0  0  0  0  0  0  0  0  0  0  0  0
   13.7220  -15.2683   18.5319 C   0  0  0  0  0  0  0  0  0  0  0  0
   12.4704  -15.7538   19.2528 C   0  0  2  0  0  0  0  0  0  0  0  0
   11.4024  -14.8212   19.0373 N   0  0  0  0  0  0  0  0  0  0  0  0
   12.8030  -15.9452   20.6666 C   0  0  0  0  0  0  0  0  0  0  0  0
   12.1667  -15.3367   21.5574 O   0  0  0  0  0  0  0  0  0  0  0  0
   13.8205  -16.7963   21.0551 O   0  0  0  0  0  0  0  0  0  0  0  0
  2  1  1  0
  3  5  1  0
  3  2  1  0
  3  4  1  6
  5  7  1  0
  5  6  2  0
  7  8  1  0
  8 14  1  0
  9 10  1  0
  8  9  1  1
 10 11  1  0
 11 12  1  0
 12 13  1  0
 14 15  2  0
 14 19  1  0
 17 16  1  0
 18 17  1  6
 19 18  1  0
 20 18  1  0
 20 22  1  0
 21 20  2  0
M  END
$$$$
