SKS.pdb
     RDKit          3D

 22 21  0  0  1  0  0  0  0  0999 V2000
    9.4919  -21.3081   19.3305 O   0  0  0  0  0  0  0  0  0  0  0  0
    8.3600  -21.5830   18.5679 C   0  0  0  0  0  0  0  0  0  0  0  0
    7.3342  -20.4501   18.7008 C   0  0  2  0  0  0  0  0  0  0  0  0
    7.8828  -19.2932   18.1184 N   0  0  0  0  0  0  0  0  0  0  0  0
    6.9429  -20.3256   20.1197 C   0  0  0  0  0  0  0  0  0  0  0  0
    7.0270  -19.1778   20.6068 O   0  0  0  0  0  0  0  0  0  0  0  0
    6.5050  -21.4302   20.8684 N   0  0  0  0  0  0  0  0  0  0  0  0
    5.9166  -21.4329   22.1732 C   0  0  1  0  0  0  0  0  0  0  0  0
    4.8156  -22.4369   22.4040 C   0  0  0  0  0  0  0  0  0  0  0  0
    4.2530  -22.4710   23.7744 C   0  0  0  0  0  0  0  0  0  0  0  0
    3.1199  -23.4610   23.9338 C   0  0  0  0  0  0  0  0  0  0  0  0
    2.5334  -23.4311   25.3219 C   0  0  0  0  0  0  0  0  0  0  0  0
    1.4299  -24.3248   25.4941 N   0  0  0  0  0  0  0  0  0  0  0  0
    6.9411  -21.5712   23.2222 C   0  0  0  0  0  0  0  0  0  0  0  0
    7.7515  -22.5636   23.2101 O   0  0  0  0  0  0  0  0  0  0  0  0
    7.7613  -18.4742   25.8629 O   0  0  0  0  0  0  0  0  0  0  0  0
    8.7593  -19.3595   25.4461 C   0  0  0  0  0  0  0  0  0  0  0  0
    8.1564  -20.7365   25.1964 C   0  0  2  0  0  0  0  0  0  0  0  0
    7.0657  -20.6205   24.2723 N   0  0  0  0  0  0  0  0  0  0  0  0
    7.7694  -21.3070   26.4889 C   0  0  0  0  0  0  0  0  0  0  0  0
    6.5706  -21.5773   26.7312 O   0  0  0  0  0  0  0  0  0  0  0  0
    8.7087  -21.5614   27.4706 O   0  0  0  0  0  0  0  0  0  0  0  0
  2  1  1  0
  3  5  1  0
  3  2  1  0
  3  4  1  1
  5  7  1  0
  5  6  2  0
  7  8  1  0
  8 14  1  0
  9 10  1  0
  8  9  1  6
 10 11  1  0
 11 12  1  0
 12 13  1  0
 14 15  2  0
 14 19  1  0
 17 16  1  0
 18 17  1  1
 19 18  1  0
 20 18  1  0
 20 22  1  0
 21 20  2  0
M  END
$$$$
