SKS.pdb
     RDKit          3D

 22 21  0  0  1  0  0  0  0  0999 V2000
    7.4192  -21.4950   21.8116 O   0  0  0  0  0  0  0  0  0  0  0  0
    8.5572  -20.7312   21.5667 C   0  0  0  0  0  0  0  0  0  0  0  0
    8.2799  -19.6877   20.4770 C   0  0  2  0  0  0  0  0  0  0  0  0
    8.4573  -20.3052   19.2256 N   0  0  0  0  0  0  0  0  0  0  0  0
    9.1230  -18.5011   20.7278 C   0  0  0  0  0  0  0  0  0  0  0  0
   10.3409  -18.6398   20.4844 O   0  0  0  0  0  0  0  0  0  0  0  0
    8.5844  -17.2966   21.2092 N   0  0  0  0  0  0  0  0  0  0  0  0
    9.2693  -16.0670   21.4693 C   0  0  1  0  0  0  0  0  0  0  0  0
    8.4977  -14.8032   21.1846 C   0  0  0  0  0  0  0  0  0  0  0  0
    8.2618  -14.5022   19.7529 C   0  0  0  0  0  0  0  0  0  0  0  0
    7.3502  -13.3152   19.5312 C   0  0  0  0  0  0  0  0  0  0  0  0
    7.1307  -13.0361   18.0664 C   0  0  0  0  0  0  0  0  0  0  0  0
    6.2364  -11.9469   17.8212 N   0  0  0  0  0  0  0  0  0  0  0  0
    9.7950  -16.0273   22.8445 C   0  0  0  0  0  0  0  0  0  0  0  0
    9.0059  -16.1666   23.8444 O   0  0  0  0  0  0  0  0  0  0  0  0
   12.0951  -18.5681   25.3290 O   0  0  0  0  0  0  0  0  0  0  0  0
   11.4818  -17.9506   24.2354 C   0  0  0  0  0  0  0  0  0  0  0  0
   11.7645  -16.4536   24.2624 C   0  0  2  0  0  0  0  0  0  0  0  0
   11.1791  -15.8355   23.1081 N   0  0  0  0  0  0  0  0  0  0  0  0
   13.2141  -16.2640   24.3551 C   0  0  0  0  0  0  0  0  0  0  0  0
   13.8940  -16.0470   23.3258 O   0  0  0  0  0  0  0  0  0  0  0  0
   13.8682  -16.3186   25.5716 O   0  0  0  0  0  0  0  0  0  0  0  0
  2  1  1  0
  3  5  1  0
  3  2  1  0
  3  4  1  6
  5  7  1  0
  5  6  2  0
  7  8  1  0
  8 14  1  0
  9 10  1  0
  8  9  1  1
 10 11  1  0
 11 12  1  0
 12 13  1  0
 14 15  2  0
 14 19  1  0
 17 16  1  0
 18 17  1  6
 19 18  1  0
 20 18  1  0
 20 22  1  0
 21 20  2  0
M  END
$$$$
