SKS.pdb
     RDKit          3D

 22 21  0  0  1  0  0  0  0  0999 V2000
   16.2588  -18.8443   16.8324 O   0  0  0  0  0  0  0  0  0  0  0  0
   15.5505  -17.6459   16.8148 C   0  0  0  0  0  0  0  0  0  0  0  0
   14.0401  -17.9141   16.8095 C   0  0  2  0  0  0  0  0  0  0  0  0
   13.4401  -17.0170   15.9075 N   0  0  0  0  0  0  0  0  0  0  0  0
   13.5403  -17.8522   18.1981 C   0  0  0  0  0  0  0  0  0  0  0  0
   13.2841  -16.7085   18.6318 O   0  0  0  0  0  0  0  0  0  0  0  0
   13.3661  -19.0082   18.9763 N   0  0  0  0  0  0  0  0  0  0  0  0
   12.8749  -19.1018   20.3175 C   0  0  1  0  0  0  0  0  0  0  0  0
   12.3304  -20.4448   20.7338 C   0  0  0  0  0  0  0  0  0  0  0  0
   11.6234  -21.2076   19.6783 C   0  0  0  0  0  0  0  0  0  0  0  0
   11.4771  -22.6794   19.9971 C   0  0  0  0  0  0  0  0  0  0  0  0
   10.6922  -23.4121   18.9394 C   0  0  0  0  0  0  0  0  0  0  0  0
   10.5371  -24.8083   19.2091 N   0  0  0  0  0  0  0  0  0  0  0  0
   13.8858  -18.6538   21.2904 C   0  0  0  0  0  0  0  0  0  0  0  0
   15.1262  -18.9151   21.1032 O   0  0  0  0  0  0  0  0  0  0  0  0
   14.9288  -15.3454   22.3198 O   0  0  0  0  0  0  0  0  0  0  0  0
   14.4744  -15.9582   23.4909 C   0  0  0  0  0  0  0  0  0  0  0  0
   14.5564  -17.4728   23.3462 C   0  0  2  0  0  0  0  0  0  0  0  0
   13.5259  -17.9248   22.4570 N   0  0  0  0  0  0  0  0  0  0  0  0
   14.4752  -18.0645   24.6839 C   0  0  0  0  0  0  0  0  0  0  0  0
   15.3767  -17.8546   25.5277 O   0  0  0  0  0  0  0  0  0  0  0  0
   13.4097  -18.8652   25.0504 O   0  0  0  0  0  0  0  0  0  0  0  0
  2  1  1  0
  3  5  1  0
  3  2  1  0
  3  4  1  6
  5  7  1  0
  5  6  2  0
  7  8  1  0
  8 14  1  0
  9 10  1  0
  8  9  1  1
 10 11  1  0
 11 12  1  0
 12 13  1  0
 14 15  2  0
 14 19  1  0
 17 16  1  0
 18 17  1  1
 19 18  1  0
 20 18  1  0
 20 22  1  0
 21 20  2  0
M  END
$$$$
