SKS.pdb
     RDKit          3D

 22 21  0  0  1  0  0  0  0  0999 V2000
    9.3541  -20.0643   12.9476 O   0  0  0  0  0  0  0  0  0  0  0  0
    8.3870  -19.2205   12.4082 C   0  0  0  0  0  0  0  0  0  0  0  0
    8.4213  -17.8518   13.1002 C   0  0  2  0  0  0  0  0  0  0  0  0
    9.5899  -17.1845   12.6909 N   0  0  0  0  0  0  0  0  0  0  0  0
    8.2774  -18.0505   14.5568 C   0  0  0  0  0  0  0  0  0  0  0  0
    9.1455  -17.5002   15.2676 O   0  0  0  0  0  0  0  0  0  0  0  0
    7.2298  -18.8104   15.1021 N   0  0  0  0  0  0  0  0  0  0  0  0
    6.8318  -18.9059   16.4737 C   0  0  1  0  0  0  0  0  0  0  0  0
    5.4409  -19.4297   16.7274 C   0  0  0  0  0  0  0  0  0  0  0  0
    5.0767  -19.6252   18.1505 C   0  0  0  0  0  0  0  0  0  0  0  0
    3.6100  -19.9339   18.3580 C   0  0  0  0  0  0  0  0  0  0  0  0
    3.2462  -19.9965   19.8193 C   0  0  0  0  0  0  0  0  0  0  0  0
    1.8465  -20.1783   20.0511 N   0  0  0  0  0  0  0  0  0  0  0  0
    7.8048  -19.6824   17.2608 C   0  0  0  0  0  0  0  0  0  0  0  0
    8.1673  -20.8492   16.8746 O   0  0  0  0  0  0  0  0  0  0  0  0
    9.7111  -18.1557   20.6930 O   0  0  0  0  0  0  0  0  0  0  0  0
   10.3492  -19.0620   19.8416 C   0  0  0  0  0  0  0  0  0  0  0  0
    9.3159  -19.9696   19.1856 C   0  0  2  0  0  0  0  0  0  0  0  0
    8.3694  -19.1715   18.4617 N   0  0  0  0  0  0  0  0  0  0  0  0
    8.7058  -20.7965   20.2296 C   0  0  0  0  0  0  0  0  0  0  0  0
    7.4960  -20.6594   20.5233 O   0  0  0  0  0  0  0  0  0  0  0  0
    9.4421  -21.7444   20.9153 O   0  0  0  0  0  0  0  0  0  0  0  0
  2  1  1  0
  3  5  1  0
  3  2  1  0
  3  4  1  1
  5  7  1  0
  5  6  2  0
  7  8  1  0
  8 14  1  0
  9 10  1  0
  8  9  1  6
 10 11  1  0
 11 12  1  0
 12 13  1  0
 14 15  2  0
 14 19  1  0
 17 16  1  0
 18 17  1  1
 19 18  1  0
 20 18  1  0
 20 22  1  0
 21 20  2  0
M  END
$$$$
