SKS.pdb
     RDKit          3D

 22 21  0  0  1  0  0  0  0  0999 V2000
    6.2341  -17.7698   18.4182 O   0  0  0  0  0  0  0  0  0  0  0  0
    7.5762  -17.4936   18.6644 C   0  0  0  0  0  0  0  0  0  0  0  0
    8.2001  -18.5918   19.5349 C   0  0  2  0  0  0  0  0  0  0  0  0
    7.9254  -19.8340   18.9348 N   0  0  0  0  0  0  0  0  0  0  0  0
    7.7170  -18.4328   20.9217 C   0  0  0  0  0  0  0  0  0  0  0  0
    8.0098  -17.3525   21.4775 O   0  0  0  0  0  0  0  0  0  0  0  0
    6.9762  -19.4353   21.5689 N   0  0  0  0  0  0  0  0  0  0  0  0
    6.4508  -19.4219   22.9002 C   0  0  1  0  0  0  0  0  0  0  0  0
    5.1380  -20.1351   23.1040 C   0  0  0  0  0  0  0  0  0  0  0  0
    3.9764  -19.5626   22.3838 C   0  0  0  0  0  0  0  0  0  0  0  0
    2.7244  -20.4046   22.4984 C   0  0  0  0  0  0  0  0  0  0  0  0
    1.5978  -19.8608   21.6577 C   0  0  0  0  0  0  0  0  0  0  0  0
    0.4337  -20.6920   21.6578 N   0  0  0  0  0  0  0  0  0  0  0  0
    7.4403  -19.9184   23.8715 C   0  0  0  0  0  0  0  0  0  0  0  0
    8.0360  -21.0359   23.6763 O   0  0  0  0  0  0  0  0  0  0  0  0
   10.2710  -17.9601   25.2844 O   0  0  0  0  0  0  0  0  0  0  0  0
    9.6704  -18.5611   26.3940 C   0  0  0  0  0  0  0  0  0  0  0  0
    8.7641  -19.6979   25.9379 C   0  0  2  0  0  0  0  0  0  0  0  0
    7.7656  -19.1847   25.0453 N   0  0  0  0  0  0  0  0  0  0  0  0
    8.2070  -20.3439   27.1288 C   0  0  0  0  0  0  0  0  0  0  0  0
    8.9615  -20.8765   27.9749 O   0  0  0  0  0  0  0  0  0  0  0  0
    6.8433  -20.3840   27.3513 O   0  0  0  0  0  0  0  0  0  0  0  0
  2  1  1  0
  3  5  1  0
  3  2  1  0
  3  4  1  6
  5  7  1  0
  5  6  2  0
  7  8  1  0
  8 14  1  0
  9 10  1  0
  8  9  1  6
 10 11  1  0
 11 12  1  0
 12 13  1  0
 14 15  2  0
 14 19  1  0
 17 16  1  0
 18 17  1  1
 19 18  1  0
 20 18  1  0
 20 22  1  0
 21 20  2  0
M  END
$$$$
