TYP.pdb
     RDKit          3D

 27 28  0  0  1  0  0  0  0  0999 V2000
    7.4691  -15.5600   16.5015 C   0  0  0  0  0  0  0  0  0  0  0  0
    7.9965  -15.3419   17.9070 C   0  0  1  0  0  0  0  0  0  0  0  0
    9.3916  -15.4846   17.8264 O   0  0  0  0  0  0  0  0  0  0  0  0
    7.6503  -13.9586   18.4174 C   0  0  2  0  0  0  0  0  0  0  0  0
    8.3192  -12.9944   17.5656 N   0  0  0  0  0  0  0  0  0  0  0  0
    8.1303  -13.8682   19.8212 C   0  0  0  0  0  0  0  0  0  0  0  0
    9.3000  -13.4680   20.0159 O   0  0  0  0  0  0  0  0  0  0  0  0
    7.6410  -13.3103   28.6670 O   0  0  0  0  0  0  0  0  0  0  0  0
    7.3739  -13.3894   27.3035 C   0  0  0  0  0  0  0  0  0  0  0  0
    6.8102  -14.5345   26.7823 C   0  0  0  0  0  0  0  0  0  0  0  0
    6.5364  -14.6360   25.4336 C   0  0  0  0  0  0  0  0  0  0  0  0
    6.8061  -13.6163   24.5461 C   0  0  0  0  0  0  0  0  0  0  0  0
    6.5100  -13.7289   23.0942 C   0  0  0  0  0  0  0  0  0  0  0  0
    7.7490  -14.1307   22.3070 C   0  0  2  0  0  0  0  0  0  0  0  0
    7.3050  -14.2197   20.9215 N   0  0  0  0  0  0  0  0  0  0  0  0
    8.1357  -15.4859   22.7661 C   0  0  0  0  0  0  0  0  0  0  0  0
    7.3920  -16.4472   22.3559 O   0  0  0  0  0  0  0  0  0  0  0  0
    7.3691  -12.4844   25.0946 C   0  0  0  0  0  0  0  0  0  0  0  0
    7.6509  -12.3601   26.4350 C   0  0  0  0  0  0  0  0  0  0  0  0
    9.2368  -15.7672   23.5975 N   0  0  0  0  0  0  0  0  0  0  0  0
   10.0818  -14.8047   24.2540 C   0  0  0  0  0  0  0  0  0  0  0  0
   11.4319  -15.4989   24.4039 C   0  0  0  0  0  0  0  0  0  0  0  0
   11.2261  -16.9423   24.0223 C   0  0  0  0  0  0  0  0  0  0  0  0
    9.7306  -17.0744   23.9399 C   0  0  1  0  0  0  0  0  0  0  0  0
    9.1645  -17.4967   25.2349 C   0  0  0  0  0  0  0  0  0  0  0  0
    8.4787  -16.6867   25.8968 O   0  0  0  0  0  0  0  0  0  0  0  0
    9.3807  -18.7723   25.7263 O   0  0  0  0  0  0  0  0  0  0  0  0
  2  1  1  6
  2  3  1  0
  4  2  1  0
  4  5  1  6
  6  4  1  0
  7  6  2  0
  8  9  1  0
  9 10  2  0
  9 19  1  0
 10 11  1  0
 11 12  2  0
 12 13  1  0
 14 13  1  1
 14 15  1  0
 15  6  1  0
 16 14  1  0
 17 16  2  0
 18 12  1  0
 19 18  2  0
 20 16  1  0
 20 21  1  0
 21 22  1  0
 23 22  1  0
 24 20  1  0
 24 23  1  0
 24 25  1  1
 26 25  2  0
 27 25  1  0
M  END
$$$$
