TYP.pdb
     RDKit          3D

 27 28  0  0  1  0  0  0  0  0999 V2000
    6.3701  -22.3925   22.5878 C   0  0  0  0  0  0  0  0  0  0  0  0
    6.5181  -20.8851   22.6704 C   0  0  1  0  0  0  0  0  0  0  0  0
    6.7756  -20.4463   21.3611 O   0  0  0  0  0  0  0  0  0  0  0  0
    5.2531  -20.2345   23.1906 C   0  0  2  0  0  0  0  0  0  0  0  0
    4.1885  -20.5267   22.2505 N   0  0  0  0  0  0  0  0  0  0  0  0
    5.5091  -18.7734   23.2842 C   0  0  0  0  0  0  0  0  0  0  0  0
    5.0934  -18.0450   22.3553 O   0  0  0  0  0  0  0  0  0  0  0  0
    7.6088  -10.9612   26.9238 O   0  0  0  0  0  0  0  0  0  0  0  0
    7.3847  -12.3134   26.6833 C   0  0  0  0  0  0  0  0  0  0  0  0
    8.4561  -13.1673   26.5290 C   0  0  0  0  0  0  0  0  0  0  0  0
    8.2586  -14.5119   26.2898 C   0  0  0  0  0  0  0  0  0  0  0  0
    7.0012  -15.0683   26.1932 C   0  0  0  0  0  0  0  0  0  0  0  0
    6.7920  -16.5169   25.9356 C   0  0  0  0  0  0  0  0  0  0  0  0
    6.5372  -16.7844   24.4591 C   0  0  2  0  0  0  0  0  0  0  0  0
    6.2012  -18.2008   24.3834 N   0  0  0  0  0  0  0  0  0  0  0  0
    7.8200  -16.5657   23.7495 C   0  0  0  0  0  0  0  0  0  0  0  0
    8.6723  -17.5209   23.8305 O   0  0  0  0  0  0  0  0  0  0  0  0
    5.9497  -14.1919   26.3515 C   0  0  0  0  0  0  0  0  0  0  0  0
    6.1216  -12.8484   26.5905 C   0  0  0  0  0  0  0  0  0  0  0  0
    8.1434  -15.4082   23.0158 N   0  0  0  0  0  0  0  0  0  0  0  0
    7.5159  -14.1181   23.1314 C   0  0  0  0  0  0  0  0  0  0  0  0
    7.6787  -13.4731   21.7586 C   0  0  0  0  0  0  0  0  0  0  0  0
    8.6143  -14.3533   20.9703 C   0  0  0  0  0  0  0  0  0  0  0  0
    9.1593  -15.3007   22.0028 C   0  0  1  0  0  0  0  0  0  0  0  0
   10.4026  -14.7762   22.5986 C   0  0  0  0  0  0  0  0  0  0  0  0
   11.4106  -14.6209   21.8745 O   0  0  0  0  0  0  0  0  0  0  0  0
   10.4694  -14.4545   23.9430 O   0  0  0  0  0  0  0  0  0  0  0  0
  2  1  1  6
  2  3  1  0
  4  2  1  0
  4  5  1  6
  6  4  1  0
  7  6  2  0
  8  9  1  0
  9 10  2  0
  9 19  1  0
 10 11  1  0
 11 12  2  0
 12 13  1  0
 14 13  1  1
 14 15  1  0
 15  6  1  0
 16 14  1  0
 17 16  2  0
 18 12  1  0
 19 18  2  0
 20 16  1  0
 20 21  1  0
 21 22  1  0
 23 22  1  0
 24 20  1  0
 24 23  1  0
 24 25  1  1
 26 25  2  0
 27 25  1  0
M  END
$$$$
