TYP.pdb
     RDKit          3D

 27 28  0  0  1  0  0  0  0  0999 V2000
    8.3834  -19.6670   18.5274 C   0  0  0  0  0  0  0  0  0  0  0  0
    8.8344  -18.8022   19.6891 C   0  0  1  0  0  0  0  0  0  0  0  0
   10.0689  -19.3250   20.1082 O   0  0  0  0  0  0  0  0  0  0  0  0
    9.0050  -17.3575   19.2673 C   0  0  2  0  0  0  0  0  0  0  0  0
   10.1426  -17.2916   18.3707 N   0  0  0  0  0  0  0  0  0  0  0  0
    9.2369  -16.5579   20.4986 C   0  0  0  0  0  0  0  0  0  0  0  0
   10.4180  -16.2712   20.7973 O   0  0  0  0  0  0  0  0  0  0  0  0
    7.0988  -11.8978   27.7965 O   0  0  0  0  0  0  0  0  0  0  0  0
    7.0937  -12.5587   26.5719 C   0  0  0  0  0  0  0  0  0  0  0  0
    6.5853  -13.8374   26.4869 C   0  0  0  0  0  0  0  0  0  0  0  0
    6.5696  -14.5125   25.2835 C   0  0  0  0  0  0  0  0  0  0  0  0
    7.0529  -13.9569   24.1182 C   0  0  0  0  0  0  0  0  0  0  0  0
    7.0345  -14.6867   22.8238 C   0  0  0  0  0  0  0  0  0  0  0  0
    8.3706  -15.3629   22.5516 C   0  0  2  0  0  0  0  0  0  0  0  0
    8.1674  -16.1227   21.3244 N   0  0  0  0  0  0  0  0  0  0  0  0
    8.6104  -16.3154   23.6617 C   0  0  0  0  0  0  0  0  0  0  0  0
    7.9312  -17.4028   23.6202 O   0  0  0  0  0  0  0  0  0  0  0  0
    7.5547  -12.6786   24.2327 C   0  0  0  0  0  0  0  0  0  0  0  0
    7.5808  -11.9860   25.4207 C   0  0  0  0  0  0  0  0  0  0  0  0
    9.5121  -16.1010   24.7218 N   0  0  0  0  0  0  0  0  0  0  0  0
   10.1332  -14.8525   25.0782 C   0  0  0  0  0  0  0  0  0  0  0  0
   11.4528  -15.2399   25.7381 C   0  0  0  0  0  0  0  0  0  0  0  0
   11.4196  -16.7333   25.9384 C   0  0  0  0  0  0  0  0  0  0  0  0
    9.9902  -17.0957   25.6446 C   0  0  1  0  0  0  0  0  0  0  0  0
    9.1740  -17.0681   26.8730 C   0  0  0  0  0  0  0  0  0  0  0  0
    8.3008  -16.1829   27.0083 O   0  0  0  0  0  0  0  0  0  0  0  0
    9.3602  -18.0047   27.8747 O   0  0  0  0  0  0  0  0  0  0  0  0
  2  1  1  6
  2  3  1  0
  4  2  1  0
  4  5  1  6
  6  4  1  0
  7  6  2  0
  8  9  1  0
  9 10  2  0
  9 19  1  0
 10 11  1  0
 11 12  2  0
 12 13  1  0
 14 13  1  1
 14 15  1  0
 15  6  1  0
 16 14  1  0
 17 16  2  0
 18 12  1  0
 19 18  2  0
 20 16  1  0
 20 21  1  0
 21 22  1  0
 23 22  1  0
 24 20  1  0
 24 23  1  0
 24 25  1  1
 26 25  2  0
 27 25  1  0
M  END
$$$$
