TYP.pdb
     RDKit          3D

 27 28  0  0  1  0  0  0  0  0999 V2000
    8.4842  -19.5670   23.1061 C   0  0  0  0  0  0  0  0  0  0  0  0
    7.3577  -19.8656   24.0771 C   0  0  1  0  0  0  0  0  0  0  0  0
    7.6998  -21.0708   24.7125 O   0  0  0  0  0  0  0  0  0  0  0  0
    7.2117  -18.7652   25.1076 C   0  0  2  0  0  0  0  0  0  0  0  0
    6.1037  -19.1171   25.9741 N   0  0  0  0  0  0  0  0  0  0  0  0
    6.9470  -17.4998   24.3742 C   0  0  0  0  0  0  0  0  0  0  0  0
    5.7777  -17.2817   23.9851 O   0  0  0  0  0  0  0  0  0  0  0  0
    5.6876  -11.8838   28.3013 O   0  0  0  0  0  0  0  0  0  0  0  0
    6.4110  -12.4756   27.2703 C   0  0  0  0  0  0  0  0  0  0  0  0
    5.9798  -12.3413   25.9676 C   0  0  0  0  0  0  0  0  0  0  0  0
    6.6806  -12.9193   24.9288 C   0  0  0  0  0  0  0  0  0  0  0  0
    7.8314  -13.6508   25.1306 C   0  0  0  0  0  0  0  0  0  0  0  0
    8.5837  -14.2718   24.0096 C   0  0  0  0  0  0  0  0  0  0  0  0
    7.7590  -15.3495   23.3204 C   0  0  2  0  0  0  0  0  0  0  0  0
    7.9731  -16.5545   24.1123 N   0  0  0  0  0  0  0  0  0  0  0  0
    8.3497  -15.5571   21.9770 C   0  0  0  0  0  0  0  0  0  0  0  0
    8.8101  -16.7317   21.7455 O   0  0  0  0  0  0  0  0  0  0  0  0
    8.2386  -13.7684   26.4417 C   0  0  0  0  0  0  0  0  0  0  0  0
    7.5570  -13.2016   27.4933 C   0  0  0  0  0  0  0  0  0  0  0  0
    8.4295  -14.5710   20.9749 N   0  0  0  0  0  0  0  0  0  0  0  0
    8.1279  -13.1717   21.1248 C   0  0  0  0  0  0  0  0  0  0  0  0
    7.6837  -12.7110   19.7401 C   0  0  0  0  0  0  0  0  0  0  0  0
    7.9771  -13.8420   18.7880 C   0  0  0  0  0  0  0  0  0  0  0  0
    8.8201  -14.7805   19.6062 C   0  0  1  0  0  0  0  0  0  0  0  0
   10.2551  -14.4788   19.4464 C   0  0  0  0  0  0  0  0  0  0  0  0
   10.8421  -13.8109   20.3261 O   0  0  0  0  0  0  0  0  0  0  0  0
   10.9589  -14.9228   18.3406 O   0  0  0  0  0  0  0  0  0  0  0  0
  2  1  1  6
  2  3  1  0
  4  2  1  0
  4  5  1  1
  6  4  1  0
  7  6  2  0
  8  9  1  0
  9 10  2  0
  9 19  1  0
 10 11  1  0
 11 12  2  0
 12 13  1  0
 14 13  1  1
 14 15  1  0
 15  6  1  0
 16 14  1  0
 17 16  2  0
 18 12  1  0
 19 18  2  0
 20 16  1  0
 20 21  1  0
 21 22  1  0
 23 22  1  0
 24 20  1  0
 24 23  1  0
 24 25  1  1
 26 25  2  0
 27 25  1  0
M  END
$$$$
