TYP.pdb
     RDKit          3D

 27 28  0  0  1  0  0  0  0  0999 V2000
    5.8513  -16.8286   19.4094 C   0  0  0  0  0  0  0  0  0  0  0  0
    6.9435  -16.5998   20.4369 C   0  0  1  0  0  0  0  0  0  0  0  0
    8.0929  -17.2288   19.9308 O   0  0  0  0  0  0  0  0  0  0  0  0
    7.2121  -15.1226   20.6363 C   0  0  2  0  0  0  0  0  0  0  0  0
    7.7618  -14.6036   19.3990 N   0  0  0  0  0  0  0  0  0  0  0  0
    8.1796  -14.9926   21.7572 C   0  0  0  0  0  0  0  0  0  0  0  0
    9.3939  -14.8867   21.4736 O   0  0  0  0  0  0  0  0  0  0  0  0
   10.9534  -14.6303   30.2259 O   0  0  0  0  0  0  0  0  0  0  0  0
   10.2033  -14.5922   29.0544 C   0  0  0  0  0  0  0  0  0  0  0  0
    9.5278  -15.7196   28.6379 C   0  0  0  0  0  0  0  0  0  0  0  0
    8.7777  -15.7057   27.4797 C   0  0  0  0  0  0  0  0  0  0  0  0
    8.6629  -14.5837   26.6871 C   0  0  0  0  0  0  0  0  0  0  0  0
    7.8542  -14.5721   25.4404 C   0  0  0  0  0  0  0  0  0  0  0  0
    8.6957  -14.9575   24.2322 C   0  0  2  0  0  0  0  0  0  0  0  0
    7.7614  -14.9865   23.1137 N   0  0  0  0  0  0  0  0  0  0  0  0
    9.1913  -16.3343   24.4683 C   0  0  0  0  0  0  0  0  0  0  0  0
    8.3011  -17.2577   24.4543 O   0  0  0  0  0  0  0  0  0  0  0  0
    9.3482  -13.4723   27.1275 C   0  0  0  0  0  0  0  0  0  0  0  0
   10.1020  -13.4621   28.2779 C   0  0  0  0  0  0  0  0  0  0  0  0
   10.5387  -16.6733   24.6977 N   0  0  0  0  0  0  0  0  0  0  0  0
   11.6237  -15.7575   24.9335 C   0  0  0  0  0  0  0  0  0  0  0  0
   12.8690  -16.4792   24.4281 C   0  0  0  0  0  0  0  0  0  0  0  0
   12.4604  -17.8988   24.1290 C   0  0  0  0  0  0  0  0  0  0  0  0
   11.0862  -18.0032   24.7303 C   0  0  1  0  0  0  0  0  0  0  0  0
   11.1535  -18.4797   26.1247 C   0  0  0  0  0  0  0  0  0  0  0  0
   10.8908  -17.6873   27.0560 O   0  0  0  0  0  0  0  0  0  0  0  0
   11.5020  -19.7870   26.4160 O   0  0  0  0  0  0  0  0  0  0  0  0
  2  1  1  6
  2  3  1  0
  4  2  1  0
  4  5  1  6
  6  4  1  0
  7  6  2  0
  8  9  1  0
  9 10  2  0
  9 19  1  0
 10 11  1  0
 11 12  2  0
 12 13  1  0
 14 13  1  1
 14 15  1  0
 15  6  1  0
 16 14  1  0
 17 16  2  0
 18 12  1  0
 19 18  2  0
 20 16  1  0
 20 21  1  0
 21 22  1  0
 23 22  1  0
 24 20  1  0
 24 23  1  0
 24 25  1  1
 26 25  2  0
 27 25  1  0
M  END
$$$$
