TYP.pdb
     RDKit          3D

 27 28  0  0  1  0  0  0  0  0999 V2000
    8.4616  -19.9025   18.5550 C   0  0  0  0  0  0  0  0  0  0  0  0
    8.8776  -19.0137   19.7117 C   0  0  1  0  0  0  0  0  0  0  0  0
   10.1345  -19.4807   20.1299 O   0  0  0  0  0  0  0  0  0  0  0  0
    8.9846  -17.5649   19.2830 C   0  0  2  0  0  0  0  0  0  0  0  0
   10.0876  -17.4625   18.3474 N   0  0  0  0  0  0  0  0  0  0  0  0
    9.2317  -16.7555   20.5049 C   0  0  0  0  0  0  0  0  0  0  0  0
   10.4195  -16.5206   20.8217 O   0  0  0  0  0  0  0  0  0  0  0  0
    7.3084  -11.6140   27.5193 O   0  0  0  0  0  0  0  0  0  0  0  0
    7.2569  -12.3702   26.3523 C   0  0  0  0  0  0  0  0  0  0  0  0
    6.7769  -13.6619   26.3950 C   0  0  0  0  0  0  0  0  0  0  0  0
    6.7164  -14.4310   25.2508 C   0  0  0  0  0  0  0  0  0  0  0  0
    7.1253  -13.9599   24.0215 C   0  0  0  0  0  0  0  0  0  0  0  0
    7.0588  -14.7907   22.7912 C   0  0  0  0  0  0  0  0  0  0  0  0
    8.3859  -15.4851   22.5208 C   0  0  2  0  0  0  0  0  0  0  0  0
    8.1692  -16.2545   21.3019 N   0  0  0  0  0  0  0  0  0  0  0  0
    8.6187  -16.4294   23.6393 C   0  0  0  0  0  0  0  0  0  0  0  0
    7.9115  -17.4995   23.6223 O   0  0  0  0  0  0  0  0  0  0  0  0
    7.6002  -12.6664   24.0086 C   0  0  0  0  0  0  0  0  0  0  0  0
    7.6700  -11.8810   25.1356 C   0  0  0  0  0  0  0  0  0  0  0  0
    9.5420  -16.2249   24.6826 N   0  0  0  0  0  0  0  0  0  0  0  0
   10.1552  -14.9758   25.0505 C   0  0  0  0  0  0  0  0  0  0  0  0
   11.4947  -15.3591   25.6717 C   0  0  0  0  0  0  0  0  0  0  0  0
   11.4852  -16.8567   25.8416 C   0  0  0  0  0  0  0  0  0  0  0  0
   10.0541  -17.2318   25.5733 C   0  0  1  0  0  0  0  0  0  0  0  0
    9.2665  -17.2402   26.8205 C   0  0  0  0  0  0  0  0  0  0  0  0
    8.3903  -16.3653   26.9973 O   0  0  0  0  0  0  0  0  0  0  0  0
    9.4825  -18.1994   27.7945 O   0  0  0  0  0  0  0  0  0  0  0  0
  2  1  1  6
  2  3  1  0
  4  2  1  0
  4  5  1  6
  6  4  1  0
  7  6  2  0
  8  9  1  0
  9 10  2  0
  9 19  1  0
 10 11  1  0
 11 12  2  0
 12 13  1  0
 14 13  1  1
 14 15  1  0
 15  6  1  0
 16 14  1  0
 17 16  2  0
 18 12  1  0
 19 18  2  0
 20 16  1  0
 20 21  1  0
 21 22  1  0
 23 22  1  0
 24 20  1  0
 24 23  1  0
 24 25  1  1
 26 25  2  0
 27 25  1  0
M  END
$$$$
