TYP.pdb
     RDKit          3D

 27 28  0  0  1  0  0  0  0  0999 V2000
    8.7332  -13.7940   18.5604 C   0  0  0  0  0  0  0  0  0  0  0  0
    8.1738  -14.0460   19.9477 C   0  0  1  0  0  0  0  0  0  0  0  0
    7.0861  -13.1695   20.0946 O   0  0  0  0  0  0  0  0  0  0  0  0
    7.7041  -15.4777   20.1011 C   0  0  2  0  0  0  0  0  0  0  0  0
    6.5991  -15.6796   19.1842 N   0  0  0  0  0  0  0  0  0  0  0  0
    7.2779  -15.6583   21.5135 C   0  0  0  0  0  0  0  0  0  0  0  0
    6.0504  -15.6874   21.7560 O   0  0  0  0  0  0  0  0  0  0  0  0
    7.7960  -18.7852   29.7532 O   0  0  0  0  0  0  0  0  0  0  0  0
    7.9371  -18.4634   28.4067 C   0  0  0  0  0  0  0  0  0  0  0  0
    6.8451  -18.5353   27.5683 C   0  0  0  0  0  0  0  0  0  0  0  0
    6.9608  -18.2210   26.2296 C   0  0  0  0  0  0  0  0  0  0  0  0
    8.1537  -17.8244   25.6641 C   0  0  0  0  0  0  0  0  0  0  0  0
    8.2748  -17.4866   24.2220 C   0  0  0  0  0  0  0  0  0  0  0  0
    7.8258  -16.0582   23.9493 C   0  0  2  0  0  0  0  0  0  0  0  0
    8.2163  -15.7954   22.5698 N   0  0  0  0  0  0  0  0  0  0  0  0
    8.6168  -15.1758   24.8396 C   0  0  0  0  0  0  0  0  0  0  0  0
    9.8756  -15.1241   24.5984 O   0  0  0  0  0  0  0  0  0  0  0  0
    9.2277  -17.7615   26.5252 C   0  0  0  0  0  0  0  0  0  0  0  0
    9.1368  -18.0697   27.8625 C   0  0  0  0  0  0  0  0  0  0  0  0
    8.0817  -14.4165   25.8977 N   0  0  0  0  0  0  0  0  0  0  0  0
    6.7227  -14.4458   26.3708 C   0  0  0  0  0  0  0  0  0  0  0  0
    6.4774  -13.0601   26.9594 C   0  0  0  0  0  0  0  0  0  0  0  0
    7.8118  -12.3608   27.0022 C   0  0  0  0  0  0  0  0  0  0  0  0
    8.7939  -13.4588   26.7010 C   0  0  1  0  0  0  0  0  0  0  0  0
    9.2651  -14.1023   27.9418 C   0  0  0  0  0  0  0  0  0  0  0  0
   10.0405  -13.4780   28.6991 O   0  0  0  0  0  0  0  0  0  0  0  0
    8.8628  -15.3829   28.2788 O   0  0  0  0  0  0  0  0  0  0  0  0
  2  1  1  6
  2  3  1  0
  4  2  1  0
  4  5  1  6
  6  4  1  0
  7  6  2  0
  8  9  1  0
  9 10  2  0
  9 19  1  0
 10 11  1  0
 11 12  2  0
 12 13  1  0
 14 13  1  1
 14 15  1  0
 15  6  1  0
 16 14  1  0
 17 16  2  0
 18 12  1  0
 19 18  2  0
 20 16  1  0
 20 21  1  0
 21 22  1  0
 23 22  1  0
 24 20  1  0
 24 23  1  0
 24 25  1  1
 26 25  2  0
 27 25  1  0
M  END
$$$$
