TYP.pdb
     RDKit          3D

 27 28  0  0  1  0  0  0  0  0999 V2000
    4.9632  -21.7836   21.5877 C   0  0  0  0  0  0  0  0  0  0  0  0
    5.4536  -20.3644   21.8030 C   0  0  1  0  0  0  0  0  0  0  0  0
    5.7660  -19.8623   20.5289 O   0  0  0  0  0  0  0  0  0  0  0  0
    4.3862  -19.5039   22.4466 C   0  0  2  0  0  0  0  0  0  0  0  0
    3.2596  -19.4444   21.5358 N   0  0  0  0  0  0  0  0  0  0  0  0
    4.9745  -18.1576   22.6717 C   0  0  0  0  0  0  0  0  0  0  0  0
    4.7521  -17.2708   21.8171 O   0  0  0  0  0  0  0  0  0  0  0  0
    7.8114  -11.2459   27.3533 O   0  0  0  0  0  0  0  0  0  0  0  0
    7.5057  -12.5309   26.9153 C   0  0  0  0  0  0  0  0  0  0  0  0
    8.5230  -13.4026   26.5897 C   0  0  0  0  0  0  0  0  0  0  0  0
    8.2442  -14.6817   26.1532 C   0  0  0  0  0  0  0  0  0  0  0  0
    6.9556  -15.1526   26.0201 C   0  0  0  0  0  0  0  0  0  0  0  0
    6.6589  -16.5307   25.5498 C   0  0  0  0  0  0  0  0  0  0  0  0
    6.3474  -16.5511   24.0602 C   0  0  2  0  0  0  0  0  0  0  0  0
    5.7667  -17.8650   23.8128 N   0  0  0  0  0  0  0  0  0  0  0  0
    7.6420  -16.4654   23.3436 C   0  0  0  0  0  0  0  0  0  0  0  0
    8.3026  -17.5612   23.2521 O   0  0  0  0  0  0  0  0  0  0  0  0
    5.9595  -14.2603   26.3524 C   0  0  0  0  0  0  0  0  0  0  0  0
    6.2127  -12.9811   26.7896 C   0  0  0  0  0  0  0  0  0  0  0  0
    8.1683  -15.2890   22.7762 N   0  0  0  0  0  0  0  0  0  0  0  0
    7.7719  -13.9396   23.0818 C   0  0  0  0  0  0  0  0  0  0  0  0
    8.0581  -13.1446   21.8118 C   0  0  0  0  0  0  0  0  0  0  0  0
    8.8358  -14.0524   20.8938 C   0  0  0  0  0  0  0  0  0  0  0  0
    9.1981  -15.2161   21.7743 C   0  0  1  0  0  0  0  0  0  0  0  0
   10.5069  -15.0037   22.4204 C   0  0  0  0  0  0  0  0  0  0  0  0
   11.5359  -14.9376   21.7123 O   0  0  0  0  0  0  0  0  0  0  0  0
   10.6123  -14.8768   23.7945 O   0  0  0  0  0  0  0  0  0  0  0  0
  2  1  1  6
  2  3  1  0
  4  2  1  0
  4  5  1  6
  6  4  1  0
  7  6  2  0
  8  9  1  0
  9 10  2  0
  9 19  1  0
 10 11  1  0
 11 12  2  0
 12 13  1  0
 14 13  1  1
 14 15  1  0
 15  6  1  0
 16 14  1  0
 17 16  2  0
 18 12  1  0
 19 18  2  0
 20 16  1  0
 20 21  1  0
 21 22  1  0
 23 22  1  0
 24 20  1  0
 24 23  1  0
 24 25  1  1
 26 25  2  0
 27 25  1  0
M  END
$$$$
