TYP.pdb
     RDKit          3D

 27 28  0  0  1  0  0  0  0  0999 V2000
    6.9923  -19.6328   22.4622 C   0  0  0  0  0  0  0  0  0  0  0  0
    6.3686  -19.8662   23.8252 C   0  0  1  0  0  0  0  0  0  0  0  0
    6.4806  -21.2441   24.0743 O   0  0  0  0  0  0  0  0  0  0  0  0
    7.0938  -19.0887   24.9038 C   0  0  2  0  0  0  0  0  0  0  0  0
    6.3769  -19.2880   26.1483 N   0  0  0  0  0  0  0  0  0  0  0  0
    7.0929  -17.6584   24.4995 C   0  0  0  0  0  0  0  0  0  0  0  0
    6.0117  -17.0316   24.5654 O   0  0  0  0  0  0  0  0  0  0  0  0
    9.2455  -14.2419   29.7503 O   0  0  0  0  0  0  0  0  0  0  0  0
    9.3057  -14.4144   28.3707 C   0  0  0  0  0  0  0  0  0  0  0  0
   10.1408  -15.3729   27.8372 C   0  0  0  0  0  0  0  0  0  0  0  0
   10.2173  -15.5622   26.4724 C   0  0  0  0  0  0  0  0  0  0  0  0
    9.4763  -14.8171   25.5804 C   0  0  0  0  0  0  0  0  0  0  0  0
    9.5611  -15.0235   24.1112 C   0  0  0  0  0  0  0  0  0  0  0  0
    8.2771  -15.6299   23.5634 C   0  0  2  0  0  0  0  0  0  0  0  0
    8.2697  -17.0040   24.0499 N   0  0  0  0  0  0  0  0  0  0  0  0
    8.4024  -15.6533   22.0866 C   0  0  0  0  0  0  0  0  0  0  0  0
    8.5510  -16.8125   21.5577 O   0  0  0  0  0  0  0  0  0  0  0  0
    8.6508  -13.8670   26.1414 C   0  0  0  0  0  0  0  0  0  0  0  0
    8.5577  -13.6601   27.4980 C   0  0  0  0  0  0  0  0  0  0  0  0
    8.3672  -14.5135   21.2606 N   0  0  0  0  0  0  0  0  0  0  0  0
    8.3666  -13.1413   21.6948 C   0  0  0  0  0  0  0  0  0  0  0  0
    7.6384  -12.3770   20.5936 C   0  0  0  0  0  0  0  0  0  0  0  0
    7.4526  -13.3356   19.4455 C   0  0  0  0  0  0  0  0  0  0  0  0
    8.3156  -14.5076   19.8229 C   0  0  1  0  0  0  0  0  0  0  0  0
    9.6778  -14.3594   19.2767 C   0  0  0  0  0  0  0  0  0  0  0  0
   10.5996  -13.9701   20.0272 O   0  0  0  0  0  0  0  0  0  0  0  0
    9.9495  -14.6441   17.9499 O   0  0  0  0  0  0  0  0  0  0  0  0
  2  1  1  6
  2  3  1  0
  4  2  1  0
  4  5  1  1
  6  4  1  0
  7  6  2  0
  8  9  1  0
  9 10  2  0
  9 19  1  0
 10 11  1  0
 11 12  2  0
 12 13  1  0
 14 13  1  1
 14 15  1  0
 15  6  1  0
 16 14  1  0
 17 16  2  0
 18 12  1  0
 19 18  2  0
 20 16  1  0
 20 21  1  0
 21 22  1  0
 23 22  1  0
 24 20  1  0
 24 23  1  0
 24 25  1  6
 26 25  2  0
 27 25  1  0
M  END
$$$$
