TYP.pdb
     RDKit          3D

 27 28  0  0  1  0  0  0  0  0999 V2000
    6.4123  -22.4314   22.5768 C   0  0  0  0  0  0  0  0  0  0  0  0
    6.6134  -20.9339   22.7110 C   0  0  1  0  0  0  0  0  0  0  0  0
    7.0821  -20.4901   21.4635 O   0  0  0  0  0  0  0  0  0  0  0  0
    5.3154  -20.2316   23.0515 C   0  0  2  0  0  0  0  0  0  0  0  0
    4.3805  -20.4859   21.9728 N   0  0  0  0  0  0  0  0  0  0  0  0
    5.6138  -18.7813   23.1811 C   0  0  0  0  0  0  0  0  0  0  0  0
    5.3544  -18.0404   22.2063 O   0  0  0  0  0  0  0  0  0  0  0  0
    7.6338  -11.1008   27.1715 O   0  0  0  0  0  0  0  0  0  0  0  0
    7.4316  -12.4468   26.8821 C   0  0  0  0  0  0  0  0  0  0  0  0
    6.1487  -12.9475   26.8186 C   0  0  0  0  0  0  0  0  0  0  0  0
    5.9235  -14.2788   26.5333 C   0  0  0  0  0  0  0  0  0  0  0  0
    6.9503  -15.1683   26.2996 C   0  0  0  0  0  0  0  0  0  0  0  0
    6.7044  -16.6013   25.9926 C   0  0  0  0  0  0  0  0  0  0  0  0
    6.5211  -16.8227   24.4980 C   0  0  2  0  0  0  0  0  0  0  0  0
    6.1753  -18.2324   24.3637 N   0  0  0  0  0  0  0  0  0  0  0  0
    7.8398  -16.5979   23.8598 C   0  0  0  0  0  0  0  0  0  0  0  0
    8.6892  -17.5510   23.9837 O   0  0  0  0  0  0  0  0  0  0  0  0
    8.2213  -14.6405   26.3696 C   0  0  0  0  0  0  0  0  0  0  0  0
    8.4704  -13.3177   26.6522 C   0  0  0  0  0  0  0  0  0  0  0  0
    8.1990  -15.4370   23.1484 N   0  0  0  0  0  0  0  0  0  0  0  0
    7.5652  -14.1478   23.2375 C   0  0  0  0  0  0  0  0  0  0  0  0
    7.7970  -13.4968   21.8776 C   0  0  0  0  0  0  0  0  0  0  0  0
    8.7723  -14.3729   21.1341 C   0  0  0  0  0  0  0  0  0  0  0  0
    9.2650  -15.3244   22.1889 C   0  0  1  0  0  0  0  0  0  0  0  0
   10.4759  -14.8016   22.8493 C   0  0  0  0  0  0  0  0  0  0  0  0
   10.4036  -14.3998   24.0316 O   0  0  0  0  0  0  0  0  0  0  0  0
   11.6869  -14.7495   22.1814 O   0  0  0  0  0  0  0  0  0  0  0  0
  2  1  1  6
  2  3  1  0
  4  2  1  0
  4  5  1  6
  6  4  1  0
  7  6  2  0
  8  9  1  0
  9 10  2  0
  9 19  1  0
 10 11  1  0
 11 12  2  0
 12 13  1  0
 14 13  1  1
 14 15  1  0
 15  6  1  0
 16 14  1  0
 17 16  2  0
 18 12  1  0
 19 18  2  0
 20 16  1  0
 20 21  1  0
 21 22  1  0
 23 22  1  0
 24 20  1  0
 24 23  1  0
 24 25  1  1
 26 25  2  0
 27 25  1  0
M  END
$$$$
