TYP.pdb
     RDKit          3D

 27 28  0  0  1  0  0  0  0  0999 V2000
    8.1881  -19.5683   22.5676 C   0  0  0  0  0  0  0  0  0  0  0  0
    6.9107  -19.8968   23.3168 C   0  0  1  0  0  0  0  0  0  0  0  0
    7.0977  -21.1770   23.8637 O   0  0  0  0  0  0  0  0  0  0  0  0
    6.6491  -18.8981   24.4250 C   0  0  2  0  0  0  0  0  0  0  0  0
    5.4003  -19.2656   25.0638 N   0  0  0  0  0  0  0  0  0  0  0  0
    6.5645  -17.5517   23.8011 C   0  0  0  0  0  0  0  0  0  0  0  0
    5.5322  -17.2708   23.1516 O   0  0  0  0  0  0  0  0  0  0  0  0
    5.7842  -11.7709   28.2417 O   0  0  0  0  0  0  0  0  0  0  0  0
    6.4766  -12.4261   27.2279 C   0  0  0  0  0  0  0  0  0  0  0  0
    5.9555  -12.4546   25.9518 C   0  0  0  0  0  0  0  0  0  0  0  0
    6.6240  -13.0981   24.9303 C   0  0  0  0  0  0  0  0  0  0  0  0
    7.8296  -13.7378   25.1241 C   0  0  0  0  0  0  0  0  0  0  0  0
    8.5470  -14.4298   24.0219 C   0  0  0  0  0  0  0  0  0  0  0  0
    7.6060  -15.3211   23.2240 C   0  0  2  0  0  0  0  0  0  0  0  0
    7.6095  -16.5990   23.9252 N   0  0  0  0  0  0  0  0  0  0  0  0
    8.2183  -15.5147   21.8881 C   0  0  0  0  0  0  0  0  0  0  0  0
    8.6928  -16.6837   21.6560 O   0  0  0  0  0  0  0  0  0  0  0  0
    8.3264  -13.6932   26.4086 C   0  0  0  0  0  0  0  0  0  0  0  0
    7.6785  -13.0583   27.4425 C   0  0  0  0  0  0  0  0  0  0  0  0
    8.3039  -14.5216   20.8936 N   0  0  0  0  0  0  0  0  0  0  0  0
    7.9115  -13.1430   21.0243 C   0  0  0  0  0  0  0  0  0  0  0  0
    7.5305  -12.7034   19.6141 C   0  0  0  0  0  0  0  0  0  0  0  0
    7.9502  -13.8113   18.6825 C   0  0  0  0  0  0  0  0  0  0  0  0
    8.7928  -14.7021   19.5526 C   0  0  1  0  0  0  0  0  0  0  0  0
   10.2149  -14.3161   19.4852 C   0  0  0  0  0  0  0  0  0  0  0  0
   10.6981  -13.5984   20.3885 O   0  0  0  0  0  0  0  0  0  0  0  0
   11.0193  -14.7354   18.4401 O   0  0  0  0  0  0  0  0  0  0  0  0
  2  1  1  1
  2  3  1  0
  4  2  1  0
  4  5  1  6
  6  4  1  0
  7  6  2  0
  8  9  1  0
  9 10  2  0
  9 19  1  0
 10 11  1  0
 11 12  2  0
 12 13  1  0
 14 13  1  1
 14 15  1  0
 15  6  1  0
 16 14  1  0
 17 16  2  0
 18 12  1  0
 19 18  2  0
 20 16  1  0
 20 21  1  0
 21 22  1  0
 23 22  1  0
 24 20  1  0
 24 23  1  0
 24 25  1  1
 26 25  2  0
 27 25  1  0
M  END
$$$$
