TYP.pdb
     RDKit          3D

 27 28  0  0  1  0  0  0  0  0999 V2000
    8.3882  -20.9328   24.7868 C   0  0  0  0  0  0  0  0  0  0  0  0
    7.8942  -19.6602   24.1253 C   0  0  1  0  0  0  0  0  0  0  0  0
    6.9817  -20.0636   23.1366 O   0  0  0  0  0  0  0  0  0  0  0  0
    7.2035  -18.7529   25.1222 C   0  0  2  0  0  0  0  0  0  0  0  0
    5.9787  -19.4076   25.5390 N   0  0  0  0  0  0  0  0  0  0  0  0
    6.9243  -17.4653   24.4343 C   0  0  0  0  0  0  0  0  0  0  0  0
    5.7489  -17.2394   24.0683 O   0  0  0  0  0  0  0  0  0  0  0  0
    5.6399  -11.7003   28.2467 O   0  0  0  0  0  0  0  0  0  0  0  0
    6.3340  -12.3114   27.2069 C   0  0  0  0  0  0  0  0  0  0  0  0
    7.5585  -12.8955   27.4524 C   0  0  0  0  0  0  0  0  0  0  0  0
    8.2652  -13.5074   26.4372 C   0  0  0  0  0  0  0  0  0  0  0  0
    7.7955  -13.5685   25.1427 C   0  0  0  0  0  0  0  0  0  0  0  0
    8.5591  -14.2283   24.0518 C   0  0  0  0  0  0  0  0  0  0  0  0
    7.7334  -15.3151   23.3783 C   0  0  2  0  0  0  0  0  0  0  0  0
    7.9432  -16.5076   24.1897 N   0  0  0  0  0  0  0  0  0  0  0  0
    8.3264  -15.5454   22.0395 C   0  0  0  0  0  0  0  0  0  0  0  0
    8.7407  -16.7375   21.8106 O   0  0  0  0  0  0  0  0  0  0  0  0
    6.5699  -12.9770   24.9266 C   0  0  0  0  0  0  0  0  0  0  0  0
    5.8474  -12.3614   25.9220 C   0  0  0  0  0  0  0  0  0  0  0  0
    8.4545  -14.5626   21.0393 N   0  0  0  0  0  0  0  0  0  0  0  0
    8.1850  -13.1559   21.1816 C   0  0  0  0  0  0  0  0  0  0  0  0
    7.7851  -12.6854   19.7867 C   0  0  0  0  0  0  0  0  0  0  0  0
    8.0719  -13.8244   18.8422 C   0  0  0  0  0  0  0  0  0  0  0  0
    8.8714  -14.7832   19.6802 C   0  0  1  0  0  0  0  0  0  0  0  0
   10.3170  -14.5180   19.5538 C   0  0  0  0  0  0  0  0  0  0  0  0
   10.8955  -14.7789   18.4760 O   0  0  0  0  0  0  0  0  0  0  0  0
   11.0398  -13.9864   20.6075 O   0  0  0  0  0  0  0  0  0  0  0  0
  2  1  1  1
  2  3  1  0
  4  2  1  0
  4  5  1  6
  6  4  1  0
  7  6  2  0
  8  9  1  0
  9 10  2  0
  9 19  1  0
 10 11  1  0
 11 12  2  0
 12 13  1  0
 14 13  1  1
 14 15  1  0
 15  6  1  0
 16 14  1  0
 17 16  2  0
 18 12  1  0
 19 18  2  0
 20 16  1  0
 20 21  1  0
 21 22  1  0
 23 22  1  0
 24 20  1  0
 24 23  1  0
 24 25  1  1
 26 25  2  0
 27 25  1  0
M  END
$$$$
