TYP.pdb
     RDKit          3D

 27 28  0  0  1  0  0  0  0  0999 V2000
    7.3020  -20.5495   22.1068 C   0  0  0  0  0  0  0  0  0  0  0  0
    5.8172  -20.4848   21.8035 C   0  0  1  0  0  0  0  0  0  0  0  0
    5.4505  -21.7709   21.3742 O   0  0  0  0  0  0  0  0  0  0  0  0
    5.0190  -20.1071   23.0341 C   0  0  2  0  0  0  0  0  0  0  0  0
    3.6130  -20.2359   22.7041 N   0  0  0  0  0  0  0  0  0  0  0  0
    5.3695  -18.7047   23.3798 C   0  0  0  0  0  0  0  0  0  0  0  0
    4.9596  -17.7950   22.6243 O   0  0  0  0  0  0  0  0  0  0  0  0
    9.7673  -12.2212   27.6460 O   0  0  0  0  0  0  0  0  0  0  0  0
    9.1521  -13.4202   27.2990 C   0  0  0  0  0  0  0  0  0  0  0  0
    7.7854  -13.4618   27.1228 C   0  0  0  0  0  0  0  0  0  0  0  0
    7.1533  -14.6392   26.7787 C   0  0  0  0  0  0  0  0  0  0  0  0
    7.8401  -15.8201   26.5946 C   0  0  0  0  0  0  0  0  0  0  0  0
    7.1563  -17.0864   26.2239 C   0  0  0  0  0  0  0  0  0  0  0  0
    6.6624  -17.0470   24.7848 C   0  0  2  0  0  0  0  0  0  0  0  0
    6.1437  -18.3844   24.5258 N   0  0  0  0  0  0  0  0  0  0  0  0
    7.8483  -16.8264   23.9235 C   0  0  0  0  0  0  0  0  0  0  0  0
    8.5768  -17.8587   23.7022 O   0  0  0  0  0  0  0  0  0  0  0  0
    9.2041  -15.7490   26.7771 C   0  0  0  0  0  0  0  0  0  0  0  0
    9.8561  -14.5876   27.1200 C   0  0  0  0  0  0  0  0  0  0  0  0
    8.2065  -15.5896   23.3535 N   0  0  0  0  0  0  0  0  0  0  0  0
    7.7116  -14.2941   23.7383 C   0  0  0  0  0  0  0  0  0  0  0  0
    7.8056  -13.4424   22.4763 C   0  0  0  0  0  0  0  0  0  0  0  0
    8.5815  -14.2453   21.4639 C   0  0  0  0  0  0  0  0  0  0  0  0
    9.1309  -15.3900   22.2693 C   0  0  1  0  0  0  0  0  0  0  0  0
   10.4659  -15.0663   22.8067 C   0  0  0  0  0  0  0  0  0  0  0  0
   10.6008  -14.8708   24.0347 O   0  0  0  0  0  0  0  0  0  0  0  0
   11.5677  -14.9763   21.9741 O   0  0  0  0  0  0  0  0  0  0  0  0
  2  1  1  1
  2  3  1  0
  4  2  1  0
  4  5  1  6
  6  4  1  0
  7  6  2  0
  8  9  1  0
  9 10  2  0
  9 19  1  0
 10 11  1  0
 11 12  2  0
 12 13  1  0
 14 13  1  1
 14 15  1  0
 15  6  1  0
 16 14  1  0
 17 16  2  0
 18 12  1  0
 19 18  2  0
 20 16  1  0
 20 21  1  0
 21 22  1  0
 23 22  1  0
 24 20  1  0
 24 23  1  0
 24 25  1  1
 26 25  2  0
 27 25  1  0
M  END
$$$$
