TYP.pdb
     RDKit          3D

 27 28  0  0  1  0  0  0  0  0999 V2000
    8.5061  -19.6112   23.0746 C   0  0  0  0  0  0  0  0  0  0  0  0
    7.2921  -19.9803   23.9059 C   0  0  1  0  0  0  0  0  0  0  0  0
    7.5645  -21.2446   24.4539 O   0  0  0  0  0  0  0  0  0  0  0  0
    7.0596  -18.9780   25.0174 C   0  0  2  0  0  0  0  0  0  0  0  0
    5.9228  -19.4354   25.7926 N   0  0  0  0  0  0  0  0  0  0  0  0
    6.7894  -17.6619   24.3818 C   0  0  0  0  0  0  0  0  0  0  0  0
    5.6139  -17.4095   24.0340 O   0  0  0  0  0  0  0  0  0  0  0  0
    5.6773  -11.4599   28.0180 O   0  0  0  0  0  0  0  0  0  0  0  0
    6.3888  -12.1916   27.0721 C   0  0  0  0  0  0  0  0  0  0  0  0
    5.8275  -12.4431   25.8383 C   0  0  0  0  0  0  0  0  0  0  0  0
    6.5140  -13.1664   24.8844 C   0  0  0  0  0  0  0  0  0  0  0  0
    7.7778  -13.6698   25.1068 C   0  0  0  0  0  0  0  0  0  0  0  0
    8.5145  -14.4483   24.0773 C   0  0  0  0  0  0  0  0  0  0  0  0
    7.6116  -15.4767   23.4112 C   0  0  2  0  0  0  0  0  0  0  0  0
    7.8169  -16.7065   24.1663 N   0  0  0  0  0  0  0  0  0  0  0  0
    8.1228  -15.6778   22.0345 C   0  0  0  0  0  0  0  0  0  0  0  0
    8.5008  -16.8698   21.7485 O   0  0  0  0  0  0  0  0  0  0  0  0
    8.3139  -13.4033   26.3479 C   0  0  0  0  0  0  0  0  0  0  0  0
    7.6491  -12.6851   27.3143 C   0  0  0  0  0  0  0  0  0  0  0  0
    8.2123  -14.6685   21.0567 N   0  0  0  0  0  0  0  0  0  0  0  0
    7.8852  -13.2776   21.2297 C   0  0  0  0  0  0  0  0  0  0  0  0
    7.4686  -12.7927   19.8447 C   0  0  0  0  0  0  0  0  0  0  0  0
    7.8033  -13.8975   18.8757 C   0  0  0  0  0  0  0  0  0  0  0  0
    8.6401  -14.8414   19.6941 C   0  0  1  0  0  0  0  0  0  0  0  0
   10.0738  -14.5146   19.5774 C   0  0  0  0  0  0  0  0  0  0  0  0
   10.6654  -14.7317   18.4969 O   0  0  0  0  0  0  0  0  0  0  0  0
   10.7713  -13.9730   20.6430 O   0  0  0  0  0  0  0  0  0  0  0  0
  2  1  1  1
  2  3  1  0
  4  2  1  0
  4  5  1  6
  6  4  1  0
  7  6  2  0
  8  9  1  0
  9 10  2  0
  9 19  1  0
 10 11  1  0
 11 12  2  0
 12 13  1  0
 14 13  1  1
 14 15  1  0
 15  6  1  0
 16 14  1  0
 17 16  2  0
 18 12  1  0
 19 18  2  0
 20 16  1  0
 20 21  1  0
 21 22  1  0
 23 22  1  0
 24 20  1  0
 24 23  1  0
 24 25  1  1
 26 25  2  0
 27 25  1  0
M  END
$$$$
