TYP.pdb
     RDKit          3D

 27 28  0  0  1  0  0  0  0  0999 V2000
    7.5185  -21.2019   24.6023 C   0  0  0  0  0  0  0  0  0  0  0  0
    7.5161  -19.8273   23.9609 C   0  0  1  0  0  0  0  0  0  0  0  0
    7.4550  -20.0440   22.5744 O   0  0  0  0  0  0  0  0  0  0  0  0
    6.3194  -19.0129   24.4067 C   0  0  2  0  0  0  0  0  0  0  0  0
    5.1251  -19.7074   23.9665 N   0  0  0  0  0  0  0  0  0  0  0  0
    6.4321  -17.6722   23.7750 C   0  0  0  0  0  0  0  0  0  0  0  0
    5.5902  -17.3632   22.9021 O   0  0  0  0  0  0  0  0  0  0  0  0
    5.5966  -11.3383   28.0402 O   0  0  0  0  0  0  0  0  0  0  0  0
    6.3317  -12.1435   27.1756 C   0  0  0  0  0  0  0  0  0  0  0  0
    5.6786  -12.9150   26.2380 C   0  0  0  0  0  0  0  0  0  0  0  0
    6.3864  -13.7212   25.3700 C   0  0  0  0  0  0  0  0  0  0  0  0
    7.7624  -13.7999   25.3904 C   0  0  0  0  0  0  0  0  0  0  0  0
    8.5216  -14.6691   24.4542 C   0  0  0  0  0  0  0  0  0  0  0  0
    7.5862  -15.4358   23.5303 C   0  0  2  0  0  0  0  0  0  0  0  0
    7.4543  -16.7554   24.1353 N   0  0  0  0  0  0  0  0  0  0  0  0
    8.2818  -15.5809   22.2295 C   0  0  0  0  0  0  0  0  0  0  0  0
    8.7066  -16.7591   21.9525 O   0  0  0  0  0  0  0  0  0  0  0  0
    8.3884  -13.0185   26.3372 C   0  0  0  0  0  0  0  0  0  0  0  0
    7.7046  -12.2075   27.2127 C   0  0  0  0  0  0  0  0  0  0  0  0
    8.4937  -14.5338   21.3122 N   0  0  0  0  0  0  0  0  0  0  0  0
    8.3349  -13.1264   21.5679 C   0  0  0  0  0  0  0  0  0  0  0  0
    7.9828  -12.5147   20.2155 C   0  0  0  0  0  0  0  0  0  0  0  0
    8.1854  -13.5928   19.1820 C   0  0  0  0  0  0  0  0  0  0  0  0
    8.9013  -14.6763   19.9399 C   0  0  1  0  0  0  0  0  0  0  0  0
   10.3640  -14.5169   19.8360 C   0  0  0  0  0  0  0  0  0  0  0  0
   10.9250  -14.7152   18.7358 O   0  0  0  0  0  0  0  0  0  0  0  0
   11.1220  -14.1523   20.9350 O   0  0  0  0  0  0  0  0  0  0  0  0
  2  1  1  1
  2  3  1  0
  4  2  1  0
  4  5  1  6
  6  4  1  0
  7  6  2  0
  8  9  1  0
  9 10  2  0
  9 19  1  0
 10 11  1  0
 11 12  2  0
 12 13  1  0
 14 13  1  1
 14 15  1  0
 15  6  1  0
 16 14  1  0
 17 16  2  0
 18 12  1  0
 19 18  2  0
 20 16  1  0
 20 21  1  0
 21 22  1  0
 23 22  1  0
 24 20  1  0
 24 23  1  0
 24 25  1  1
 26 25  2  0
 27 25  1  0
M  END
$$$$
