FST.pdb
     RDKit          3D

 25 25  0  0  1  0  0  0  0  0999 V2000
   23.2016  -14.5081  -17.3467 N   0  0  0  0  0  0  0  0  0  0  0  0
   22.0998  -14.1396  -16.4935 C   0  0  1  0  0  0  0  0  0  0  0  0
   22.5115  -14.3968  -15.0632 C   0  0  0  0  0  0  0  0  0  0  0  0
   22.6691  -15.8477  -14.8968 C   0  0  0  0  0  0  0  0  0  0  0  0
   21.5678  -16.6618  -14.9200 C   0  0  0  0  0  0  0  0  0  0  0  0
   21.6835  -18.0333  -14.7653 C   0  0  0  0  0  0  0  0  0  0  0  0
   22.9401  -18.5785  -14.5848 C   0  0  0  0  0  0  0  0  0  0  0  0
   24.0492  -17.7930  -14.5579 C   0  0  0  0  0  0  0  0  0  0  0  0
   23.9038  -16.4274  -14.7150 C   0  0  0  0  0  0  0  0  0  0  0  0
   21.6062  -12.7799  -16.7292 C   0  0  0  0  0  0  0  0  0  0  0  0
   22.4531  -11.8498  -16.8318 O   0  0  0  0  0  0  0  0  0  0  0  0
   17.5005  -11.6412  -17.0916 O   0  0  0  0  0  0  0  0  0  0  0  0
   18.4681  -11.0994  -17.9012 C   0  0  0  0  0  0  0  0  0  0  0  0
   19.8202  -11.0698  -17.2226 C   0  0  2  0  0  0  0  0  0  0  0  0
   20.2438  -12.4108  -16.8540 N   0  0  0  0  0  0  0  0  0  0  0  0
   19.8263  -10.1617  -16.0538 C   0  0  0  0  0  0  0  0  0  0  0  0
   19.3899  -10.6108  -14.9590 O   0  0  0  0  0  0  0  0  0  0  0  0
   22.5427   -8.4918  -14.1550 C   0  0  0  0  0  0  0  0  0  0  0  0
   21.5885   -7.4286  -14.6402 C   0  0  1  0  0  0  0  0  0  0  0  0
   22.1396   -6.8557  -15.7859 O   0  0  0  0  0  0  0  0  0  0  0  0
   20.2067   -7.9558  -14.8989 C   0  0  2  0  0  0  0  0  0  0  0  0
   20.2835   -8.8280  -16.0636 N   0  0  0  0  0  0  0  0  0  0  0  0
   19.2808   -6.8354  -15.1053 C   0  0  0  0  0  0  0  0  0  0  0  0
   18.7417   -6.5608  -16.2085 O   0  0  0  0  0  0  0  0  0  0  0  0
   18.9797   -6.0292  -14.0230 O   0  0  0  0  0  0  0  0  0  0  0  0
  2  1  1  6
  2 10  1  0
  3  2  1  0
  4  9  2  0
  4  3  1  0
  5  4  1  0
  6  7  1  0
  6  5  2  0
  7  8  2  0
  8  9  1  0
 10 11  2  0
 12 13  1  0
 14 13  1  1
 14 16  1  0
 15 10  1  0
 15 14  1  0
 16 17  2  0
 19 18  1  6
 19 21  1  0
 20 19  1  0
 21 23  1  0
 22 16  1  0
 21 22  1  6
 23 24  2  0
 23 25  1  0
M  END
$$$$
