FST.pdb
     RDKit          3D

 25 25  0  0  1  0  0  0  0  0999 V2000
   23.8723  -12.5055  -17.1585 N   0  0  0  0  0  0  0  0  0  0  0  0
   24.2244  -11.3934  -16.3116 C   0  0  1  0  0  0  0  0  0  0  0  0
   25.5478  -10.8443  -16.7894 C   0  0  0  0  0  0  0  0  0  0  0  0
   26.5423  -11.9204  -16.6862 C   0  0  0  0  0  0  0  0  0  0  0  0
   27.2117  -12.3419  -17.8045 C   0  0  0  0  0  0  0  0  0  0  0  0
   28.1543  -13.3545  -17.7399 C   0  0  0  0  0  0  0  0  0  0  0  0
   28.4156  -13.9429  -16.5174 C   0  0  0  0  0  0  0  0  0  0  0  0
   27.7654  -13.5434  -15.3925 C   0  0  0  0  0  0  0  0  0  0  0  0
   26.8297  -12.5305  -15.4867 C   0  0  0  0  0  0  0  0  0  0  0  0
   23.1698  -10.3811  -16.2062 C   0  0  0  0  0  0  0  0  0  0  0  0
   22.6566   -9.9445  -17.2735 O   0  0  0  0  0  0  0  0  0  0  0  0
   21.9470   -8.6101  -12.5961 O   0  0  0  0  0  0  0  0  0  0  0  0
   21.0006   -8.7518  -13.5807 C   0  0  0  0  0  0  0  0  0  0  0  0
   21.6250   -8.8286  -14.9569 C   0  0  2  0  0  0  0  0  0  0  0  0
   22.6678   -9.8409  -14.9963 N   0  0  0  0  0  0  0  0  0  0  0  0
   22.1343   -7.5118  -15.4012 C   0  0  0  0  0  0  0  0  0  0  0  0
   23.3542   -7.2577  -15.2058 O   0  0  0  0  0  0  0  0  0  0  0  0
   19.6827   -4.6305  -17.4272 C   0  0  0  0  0  0  0  0  0  0  0  0
   21.1527   -4.8277  -17.7042 C   0  0  1  0  0  0  0  0  0  0  0  0
   21.6467   -3.6375  -18.2370 O   0  0  0  0  0  0  0  0  0  0  0  0
   21.9263   -5.2493  -16.4885 C   0  0  2  0  0  0  0  0  0  0  0  0
   21.3633   -6.5125  -16.0296 N   0  0  0  0  0  0  0  0  0  0  0  0
   21.8456   -4.2015  -15.4634 C   0  0  0  0  0  0  0  0  0  0  0  0
   21.1486   -4.2890  -14.4196 O   0  0  0  0  0  0  0  0  0  0  0  0
   22.5796   -3.0450  -15.6527 O   0  0  0  0  0  0  0  0  0  0  0  0
  2  1  1  6
  2 10  1  0
  3  2  1  0
  4  9  2  0
  4  3  1  0
  5  4  1  0
  6  7  1  0
  6  5  2  0
  7  8  2  0
  8  9  1  0
 10 11  2  0
 12 13  1  0
 14 13  1  1
 14 16  1  0
 15 10  1  0
 15 14  1  0
 16 17  2  0
 19 18  1  1
 19 21  1  0
 20 19  1  0
 21 23  1  0
 22 16  1  0
 21 22  1  1
 23 24  2  0
 23 25  1  0
M  END
$$$$
