FST.pdb
     RDKit          3D

 25 25  0  0  1  0  0  0  0  0999 V2000
   27.6215  -22.2387  -11.4111 N   0  0  0  0  0  0  0  0  0  0  0  0
   26.5336  -21.4416  -10.9023 C   0  0  1  0  0  0  0  0  0  0  0  0
   27.0620  -20.0540  -10.6256 C   0  0  0  0  0  0  0  0  0  0  0  0
   27.5075  -20.0154   -9.2265 C   0  0  0  0  0  0  0  0  0  0  0  0
   26.6041  -19.7631   -8.2283 C   0  0  0  0  0  0  0  0  0  0  0  0
   26.9932  -19.7195   -6.8998 C   0  0  0  0  0  0  0  0  0  0  0  0
   28.3217  -19.9365   -6.5885 C   0  0  0  0  0  0  0  0  0  0  0  0
   29.2385  -20.1890   -7.5599 C   0  0  0  0  0  0  0  0  0  0  0  0
   28.8217  -20.2266   -8.8772 C   0  0  0  0  0  0  0  0  0  0  0  0
   25.3443  -21.4595  -11.7586 C   0  0  0  0  0  0  0  0  0  0  0  0
   25.5129  -21.4721  -13.0094 O   0  0  0  0  0  0  0  0  0  0  0  0
   21.4592  -21.2888  -10.2830 O   0  0  0  0  0  0  0  0  0  0  0  0
   21.6243  -22.0029  -11.4441 C   0  0  0  0  0  0  0  0  0  0  0  0
   22.8643  -21.5750  -12.1985 C   0  0  2  0  0  0  0  0  0  0  0  0
   24.0031  -21.4639  -11.3016 N   0  0  0  0  0  0  0  0  0  0  0  0
   22.6427  -20.3179  -12.9476 C   0  0  0  0  0  0  0  0  0  0  0  0
   22.8092  -19.2300  -12.3314 O   0  0  0  0  0  0  0  0  0  0  0  0
   24.0257  -18.9345  -16.3758 C   0  0  0  0  0  0  0  0  0  0  0  0
   22.5211  -19.0439  -16.3508 C   0  0  1  0  0  0  0  0  0  0  0  0
   22.1722  -20.2345  -16.9873 O   0  0  0  0  0  0  0  0  0  0  0  0
   21.9520  -18.9744  -14.9632 C   0  0  2  0  0  0  0  0  0  0  0  0
   22.2595  -20.2360  -14.3020 N   0  0  0  0  0  0  0  0  0  0  0  0
   20.5073  -18.7231  -15.0335 C   0  0  0  0  0  0  0  0  0  0  0  0
   19.6302  -19.5436  -14.6588 O   0  0  0  0  0  0  0  0  0  0  0  0
   20.0794  -17.5107  -15.5425 O   0  0  0  0  0  0  0  0  0  0  0  0
  2  1  1  6
  2 10  1  0
  3  2  1  0
  4  9  2  0
  4  3  1  0
  5  4  1  0
  6  7  1  0
  6  5  2  0
  7  8  2  0
  8  9  1  0
 10 11  2  0
 12 13  1  0
 14 13  1  1
 14 16  1  0
 15 10  1  0
 15 14  1  0
 16 17  2  0
 19 18  1  1
 19 21  1  0
 20 19  1  0
 21 23  1  0
 22 16  1  0
 21 22  1  6
 23 24  2  0
 23 25  1  0
M  END
$$$$
