FST.pdb
     RDKit          3D

 25 25  0  0  1  0  0  0  0  0999 V2000
   22.2804  -18.6001  -19.5653 N   0  0  0  0  0  0  0  0  0  0  0  0
   21.1457  -18.1495  -18.7990 C   0  0  1  0  0  0  0  0  0  0  0  0
   19.9967  -17.9275  -19.7539 C   0  0  0  0  0  0  0  0  0  0  0  0
   20.3036  -16.7341  -20.5534 C   0  0  0  0  0  0  0  0  0  0  0  0
   21.0299  -16.8536  -21.7087 C   0  0  0  0  0  0  0  0  0  0  0  0
   21.3360  -15.7475  -22.4838 C   0  0  0  0  0  0  0  0  0  0  0  0
   20.8942  -14.5046  -22.0729 C   0  0  0  0  0  0  0  0  0  0  0  0
   20.1718  -14.3584  -20.9307 C   0  0  0  0  0  0  0  0  0  0  0  0
   19.8810  -15.4798  -20.1768 C   0  0  0  0  0  0  0  0  0  0  0  0
   20.8147  -19.0265  -17.6724 C   0  0  0  0  0  0  0  0  0  0  0  0
   20.7303  -20.2669  -17.8899 O   0  0  0  0  0  0  0  0  0  0  0  0
   21.8544  -18.8397  -13.5650 O   0  0  0  0  0  0  0  0  0  0  0  0
   20.5263  -18.8605  -13.9131 C   0  0  0  0  0  0  0  0  0  0  0  0
   20.3047  -19.5256  -15.2541 C   0  0  2  0  0  0  0  0  0  0  0  0
   20.5774  -18.6006  -16.3420 N   0  0  0  0  0  0  0  0  0  0  0  0
   18.9449  -20.0999  -15.3622 C   0  0  0  0  0  0  0  0  0  0  0  0
   18.0141  -19.3379  -15.7413 O   0  0  0  0  0  0  0  0  0  0  0  0
   17.9351  -23.7329  -16.8098 C   0  0  0  0  0  0  0  0  0  0  0  0
   17.3371  -23.4216  -15.4601 C   0  0  1  0  0  0  0  0  0  0  0  0
   18.1064  -24.0717  -14.4957 O   0  0  0  0  0  0  0  0  0  0  0  0
   17.2426  -21.9483  -15.1872 C   0  0  2  0  0  0  0  0  0  0  0  0
   18.6026  -21.4373  -15.0753 N   0  0  0  0  0  0  0  0  0  0  0  0
   16.4627  -21.7211  -13.9644 C   0  0  0  0  0  0  0  0  0  0  0  0
   15.2492  -22.0272  -13.8355 O   0  0  0  0  0  0  0  0  0  0  0  0
   17.0971  -21.1343  -12.8848 O   0  0  0  0  0  0  0  0  0  0  0  0
  2  1  1  6
  2 10  1  0
  3  2  1  0
  4  9  2  0
  4  3  1  0
  5  4  1  0
  6  7  1  0
  6  5  2  0
  7  8  2  0
  8  9  1  0
 10 11  2  0
 12 13  1  0
 14 13  1  1
 14 16  1  0
 15 10  1  0
 15 14  1  0
 16 17  2  0
 19 18  1  6
 19 21  1  0
 20 19  1  0
 21 23  1  0
 22 16  1  0
 21 22  1  1
 23 24  2  0
 23 25  1  0
M  END
$$$$
