FST.pdb
     RDKit          3D

 25 25  0  0  1  0  0  0  0  0999 V2000
   25.2875  -11.2185  -18.1561 N   0  0  0  0  0  0  0  0  0  0  0  0
   25.0903  -10.6883  -16.8303 C   0  0  1  0  0  0  0  0  0  0  0  0
   26.4006  -10.0993  -16.3641 C   0  0  0  0  0  0  0  0  0  0  0  0
   27.3918  -11.1828  -16.3307 C   0  0  0  0  0  0  0  0  0  0  0  0
   27.2250  -12.2354  -15.4701 C   0  0  0  0  0  0  0  0  0  0  0  0
   28.1421  -13.2717  -15.4145 C   0  0  0  0  0  0  0  0  0  0  0  0
   29.2427  -13.2312  -16.2488 C   0  0  0  0  0  0  0  0  0  0  0  0
   29.4319  -12.1984  -17.1121 C   0  0  0  0  0  0  0  0  0  0  0  0
   28.5003  -11.1778  -17.1460 C   0  0  0  0  0  0  0  0  0  0  0  0
   23.9595   -9.7612  -16.7327 C   0  0  0  0  0  0  0  0  0  0  0  0
   23.5286   -9.2357  -17.7963 O   0  0  0  0  0  0  0  0  0  0  0  0
   19.9635   -8.2192  -14.5882 O   0  0  0  0  0  0  0  0  0  0  0  0
   21.0682   -9.0346  -14.6016 C   0  0  0  0  0  0  0  0  0  0  0  0
   22.1557   -8.4968  -15.5059 C   0  0  2  0  0  0  0  0  0  0  0  0
   23.2972   -9.3966  -15.5343 N   0  0  0  0  0  0  0  0  0  0  0  0
   22.5589   -7.1256  -15.1214 C   0  0  0  0  0  0  0  0  0  0  0  0
   23.4558   -7.0017  -14.2433 O   0  0  0  0  0  0  0  0  0  0  0  0
   23.8042   -4.2501  -17.3032 C   0  0  0  0  0  0  0  0  0  0  0  0
   22.6420   -3.7813  -16.4630 C   0  0  1  0  0  0  0  0  0  0  0  0
   21.5065   -3.7827  -17.2723 O   0  0  0  0  0  0  0  0  0  0  0  0
   22.4391   -4.6119  -15.2288 C   0  0  2  0  0  0  0  0  0  0  0  0
   22.0203   -5.9392  -15.6602 N   0  0  0  0  0  0  0  0  0  0  0  0
   21.4438   -3.9715  -14.3603 C   0  0  0  0  0  0  0  0  0  0  0  0
   20.3003   -4.4437  -14.1314 O   0  0  0  0  0  0  0  0  0  0  0  0
   21.7795   -2.7748  -13.7541 O   0  0  0  0  0  0  0  0  0  0  0  0
  2  1  1  6
  2 10  1  0
  3  2  1  0
  4  9  2  0
  4  3  1  0
  5  4  1  0
  6  7  1  0
  6  5  2  0
  7  8  2  0
  8  9  1  0
 10 11  2  0
 12 13  1  0
 14 13  1  1
 14 16  1  0
 15 10  1  0
 15 14  1  0
 16 17  2  0
 19 18  1  6
 19 21  1  0
 20 19  1  0
 21 23  1  0
 22 16  1  0
 21 22  1  6
 23 24  2  0
 23 25  1  0
M  END
$$$$
