FST.pdb
     RDKit          3D

 25 25  0  0  1  0  0  0  0  0999 V2000
   24.2580  -10.9972  -19.2248 N   0  0  0  0  0  0  0  0  0  0  0  0
   23.2108  -10.0150  -19.3531 C   0  0  1  0  0  0  0  0  0  0  0  0
   21.9113  -10.6618  -18.9357 C   0  0  0  0  0  0  0  0  0  0  0  0
   21.5716  -11.6748  -19.9436 C   0  0  0  0  0  0  0  0  0  0  0  0
   21.2537  -11.2899  -21.2192 C   0  0  0  0  0  0  0  0  0  0  0  0
   20.9283  -12.2209  -22.1917 C   0  0  0  0  0  0  0  0  0  0  0  0
   20.9281  -13.5611  -21.8557 C   0  0  0  0  0  0  0  0  0  0  0  0
   21.2398  -13.9697  -20.5973 C   0  0  0  0  0  0  0  0  0  0  0  0
   21.5605  -13.0185  -19.6471 C   0  0  0  0  0  0  0  0  0  0  0  0
   23.4962   -8.7600  -18.6520 C   0  0  0  0  0  0  0  0  0  0  0  0
   23.9365   -8.8260  -17.4710 O   0  0  0  0  0  0  0  0  0  0  0  0
   23.1373   -4.9217  -20.3747 O   0  0  0  0  0  0  0  0  0  0  0  0
   24.0693   -5.1440  -19.3912 C   0  0  0  0  0  0  0  0  0  0  0  0
   23.6445   -6.2510  -18.4510 C   0  0  2  0  0  0  0  0  0  0  0  0
   23.3196   -7.4607  -19.1890 N   0  0  0  0  0  0  0  0  0  0  0  0
   22.5221   -5.8309  -17.5825 C   0  0  0  0  0  0  0  0  0  0  0  0
   21.3534   -5.9227  -18.0478 O   0  0  0  0  0  0  0  0  0  0  0  0
   21.6190   -7.0030  -14.0922 C   0  0  0  0  0  0  0  0  0  0  0  0
   21.6826   -5.4956  -14.0967 C   0  0  1  0  0  0  0  0  0  0  0  0
   22.8985   -5.1212  -13.5257 O   0  0  0  0  0  0  0  0  0  0  0  0
   21.5138   -4.9066  -15.4674 C   0  0  2  0  0  0  0  0  0  0  0  0
   22.6527   -5.3344  -16.2693 N   0  0  0  0  0  0  0  0  0  0  0  0
   21.4228   -3.4446  -15.3693 C   0  0  0  0  0  0  0  0  0  0  0  0
   22.2991   -2.6533  -15.8037 O   0  0  0  0  0  0  0  0  0  0  0  0
   20.3063   -2.8992  -14.7624 O   0  0  0  0  0  0  0  0  0  0  0  0
  2  1  1  1
  2 10  1  0
  3  2  1  0
  4  9  2  0
  4  3  1  0
  5  4  1  0
  6  7  1  0
  6  5  2  0
  7  8  2  0
  8  9  1  0
 10 11  2  0
 12 13  1  0
 14 13  1  6
 14 16  1  0
 15 10  1  0
 15 14  1  0
 16 17  2  0
 19 18  1  6
 19 21  1  0
 20 19  1  0
 21 23  1  0
 22 16  1  0
 21 22  1  6
 23 24  2  0
 23 25  1  0
M  END
$$$$
