FST.pdb
     RDKit          3D

 25 25  0  0  1  0  0  0  0  0999 V2000
   22.5007  -21.7572  -14.9318 N   0  0  0  0  0  0  0  0  0  0  0  0
   23.3582  -20.7066  -14.4432 C   0  0  1  0  0  0  0  0  0  0  0  0
   22.4809  -19.5874  -13.9344 C   0  0  0  0  0  0  0  0  0  0  0  0
   21.8703  -18.9327  -15.0989 C   0  0  0  0  0  0  0  0  0  0  0  0
   20.5171  -19.0119  -15.2961 C   0  0  0  0  0  0  0  0  0  0  0  0
   19.9119  -18.4061  -16.3845 C   0  0  0  0  0  0  0  0  0  0  0  0
   20.6997  -17.7110  -17.2819 C   0  0  0  0  0  0  0  0  0  0  0  0
   22.0448  -17.6171  -17.1096 C   0  0  0  0  0  0  0  0  0  0  0  0
   22.6217  -18.2317  -16.0142 C   0  0  0  0  0  0  0  0  0  0  0  0
   24.3508  -21.1671  -13.4681 C   0  0  0  0  0  0  0  0  0  0  0  0
   23.9730  -21.9680  -12.5687 O   0  0  0  0  0  0  0  0  0  0  0  0
   28.2947  -19.7765  -13.3696 O   0  0  0  0  0  0  0  0  0  0  0  0
   28.0618  -21.0018  -12.7952 C   0  0  0  0  0  0  0  0  0  0  0  0
   26.6190  -21.1592  -12.3670 C   0  0  2  0  0  0  0  0  0  0  0  0
   25.7160  -20.7883  -13.4443 N   0  0  0  0  0  0  0  0  0  0  0  0
   26.3282  -20.3964  -11.1324 C   0  0  0  0  0  0  0  0  0  0  0  0
   26.0544  -19.1708  -11.2501 O   0  0  0  0  0  0  0  0  0  0  0  0
   23.8274  -20.7461   -8.2676 C   0  0  0  0  0  0  0  0  0  0  0  0
   25.2323  -20.7598   -7.7178 C   0  0  1  0  0  0  0  0  0  0  0  0
   25.5738  -22.0871   -7.4607 O   0  0  0  0  0  0  0  0  0  0  0  0
   26.2255  -20.1034   -8.6327 C   0  0  2  0  0  0  0  0  0  0  0  0
   26.3310  -20.9307   -9.8276 N   0  0  0  0  0  0  0  0  0  0  0  0
   27.5132  -19.9595   -7.9427 C   0  0  0  0  0  0  0  0  0  0  0  0
   28.5726  -20.5366   -8.3000 O   0  0  0  0  0  0  0  0  0  0  0  0
   27.5701  -19.1398   -6.8304 O   0  0  0  0  0  0  0  0  0  0  0  0
  2  1  1  1
  2 10  1  0
  3  2  1  0
  4  9  2  0
  4  3  1  0
  5  4  1  0
  6  7  1  0
  6  5  2  0
  7  8  2  0
  8  9  1  0
 10 11  2  0
 12 13  1  0
 14 13  1  6
 14 16  1  0
 15 10  1  0
 15 14  1  0
 16 17  2  0
 19 18  1  6
 19 21  1  0
 20 19  1  0
 21 23  1  0
 22 16  1  0
 21 22  1  6
 23 24  2  0
 23 25  1  0
M  END
$$$$
