FST.pdb
     RDKit          3D

 25 25  0  0  1  0  0  0  0  0999 V2000
   18.1571  -11.5035  -17.7314 N   0  0  0  0  0  0  0  0  0  0  0  0
   18.5664  -10.1365  -17.9358 C   0  0  1  0  0  0  0  0  0  0  0  0
   17.3798   -9.3695  -18.4696 C   0  0  0  0  0  0  0  0  0  0  0  0
   17.0524   -9.9158  -19.7932 C   0  0  0  0  0  0  0  0  0  0  0  0
   17.8354   -9.6053  -20.8735 C   0  0  0  0  0  0  0  0  0  0  0  0
   17.5525  -10.1040  -22.1342 C   0  0  0  0  0  0  0  0  0  0  0  0
   16.4561  -10.9297  -22.2921 C   0  0  0  0  0  0  0  0  0  0  0  0
   15.6629  -11.2534  -21.2367 C   0  0  0  0  0  0  0  0  0  0  0  0
   15.9691  -10.7412  -19.9900 C   0  0  0  0  0  0  0  0  0  0  0  0
   19.1792   -9.5258  -16.7528 C   0  0  0  0  0  0  0  0  0  0  0  0
   18.6095   -9.6876  -15.6382 O   0  0  0  0  0  0  0  0  0  0  0  0
   23.1435   -8.9315  -16.1330 O   0  0  0  0  0  0  0  0  0  0  0  0
   22.1979   -8.9502  -15.1376 C   0  0  0  0  0  0  0  0  0  0  0  0
   20.9450   -8.2006  -15.5351 C   0  0  2  0  0  0  0  0  0  0  0  0
   20.3707   -8.7590  -16.7483 N   0  0  0  0  0  0  0  0  0  0  0  0
   21.1973   -6.7490  -15.6761 C   0  0  0  0  0  0  0  0  0  0  0  0
   21.7857   -6.3538  -16.7193 O   0  0  0  0  0  0  0  0  0  0  0  0
   18.7767   -3.8050  -15.5501 C   0  0  0  0  0  0  0  0  0  0  0  0
   19.8987   -3.5766  -14.5675 C   0  0  1  0  0  0  0  0  0  0  0  0
   19.4227   -3.9018  -13.2978 O   0  0  0  0  0  0  0  0  0  0  0  0
   21.1395   -4.3517  -14.9052 C   0  0  2  0  0  0  0  0  0  0  0  0
   20.8306   -5.7655  -14.7347 N   0  0  0  0  0  0  0  0  0  0  0  0
   22.2440   -3.9175  -14.0411 C   0  0  0  0  0  0  0  0  0  0  0  0
   22.7875   -4.6470  -13.1720 O   0  0  0  0  0  0  0  0  0  0  0  0
   22.7196   -2.6273  -14.1880 O   0  0  0  0  0  0  0  0  0  0  0  0
  2  1  1  1
  2 10  1  0
  3  2  1  0
  4  9  2  0
  4  3  1  0
  5  4  1  0
  6  7  1  0
  6  5  2  0
  7  8  2  0
  8  9  1  0
 10 11  2  0
 12 13  1  0
 14 13  1  6
 14 16  1  0
 15 10  1  0
 15 14  1  0
 16 17  2  0
 19 18  1  6
 19 21  1  0
 20 19  1  0
 21 23  1  0
 22 16  1  0
 21 22  1  1
 23 24  2  0
 23 25  1  0
M  END
$$$$
