FST.pdb
     RDKit          3D

 25 25  0  0  1  0  0  0  0  0999 V2000
   28.1367  -21.3268  -14.6038 N   0  0  0  0  0  0  0  0  0  0  0  0
   27.0486  -21.0115  -13.7125 C   0  0  1  0  0  0  0  0  0  0  0  0
   27.4823  -19.8602  -12.8363 C   0  0  0  0  0  0  0  0  0  0  0  0
   28.3563  -20.4010  -11.7869 C   0  0  0  0  0  0  0  0  0  0  0  0
   27.8090  -20.9943  -10.6801 C   0  0  0  0  0  0  0  0  0  0  0  0
   28.6062  -21.5129   -9.6733 C   0  0  0  0  0  0  0  0  0  0  0  0
   29.9792  -21.4238   -9.7998 C   0  0  0  0  0  0  0  0  0  0  0  0
   30.5478  -20.8401  -10.8878 C   0  0  0  0  0  0  0  0  0  0  0  0
   29.7277  -20.3311  -11.8771 C   0  0  0  0  0  0  0  0  0  0  0  0
   25.7757  -20.7809  -14.4013 C   0  0  0  0  0  0  0  0  0  0  0  0
   25.7773  -20.0333  -15.4182 O   0  0  0  0  0  0  0  0  0  0  0  0
   22.1128  -22.7576  -13.5013 O   0  0  0  0  0  0  0  0  0  0  0  0
   22.4702  -22.4115  -14.7811 C   0  0  0  0  0  0  0  0  0  0  0  0
   23.3165  -21.1574  -14.8112 C   0  0  2  0  0  0  0  0  0  0  0  0
   24.5255  -21.3299  -14.0224 N   0  0  0  0  0  0  0  0  0  0  0  0
   22.5505  -19.9696  -14.3719 C   0  0  0  0  0  0  0  0  0  0  0  0
   22.5928  -19.6628  -13.1492 O   0  0  0  0  0  0  0  0  0  0  0  0
   21.8767  -16.3169  -16.1591 C   0  0  0  0  0  0  0  0  0  0  0  0
   20.6526  -17.1325  -15.8232 C   0  0  1  0  0  0  0  0  0  0  0  0
   20.2417  -17.7792  -16.9883 O   0  0  0  0  0  0  0  0  0  0  0  0
   20.8872  -18.1078  -14.7061 C   0  0  2  0  0  0  0  0  0  0  0  0
   21.7735  -19.1472  -15.2133 N   0  0  0  0  0  0  0  0  0  0  0  0
   19.6031  -18.6502  -14.2457 C   0  0  0  0  0  0  0  0  0  0  0  0
   19.2404  -19.8429  -14.4155 O   0  0  0  0  0  0  0  0  0  0  0  0
   18.7352  -17.8012  -13.5839 O   0  0  0  0  0  0  0  0  0  0  0  0
  2  1  1  6
  2 10  1  0
  3  2  1  0
  4  9  2  0
  4  3  1  0
  5  4  1  0
  6  7  1  0
  6  5  2  0
  7  8  2  0
  8  9  1  0
 10 11  2  0
 12 13  1  0
 14 13  1  1
 14 16  1  0
 15 10  1  0
 15 14  1  0
 16 17  2  0
 19 18  1  6
 19 21  1  0
 20 19  1  0
 21 23  1  0
 22 16  1  0
 21 22  1  6
 23 24  2  0
 23 25  1  0
M  END
$$$$
