FST.pdb
     RDKit          3D

 25 25  0  0  1  0  0  0  0  0999 V2000
   23.6826  -12.5521  -16.3745 N   0  0  0  0  0  0  0  0  0  0  0  0
   23.8617  -11.1572  -16.0583 C   0  0  1  0  0  0  0  0  0  0  0  0
   24.9758  -10.6217  -16.9263 C   0  0  0  0  0  0  0  0  0  0  0  0
   26.2075  -11.3359  -16.5648 C   0  0  0  0  0  0  0  0  0  0  0  0
   26.8785  -11.0036  -15.4177 C   0  0  0  0  0  0  0  0  0  0  0  0
   28.0425  -11.6577  -15.0500 C   0  0  0  0  0  0  0  0  0  0  0  0
   28.5261  -12.6634  -15.8649 C   0  0  0  0  0  0  0  0  0  0  0  0
   27.8795  -13.0126  -17.0084 C   0  0  0  0  0  0  0  0  0  0  0  0
   26.7199  -12.3426  -17.3505 C   0  0  0  0  0  0  0  0  0  0  0  0
   22.6248  -10.3753  -16.1381 C   0  0  0  0  0  0  0  0  0  0  0  0
   21.7512  -10.7294  -16.9775 O   0  0  0  0  0  0  0  0  0  0  0  0
   20.9585   -8.3979  -13.0943 O   0  0  0  0  0  0  0  0  0  0  0  0
   20.2294   -8.6288  -14.2347 C   0  0  0  0  0  0  0  0  0  0  0  0
   21.0758   -8.4970  -15.4821 C   0  0  2  0  0  0  0  0  0  0  0  0
   22.3173   -9.2412  -15.3462 N   0  0  0  0  0  0  0  0  0  0  0  0
   21.3310   -7.0796  -15.8232 C   0  0  0  0  0  0  0  0  0  0  0  0
   22.3200   -6.5142  -15.2818 O   0  0  0  0  0  0  0  0  0  0  0  0
   21.8126   -5.3975  -19.2755 C   0  0  0  0  0  0  0  0  0  0  0  0
   20.7092   -4.7291  -18.4931 C   0  0  1  0  0  0  0  0  0  0  0  0
   19.4951   -5.2353  -18.9559 O   0  0  0  0  0  0  0  0  0  0  0  0
   20.8511   -4.9099  -17.0094 C   0  0  2  0  0  0  0  0  0  0  0  0
   20.5552   -6.3049  -16.7097 N   0  0  0  0  0  0  0  0  0  0  0  0
   19.9465   -3.9889  -16.3105 C   0  0  0  0  0  0  0  0  0  0  0  0
   18.9176   -4.3517  -15.6838 O   0  0  0  0  0  0  0  0  0  0  0  0
   20.2396   -2.6378  -16.3401 O   0  0  0  0  0  0  0  0  0  0  0  0
  2  1  1  6
  2 10  1  0
  3  2  1  0
  4  9  2  0
  4  3  1  0
  5  4  1  0
  6  7  1  0
  6  5  2  0
  7  8  2  0
  8  9  1  0
 10 11  2  0
 12 13  1  0
 14 13  1  1
 14 16  1  0
 15 10  1  0
 15 14  1  0
 16 17  2  0
 19 18  1  6
 19 21  1  0
 20 19  1  0
 21 23  1  0
 22 16  1  0
 21 22  1  6
 23 24  2  0
 23 25  1  0
M  END
$$$$
