FST.pdb
     RDKit          3D

 25 25  0  0  1  0  0  0  0  0999 V2000
   22.7937  -10.1525  -15.0921 N   0  0  0  0  0  0  0  0  0  0  0  0
   21.8165   -9.1823  -15.5183 C   0  0  1  0  0  0  0  0  0  0  0  0
   20.4490   -9.7022  -15.1429 C   0  0  0  0  0  0  0  0  0  0  0  0
   20.0667  -10.7143  -16.1365 C   0  0  0  0  0  0  0  0  0  0  0  0
   20.0368  -12.0384  -15.7867 C   0  0  0  0  0  0  0  0  0  0  0  0
   19.6813  -13.0162  -16.7009 C   0  0  0  0  0  0  0  0  0  0  0  0
   19.3525  -12.6355  -17.9877 C   0  0  0  0  0  0  0  0  0  0  0  0
   19.3741  -11.3285  -18.3607 C   0  0  0  0  0  0  0  0  0  0  0  0
   19.7328  -10.3741  -17.4274 C   0  0  0  0  0  0  0  0  0  0  0  0
   22.0859   -7.8268  -15.0305 C   0  0  0  0  0  0  0  0  0  0  0  0
   22.3232   -7.6743  -13.8003 O   0  0  0  0  0  0  0  0  0  0  0  0
   23.9172   -4.9564  -17.1604 O   0  0  0  0  0  0  0  0  0  0  0  0
   23.8316   -4.9280  -15.7903 C   0  0  0  0  0  0  0  0  0  0  0  0
   22.4626   -5.3485  -15.3016 C   0  0  2  0  0  0  0  0  0  0  0  0
   22.1041   -6.6555  -15.8277 N   0  0  0  0  0  0  0  0  0  0  0  0
   21.4318   -4.3362  -15.6231 C   0  0  0  0  0  0  0  0  0  0  0  0
   20.9379   -4.3491  -16.7836 O   0  0  0  0  0  0  0  0  0  0  0  0
   20.5765   -0.9638  -13.0862 C   0  0  0  0  0  0  0  0  0  0  0  0
   19.5027   -1.6607  -13.8846 C   0  0  1  0  0  0  0  0  0  0  0  0
   18.5101   -0.7234  -14.1684 O   0  0  0  0  0  0  0  0  0  0  0  0
   20.0273   -2.3027  -15.1364 C   0  0  2  0  0  0  0  0  0  0  0  0
   20.9530   -3.3532  -14.7329 N   0  0  0  0  0  0  0  0  0  0  0  0
   20.6729   -1.2884  -15.9788 C   0  0  0  0  0  0  0  0  0  0  0  0
   21.9179   -1.1849  -16.1282 O   0  0  0  0  0  0  0  0  0  0  0  0
   19.8665   -0.3888  -16.6516 O   0  0  0  0  0  0  0  0  0  0  0  0
  2  1  1  1
  2 10  1  0
  3  2  1  0
  4  9  2  0
  4  3  1  0
  5  4  1  0
  6  7  1  0
  6  5  2  0
  7  8  2  0
  8  9  1  0
 10 11  2  0
 12 13  1  0
 14 13  1  6
 14 16  1  0
 15 10  1  0
 15 14  1  0
 16 17  2  0
 19 18  1  6
 19 21  1  0
 20 19  1  0
 21 23  1  0
 22 16  1  0
 21 22  1  1
 23 24  2  0
 23 25  1  0
M  END
$$$$
