GLN.pdb
     RDKit          3D

 21 20  0  0  1  0  0  0  0  0999 V2000
    9.5761  -18.9881   17.6059 N   0  0  0  0  0  0  0  0  0  0  0  0
    8.7976  -18.3838   18.6574 C   0  0  0  0  0  0  0  0  0  0  0  0
    9.4100  -17.1497   19.1722 C   0  0  0  0  0  0  0  0  0  0  0  0
   10.5242  -16.7714   18.7314 O   0  0  0  0  0  0  0  0  0  0  0  0
    8.2406  -12.7660   19.1625 C   0  0  0  0  0  0  0  0  0  0  0  0
    7.6081  -13.5163   20.3166 C   0  0  2  0  0  0  0  0  0  0  0  0
    6.4582  -12.7698   20.8470 C   0  0  0  0  0  0  0  0  0  0  0  0
    8.5692  -14.1504   21.2369 C   0  0  0  0  0  0  0  0  0  0  0  0
    9.4707  -15.2046   20.7902 C   0  0  2  0  0  0  0  0  0  0  0  0
    8.8194  -16.3370   20.1534 N   0  0  0  0  0  0  0  0  0  0  0  0
   10.3320  -15.7674   21.8421 C   0  0  0  0  0  0  0  0  0  0  0  0
   11.0795  -15.1048   22.6148 O   0  0  0  0  0  0  0  0  0  0  0  0
   12.7526  -19.0578   25.0890 N   0  0  0  0  0  0  0  0  0  0  0  0
   11.4483  -19.5326   24.8159 C   0  0  0  0  0  0  0  0  0  0  0  0
   11.0725  -20.5603   25.4329 O   0  0  0  0  0  0  0  0  0  0  0  0
   10.5429  -18.8727   23.8536 C   0  0  0  0  0  0  0  0  0  0  0  0
   11.2300  -17.7908   23.0947 C   0  0  2  0  0  0  0  0  0  0  0  0
   10.3910  -17.1910   22.0828 N   0  0  0  0  0  0  0  0  0  0  0  0
   12.4581  -18.2628   22.4216 C   0  0  0  0  0  0  0  0  0  0  0  0
   13.5862  -18.0523   22.9252 O   0  0  0  0  0  0  0  0  0  0  0  0
   12.4378  -18.9541   21.2147 O   0  0  0  0  0  0  0  0  0  0  0  0
  1  2  1  0
  2  3  1  0
  3  4  2  0
  3 10  1  0
  6  5  1  1
  6  7  1  0
  8  6  1  0
  9  8  1  1
  9 11  1  0
 10  9  1  0
 11 12  2  0
 11 18  1  0
 13 14  1  0
 14 16  1  0
 14 15  2  0
 17 16  1  6
 17 19  1  0
 18 17  1  0
 19 21  1  0
 20 19  2  0
M  END
$$$$
