GLN.pdb
     RDKit          3D

 21 20  0  0  1  0  0  0  0  0999 V2000
    7.5633  -14.9438   20.1617 N   0  0  0  0  0  0  0  0  0  0  0  0
    6.8421  -15.1621   21.3901 C   0  0  0  0  0  0  0  0  0  0  0  0
    7.6200  -14.7719   22.5757 C   0  0  0  0  0  0  0  0  0  0  0  0
    8.8293  -14.4522   22.4550 O   0  0  0  0  0  0  0  0  0  0  0  0
    7.6349  -11.4161   25.6209 C   0  0  0  0  0  0  0  0  0  0  0  0
    6.6093  -12.4686   25.9889 C   0  0  2  0  0  0  0  0  0  0  0  0
    5.6495  -11.9324   26.9648 C   0  0  0  0  0  0  0  0  0  0  0  0
    7.1564  -13.8270   26.1560 C   0  0  0  0  0  0  0  0  0  0  0  0
    7.8727  -14.4983   25.0791 C   0  0  2  0  0  0  0  0  0  0  0  0
    7.0910  -14.7294   23.8759 N   0  0  0  0  0  0  0  0  0  0  0  0
    8.4569  -15.7989   25.4426 C   0  0  0  0  0  0  0  0  0  0  0  0
    7.8390  -16.8998   25.4782 O   0  0  0  0  0  0  0  0  0  0  0  0
   12.4552  -16.5816   23.2380 N   0  0  0  0  0  0  0  0  0  0  0  0
   11.7240  -17.4451   24.0869 C   0  0  0  0  0  0  0  0  0  0  0  0
   10.9839  -18.2977   23.5359 O   0  0  0  0  0  0  0  0  0  0  0  0
   11.8042  -17.3741   25.5599 C   0  0  0  0  0  0  0  0  0  0  0  0
   10.4655  -17.1735   26.1813 C   0  0  2  0  0  0  0  0  0  0  0  0
    9.8505  -15.9215   25.8046 N   0  0  0  0  0  0  0  0  0  0  0  0
   10.5149  -17.2100   27.6579 C   0  0  0  0  0  0  0  0  0  0  0  0
   10.1324  -16.2283   28.3364 O   0  0  0  0  0  0  0  0  0  0  0  0
   10.9786  -18.3117   28.3694 O   0  0  0  0  0  0  0  0  0  0  0  0
  1  2  1  0
  2  3  1  0
  3  4  2  0
  3 10  1  0
  6  5  1  1
  6  7  1  0
  8  6  1  0
  9  8  1  1
  9 11  1  0
 10  9  1  0
 11 12  2  0
 11 18  1  0
 13 14  1  0
 14 16  1  0
 14 15  2  0
 17 16  1  6
 17 19  1  0
 18 17  1  0
 19 21  1  0
 20 19  2  0
M  END
$$$$
