GLN.pdb
     RDKit          3D

 21 20  0  0  1  0  0  0  0  0999 V2000
    9.0224  -19.7769   17.4744 N   0  0  0  0  0  0  0  0  0  0  0  0
    8.5483  -19.2167   18.7146 C   0  0  0  0  0  0  0  0  0  0  0  0
    8.9695  -17.8195   18.8979 C   0  0  0  0  0  0  0  0  0  0  0  0
    9.8944  -17.3455   18.1915 O   0  0  0  0  0  0  0  0  0  0  0  0
    6.9858  -12.5971   21.7293 C   0  0  0  0  0  0  0  0  0  0  0  0
    7.9454  -13.2557   20.7596 C   0  0  2  0  0  0  0  0  0  0  0  0
    8.1731  -12.3901   19.5934 C   0  0  0  0  0  0  0  0  0  0  0  0
    7.7385  -14.7039   20.5793 C   0  0  0  0  0  0  0  0  0  0  0  0
    8.7772  -15.5585   20.0188 C   0  0  2  0  0  0  0  0  0  0  0  0
    8.3933  -16.9482   19.8365 N   0  0  0  0  0  0  0  0  0  0  0  0
   10.0369  -15.5791   20.7789 C   0  0  0  0  0  0  0  0  0  0  0  0
   10.8284  -14.6051   20.9193 O   0  0  0  0  0  0  0  0  0  0  0  0
   11.4203  -15.6804   24.7542 N   0  0  0  0  0  0  0  0  0  0  0  0
   11.4849  -17.0899   24.6523 C   0  0  0  0  0  0  0  0  0  0  0  0
   11.4088  -17.7451   25.7214 O   0  0  0  0  0  0  0  0  0  0  0  0
   11.6350  -17.7917   23.3615 C   0  0  0  0  0  0  0  0  0  0  0  0
   11.7124  -16.8417   22.2170 C   0  0  2  0  0  0  0  0  0  0  0  0
   10.4863  -16.7742   21.4558 N   0  0  0  0  0  0  0  0  0  0  0  0
   12.7965  -17.1806   21.2715 C   0  0  0  0  0  0  0  0  0  0  0  0
   12.5425  -17.7398   20.1791 O   0  0  0  0  0  0  0  0  0  0  0  0
   14.1354  -16.9060   21.5302 O   0  0  0  0  0  0  0  0  0  0  0  0
  1  2  1  0
  2  3  1  0
  3  4  2  0
  3 10  1  0
  6  5  1  6
  6  7  1  0
  8  6  1  0
  9  8  1  1
  9 11  1  0
 10  9  1  0
 11 12  2  0
 11 18  1  0
 13 14  1  0
 14 16  1  0
 14 15  2  0
 17 16  1  1
 17 19  1  0
 18 17  1  0
 19 21  1  0
 20 19  2  0
M  END
$$$$
