GLN.pdb
     RDKit          3D

 21 20  0  0  1  0  0  0  0  0999 V2000
    7.4561  -14.5341   20.1123 N   0  0  0  0  0  0  0  0  0  0  0  0
    6.8020  -14.9897   21.3129 C   0  0  0  0  0  0  0  0  0  0  0  0
    7.6249  -14.7834   22.5143 C   0  0  0  0  0  0  0  0  0  0  0  0
    8.8693  -14.6463   22.4062 O   0  0  0  0  0  0  0  0  0  0  0  0
    7.8190  -11.4556   25.6692 C   0  0  0  0  0  0  0  0  0  0  0  0
    6.7305  -12.4614   25.9830 C   0  0  2  0  0  0  0  0  0  0  0  0
    5.7861  -11.9080   26.9644 C   0  0  0  0  0  0  0  0  0  0  0  0
    7.1983  -13.8536   26.1072 C   0  0  0  0  0  0  0  0  0  0  0  0
    7.8960  -14.5235   25.0173 C   0  0  2  0  0  0  0  0  0  0  0  0
    7.1026  -14.7268   23.8167 N   0  0  0  0  0  0  0  0  0  0  0  0
    8.4607  -15.8380   25.3610 C   0  0  0  0  0  0  0  0  0  0  0  0
    7.8007  -16.9009   25.5333 O   0  0  0  0  0  0  0  0  0  0  0  0
   11.3269  -17.8198   22.8946 N   0  0  0  0  0  0  0  0  0  0  0  0
   11.9711  -17.0750   23.9101 C   0  0  0  0  0  0  0  0  0  0  0  0
   12.6444  -16.0779   23.5489 O   0  0  0  0  0  0  0  0  0  0  0  0
   11.8767  -17.4272   25.3414 C   0  0  0  0  0  0  0  0  0  0  0  0
   10.4854  -17.2957   25.8564 C   0  0  2  0  0  0  0  0  0  0  0  0
    9.8832  -16.0219   25.5363 N   0  0  0  0  0  0  0  0  0  0  0  0
   10.4061  -17.4610   27.3229 C   0  0  0  0  0  0  0  0  0  0  0  0
   10.0989  -16.4959   28.0609 O   0  0  0  0  0  0  0  0  0  0  0  0
   10.6617  -18.6710   27.9598 O   0  0  0  0  0  0  0  0  0  0  0  0
  1  2  1  0
  2  3  1  0
  3  4  2  0
  3 10  1  0
  6  5  1  1
  6  7  1  0
  8  6  1  0
  9  8  1  1
  9 11  1  0
 10  9  1  0
 11 12  2  0
 11 18  1  0
 13 14  1  0
 14 16  1  0
 14 15  2  0
 17 16  1  1
 17 19  1  0
 18 17  1  0
 19 21  1  0
 20 19  2  0
M  END
$$$$
