GLN.pdb
     RDKit          3D

 21 20  0  0  1  0  0  0  0  0999 V2000
    8.9810  -17.9996   15.9894 N   0  0  0  0  0  0  0  0  0  0  0  0
    8.3849  -18.0459   17.3006 C   0  0  0  0  0  0  0  0  0  0  0  0
    9.1028  -17.2097   18.2744 C   0  0  0  0  0  0  0  0  0  0  0  0
   10.3593  -17.2051   18.2913 O   0  0  0  0  0  0  0  0  0  0  0  0
    8.8703  -12.5787   19.1341 C   0  0  0  0  0  0  0  0  0  0  0  0
    7.8083  -13.3444   19.8963 C   0  0  2  0  0  0  0  0  0  0  0  0
    6.8024  -12.4225   20.4434 C   0  0  0  0  0  0  0  0  0  0  0  0
    8.3230  -14.4539   20.7191 C   0  0  0  0  0  0  0  0  0  0  0  0
    9.1513  -15.5071   20.1465 C   0  0  2  0  0  0  0  0  0  0  0  0
    8.4640  -16.3890   19.2180 N   0  0  0  0  0  0  0  0  0  0  0  0
    9.8063  -16.3820   21.1316 C   0  0  0  0  0  0  0  0  0  0  0  0
    9.2654  -17.3559   21.7265 O   0  0  0  0  0  0  0  0  0  0  0  0
   14.6908  -19.1750   22.7430 N   0  0  0  0  0  0  0  0  0  0  0  0
   14.1170  -17.9248   23.0729 C   0  0  0  0  0  0  0  0  0  0  0  0
   14.2580  -17.5245   24.2553 O   0  0  0  0  0  0  0  0  0  0  0  0
   13.3784  -17.1013   22.0943 C   0  0  0  0  0  0  0  0  0  0  0  0
   11.9136  -17.0962   22.3640 C   0  0  2  0  0  0  0  0  0  0  0  0
   11.1862  -16.1836   21.5123 N   0  0  0  0  0  0  0  0  0  0  0  0
   11.5961  -16.7373   23.7620 C   0  0  0  0  0  0  0  0  0  0  0  0
   11.3964  -15.5438   24.0877 O   0  0  0  0  0  0  0  0  0  0  0  0
   11.5017  -17.6812   24.7796 O   0  0  0  0  0  0  0  0  0  0  0  0
  1  2  1  0
  2  3  1  0
  3  4  2  0
  3 10  1  0
  6  5  1  1
  6  7  1  0
  8  6  1  0
  9  8  1  1
  9 11  1  0
 10  9  1  0
 11 12  2  0
 11 18  1  0
 13 14  1  0
 14 16  1  0
 14 15  2  0
 17 16  1  1
 17 19  1  0
 18 17  1  0
 19 21  1  0
 20 19  2  0
M  END
$$$$
