GLN.pdb
     RDKit          3D

 21 20  0  0  1  0  0  0  0  0999 V2000
    5.6465  -19.1032   24.7260 N   0  0  0  0  0  0  0  0  0  0  0  0
    6.1315  -18.0823   25.6201 C   0  0  0  0  0  0  0  0  0  0  0  0
    6.8253  -16.9968   24.9106 C   0  0  0  0  0  0  0  0  0  0  0  0
    7.0193  -17.0807   23.6719 O   0  0  0  0  0  0  0  0  0  0  0  0
    5.7212  -12.6766   25.6298 C   0  0  0  0  0  0  0  0  0  0  0  0
    6.9618  -13.0511   26.4143 C   0  0  2  0  0  0  0  0  0  0  0  0
    7.1859  -12.0962   27.5093 C   0  0  0  0  0  0  0  0  0  0  0  0
    8.0931  -13.5133   25.5901 C   0  0  0  0  0  0  0  0  0  0  0  0
    8.0447  -14.7794   24.8702 C   0  0  2  0  0  0  0  0  0  0  0  0
    7.3024  -15.8349   25.5387 N   0  0  0  0  0  0  0  0  0  0  0  0
    9.3590  -15.3517   24.5383 C   0  0  0  0  0  0  0  0  0  0  0  0
   10.0462  -15.0741   23.5156 O   0  0  0  0  0  0  0  0  0  0  0  0
   13.0536  -14.8443   23.0010 N   0  0  0  0  0  0  0  0  0  0  0  0
   12.9464  -16.1044   23.6349 C   0  0  0  0  0  0  0  0  0  0  0  0
   13.3329  -17.1071   22.9843 O   0  0  0  0  0  0  0  0  0  0  0  0
   12.4081  -16.2688   25.0005 C   0  0  0  0  0  0  0  0  0  0  0  0
   11.1609  -17.0829   25.0129 C   0  0  2  0  0  0  0  0  0  0  0  0
    9.9947  -16.3226   25.3992 N   0  0  0  0  0  0  0  0  0  0  0  0
   11.2499  -18.2419   25.9256 C   0  0  0  0  0  0  0  0  0  0  0  0
   10.6410  -18.2433   27.0209 O   0  0  0  0  0  0  0  0  0  0  0  0
   11.9982  -19.3771   25.6315 O   0  0  0  0  0  0  0  0  0  0  0  0
  1  2  1  0
  2  3  1  0
  3  4  2  0
  3 10  1  0
  6  5  1  6
  6  7  1  0
  8  6  1  0
  9  8  1  1
  9 11  1  0
 10  9  1  0
 11 12  2  0
 11 18  1  0
 13 14  1  0
 14 16  1  0
 14 15  2  0
 17 16  1  1
 17 19  1  0
 18 17  1  0
 19 21  1  0
 20 19  2  0
M  END
$$$$
