GLN.pdb
     RDKit          3D

 21 20  0  0  1  0  0  0  0  0999 V2000
    7.9393  -18.5870   15.3472 N   0  0  0  0  0  0  0  0  0  0  0  0
    7.8148  -18.6347   16.7821 C   0  0  0  0  0  0  0  0  0  0  0  0
    8.5612  -17.5561   17.4474 C   0  0  0  0  0  0  0  0  0  0  0  0
    9.7915  -17.4192   17.2314 O   0  0  0  0  0  0  0  0  0  0  0  0
    7.4490  -12.3400   20.7557 C   0  0  0  0  0  0  0  0  0  0  0  0
    8.4360  -13.2448   20.0471 C   0  0  2  0  0  0  0  0  0  0  0  0
    9.3580  -12.4528   19.2202 C   0  0  0  0  0  0  0  0  0  0  0  0
    7.8562  -14.4943   19.5225 C   0  0  0  0  0  0  0  0  0  0  0  0
    8.6967  -15.5672   19.0067 C   0  0  2  0  0  0  0  0  0  0  0  0
    7.9786  -16.6380   18.3360 N   0  0  0  0  0  0  0  0  0  0  0  0
    9.5543  -16.2167   20.0105 C   0  0  0  0  0  0  0  0  0  0  0  0
    9.1522  -16.9296   20.9723 O   0  0  0  0  0  0  0  0  0  0  0  0
   12.7846  -19.7579   19.9148 N   0  0  0  0  0  0  0  0  0  0  0  0
   12.8535  -18.4443   19.3943 C   0  0  0  0  0  0  0  0  0  0  0  0
   12.6780  -18.3087   18.1578 O   0  0  0  0  0  0  0  0  0  0  0  0
   13.1184  -17.2626   20.2397 C   0  0  0  0  0  0  0  0  0  0  0  0
   11.8789  -16.7551   20.8912 C   0  0  2  0  0  0  0  0  0  0  0  0
   10.9924  -16.0818   19.9702 N   0  0  0  0  0  0  0  0  0  0  0  0
   12.1633  -15.8124   21.9933 C   0  0  0  0  0  0  0  0  0  0  0  0
   12.2674  -14.5830   21.7741 O   0  0  0  0  0  0  0  0  0  0  0  0
   12.3292  -16.2227   23.3121 O   0  0  0  0  0  0  0  0  0  0  0  0
  1  2  1  0
  2  3  1  0
  3  4  2  0
  3 10  1  0
  6  5  1  6
  6  7  1  0
  8  6  1  0
  9  8  1  1
  9 11  1  0
 10  9  1  0
 11 12  2  0
 11 18  1  0
 13 14  1  0
 14 16  1  0
 14 15  2  0
 17 16  1  6
 17 19  1  0
 18 17  1  0
 19 21  1  0
 20 19  2  0
M  END
$$$$
