GLN.pdb
     RDKit          3D

 21 20  0  0  1  0  0  0  0  0999 V2000
    6.1842  -17.5272   21.5799 N   0  0  0  0  0  0  0  0  0  0  0  0
    6.0056  -17.2791   22.9882 C   0  0  0  0  0  0  0  0  0  0  0  0
    6.8735  -16.2000   23.4835 C   0  0  0  0  0  0  0  0  0  0  0  0
    7.7721  -15.7280   22.7428 O   0  0  0  0  0  0  0  0  0  0  0  0
    7.2840  -11.7093   24.7652 C   0  0  0  0  0  0  0  0  0  0  0  0
    6.4760  -12.4847   25.7854 C   0  0  2  0  0  0  0  0  0  0  0  0
    5.8394  -11.5679   26.7421 C   0  0  0  0  0  0  0  0  0  0  0  0
    7.1148  -13.7255   26.2599 C   0  0  0  0  0  0  0  0  0  0  0  0
    7.7026  -14.6833   25.3322 C   0  0  2  0  0  0  0  0  0  0  0  0
    6.7666  -15.6408   24.7673 N   0  0  0  0  0  0  0  0  0  0  0  0
    8.8137  -15.4748   25.8834 C   0  0  0  0  0  0  0  0  0  0  0  0
    9.7928  -15.0154   26.5357 O   0  0  0  0  0  0  0  0  0  0  0  0
    7.5130  -19.4150   28.1854 N   0  0  0  0  0  0  0  0  0  0  0  0
    8.8757  -19.1018   27.9709 C   0  0  0  0  0  0  0  0  0  0  0  0
    9.5657  -18.8254   28.9837 O   0  0  0  0  0  0  0  0  0  0  0  0
    9.4915  -19.0909   26.6285 C   0  0  0  0  0  0  0  0  0  0  0  0
    9.9422  -17.7272   26.2339 C   0  0  2  0  0  0  0  0  0  0  0  0
    8.8723  -16.9084   25.7119 N   0  0  0  0  0  0  0  0  0  0  0  0
   11.0092  -17.7567   25.2118 C   0  0  0  0  0  0  0  0  0  0  0  0
   10.7748  -17.4111   24.0303 O   0  0  0  0  0  0  0  0  0  0  0  0
   12.3104  -18.1611   25.4923 O   0  0  0  0  0  0  0  0  0  0  0  0
  1  2  1  0
  2  3  1  0
  3  4  2  0
  3 10  1  0
  6  5  1  1
  6  7  1  0
  8  6  1  0
  9  8  1  1
  9 11  1  0
 10  9  1  0
 11 12  2  0
 11 18  1  0
 13 14  1  0
 14 16  1  0
 14 15  2  0
 17 16  1  6
 17 19  1  0
 18 17  1  0
 19 21  1  0
 20 19  2  0
M  END
$$$$
