GLN.pdb
     RDKit          3D

 21 20  0  0  1  0  0  0  0  0999 V2000
    6.9984  -16.2660   20.7771 N   0  0  0  0  0  0  0  0  0  0  0  0
    6.4392  -16.1637   22.1013 C   0  0  0  0  0  0  0  0  0  0  0  0
    7.3385  -15.4755   23.0397 C   0  0  0  0  0  0  0  0  0  0  0  0
    8.5154  -15.2022   22.6944 O   0  0  0  0  0  0  0  0  0  0  0  0
    7.3563  -11.4011   24.9089 C   0  0  0  0  0  0  0  0  0  0  0  0
    6.4991  -12.2931   25.7833 C   0  0  2  0  0  0  0  0  0  0  0  0
    5.7242  -11.4869   26.7374 C   0  0  0  0  0  0  0  0  0  0  0  0
    7.1579  -13.5354   26.2253 C   0  0  0  0  0  0  0  0  0  0  0  0
    7.8374  -14.4150   25.2830 C   0  0  2  0  0  0  0  0  0  0  0  0
    6.9641  -15.0892   24.3369 N   0  0  0  0  0  0  0  0  0  0  0  0
    8.6585  -15.4673   25.9022 C   0  0  0  0  0  0  0  0  0  0  0  0
    9.5589  -15.2846   26.7688 O   0  0  0  0  0  0  0  0  0  0  0  0
    9.7212  -18.9804   28.7154 N   0  0  0  0  0  0  0  0  0  0  0  0
    8.7117  -19.5654   27.9155 C   0  0  0  0  0  0  0  0  0  0  0  0
    8.0785  -20.5316   28.4091 O   0  0  0  0  0  0  0  0  0  0  0  0
    8.3912  -19.0857   26.5559 C   0  0  0  0  0  0  0  0  0  0  0  0
    9.2421  -17.9297   26.1585 C   0  0  2  0  0  0  0  0  0  0  0  0
    8.4890  -16.8581   25.5485 N   0  0  0  0  0  0  0  0  0  0  0  0
   10.3085  -18.3108   25.2090 C   0  0  0  0  0  0  0  0  0  0  0  0
   10.1466  -18.1720   23.9741 O   0  0  0  0  0  0  0  0  0  0  0  0
   11.5300  -18.8355   25.6185 O   0  0  0  0  0  0  0  0  0  0  0  0
  1  2  1  0
  2  3  1  0
  3  4  2  0
  3 10  1  0
  6  5  1  1
  6  7  1  0
  8  6  1  0
  9  8  1  1
  9 11  1  0
 10  9  1  0
 11 12  2  0
 11 18  1  0
 13 14  1  0
 14 16  1  0
 14 15  2  0
 17 16  1  6
 17 19  1  0
 18 17  1  0
 19 21  1  0
 20 19  2  0
M  END
$$$$
