GLN.pdb
     RDKit          3D

 21 20  0  0  1  0  0  0  0  0999 V2000
    6.7835  -17.8812   21.1067 N   0  0  0  0  0  0  0  0  0  0  0  0
    6.3370  -17.6394   22.4554 C   0  0  0  0  0  0  0  0  0  0  0  0
    7.0262  -16.5002   23.0801 C   0  0  0  0  0  0  0  0  0  0  0  0
    8.0573  -16.0210   22.5452 O   0  0  0  0  0  0  0  0  0  0  0  0
    7.9337  -11.9807   25.3623 C   0  0  0  0  0  0  0  0  0  0  0  0
    6.6887  -12.5139   26.0411 C   0  0  2  0  0  0  0  0  0  0  0  0
    6.6400  -12.0762   27.4436 C   0  0  0  0  0  0  0  0  0  0  0  0
    6.3414  -13.9013   25.6845 C   0  0  0  0  0  0  0  0  0  0  0  0
    7.2280  -14.7244   24.8722 C   0  0  2  0  0  0  0  0  0  0  0  0
    6.6006  -15.8893   24.2708 N   0  0  0  0  0  0  0  0  0  0  0  0
    8.4238  -15.2201   25.5718 C   0  0  0  0  0  0  0  0  0  0  0  0
    9.2414  -14.5128   26.2246 O   0  0  0  0  0  0  0  0  0  0  0  0
    7.6598  -18.9775   28.0967 N   0  0  0  0  0  0  0  0  0  0  0  0
    8.9790  -18.4741   28.0104 C   0  0  0  0  0  0  0  0  0  0  0  0
    9.4734  -17.9824   29.0554 O   0  0  0  0  0  0  0  0  0  0  0  0
    9.7677  -18.5093   26.7622 C   0  0  0  0  0  0  0  0  0  0  0  0
    9.9631  -17.1488   26.1886 C   0  0  2  0  0  0  0  0  0  0  0  0
    8.7707  -16.6229   25.5647 N   0  0  0  0  0  0  0  0  0  0  0  0
   11.0399  -17.1095   25.1772 C   0  0  0  0  0  0  0  0  0  0  0  0
   12.1951  -17.5078   25.4552 O   0  0  0  0  0  0  0  0  0  0  0  0
   10.8419  -16.6385   23.8833 O   0  0  0  0  0  0  0  0  0  0  0  0
  1  2  1  0
  2  3  1  0
  3  4  2  0
  3 10  1  0
  6  5  1  1
  6  7  1  0
  8  6  1  0
  9  8  1  1
  9 11  1  0
 10  9  1  0
 11 12  2  0
 11 18  1  0
 13 14  1  0
 14 16  1  0
 14 15  2  0
 17 16  1  6
 17 19  1  0
 18 17  1  0
 19 21  1  0
 20 19  2  0
M  END
$$$$
