GLN.pdb
     RDKit          3D

 21 20  0  0  1  0  0  0  0  0999 V2000
    5.6497  -17.9204   21.7750 N   0  0  0  0  0  0  0  0  0  0  0  0
    5.4191  -17.5084   23.1366 C   0  0  0  0  0  0  0  0  0  0  0  0
    6.5035  -16.6637   23.6597 C   0  0  0  0  0  0  0  0  0  0  0  0
    7.5371  -16.4724   22.9713 O   0  0  0  0  0  0  0  0  0  0  0  0
    7.3176  -12.1870   25.3154 C   0  0  0  0  0  0  0  0  0  0  0  0
    6.5422  -13.0818   26.2604 C   0  0  2  0  0  0  0  0  0  0  0  0
    5.9379  -12.2884   27.3405 C   0  0  0  0  0  0  0  0  0  0  0  0
    7.1945  -14.3688   26.5613 C   0  0  0  0  0  0  0  0  0  0  0  0
    7.5711  -15.2982   25.5040 C   0  0  2  0  0  0  0  0  0  0  0  0
    6.4655  -16.0347   24.9147 N   0  0  0  0  0  0  0  0  0  0  0  0
    8.5707  -16.3051   25.8939 C   0  0  0  0  0  0  0  0  0  0  0  0
    8.3440  -17.3406   26.5804 O   0  0  0  0  0  0  0  0  0  0  0  0
   11.1989  -18.3012   23.1207 N   0  0  0  0  0  0  0  0  0  0  0  0
   11.9412  -17.2048   23.6187 C   0  0  0  0  0  0  0  0  0  0  0  0
   12.3740  -16.3776   22.7780 O   0  0  0  0  0  0  0  0  0  0  0  0
   12.2135  -17.0115   25.0573 C   0  0  0  0  0  0  0  0  0  0  0  0
   10.9768  -17.1299   25.8788 C   0  0  2  0  0  0  0  0  0  0  0  0
    9.9559  -16.1795   25.5018 N   0  0  0  0  0  0  0  0  0  0  0  0
   11.2353  -16.9450   27.3221 C   0  0  0  0  0  0  0  0  0  0  0  0
   11.0204  -15.8413   27.8754 O   0  0  0  0  0  0  0  0  0  0  0  0
   11.7222  -17.9619   28.1368 O   0  0  0  0  0  0  0  0  0  0  0  0
  1  2  1  0
  2  3  1  0
  3  4  2  0
  3 10  1  0
  6  5  1  1
  6  7  1  0
  8  6  1  0
  9  8  1  1
  9 11  1  0
 10  9  1  0
 11 12  2  0
 11 18  1  0
 13 14  1  0
 14 16  1  0
 14 15  2  0
 17 16  1  6
 17 19  1  0
 18 17  1  0
 19 21  1  0
 20 19  2  0
M  END
$$$$
