GLN.pdb
     RDKit          3D

 21 20  0  0  1  0  0  0  0  0999 V2000
    5.8876  -18.7878   23.8457 N   0  0  0  0  0  0  0  0  0  0  0  0
    6.1938  -17.8573   24.9027 C   0  0  0  0  0  0  0  0  0  0  0  0
    7.1434  -16.8173   24.4786 C   0  0  0  0  0  0  0  0  0  0  0  0
    7.8672  -17.0033   23.4684 O   0  0  0  0  0  0  0  0  0  0  0  0
    6.2418  -11.4118   25.8279 C   0  0  0  0  0  0  0  0  0  0  0  0
    6.4794  -12.8749   25.5151 C   0  0  2  0  0  0  0  0  0  0  0  0
    5.7600  -13.7288   26.4712 C   0  0  0  0  0  0  0  0  0  0  0  0
    7.8621  -13.2021   25.1228 C   0  0  0  0  0  0  0  0  0  0  0  0
    8.2494  -14.5576   24.7540 C   0  0  2  0  0  0  0  0  0  0  0  0
    7.3046  -15.5909   25.1435 N   0  0  0  0  0  0  0  0  0  0  0  0
    9.5594  -14.9871   25.2683 C   0  0  0  0  0  0  0  0  0  0  0  0
   10.6541  -14.3824   25.0923 O   0  0  0  0  0  0  0  0  0  0  0  0
   11.1323  -14.7402   28.8691 N   0  0  0  0  0  0  0  0  0  0  0  0
   10.4970  -16.0041   28.8671 C   0  0  0  0  0  0  0  0  0  0  0  0
    9.5448  -16.1673   29.6701 O   0  0  0  0  0  0  0  0  0  0  0  0
   10.9103  -17.1048   27.9733 C   0  0  0  0  0  0  0  0  0  0  0  0
   10.9688  -16.6732   26.5490 C   0  0  2  0  0  0  0  0  0  0  0  0
    9.7000  -16.1928   26.0523 N   0  0  0  0  0  0  0  0  0  0  0  0
   11.4103  -17.7568   25.6462 C   0  0  0  0  0  0  0  0  0  0  0  0
   10.6591  -18.1789   24.7363 O   0  0  0  0  0  0  0  0  0  0  0  0
   12.6591  -18.3612   25.7486 O   0  0  0  0  0  0  0  0  0  0  0  0
  1  2  1  0
  2  3  1  0
  3  4  2  0
  3 10  1  0
  6  5  1  1
  6  7  1  0
  8  6  1  0
  9  8  1  1
  9 11  1  0
 10  9  1  0
 11 12  2  0
 11 18  1  0
 13 14  1  0
 14 16  1  0
 14 15  2  0
 17 16  1  1
 17 19  1  0
 18 17  1  0
 19 21  1  0
 20 19  2  0
M  END
$$$$
