GLN.pdb
     RDKit          3D

 21 20  0  0  1  0  0  0  0  0999 V2000
    9.4944  -16.3554   20.4986 N   0  0  0  0  0  0  0  0  0  0  0  0
    8.5427  -16.5111   21.5694 C   0  0  0  0  0  0  0  0  0  0  0  0
    8.8065  -15.5996   22.6931 C   0  0  0  0  0  0  0  0  0  0  0  0
    9.9499  -15.0994   22.8398 O   0  0  0  0  0  0  0  0  0  0  0  0
    5.7333  -12.6467   27.2883 C   0  0  0  0  0  0  0  0  0  0  0  0
    7.0506  -12.9103   26.5882 C   0  0  2  0  0  0  0  0  0  0  0  0
    7.8777  -11.6950   26.5737 C   0  0  0  0  0  0  0  0  0  0  0  0
    6.9475  -13.7518   25.3824 C   0  0  0  0  0  0  0  0  0  0  0  0
    8.1078  -14.4400   24.8315 C   0  0  2  0  0  0  0  0  0  0  0  0
    7.8404  -15.2359   23.6452 N   0  0  0  0  0  0  0  0  0  0  0  0
    8.8018  -15.3319   25.7737 C   0  0  0  0  0  0  0  0  0  0  0  0
    8.3591  -16.4317   26.2089 O   0  0  0  0  0  0  0  0  0  0  0  0
   13.2610  -15.5353   24.4132 N   0  0  0  0  0  0  0  0  0  0  0  0
   12.5737  -16.3307   25.3598 C   0  0  0  0  0  0  0  0  0  0  0  0
   12.1569  -17.4504   24.9717 O   0  0  0  0  0  0  0  0  0  0  0  0
   12.3395  -15.8938   26.7511 C   0  0  0  0  0  0  0  0  0  0  0  0
   10.8923  -15.9085   27.1030 C   0  0  2  0  0  0  0  0  0  0  0  0
   10.1068  -15.0009   26.2988 N   0  0  0  0  0  0  0  0  0  0  0  0
   10.6498  -15.5607   28.5187 C   0  0  0  0  0  0  0  0  0  0  0  0
   10.0759  -14.4900   28.8263 O   0  0  0  0  0  0  0  0  0  0  0  0
   11.0352  -16.3821   29.5732 O   0  0  0  0  0  0  0  0  0  0  0  0
  1  2  1  0
  2  3  1  0
  3  4  2  0
  3 10  1  0
  6  5  1  6
  6  7  1  0
  8  6  1  0
  9  8  1  1
  9 11  1  0
 10  9  1  0
 11 12  2  0
 11 18  1  0
 13 14  1  0
 14 16  1  0
 14 15  2  0
 17 16  1  6
 17 19  1  0
 18 17  1  0
 19 21  1  0
 20 19  2  0
M  END
$$$$
