GLN.pdb
     RDKit          3D

 21 20  0  0  1  0  0  0  0  0999 V2000
    7.7083  -19.0741   17.6545 N   0  0  0  0  0  0  0  0  0  0  0  0
    7.2416  -18.6440   18.9483 C   0  0  0  0  0  0  0  0  0  0  0  0
    8.1827  -17.7271   19.6092 C   0  0  0  0  0  0  0  0  0  0  0  0
    9.4062  -17.7728   19.3261 O   0  0  0  0  0  0  0  0  0  0  0  0
    8.2963  -13.2841   19.5095 C   0  0  0  0  0  0  0  0  0  0  0  0
    7.4405  -13.6537   20.7037 C   0  0  2  0  0  0  0  0  0  0  0  0
    6.7177  -12.4751   21.2030 C   0  0  0  0  0  0  0  0  0  0  0  0
    8.0764  -14.5892   21.6487 C   0  0  0  0  0  0  0  0  0  0  0  0
    8.7032  -15.8237   21.1940 C   0  0  2  0  0  0  0  0  0  0  0  0
    7.7997  -16.7728   20.5656 N   0  0  0  0  0  0  0  0  0  0  0  0
    9.4210  -16.5726   22.2375 C   0  0  0  0  0  0  0  0  0  0  0  0
    8.8974  -17.3750   23.0603 O   0  0  0  0  0  0  0  0  0  0  0  0
   14.4531  -15.3307   23.3471 N   0  0  0  0  0  0  0  0  0  0  0  0
   13.6472  -16.1366   22.5092 C   0  0  0  0  0  0  0  0  0  0  0  0
   13.4659  -15.7362   21.3323 O   0  0  0  0  0  0  0  0  0  0  0  0
   13.0310  -17.3986   22.9664 C   0  0  0  0  0  0  0  0  0  0  0  0
   11.6088  -17.2105   23.3670 C   0  0  2  0  0  0  0  0  0  0  0  0
   10.8497  -16.4404   22.4088 N   0  0  0  0  0  0  0  0  0  0  0  0
   11.4731  -16.5370   24.6755 C   0  0  0  0  0  0  0  0  0  0  0  0
   12.0853  -16.9636   25.6824 O   0  0  0  0  0  0  0  0  0  0  0  0
   10.6753  -15.4134   24.8657 O   0  0  0  0  0  0  0  0  0  0  0  0
  1  2  1  0
  2  3  1  0
  3  4  2  0
  3 10  1  0
  6  5  1  6
  6  7  1  0
  8  6  1  0
  9  8  1  1
  9 11  1  0
 10  9  1  0
 11 12  2  0
 11 18  1  0
 13 14  1  0
 14 16  1  0
 14 15  2  0
 17 16  1  6
 17 19  1  0
 18 17  1  0
 19 21  1  0
 20 19  2  0
M  END
$$$$
