THG.pdb
     RDKit          3D

 22 22  0  0  1  0  0  0  0  0999 V2000
    7.7095  -12.1183   19.0178 C   0  0  0  0  0  0  0  0  0  0  0  0
    8.5534  -13.2690   19.4695 C   0  0  1  0  0  0  0  0  0  0  0  0
    7.8223  -14.3281   19.9646 O   0  0  0  0  0  0  0  0  0  0  0  0
    9.4377  -13.7571   18.3459 C   0  0  2  0  0  0  0  0  0  0  0  0
    8.6570  -14.3161   17.2593 N   0  0  0  0  0  0  0  0  0  0  0  0
   10.3937  -14.8007   18.7930 C   0  0  0  0  0  0  0  0  0  0  0  0
   10.2179  -16.0076   18.4879 O   0  0  0  0  0  0  0  0  0  0  0  0
   11.5379  -14.4773   19.5788 N   0  0  0  0  0  0  0  0  0  0  0  0
   12.4999  -15.4835   20.0020 C   0  0  1  0  0  0  0  0  0  0  0  0
   13.9092  -14.9538   19.9655 C   0  0  0  0  0  0  0  0  0  0  0  0
   14.4534  -14.7833   18.6073 C   0  0  0  0  0  0  0  0  0  0  0  0
   14.1803  -15.6069   17.5500 C   0  0  0  0  0  0  0  0  0  0  0  0
   14.8416  -15.1709   16.4386 N   0  0  0  0  0  0  0  0  0  0  0  0
   15.5115  -14.0769   16.8496 C   0  0  0  0  0  0  0  0  0  0  0  0
   15.2854  -13.8353   18.1501 N   0  0  0  0  0  0  0  0  0  0  0  0
   12.1879  -15.8185   21.4118 C   0  0  0  0  0  0  0  0  0  0  0  0
   11.9717  -14.9341   22.2864 O   0  0  0  0  0  0  0  0  0  0  0  0
   12.1171  -17.1567   21.8483 N   0  0  0  0  0  0  0  0  0  0  0  0
   11.6064  -17.5373   23.1536 C   0  0  0  0  0  0  0  0  0  0  0  0
   12.6229  -17.4192   24.2030 C   0  0  0  0  0  0  0  0  0  0  0  0
   13.7733  -17.0498   23.8860 O   0  0  0  0  0  0  0  0  0  0  0  0
   12.2722  -17.7215   25.5092 O   0  0  0  0  0  0  0  0  0  0  0  0
  2  1  1  6
  2  4  1  0
  2  3  1  0
  4  6  1  0
  4  5  1  6
  6  7  2  0
  8  9  1  0
  8  6  1  0
  9 16  1  0
  9 10  1  1
 11 10  1  0
 11 15  1  0
 12 13  1  0
 12 11  2  0
 13 14  1  0
 14 15  2  0
 16 17  2  0
 18 16  1  0
 18 19  1  0
 19 20  1  0
 20 21  2  0
 20 22  1  0
M  END
$$$$
