THG.pdb
     RDKit          3D

 22 22  0  0  1  0  0  0  0  0999 V2000
    8.7638  -18.6973   15.1767 C   0  0  0  0  0  0  0  0  0  0  0  0
    9.7047  -17.7521   15.8561 C   0  0  1  0  0  0  0  0  0  0  0  0
   11.0319  -18.0980   15.7141 O   0  0  0  0  0  0  0  0  0  0  0  0
    9.5016  -16.3419   15.3534 C   0  0  2  0  0  0  0  0  0  0  0  0
    9.7520  -16.2441   13.9285 N   0  0  0  0  0  0  0  0  0  0  0  0
   10.3921  -15.3673   16.0320 C   0  0  0  0  0  0  0  0  0  0  0  0
   11.4672  -14.9966   15.4961 O   0  0  0  0  0  0  0  0  0  0  0  0
   10.0651  -14.8192   17.3063 N   0  0  0  0  0  0  0  0  0  0  0  0
   10.9752  -13.9486   18.0347 C   0  0  1  0  0  0  0  0  0  0  0  0
   10.2603  -12.7534   18.6078 C   0  0  0  0  0  0  0  0  0  0  0  0
    8.9639  -13.0695   19.2320 C   0  0  0  0  0  0  0  0  0  0  0  0
    8.3650  -14.2988   19.2032 C   0  0  0  0  0  0  0  0  0  0  0  0
    7.1770  -14.2526   19.8735 N   0  0  0  0  0  0  0  0  0  0  0  0
    7.0779  -12.9791   20.3010 C   0  0  0  0  0  0  0  0  0  0  0  0
    8.1455  -12.2601   19.9213 N   0  0  0  0  0  0  0  0  0  0  0  0
   11.5111  -14.7330   19.1726 C   0  0  0  0  0  0  0  0  0  0  0  0
   10.8128  -15.5737   19.8043 O   0  0  0  0  0  0  0  0  0  0  0  0
   12.8421  -14.5753   19.6086 N   0  0  0  0  0  0  0  0  0  0  0  0
   13.4176  -15.3541   20.6911 C   0  0  0  0  0  0  0  0  0  0  0  0
   14.8467  -15.0829   20.8708 C   0  0  0  0  0  0  0  0  0  0  0  0
   15.4203  -14.3233   20.0618 O   0  0  0  0  0  0  0  0  0  0  0  0
   15.5111  -15.6783   21.9312 O   0  0  0  0  0  0  0  0  0  0  0  0
  2  1  1  6
  2  4  1  0
  2  3  1  0
  4  6  1  0
  4  5  1  6
  6  7  2  0
  8  9  1  0
  8  6  1  0
  9 16  1  0
  9 10  1  1
 11 10  1  0
 11 15  1  0
 12 13  1  0
 12 11  2  0
 13 14  1  0
 14 15  2  0
 16 17  2  0
 18 16  1  0
 18 19  1  0
 19 20  1  0
 20 21  2  0
 20 22  1  0
M  END
$$$$
