THG.pdb
     RDKit          3D

 22 22  0  0  1  0  0  0  0  0999 V2000
   12.8559  -20.9615   21.3620 C   0  0  0  0  0  0  0  0  0  0  0  0
   13.4515  -20.4725   20.0789 C   0  0  1  0  0  0  0  0  0  0  0  0
   13.5784  -21.4552   19.1199 O   0  0  0  0  0  0  0  0  0  0  0  0
   12.6412  -19.3288   19.5149 C   0  0  2  0  0  0  0  0  0  0  0  0
   12.7829  -19.2362   18.0747 N   0  0  0  0  0  0  0  0  0  0  0  0
   13.0388  -18.0189   20.0887 C   0  0  0  0  0  0  0  0  0  0  0  0
   13.9068  -17.3060   19.5241 O   0  0  0  0  0  0  0  0  0  0  0  0
   12.4567  -17.5234   21.2915 N   0  0  0  0  0  0  0  0  0  0  0  0
   12.8885  -16.2787   21.9088 C   0  0  1  0  0  0  0  0  0  0  0  0
   11.8038  -15.2347   21.8703 C   0  0  0  0  0  0  0  0  0  0  0  0
   10.4614  -15.7490   22.1922 C   0  0  0  0  0  0  0  0  0  0  0  0
   10.1674  -17.0635   22.4293 C   0  0  0  0  0  0  0  0  0  0  0  0
    8.8362  -17.2009   22.6969 N   0  0  0  0  0  0  0  0  0  0  0  0
    8.3429  -15.9500   22.6157 C   0  0  0  0  0  0  0  0  0  0  0  0
    9.3103  -15.0705   22.3132 N   0  0  0  0  0  0  0  0  0  0  0  0
   13.1699  -16.5741   23.3338 C   0  0  0  0  0  0  0  0  0  0  0  0
   13.7302  -15.7421   24.1003 O   0  0  0  0  0  0  0  0  0  0  0  0
   12.8213  -17.8132   23.9077 N   0  0  0  0  0  0  0  0  0  0  0  0
   13.1587  -18.1758   25.2731 C   0  0  0  0  0  0  0  0  0  0  0  0
   12.7239  -19.5344   25.6099 C   0  0  0  0  0  0  0  0  0  0  0  0
   13.0181  -20.4687   24.8347 O   0  0  0  0  0  0  0  0  0  0  0  0
   12.0023  -19.7347   26.7759 O   0  0  0  0  0  0  0  0  0  0  0  0
  2  1  1  1
  2  4  1  0
  2  3  1  0
  4  6  1  0
  4  5  1  6
  6  7  2  0
  8  9  1  0
  8  6  1  0
  9 16  1  0
  9 10  1  1
 11 10  1  0
 11 15  1  0
 12 13  1  0
 12 11  2  0
 13 14  1  0
 14 15  2  0
 16 17  2  0
 18 16  1  0
 18 19  1  0
 19 20  1  0
 20 21  2  0
 20 22  1  0
M  END
$$$$
