THG.pdb
     RDKit          3D

 22 22  0  0  1  0  0  0  0  0999 V2000
   14.5957  -17.3696   17.2078 C   0  0  0  0  0  0  0  0  0  0  0  0
   13.9096  -16.7109   18.3636 C   0  0  1  0  0  0  0  0  0  0  0  0
   14.7559  -16.4144   19.4111 O   0  0  0  0  0  0  0  0  0  0  0  0
   13.2066  -15.4494   17.9197 C   0  0  2  0  0  0  0  0  0  0  0  0
   14.1446  -14.4714   17.4037 N   0  0  0  0  0  0  0  0  0  0  0  0
   12.4516  -14.8060   19.0239 C   0  0  0  0  0  0  0  0  0  0  0  0
   12.8871  -13.7665   19.5809 O   0  0  0  0  0  0  0  0  0  0  0  0
   11.2145  -15.3376   19.4911 N   0  0  0  0  0  0  0  0  0  0  0  0
   10.3904  -14.6442   20.4693 C   0  0  1  0  0  0  0  0  0  0  0  0
    8.9266  -14.7386   20.1282 C   0  0  0  0  0  0  0  0  0  0  0  0
    8.6043  -14.3489   18.7446 C   0  0  0  0  0  0  0  0  0  0  0  0
    8.2989  -13.0770   18.3449 C   0  0  0  0  0  0  0  0  0  0  0  0
    8.0522  -13.0585   17.0028 N   0  0  0  0  0  0  0  0  0  0  0  0
    8.2151  -14.3366   16.6100 C   0  0  0  0  0  0  0  0  0  0  0  0
    8.5467  -15.1199   17.6480 N   0  0  0  0  0  0  0  0  0  0  0  0
   10.5884  -15.3287   21.7690 C   0  0  0  0  0  0  0  0  0  0  0  0
    9.9613  -14.9953   22.8127 O   0  0  0  0  0  0  0  0  0  0  0  0
   11.4976  -16.3973   21.9031 N   0  0  0  0  0  0  0  0  0  0  0  0
   11.7395  -17.0769   23.1636 C   0  0  0  0  0  0  0  0  0  0  0  0
   13.0136  -16.6821   23.7713 C   0  0  0  0  0  0  0  0  0  0  0  0
   13.7231  -15.8383   23.1839 O   0  0  0  0  0  0  0  0  0  0  0  0
   13.3859  -17.2583   24.9753 O   0  0  0  0  0  0  0  0  0  0  0  0
  2  1  1  6
  2  4  1  0
  2  3  1  0
  4  6  1  0
  4  5  1  1
  6  7  2  0
  8  9  1  0
  8  6  1  0
  9 16  1  0
  9 10  1  6
 11 10  1  0
 11 15  1  0
 12 13  1  0
 12 11  2  0
 13 14  1  0
 14 15  2  0
 16 17  2  0
 18 16  1  0
 18 19  1  0
 19 20  1  0
 20 21  2  0
 20 22  1  0
M  END
$$$$
