THG.pdb
     RDKit          3D

 22 22  0  0  1  0  0  0  0  0999 V2000
    6.0451  -19.7433   20.8891 C   0  0  0  0  0  0  0  0  0  0  0  0
    5.6181  -20.2425   22.2340 C   0  0  1  0  0  0  0  0  0  0  0  0
    5.2562  -19.2373   23.1059 O   0  0  0  0  0  0  0  0  0  0  0  0
    4.4757  -21.2224   22.1027 C   0  0  2  0  0  0  0  0  0  0  0  0
    3.3196  -20.6104   21.4770 N   0  0  0  0  0  0  0  0  0  0  0  0
    4.0411  -21.7614   23.4156 C   0  0  0  0  0  0  0  0  0  0  0  0
    3.0193  -21.3079   23.9910 O   0  0  0  0  0  0  0  0  0  0  0  0
    4.7592  -22.8048   24.0688 N   0  0  0  0  0  0  0  0  0  0  0  0
    4.3645  -23.3242   25.3693 C   0  0  1  0  0  0  0  0  0  0  0  0
    4.0520  -24.7960   25.3074 C   0  0  0  0  0  0  0  0  0  0  0  0
    2.8314  -25.1211   24.5493 C   0  0  0  0  0  0  0  0  0  0  0  0
    1.5937  -24.5979   24.8046 C   0  0  0  0  0  0  0  0  0  0  0  0
    0.6842  -25.1045   23.9222 N   0  0  0  0  0  0  0  0  0  0  0  0
    1.3980  -25.9360   23.1389 C   0  0  0  0  0  0  0  0  0  0  0  0
    2.6885  -25.9534   23.5068 N   0  0  0  0  0  0  0  0  0  0  0  0
    5.5245  -23.1544   26.2763 C   0  0  0  0  0  0  0  0  0  0  0  0
    5.5418  -23.6220   27.4488 O   0  0  0  0  0  0  0  0  0  0  0  0
    6.6774  -22.4541   25.8678 N   0  0  0  0  0  0  0  0  0  0  0  0
    7.8758  -22.3592   26.6828 C   0  0  0  0  0  0  0  0  0  0  0  0
    7.9988  -21.0542   27.3388 C   0  0  0  0  0  0  0  0  0  0  0  0
    7.1148  -20.1950   27.1370 O   0  0  0  0  0  0  0  0  0  0  0  0
    9.0907  -20.8197   28.1592 O   0  0  0  0  0  0  0  0  0  0  0  0
  2  1  1  6
  2  4  1  0
  2  3  1  0
  4  6  1  0
  4  5  1  1
  6  7  2  0
  8  9  1  0
  8  6  1  0
  9 16  1  0
  9 10  1  6
 11 10  1  0
 11 15  1  0
 12 13  1  0
 12 11  2  0
 13 14  1  0
 14 15  2  0
 16 17  2  0
 18 16  1  0
 18 19  1  0
 19 20  1  0
 20 21  2  0
 20 22  1  0
M  END
$$$$
