THG.pdb
     RDKit          3D

 22 22  0  0  1  0  0  0  0  0999 V2000
    9.6491  -16.8700   14.2963 C   0  0  0  0  0  0  0  0  0  0  0  0
   10.3393  -16.2257   15.4576 C   0  0  1  0  0  0  0  0  0  0  0  0
   11.4767  -15.5298   15.1063 O   0  0  0  0  0  0  0  0  0  0  0  0
    9.3978  -15.3010   16.1933 C   0  0  2  0  0  0  0  0  0  0  0  0
    8.9112  -14.2416   15.3310 N   0  0  0  0  0  0  0  0  0  0  0  0
   10.0393  -14.6616   17.3692 C   0  0  0  0  0  0  0  0  0  0  0  0
   10.4297  -13.4675   17.3191 O   0  0  0  0  0  0  0  0  0  0  0  0
   10.2357  -15.3707   18.5898 N   0  0  0  0  0  0  0  0  0  0  0  0
   10.7865  -14.7361   19.7775 C   0  0  1  0  0  0  0  0  0  0  0  0
    9.8687  -14.8848   20.9622 C   0  0  0  0  0  0  0  0  0  0  0  0
    8.5515  -14.2489   20.7870 C   0  0  0  0  0  0  0  0  0  0  0  0
    8.1947  -13.4798   19.7137 C   0  0  0  0  0  0  0  0  0  0  0  0
    6.9096  -13.0445   19.8608 N   0  0  0  0  0  0  0  0  0  0  0  0
    6.5073  -13.5653   21.0361 C   0  0  0  0  0  0  0  0  0  0  0  0
    7.4854  -14.2902   21.6006 N   0  0  0  0  0  0  0  0  0  0  0  0
   12.0488  -15.4417   20.1026 C   0  0  0  0  0  0  0  0  0  0  0  0
   12.7132  -15.1949   21.1473 O   0  0  0  0  0  0  0  0  0  0  0  0
   12.5739  -16.4337   19.2502 N   0  0  0  0  0  0  0  0  0  0  0  0
   13.8355  -17.1074   19.5030 C   0  0  0  0  0  0  0  0  0  0  0  0
   13.6742  -18.2823   20.3645 C   0  0  0  0  0  0  0  0  0  0  0  0
   12.5444  -18.5310   20.8356 O   0  0  0  0  0  0  0  0  0  0  0  0
   14.7802  -19.0753   20.6259 O   0  0  0  0  0  0  0  0  0  0  0  0
  2  1  1  6
  2  4  1  0
  2  3  1  0
  4  6  1  0
  4  5  1  6
  6  7  2  0
  8  9  1  0
  8  6  1  0
  9 16  1  0
  9 10  1  1
 11 10  1  0
 11 15  1  0
 12 13  1  0
 12 11  2  0
 13 14  1  0
 14 15  2  0
 16 17  2  0
 18 16  1  0
 18 19  1  0
 19 20  1  0
 20 21  2  0
 20 22  1  0
M  END
$$$$
