THG.pdb
     RDKit          3D

 22 22  0  0  1  0  0  0  0  0999 V2000
    8.1645  -19.1136   22.3355 C   0  0  0  0  0  0  0  0  0  0  0  0
    8.3814  -19.5876   20.9324 C   0  0  1  0  0  0  0  0  0  0  0  0
    7.7774  -20.7967   20.6592 O   0  0  0  0  0  0  0  0  0  0  0  0
    7.9006  -18.5557   19.9391 C   0  0  2  0  0  0  0  0  0  0  0  0
    7.4850  -19.1703   18.6932 N   0  0  0  0  0  0  0  0  0  0  0  0
    8.9464  -17.5531   19.6164 C   0  0  0  0  0  0  0  0  0  0  0  0
    9.4918  -17.5340   18.4838 O   0  0  0  0  0  0  0  0  0  0  0  0
    9.3688  -16.5818   20.5700 N   0  0  0  0  0  0  0  0  0  0  0  0
   10.3535  -15.5586   20.2535 C   0  0  1  0  0  0  0  0  0  0  0  0
    9.7828  -14.1733   20.4061 C   0  0  0  0  0  0  0  0  0  0  0  0
    8.7749  -13.8221   19.3908 C   0  0  0  0  0  0  0  0  0  0  0  0
    7.5171  -13.3623   19.6687 C   0  0  0  0  0  0  0  0  0  0  0  0
    6.8391  -13.1327   18.5068 N   0  0  0  0  0  0  0  0  0  0  0  0
    7.7109  -13.4622   17.5343 C   0  0  0  0  0  0  0  0  0  0  0  0
    8.8764  -13.8775   18.0541 N   0  0  0  0  0  0  0  0  0  0  0  0
   11.4550  -15.6956   21.2358 C   0  0  0  0  0  0  0  0  0  0  0  0
   12.4791  -14.9578   21.2125 O   0  0  0  0  0  0  0  0  0  0  0  0
   11.4110  -16.6683   22.2548 N   0  0  0  0  0  0  0  0  0  0  0  0
   12.4970  -16.8779   23.1961 C   0  0  0  0  0  0  0  0  0  0  0  0
   12.0699  -16.6934   24.5860 C   0  0  0  0  0  0  0  0  0  0  0  0
   10.8879  -16.3582   24.8116 O   0  0  0  0  0  0  0  0  0  0  0  0
   12.9918  -16.8971   25.6004 O   0  0  0  0  0  0  0  0  0  0  0  0
  2  1  1  1
  2  4  1  0
  2  3  1  0
  4  6  1  0
  4  5  1  6
  6  7  2  0
  8  9  1  0
  8  6  1  0
  9 16  1  0
  9 10  1  1
 11 10  1  0
 11 15  1  0
 12 13  1  0
 12 11  2  0
 13 14  1  0
 14 15  2  0
 16 17  2  0
 18 16  1  0
 18 19  1  0
 19 20  1  0
 20 21  2  0
 20 22  1  0
M  END
$$$$
