THG.pdb
     RDKit          3D

 22 22  0  0  1  0  0  0  0  0999 V2000
   14.9407  -15.6580   20.1034 C   0  0  0  0  0  0  0  0  0  0  0  0
   13.9763  -16.3831   19.2178 C   0  0  1  0  0  0  0  0  0  0  0  0
   13.2185  -17.3245   19.8818 O   0  0  0  0  0  0  0  0  0  0  0  0
   13.0578  -15.4094   18.5171 C   0  0  2  0  0  0  0  0  0  0  0  0
   13.8055  -14.4169   17.7697 N   0  0  0  0  0  0  0  0  0  0  0  0
   12.1753  -14.6843   19.4651 C   0  0  0  0  0  0  0  0  0  0  0  0
   12.4920  -13.5471   19.8976 O   0  0  0  0  0  0  0  0  0  0  0  0
   10.9456  -15.2448   19.9177 N   0  0  0  0  0  0  0  0  0  0  0  0
   10.0003  -14.4928   20.7287 C   0  0  1  0  0  0  0  0  0  0  0  0
    8.5806  -14.7216   20.2816 C   0  0  0  0  0  0  0  0  0  0  0  0
    8.2527  -14.1106   18.9819 C   0  0  0  0  0  0  0  0  0  0  0  0
    8.8546  -12.9928   18.4730 C   0  0  0  0  0  0  0  0  0  0  0  0
    8.3206  -12.6920   17.2536 N   0  0  0  0  0  0  0  0  0  0  0  0
    7.3931  -13.6461   17.0445 C   0  0  0  0  0  0  0  0  0  0  0  0
    7.3441  -14.5031   18.0761 N   0  0  0  0  0  0  0  0  0  0  0  0
   10.1162  -15.0011   22.1163 C   0  0  0  0  0  0  0  0  0  0  0  0
    9.3292  -14.6440   23.0365 O   0  0  0  0  0  0  0  0  0  0  0  0
   11.1231  -15.9183   22.4786 N   0  0  0  0  0  0  0  0  0  0  0  0
   11.2542  -16.4604   23.8197 C   0  0  0  0  0  0  0  0  0  0  0  0
   12.3219  -17.4604   23.9119 C   0  0  0  0  0  0  0  0  0  0  0  0
   13.0070  -17.7029   22.8959 O   0  0  0  0  0  0  0  0  0  0  0  0
   12.5336  -18.1012   25.1222 O   0  0  0  0  0  0  0  0  0  0  0  0
  2  1  1  1
  2  4  1  0
  2  3  1  0
  4  6  1  0
  4  5  1  1
  6  7  2  0
  8  9  1  0
  8  6  1  0
  9 16  1  0
  9 10  1  6
 11 10  1  0
 11 15  1  0
 12 13  1  0
 12 11  2  0
 13 14  1  0
 14 15  2  0
 16 17  2  0
 18 16  1  0
 18 19  1  0
 19 20  1  0
 20 21  2  0
 20 22  1  0
M  END
$$$$
