THG.pdb
     RDKit          3D

 22 22  0  0  1  0  0  0  0  0999 V2000
    5.8337  -19.2109   23.1241 C   0  0  0  0  0  0  0  0  0  0  0  0
    6.9046  -19.7040   22.2020 C   0  0  1  0  0  0  0  0  0  0  0  0
    6.5823  -20.8824   21.5626 O   0  0  0  0  0  0  0  0  0  0  0  0
    7.2460  -18.6550   21.1696 C   0  0  2  0  0  0  0  0  0  0  0  0
    8.0658  -19.2026   20.1062 N   0  0  0  0  0  0  0  0  0  0  0  0
    7.9810  -17.5058   21.7546 C   0  0  0  0  0  0  0  0  0  0  0  0
    9.2373  -17.5029   21.8027 O   0  0  0  0  0  0  0  0  0  0  0  0
    7.2966  -16.3714   22.2798 N   0  0  0  0  0  0  0  0  0  0  0  0
    8.0020  -15.2224   22.8267 C   0  0  1  0  0  0  0  0  0  0  0  0
    7.4388  -13.9263   22.3063 C   0  0  0  0  0  0  0  0  0  0  0  0
    7.7258  -13.6731   20.8838 C   0  0  0  0  0  0  0  0  0  0  0  0
    6.7770  -13.4265   19.9299 C   0  0  0  0  0  0  0  0  0  0  0  0
    7.3752  -13.2347   18.7184 N   0  0  0  0  0  0  0  0  0  0  0  0
    8.6925  -13.3706   18.9649 C   0  0  0  0  0  0  0  0  0  0  0  0
    8.9140  -13.6340   20.2620 N   0  0  0  0  0  0  0  0  0  0  0  0
    7.7919  -15.2405   24.2939 C   0  0  0  0  0  0  0  0  0  0  0  0
    8.4244  -14.4799   25.0782 O   0  0  0  0  0  0  0  0  0  0  0  0
    6.8647  -16.1186   24.8903 N   0  0  0  0  0  0  0  0  0  0  0  0
    7.2481  -17.1483   25.8401 C   0  0  0  0  0  0  0  0  0  0  0  0
    8.6215  -16.9749   26.3220 C   0  0  0  0  0  0  0  0  0  0  0  0
    9.5020  -16.6182   25.5110 O   0  0  0  0  0  0  0  0  0  0  0  0
    8.8945  -17.2127   27.6597 O   0  0  0  0  0  0  0  0  0  0  0  0
  2  1  1  6
  2  4  1  0
  2  3  1  0
  4  6  1  0
  4  5  1  6
  6  7  2  0
  8  9  1  0
  8  6  1  0
  9 16  1  0
  9 10  1  6
 11 10  1  0
 11 15  1  0
 12 13  1  0
 12 11  2  0
 13 14  1  0
 14 15  2  0
 16 17  2  0
 18 16  1  0
 18 19  1  0
 19 20  1  0
 20 21  2  0
 20 22  1  0
M  END
$$$$
