THG.pdb
     RDKit          3D

 22 22  0  0  1  0  0  0  0  0999 V2000
   14.7389  -14.7546   16.6921 C   0  0  0  0  0  0  0  0  0  0  0  0
   13.2924  -15.0448   16.9441 C   0  0  1  0  0  0  0  0  0  0  0  0
   12.7139  -15.8426   15.9797 O   0  0  0  0  0  0  0  0  0  0  0  0
   13.1038  -15.6862   18.2990 C   0  0  2  0  0  0  0  0  0  0  0  0
   12.6000  -17.0408   18.1806 N   0  0  0  0  0  0  0  0  0  0  0  0
   12.1558  -14.9294   19.1544 C   0  0  0  0  0  0  0  0  0  0  0  0
   12.4014  -13.7443   19.4945 O   0  0  0  0  0  0  0  0  0  0  0  0
   10.9411  -15.5124   19.6190 N   0  0  0  0  0  0  0  0  0  0  0  0
   10.0393  -14.8140   20.5224 C   0  0  1  0  0  0  0  0  0  0  0  0
    8.6273  -14.8042   19.9990 C   0  0  0  0  0  0  0  0  0  0  0  0
    8.4939  -14.2599   18.6366 C   0  0  0  0  0  0  0  0  0  0  0  0
    8.4375  -12.9276   18.3324 C   0  0  0  0  0  0  0  0  0  0  0  0
    8.3136  -12.7640   16.9832 N   0  0  0  0  0  0  0  0  0  0  0  0
    8.2971  -14.0171   16.4894 C   0  0  0  0  0  0  0  0  0  0  0  0
    8.4048  -14.9230   17.4736 N   0  0  0  0  0  0  0  0  0  0  0  0
   10.0341  -15.5660   21.7997 C   0  0  0  0  0  0  0  0  0  0  0  0
    9.5219  -16.7147   21.9075 O   0  0  0  0  0  0  0  0  0  0  0  0
   10.6077  -15.0273   22.9691 N   0  0  0  0  0  0  0  0  0  0  0  0
   10.5731  -15.7064   24.2525 C   0  0  0  0  0  0  0  0  0  0  0  0
   11.8315  -16.3970   24.5488 C   0  0  0  0  0  0  0  0  0  0  0  0
   12.6716  -16.5333   23.6344 O   0  0  0  0  0  0  0  0  0  0  0  0
   12.0450  -16.8741   25.8323 O   0  0  0  0  0  0  0  0  0  0  0  0
  2  1  1  6
  2  4  1  0
  2  3  1  0
  4  6  1  0
  4  5  1  6
  6  7  2  0
  8  9  1  0
  8  6  1  0
  9 16  1  0
  9 10  1  6
 11 10  1  0
 11 15  1  0
 12 13  1  0
 12 11  2  0
 13 14  1  0
 14 15  2  0
 16 17  2  0
 18 16  1  0
 18 19  1  0
 19 20  1  0
 20 21  2  0
 20 22  1  0
M  END
$$$$
