PVM.pdb
     RDKit          3D

 23 23  0  0  1  0  0  0  0  0999 V2000
    8.6617  -14.7684   17.8016 N   0  0  0  0  0  0  0  0  0  0  0  0
    7.2986  -14.2858   17.5710 C   0  0  0  0  0  0  0  0  0  0  0  0
    7.3899  -12.8642   18.0471 C   0  0  0  0  0  0  0  0  0  0  0  0
    8.3485  -12.8952   19.2122 C   0  0  0  0  0  0  0  0  0  0  0  0
    9.0338  -14.2142   19.1018 C   0  0  1  0  0  0  0  0  0  0  0  0
    8.6982  -15.1556   20.2002 C   0  0  0  0  0  0  0  0  0  0  0  0
    7.5411  -15.1270   20.7280 O   0  0  0  0  0  0  0  0  0  0  0  0
   10.1240  -18.8686   23.2779 C   0  0  0  0  0  0  0  0  0  0  0  0
   10.2776  -18.0098   22.0696 C   0  0  1  0  0  0  0  0  0  0  0  0
   10.2652  -18.8813   20.8558 C   0  0  0  0  0  0  0  0  0  0  0  0
    9.2939  -16.9069   21.9287 C   0  0  2  0  0  0  0  0  0  0  0  0
    9.5716  -16.1064   20.7267 N   0  0  0  0  0  0  0  0  0  0  0  0
    9.3551  -16.0191   23.1134 C   0  0  0  0  0  0  0  0  0  0  0  0
   10.3606  -15.2071   23.2121 O   0  0  0  0  0  0  0  0  0  0  0  0
    6.1696  -10.5326   27.4313 C   0  0  0  0  0  0  0  0  0  0  0  0
    5.8608  -12.1063   26.5768 S   0  0  0  0  0  0  0  0  0  0  0  0
    7.3551  -13.0836   26.4191 C   0  0  0  0  0  0  0  0  0  0  0  0
    7.3680  -14.1159   25.3575 C   0  0  0  0  0  0  0  0  0  0  0  0
    8.6273  -14.8771   25.2424 C   0  0  2  0  0  0  0  0  0  0  0  0
    8.4547  -15.9176   24.1770 N   0  0  0  0  0  0  0  0  0  0  0  0
    8.9932  -15.6307   26.4322 C   0  0  0  0  0  0  0  0  0  0  0  0
    9.6348  -15.1945   27.4199 O   0  0  0  0  0  0  0  0  0  0  0  0
    8.6302  -16.9935   26.5745 O   0  0  0  0  0  0  0  0  0  0  0  0
  1  5  1  0
  1  2  1  0
  2  3  1  0
  4  3  1  0
  5  4  1  0
  5  6  1  1
  7  6  2  0
  9  8  1  1
  9 10  1  0
  9 11  1  0
 11 12  1  6
 12  6  1  0
 13 20  1  0
 13 11  1  0
 14 13  2  0
 15 16  1  0
 16 17  1  0
 19 18  1  1
 18 17  1  0
 19 20  1  0
 19 21  1  0
 21 23  1  0
 22 21  2  0
M  END
$$$$
