PVM.pdb
     RDKit          3D

 23 23  0  0  1  0  0  0  0  0999 V2000
    7.0973  -18.8756   18.3917 N   0  0  0  0  0  0  0  0  0  0  0  0
    7.7354  -19.9730   19.1217 C   0  0  0  0  0  0  0  0  0  0  0  0
    6.6817  -20.3247   20.1328 C   0  0  0  0  0  0  0  0  0  0  0  0
    6.0257  -19.0152   20.4962 C   0  0  0  0  0  0  0  0  0  0  0  0
    6.4541  -18.0692   19.4271 C   0  0  1  0  0  0  0  0  0  0  0  0
    7.3598  -16.9949   19.9078 C   0  0  0  0  0  0  0  0  0  0  0  0
    8.6187  -17.1205   19.7743 O   0  0  0  0  0  0  0  0  0  0  0  0
    8.0956  -12.2095   20.8328 C   0  0  0  0  0  0  0  0  0  0  0  0
    7.3380  -13.4155   20.3939 C   0  0  1  0  0  0  0  0  0  0  0  0
    7.2746  -13.4262   18.9009 C   0  0  0  0  0  0  0  0  0  0  0  0
    7.8392  -14.7169   20.9030 C   0  0  2  0  0  0  0  0  0  0  0  0
    6.9386  -15.8135   20.5167 N   0  0  0  0  0  0  0  0  0  0  0  0
    7.9337  -14.6801   22.3812 C   0  0  0  0  0  0  0  0  0  0  0  0
    6.8309  -14.7219   23.0611 O   0  0  0  0  0  0  0  0  0  0  0  0
    6.4054  -11.5014   26.4994 C   0  0  0  0  0  0  0  0  0  0  0  0
    7.4374  -12.7705   27.2910 S   0  0  0  0  0  0  0  0  0  0  0  0
    7.2665  -14.3644   26.4889 C   0  0  0  0  0  0  0  0  0  0  0  0
    7.5433  -14.4124   25.0349 C   0  0  0  0  0  0  0  0  0  0  0  0
    8.9716  -14.5037   24.6743 C   0  0  2  0  0  0  0  0  0  0  0  0
    9.0762  -14.6107   23.1825 N   0  0  0  0  0  0  0  0  0  0  0  0
    9.6502  -15.6902   25.1734 C   0  0  0  0  0  0  0  0  0  0  0  0
    9.4207  -16.8766   24.8312 O   0  0  0  0  0  0  0  0  0  0  0  0
   10.6830  -15.5896   26.1391 O   0  0  0  0  0  0  0  0  0  0  0  0
  1  5  1  0
  1  2  1  0
  2  3  1  0
  4  3  1  0
  5  4  1  0
  5  6  1  1
  7  6  2  0
  9  8  1  6
  9 10  1  0
  9 11  1  0
 11 12  1  1
 12  6  1  0
 13 20  1  0
 13 11  1  0
 14 13  2  0
 15 16  1  0
 16 17  1  0
 19 18  1  6
 18 17  1  0
 19 20  1  0
 19 21  1  0
 21 23  1  0
 22 21  2  0
M  END
$$$$
