PVM.pdb
     RDKit          3D

 23 23  0  0  1  0  0  0  0  0999 V2000
    8.1272  -14.4157   17.8602 N   0  0  0  0  0  0  0  0  0  0  0  0
    6.9866  -13.5284   18.0961 C   0  0  0  0  0  0  0  0  0  0  0  0
    7.6587  -12.2996   18.6387 C   0  0  0  0  0  0  0  0  0  0  0  0
    8.8245  -12.8089   19.4503 C   0  0  0  0  0  0  0  0  0  0  0  0
    8.9871  -14.2287   19.0272 C   0  0  1  0  0  0  0  0  0  0  0  0
    8.6629  -15.2107   20.0930 C   0  0  0  0  0  0  0  0  0  0  0  0
    7.4562  -15.5674   20.2803 O   0  0  0  0  0  0  0  0  0  0  0  0
   10.0801  -18.8920   23.0968 C   0  0  0  0  0  0  0  0  0  0  0  0
   10.2491  -17.8912   22.0055 C   0  0  1  0  0  0  0  0  0  0  0  0
   10.2575  -18.6072   20.6939 C   0  0  0  0  0  0  0  0  0  0  0  0
    9.2643  -16.7805   21.9860 C   0  0  2  0  0  0  0  0  0  0  0  0
    9.5987  -15.8008   20.9414 N   0  0  0  0  0  0  0  0  0  0  0  0
    9.2537  -16.0899   23.2970 C   0  0  0  0  0  0  0  0  0  0  0  0
   10.2950  -15.3900   23.6227 O   0  0  0  0  0  0  0  0  0  0  0  0
    6.8153  -10.7028   26.7322 C   0  0  0  0  0  0  0  0  0  0  0  0
    6.0541  -12.3114   27.0999 S   0  0  0  0  0  0  0  0  0  0  0  0
    7.2387  -13.6517   26.9833 C   0  0  0  0  0  0  0  0  0  0  0  0
    7.2692  -14.4060   25.7094 C   0  0  0  0  0  0  0  0  0  0  0  0
    8.4217  -15.3140   25.5491 C   0  0  2  0  0  0  0  0  0  0  0  0
    8.2496  -16.0742   24.2685 N   0  0  0  0  0  0  0  0  0  0  0  0
    8.5320  -16.3431   26.5720 C   0  0  0  0  0  0  0  0  0  0  0  0
    8.0235  -17.4906   26.5292 O   0  0  0  0  0  0  0  0  0  0  0  0
    9.2661  -16.1143   27.7628 O   0  0  0  0  0  0  0  0  0  0  0  0
  1  5  1  0
  1  2  1  0
  2  3  1  0
  4  3  1  0
  5  4  1  0
  5  6  1  1
  7  6  2  0
  9  8  1  1
  9 10  1  0
  9 11  1  0
 11 12  1  6
 12  6  1  0
 13 20  1  0
 13 11  1  0
 14 13  2  0
 15 16  1  0
 16 17  1  0
 19 18  1  1
 18 17  1  0
 19 20  1  0
 19 21  1  0
 21 23  1  0
 22 21  2  0
M  END
$$$$
