PVM.pdb
     RDKit          3D

 23 23  0  0  1  0  0  0  0  0999 V2000
    8.5924  -14.6262   18.1108 N   0  0  0  0  0  0  0  0  0  0  0  0
    7.2479  -14.1140   17.8384 C   0  0  0  0  0  0  0  0  0  0  0  0
    7.3749  -12.6768   18.2559 C   0  0  0  0  0  0  0  0  0  0  0  0
    8.3148  -12.6865   19.4364 C   0  0  0  0  0  0  0  0  0  0  0  0
    8.9618  -14.0285   19.3924 C   0  0  1  0  0  0  0  0  0  0  0  0
    8.5820  -14.9123   20.5238 C   0  0  0  0  0  0  0  0  0  0  0  0
    7.4517  -14.7674   21.0893 O   0  0  0  0  0  0  0  0  0  0  0  0
    9.5934  -18.8559   23.4571 C   0  0  0  0  0  0  0  0  0  0  0  0
    9.8569  -17.9609   22.2949 C   0  0  1  0  0  0  0  0  0  0  0  0
    9.7007  -18.7499   21.0355 C   0  0  0  0  0  0  0  0  0  0  0  0
    9.0453  -16.7193   22.2354 C   0  0  2  0  0  0  0  0  0  0  0  0
    9.3842  -15.9273   21.0435 N   0  0  0  0  0  0  0  0  0  0  0  0
    9.2947  -15.8928   23.4397 C   0  0  0  0  0  0  0  0  0  0  0  0
   10.4067  -15.2296   23.5010 O   0  0  0  0  0  0  0  0  0  0  0  0
    5.6695  -11.4510   26.1611 C   0  0  0  0  0  0  0  0  0  0  0  0
    6.6144  -11.9542   27.6294 S   0  0  0  0  0  0  0  0  0  0  0  0
    7.9472  -13.0778   27.2116 C   0  0  0  0  0  0  0  0  0  0  0  0
    7.7511  -13.9303   26.0168 C   0  0  0  0  0  0  0  0  0  0  0  0
    8.8913  -14.8051   25.6803 C   0  0  2  0  0  0  0  0  0  0  0  0
    8.4778  -15.7094   24.5583 N   0  0  0  0  0  0  0  0  0  0  0  0
    9.2995  -15.7087   26.7454 C   0  0  0  0  0  0  0  0  0  0  0  0
   10.0033  -15.4121   27.7424 O   0  0  0  0  0  0  0  0  0  0  0  0
    8.9090  -17.0713   26.7376 O   0  0  0  0  0  0  0  0  0  0  0  0
  1  5  1  0
  1  2  1  0
  2  3  1  0
  4  3  1  0
  5  4  1  0
  5  6  1  1
  7  6  2  0
  9  8  1  1
  9 10  1  0
  9 11  1  0
 11 12  1  6
 12  6  1  0
 13 20  1  0
 13 11  1  0
 14 13  2  0
 15 16  1  0
 16 17  1  0
 19 18  1  1
 18 17  1  0
 19 20  1  0
 19 21  1  0
 21 23  1  0
 22 21  2  0
M  END
$$$$
