PVM.pdb
     RDKit          3D

 23 23  0  0  1  0  0  0  0  0999 V2000
    9.1354  -17.8860   19.6621 N   0  0  0  0  0  0  0  0  0  0  0  0
    8.2254  -17.0632   18.8626 C   0  0  0  0  0  0  0  0  0  0  0  0
    9.1705  -16.4067   17.8974 C   0  0  0  0  0  0  0  0  0  0  0  0
   10.4408  -16.1756   18.6786 C   0  0  0  0  0  0  0  0  0  0  0  0
   10.2999  -17.0325   19.8899 C   0  0  1  0  0  0  0  0  0  0  0  0
   10.1604  -16.2638   21.1528 C   0  0  0  0  0  0  0  0  0  0  0  0
   11.0765  -15.4552   21.5070 O   0  0  0  0  0  0  0  0  0  0  0  0
    7.2685  -14.6608   24.9061 C   0  0  0  0  0  0  0  0  0  0  0  0
    7.5234  -15.3594   23.6145 C   0  0  1  0  0  0  0  0  0  0  0  0
    6.8323  -14.6131   22.5198 C   0  0  0  0  0  0  0  0  0  0  0  0
    8.9496  -15.5861   23.2703 C   0  0  2  0  0  0  0  0  0  0  0  0
    9.0727  -16.3514   22.0206 N   0  0  0  0  0  0  0  0  0  0  0  0
    9.6189  -16.3408   24.3557 C   0  0  0  0  0  0  0  0  0  0  0  0
    9.8234  -17.6082   24.1768 O   0  0  0  0  0  0  0  0  0  0  0  0
   10.1132  -12.6605   27.9767 C   0  0  0  0  0  0  0  0  0  0  0  0
   10.6184  -13.8574   29.2472 S   0  0  0  0  0  0  0  0  0  0  0  0
   10.5436  -15.5432   28.6424 C   0  0  0  0  0  0  0  0  0  0  0  0
   11.4812  -15.9036   27.5544 C   0  0  0  0  0  0  0  0  0  0  0  0
   10.9055  -16.7462   26.4880 C   0  0  2  0  0  0  0  0  0  0  0  0
   10.0857  -15.8726   25.5866 N   0  0  0  0  0  0  0  0  0  0  0  0
    9.9758  -17.7646   26.9529 C   0  0  0  0  0  0  0  0  0  0  0  0
    8.7230  -17.6766   26.9659 O   0  0  0  0  0  0  0  0  0  0  0  0
   10.4421  -19.0058   27.4540 O   0  0  0  0  0  0  0  0  0  0  0  0
  1  5  1  0
  1  2  1  0
  2  3  1  0
  4  3  1  0
  5  4  1  0
  5  6  1  1
  7  6  2  0
  9  8  1  1
  9 10  1  0
  9 11  1  0
 11 12  1  6
 12  6  1  0
 13 20  1  0
 13 11  1  0
 14 13  2  0
 15 16  1  0
 16 17  1  0
 19 18  1  1
 18 17  1  0
 19 20  1  0
 19 21  1  0
 21 23  1  0
 22 21  2  0
M  END
$$$$
