PVM.pdb
     RDKit          3D

 23 23  0  0  1  0  0  0  0  0999 V2000
    8.2340  -14.4895   18.0510 N   0  0  0  0  0  0  0  0  0  0  0  0
    7.0343  -13.6508   18.0928 C   0  0  0  0  0  0  0  0  0  0  0  0
    7.5843  -12.3512   18.6071 C   0  0  0  0  0  0  0  0  0  0  0  0
    8.6746  -12.7361   19.5767 C   0  0  0  0  0  0  0  0  0  0  0  0
    8.9488  -14.1718   19.2856 C   0  0  1  0  0  0  0  0  0  0  0  0
    8.5536  -15.0902   20.3836 C   0  0  0  0  0  0  0  0  0  0  0  0
    7.3282  -15.2007   20.7072 O   0  0  0  0  0  0  0  0  0  0  0  0
    9.7043  -18.9179   21.1027 C   0  0  0  0  0  0  0  0  0  0  0  0
    9.8751  -17.9851   22.2524 C   0  0  1  0  0  0  0  0  0  0  0  0
   11.3211  -17.6272   22.3703 C   0  0  0  0  0  0  0  0  0  0  0  0
    9.0363  -16.7605   22.2239 C   0  0  2  0  0  0  0  0  0  0  0  0
    9.4394  -15.8738   21.1220 N   0  0  0  0  0  0  0  0  0  0  0  0
    9.1748  -16.0218   23.5009 C   0  0  0  0  0  0  0  0  0  0  0  0
   10.1739  -15.2053   23.6245 O   0  0  0  0  0  0  0  0  0  0  0  0
    5.8193  -11.4946   26.2264 C   0  0  0  0  0  0  0  0  0  0  0  0
    7.2099  -11.9284   27.3128 S   0  0  0  0  0  0  0  0  0  0  0  0
    7.4416  -13.7025   27.4229 C   0  0  0  0  0  0  0  0  0  0  0  0
    7.3966  -14.4612   26.1520 C   0  0  0  0  0  0  0  0  0  0  0  0
    8.6291  -15.2043   25.8248 C   0  0  2  0  0  0  0  0  0  0  0  0
    8.3559  -16.0704   24.6320 N   0  0  0  0  0  0  0  0  0  0  0  0
    9.0717  -16.1317   26.8551 C   0  0  0  0  0  0  0  0  0  0  0  0
    8.8744  -17.3719   26.8728 O   0  0  0  0  0  0  0  0  0  0  0  0
    9.8030  -15.6782   27.9814 O   0  0  0  0  0  0  0  0  0  0  0  0
  1  5  1  0
  1  2  1  0
  2  3  1  0
  4  3  1  0
  5  4  1  0
  5  6  1  1
  7  6  2  0
  9  8  1  6
  9 10  1  0
  9 11  1  0
 11 12  1  6
 12  6  1  0
 13 20  1  0
 13 11  1  0
 14 13  2  0
 15 16  1  0
 16 17  1  0
 19 18  1  1
 18 17  1  0
 19 20  1  0
 19 21  1  0
 21 23  1  0
 22 21  2  0
M  END
$$$$
