PVM.pdb
     RDKit          3D

 23 23  0  0  1  0  0  0  0  0999 V2000
    8.4712  -14.7109   18.1884 N   0  0  0  0  0  0  0  0  0  0  0  0
    7.1420  -14.1067   18.0774 C   0  0  0  0  0  0  0  0  0  0  0  0
    7.4175  -12.6819   18.4649 C   0  0  0  0  0  0  0  0  0  0  0  0
    8.4913  -12.7573   19.5225 C   0  0  0  0  0  0  0  0  0  0  0  0
    9.0342  -14.1409   19.4108 C   0  0  1  0  0  0  0  0  0  0  0  0
    8.7351  -14.9968   20.5870 C   0  0  0  0  0  0  0  0  0  0  0  0
    7.5919  -14.9348   21.1416 O   0  0  0  0  0  0  0  0  0  0  0  0
   10.0559  -18.7763   23.6078 C   0  0  0  0  0  0  0  0  0  0  0  0
   10.2643  -17.8668   22.4457 C   0  0  1  0  0  0  0  0  0  0  0  0
   10.2334  -18.6765   21.1901 C   0  0  0  0  0  0  0  0  0  0  0  0
    9.3307  -16.7168   22.3466 C   0  0  2  0  0  0  0  0  0  0  0  0
    9.6297  -15.8985   21.1618 N   0  0  0  0  0  0  0  0  0  0  0  0
    9.4475  -15.8641   23.5528 C   0  0  0  0  0  0  0  0  0  0  0  0
   10.4878  -15.0977   23.6558 O   0  0  0  0  0  0  0  0  0  0  0  0
    5.9801  -11.0926   25.8475 C   0  0  0  0  0  0  0  0  0  0  0  0
    6.4829  -11.8833   27.4045 S   0  0  0  0  0  0  0  0  0  0  0  0
    7.8242  -13.0468   27.1585 C   0  0  0  0  0  0  0  0  0  0  0  0
    7.7312  -13.9312   25.9744 C   0  0  0  0  0  0  0  0  0  0  0  0
    8.8722  -14.8492   25.7900 C   0  0  2  0  0  0  0  0  0  0  0  0
    8.5687  -15.7535   24.6334 N   0  0  0  0  0  0  0  0  0  0  0  0
    9.1126  -15.7522   26.9055 C   0  0  0  0  0  0  0  0  0  0  0  0
    8.7156  -16.9401   26.9986 O   0  0  0  0  0  0  0  0  0  0  0  0
    9.8579  -15.3345   28.0365 O   0  0  0  0  0  0  0  0  0  0  0  0
  1  5  1  0
  1  2  1  0
  2  3  1  0
  4  3  1  0
  5  4  1  0
  5  6  1  1
  7  6  2  0
  9  8  1  1
  9 10  1  0
  9 11  1  0
 11 12  1  6
 12  6  1  0
 13 20  1  0
 13 11  1  0
 14 13  2  0
 15 16  1  0
 16 17  1  0
 19 18  1  1
 18 17  1  0
 19 20  1  0
 19 21  1  0
 21 23  1  0
 22 21  2  0
M  END
$$$$
