PVM.pdb
     RDKit          3D

 23 23  0  0  1  0  0  0  0  0999 V2000
    8.8388  -15.1027   18.6614 N   0  0  0  0  0  0  0  0  0  0  0  0
    7.6658  -15.0125   17.7895 C   0  0  0  0  0  0  0  0  0  0  0  0
    7.4684  -13.5268   17.6907 C   0  0  0  0  0  0  0  0  0  0  0  0
    7.8617  -12.9821   19.0420 C   0  0  0  0  0  0  0  0  0  0  0  0
    8.6084  -14.0948   19.6945 C   0  0  1  0  0  0  0  0  0  0  0  0
    7.9065  -14.6798   20.8651 C   0  0  0  0  0  0  0  0  0  0  0  0
    7.3358  -13.9168   21.7081 O   0  0  0  0  0  0  0  0  0  0  0  0
    6.5248  -18.7913   23.4175 C   0  0  0  0  0  0  0  0  0  0  0  0
    7.0371  -18.0870   22.2081 C   0  0  1  0  0  0  0  0  0  0  0  0
    6.2020  -18.4805   21.0330 C   0  0  0  0  0  0  0  0  0  0  0  0
    7.1299  -16.6088   22.3091 C   0  0  2  0  0  0  0  0  0  0  0  0
    7.8124  -16.0444   21.1351 N   0  0  0  0  0  0  0  0  0  0  0  0
    7.8881  -16.2307   23.5248 C   0  0  0  0  0  0  0  0  0  0  0  0
    9.1786  -16.3483   23.4962 O   0  0  0  0  0  0  0  0  0  0  0  0
    5.9697  -11.4790   27.4031 C   0  0  0  0  0  0  0  0  0  0  0  0
    7.5614  -11.8607   28.1923 S   0  0  0  0  0  0  0  0  0  0  0  0
    8.3709  -13.2601   27.4178 C   0  0  0  0  0  0  0  0  0  0  0  0
    7.6209  -13.9556   26.3470 C   0  0  0  0  0  0  0  0  0  0  0  0
    8.3199  -15.1061   25.7418 C   0  0  2  0  0  0  0  0  0  0  0  0
    7.4030  -15.7425   24.7407 N   0  0  0  0  0  0  0  0  0  0  0  0
    8.6450  -16.1776   26.6711 C   0  0  0  0  0  0  0  0  0  0  0  0
    7.9163  -17.1597   26.9571 O   0  0  0  0  0  0  0  0  0  0  0  0
    9.8821  -16.1948   27.3629 O   0  0  0  0  0  0  0  0  0  0  0  0
  1  5  1  0
  1  2  1  0
  2  3  1  0
  4  3  1  0
  5  4  1  0
  5  6  1  1
  7  6  2  0
  9  8  1  1
  9 10  1  0
  9 11  1  0
 11 12  1  6
 12  6  1  0
 13 20  1  0
 13 11  1  0
 14 13  2  0
 15 16  1  0
 16 17  1  0
 19 18  1  1
 18 17  1  0
 19 20  1  0
 19 21  1  0
 21 23  1  0
 22 21  2  0
M  END
$$$$
