PVM.pdb
     RDKit          3D

 23 23  0  0  1  0  0  0  0  0999 V2000
    8.3490  -14.7894   17.6273 N   0  0  0  0  0  0  0  0  0  0  0  0
    7.1656  -13.9271   17.6068 C   0  0  0  0  0  0  0  0  0  0  0  0
    7.7445  -12.5992   18.0037 C   0  0  0  0  0  0  0  0  0  0  0  0
    8.8368  -12.9210   18.9940 C   0  0  0  0  0  0  0  0  0  0  0  0
    9.0813  -14.3814   18.8246 C   0  0  1  0  0  0  0  0  0  0  0  0
    8.6796  -15.1948   20.0002 C   0  0  0  0  0  0  0  0  0  0  0  0
    7.4463  -15.3869   20.2464 O   0  0  0  0  0  0  0  0  0  0  0  0
    9.9485  -18.8167   20.8042 C   0  0  0  0  0  0  0  0  0  0  0  0
   10.0452  -17.9139   21.9861 C   0  0  1  0  0  0  0  0  0  0  0  0
   11.4724  -17.5100   22.1669 C   0  0  0  0  0  0  0  0  0  0  0  0
    9.1648  -16.7187   21.9628 C   0  0  2  0  0  0  0  0  0  0  0  0
    9.5672  -15.7912   20.8949 N   0  0  0  0  0  0  0  0  0  0  0  0
    9.2410  -16.0081   23.2608 C   0  0  0  0  0  0  0  0  0  0  0  0
   10.1367  -15.0806   23.3933 O   0  0  0  0  0  0  0  0  0  0  0  0
    6.4358  -10.8029   27.4712 C   0  0  0  0  0  0  0  0  0  0  0  0
    5.9082  -12.4752   26.9946 S   0  0  0  0  0  0  0  0  0  0  0  0
    7.2927  -13.6101   26.9025 C   0  0  0  0  0  0  0  0  0  0  0  0
    7.3601  -14.4846   25.7094 C   0  0  0  0  0  0  0  0  0  0  0  0
    8.5957  -15.2830   25.5898 C   0  0  2  0  0  0  0  0  0  0  0  0
    8.4589  -16.1904   24.4042 N   0  0  0  0  0  0  0  0  0  0  0  0
    8.8511  -16.1793   26.7074 C   0  0  0  0  0  0  0  0  0  0  0  0
    8.6468  -17.4183   26.7277 O   0  0  0  0  0  0  0  0  0  0  0  0
    9.3821  -15.6925   27.9281 O   0  0  0  0  0  0  0  0  0  0  0  0
  1  5  1  0
  1  2  1  0
  2  3  1  0
  4  3  1  0
  5  4  1  0
  5  6  1  1
  7  6  2  0
  9  8  1  6
  9 10  1  0
  9 11  1  0
 11 12  1  6
 12  6  1  0
 13 20  1  0
 13 11  1  0
 14 13  2  0
 15 16  1  0
 16 17  1  0
 19 18  1  1
 18 17  1  0
 19 20  1  0
 19 21  1  0
 21 23  1  0
 22 21  2  0
M  END
$$$$
