PVM.pdb
     RDKit          3D

 23 23  0  0  1  0  0  0  0  0999 V2000
    9.3651  -16.1074   18.5063 N   0  0  0  0  0  0  0  0  0  0  0  0
    8.5149  -15.2250   17.7044 C   0  0  0  0  0  0  0  0  0  0  0  0
    9.5264  -14.3099   17.0756 C   0  0  0  0  0  0  0  0  0  0  0  0
   10.6018  -14.1283   18.1186 C   0  0  0  0  0  0  0  0  0  0  0  0
   10.3575  -15.2176   19.1061 C   0  0  1  0  0  0  0  0  0  0  0  0
    9.9053  -14.7301   20.4339 C   0  0  0  0  0  0  0  0  0  0  0  0
   10.5581  -13.8145   21.0288 O   0  0  0  0  0  0  0  0  0  0  0  0
    6.2328  -14.2287   23.7547 C   0  0  0  0  0  0  0  0  0  0  0  0
    6.8314  -14.6394   22.4531 C   0  0  1  0  0  0  0  0  0  0  0  0
    6.2891  -13.7579   21.3752 C   0  0  0  0  0  0  0  0  0  0  0  0
    8.3148  -14.6709   22.4027 C   0  0  2  0  0  0  0  0  0  0  0  0
    8.7850  -15.2040   21.1153 N   0  0  0  0  0  0  0  0  0  0  0  0
    8.8405  -15.5285   23.4907 C   0  0  0  0  0  0  0  0  0  0  0  0
    9.4036  -16.6488   23.1621 O   0  0  0  0  0  0  0  0  0  0  0  0
   10.2667  -13.2164   29.4345 C   0  0  0  0  0  0  0  0  0  0  0  0
   11.1453  -14.8059   29.4925 S   0  0  0  0  0  0  0  0  0  0  0  0
   10.8563  -15.7815   28.0166 C   0  0  0  0  0  0  0  0  0  0  0  0
    9.9993  -15.1742   26.9729 C   0  0  0  0  0  0  0  0  0  0  0  0
    9.7688  -16.0193   25.7850 C   0  0  2  0  0  0  0  0  0  0  0  0
    8.8253  -15.2994   24.8689 N   0  0  0  0  0  0  0  0  0  0  0  0
    9.1126  -17.2887   26.0599 C   0  0  0  0  0  0  0  0  0  0  0  0
    7.8753  -17.5038   26.0460 O   0  0  0  0  0  0  0  0  0  0  0  0
    9.8652  -18.4460   26.3815 O   0  0  0  0  0  0  0  0  0  0  0  0
  1  5  1  0
  1  2  1  0
  2  3  1  0
  4  3  1  0
  5  4  1  0
  5  6  1  1
  7  6  2  0
  9  8  1  1
  9 10  1  0
  9 11  1  0
 11 12  1  6
 12  6  1  0
 13 20  1  0
 13 11  1  0
 14 13  2  0
 15 16  1  0
 16 17  1  0
 19 18  1  1
 18 17  1  0
 19 20  1  0
 19 21  1  0
 21 23  1  0
 22 21  2  0
M  END
$$$$
