PVM.pdb
     RDKit          3D

 23 23  0  0  1  0  0  0  0  0999 V2000
    9.4363  -14.1796   18.4435 N   0  0  0  0  0  0  0  0  0  0  0  0
    8.4071  -14.4575   17.4396 C   0  0  0  0  0  0  0  0  0  0  0  0
    7.6358  -13.1687   17.4236 C   0  0  0  0  0  0  0  0  0  0  0  0
    7.6571  -12.6742   18.8492 C   0  0  0  0  0  0  0  0  0  0  0  0
    8.7300  -13.4710   19.5089 C   0  0  1  0  0  0  0  0  0  0  0  0
    8.2257  -14.4166   20.5369 C   0  0  0  0  0  0  0  0  0  0  0  0
    7.2774  -14.0665   21.3092 O   0  0  0  0  0  0  0  0  0  0  0  0
    8.2703  -19.0262   22.5347 C   0  0  0  0  0  0  0  0  0  0  0  0
    8.6905  -18.0073   21.5314 C   0  0  1  0  0  0  0  0  0  0  0  0
    8.2583  -18.4616   20.1750 C   0  0  0  0  0  0  0  0  0  0  0  0
    8.2315  -16.6186   21.7861 C   0  0  2  0  0  0  0  0  0  0  0  0
    8.7172  -15.7053   20.7408 N   0  0  0  0  0  0  0  0  0  0  0  0
    8.7382  -16.1500   23.0973 C   0  0  0  0  0  0  0  0  0  0  0  0
    9.9958  -15.8498   23.1898 O   0  0  0  0  0  0  0  0  0  0  0  0
    6.2221  -10.6928   26.1501 C   0  0  0  0  0  0  0  0  0  0  0  0
    6.2796  -12.4175   26.7195 S   0  0  0  0  0  0  0  0  0  0  0  0
    7.5950  -13.3389   25.9232 C   0  0  0  0  0  0  0  0  0  0  0  0
    7.7804  -14.7436   26.3535 C   0  0  0  0  0  0  0  0  0  0  0  0
    8.7343  -15.5242   25.5416 C   0  0  2  0  0  0  0  0  0  0  0  0
    8.0364  -15.9706   24.2920 N   0  0  0  0  0  0  0  0  0  0  0  0
    9.1946  -16.7572   26.1624 C   0  0  0  0  0  0  0  0  0  0  0  0
    8.6990  -17.9000   26.0016 O   0  0  0  0  0  0  0  0  0  0  0  0
   10.3030  -16.7612   27.0460 O   0  0  0  0  0  0  0  0  0  0  0  0
  1  5  1  0
  1  2  1  0
  2  3  1  0
  4  3  1  0
  5  4  1  0
  5  6  1  1
  7  6  2  0
  9  8  1  1
  9 10  1  0
  9 11  1  0
 11 12  1  6
 12  6  1  0
 13 20  1  0
 13 11  1  0
 14 13  2  0
 15 16  1  0
 16 17  1  0
 19 18  1  1
 18 17  1  0
 19 20  1  0
 19 21  1  0
 21 23  1  0
 22 21  2  0
M  END
$$$$
