PVM.pdb
     RDKit          3D

 23 23  0  0  1  0  0  0  0  0999 V2000
   11.8347  -17.3346   18.3078 N   0  0  0  0  0  0  0  0  0  0  0  0
   13.1435  -17.7231   18.8375 C   0  0  0  0  0  0  0  0  0  0  0  0
   12.8881  -19.1333   19.2870 C   0  0  0  0  0  0  0  0  0  0  0  0
   11.4665  -19.1387   19.7932 C   0  0  0  0  0  0  0  0  0  0  0  0
   10.8736  -17.8769   19.2662 C   0  0  1  0  0  0  0  0  0  0  0  0
   10.5510  -16.8823   20.3208 C   0  0  0  0  0  0  0  0  0  0  0  0
   11.4646  -16.1241   20.7777 O   0  0  0  0  0  0  0  0  0  0  0  0
    7.0170  -14.2470   22.6842 C   0  0  0  0  0  0  0  0  0  0  0  0
    7.5285  -15.2101   21.6683 C   0  0  1  0  0  0  0  0  0  0  0  0
    7.2851  -14.6461   20.3061 C   0  0  0  0  0  0  0  0  0  0  0  0
    8.9484  -15.6168   21.8174 C   0  0  2  0  0  0  0  0  0  0  0  0
    9.2865  -16.6967   20.8780 N   0  0  0  0  0  0  0  0  0  0  0  0
    9.1962  -16.0952   23.1978 C   0  0  0  0  0  0  0  0  0  0  0  0
    9.1417  -17.3716   23.4167 O   0  0  0  0  0  0  0  0  0  0  0  0
   10.2095  -12.5672   28.6892 C   0  0  0  0  0  0  0  0  0  0  0  0
   10.5169  -14.2470   29.3103 S   0  0  0  0  0  0  0  0  0  0  0  0
   10.3342  -15.4784   28.0205 C   0  0  0  0  0  0  0  0  0  0  0  0
   10.0910  -14.9765   26.6487 C   0  0  0  0  0  0  0  0  0  0  0  0
    9.8262  -16.0207   25.6399 C   0  0  2  0  0  0  0  0  0  0  0  0
    9.4969  -15.3494   24.3404 N   0  0  0  0  0  0  0  0  0  0  0  0
    8.6700  -16.8584   25.9208 C   0  0  0  0  0  0  0  0  0  0  0  0
    7.4725  -16.5834   25.6606 O   0  0  0  0  0  0  0  0  0  0  0  0
    8.8177  -18.1227   26.5445 O   0  0  0  0  0  0  0  0  0  0  0  0
  1  5  1  0
  1  2  1  0
  2  3  1  0
  4  3  1  0
  5  4  1  0
  5  6  1  1
  7  6  2  0
  9  8  1  1
  9 10  1  0
  9 11  1  0
 11 12  1  6
 12  6  1  0
 13 20  1  0
 13 11  1  0
 14 13  2  0
 15 16  1  0
 16 17  1  0
 19 18  1  1
 18 17  1  0
 19 20  1  0
 19 21  1  0
 21 23  1  0
 22 21  2  0
M  END
$$$$
