PVM.pdb
     RDKit          3D

 23 23  0  0  1  0  0  0  0  0999 V2000
    9.4069  -14.4477   18.1385 N   0  0  0  0  0  0  0  0  0  0  0  0
    8.2364  -14.5323   17.2627 C   0  0  0  0  0  0  0  0  0  0  0  0
    7.6271  -13.1696   17.4295 C   0  0  0  0  0  0  0  0  0  0  0  0
    7.8820  -12.7929   18.8684 C   0  0  0  0  0  0  0  0  0  0  0  0
    8.9260  -13.7512   19.3300 C   0  0  1  0  0  0  0  0  0  0  0  0
    8.4435  -14.7131   20.3534 C   0  0  0  0  0  0  0  0  0  0  0  0
    7.3817  -14.4626   21.0078 O   0  0  0  0  0  0  0  0  0  0  0  0
    9.0473  -19.0582   22.8102 C   0  0  0  0  0  0  0  0  0  0  0  0
    9.3375  -18.1056   21.7014 C   0  0  1  0  0  0  0  0  0  0  0  0
    8.9972  -18.7618   20.4027 C   0  0  0  0  0  0  0  0  0  0  0  0
    8.6833  -16.7766   21.8003 C   0  0  2  0  0  0  0  0  0  0  0  0
    9.0741  -15.9142   20.6751 N   0  0  0  0  0  0  0  0  0  0  0  0
    9.0758  -16.1117   23.0650 C   0  0  0  0  0  0  0  0  0  0  0  0
   10.2690  -15.6114   23.1428 O   0  0  0  0  0  0  0  0  0  0  0  0
    5.5196  -12.1106   27.1176 C   0  0  0  0  0  0  0  0  0  0  0  0
    7.2910  -11.7077   27.0755 S   0  0  0  0  0  0  0  0  0  0  0  0
    8.2992  -13.1631   26.7956 C   0  0  0  0  0  0  0  0  0  0  0  0
    7.9743  -13.9805   25.6044 C   0  0  0  0  0  0  0  0  0  0  0  0
    8.8586  -15.1415   25.3841 C   0  0  2  0  0  0  0  0  0  0  0  0
    8.3224  -15.9310   24.2278 N   0  0  0  0  0  0  0  0  0  0  0  0
    8.9009  -16.0914   26.4857 C   0  0  0  0  0  0  0  0  0  0  0  0
    8.2456  -17.1594   26.5714 O   0  0  0  0  0  0  0  0  0  0  0  0
    9.7352  -15.8699   27.6100 O   0  0  0  0  0  0  0  0  0  0  0  0
  1  5  1  0
  1  2  1  0
  2  3  1  0
  4  3  1  0
  5  4  1  0
  5  6  1  1
  7  6  2  0
  9  8  1  1
  9 10  1  0
  9 11  1  0
 11 12  1  6
 12  6  1  0
 13 20  1  0
 13 11  1  0
 14 13  2  0
 15 16  1  0
 16 17  1  0
 19 18  1  1
 18 17  1  0
 19 20  1  0
 19 21  1  0
 21 23  1  0
 22 21  2  0
M  END
$$$$
