PVM.pdb
     RDKit          3D

 23 23  0  0  1  0  0  0  0  0999 V2000
    6.0337  -19.5987   20.6213 N   0  0  0  0  0  0  0  0  0  0  0  0
    6.4252  -20.3681   21.8041 C   0  0  0  0  0  0  0  0  0  0  0  0
    5.3576  -19.9848   22.7887 C   0  0  0  0  0  0  0  0  0  0  0  0
    5.0395  -18.5404   22.4890 C   0  0  0  0  0  0  0  0  0  0  0  0
    5.6361  -18.2936   21.1457 C   0  0  1  0  0  0  0  0  0  0  0  0
    6.7850  -17.3529   21.1659 C   0  0  0  0  0  0  0  0  0  0  0  0
    7.9723  -17.8040   21.2387 O   0  0  0  0  0  0  0  0  0  0  0  0
    6.3737  -13.0033   20.8453 C   0  0  0  0  0  0  0  0  0  0  0  0
    7.5438  -13.8067   20.3905 C   0  0  1  0  0  0  0  0  0  0  0  0
    8.7499  -12.9250   20.3612 C   0  0  0  0  0  0  0  0  0  0  0  0
    7.8214  -15.0431   21.1639 C   0  0  2  0  0  0  0  0  0  0  0  0
    6.6761  -15.9640   21.1101 N   0  0  0  0  0  0  0  0  0  0  0  0
    8.0907  -14.7045   22.5811 C   0  0  0  0  0  0  0  0  0  0  0  0
    7.4130  -13.7360   23.1130 O   0  0  0  0  0  0  0  0  0  0  0  0
    7.1092  -11.0267   27.3371 C   0  0  0  0  0  0  0  0  0  0  0  0
    6.3950  -12.5933   26.7561 S   0  0  0  0  0  0  0  0  0  0  0  0
    7.2761  -13.2415   25.3360 C   0  0  0  0  0  0  0  0  0  0  0  0
    7.8706  -14.5902   25.4786 C   0  0  0  0  0  0  0  0  0  0  0  0
    9.1950  -14.7582   24.8491 C   0  0  2  0  0  0  0  0  0  0  0  0
    8.9949  -15.2987   23.4650 N   0  0  0  0  0  0  0  0  0  0  0  0
   10.0583  -15.7324   25.4996 C   0  0  0  0  0  0  0  0  0  0  0  0
   10.6666  -15.5768   26.5873 O   0  0  0  0  0  0  0  0  0  0  0  0
   10.2898  -17.0055   24.9209 O   0  0  0  0  0  0  0  0  0  0  0  0
  1  5  1  0
  1  2  1  0
  2  3  1  0
  4  3  1  0
  5  4  1  0
  5  6  1  1
  7  6  2  0
  9  8  1  1
  9 10  1  0
  9 11  1  0
 11 12  1  1
 12  6  1  0
 13 20  1  0
 13 11  1  0
 14 13  2  0
 15 16  1  0
 16 17  1  0
 19 18  1  1
 18 17  1  0
 19 20  1  0
 19 21  1  0
 21 23  1  0
 22 21  2  0
M  END
$$$$
