PVM.pdb
     RDKit          3D

 23 23  0  0  1  0  0  0  0  0999 V2000
    8.1405  -14.4820   18.1326 N   0  0  0  0  0  0  0  0  0  0  0  0
    6.9236  -13.6835   18.2930 C   0  0  0  0  0  0  0  0  0  0  0  0
    7.4740  -12.3802   18.7976 C   0  0  0  0  0  0  0  0  0  0  0  0
    8.6499  -12.7543   19.6663 C   0  0  0  0  0  0  0  0  0  0  0  0
    8.9425  -14.1728   19.3147 C   0  0  1  0  0  0  0  0  0  0  0  0
    8.6645  -15.1307   20.4149 C   0  0  0  0  0  0  0  0  0  0  0  0
    7.4789  -15.5512   20.6046 O   0  0  0  0  0  0  0  0  0  0  0  0
   10.1793  -18.8197   23.2851 C   0  0  0  0  0  0  0  0  0  0  0  0
   10.3031  -17.7721   22.2322 C   0  0  1  0  0  0  0  0  0  0  0  0
   10.2067  -18.4245   20.8913 C   0  0  0  0  0  0  0  0  0  0  0  0
    9.3491  -16.6388   22.3297 C   0  0  2  0  0  0  0  0  0  0  0  0
    9.6237  -15.6311   21.2944 N   0  0  0  0  0  0  0  0  0  0  0  0
    9.4618  -15.9946   23.6593 C   0  0  0  0  0  0  0  0  0  0  0  0
   10.5489  -15.3415   23.9271 O   0  0  0  0  0  0  0  0  0  0  0  0
    6.5262  -11.0685   27.3739 C   0  0  0  0  0  0  0  0  0  0  0  0
    6.0341  -12.3760   26.2119 S   0  0  0  0  0  0  0  0  0  0  0  0
    7.4331  -13.3711   25.6964 C   0  0  0  0  0  0  0  0  0  0  0  0
    7.7193  -14.5843   26.4958 C   0  0  0  0  0  0  0  0  0  0  0  0
    8.8756  -15.3772   26.0345 C   0  0  2  0  0  0  0  0  0  0  0  0
    8.5348  -15.9798   24.7047 N   0  0  0  0  0  0  0  0  0  0  0  0
    9.2066  -16.5166   26.8770 C   0  0  0  0  0  0  0  0  0  0  0  0
   10.0544  -16.5342   27.8034 O   0  0  0  0  0  0  0  0  0  0  0  0
    8.5576  -17.7651   26.7059 O   0  0  0  0  0  0  0  0  0  0  0  0
  1  5  1  0
  1  2  1  0
  2  3  1  0
  4  3  1  0
  5  4  1  0
  5  6  1  1
  7  6  2  0
  9  8  1  1
  9 10  1  0
  9 11  1  0
 11 12  1  6
 12  6  1  0
 13 20  1  0
 13 11  1  0
 14 13  2  0
 15 16  1  0
 16 17  1  0
 19 18  1  1
 18 17  1  0
 19 20  1  0
 19 21  1  0
 21 23  1  0
 22 21  2  0
M  END
$$$$
