PHQ.pdb
     RDKit          3D

 27 28  0  0  1  0  0  0  0  0999 V2000
    8.9005  -15.0886   18.3732 N   0  0  0  0  0  0  0  0  0  0  0  0
    7.9358  -14.8691   17.3237 C   0  0  0  0  0  0  0  0  0  0  0  0
    7.5062  -13.4175   17.4494 C   0  0  0  0  0  0  0  0  0  0  0  0
    7.7677  -13.0469   18.8798 C   0  0  0  0  0  0  0  0  0  0  0  0
    8.7662  -14.0532   19.3394 C   0  0  1  0  0  0  0  0  0  0  0  0
    8.4339  -14.6092   20.7011 C   0  0  0  0  0  0  0  0  0  0  0  0
    8.2647  -13.7553   21.5858 O   0  0  0  0  0  0  0  0  0  0  0  0
    8.3362  -15.9756   20.8985 N   0  0  0  0  0  0  0  0  0  0  0  0
    7.9020  -16.6553   22.0521 C   0  0  1  0  0  0  0  0  0  0  0  0
    7.9743  -18.1717   21.8965 C   0  0  0  0  0  0  0  0  0  0  0  0
    7.4187  -18.8470   23.0887 C   0  0  0  0  0  0  0  0  0  0  0  0
    6.0888  -18.9884   23.4127 C   0  0  0  0  0  0  0  0  0  0  0  0
    6.0325  -19.6630   24.5722 N   0  0  0  0  0  0  0  0  0  0  0  0
    7.2817  -19.9559   24.9976 C   0  0  0  0  0  0  0  0  0  0  0  0
    8.1075  -19.4511   24.0818 N   0  0  0  0  0  0  0  0  0  0  0  0
    8.5235  -16.1499   23.2636 C   0  0  0  0  0  0  0  0  0  0  0  0
    9.7933  -16.0190   23.3063 O   0  0  0  0  0  0  0  0  0  0  0  0
    5.5060  -11.9622   26.2367 N   0  0  0  0  0  0  0  0  0  0  0  0
    6.6330  -11.9631   27.0876 C   0  0  0  0  0  0  0  0  0  0  0  0
    6.7220  -11.0894   28.0144 O   0  0  0  0  0  0  0  0  0  0  0  0
    7.6826  -12.9848   26.8857 C   0  0  0  0  0  0  0  0  0  0  0  0
    7.3777  -13.9485   25.8016 C   0  0  0  0  0  0  0  0  0  0  0  0
    8.3550  -15.0249   25.5267 C   0  0  2  0  0  0  0  0  0  0  0  0
    7.7904  -15.7949   24.4009 N   0  0  0  0  0  0  0  0  0  0  0  0
    8.8217  -15.8767   26.5942 C   0  0  0  0  0  0  0  0  0  0  0  0
    9.6923  -15.4456   27.4122 O   0  0  0  0  0  0  0  0  0  0  0  0
    8.3522  -17.1817   26.7894 O   0  0  0  0  0  0  0  0  0  0  0  0
  2  1  1  0
  3  4  1  0
  3  2  1  0
  4  5  1  0
  5  6  1  1
  5  1  1  0
  6  8  1  0
  7  6  2  0
  8  9  1  0
  9 10  1  6
 10 11  1  0
 11 12  2  0
 11 15  1  0
 12 13  1  0
 13 14  1  0
 15 14  2  0
 16  9  1  0
 16 17  2  0
 18 19  1  0
 19 21  1  0
 20 19  2  0
 21 22  1  0
 23 24  1  0
 23 22  1  1
 24 16  1  0
 25 23  1  0
 26 25  2  0
 27 25  1  0
M  END
$$$$
