PHQ.pdb
     RDKit          3D

 27 28  0  0  1  0  0  0  0  0999 V2000
    9.2684  -14.2490   18.6220 N   0  0  0  0  0  0  0  0  0  0  0  0
    8.4170  -14.1226   17.4647 C   0  0  0  0  0  0  0  0  0  0  0  0
    7.4745  -12.9698   17.7646 C   0  0  0  0  0  0  0  0  0  0  0  0
    7.4169  -12.8810   19.2614 C   0  0  0  0  0  0  0  0  0  0  0  0
    8.6550  -13.5757   19.7148 C   0  0  1  0  0  0  0  0  0  0  0  0
    8.3960  -14.5146   20.8659 C   0  0  0  0  0  0  0  0  0  0  0  0
    7.6237  -14.0759   21.7329 O   0  0  0  0  0  0  0  0  0  0  0  0
    8.9976  -15.7604   20.9068 N   0  0  0  0  0  0  0  0  0  0  0  0
    8.9234  -16.7250   21.9293 C   0  0  1  0  0  0  0  0  0  0  0  0
    9.4634  -18.0828   21.4893 C   0  0  0  0  0  0  0  0  0  0  0  0
    8.6392  -18.6450   20.3982 C   0  0  0  0  0  0  0  0  0  0  0  0
    7.2832  -18.8776   20.4237 C   0  0  0  0  0  0  0  0  0  0  0  0
    6.9463  -19.3913   19.2299 N   0  0  0  0  0  0  0  0  0  0  0  0
    8.0421  -19.4939   18.4450 C   0  0  0  0  0  0  0  0  0  0  0  0
    9.0584  -19.0352   19.1744 N   0  0  0  0  0  0  0  0  0  0  0  0
    9.4679  -16.2460   23.1877 C   0  0  0  0  0  0  0  0  0  0  0  0
   10.6742  -15.8278   23.2273 O   0  0  0  0  0  0  0  0  0  0  0  0
    5.7998  -12.7969   26.1030 N   0  0  0  0  0  0  0  0  0  0  0  0
    6.8875  -12.6080   26.9834 C   0  0  0  0  0  0  0  0  0  0  0  0
    6.8275  -11.6907   27.8695 O   0  0  0  0  0  0  0  0  0  0  0  0
    8.0709  -13.4858   26.8594 C   0  0  0  0  0  0  0  0  0  0  0  0
    7.9842  -14.4504   25.7372 C   0  0  0  0  0  0  0  0  0  0  0  0
    9.0978  -15.4064   25.5485 C   0  0  2  0  0  0  0  0  0  0  0  0
    8.7269  -16.2199   24.3739 N   0  0  0  0  0  0  0  0  0  0  0  0
    9.5604  -16.2145   26.6511 C   0  0  0  0  0  0  0  0  0  0  0  0
    9.2038  -17.4304   26.7370 O   0  0  0  0  0  0  0  0  0  0  0  0
   10.4075  -15.7247   27.6531 O   0  0  0  0  0  0  0  0  0  0  0  0
  2  1  1  0
  3  4  1  0
  3  2  1  0
  4  5  1  0
  5  6  1  1
  5  1  1  0
  6  8  1  0
  7  6  2  0
  8  9  1  0
  9 10  1  6
 10 11  1  0
 11 12  2  0
 11 15  1  0
 12 13  1  0
 13 14  1  0
 15 14  2  0
 16  9  1  0
 16 17  2  0
 18 19  1  0
 19 21  1  0
 20 19  2  0
 21 22  1  0
 23 24  1  0
 23 22  1  1
 24 16  1  0
 25 23  1  0
 26 25  2  0
 27 25  1  0
M  END
$$$$
