PHQ.pdb
     RDKit          3D

 27 28  0  0  1  0  0  0  0  0999 V2000
    9.5865  -17.9049   16.8829 N   0  0  0  0  0  0  0  0  0  0  0  0
    8.6173  -17.6860   15.8374 C   0  0  0  0  0  0  0  0  0  0  0  0
    9.3598  -16.9657   14.7251 C   0  0  0  0  0  0  0  0  0  0  0  0
   10.5169  -16.2840   15.3945 C   0  0  0  0  0  0  0  0  0  0  0  0
   10.6890  -17.0309   16.6726 C   0  0  1  0  0  0  0  0  0  0  0  0
   10.8965  -16.1115   17.8497 C   0  0  0  0  0  0  0  0  0  0  0  0
   11.8087  -15.2817   17.7087 O   0  0  0  0  0  0  0  0  0  0  0  0
   10.1040  -16.2242   18.9787 N   0  0  0  0  0  0  0  0  0  0  0  0
   10.1897  -15.4863   20.1743 C   0  0  1  0  0  0  0  0  0  0  0  0
    8.8442  -14.9024   20.5960 C   0  0  0  0  0  0  0  0  0  0  0  0
    8.2536  -14.1046   19.5003 C   0  0  0  0  0  0  0  0  0  0  0  0
    8.4897  -12.7770   19.2257 C   0  0  0  0  0  0  0  0  0  0  0  0
    7.7526  -12.4572   18.1500 N   0  0  0  0  0  0  0  0  0  0  0  0
    7.0550  -13.5363   17.7304 C   0  0  0  0  0  0  0  0  0  0  0  0
    7.3743  -14.5251   18.5645 N   0  0  0  0  0  0  0  0  0  0  0  0
   10.8822  -16.2089   21.2267 C   0  0  0  0  0  0  0  0  0  0  0  0
   10.5962  -17.4364   21.4339 O   0  0  0  0  0  0  0  0  0  0  0  0
   16.2180  -14.2414   22.0416 N   0  0  0  0  0  0  0  0  0  0  0  0
   16.0842  -15.4847   21.3856 C   0  0  0  0  0  0  0  0  0  0  0  0
   16.9462  -15.8292   20.5090 O   0  0  0  0  0  0  0  0  0  0  0  0
   14.9470  -16.3620   21.7372 C   0  0  0  0  0  0  0  0  0  0  0  0
   14.0763  -15.8128   22.8036 C   0  0  0  0  0  0  0  0  0  0  0  0
   12.7196  -16.3818   22.9616 C   0  0  2  0  0  0  0  0  0  0  0  0
   11.8597  -15.6192   22.0352 N   0  0  0  0  0  0  0  0  0  0  0  0
   12.1316  -16.5130   24.2730 C   0  0  0  0  0  0  0  0  0  0  0  0
   11.0908  -15.8478   24.5686 O   0  0  0  0  0  0  0  0  0  0  0  0
   12.6513  -17.3588   25.2609 O   0  0  0  0  0  0  0  0  0  0  0  0
  2  1  1  0
  3  4  1  0
  3  2  1  0
  4  5  1  0
  5  6  1  1
  5  1  1  0
  6  8  1  0
  7  6  2  0
  8  9  1  0
  9 10  1  1
 10 11  1  0
 11 12  2  0
 11 15  1  0
 12 13  1  0
 13 14  1  0
 15 14  2  0
 16  9  1  0
 16 17  2  0
 18 19  1  0
 19 21  1  0
 20 19  2  0
 21 22  1  0
 23 24  1  0
 23 22  1  1
 24 16  1  0
 25 23  1  0
 26 25  2  0
 27 25  1  0
M  END
$$$$
