PHQ.pdb
     RDKit          3D

 27 28  0  0  1  0  0  0  0  0999 V2000
    8.7388  -18.5103   18.9765 N   0  0  0  0  0  0  0  0  0  0  0  0
    8.3692  -18.2109   17.6148 C   0  0  0  0  0  0  0  0  0  0  0  0
    9.6614  -17.8518   16.9017 C   0  0  0  0  0  0  0  0  0  0  0  0
   10.5947  -17.3834   17.9793 C   0  0  0  0  0  0  0  0  0  0  0  0
   10.0285  -17.9656   19.2289 C   0  0  1  0  0  0  0  0  0  0  0  0
    9.9948  -16.9698   20.3607 C   0  0  0  0  0  0  0  0  0  0  0  0
   11.0780  -16.4116   20.5965 O   0  0  0  0  0  0  0  0  0  0  0  0
    8.8205  -16.7315   21.0535 N   0  0  0  0  0  0  0  0  0  0  0  0
    8.5933  -15.7901   22.0749 C   0  0  1  0  0  0  0  0  0  0  0  0
    7.3474  -14.9457   21.8222 C   0  0  0  0  0  0  0  0  0  0  0  0
    7.4419  -14.2502   20.5210 C   0  0  0  0  0  0  0  0  0  0  0  0
    7.8898  -12.9678   20.3010 C   0  0  0  0  0  0  0  0  0  0  0  0
    7.8087  -12.7404   18.9803 N   0  0  0  0  0  0  0  0  0  0  0  0
    7.3242  -13.8346   18.3518 C   0  0  0  0  0  0  0  0  0  0  0  0
    7.1085  -14.7389   19.3062 N   0  0  0  0  0  0  0  0  0  0  0  0
    8.6546  -16.3805   23.4005 C   0  0  0  0  0  0  0  0  0  0  0  0
    8.4029  -17.6247   23.5422 O   0  0  0  0  0  0  0  0  0  0  0  0
   10.0894  -12.9824   28.4085 N   0  0  0  0  0  0  0  0  0  0  0  0
   10.1465  -14.2586   29.0102 C   0  0  0  0  0  0  0  0  0  0  0  0
   10.4652  -14.3591   30.2426 O   0  0  0  0  0  0  0  0  0  0  0  0
    9.8282  -15.4504   28.1950 C   0  0  0  0  0  0  0  0  0  0  0  0
    9.5907  -15.1487   26.7633 C   0  0  0  0  0  0  0  0  0  0  0  0
    9.1136  -16.2419   25.8876 C   0  0  2  0  0  0  0  0  0  0  0  0
    8.9800  -15.6441   24.5445 N   0  0  0  0  0  0  0  0  0  0  0  0
    7.9570  -17.0215   26.2582 C   0  0  0  0  0  0  0  0  0  0  0  0
    6.8080  -16.6906   25.8300 O   0  0  0  0  0  0  0  0  0  0  0  0
    8.0316  -18.1549   27.0774 O   0  0  0  0  0  0  0  0  0  0  0  0
  2  1  1  0
  3  4  1  0
  3  2  1  0
  4  5  1  0
  5  6  1  1
  5  1  1  0
  6  8  1  0
  7  6  2  0
  8  9  1  0
  9 10  1  6
 10 11  1  0
 11 12  2  0
 11 15  1  0
 12 13  1  0
 13 14  1  0
 15 14  2  0
 16  9  1  0
 16 17  2  0
 18 19  1  0
 19 21  1  0
 20 19  2  0
 21 22  1  0
 23 24  1  0
 23 22  1  1
 24 16  1  0
 25 23  1  0
 26 25  2  0
 27 25  1  0
M  END
$$$$
