PHQ.pdb
     RDKit          3D

 27 28  0  0  1  0  0  0  0  0999 V2000
    9.2378  -14.5094   18.6935 N   0  0  0  0  0  0  0  0  0  0  0  0
    8.1905  -14.3137   17.7214 C   0  0  0  0  0  0  0  0  0  0  0  0
    7.4934  -13.0225   18.1141 C   0  0  0  0  0  0  0  0  0  0  0  0
    7.7587  -12.8566   19.5817 C   0  0  0  0  0  0  0  0  0  0  0  0
    8.9593  -13.7033   19.8321 C   0  0  1  0  0  0  0  0  0  0  0  0
    8.8204  -14.5396   21.0792 C   0  0  0  0  0  0  0  0  0  0  0  0
    8.2846  -13.9611   22.0378 O   0  0  0  0  0  0  0  0  0  0  0  0
    9.2717  -15.8477   21.1031 N   0  0  0  0  0  0  0  0  0  0  0  0
    9.2170  -16.7635   22.1706 C   0  0  1  0  0  0  0  0  0  0  0  0
    9.2313  -18.2136   21.6954 C   0  0  0  0  0  0  0  0  0  0  0  0
    8.0097  -18.5229   20.9221 C   0  0  0  0  0  0  0  0  0  0  0  0
    6.7488  -18.0132   21.1318 C   0  0  0  0  0  0  0  0  0  0  0  0
    5.9420  -18.5576   20.2069 N   0  0  0  0  0  0  0  0  0  0  0  0
    6.6465  -19.3968   19.4154 C   0  0  0  0  0  0  0  0  0  0  0  0
    7.8993  -19.3603   19.8675 N   0  0  0  0  0  0  0  0  0  0  0  0
   10.1877  -16.4669   23.2095 C   0  0  0  0  0  0  0  0  0  0  0  0
   11.3660  -16.1023   22.8774 O   0  0  0  0  0  0  0  0  0  0  0  0
    9.5971  -15.5733   30.0879 N   0  0  0  0  0  0  0  0  0  0  0  0
    9.8581  -14.6923   29.0156 C   0  0  0  0  0  0  0  0  0  0  0  0
    9.3151  -13.5367   29.0048 O   0  0  0  0  0  0  0  0  0  0  0  0
   10.7626  -15.1309   27.9313 C   0  0  0  0  0  0  0  0  0  0  0  0
   10.0548  -15.6116   26.7208 C   0  0  0  0  0  0  0  0  0  0  0  0
   10.8557  -16.2300   25.6412 C   0  0  2  0  0  0  0  0  0  0  0  0
    9.8920  -16.5622   24.5735 N   0  0  0  0  0  0  0  0  0  0  0  0
   11.7506  -17.3243   25.9319 C   0  0  0  0  0  0  0  0  0  0  0  0
   11.3618  -18.5213   25.7612 O   0  0  0  0  0  0  0  0  0  0  0  0
   13.0587  -17.1373   26.3959 O   0  0  0  0  0  0  0  0  0  0  0  0
  2  1  1  0
  3  4  1  0
  3  2  1  0
  4  5  1  0
  5  6  1  1
  5  1  1  0
  6  8  1  0
  7  6  2  0
  8  9  1  0
  9 10  1  6
 10 11  1  0
 11 12  2  0
 11 15  1  0
 12 13  1  0
 13 14  1  0
 15 14  2  0
 16  9  1  0
 16 17  2  0
 18 19  1  0
 19 21  1  0
 20 19  2  0
 21 22  1  0
 23 24  1  0
 23 22  1  1
 24 16  1  0
 25 23  1  0
 26 25  2  0
 27 25  1  0
M  END
$$$$
