PHQ.pdb
     RDKit          3D

 27 28  0  0  1  0  0  0  0  0999 V2000
    8.9944  -14.6004   18.2092 N   0  0  0  0  0  0  0  0  0  0  0  0
    7.9787  -14.3792   17.2093 C   0  0  0  0  0  0  0  0  0  0  0  0
    7.2969  -13.0761   17.5892 C   0  0  0  0  0  0  0  0  0  0  0  0
    7.5243  -12.9224   19.0645 C   0  0  0  0  0  0  0  0  0  0  0  0
    8.7003  -13.7942   19.3438 C   0  0  1  0  0  0  0  0  0  0  0  0
    8.5099  -14.6332   20.5822 C   0  0  0  0  0  0  0  0  0  0  0  0
    8.0016  -14.0354   21.5439 O   0  0  0  0  0  0  0  0  0  0  0  0
    8.8893  -15.9641   20.5955 N   0  0  0  0  0  0  0  0  0  0  0  0
    8.7028  -16.9078   21.6232 C   0  0  1  0  0  0  0  0  0  0  0  0
    8.8419  -18.3443   21.1272 C   0  0  0  0  0  0  0  0  0  0  0  0
    7.6632  -18.7376   20.3260 C   0  0  0  0  0  0  0  0  0  0  0  0
    6.5591  -17.9649   20.0477 C   0  0  0  0  0  0  0  0  0  0  0  0
    5.7346  -18.7086   19.2927 N   0  0  0  0  0  0  0  0  0  0  0  0
    6.2765  -19.9287   19.0809 C   0  0  0  0  0  0  0  0  0  0  0  0
    7.4471  -19.9243   19.7172 N   0  0  0  0  0  0  0  0  0  0  0  0
    9.4901  -16.6065   22.8059 C   0  0  0  0  0  0  0  0  0  0  0  0
   10.7318  -16.3358   22.6772 O   0  0  0  0  0  0  0  0  0  0  0  0
    7.2386  -13.1856   27.0633 N   0  0  0  0  0  0  0  0  0  0  0  0
    8.3441  -13.6142   27.8303 C   0  0  0  0  0  0  0  0  0  0  0  0
    8.5002  -13.1637   29.0148 O   0  0  0  0  0  0  0  0  0  0  0  0
    9.2931  -14.5829   27.2410 C   0  0  0  0  0  0  0  0  0  0  0  0
    8.8463  -15.1430   25.9434 C   0  0  0  0  0  0  0  0  0  0  0  0
    9.6975  -16.1624   25.2909 C   0  0  2  0  0  0  0  0  0  0  0  0
    8.9486  -16.5980   24.0957 N   0  0  0  0  0  0  0  0  0  0  0  0
   10.2143  -17.2757   26.0500 C   0  0  0  0  0  0  0  0  0  0  0  0
   11.2559  -17.1267   26.7614 O   0  0  0  0  0  0  0  0  0  0  0  0
    9.6138  -18.5409   26.0535 O   0  0  0  0  0  0  0  0  0  0  0  0
  2  1  1  0
  3  4  1  0
  3  2  1  0
  4  5  1  0
  5  6  1  1
  5  1  1  0
  6  8  1  0
  7  6  2  0
  8  9  1  0
  9 10  1  6
 10 11  1  0
 11 12  2  0
 11 15  1  0
 12 13  1  0
 13 14  1  0
 15 14  2  0
 16  9  1  0
 16 17  2  0
 18 19  1  0
 19 21  1  0
 20 19  2  0
 21 22  1  0
 23 24  1  0
 23 22  1  1
 24 16  1  0
 25 23  1  0
 26 25  2  0
 27 25  1  0
M  END
$$$$
