PHQ.pdb
     RDKit          3D

 27 28  0  0  1  0  0  0  0  0999 V2000
    8.9056  -14.7500   19.0579 N   0  0  0  0  0  0  0  0  0  0  0  0
    7.9839  -14.4086   18.0024 C   0  0  0  0  0  0  0  0  0  0  0  0
    7.4998  -13.0022   18.3107 C   0  0  0  0  0  0  0  0  0  0  0  0
    7.6818  -12.8334   19.7906 C   0  0  0  0  0  0  0  0  0  0  0  0
    8.6915  -13.8678   20.1531 C   0  0  1  0  0  0  0  0  0  0  0  0
    8.3153  -14.6220   21.4035 C   0  0  0  0  0  0  0  0  0  0  0  0
    8.1153  -13.9109   22.4010 O   0  0  0  0  0  0  0  0  0  0  0  0
    8.2137  -16.0022   21.3890 N   0  0  0  0  0  0  0  0  0  0  0  0
    7.9632  -16.8638   22.4736 C   0  0  1  0  0  0  0  0  0  0  0  0
    7.6146  -18.2798   22.0240 C   0  0  0  0  0  0  0  0  0  0  0  0
    7.1885  -19.1042   23.1751 C   0  0  0  0  0  0  0  0  0  0  0  0
    6.1252  -18.8630   24.0146 C   0  0  0  0  0  0  0  0  0  0  0  0
    6.0997  -19.8561   24.9178 N   0  0  0  0  0  0  0  0  0  0  0  0
    7.1108  -20.7216   24.6817 C   0  0  0  0  0  0  0  0  0  0  0  0
    7.7589  -20.2456   23.6193 N   0  0  0  0  0  0  0  0  0  0  0  0
    9.0006  -16.7986   23.4880 C   0  0  0  0  0  0  0  0  0  0  0  0
   10.2255  -16.7651   23.1274 O   0  0  0  0  0  0  0  0  0  0  0  0
    9.0701  -13.0795   27.9374 N   0  0  0  0  0  0  0  0  0  0  0  0
   10.1007  -13.8891   28.4632 C   0  0  0  0  0  0  0  0  0  0  0  0
   10.7400  -13.5002   29.4977 O   0  0  0  0  0  0  0  0  0  0  0  0
   10.4098  -15.1751   27.8023 C   0  0  0  0  0  0  0  0  0  0  0  0
    9.5802  -15.4456   26.6040 C   0  0  0  0  0  0  0  0  0  0  0  0
    9.7638  -16.7353   25.9023 C   0  0  2  0  0  0  0  0  0  0  0  0
    8.7207  -16.7704   24.8583 N   0  0  0  0  0  0  0  0  0  0  0  0
    9.8341  -17.9685   26.6488 C   0  0  0  0  0  0  0  0  0  0  0  0
    8.8198  -18.7307   26.7072 O   0  0  0  0  0  0  0  0  0  0  0  0
   10.9878  -18.3873   27.3231 O   0  0  0  0  0  0  0  0  0  0  0  0
  2  1  1  0
  3  4  1  0
  3  2  1  0
  4  5  1  0
  5  6  1  1
  5  1  1  0
  6  8  1  0
  7  6  2  0
  8  9  1  0
  9 10  1  6
 10 11  1  0
 11 12  2  0
 11 15  1  0
 12 13  1  0
 13 14  1  0
 15 14  2  0
 16  9  1  0
 16 17  2  0
 18 19  1  0
 19 21  1  0
 20 19  2  0
 21 22  1  0
 23 24  1  0
 23 22  1  1
 24 16  1  0
 25 23  1  0
 26 25  2  0
 27 25  1  0
M  END
$$$$
