PHQ.pdb
     RDKit          3D

 27 28  0  0  1  0  0  0  0  0999 V2000
    9.1255  -15.0543   17.5829 N   0  0  0  0  0  0  0  0  0  0  0  0
    7.8360  -14.5044   17.2436 C   0  0  0  0  0  0  0  0  0  0  0  0
    8.0228  -12.9974   17.2050 C   0  0  0  0  0  0  0  0  0  0  0  0
    9.2066  -12.7197   18.0843 C   0  0  0  0  0  0  0  0  0  0  0  0
    9.9268  -14.0229   18.1467 C   0  0  1  0  0  0  0  0  0  0  0  0
   10.3651  -14.3685   19.5475 C   0  0  0  0  0  0  0  0  0  0  0  0
   11.1651  -13.5672   20.0561 O   0  0  0  0  0  0  0  0  0  0  0  0
    9.8837  -15.5040   20.1754 N   0  0  0  0  0  0  0  0  0  0  0  0
   10.1896  -15.9759   21.4658 C   0  0  1  0  0  0  0  0  0  0  0  0
    9.0603  -16.8102   22.0638 C   0  0  0  0  0  0  0  0  0  0  0  0
    7.7639  -16.1134   21.9229 C   0  0  0  0  0  0  0  0  0  0  0  0
    7.4817  -14.8146   22.2795 C   0  0  0  0  0  0  0  0  0  0  0  0
    6.1920  -14.5923   21.9799 N   0  0  0  0  0  0  0  0  0  0  0  0
    5.6433  -15.7057   21.4446 C   0  0  0  0  0  0  0  0  0  0  0  0
    6.6155  -16.6165   21.4194 N   0  0  0  0  0  0  0  0  0  0  0  0
   11.4965  -16.6059   21.5334 C   0  0  0  0  0  0  0  0  0  0  0  0
   11.6320  -17.8084   21.1245 O   0  0  0  0  0  0  0  0  0  0  0  0
   16.6593  -14.0839   20.0464 N   0  0  0  0  0  0  0  0  0  0  0  0
   15.4287  -14.3364   19.4016 C   0  0  0  0  0  0  0  0  0  0  0  0
   15.1927  -13.8029   18.2658 O   0  0  0  0  0  0  0  0  0  0  0  0
   14.4432  -15.2214   20.0589 C   0  0  0  0  0  0  0  0  0  0  0  0
   14.8805  -15.7224   21.3837 C   0  0  0  0  0  0  0  0  0  0  0  0
   13.9548  -16.5913   22.1437 C   0  0  2  0  0  0  0  0  0  0  0  0
   12.6289  -15.9522   22.0308 N   0  0  0  0  0  0  0  0  0  0  0  0
   14.2638  -16.9770   23.4995 C   0  0  0  0  0  0  0  0  0  0  0  0
   13.5048  -16.6105   24.4496 O   0  0  0  0  0  0  0  0  0  0  0  0
   15.3764  -17.7584   23.8356 O   0  0  0  0  0  0  0  0  0  0  0  0
  2  1  1  0
  3  4  1  0
  3  2  1  0
  4  5  1  0
  5  6  1  1
  5  1  1  0
  6  8  1  0
  7  6  2  0
  8  9  1  0
  9 10  1  6
 10 11  1  0
 11 12  2  0
 11 15  1  0
 12 13  1  0
 13 14  1  0
 15 14  2  0
 16  9  1  0
 16 17  2  0
 18 19  1  0
 19 21  1  0
 20 19  2  0
 21 22  1  0
 23 24  1  0
 23 22  1  1
 24 16  1  0
 25 23  1  0
 26 25  2  0
 27 25  1  0
M  END
$$$$
