PHQ.pdb
     RDKit          3D

 27 28  0  0  1  0  0  0  0  0999 V2000
    9.8154  -17.4210   16.3319 N   0  0  0  0  0  0  0  0  0  0  0  0
    8.6036  -17.1822   15.5869 C   0  0  0  0  0  0  0  0  0  0  0  0
    8.9650  -16.1647   14.5185 C   0  0  0  0  0  0  0  0  0  0  0  0
   10.1602  -15.4321   15.0537 C   0  0  0  0  0  0  0  0  0  0  0  0
   10.7230  -16.3550   16.0796 C   0  0  1  0  0  0  0  0  0  0  0  0
   11.0979  -15.6371   17.3517 C   0  0  0  0  0  0  0  0  0  0  0  0
   11.8982  -14.6998   17.2049 O   0  0  0  0  0  0  0  0  0  0  0  0
   10.5632  -16.0313   18.5658 N   0  0  0  0  0  0  0  0  0  0  0  0
   10.8519  -15.5217   19.8458 C   0  0  1  0  0  0  0  0  0  0  0  0
    9.5937  -15.1197   20.6101 C   0  0  0  0  0  0  0  0  0  0  0  0
    8.9094  -13.9952   19.9369 C   0  0  0  0  0  0  0  0  0  0  0  0
    9.3496  -13.3036   18.8317 C   0  0  0  0  0  0  0  0  0  0  0  0
    8.4266  -12.3686   18.5553 N   0  0  0  0  0  0  0  0  0  0  0  0
    7.4135  -12.4414   19.4472 C   0  0  0  0  0  0  0  0  0  0  0  0
    7.7274  -13.4357   20.2767 N   0  0  0  0  0  0  0  0  0  0  0  0
   11.7570  -16.3760   20.5944 C   0  0  0  0  0  0  0  0  0  0  0  0
   11.4011  -17.5707   20.8728 O   0  0  0  0  0  0  0  0  0  0  0  0
   16.0615  -19.1242   18.8748 N   0  0  0  0  0  0  0  0  0  0  0  0
   16.3283  -17.7376   18.8652 C   0  0  0  0  0  0  0  0  0  0  0  0
   17.1364  -17.2587   18.0004 O   0  0  0  0  0  0  0  0  0  0  0  0
   15.6569  -16.8715   19.8578 C   0  0  0  0  0  0  0  0  0  0  0  0
   14.6756  -17.5867   20.7079 C   0  0  0  0  0  0  0  0  0  0  0  0
   13.9649  -16.8185   21.7541 C   0  0  2  0  0  0  0  0  0  0  0  0
   13.0156  -15.9493   21.0314 N   0  0  0  0  0  0  0  0  0  0  0  0
   14.7066  -16.1008   22.7628 C   0  0  0  0  0  0  0  0  0  0  0  0
   15.4741  -16.7332   23.5529 O   0  0  0  0  0  0  0  0  0  0  0  0
   14.6328  -14.7111   22.9197 O   0  0  0  0  0  0  0  0  0  0  0  0
  2  1  1  0
  3  4  1  0
  3  2  1  0
  4  5  1  0
  5  6  1  1
  5  1  1  0
  6  8  1  0
  7  6  2  0
  8  9  1  0
  9 10  1  1
 10 11  1  0
 11 12  2  0
 11 15  1  0
 12 13  1  0
 13 14  1  0
 15 14  2  0
 16  9  1  0
 16 17  2  0
 18 19  1  0
 19 21  1  0
 20 19  2  0
 21 22  1  0
 23 24  1  0
 23 22  1  6
 24 16  1  0
 25 23  1  0
 26 25  2  0
 27 25  1  0
M  END
$$$$
