PHQ.pdb
     RDKit          3D

 27 28  0  0  1  0  0  0  0  0999 V2000
    8.5085  -14.9102   18.8748 N   0  0  0  0  0  0  0  0  0  0  0  0
    7.5856  -14.5252   17.8354 C   0  0  0  0  0  0  0  0  0  0  0  0
    7.2382  -13.0711   18.1042 C   0  0  0  0  0  0  0  0  0  0  0  0
    7.4838  -12.8670   19.5704 C   0  0  0  0  0  0  0  0  0  0  0  0
    8.4098  -13.9742   19.9415 C   0  0  1  0  0  0  0  0  0  0  0  0
    8.0106  -14.6470   21.2305 C   0  0  0  0  0  0  0  0  0  0  0  0
    7.7995  -13.8740   22.1785 O   0  0  0  0  0  0  0  0  0  0  0  0
    7.9016  -16.0249   21.3007 N   0  0  0  0  0  0  0  0  0  0  0  0
    7.5665  -16.8115   22.4188 C   0  0  1  0  0  0  0  0  0  0  0  0
    7.0489  -18.1923   22.0256 C   0  0  0  0  0  0  0  0  0  0  0  0
    5.7415  -18.0861   21.3433 C   0  0  0  0  0  0  0  0  0  0  0  0
    4.7593  -17.1523   21.5817 C   0  0  0  0  0  0  0  0  0  0  0  0
    3.7453  -17.4205   20.7436 N   0  0  0  0  0  0  0  0  0  0  0  0
    4.0485  -18.4935   19.9796 C   0  0  0  0  0  0  0  0  0  0  0  0
    5.2649  -18.8815   20.3605 N   0  0  0  0  0  0  0  0  0  0  0  0
    8.6177  -16.8320   23.4208 C   0  0  0  0  0  0  0  0  0  0  0  0
    9.8375  -16.8825   23.0453 O   0  0  0  0  0  0  0  0  0  0  0  0
    8.6209  -13.3090   28.1097 N   0  0  0  0  0  0  0  0  0  0  0  0
    9.7006  -14.1030   28.5544 C   0  0  0  0  0  0  0  0  0  0  0  0
   10.3343  -13.7679   29.6110 O   0  0  0  0  0  0  0  0  0  0  0  0
   10.0670  -15.3109   27.7843 C   0  0  0  0  0  0  0  0  0  0  0  0
    9.1971  -15.5571   26.6097 C   0  0  0  0  0  0  0  0  0  0  0  0
    9.4139  -16.7928   25.8250 C   0  0  2  0  0  0  0  0  0  0  0  0
    8.3567  -16.7986   24.7948 N   0  0  0  0  0  0  0  0  0  0  0  0
    9.5380  -18.0673   26.4905 C   0  0  0  0  0  0  0  0  0  0  0  0
    8.5697  -18.8889   26.4684 O   0  0  0  0  0  0  0  0  0  0  0  0
   10.6967  -18.4634   27.1701 O   0  0  0  0  0  0  0  0  0  0  0  0
  2  1  1  0
  3  4  1  0
  3  2  1  0
  4  5  1  0
  5  6  1  1
  5  1  1  0
  6  8  1  0
  7  6  2  0
  8  9  1  0
  9 10  1  6
 10 11  1  0
 11 12  2  0
 11 15  1  0
 12 13  1  0
 13 14  1  0
 15 14  2  0
 16  9  1  0
 16 17  2  0
 18 19  1  0
 19 21  1  0
 20 19  2  0
 21 22  1  0
 23 24  1  0
 23 22  1  1
 24 16  1  0
 25 23  1  0
 26 25  2  0
 27 25  1  0
M  END
$$$$
