PHQ.pdb
     RDKit          3D

 27 28  0  0  1  0  0  0  0  0999 V2000
    8.3069  -15.6661   18.7123 N   0  0  0  0  0  0  0  0  0  0  0  0
    7.2811  -15.1562   17.8359 C   0  0  0  0  0  0  0  0  0  0  0  0
    7.8383  -13.8727   17.2447 C   0  0  0  0  0  0  0  0  0  0  0  0
    8.8663  -13.3945   18.2276 C   0  0  0  0  0  0  0  0  0  0  0  0
    9.2171  -14.6139   19.0092 C   0  0  1  0  0  0  0  0  0  0  0  0
    9.2843  -14.3445   20.4913 C   0  0  0  0  0  0  0  0  0  0  0  0
   10.1672  -13.5431   20.8361 O   0  0  0  0  0  0  0  0  0  0  0  0
    8.4061  -14.9682   21.3603 N   0  0  0  0  0  0  0  0  0  0  0  0
    8.2521  -14.7483   22.7421 C   0  0  1  0  0  0  0  0  0  0  0  0
    6.8065  -14.9168   23.2012 C   0  0  0  0  0  0  0  0  0  0  0  0
    6.5377  -14.0903   24.3973 C   0  0  0  0  0  0  0  0  0  0  0  0
    7.4050  -13.2123   25.0060 C   0  0  0  0  0  0  0  0  0  0  0  0
    6.7572  -12.6764   26.0528 N   0  0  0  0  0  0  0  0  0  0  0  0
    5.5067  -13.1836   26.1314 C   0  0  0  0  0  0  0  0  0  0  0  0
    5.3950  -14.0399   25.1166 N   0  0  0  0  0  0  0  0  0  0  0  0
    9.2193  -15.4866   23.5350 C   0  0  0  0  0  0  0  0  0  0  0  0
    9.7849  -16.5152   23.0313 O   0  0  0  0  0  0  0  0  0  0  0  0
   10.5560  -13.8027   29.3790 N   0  0  0  0  0  0  0  0  0  0  0  0
   11.1203  -15.0970   29.3993 C   0  0  0  0  0  0  0  0  0  0  0  0
   11.5627  -15.5730   30.4984 O   0  0  0  0  0  0  0  0  0  0  0  0
   11.1789  -15.8733   28.1423 C   0  0  0  0  0  0  0  0  0  0  0  0
   10.4835  -15.2235   27.0059 C   0  0  0  0  0  0  0  0  0  0  0  0
   10.4156  -15.9505   25.7189 C   0  0  2  0  0  0  0  0  0  0  0  0
    9.5667  -15.1221   24.8402 N   0  0  0  0  0  0  0  0  0  0  0  0
   10.0421  -17.3441   25.6870 C   0  0  0  0  0  0  0  0  0  0  0  0
    8.8147  -17.6691   25.6567 O   0  0  0  0  0  0  0  0  0  0  0  0
   10.9791  -18.3850   25.6795 O   0  0  0  0  0  0  0  0  0  0  0  0
  2  1  1  0
  3  4  1  0
  3  2  1  0
  4  5  1  0
  5  6  1  1
  5  1  1  0
  6  8  1  0
  7  6  2  0
  8  9  1  0
  9 10  1  1
 10 11  1  0
 11 12  2  0
 11 15  1  0
 12 13  1  0
 13 14  1  0
 15 14  2  0
 16  9  1  0
 16 17  2  0
 18 19  1  0
 19 21  1  0
 20 19  2  0
 21 22  1  0
 23 24  1  0
 23 22  1  1
 24 16  1  0
 25 23  1  0
 26 25  2  0
 27 25  1  0
M  END
$$$$
