PHQ.pdb
     RDKit          3D

 27 28  0  0  1  0  0  0  0  0999 V2000
    8.2733  -18.7509   19.0426 N   0  0  0  0  0  0  0  0  0  0  0  0
    7.2314  -18.4022   18.1082 C   0  0  0  0  0  0  0  0  0  0  0  0
    7.9404  -17.9098   16.8583 C   0  0  0  0  0  0  0  0  0  0  0  0
    9.2862  -17.4367   17.3236 C   0  0  0  0  0  0  0  0  0  0  0  0
    9.4838  -18.1289   18.6285 C   0  0  1  0  0  0  0  0  0  0  0  0
   10.0206  -17.2042   19.6918 C   0  0  0  0  0  0  0  0  0  0  0  0
   11.1207  -16.6922   19.4306 O   0  0  0  0  0  0  0  0  0  0  0  0
    9.3035  -16.9762   20.8534 N   0  0  0  0  0  0  0  0  0  0  0  0
    9.6300  -16.1152   21.9180 C   0  0  1  0  0  0  0  0  0  0  0  0
    8.4228  -15.3300   22.4232 C   0  0  0  0  0  0  0  0  0  0  0  0
    7.8344  -14.5185   21.3363 C   0  0  0  0  0  0  0  0  0  0  0  0
    6.5755  -14.6503   20.7964 C   0  0  0  0  0  0  0  0  0  0  0  0
    6.4544  -13.7159   19.8399 N   0  0  0  0  0  0  0  0  0  0  0  0
    7.5936  -12.9936   19.7525 C   0  0  0  0  0  0  0  0  0  0  0  0
    8.4176  -13.4979   20.6700 N   0  0  0  0  0  0  0  0  0  0  0  0
   10.3867  -16.7827   22.9626 C   0  0  0  0  0  0  0  0  0  0  0  0
    9.9625  -17.8940   23.4280 O   0  0  0  0  0  0  0  0  0  0  0  0
   16.3346  -15.6448   23.0035 N   0  0  0  0  0  0  0  0  0  0  0  0
   16.3490  -16.5838   24.0580 C   0  0  0  0  0  0  0  0  0  0  0  0
   17.4632  -16.9309   24.5760 O   0  0  0  0  0  0  0  0  0  0  0  0
   15.0664  -17.1387   24.5413 C   0  0  0  0  0  0  0  0  0  0  0  0
   13.8759  -16.5586   23.8754 C   0  0  0  0  0  0  0  0  0  0  0  0
   12.5407  -17.0632   24.2654 C   0  0  2  0  0  0  0  0  0  0  0  0
   11.5726  -16.2617   23.4911 N   0  0  0  0  0  0  0  0  0  0  0  0
   12.1777  -17.1657   25.6584 C   0  0  0  0  0  0  0  0  0  0  0  0
   11.3931  -16.3090   26.1719 O   0  0  0  0  0  0  0  0  0  0  0  0
   12.6467  -18.1855   26.4958 O   0  0  0  0  0  0  0  0  0  0  0  0
  2  1  1  0
  3  4  1  0
  3  2  1  0
  4  5  1  0
  5  6  1  1
  5  1  1  0
  6  8  1  0
  7  6  2  0
  8  9  1  0
  9 10  1  1
 10 11  1  0
 11 12  2  0
 11 15  1  0
 12 13  1  0
 13 14  1  0
 15 14  2  0
 16  9  1  0
 16 17  2  0
 18 19  1  0
 19 21  1  0
 20 19  2  0
 21 22  1  0
 23 24  1  0
 23 22  1  1
 24 16  1  0
 25 23  1  0
 26 25  2  0
 27 25  1  0
M  END
$$$$
