PHQ.pdb
     RDKit          3D

 27 28  0  0  1  0  0  0  0  0999 V2000
    8.9562  -13.3502   19.4397 N   0  0  0  0  0  0  0  0  0  0  0  0
    8.4446  -13.6240   18.1192 C   0  0  0  0  0  0  0  0  0  0  0  0
    6.9520  -13.8491   18.2890 C   0  0  0  0  0  0  0  0  0  0  0  0
    6.7739  -14.2833   19.7143 C   0  0  0  0  0  0  0  0  0  0  0  0
    8.0059  -13.7988   20.3986 C   0  0  1  0  0  0  0  0  0  0  0  0
    8.5975  -14.8384   21.3168 C   0  0  0  0  0  0  0  0  0  0  0  0
    7.7834  -15.6597   21.7677 O   0  0  0  0  0  0  0  0  0  0  0  0
    9.9514  -14.8348   21.6041 N   0  0  0  0  0  0  0  0  0  0  0  0
   10.6753  -15.7619   22.3773 C   0  0  1  0  0  0  0  0  0  0  0  0
   12.1845  -15.5988   22.2202 C   0  0  0  0  0  0  0  0  0  0  0  0
   12.5775  -15.7092   20.7992 C   0  0  0  0  0  0  0  0  0  0  0  0
   13.2612  -14.7738   20.0567 C   0  0  0  0  0  0  0  0  0  0  0  0
   13.4070  -15.2779   18.8209 N   0  0  0  0  0  0  0  0  0  0  0  0
   12.8393  -16.5026   18.7513 C   0  0  0  0  0  0  0  0  0  0  0  0
   12.3418  -16.7444   19.9634 N   0  0  0  0  0  0  0  0  0  0  0  0
   10.2213  -15.8125   23.7560 C   0  0  0  0  0  0  0  0  0  0  0  0
   10.3570  -14.7806   24.4964 O   0  0  0  0  0  0  0  0  0  0  0  0
    6.5965  -18.9772   23.6668 N   0  0  0  0  0  0  0  0  0  0  0  0
    6.2502  -17.6097   23.7305 C   0  0  0  0  0  0  0  0  0  0  0  0
    5.4364  -17.1265   22.8735 O   0  0  0  0  0  0  0  0  0  0  0  0
    6.8371  -16.7705   24.7971 C   0  0  0  0  0  0  0  0  0  0  0  0
    7.7876  -17.4961   25.6730 C   0  0  0  0  0  0  0  0  0  0  0  0
    9.1896  -17.0257   25.7256 C   0  0  2  0  0  0  0  0  0  0  0  0
    9.6352  -16.9505   24.3203 N   0  0  0  0  0  0  0  0  0  0  0  0
   10.1513  -17.6916   26.5708 C   0  0  0  0  0  0  0  0  0  0  0  0
   11.1902  -18.2121   26.0581 O   0  0  0  0  0  0  0  0  0  0  0  0
   10.0051  -17.7927   27.9600 O   0  0  0  0  0  0  0  0  0  0  0  0
  2  1  1  0
  3  4  1  0
  3  2  1  0
  4  5  1  0
  5  6  1  6
  5  1  1  0
  6  8  1  0
  7  6  2  0
  8  9  1  0
  9 10  1  1
 10 11  1  0
 11 12  2  0
 11 15  1  0
 12 13  1  0
 13 14  1  0
 15 14  2  0
 16  9  1  0
 16 17  2  0
 18 19  1  0
 19 21  1  0
 20 19  2  0
 21 22  1  0
 23 24  1  0
 23 22  1  6
 24 16  1  0
 25 23  1  0
 26 25  2  0
 27 25  1  0
M  END
$$$$
