PHQ.pdb
     RDKit          3D

 27 28  0  0  1  0  0  0  0  0999 V2000
    7.9224  -14.7872   18.0774 N   0  0  0  0  0  0  0  0  0  0  0  0
    6.7630  -14.0451   17.6467 C   0  0  0  0  0  0  0  0  0  0  0  0
    7.0640  -12.5878   17.9521 C   0  0  0  0  0  0  0  0  0  0  0  0
    8.0796  -12.6134   19.0564 C   0  0  0  0  0  0  0  0  0  0  0  0
    8.6777  -13.9756   18.9688 C   0  0  1  0  0  0  0  0  0  0  0  0
    8.8198  -14.6268   20.3214 C   0  0  0  0  0  0  0  0  0  0  0  0
    9.5795  -14.0376   21.1064 O   0  0  0  0  0  0  0  0  0  0  0  0
    8.1342  -15.7923   20.6167 N   0  0  0  0  0  0  0  0  0  0  0  0
    8.1544  -16.5289   21.8160 C   0  0  1  0  0  0  0  0  0  0  0  0
    7.1184  -17.6494   21.8288 C   0  0  0  0  0  0  0  0  0  0  0  0
    7.1083  -18.3377   23.1374 C   0  0  0  0  0  0  0  0  0  0  0  0
    7.7943  -17.9661   24.2709 C   0  0  0  0  0  0  0  0  0  0  0  0
    7.5013  -18.8648   25.2244 N   0  0  0  0  0  0  0  0  0  0  0  0
    6.6519  -19.7961   24.7363 C   0  0  0  0  0  0  0  0  0  0  0  0
    6.4268  -19.4566   23.4677 N   0  0  0  0  0  0  0  0  0  0  0  0
    9.4933  -16.9505   22.1885 C   0  0  0  0  0  0  0  0  0  0  0  0
   10.1872  -17.6307   21.3594 O   0  0  0  0  0  0  0  0  0  0  0  0
   12.2639  -14.5253   20.7842 N   0  0  0  0  0  0  0  0  0  0  0  0
   13.4473  -15.1638   21.2154 C   0  0  0  0  0  0  0  0  0  0  0  0
   14.4796  -15.1487   20.4641 O   0  0  0  0  0  0  0  0  0  0  0  0
   13.4620  -15.8310   22.5348 C   0  0  0  0  0  0  0  0  0  0  0  0
   12.2048  -15.6647   23.3023 C   0  0  0  0  0  0  0  0  0  0  0  0
   11.4896  -16.8817   23.7460 C   0  0  2  0  0  0  0  0  0  0  0  0
   10.0680  -16.6445   23.4267 N   0  0  0  0  0  0  0  0  0  0  0  0
   11.6736  -17.3889   25.0845 C   0  0  0  0  0  0  0  0  0  0  0  0
   10.7576  -17.2342   25.9506 O   0  0  0  0  0  0  0  0  0  0  0  0
   12.8302  -18.0656   25.4916 O   0  0  0  0  0  0  0  0  0  0  0  0
  2  1  1  0
  3  4  1  0
  3  2  1  0
  4  5  1  0
  5  6  1  1
  5  1  1  0
  6  8  1  0
  7  6  2  0
  8  9  1  0
  9 10  1  6
 10 11  1  0
 11 12  2  0
 11 15  1  0
 12 13  1  0
 13 14  1  0
 15 14  2  0
 16  9  1  0
 16 17  2  0
 18 19  1  0
 19 21  1  0
 20 19  2  0
 21 22  1  0
 23 24  1  0
 23 22  1  1
 24 16  1  0
 25 23  1  0
 26 25  2  0
 27 25  1  0
M  END
$$$$
