PHQ.pdb
     RDKit          3D

 27 28  0  0  1  0  0  0  0  0999 V2000
    8.5788  -18.8821   18.7963 N   0  0  0  0  0  0  0  0  0  0  0  0
    7.5837  -18.8713   17.7523 C   0  0  0  0  0  0  0  0  0  0  0  0
    8.3110  -18.4475   16.4879 C   0  0  0  0  0  0  0  0  0  0  0  0
    9.5077  -17.6731   16.9568 C   0  0  0  0  0  0  0  0  0  0  0  0
    9.6987  -18.1174   18.3664 C   0  0  1  0  0  0  0  0  0  0  0  0
    9.9695  -16.9637   19.2989 C   0  0  0  0  0  0  0  0  0  0  0  0
   11.1420  -16.5565   19.2977 O   0  0  0  0  0  0  0  0  0  0  0  0
    8.9543  -16.4342   20.0764 N   0  0  0  0  0  0  0  0  0  0  0  0
    9.0475  -15.4233   21.0514 C   0  0  1  0  0  0  0  0  0  0  0  0
    7.8447  -14.4841   21.0335 C   0  0  0  0  0  0  0  0  0  0  0  0
    7.6442  -13.9165   19.6831 C   0  0  0  0  0  0  0  0  0  0  0  0
    8.0354  -12.6723   19.2441 C   0  0  0  0  0  0  0  0  0  0  0  0
    7.6577  -12.5679   17.9600 N   0  0  0  0  0  0  0  0  0  0  0  0
    7.0392  -13.7035   17.5664 C   0  0  0  0  0  0  0  0  0  0  0  0
    7.0421  -14.5084   18.6282 N   0  0  0  0  0  0  0  0  0  0  0  0
    9.3764  -15.9457   22.3660 C   0  0  0  0  0  0  0  0  0  0  0  0
    8.4914  -16.5948   23.0194 O   0  0  0  0  0  0  0  0  0  0  0  0
   10.8546  -20.4043   21.6300 N   0  0  0  0  0  0  0  0  0  0  0  0
   11.5759  -20.4966   22.8404 C   0  0  0  0  0  0  0  0  0  0  0  0
   12.0749  -21.6184   23.1911 O   0  0  0  0  0  0  0  0  0  0  0  0
   11.7405  -19.2846   23.6711 C   0  0  0  0  0  0  0  0  0  0  0  0
   11.1690  -18.0603   23.0614 C   0  0  0  0  0  0  0  0  0  0  0  0
   11.2790  -16.7888   23.8100 C   0  0  2  0  0  0  0  0  0  0  0  0
   10.6311  -15.7709   22.9596 N   0  0  0  0  0  0  0  0  0  0  0  0
   12.5568  -16.3480   24.3156 C   0  0  0  0  0  0  0  0  0  0  0  0
   12.9465  -16.7253   25.4641 O   0  0  0  0  0  0  0  0  0  0  0  0
   13.4170  -15.5132   23.5914 O   0  0  0  0  0  0  0  0  0  0  0  0
  2  1  1  0
  3  4  1  0
  3  2  1  0
  4  5  1  0
  5  6  1  1
  5  1  1  0
  6  8  1  0
  7  6  2  0
  8  9  1  0
  9 10  1  1
 10 11  1  0
 11 12  2  0
 11 15  1  0
 12 13  1  0
 13 14  1  0
 15 14  2  0
 16  9  1  0
 16 17  2  0
 18 19  1  0
 19 21  1  0
 20 19  2  0
 21 22  1  0
 23 24  1  0
 23 22  1  6
 24 16  1  0
 25 23  1  0
 26 25  2  0
 27 25  1  0
M  END
$$$$
