WKD.pdb
     RDKit          3D

 32 33  0  0  1  0  0  0  0  0999 V2000
   17.2747  -10.8916  -16.5507 N   0  0  0  0  0  0  0  0  0  0  0  0
   18.3894  -10.4521  -17.3425 C   0  0  1  0  0  0  0  0  0  0  0  0
   18.1653   -9.1675  -18.0635 C   0  0  0  0  0  0  0  0  0  0  0  0
   17.1604   -9.1821  -19.1224 C   0  0  0  0  0  0  0  0  0  0  0  0
   16.3725  -10.2850  -19.4736 C   0  0  0  0  0  0  0  0  0  0  0  0
   15.5584   -9.9038  -20.4664 N   0  0  0  0  0  0  0  0  0  0  0  0
   15.7974   -8.6106  -20.7573 C   0  0  0  0  0  0  0  0  0  0  0  0
   15.2204   -7.7851  -21.6979 C   0  0  0  0  0  0  0  0  0  0  0  0
   15.6423   -6.4882  -21.8103 C   0  0  0  0  0  0  0  0  0  0  0  0
   16.6321   -5.9806  -21.0076 C   0  0  0  0  0  0  0  0  0  0  0  0
   17.2122   -6.8009  -20.0660 C   0  0  0  0  0  0  0  0  0  0  0  0
   16.8074   -8.1194  -19.9256 C   0  0  0  0  0  0  0  0  0  0  0  0
   19.5736  -10.2594  -16.4441 C   0  0  0  0  0  0  0  0  0  0  0  0
   19.4189  -10.1664  -15.1931 O   0  0  0  0  0  0  0  0  0  0  0  0
   20.8560  -10.1808  -16.9952 N   0  0  0  0  0  0  0  0  0  0  0  0
   22.0800  -10.0037  -16.2966 C   0  0  1  0  0  0  0  0  0  0  0  0
   23.2956  -10.6835  -16.8858 C   0  0  0  0  0  0  0  0  0  0  0  0
   24.4632  -10.4817  -15.9926 C   0  0  0  0  0  0  0  0  0  0  0  0
   25.7210  -11.0509  -16.6439 C   0  0  0  0  0  0  0  0  0  0  0  0
   26.8974  -10.9904  -15.7038 C   0  0  0  0  0  0  0  0  0  0  0  0
   28.0149  -11.6103  -16.3976 N   0  0  0  0  0  0  0  0  0  0  0  0
   22.2710   -8.6464  -15.8281 C   0  0  0  0  0  0  0  0  0  0  0  0
   23.2552   -8.4113  -15.0618 O   0  0  0  0  0  0  0  0  0  0  0  0
   21.4549   -7.5434  -16.1472 N   0  0  0  0  0  0  0  0  0  0  0  0
   21.6446   -6.1934  -15.5898 C   0  0  1  0  0  0  0  0  0  0  0  0
   21.6908   -5.1852  -16.6894 C   0  0  0  0  0  0  0  0  0  0  0  0
   21.7071   -3.8152  -16.1719 C   0  0  0  0  0  0  0  0  0  0  0  0
   21.7396   -3.5348  -14.9666 O   0  0  0  0  0  0  0  0  0  0  0  0
   20.4500   -5.9436  -14.7477 C   0  0  0  0  0  0  0  0  0  0  0  0
   20.3455   -4.7559  -14.0298 O   0  0  0  0  0  0  0  0  0  0  0  0
   21.6869   -2.6968  -17.0401 O   0  0  0  0  0  0  0  0  0  0  0  0
   19.5251   -6.7473  -14.6468 O   0  0  0  0  0  0  0  0  0  0  0  0
  2  1  1  1
  2 13  1  0
  2  3  1  0
  4  5  2  0
  4  3  1  0
  6  5  1  0
  7 12  2  0
  7  6  1  0
  8  7  1  0
  9 10  1  0
  9  8  2  0
 10 11  2  0
 11 12  1  0
 12  4  1  0
 13 14  2  0
 15 16  1  0
 15 13  1  0
 16 22  1  0
 16 17  1  6
 18 17  1  0
 19 18  1  0
 20 19  1  0
 21 20  1  0
 22 23  2  0
 22 24  1  0
 24 25  1  0
 25 29  1  0
 25 26  1  6
 27 26  1  0
 28 27  2  0
 29 32  2  0
 29 30  1  0
 31 27  1  0
M  END
$$$$
