WKD.pdb
     RDKit          3D

 32 33  0  0  1  0  0  0  0  0999 V2000
   28.0963  -22.3981  -13.6699 N   0  0  0  0  0  0  0  0  0  0  0  0
   26.9665  -22.0650  -12.8483 C   0  0  1  0  0  0  0  0  0  0  0  0
   27.0488  -20.7258  -12.2003 C   0  0  0  0  0  0  0  0  0  0  0  0
   27.9751  -20.6010  -11.0789 C   0  0  0  0  0  0  0  0  0  0  0  0
   29.3653  -20.4753  -11.1893 C   0  0  0  0  0  0  0  0  0  0  0  0
   29.8632  -20.3618   -9.9511 N   0  0  0  0  0  0  0  0  0  0  0  0
   28.8499  -20.4105   -9.0650 C   0  0  0  0  0  0  0  0  0  0  0  0
   28.8626  -20.3400   -7.6888 C   0  0  0  0  0  0  0  0  0  0  0  0
   27.6851  -20.4197   -6.9961 C   0  0  0  0  0  0  0  0  0  0  0  0
   26.4813  -20.5695   -7.6365 C   0  0  0  0  0  0  0  0  0  0  0  0
   26.4627  -20.6404   -9.0115 C   0  0  0  0  0  0  0  0  0  0  0  0
   27.6375  -20.5621   -9.7434 C   0  0  0  0  0  0  0  0  0  0  0  0
   25.7319  -22.0749  -13.6982 C   0  0  0  0  0  0  0  0  0  0  0  0
   25.6654  -21.3594  -14.7380 O   0  0  0  0  0  0  0  0  0  0  0  0
   24.6477  -22.8799  -13.3362 N   0  0  0  0  0  0  0  0  0  0  0  0
   23.5465  -23.2527  -14.1521 C   0  0  1  0  0  0  0  0  0  0  0  0
   23.4184  -24.7238  -14.4786 C   0  0  0  0  0  0  0  0  0  0  0  0
   22.3082  -24.9271  -15.4420 C   0  0  0  0  0  0  0  0  0  0  0  0
   22.1708  -26.4112  -15.7718 C   0  0  0  0  0  0  0  0  0  0  0  0
   21.0854  -26.6455  -16.7907 C   0  0  0  0  0  0  0  0  0  0  0  0
   20.9775  -28.0860  -16.9577 N   0  0  0  0  0  0  0  0  0  0  0  0
   22.3212  -22.5687  -13.7931 C   0  0  0  0  0  0  0  0  0  0  0  0
   22.0633  -22.4113  -12.5603 O   0  0  0  0  0  0  0  0  0  0  0  0
   21.3721  -22.0523  -14.6970 N   0  0  0  0  0  0  0  0  0  0  0  0
   20.1364  -21.3644  -14.2859 C   0  0  1  0  0  0  0  0  0  0  0  0
   19.7967  -20.2895  -15.2642 C   0  0  0  0  0  0  0  0  0  0  0  0
   18.5247  -19.6400  -14.9399 C   0  0  0  0  0  0  0  0  0  0  0  0
   17.8694  -19.8812  -13.9178 O   0  0  0  0  0  0  0  0  0  0  0  0
   19.0789  -22.4034  -14.3149 C   0  0  0  0  0  0  0  0  0  0  0  0
   18.3330  -22.6638  -13.1691 O   0  0  0  0  0  0  0  0  0  0  0  0
   17.9503  -18.6703  -15.7971 O   0  0  0  0  0  0  0  0  0  0  0  0
   18.8190  -23.0628  -15.3195 O   0  0  0  0  0  0  0  0  0  0  0  0
  2  1  1  6
  2 13  1  0
  2  3  1  0
  4  5  2  0
  4  3  1  0
  6  5  1  0
  7 12  2  0
  7  6  1  0
  8  7  1  0
  9 10  1  0
  9  8  2  0
 10 11  2  0
 11 12  1  0
 12  4  1  0
 13 14  2  0
 15 16  1  0
 15 13  1  0
 16 22  1  0
 16 17  1  1
 18 17  1  0
 19 18  1  0
 20 19  1  0
 21 20  1  0
 22 23  2  0
 22 24  1  0
 24 25  1  0
 25 29  1  0
 25 26  1  6
 27 26  1  0
 28 27  2  0
 29 32  2  0
 29 30  1  0
 31 27  1  0
M  END
$$$$
