WKD.pdb
     RDKit          3D

 32 33  0  0  1  0  0  0  0  0999 V2000
   26.4579  -21.8990   -8.9426 N   0  0  0  0  0  0  0  0  0  0  0  0
   26.2551  -20.4817   -9.0549 C   0  0  1  0  0  0  0  0  0  0  0  0
   27.4438  -19.6583   -8.6955 C   0  0  0  0  0  0  0  0  0  0  0  0
   28.3270  -20.2034   -7.6688 C   0  0  0  0  0  0  0  0  0  0  0  0
   29.2358  -21.2516   -7.8582 C   0  0  0  0  0  0  0  0  0  0  0  0
   29.8772  -21.4484   -6.6990 N   0  0  0  0  0  0  0  0  0  0  0  0
   29.4137  -20.5719   -5.7872 C   0  0  0  0  0  0  0  0  0  0  0  0
   29.7590  -20.3917   -4.4653 C   0  0  0  0  0  0  0  0  0  0  0  0
   29.1332  -19.4234   -3.7282 C   0  0  0  0  0  0  0  0  0  0  0  0
   28.1631  -18.6194   -4.2708 C   0  0  0  0  0  0  0  0  0  0  0  0
   27.8142  -18.7950   -5.5911 C   0  0  0  0  0  0  0  0  0  0  0  0
   28.4293  -19.7664   -6.3659 C   0  0  0  0  0  0  0  0  0  0  0  0
   25.8987  -20.1560  -10.4739 C   0  0  0  0  0  0  0  0  0  0  0  0
   25.6747  -18.9609  -10.8189 O   0  0  0  0  0  0  0  0  0  0  0  0
   25.8126  -21.1819  -11.4198 N   0  0  0  0  0  0  0  0  0  0  0  0
   25.5614  -21.0463  -12.8112 C   0  0  1  0  0  0  0  0  0  0  0  0
   26.7247  -21.3278  -13.7356 C   0  0  0  0  0  0  0  0  0  0  0  0
   26.3555  -20.9685  -15.1273 C   0  0  0  0  0  0  0  0  0  0  0  0
   27.5217  -21.2628  -16.0673 C   0  0  0  0  0  0  0  0  0  0  0  0
   27.2265  -20.7901  -17.4675 C   0  0  0  0  0  0  0  0  0  0  0  0
   28.4573  -20.9463  -18.2260 N   0  0  0  0  0  0  0  0  0  0  0  0
   24.2812  -21.5945  -13.2096 C   0  0  0  0  0  0  0  0  0  0  0  0
   23.8328  -22.5935  -12.5678 O   0  0  0  0  0  0  0  0  0  0  0  0
   23.4722  -21.1164  -14.2591 N   0  0  0  0  0  0  0  0  0  0  0  0
   21.9997  -21.1296  -14.2319 C   0  0  1  0  0  0  0  0  0  0  0  0
   21.5018  -20.4224  -13.0155 C   0  0  0  0  0  0  0  0  0  0  0  0
   20.7956  -21.3301  -12.1086 C   0  0  0  0  0  0  0  0  0  0  0  0
   20.6168  -22.5330  -12.3398 O   0  0  0  0  0  0  0  0  0  0  0  0
   21.5768  -20.3809  -15.4399 C   0  0  0  0  0  0  0  0  0  0  0  0
   20.6379  -20.9358  -16.3045 O   0  0  0  0  0  0  0  0  0  0  0  0
   20.2599  -20.8771  -10.8786 O   0  0  0  0  0  0  0  0  0  0  0  0
   22.0206  -19.2706  -15.7259 O   0  0  0  0  0  0  0  0  0  0  0  0
  2  1  1  6
  2 13  1  0
  2  3  1  0
  4  5  2  0
  4  3  1  0
  6  5  1  0
  7 12  2  0
  7  6  1  0
  8  7  1  0
  9 10  1  0
  9  8  2  0
 10 11  2  0
 11 12  1  0
 12  4  1  0
 13 14  2  0
 15 16  1  0
 15 13  1  0
 16 22  1  0
 16 17  1  6
 18 17  1  0
 19 18  1  0
 20 19  1  0
 21 20  1  0
 22 23  2  0
 22 24  1  0
 24 25  1  0
 25 29  1  0
 25 26  1  1
 27 26  1  0
 28 27  2  0
 29 32  2  0
 29 30  1  0
 31 27  1  0
M  END
$$$$
