WKD.pdb
     RDKit          3D

 32 33  0  0  1  0  0  0  0  0999 V2000
   26.5344  -22.3776  -11.2468 N   0  0  0  0  0  0  0  0  0  0  0  0
   25.9517  -21.1141  -10.8914 C   0  0  1  0  0  0  0  0  0  0  0  0
   26.9401  -20.0574  -10.5357 C   0  0  0  0  0  0  0  0  0  0  0  0
   27.9032  -20.3920   -9.4908 C   0  0  0  0  0  0  0  0  0  0  0  0
   29.1401  -21.0137   -9.7010 C   0  0  0  0  0  0  0  0  0  0  0  0
   29.7443  -21.1301   -8.5114 N   0  0  0  0  0  0  0  0  0  0  0  0
   28.9442  -20.6103   -7.5606 C   0  0  0  0  0  0  0  0  0  0  0  0
   29.1268  -20.5055   -6.1986 C   0  0  0  0  0  0  0  0  0  0  0  0
   28.1520  -19.9338   -5.4270 C   0  0  0  0  0  0  0  0  0  0  0  0
   26.9873  -19.4579   -5.9735 C   0  0  0  0  0  0  0  0  0  0  0  0
   26.7995  -19.5600   -7.3338 C   0  0  0  0  0  0  0  0  0  0  0  0
   27.7675  -20.1330   -8.1442 C   0  0  0  0  0  0  0  0  0  0  0  0
   25.1540  -20.6062  -12.0543 C   0  0  0  0  0  0  0  0  0  0  0  0
   24.5071  -19.5243  -11.9624 O   0  0  0  0  0  0  0  0  0  0  0  0
   25.1254  -21.3357  -13.2466 N   0  0  0  0  0  0  0  0  0  0  0  0
   24.4221  -21.0072  -14.4361 C   0  0  1  0  0  0  0  0  0  0  0  0
   25.0211  -21.5065  -15.7318 C   0  0  0  0  0  0  0  0  0  0  0  0
   26.4801  -21.2360  -15.7448 C   0  0  0  0  0  0  0  0  0  0  0  0
   27.1797  -22.2008  -16.6988 C   0  0  0  0  0  0  0  0  0  0  0  0
   28.6536  -21.9016  -16.7936 C   0  0  0  0  0  0  0  0  0  0  0  0
   29.2155  -22.8741  -17.7173 N   0  0  0  0  0  0  0  0  0  0  0  0
   22.9868  -21.1470  -14.2998 C   0  0  0  0  0  0  0  0  0  0  0  0
   22.2580  -20.8225  -15.2871 O   0  0  0  0  0  0  0  0  0  0  0  0
   22.3108  -21.6170  -13.1567 N   0  0  0  0  0  0  0  0  0  0  0  0
   20.8445  -21.6989  -13.0458 C   0  0  1  0  0  0  0  0  0  0  0  0
   20.4605  -22.7900  -12.1025 C   0  0  0  0  0  0  0  0  0  0  0  0
   19.0096  -22.8644  -11.9174 C   0  0  0  0  0  0  0  0  0  0  0  0
   18.2013  -22.1417  -12.5147 O   0  0  0  0  0  0  0  0  0  0  0  0
   20.4186  -20.3946  -12.4836 C   0  0  0  0  0  0  0  0  0  0  0  0
   19.2167  -19.8241  -12.8924 O   0  0  0  0  0  0  0  0  0  0  0  0
   18.4254  -23.7919  -11.0210 O   0  0  0  0  0  0  0  0  0  0  0  0
   21.0849  -19.7752  -11.6567 O   0  0  0  0  0  0  0  0  0  0  0  0
  2  1  1  6
  2 13  1  0
  2  3  1  0
  4  5  2  0
  4  3  1  0
  6  5  1  0
  7 12  2  0
  7  6  1  0
  8  7  1  0
  9 10  1  0
  9  8  2  0
 10 11  2  0
 11 12  1  0
 12  4  1  0
 13 14  2  0
 15 16  1  0
 15 13  1  0
 16 22  1  0
 16 17  1  6
 18 17  1  0
 19 18  1  0
 20 19  1  0
 21 20  1  0
 22 23  2  0
 22 24  1  0
 24 25  1  0
 25 29  1  0
 25 26  1  1
 27 26  1  0
 28 27  2  0
 29 32  2  0
 29 30  1  0
 31 27  1  0
M  END
$$$$
