WKD.pdb
     RDKit          3D

 32 33  0  0  1  0  0  0  0  0999 V2000
   25.0254  -19.0462   -8.5207 N   0  0  0  0  0  0  0  0  0  0  0  0
   25.9186  -19.8127   -9.3436 C   0  0  1  0  0  0  0  0  0  0  0  0
   26.3951  -21.0803   -8.7220 C   0  0  0  0  0  0  0  0  0  0  0  0
   26.7716  -21.0130   -7.3130 C   0  0  0  0  0  0  0  0  0  0  0  0
   25.9616  -21.4060   -6.2406 C   0  0  0  0  0  0  0  0  0  0  0  0
   26.6598  -21.2179   -5.1132 N   0  0  0  0  0  0  0  0  0  0  0  0
   27.8731  -20.7239   -5.4262 C   0  0  0  0  0  0  0  0  0  0  0  0
   28.9294  -20.3687   -4.6154 C   0  0  0  0  0  0  0  0  0  0  0  0
   30.0769  -19.8766   -5.1754 C   0  0  0  0  0  0  0  0  0  0  0  0
   30.2085  -19.7243   -6.5323 C   0  0  0  0  0  0  0  0  0  0  0  0
   29.1564  -20.0776   -7.3472 C   0  0  0  0  0  0  0  0  0  0  0  0
   27.9801  -20.5801   -6.8122 C   0  0  0  0  0  0  0  0  0  0  0  0
   25.2118  -20.1766  -10.6143 C   0  0  0  0  0  0  0  0  0  0  0  0
   24.0033  -20.5461  -10.5908 O   0  0  0  0  0  0  0  0  0  0  0  0
   25.8954  -20.1075  -11.8319 N   0  0  0  0  0  0  0  0  0  0  0  0
   25.3270  -20.0192  -13.1305 C   0  0  1  0  0  0  0  0  0  0  0  0
   26.2604  -19.6077  -14.2471 C   0  0  0  0  0  0  0  0  0  0  0  0
   27.2912  -20.6560  -14.4486 C   0  0  0  0  0  0  0  0  0  0  0  0
   28.2874  -20.2078  -15.5149 C   0  0  0  0  0  0  0  0  0  0  0  0
   29.2886  -21.2930  -15.8167 C   0  0  0  0  0  0  0  0  0  0  0  0
   30.2023  -20.7498  -16.8091 N   0  0  0  0  0  0  0  0  0  0  0  0
   24.4199  -21.1095  -13.4248 C   0  0  0  0  0  0  0  0  0  0  0  0
   24.5142  -22.1692  -12.7326 O   0  0  0  0  0  0  0  0  0  0  0  0
   23.4258  -21.1059  -14.4229 N   0  0  0  0  0  0  0  0  0  0  0  0
   22.1711  -21.8722  -14.3346 C   0  0  1  0  0  0  0  0  0  0  0  0
   21.4004  -21.4586  -13.1252 C   0  0  0  0  0  0  0  0  0  0  0  0
   20.1250  -22.1712  -13.0221 C   0  0  0  0  0  0  0  0  0  0  0  0
   19.0954  -21.6748  -12.5469 O   0  0  0  0  0  0  0  0  0  0  0  0
   21.4029  -21.5116  -15.5505 C   0  0  0  0  0  0  0  0  0  0  0  0
   21.1942  -20.1721  -15.8653 O   0  0  0  0  0  0  0  0  0  0  0  0
   19.9861  -23.5068  -13.4716 O   0  0  0  0  0  0  0  0  0  0  0  0
   20.9293  -22.3512  -16.3137 O   0  0  0  0  0  0  0  0  0  0  0  0
  2  1  1  1
  2 13  1  0
  2  3  1  0
  4  5  2  0
  4  3  1  0
  6  5  1  0
  7 12  2  0
  7  6  1  0
  8  7  1  0
  9 10  1  0
  9  8  2  0
 10 11  2  0
 11 12  1  0
 12  4  1  0
 13 14  2  0
 15 16  1  0
 15 13  1  0
 16 22  1  0
 16 17  1  6
 18 17  1  0
 19 18  1  0
 20 19  1  0
 21 20  1  0
 22 23  2  0
 22 24  1  0
 24 25  1  0
 25 29  1  0
 25 26  1  1
 27 26  1  0
 28 27  2  0
 29 32  2  0
 29 30  1  0
 31 27  1  0
M  END
$$$$
