WKD.pdb
     RDKit          3D

 32 33  0  0  1  0  0  0  0  0999 V2000
   28.0858  -20.3845  -10.1576 N   0  0  0  0  0  0  0  0  0  0  0  0
   26.8681  -21.0531   -9.7939 C   0  0  1  0  0  0  0  0  0  0  0  0
   26.2609  -20.5781   -8.5187 C   0  0  0  0  0  0  0  0  0  0  0  0
   27.1452  -19.8628   -7.6034 C   0  0  0  0  0  0  0  0  0  0  0  0
   27.4421  -18.4961   -7.6694 C   0  0  0  0  0  0  0  0  0  0  0  0
   28.2643  -18.2087   -6.6520 N   0  0  0  0  0  0  0  0  0  0  0  0
   28.4994  -19.3325   -5.9476 C   0  0  0  0  0  0  0  0  0  0  0  0
   29.2772  -19.5392   -4.8289 C   0  0  0  0  0  0  0  0  0  0  0  0
   29.3654  -20.7931   -4.2880 C   0  0  0  0  0  0  0  0  0  0  0  0
   28.6969  -21.8606   -4.8315 C   0  0  0  0  0  0  0  0  0  0  0  0
   27.9184  -21.6598   -5.9493 C   0  0  0  0  0  0  0  0  0  0  0  0
   27.8068  -20.4020   -6.5215 C   0  0  0  0  0  0  0  0  0  0  0  0
   25.8561  -20.8369  -10.8782 C   0  0  0  0  0  0  0  0  0  0  0  0
   25.5928  -19.6690  -11.2836 O   0  0  0  0  0  0  0  0  0  0  0  0
   25.1995  -21.9346  -11.4424 N   0  0  0  0  0  0  0  0  0  0  0  0
   24.3495  -21.9334  -12.5803 C   0  0  1  0  0  0  0  0  0  0  0  0
   24.2873  -23.2184  -13.3752 C   0  0  0  0  0  0  0  0  0  0  0  0
   25.3324  -23.2055  -14.4287 C   0  0  0  0  0  0  0  0  0  0  0  0
   25.2720  -24.4990  -15.2372 C   0  0  0  0  0  0  0  0  0  0  0  0
   26.3943  -24.5680  -16.2406 C   0  0  0  0  0  0  0  0  0  0  0  0
   26.2649  -25.8472  -16.9200 N   0  0  0  0  0  0  0  0  0  0  0  0
   23.0852  -21.2689  -12.3395 C   0  0  0  0  0  0  0  0  0  0  0  0
   22.5390  -21.4164  -11.2032 O   0  0  0  0  0  0  0  0  0  0  0  0
   22.3919  -20.4604  -13.2616 N   0  0  0  0  0  0  0  0  0  0  0  0
   21.1219  -19.7773  -12.9620 C   0  0  1  0  0  0  0  0  0  0  0  0
   21.0899  -18.4391  -13.6223 C   0  0  0  0  0  0  0  0  0  0  0  0
   19.8139  -17.7542  -13.4036 C   0  0  0  0  0  0  0  0  0  0  0  0
   18.9735  -18.1142  -12.5691 O   0  0  0  0  0  0  0  0  0  0  0  0
   20.0648  -20.6366  -13.5476 C   0  0  0  0  0  0  0  0  0  0  0  0
   18.8460  -20.7788  -12.8910 O   0  0  0  0  0  0  0  0  0  0  0  0
   19.4527  -16.6076  -14.1519 O   0  0  0  0  0  0  0  0  0  0  0  0
   20.2098  -21.2443  -14.6065 O   0  0  0  0  0  0  0  0  0  0  0  0
  2  1  1  6
  2 13  1  0
  2  3  1  0
  4  5  2  0
  4  3  1  0
  6  5  1  0
  7 12  2  0
  7  6  1  0
  8  7  1  0
  9 10  1  0
  9  8  2  0
 10 11  2  0
 11 12  1  0
 12  4  1  0
 13 14  2  0
 15 16  1  0
 15 13  1  0
 16 22  1  0
 16 17  1  1
 18 17  1  0
 19 18  1  0
 20 19  1  0
 21 20  1  0
 22 23  2  0
 22 24  1  0
 24 25  1  0
 25 29  1  0
 25 26  1  6
 27 26  1  0
 28 27  2  0
 29 32  2  0
 29 30  1  0
 31 27  1  0
M  END
$$$$
