WKD.pdb
     RDKit          3D

 32 33  0  0  1  0  0  0  0  0999 V2000
   26.8699  -19.1858  -10.9601 N   0  0  0  0  0  0  0  0  0  0  0  0
   27.1433  -20.5772  -11.1874 C   0  0  1  0  0  0  0  0  0  0  0  0
   27.3568  -21.3744   -9.9468 C   0  0  0  0  0  0  0  0  0  0  0  0
   27.0718  -20.7011   -8.6832 C   0  0  0  0  0  0  0  0  0  0  0  0
   25.7994  -20.3213   -8.2390 C   0  0  0  0  0  0  0  0  0  0  0  0
   25.9412  -19.7568   -7.0328 N   0  0  0  0  0  0  0  0  0  0  0  0
   27.2455  -19.7633   -6.6964 C   0  0  0  0  0  0  0  0  0  0  0  0
   27.8787  -19.2941   -5.5658 C   0  0  0  0  0  0  0  0  0  0  0  0
   29.2376  -19.4104   -5.4537 C   0  0  0  0  0  0  0  0  0  0  0  0
   29.9954  -19.9849   -6.4422 C   0  0  0  0  0  0  0  0  0  0  0  0
   29.3680  -20.4554   -7.5739 C   0  0  0  0  0  0  0  0  0  0  0  0
   27.9929  -20.3539   -7.7188 C   0  0  0  0  0  0  0  0  0  0  0  0
   25.9819  -21.1849  -11.9144 C   0  0  0  0  0  0  0  0  0  0  0  0
   26.0718  -22.3456  -12.4065 O   0  0  0  0  0  0  0  0  0  0  0  0
   24.7932  -20.4614  -12.0490 N   0  0  0  0  0  0  0  0  0  0  0  0
   23.6505  -20.8238  -12.8109 C   0  0  1  0  0  0  0  0  0  0  0  0
   22.5115  -21.4663  -12.0514 C   0  0  0  0  0  0  0  0  0  0  0  0
   21.4881  -21.9580  -13.0069 C   0  0  0  0  0  0  0  0  0  0  0  0
   20.3428  -22.6218  -12.2466 C   0  0  0  0  0  0  0  0  0  0  0  0
   19.2550  -23.0752  -13.1858 C   0  0  0  0  0  0  0  0  0  0  0  0
   18.2878  -23.8027  -12.3796 N   0  0  0  0  0  0  0  0  0  0  0  0
   23.2816  -19.8195  -13.7873 C   0  0  0  0  0  0  0  0  0  0  0  0
   23.0125  -18.6510  -13.3710 O   0  0  0  0  0  0  0  0  0  0  0  0
   23.1915  -20.0191  -15.1789 N   0  0  0  0  0  0  0  0  0  0  0  0
   22.7901  -18.9723  -16.1341 C   0  0  1  0  0  0  0  0  0  0  0  0
   23.0799  -19.4123  -17.5306 C   0  0  0  0  0  0  0  0  0  0  0  0
   24.5030  -19.2925  -17.8551 C   0  0  0  0  0  0  0  0  0  0  0  0
   25.3274  -18.7154  -17.1341 O   0  0  0  0  0  0  0  0  0  0  0  0
   21.3247  -18.8238  -15.9627 C   0  0  0  0  0  0  0  0  0  0  0  0
   20.5342  -19.9508  -15.7580 O   0  0  0  0  0  0  0  0  0  0  0  0
   25.0391  -19.8441  -19.0440 O   0  0  0  0  0  0  0  0  0  0  0  0
   20.7568  -17.7338  -15.9922 O   0  0  0  0  0  0  0  0  0  0  0  0
  2  1  1  1
  2 13  1  0
  2  3  1  0
  4  5  2  0
  4  3  1  0
  6  5  1  0
  7 12  2  0
  7  6  1  0
  8  7  1  0
  9 10  1  0
  9  8  2  0
 10 11  2  0
 11 12  1  0
 12  4  1  0
 13 14  2  0
 15 16  1  0
 15 13  1  0
 16 22  1  0
 16 17  1  1
 18 17  1  0
 19 18  1  0
 20 19  1  0
 21 20  1  0
 22 23  2  0
 22 24  1  0
 24 25  1  0
 25 29  1  0
 25 26  1  6
 27 26  1  0
 28 27  2  0
 29 32  2  0
 29 30  1  0
 31 27  1  0
M  END
$$$$
