WKD.pdb
     RDKit          3D

 32 33  0  0  1  0  0  0  0  0999 V2000
   25.9009  -22.0133   -9.4061 N   0  0  0  0  0  0  0  0  0  0  0  0
   25.8141  -20.5806   -9.4509 C   0  0  1  0  0  0  0  0  0  0  0  0
   26.8727  -19.8741   -8.6760 C   0  0  0  0  0  0  0  0  0  0  0  0
   26.8384  -20.0403   -7.2260 C   0  0  0  0  0  0  0  0  0  0  0  0
   25.8311  -20.7006   -6.5119 C   0  0  0  0  0  0  0  0  0  0  0  0
   26.1627  -20.6663   -5.2147 N   0  0  0  0  0  0  0  0  0  0  0  0
   27.3333  -20.0140   -5.0785 C   0  0  0  0  0  0  0  0  0  0  0  0
   28.0682  -19.7241   -3.9493 C   0  0  0  0  0  0  0  0  0  0  0  0
   29.2436  -19.0330   -4.0657 C   0  0  0  0  0  0  0  0  0  0  0  0
   29.7164  -18.6159   -5.2840 C   0  0  0  0  0  0  0  0  0  0  0  0
   28.9862  -18.9029   -6.4155 C   0  0  0  0  0  0  0  0  0  0  0  0
   27.7918  -19.6019   -6.3327 C   0  0  0  0  0  0  0  0  0  0  0  0
   25.9315  -20.1342  -10.8769 C   0  0  0  0  0  0  0  0  0  0  0  0
   25.8823  -18.9053  -11.1686 O   0  0  0  0  0  0  0  0  0  0  0  0
   26.0950  -21.0843  -11.8894 N   0  0  0  0  0  0  0  0  0  0  0  0
   26.1055  -20.8512  -13.2904 C   0  0  1  0  0  0  0  0  0  0  0  0
   27.3570  -21.2645  -14.0320 C   0  0  0  0  0  0  0  0  0  0  0  0
   27.2854  -20.7904  -15.4364 C   0  0  0  0  0  0  0  0  0  0  0  0
   28.5436  -21.2101  -16.1920 C   0  0  0  0  0  0  0  0  0  0  0  0
   28.5402  -20.6710  -17.5993 C   0  0  0  0  0  0  0  0  0  0  0  0
   29.7310  -21.1968  -18.2476 N   0  0  0  0  0  0  0  0  0  0  0  0
   24.8469  -21.1814  -13.9269 C   0  0  0  0  0  0  0  0  0  0  0  0
   24.4499  -22.3859  -13.8777 O   0  0  0  0  0  0  0  0  0  0  0  0
   24.0069  -20.2777  -14.6068 N   0  0  0  0  0  0  0  0  0  0  0  0
   22.6179  -20.5796  -14.9928 C   0  0  1  0  0  0  0  0  0  0  0  0
   21.6746  -20.0818  -13.9487 C   0  0  0  0  0  0  0  0  0  0  0  0
   20.2771  -20.2988  -14.3292 C   0  0  0  0  0  0  0  0  0  0  0  0
   19.4431  -19.3901  -14.4342 O   0  0  0  0  0  0  0  0  0  0  0  0
   22.3887  -19.8342  -16.2539 C   0  0  0  0  0  0  0  0  0  0  0  0
   21.5970  -20.3920  -17.2534 O   0  0  0  0  0  0  0  0  0  0  0  0
   19.7798  -21.5948  -14.6087 O   0  0  0  0  0  0  0  0  0  0  0  0
   22.8712  -18.7241  -16.4697 O   0  0  0  0  0  0  0  0  0  0  0  0
  2  1  1  6
  2 13  1  0
  2  3  1  0
  4  5  2  0
  4  3  1  0
  6  5  1  0
  7 12  2  0
  7  6  1  0
  8  7  1  0
  9 10  1  0
  9  8  2  0
 10 11  2  0
 11 12  1  0
 12  4  1  0
 13 14  2  0
 15 16  1  0
 15 13  1  0
 16 22  1  0
 16 17  1  6
 18 17  1  0
 19 18  1  0
 20 19  1  0
 21 20  1  0
 22 23  2  0
 22 24  1  0
 24 25  1  0
 25 29  1  0
 25 26  1  1
 27 26  1  0
 28 27  2  0
 29 32  2  0
 29 30  1  0
 31 27  1  0
M  END
$$$$
