WKD.pdb
     RDKit          3D

 32 33  0  0  1  0  0  0  0  0999 V2000
   25.5387  -19.4676  -18.2683 N   0  0  0  0  0  0  0  0  0  0  0  0
   26.3403  -20.0958  -17.2559 C   0  0  1  0  0  0  0  0  0  0  0  0
   26.0162  -19.6753  -15.8636 C   0  0  0  0  0  0  0  0  0  0  0  0
   26.1497  -18.2524  -15.5656 C   0  0  0  0  0  0  0  0  0  0  0  0
   25.2210  -17.4859  -14.8510 C   0  0  0  0  0  0  0  0  0  0  0  0
   25.7035  -16.2396  -14.7636 N   0  0  0  0  0  0  0  0  0  0  0  0
   26.8942  -16.1854  -15.3910 C   0  0  0  0  0  0  0  0  0  0  0  0
   27.7623  -15.1302  -15.5702 C   0  0  0  0  0  0  0  0  0  0  0  0
   28.9287  -15.3229  -16.2593 C   0  0  0  0  0  0  0  0  0  0  0  0
   29.2628  -16.5463  -16.7823 C   0  0  0  0  0  0  0  0  0  0  0  0
   28.3992  -17.6041  -16.6062 C   0  0  0  0  0  0  0  0  0  0  0  0
   27.2097  -17.4430  -15.9124 C   0  0  0  0  0  0  0  0  0  0  0  0
   26.1396  -21.5792  -17.3326 C   0  0  0  0  0  0  0  0  0  0  0  0
   25.0672  -22.0561  -17.8019 O   0  0  0  0  0  0  0  0  0  0  0  0
   27.1450  -22.4390  -16.8805 N   0  0  0  0  0  0  0  0  0  0  0  0
   27.0861  -23.8553  -16.7915 C   0  0  1  0  0  0  0  0  0  0  0  0
   28.3980  -24.5700  -16.5564 C   0  0  0  0  0  0  0  0  0  0  0  0
   29.3714  -24.1869  -17.6089 C   0  0  0  0  0  0  0  0  0  0  0  0
   30.7333  -24.8078  -17.3088 C   0  0  0  0  0  0  0  0  0  0  0  0
   31.7495  -24.4252  -18.3538 C   0  0  0  0  0  0  0  0  0  0  0  0
   32.9938  -25.0790  -17.9811 N   0  0  0  0  0  0  0  0  0  0  0  0
   25.9546  -24.3255  -16.0189 C   0  0  0  0  0  0  0  0  0  0  0  0
   25.8630  -23.9570  -14.8078 O   0  0  0  0  0  0  0  0  0  0  0  0
   24.9285  -25.1670  -16.4915 N   0  0  0  0  0  0  0  0  0  0  0  0
   23.7661  -25.5766  -15.6851 C   0  0  1  0  0  0  0  0  0  0  0  0
   22.9974  -24.3755  -15.2444 C   0  0  0  0  0  0  0  0  0  0  0  0
   21.8468  -24.7395  -14.4146 C   0  0  0  0  0  0  0  0  0  0  0  0
   21.5246  -25.9069  -14.1582 O   0  0  0  0  0  0  0  0  0  0  0  0
   22.9229  -26.3898  -16.5942 C   0  0  0  0  0  0  0  0  0  0  0  0
   23.3219  -26.5921  -17.9121 O   0  0  0  0  0  0  0  0  0  0  0  0
   21.0097  -23.7535  -13.8383 O   0  0  0  0  0  0  0  0  0  0  0  0
   21.8658  -26.9073  -16.2387 O   0  0  0  0  0  0  0  0  0  0  0  0
  2  1  1  6
  2 13  1  0
  2  3  1  0
  4  5  2  0
  4  3  1  0
  6  5  1  0
  7 12  2  0
  7  6  1  0
  8  7  1  0
  9 10  1  0
  9  8  2  0
 10 11  2  0
 11 12  1  0
 12  4  1  0
 13 14  2  0
 15 16  1  0
 15 13  1  0
 16 22  1  0
 16 17  1  1
 18 17  1  0
 19 18  1  0
 20 19  1  0
 21 20  1  0
 22 23  2  0
 22 24  1  0
 24 25  1  0
 25 29  1  0
 25 26  1  6
 27 26  1  0
 28 27  2  0
 29 32  2  0
 29 30  1  0
 31 27  1  0
M  END
$$$$
