WKD.pdb
     RDKit          3D

 32 33  0  0  1  0  0  0  0  0999 V2000
   25.0545  -19.2271  -17.7461 N   0  0  0  0  0  0  0  0  0  0  0  0
   23.9474  -18.8131  -16.9305 C   0  0  1  0  0  0  0  0  0  0  0  0
   22.7570  -18.3481  -17.6967 C   0  0  0  0  0  0  0  0  0  0  0  0
   22.9407  -17.1629  -18.5290 C   0  0  0  0  0  0  0  0  0  0  0  0
   23.6923  -17.1131  -19.7094 C   0  0  0  0  0  0  0  0  0  0  0  0
   23.6034  -15.8685  -20.1960 N   0  0  0  0  0  0  0  0  0  0  0  0
   22.8300  -15.1313  -19.3759 C   0  0  0  0  0  0  0  0  0  0  0  0
   22.4545  -13.8075  -19.4529 C   0  0  0  0  0  0  0  0  0  0  0  0
   21.6541  -13.2734  -18.4799 C   0  0  0  0  0  0  0  0  0  0  0  0
   21.2106  -14.0229  -17.4201 C   0  0  0  0  0  0  0  0  0  0  0  0
   21.5827  -15.3461  -17.3381 C   0  0  0  0  0  0  0  0  0  0  0  0
   22.3920  -15.9184  -18.3075 C   0  0  0  0  0  0  0  0  0  0  0  0
   23.5103  -19.9714  -16.0857 C   0  0  0  0  0  0  0  0  0  0  0  0
   23.3211  -21.1074  -16.6064 O   0  0  0  0  0  0  0  0  0  0  0  0
   23.3099  -19.7919  -14.7137 N   0  0  0  0  0  0  0  0  0  0  0  0
   22.8319  -20.7535  -13.7840 C   0  0  1  0  0  0  0  0  0  0  0  0
   23.7786  -21.1413  -12.6703 C   0  0  0  0  0  0  0  0  0  0  0  0
   25.1532  -20.6929  -13.0040 C   0  0  0  0  0  0  0  0  0  0  0  0
   26.1324  -21.1807  -11.9393 C   0  0  0  0  0  0  0  0  0  0  0  0
   27.5306  -20.6930  -12.2195 C   0  0  0  0  0  0  0  0  0  0  0  0
   28.3763  -21.2314  -11.1661 N   0  0  0  0  0  0  0  0  0  0  0  0
   21.4523  -20.5321  -13.4022 C   0  0  0  0  0  0  0  0  0  0  0  0
   21.1085  -19.3605  -13.0554 O   0  0  0  0  0  0  0  0  0  0  0  0
   20.4382  -21.5096  -13.3787 N   0  0  0  0  0  0  0  0  0  0  0  0
   19.0516  -21.2440  -12.9589 C   0  0  1  0  0  0  0  0  0  0  0  0
   18.1607  -21.1570  -14.1532 C   0  0  0  0  0  0  0  0  0  0  0  0
   16.7640  -20.9301  -13.7755 C   0  0  0  0  0  0  0  0  0  0  0  0
   16.3872  -20.7440  -12.6111 O   0  0  0  0  0  0  0  0  0  0  0  0
   18.6572  -22.4150  -12.1392 C   0  0  0  0  0  0  0  0  0  0  0  0
   17.5972  -22.3074  -11.2438 O   0  0  0  0  0  0  0  0  0  0  0  0
   15.7307  -20.9081  -14.7434 O   0  0  0  0  0  0  0  0  0  0  0  0
   19.2288  -23.5012  -12.2093 O   0  0  0  0  0  0  0  0  0  0  0  0
  2  1  1  6
  2 13  1  0
  2  3  1  0
  4  5  2  0
  4  3  1  0
  6  5  1  0
  7 12  2  0
  7  6  1  0
  8  7  1  0
  9 10  1  0
  9  8  2  0
 10 11  2  0
 11 12  1  0
 12  4  1  0
 13 14  2  0
 15 16  1  0
 15 13  1  0
 16 22  1  0
 16 17  1  1
 18 17  1  0
 19 18  1  0
 20 19  1  0
 21 20  1  0
 22 23  2  0
 22 24  1  0
 24 25  1  0
 25 29  1  0
 25 26  1  6
 27 26  1  0
 28 27  2  0
 29 32  2  0
 29 30  1  0
 31 27  1  0
M  END
$$$$
