WKD.pdb
     RDKit          3D

 32 33  0  0  1  0  0  0  0  0999 V2000
   24.7317  -19.1808   -9.2189 N   0  0  0  0  0  0  0  0  0  0  0  0
   25.9385  -19.8411   -9.6312 C   0  0  1  0  0  0  0  0  0  0  0  0
   26.4682  -20.8280   -8.6485 C   0  0  0  0  0  0  0  0  0  0  0  0
   26.9319  -20.2914   -7.3725 C   0  0  0  0  0  0  0  0  0  0  0  0
   26.1608  -19.5249   -6.4901 C   0  0  0  0  0  0  0  0  0  0  0  0
   26.9219  -19.2421   -5.4251 N   0  0  0  0  0  0  0  0  0  0  0  0
   28.1381  -19.7952   -5.5960 C   0  0  0  0  0  0  0  0  0  0  0  0
   29.2507  -19.7756   -4.7829 C   0  0  0  0  0  0  0  0  0  0  0  0
   30.3919  -20.4167   -5.1818 C   0  0  0  0  0  0  0  0  0  0  0  0
   30.4625  -21.0841   -6.3782 C   0  0  0  0  0  0  0  0  0  0  0  0
   29.3539  -21.1070   -7.1945 C   0  0  0  0  0  0  0  0  0  0  0  0
   28.1818  -20.4684   -6.8199 C   0  0  0  0  0  0  0  0  0  0  0  0
   25.6724  -20.5805  -10.9076 C   0  0  0  0  0  0  0  0  0  0  0  0
   24.5240  -21.0512  -11.1466 O   0  0  0  0  0  0  0  0  0  0  0  0
   26.7023  -20.7507  -11.8376 N   0  0  0  0  0  0  0  0  0  0  0  0
   26.5686  -21.0427  -13.2212 C   0  0  1  0  0  0  0  0  0  0  0  0
   27.8331  -20.9774  -14.0480 C   0  0  0  0  0  0  0  0  0  0  0  0
   27.5190  -21.2800  -15.4664 C   0  0  0  0  0  0  0  0  0  0  0  0
   28.7556  -21.8393  -16.1652 C   0  0  0  0  0  0  0  0  0  0  0  0
   28.5028  -22.0498  -17.6359 C   0  0  0  0  0  0  0  0  0  0  0  0
   29.7638  -22.4846  -18.2152 N   0  0  0  0  0  0  0  0  0  0  0  0
   25.6942  -22.1685  -13.4784 C   0  0  0  0  0  0  0  0  0  0  0  0
   26.0808  -23.3213  -13.1142 O   0  0  0  0  0  0  0  0  0  0  0  0
   24.4339  -22.1050  -14.1045 N   0  0  0  0  0  0  0  0  0  0  0  0
   23.5653  -23.2745  -14.3216 C   0  0  1  0  0  0  0  0  0  0  0  0
   22.3865  -23.2159  -13.4080 C   0  0  0  0  0  0  0  0  0  0  0  0
   21.5877  -22.0078  -13.6263 C   0  0  0  0  0  0  0  0  0  0  0  0
   21.8708  -21.1364  -14.4587 O   0  0  0  0  0  0  0  0  0  0  0  0
   23.1012  -23.1652  -15.7257 C   0  0  0  0  0  0  0  0  0  0  0  0
   22.4371  -24.2341  -16.3202 O   0  0  0  0  0  0  0  0  0  0  0  0
   20.4111  -21.7548  -12.8803 O   0  0  0  0  0  0  0  0  0  0  0  0
   23.2752  -22.1582  -16.4092 O   0  0  0  0  0  0  0  0  0  0  0  0
  2  1  1  1
  2 13  1  0
  2  3  1  0
  4  5  2  0
  4  3  1  0
  6  5  1  0
  7 12  2  0
  7  6  1  0
  8  7  1  0
  9 10  1  0
  9  8  2  0
 10 11  2  0
 11 12  1  0
 12  4  1  0
 13 14  2  0
 15 16  1  0
 15 13  1  0
 16 22  1  0
 16 17  1  1
 18 17  1  0
 19 18  1  0
 20 19  1  0
 21 20  1  0
 22 23  2  0
 22 24  1  0
 24 25  1  0
 25 29  1  0
 25 26  1  1
 27 26  1  0
 28 27  2  0
 29 32  2  0
 29 30  1  0
 31 27  1  0
M  END
$$$$
