NLD.pdb
     RDKit          3D

 25 24  0  0  1  0  0  0  0  0999 V2000
   14.9807  -21.9771   -0.9508 N   0  0  0  0  0  0  0  0  0  0  0  0
   14.7824  -21.9668    0.4763 C   0  0  0  0  0  0  0  0  0  0  0  0
   13.7896  -22.5325    0.9722 O   0  0  0  0  0  0  0  0  0  0  0  0
   15.7477  -21.2916    1.3391 C   0  0  0  0  0  0  0  0  0  0  0  0
   15.1108  -20.4312    2.3638 C   0  0  2  0  0  0  0  0  0  0  0  0
   14.0763  -19.5590    1.9190 N   0  0  0  0  0  0  0  0  0  0  0  0
   16.0787  -19.6719    3.2262 C   0  0  0  0  0  0  0  0  0  0  0  0
   17.0692  -20.2414    3.7461 O   0  0  0  0  0  0  0  0  0  0  0  0
   17.8002  -14.4140    2.1649 C   0  0  0  0  0  0  0  0  0  0  0  0
   17.7320  -15.8585    2.6315 C   0  0  1  0  0  0  0  0  0  0  0  0
   19.0843  -16.4672    2.6209 C   0  0  0  0  0  0  0  0  0  0  0  0
   16.9178  -16.0214    3.8567 C   0  0  0  0  0  0  0  0  0  0  0  0
   16.7093  -17.4521    4.3135 C   0  0  2  0  0  0  0  0  0  0  0  0
   15.9115  -18.2748    3.4928 N   0  0  0  0  0  0  0  0  0  0  0  0
   16.4737  -17.5097    5.7638 C   0  0  0  0  0  0  0  0  0  0  0  0
   15.2904  -17.3635    6.1642 O   0  0  0  0  0  0  0  0  0  0  0  0
   17.4719  -17.7158    6.7313 N   0  0  0  0  0  0  0  0  0  0  0  0
   17.1273  -17.7553    8.1637 C   0  0  1  0  0  0  0  0  0  0  0  0
   17.9757  -18.8216    8.7707 C   0  0  0  0  0  0  0  0  0  0  0  0
   17.6341  -19.1630   10.1554 C   0  0  0  0  0  0  0  0  0  0  0  0
   16.6435  -18.5907   10.6774 O   0  0  0  0  0  0  0  0  0  0  0  0
   17.3804  -16.4097    8.7298 C   0  0  0  0  0  0  0  0  0  0  0  0
   16.7465  -15.8745    9.8329 O   0  0  0  0  0  0  0  0  0  0  0  0
   18.3248  -20.0669   10.9254 O   0  0  0  0  0  0  0  0  0  0  0  0
   18.2434  -15.6606    8.1814 O   0  0  0  0  0  0  0  0  0  0  0  0
  1  2  1  0
  2  3  2  0
  4  2  1  0
  5  4  1  0
  5  6  1  6
  7  8  2  0
  7  5  1  0
 10  9  1  1
 10 11  1  0
 10 12  1  0
 13 12  1  6
 13 14  1  0
 14  7  1  0
 15 17  1  0
 15 13  1  0
 16 15  2  0
 18 17  1  0
 18 22  1  0
 18 19  1  1
 20 19  1  0
 21 20  2  0
 22 23  1  0
 24 20  1  0
 25 22  2  0
M  END
$$$$
