NLD.pdb
     RDKit          3D

 25 24  0  0  1  0  0  0  0  0999 V2000
   18.8146  -14.2413  -17.8730 N   0  0  0  0  0  0  0  0  0  0  0  0
   19.3019  -14.6464  -16.5790 C   0  0  0  0  0  0  0  0  0  0  0  0
   18.9513  -15.7390  -16.0945 O   0  0  0  0  0  0  0  0  0  0  0  0
   20.2070  -13.7729  -15.8374 C   0  0  0  0  0  0  0  0  0  0  0  0
   20.4912  -12.4988  -16.5385 C   0  0  2  0  0  0  0  0  0  0  0  0
   21.2289  -12.5837  -17.7540 N   0  0  0  0  0  0  0  0  0  0  0  0
   21.0757  -11.4256  -15.6644 C   0  0  0  0  0  0  0  0  0  0  0  0
   20.5015  -11.0652  -14.6079 O   0  0  0  0  0  0  0  0  0  0  0  0
   26.6563  -10.5740  -15.8255 C   0  0  0  0  0  0  0  0  0  0  0  0
   25.2128  -10.7645  -15.3905 C   0  0  1  0  0  0  0  0  0  0  0  0
   25.1563  -11.4848  -14.0955 C   0  0  0  0  0  0  0  0  0  0  0  0
   24.4127   -9.5262  -15.5203 C   0  0  0  0  0  0  0  0  0  0  0  0
   22.9183   -9.6942  -15.3266 C   0  0  2  0  0  0  0  0  0  0  0  0
   22.3039  -10.7699  -15.9992 N   0  0  0  0  0  0  0  0  0  0  0  0
   22.2355   -8.3924  -15.3653 C   0  0  0  0  0  0  0  0  0  0  0  0
   22.6843   -7.4811  -14.6237 O   0  0  0  0  0  0  0  0  0  0  0  0
   21.1217   -8.0943  -16.1687 N   0  0  0  0  0  0  0  0  0  0  0  0
   20.4154   -6.8093  -16.0195 C   0  0  1  0  0  0  0  0  0  0  0  0
   20.6346   -6.0595  -17.2904 C   0  0  0  0  0  0  0  0  0  0  0  0
   19.8835   -4.8047  -17.3994 C   0  0  0  0  0  0  0  0  0  0  0  0
   19.6937   -4.3279  -18.5474 O   0  0  0  0  0  0  0  0  0  0  0  0
   18.9887   -7.1030  -15.7492 C   0  0  0  0  0  0  0  0  0  0  0  0
   18.1225   -6.2852  -15.0521 O   0  0  0  0  0  0  0  0  0  0  0  0
   19.3722   -4.1105  -16.3300 O   0  0  0  0  0  0  0  0  0  0  0  0
   18.4883   -8.1858  -16.1781 O   0  0  0  0  0  0  0  0  0  0  0  0
  1  2  1  0
  2  3  2  0
  4  2  1  0
  5  4  1  0
  5  6  1  6
  7  8  2  0
  7  5  1  0
 10  9  1  1
 10 11  1  0
 10 12  1  0
 13 12  1  6
 13 14  1  0
 14  7  1  0
 15 17  1  0
 15 13  1  0
 16 15  2  0
 18 17  1  0
 18 22  1  0
 18 19  1  6
 20 19  1  0
 21 20  2  0
 22 23  1  0
 24 20  1  0
 25 22  2  0
M  END
$$$$
