NLD.pdb
     RDKit          3D

 25 24  0  0  1  0  0  0  0  0999 V2000
   19.4061  -13.9685  -18.1640 N   0  0  0  0  0  0  0  0  0  0  0  0
   19.9229  -14.2343  -16.8456 C   0  0  0  0  0  0  0  0  0  0  0  0
   19.5446  -15.2420  -16.2188 O   0  0  0  0  0  0  0  0  0  0  0  0
   20.8905  -13.3195  -16.2464 C   0  0  0  0  0  0  0  0  0  0  0  0
   21.2403  -12.1819  -17.1293 C   0  0  2  0  0  0  0  0  0  0  0  0
   22.0091  -12.4811  -18.2904 N   0  0  0  0  0  0  0  0  0  0  0  0
   21.8375  -11.0024  -16.4155 C   0  0  0  0  0  0  0  0  0  0  0  0
   21.2649  -10.4853  -15.4253 O   0  0  0  0  0  0  0  0  0  0  0  0
   27.4669  -10.3131  -16.7383 C   0  0  0  0  0  0  0  0  0  0  0  0
   26.0343  -10.4223  -16.2434 C   0  0  1  0  0  0  0  0  0  0  0  0
   26.0079  -10.9395  -14.8538 C   0  0  0  0  0  0  0  0  0  0  0  0
   25.2382   -9.2098  -16.5377 C   0  0  0  0  0  0  0  0  0  0  0  0
   23.7522   -9.3241  -16.2588 C   0  0  2  0  0  0  0  0  0  0  0  0
   23.0767  -10.4194  -16.8342 N   0  0  0  0  0  0  0  0  0  0  0  0
   23.1013   -8.0080  -16.3403 C   0  0  0  0  0  0  0  0  0  0  0  0
   23.0900   -7.4363  -17.4605 O   0  0  0  0  0  0  0  0  0  0  0  0
   22.4930   -7.3456  -15.2605 N   0  0  0  0  0  0  0  0  0  0  0  0
   21.9128   -6.0025  -15.4390 C   0  0  1  0  0  0  0  0  0  0  0  0
   20.4371   -6.1931  -15.5458 C   0  0  0  0  0  0  0  0  0  0  0  0
   19.6594   -4.9504  -15.5824 C   0  0  0  0  0  0  0  0  0  0  0  0
   20.1893   -3.9375  -16.1066 O   0  0  0  0  0  0  0  0  0  0  0  0
   22.3158   -5.1749  -14.2781 C   0  0  0  0  0  0  0  0  0  0  0  0
   22.1657   -3.8062  -14.1817 O   0  0  0  0  0  0  0  0  0  0  0  0
   18.3879   -4.8150  -15.0804 O   0  0  0  0  0  0  0  0  0  0  0  0
   22.8458   -5.7364  -13.2727 O   0  0  0  0  0  0  0  0  0  0  0  0
  1  2  1  0
  2  3  2  0
  4  2  1  0
  5  4  1  0
  5  6  1  6
  7  8  2  0
  7  5  1  0
 10  9  1  1
 10 11  1  0
 10 12  1  0
 13 12  1  6
 13 14  1  0
 14  7  1  0
 15 17  1  0
 15 13  1  0
 16 15  2  0
 18 17  1  0
 18 22  1  0
 18 19  1  1
 20 19  1  0
 21 20  2  0
 22 23  1  0
 24 20  1  0
 25 22  2  0
M  END
$$$$
