NLD.pdb
     RDKit          3D

 25 24  0  0  1  0  0  0  0  0999 V2000
   15.8954  -11.8554  -17.4540 N   0  0  0  0  0  0  0  0  0  0  0  0
   15.9494  -12.0974  -16.0346 C   0  0  0  0  0  0  0  0  0  0  0  0
   15.0462  -12.7504  -15.4784 O   0  0  0  0  0  0  0  0  0  0  0  0
   17.0649  -11.5752  -15.2505 C   0  0  0  0  0  0  0  0  0  0  0  0
   18.0736  -10.8667  -16.0730 C   0  0  2  0  0  0  0  0  0  0  0  0
   18.8796  -11.6665  -16.9329 N   0  0  0  0  0  0  0  0  0  0  0  0
   18.9436   -9.9132  -15.3041 C   0  0  0  0  0  0  0  0  0  0  0  0
   18.4521   -9.1187  -14.4656 O   0  0  0  0  0  0  0  0  0  0  0  0
   23.0271  -10.5261  -16.8354 C   0  0  0  0  0  0  0  0  0  0  0  0
   23.0054  -10.8642  -15.3541 C   0  0  1  0  0  0  0  0  0  0  0  0
   24.2188  -11.6321  -14.9836 C   0  0  0  0  0  0  0  0  0  0  0  0
   22.6478   -9.7012  -14.5115 C   0  0  0  0  0  0  0  0  0  0  0  0
   21.3005   -9.0724  -14.8090 C   0  0  2  0  0  0  0  0  0  0  0  0
   20.3619   -9.8684  -15.4963 N   0  0  0  0  0  0  0  0  0  0  0  0
   21.4589   -7.6786  -15.2502 C   0  0  0  0  0  0  0  0  0  0  0  0
   21.2847   -7.4348  -16.4717 O   0  0  0  0  0  0  0  0  0  0  0  0
   21.7897   -6.6032  -14.4082 N   0  0  0  0  0  0  0  0  0  0  0  0
   21.7158   -5.2168  -14.9029 C   0  0  1  0  0  0  0  0  0  0  0  0
   20.2928   -4.9821  -15.2839 C   0  0  0  0  0  0  0  0  0  0  0  0
   19.9728   -3.5946  -15.6347 C   0  0  0  0  0  0  0  0  0  0  0  0
   20.7125   -3.0105  -16.4673 O   0  0  0  0  0  0  0  0  0  0  0  0
   22.1897   -4.3220  -13.8213 C   0  0  0  0  0  0  0  0  0  0  0  0
   22.5853   -4.7290  -12.5632 O   0  0  0  0  0  0  0  0  0  0  0  0
   18.9180   -2.8854  -15.1138 O   0  0  0  0  0  0  0  0  0  0  0  0
   22.2494   -3.0737  -14.0333 O   0  0  0  0  0  0  0  0  0  0  0  0
  1  2  1  0
  2  3  2  0
  4  2  1  0
  5  4  1  0
  5  6  1  1
  7  8  2  0
  7  5  1  0
 10  9  1  6
 10 11  1  0
 10 12  1  0
 13 12  1  6
 13 14  1  0
 14  7  1  0
 15 17  1  0
 15 13  1  0
 16 15  2  0
 18 17  1  0
 18 22  1  0
 18 19  1  1
 20 19  1  0
 21 20  2  0
 22 23  1  0
 24 20  1  0
 25 22  2  0
M  END
$$$$
