NLD.pdb
     RDKit          3D

 25 24  0  0  1  0  0  0  0  0999 V2000
   16.2399  -13.8570  -16.5244 N   0  0  0  0  0  0  0  0  0  0  0  0
   16.6577  -12.5500  -16.9642 C   0  0  0  0  0  0  0  0  0  0  0  0
   16.3881  -12.1642  -18.1174 O   0  0  0  0  0  0  0  0  0  0  0  0
   17.3977  -11.6797  -16.0549 C   0  0  0  0  0  0  0  0  0  0  0  0
   18.0247  -10.5232  -16.7371 C   0  0  2  0  0  0  0  0  0  0  0  0
   18.8846  -10.8125  -17.8351 N   0  0  0  0  0  0  0  0  0  0  0  0
   18.6931   -9.5447  -15.8135 C   0  0  0  0  0  0  0  0  0  0  0  0
   18.0988   -9.0966  -14.8027 O   0  0  0  0  0  0  0  0  0  0  0  0
   24.1001  -10.0498  -14.7896 C   0  0  0  0  0  0  0  0  0  0  0  0
   22.6160   -9.7579  -14.6441 C   0  0  1  0  0  0  0  0  0  0  0  0
   22.1458  -10.1436  -13.2915 C   0  0  0  0  0  0  0  0  0  0  0  0
   22.2514   -8.4109  -15.1370 C   0  0  0  0  0  0  0  0  0  0  0  0
   20.7646   -8.1529  -15.2851 C   0  0  2  0  0  0  0  0  0  0  0  0
   20.0280   -9.0819  -16.0475 N   0  0  0  0  0  0  0  0  0  0  0  0
   20.5015   -6.7251  -15.5182 C   0  0  0  0  0  0  0  0  0  0  0  0
   21.0245   -5.9027  -14.7233 O   0  0  0  0  0  0  0  0  0  0  0  0
   19.7104   -6.2151  -16.5619 N   0  0  0  0  0  0  0  0  0  0  0  0
   19.5227   -4.7612  -16.7151 C   0  0  1  0  0  0  0  0  0  0  0  0
   19.5437   -4.4872  -18.1813 C   0  0  0  0  0  0  0  0  0  0  0  0
   20.8695   -4.5724  -18.8021 C   0  0  0  0  0  0  0  0  0  0  0  0
   20.9895   -5.2634  -19.8459 O   0  0  0  0  0  0  0  0  0  0  0  0
   18.2407   -4.3973  -16.0677 C   0  0  0  0  0  0  0  0  0  0  0  0
   18.0250   -3.2717  -15.2986 O   0  0  0  0  0  0  0  0  0  0  0  0
   21.9944   -3.9486  -18.3197 O   0  0  0  0  0  0  0  0  0  0  0  0
   17.2380   -5.1596  -16.2099 O   0  0  0  0  0  0  0  0  0  0  0  0
  1  2  1  0
  2  3  2  0
  4  2  1  0
  5  4  1  0
  5  6  1  6
  7  8  2  0
  7  5  1  0
 10  9  1  1
 10 11  1  0
 10 12  1  0
 13 12  1  6
 13 14  1  0
 14  7  1  0
 15 17  1  0
 15 13  1  0
 16 15  2  0
 18 17  1  0
 18 22  1  0
 18 19  1  6
 20 19  1  0
 21 20  2  0
 22 23  1  0
 24 20  1  0
 25 22  2  0
M  END
$$$$
