NLD.pdb
     RDKit          3D

 25 24  0  0  1  0  0  0  0  0999 V2000
   26.6520  -11.6755  -20.2321 N   0  0  0  0  0  0  0  0  0  0  0  0
   26.1620  -10.4627  -19.6280 C   0  0  0  0  0  0  0  0  0  0  0  0
   24.9417  -10.2131  -19.6310 O   0  0  0  0  0  0  0  0  0  0  0  0
   27.0994   -9.5273  -19.0128 C   0  0  0  0  0  0  0  0  0  0  0  0
   28.4996  -10.0124  -19.0267 C   0  0  2  0  0  0  0  0  0  0  0  0
   28.8126  -11.0996  -18.1612 N   0  0  0  0  0  0  0  0  0  0  0  0
   29.5329   -8.9320  -18.8781 C   0  0  0  0  0  0  0  0  0  0  0  0
   29.4675   -7.8748  -19.5518 O   0  0  0  0  0  0  0  0  0  0  0  0
   33.0084   -6.0482  -16.0630 C   0  0  0  0  0  0  0  0  0  0  0  0
   33.6417   -7.4018  -16.3382 C   0  0  1  0  0  0  0  0  0  0  0  0
   34.6815   -7.6994  -15.3235 C   0  0  0  0  0  0  0  0  0  0  0  0
   32.6372   -8.4523  -16.6170 C   0  0  0  0  0  0  0  0  0  0  0  0
   31.7037   -8.1679  -17.7775 C   0  0  2  0  0  0  0  0  0  0  0  0
   30.6317   -9.0630  -17.9692 N   0  0  0  0  0  0  0  0  0  0  0  0
   32.4598   -7.7518  -18.9681 C   0  0  0  0  0  0  0  0  0  0  0  0
   33.0502   -8.6496  -19.6218 O   0  0  0  0  0  0  0  0  0  0  0  0
   32.5698   -6.4279  -19.4264 N   0  0  0  0  0  0  0  0  0  0  0  0
   33.3191   -6.1237  -20.6586 C   0  0  1  0  0  0  0  0  0  0  0  0
   32.6000   -6.8137  -21.7687 C   0  0  0  0  0  0  0  0  0  0  0  0
   33.0961   -6.4958  -23.1115 C   0  0  0  0  0  0  0  0  0  0  0  0
   34.3404   -6.4790  -23.2927 O   0  0  0  0  0  0  0  0  0  0  0  0
   33.3625   -4.6508  -20.8127 C   0  0  0  0  0  0  0  0  0  0  0  0
   32.8145   -3.7387  -19.9335 O   0  0  0  0  0  0  0  0  0  0  0  0
   32.2928   -6.2124  -24.1892 O   0  0  0  0  0  0  0  0  0  0  0  0
   33.9422   -4.1517  -21.8234 O   0  0  0  0  0  0  0  0  0  0  0  0
  1  2  1  0
  2  3  2  0
  4  2  1  0
  5  4  1  0
  5  6  1  1
  7  8  2  0
  7  5  1  0
 10  9  1  1
 10 11  1  0
 10 12  1  0
 13 12  1  1
 13 14  1  0
 14  7  1  0
 15 17  1  0
 15 13  1  0
 16 15  2  0
 18 17  1  0
 18 22  1  0
 18 19  1  6
 20 19  1  0
 21 20  2  0
 22 23  1  0
 24 20  1  0
 25 22  2  0
M  END
$$$$
