NLD.pdb
     RDKit          3D

 25 24  0  0  1  0  0  0  0  0999 V2000
   16.6792  -13.9721  -17.6027 N   0  0  0  0  0  0  0  0  0  0  0  0
   16.9622  -14.3180  -16.2329 C   0  0  0  0  0  0  0  0  0  0  0  0
   16.2168  -15.1071  -15.6220 O   0  0  0  0  0  0  0  0  0  0  0  0
   18.1245  -13.7413  -15.5631 C   0  0  0  0  0  0  0  0  0  0  0  0
   18.9183  -12.8485  -16.4400 C   0  0  2  0  0  0  0  0  0  0  0  0
   19.5919  -13.4572  -17.5375 N   0  0  0  0  0  0  0  0  0  0  0  0
   19.8620  -11.9372  -15.7077 C   0  0  0  0  0  0  0  0  0  0  0  0
   19.4981  -11.3181  -14.6782 O   0  0  0  0  0  0  0  0  0  0  0  0
   25.3572  -13.0473  -15.7625 C   0  0  0  0  0  0  0  0  0  0  0  0
   23.9685  -12.6164  -15.3210 C   0  0  1  0  0  0  0  0  0  0  0  0
   23.7633  -12.9320  -13.8866 C   0  0  0  0  0  0  0  0  0  0  0  0
   23.6263  -11.2506  -15.7770 C   0  0  0  0  0  0  0  0  0  0  0  0
   22.1710  -10.8566  -15.6156 C   0  0  2  0  0  0  0  0  0  0  0  0
   21.2082  -11.7351  -16.1525 N   0  0  0  0  0  0  0  0  0  0  0  0
   21.9874   -9.4185  -15.8610 C   0  0  0  0  0  0  0  0  0  0  0  0
   22.1436   -9.0077  -17.0394 O   0  0  0  0  0  0  0  0  0  0  0  0
   21.6509   -8.4732  -14.8769 N   0  0  0  0  0  0  0  0  0  0  0  0
   21.4784   -7.0534  -15.2328 C   0  0  1  0  0  0  0  0  0  0  0  0
   20.0864   -6.9164  -15.7511 C   0  0  0  0  0  0  0  0  0  0  0  0
   19.6633   -5.5372  -16.0147 C   0  0  0  0  0  0  0  0  0  0  0  0
   20.5456   -4.6994  -16.3325 O   0  0  0  0  0  0  0  0  0  0  0  0
   21.7352   -6.2454  -14.0177 C   0  0  0  0  0  0  0  0  0  0  0  0
   21.8037   -4.8676  -13.9739 O   0  0  0  0  0  0  0  0  0  0  0  0
   18.3651   -5.0949  -15.9368 O   0  0  0  0  0  0  0  0  0  0  0  0
   21.9116   -6.8346  -12.9093 O   0  0  0  0  0  0  0  0  0  0  0  0
  1  2  1  0
  2  3  2  0
  4  2  1  0
  5  4  1  0
  5  6  1  6
  7  8  2  0
  7  5  1  0
 10  9  1  1
 10 11  1  0
 10 12  1  0
 13 12  1  6
 13 14  1  0
 14  7  1  0
 15 17  1  0
 15 13  1  0
 16 15  2  0
 18 17  1  0
 18 22  1  0
 18 19  1  1
 20 19  1  0
 21 20  2  0
 22 23  1  0
 24 20  1  0
 25 22  2  0
M  END
$$$$
