NLD.pdb
     RDKit          3D

 25 24  0  0  1  0  0  0  0  0999 V2000
   19.9170  -16.7223  -19.7896 N   0  0  0  0  0  0  0  0  0  0  0  0
   19.6607  -15.3226  -20.0160 C   0  0  0  0  0  0  0  0  0  0  0  0
   19.0785  -14.9550  -21.0539 O   0  0  0  0  0  0  0  0  0  0  0  0
   20.0853  -14.3369  -19.0260 C   0  0  0  0  0  0  0  0  0  0  0  0
   20.7255  -14.9452  -17.8360 C   0  0  2  0  0  0  0  0  0  0  0  0
   19.9550  -15.8947  -17.1055 N   0  0  0  0  0  0  0  0  0  0  0  0
   21.3423  -13.9558  -16.8884 C   0  0  0  0  0  0  0  0  0  0  0  0
   20.6413  -13.3326  -16.0542 O   0  0  0  0  0  0  0  0  0  0  0  0
   26.8469  -14.4646  -15.5999 C   0  0  0  0  0  0  0  0  0  0  0  0
   25.3397  -14.2735  -15.5681 C   0  0  1  0  0  0  0  0  0  0  0  0
   24.7794  -14.8099  -14.3042 C   0  0  0  0  0  0  0  0  0  0  0  0
   24.9319  -12.9096  -15.9730 C   0  0  0  0  0  0  0  0  0  0  0  0
   23.4408  -12.7040  -16.1559 C   0  0  2  0  0  0  0  0  0  0  0  0
   22.7477  -13.6810  -16.8989 N   0  0  0  0  0  0  0  0  0  0  0  0
   23.1378  -11.2939  -16.4424 C   0  0  0  0  0  0  0  0  0  0  0  0
   23.2380  -10.9113  -17.6363 O   0  0  0  0  0  0  0  0  0  0  0  0
   22.7455  -10.3464  -15.4815 N   0  0  0  0  0  0  0  0  0  0  0  0
   22.2703   -9.0143  -15.8963 C   0  0  1  0  0  0  0  0  0  0  0  0
   20.9792   -9.2326  -16.6110 C   0  0  0  0  0  0  0  0  0  0  0  0
   20.3072   -8.0058  -17.0514 C   0  0  0  0  0  0  0  0  0  0  0  0
   19.4319   -7.5089  -16.2976 O   0  0  0  0  0  0  0  0  0  0  0  0
   22.1345   -8.1804  -14.6793 C   0  0  0  0  0  0  0  0  0  0  0  0
   22.2987   -6.8109  -14.6264 O   0  0  0  0  0  0  0  0  0  0  0  0
   20.5674   -7.3602  -18.2357 O   0  0  0  0  0  0  0  0  0  0  0  0
   21.8449   -8.7367  -13.5778 O   0  0  0  0  0  0  0  0  0  0  0  0
  1  2  1  0
  2  3  2  0
  4  2  1  0
  5  4  1  0
  5  6  1  1
  7  8  2  0
  7  5  1  0
 10  9  1  1
 10 11  1  0
 10 12  1  0
 13 12  1  6
 13 14  1  0
 14  7  1  0
 15 17  1  0
 15 13  1  0
 16 15  2  0
 18 17  1  0
 18 22  1  0
 18 19  1  1
 20 19  1  0
 21 20  2  0
 22 23  1  0
 24 20  1  0
 25 22  2  0
M  END
$$$$
