NLD.pdb
     RDKit          3D

 25 24  0  0  1  0  0  0  0  0999 V2000
   20.7319  -13.6869  -18.7494 N   0  0  0  0  0  0  0  0  0  0  0  0
   22.1300  -13.7186  -18.4023 C   0  0  0  0  0  0  0  0  0  0  0  0
   22.6786  -14.8010  -18.1213 O   0  0  0  0  0  0  0  0  0  0  0  0
   22.9014  -12.4790  -18.3805 C   0  0  0  0  0  0  0  0  0  0  0  0
   22.1028  -11.2894  -18.7586 C   0  0  2  0  0  0  0  0  0  0  0  0
   21.6282  -11.2328  -20.1004 N   0  0  0  0  0  0  0  0  0  0  0  0
   22.7304   -9.9760  -18.3867 C   0  0  0  0  0  0  0  0  0  0  0  0
   23.1819   -9.7765  -17.2326 O   0  0  0  0  0  0  0  0  0  0  0  0
   25.1734   -6.7708  -22.4500 C   0  0  0  0  0  0  0  0  0  0  0  0
   24.8424   -7.5463  -21.1858 C   0  0  1  0  0  0  0  0  0  0  0  0
   26.0867   -8.0150  -20.5289 C   0  0  0  0  0  0  0  0  0  0  0  0
   23.8415   -6.8559  -20.3421 C   0  0  0  0  0  0  0  0  0  0  0  0
   23.3870   -7.6208  -19.1143 C   0  0  2  0  0  0  0  0  0  0  0  0
   22.8366   -8.9010  -19.3269 N   0  0  0  0  0  0  0  0  0  0  0  0
   22.6914   -6.7325  -18.1714 C   0  0  0  0  0  0  0  0  0  0  0  0
   21.4926   -6.4467  -18.4225 O   0  0  0  0  0  0  0  0  0  0  0  0
   23.2676   -6.1818  -17.0140 N   0  0  0  0  0  0  0  0  0  0  0  0
   22.4775   -5.3061  -16.1301 C   0  0  1  0  0  0  0  0  0  0  0  0
   22.5109   -5.9342  -14.7775 C   0  0  0  0  0  0  0  0  0  0  0  0
   21.9271   -5.1181  -13.7080 C   0  0  0  0  0  0  0  0  0  0  0  0
   20.7937   -4.6101  -13.9047 O   0  0  0  0  0  0  0  0  0  0  0  0
   23.0856   -3.9556  -16.1660 C   0  0  0  0  0  0  0  0  0  0  0  0
   22.4755   -2.7928  -15.7407 O   0  0  0  0  0  0  0  0  0  0  0  0
   22.5356   -4.8679  -12.5021 O   0  0  0  0  0  0  0  0  0  0  0  0
   24.2617   -3.8189  -16.6187 O   0  0  0  0  0  0  0  0  0  0  0  0
  1  2  1  0
  2  3  2  0
  4  2  1  0
  5  4  1  0
  5  6  1  6
  7  8  2  0
  7  5  1  0
 10  9  1  6
 10 11  1  0
 10 12  1  0
 13 12  1  6
 13 14  1  0
 14  7  1  0
 15 17  1  0
 15 13  1  0
 16 15  2  0
 18 17  1  0
 18 22  1  0
 18 19  1  1
 20 19  1  0
 21 20  2  0
 22 23  1  0
 24 20  1  0
 25 22  2  0
M  END
$$$$
