NLD.pdb
     RDKit          3D

 25 24  0  0  1  0  0  0  0  0999 V2000
   20.5037  -16.3252  -18.3516 N   0  0  0  0  0  0  0  0  0  0  0  0
   21.5927  -15.4467  -18.6955 C   0  0  0  0  0  0  0  0  0  0  0  0
   22.1253  -15.5236  -19.8189 O   0  0  0  0  0  0  0  0  0  0  0  0
   22.0703  -14.4669  -17.7240 C   0  0  0  0  0  0  0  0  0  0  0  0
   22.6692  -13.2666  -18.3538 C   0  0  2  0  0  0  0  0  0  0  0  0
   23.8164  -13.4738  -19.1722 N   0  0  0  0  0  0  0  0  0  0  0  0
   22.9209  -12.1280  -17.4063 C   0  0  0  0  0  0  0  0  0  0  0  0
   22.1201  -11.8702  -16.4747 O   0  0  0  0  0  0  0  0  0  0  0  0
   28.2633  -10.2677  -16.6589 C   0  0  0  0  0  0  0  0  0  0  0  0
   26.8341  -10.7119  -16.3961 C   0  0  1  0  0  0  0  0  0  0  0  0
   26.7176  -11.2940  -15.0371 C   0  0  0  0  0  0  0  0  0  0  0  0
   25.8401   -9.6883  -16.7897 C   0  0  0  0  0  0  0  0  0  0  0  0
   24.3943  -10.1448  -16.7713 C   0  0  2  0  0  0  0  0  0  0  0  0
   24.0769  -11.2915  -17.5273 N   0  0  0  0  0  0  0  0  0  0  0  0
   23.4812   -8.9962  -16.8669 C   0  0  0  0  0  0  0  0  0  0  0  0
   23.3514   -8.4521  -17.9933 O   0  0  0  0  0  0  0  0  0  0  0  0
   22.7455   -8.4647  -15.7939 N   0  0  0  0  0  0  0  0  0  0  0  0
   21.7719   -7.3815  -16.0196 C   0  0  1  0  0  0  0  0  0  0  0  0
   20.7549   -7.9216  -16.9680 C   0  0  0  0  0  0  0  0  0  0  0  0
   19.6189   -7.0298  -17.2221 C   0  0  0  0  0  0  0  0  0  0  0  0
   18.5760   -7.1925  -16.5385 O   0  0  0  0  0  0  0  0  0  0  0  0
   21.2048   -6.9985  -14.7055 C   0  0  0  0  0  0  0  0  0  0  0  0
   21.5550   -7.5539  -13.4914 O   0  0  0  0  0  0  0  0  0  0  0  0
   19.6143   -6.0260  -18.1599 O   0  0  0  0  0  0  0  0  0  0  0  0
   20.3226   -6.0897  -14.6540 O   0  0  0  0  0  0  0  0  0  0  0  0
  1  2  1  0
  2  3  2  0
  4  2  1  0
  5  4  1  0
  5  6  1  1
  7  8  2  0
  7  5  1  0
 10  9  1  1
 10 11  1  0
 10 12  1  0
 13 12  1  6
 13 14  1  0
 14  7  1  0
 15 17  1  0
 15 13  1  0
 16 15  2  0
 18 17  1  0
 18 22  1  0
 18 19  1  6
 20 19  1  0
 21 20  2  0
 22 23  1  0
 24 20  1  0
 25 22  2  0
M  END
$$$$
