NLD.pdb
     RDKit          3D

 25 24  0  0  1  0  0  0  0  0999 V2000
   38.5093   -6.1503  -12.7774 N   0  0  0  0  0  0  0  0  0  0  0  0
   37.2610   -6.8080  -12.4859 C   0  0  0  0  0  0  0  0  0  0  0  0
   36.2778   -6.6390  -13.2317 O   0  0  0  0  0  0  0  0  0  0  0  0
   37.1515   -7.6726  -11.3143 C   0  0  0  0  0  0  0  0  0  0  0  0
   38.4304   -7.8247  -10.5814 C   0  0  2  0  0  0  0  0  0  0  0  0
   39.3998   -8.6979  -11.1530 N   0  0  0  0  0  0  0  0  0  0  0  0
   38.2756   -8.1271   -9.1179 C   0  0  0  0  0  0  0  0  0  0  0  0
   37.8844   -7.2481   -8.3116 O   0  0  0  0  0  0  0  0  0  0  0  0
   37.6290  -12.0578   -9.1418 C   0  0  0  0  0  0  0  0  0  0  0  0
   37.2312  -11.8404   -7.6914 C   0  0  1  0  0  0  0  0  0  0  0  0
   36.5729  -13.0543   -7.1507 C   0  0  0  0  0  0  0  0  0  0  0  0
   38.3185  -11.2366   -6.8890 C   0  0  0  0  0  0  0  0  0  0  0  0
   38.6535   -9.7969   -7.2267 C   0  0  2  0  0  0  0  0  0  0  0  0
   38.5691   -9.4228   -8.5832 N   0  0  0  0  0  0  0  0  0  0  0  0
   39.8294   -9.3415   -6.4703 C   0  0  0  0  0  0  0  0  0  0  0  0
   39.8603   -9.5970   -5.2392 O   0  0  0  0  0  0  0  0  0  0  0  0
   40.9174   -8.6438   -7.0221 N   0  0  0  0  0  0  0  0  0  0  0  0
   42.0019   -8.1460   -6.1571 C   0  0  1  0  0  0  0  0  0  0  0  0
   43.2598   -8.2649   -6.9501 C   0  0  0  0  0  0  0  0  0  0  0  0
   43.6877   -9.6416   -7.2184 C   0  0  0  0  0  0  0  0  0  0  0  0
   43.5190  -10.4992   -6.3143 O   0  0  0  0  0  0  0  0  0  0  0  0
   41.6767   -6.7516   -5.7767 C   0  0  0  0  0  0  0  0  0  0  0  0
   41.6883   -6.2505   -4.4907 O   0  0  0  0  0  0  0  0  0  0  0  0
   44.2636  -10.0608   -8.3930 O   0  0  0  0  0  0  0  0  0  0  0  0
   41.3566   -5.9227   -6.6808 O   0  0  0  0  0  0  0  0  0  0  0  0
  1  2  1  0
  2  3  2  0
  4  2  1  0
  5  4  1  0
  5  6  1  6
  7  8  2  0
  7  5  1  0
 10  9  1  6
 10 11  1  0
 10 12  1  0
 13 12  1  6
 13 14  1  0
 14  7  1  0
 15 17  1  0
 15 13  1  0
 16 15  2  0
 18 17  1  0
 18 22  1  0
 18 19  1  6
 20 19  1  0
 21 20  2  0
 22 23  1  0
 24 20  1  0
 25 22  2  0
M  END
$$$$
