NLD.pdb
     RDKit          3D

 25 24  0  0  1  0  0  0  0  0999 V2000
   21.5042  -14.7224  -19.1248 N   0  0  0  0  0  0  0  0  0  0  0  0
   21.4103  -15.0489  -17.7246 C   0  0  0  0  0  0  0  0  0  0  0  0
   20.8116  -16.0797  -17.3632 O   0  0  0  0  0  0  0  0  0  0  0  0
   22.0183  -14.1686  -16.7310 C   0  0  0  0  0  0  0  0  0  0  0  0
   22.5732  -12.9254  -17.3163 C   0  0  2  0  0  0  0  0  0  0  0  0
   23.4770  -13.0751  -18.4068 N   0  0  0  0  0  0  0  0  0  0  0  0
   23.1457  -11.9670  -16.3108 C   0  0  0  0  0  0  0  0  0  0  0  0
   22.5396  -11.7090  -15.2422 O   0  0  0  0  0  0  0  0  0  0  0  0
   28.6335  -10.9597  -16.8584 C   0  0  0  0  0  0  0  0  0  0  0  0
   27.2517  -11.3064  -16.3296 C   0  0  1  0  0  0  0  0  0  0  0  0
   27.3334  -12.4467  -15.3850 C   0  0  0  0  0  0  0  0  0  0  0  0
   26.4936  -10.1115  -15.8961 C   0  0  0  0  0  0  0  0  0  0  0  0
   24.9997  -10.3132  -15.7323 C   0  0  2  0  0  0  0  0  0  0  0  0
   24.3985  -11.3085  -16.5290 N   0  0  0  0  0  0  0  0  0  0  0  0
   24.3056   -9.0214  -15.6238 C   0  0  0  0  0  0  0  0  0  0  0  0
   24.8476   -8.1303  -14.9209 O   0  0  0  0  0  0  0  0  0  0  0  0
   23.0846   -8.7120  -16.2469 N   0  0  0  0  0  0  0  0  0  0  0  0
   22.4189   -7.4229  -15.9871 C   0  0  1  0  0  0  0  0  0  0  0  0
   22.0998   -6.8384  -17.3220 C   0  0  0  0  0  0  0  0  0  0  0  0
   21.3382   -5.5861  -17.2768 C   0  0  0  0  0  0  0  0  0  0  0  0
   21.0505   -5.1104  -16.1488 O   0  0  0  0  0  0  0  0  0  0  0  0
   21.2187   -7.6891  -15.1603 C   0  0  0  0  0  0  0  0  0  0  0  0
   20.8331   -8.9268  -14.6864 O   0  0  0  0  0  0  0  0  0  0  0  0
   20.9142   -4.8946  -18.3855 O   0  0  0  0  0  0  0  0  0  0  0  0
   20.4601   -6.7244  -14.8429 O   0  0  0  0  0  0  0  0  0  0  0  0
  1  2  1  0
  2  3  2  0
  4  2  1  0
  5  4  1  0
  5  6  1  6
  7  8  2  0
  7  5  1  0
 10  9  1  1
 10 11  1  0
 10 12  1  0
 13 12  1  6
 13 14  1  0
 14  7  1  0
 15 17  1  0
 15 13  1  0
 16 15  2  0
 18 17  1  0
 18 22  1  0
 18 19  1  6
 20 19  1  0
 21 20  2  0
 22 23  1  0
 24 20  1  0
 25 22  2  0
M  END
$$$$
