NLD.pdb
     RDKit          3D

 25 24  0  0  1  0  0  0  0  0999 V2000
   31.9039  -14.0699  -20.2958 N   0  0  0  0  0  0  0  0  0  0  0  0
   31.5385  -14.3702  -18.9348 C   0  0  0  0  0  0  0  0  0  0  0  0
   31.1040  -15.4998  -18.6404 O   0  0  0  0  0  0  0  0  0  0  0  0
   31.6786  -13.3473  -17.9024 C   0  0  0  0  0  0  0  0  0  0  0  0
   32.1460  -12.0449  -18.4327 C   0  0  2  0  0  0  0  0  0  0  0  0
   33.4351  -12.0218  -19.0382 N   0  0  0  0  0  0  0  0  0  0  0  0
   32.0177  -10.8995  -17.4689 C   0  0  0  0  0  0  0  0  0  0  0  0
   30.9573  -10.7095  -16.8245 O   0  0  0  0  0  0  0  0  0  0  0  0
   36.8269   -8.5415  -15.5754 C   0  0  0  0  0  0  0  0  0  0  0  0
   35.4463   -9.1678  -15.6788 C   0  0  1  0  0  0  0  0  0  0  0  0
   35.1615   -9.9872  -14.4760 C   0  0  0  0  0  0  0  0  0  0  0  0
   34.4135   -8.1977  -16.1062 C   0  0  0  0  0  0  0  0  0  0  0  0
   33.0720   -8.7980  -16.4792 C   0  0  2  0  0  0  0  0  0  0  0  0
   33.0925   -9.9793  -17.2481 N   0  0  0  0  0  0  0  0  0  0  0  0
   32.1205   -7.7489  -16.8745 C   0  0  0  0  0  0  0  0  0  0  0  0
   31.9317   -6.8041  -16.0661 O   0  0  0  0  0  0  0  0  0  0  0  0
   31.4095   -7.7260  -18.0865 N   0  0  0  0  0  0  0  0  0  0  0  0
   30.3782   -6.7012  -18.3284 C   0  0  1  0  0  0  0  0  0  0  0  0
   30.8449   -5.9039  -19.4997 C   0  0  0  0  0  0  0  0  0  0  0  0
   29.8791   -4.9171  -19.9937 C   0  0  0  0  0  0  0  0  0  0  0  0
   28.8401   -4.7163  -19.3142 O   0  0  0  0  0  0  0  0  0  0  0  0
   29.0922   -7.3972  -18.5663 C   0  0  0  0  0  0  0  0  0  0  0  0
   28.9571   -8.7005  -19.0005 O   0  0  0  0  0  0  0  0  0  0  0  0
   30.0304   -4.1952  -21.1525 O   0  0  0  0  0  0  0  0  0  0  0  0
   28.0061   -6.7753  -18.3653 O   0  0  0  0  0  0  0  0  0  0  0  0
  1  2  1  0
  2  3  2  0
  4  2  1  0
  5  4  1  0
  5  6  1  1
  7  8  2  0
  7  5  1  0
 10  9  1  1
 10 11  1  0
 10 12  1  0
 13 12  1  6
 13 14  1  0
 14  7  1  0
 15 17  1  0
 15 13  1  0
 16 15  2  0
 18 17  1  0
 18 22  1  0
 18 19  1  6
 20 19  1  0
 21 20  2  0
 22 23  1  0
 24 20  1  0
 25 22  2  0
M  END
$$$$
