DCD.pdb
     RDKit          3D

 23 22  0  0  1  0  0  0  0  0999 V2000
    7.8247  -12.9863   19.4082 N   0  0  0  0  0  0  0  0  0  0  0  0
    7.7186  -14.1768   20.2316 C   0  0  1  0  0  0  0  0  0  0  0  0
    8.5336  -15.2568   19.5513 C   0  0  0  0  0  0  0  0  0  0  0  0
    7.9156  -15.6015   18.2243 C   0  0  0  0  0  0  0  0  0  0  0  0
    6.6788  -15.4471   18.0580 O   0  0  0  0  0  0  0  0  0  0  0  0
    8.2188  -13.9140   21.6106 C   0  0  0  0  0  0  0  0  0  0  0  0
    9.3556  -13.3679   21.7355 O   0  0  0  0  0  0  0  0  0  0  0  0
    8.6587  -16.0863   17.1683 O   0  0  0  0  0  0  0  0  0  0  0  0
    7.4548  -14.2604   22.7435 N   0  0  0  0  0  0  0  0  0  0  0  0
    7.9154  -13.9931   24.0677 C   0  0  1  0  0  0  0  0  0  0  0  0
    6.8925  -13.2719   24.9189 C   0  0  0  0  0  0  0  0  0  0  0  0
    7.4119  -13.0682   26.6161 S   0  0  0  0  0  0  0  0  0  0  0  0
    8.4139  -15.2273   24.7535 C   0  0  0  0  0  0  0  0  0  0  0  0
    7.6723  -16.2408   24.8164 O   0  0  0  0  0  0  0  0  0  0  0  0
    9.7043  -15.2903   25.3382 N   0  0  0  0  0  0  0  0  0  0  0  0
   10.2468  -16.4943   25.9533 C   0  0  1  0  0  0  0  0  0  0  0  0
   11.7457  -16.5554   25.7794 C   0  0  0  0  0  0  0  0  0  0  0  0
   12.1837  -16.5634   24.3690 C   0  0  0  0  0  0  0  0  0  0  0  0
   11.3990  -16.9130   23.4529 O   0  0  0  0  0  0  0  0  0  0  0  0
    9.8429  -16.5692   27.3783 C   0  0  0  0  0  0  0  0  0  0  0  0
    9.3567  -15.6053   27.9733 O   0  0  0  0  0  0  0  0  0  0  0  0
   13.4689  -16.1882   24.0028 O   0  0  0  0  0  0  0  0  0  0  0  0
   10.0027  -17.7585   28.1097 O   0  0  0  0  0  0  0  0  0  0  0  0
  2  1  1  6
  3  4  1  0
  3  2  1  0
  4  8  1  0
  5  4  2  0
  6  7  2  0
  6  2  1  0
  9  6  1  0
 10  9  1  0
 10 13  1  0
 10 11  1  1
 12 11  1  0
 13 15  1  0
 14 13  2  0
 15 16  1  0
 16 20  1  0
 16 17  1  1
 17 18  1  0
 18 22  1  0
 19 18  2  0
 20 21  2  0
 20 23  1  0
M  END
$$$$
