DCD.pdb
     RDKit          3D

 23 22  0  0  1  0  0  0  0  0999 V2000
    8.4951  -18.1075   18.7828 N   0  0  0  0  0  0  0  0  0  0  0  0
    9.8553  -17.6376   18.5947 C   0  0  1  0  0  0  0  0  0  0  0  0
    9.8501  -16.7548   17.3642 C   0  0  0  0  0  0  0  0  0  0  0  0
    9.4502  -17.5619   16.1600 C   0  0  0  0  0  0  0  0  0  0  0  0
    9.8716  -18.7402   16.0360 O   0  0  0  0  0  0  0  0  0  0  0  0
   10.3274  -16.8874   19.7927 C   0  0  0  0  0  0  0  0  0  0  0  0
   11.5113  -16.4353   19.7812 O   0  0  0  0  0  0  0  0  0  0  0  0
    8.6298  -17.0569   15.1729 O   0  0  0  0  0  0  0  0  0  0  0  0
    9.4870  -16.6848   20.9062 N   0  0  0  0  0  0  0  0  0  0  0  0
    9.9396  -15.9939   22.0702 C   0  0  1  0  0  0  0  0  0  0  0  0
    8.8184  -15.6323   23.0206 C   0  0  0  0  0  0  0  0  0  0  0  0
    9.4036  -15.0438   24.6027 S   0  0  0  0  0  0  0  0  0  0  0  0
   11.0302  -16.7348   22.7798 C   0  0  0  0  0  0  0  0  0  0  0  0
   10.8598  -17.9432   23.0827 O   0  0  0  0  0  0  0  0  0  0  0  0
   12.2576  -16.1131   23.1235 N   0  0  0  0  0  0  0  0  0  0  0  0
   13.3479  -16.8093   23.7934 C   0  0  1  0  0  0  0  0  0  0  0  0
   14.6666  -16.1256   23.5217 C   0  0  0  0  0  0  0  0  0  0  0  0
   15.8254  -16.7910   24.1507 C   0  0  0  0  0  0  0  0  0  0  0  0
   15.9746  -18.0354   24.0714 O   0  0  0  0  0  0  0  0  0  0  0  0
   13.0655  -16.9292   25.2445 C   0  0  0  0  0  0  0  0  0  0  0  0
   13.1214  -18.0093   25.8360 O   0  0  0  0  0  0  0  0  0  0  0  0
   16.7873  -16.0739   24.8486 O   0  0  0  0  0  0  0  0  0  0  0  0
   12.7197  -15.7997   26.0057 O   0  0  0  0  0  0  0  0  0  0  0  0
  2  1  1  1
  3  4  1  0
  3  2  1  0
  4  8  1  0
  5  4  2  0
  6  7  2  0
  6  2  1  0
  9  6  1  0
 10  9  1  0
 10 13  1  0
 10 11  1  1
 12 11  1  0
 13 15  1  0
 14 13  2  0
 15 16  1  0
 16 20  1  0
 16 17  1  1
 17 18  1  0
 18 22  1  0
 19 18  2  0
 20 21  2  0
 20 23  1  0
M  END
$$$$
