DCD.pdb
     RDKit          3D

 23 22  0  0  1  0  0  0  0  0999 V2000
    9.1775  -16.9081   17.0654 N   0  0  0  0  0  0  0  0  0  0  0  0
    8.7663  -17.4022   18.3667 C   0  0  1  0  0  0  0  0  0  0  0  0
    9.2110  -18.8475   18.4497 C   0  0  0  0  0  0  0  0  0  0  0  0
    8.5233  -19.6541   17.3829 C   0  0  0  0  0  0  0  0  0  0  0  0
    9.1267  -20.6211   16.8516 O   0  0  0  0  0  0  0  0  0  0  0  0
    9.3732  -16.5893   19.4583 C   0  0  0  0  0  0  0  0  0  0  0  0
   10.6047  -16.3034   19.3708 O   0  0  0  0  0  0  0  0  0  0  0  0
    7.2416  -19.3736   16.9574 O   0  0  0  0  0  0  0  0  0  0  0  0
    8.6053  -16.1502   20.5560 N   0  0  0  0  0  0  0  0  0  0  0  0
    9.1970  -15.4572   21.6545 C   0  0  1  0  0  0  0  0  0  0  0  0
    8.1822  -14.7540   22.5300 C   0  0  0  0  0  0  0  0  0  0  0  0
    6.4980  -15.0021   21.9881 S   0  0  0  0  0  0  0  0  0  0  0  0
   10.0894  -16.3428   22.4678 C   0  0  0  0  0  0  0  0  0  0  0  0
    9.7925  -17.5565   22.6085 O   0  0  0  0  0  0  0  0  0  0  0  0
   11.2667  -15.8532   23.0886 N   0  0  0  0  0  0  0  0  0  0  0  0
   12.1173  -16.6672   23.9466 C   0  0  1  0  0  0  0  0  0  0  0  0
   13.4969  -16.0636   24.0602 C   0  0  0  0  0  0  0  0  0  0  0  0
   14.2565  -16.0665   22.7937 C   0  0  0  0  0  0  0  0  0  0  0  0
   13.9251  -16.8205   21.8456 O   0  0  0  0  0  0  0  0  0  0  0  0
   11.4771  -16.8593   25.2705 C   0  0  0  0  0  0  0  0  0  0  0  0
   10.5578  -16.1388   25.6646 O   0  0  0  0  0  0  0  0  0  0  0  0
   15.3575  -15.2431   22.6023 O   0  0  0  0  0  0  0  0  0  0  0  0
   11.9024  -17.8837   26.1334 O   0  0  0  0  0  0  0  0  0  0  0  0
  2  1  1  6
  3  4  1  0
  3  2  1  0
  4  8  1  0
  5  4  2  0
  6  7  2  0
  6  2  1  0
  9  6  1  0
 10  9  1  0
 10 13  1  0
 10 11  1  1
 12 11  1  0
 13 15  1  0
 14 13  2  0
 15 16  1  0
 16 20  1  0
 16 17  1  1
 17 18  1  0
 18 22  1  0
 19 18  2  0
 20 21  2  0
 20 23  1  0
M  END
$$$$
