DCD.pdb
     RDKit          3D

 23 22  0  0  1  0  0  0  0  0999 V2000
   -4.1585  -24.0946   27.0299 N   0  0  0  0  0  0  0  0  0  0  0  0
   -4.8600  -25.3581   27.1644 C   0  0  1  0  0  0  0  0  0  0  0  0
   -3.9404  -26.4323   26.6222 C   0  0  0  0  0  0  0  0  0  0  0  0
   -3.8109  -26.2868   25.1310 C   0  0  0  0  0  0  0  0  0  0  0  0
   -4.7042  -25.6788   24.4879 O   0  0  0  0  0  0  0  0  0  0  0  0
   -5.2118  -25.6202   28.5886 C   0  0  0  0  0  0  0  0  0  0  0  0
   -5.7873  -26.7147   28.8660 O   0  0  0  0  0  0  0  0  0  0  0  0
   -2.7391  -26.7992   24.4302 O   0  0  0  0  0  0  0  0  0  0  0  0
   -4.9159  -24.6827   29.5989 N   0  0  0  0  0  0  0  0  0  0  0  0
   -5.2836  -24.9070   30.9597 C   0  0  1  0  0  0  0  0  0  0  0  0
   -4.3805  -24.1960   31.9446 C   0  0  0  0  0  0  0  0  0  0  0  0
   -2.6659  -24.6752   31.7949 S   0  0  0  0  0  0  0  0  0  0  0  0
   -6.7228  -24.5844   31.2176 C   0  0  0  0  0  0  0  0  0  0  0  0
   -7.2625  -23.6320   30.5988 O   0  0  0  0  0  0  0  0  0  0  0  0
   -7.5021  -25.3236   32.1435 N   0  0  0  0  0  0  0  0  0  0  0  0
   -8.9350  -25.1284   32.3198 C   0  0  1  0  0  0  0  0  0  0  0  0
   -9.6640  -25.3015   31.0087 C   0  0  0  0  0  0  0  0  0  0  0  0
  -11.1317  -25.1811   31.1208 C   0  0  0  0  0  0  0  0  0  0  0  0
  -11.6531  -24.2398   31.7683 O   0  0  0  0  0  0  0  0  0  0  0  0
   -9.4506  -26.0356   33.3736 C   0  0  0  0  0  0  0  0  0  0  0  0
   -8.8344  -27.0415   33.7317 O   0  0  0  0  0  0  0  0  0  0  0  0
  -11.9860  -26.0956   30.5203 O   0  0  0  0  0  0  0  0  0  0  0  0
  -10.6768  -25.7762   34.0094 O   0  0  0  0  0  0  0  0  0  0  0  0
  2  1  1  1
  3  4  1  0
  3  2  1  0
  4  8  1  0
  5  4  2  0
  6  7  2  0
  6  2  1  0
  9  6  1  0
 10  9  1  0
 10 13  1  0
 10 11  1  1
 12 11  1  0
 13 15  1  0
 14 13  2  0
 15 16  1  0
 16 20  1  0
 16 17  1  6
 17 18  1  0
 18 22  1  0
 19 18  2  0
 20 21  2  0
 20 23  1  0
M  END
$$$$
