DCD.pdb
     RDKit          3D

 23 22  0  0  1  0  0  0  0  0999 V2000
    9.6705  -17.5036   17.0469 N   0  0  0  0  0  0  0  0  0  0  0  0
    8.6546  -17.4221   18.0803 C   0  0  1  0  0  0  0  0  0  0  0  0
    8.4234  -18.8319   18.5828 C   0  0  0  0  0  0  0  0  0  0  0  0
    7.8639  -19.6819   17.4755 C   0  0  0  0  0  0  0  0  0  0  0  0
    8.3753  -20.8060   17.2386 O   0  0  0  0  0  0  0  0  0  0  0  0
    9.0928  -16.5227   19.1848 C   0  0  0  0  0  0  0  0  0  0  0  0
   10.3004  -16.5922   19.5629 O   0  0  0  0  0  0  0  0  0  0  0  0
    6.7993  -19.2745   16.6989 O   0  0  0  0  0  0  0  0  0  0  0  0
    8.1956  -15.6214   19.7929 N   0  0  0  0  0  0  0  0  0  0  0  0
    8.6063  -14.7542   20.8495 C   0  0  1  0  0  0  0  0  0  0  0  0
    7.7582  -13.5052   20.9572 C   0  0  0  0  0  0  0  0  0  0  0  0
    7.7034  -12.5627   19.4405 S   0  0  0  0  0  0  0  0  0  0  0  0
    8.6894  -15.4648   22.1649 C   0  0  0  0  0  0  0  0  0  0  0  0
    7.7172  -16.1617   22.5526 O   0  0  0  0  0  0  0  0  0  0  0  0
    9.8372  -15.3764   22.9931 N   0  0  0  0  0  0  0  0  0  0  0  0
   10.1693  -16.3657   24.0095 C   0  0  1  0  0  0  0  0  0  0  0  0
   10.2088  -17.7528   23.4138 C   0  0  0  0  0  0  0  0  0  0  0  0
   10.6375  -18.7991   24.3639 C   0  0  0  0  0  0  0  0  0  0  0  0
   10.7141  -18.5595   25.5942 O   0  0  0  0  0  0  0  0  0  0  0  0
   11.4423  -16.0054   24.6798 C   0  0  0  0  0  0  0  0  0  0  0  0
   11.6240  -16.1912   25.8848 O   0  0  0  0  0  0  0  0  0  0  0  0
   10.9699  -20.0779   23.9385 O   0  0  0  0  0  0  0  0  0  0  0  0
   12.5001  -15.4318   23.9540 O   0  0  0  0  0  0  0  0  0  0  0  0
  2  1  1  6
  3  4  1  0
  3  2  1  0
  4  8  1  0
  5  4  2  0
  6  7  2  0
  6  2  1  0
  9  6  1  0
 10  9  1  0
 10 13  1  0
 10 11  1  1
 12 11  1  0
 13 15  1  0
 14 13  2  0
 15 16  1  0
 16 20  1  0
 16 17  1  6
 17 18  1  0
 18 22  1  0
 19 18  2  0
 20 21  2  0
 20 23  1  0
M  END
$$$$
