DCD.pdb
     RDKit          3D

 23 22  0  0  1  0  0  0  0  0999 V2000
    8.0562  -16.5676   22.3894 N   0  0  0  0  0  0  0  0  0  0  0  0
    8.6329  -15.2996   21.9817 C   0  0  1  0  0  0  0  0  0  0  0  0
    7.8229  -14.8068   20.8007 C   0  0  0  0  0  0  0  0  0  0  0  0
    7.9355  -15.7836   19.6628 C   0  0  0  0  0  0  0  0  0  0  0  0
    8.6448  -16.8131   19.7978 O   0  0  0  0  0  0  0  0  0  0  0  0
    8.6014  -14.3180   23.1025 C   0  0  0  0  0  0  0  0  0  0  0  0
    8.4731  -13.0908   22.8131 O   0  0  0  0  0  0  0  0  0  0  0  0
    7.2846  -15.5946   18.4615 O   0  0  0  0  0  0  0  0  0  0  0  0
    8.7106  -14.7368   24.4441 N   0  0  0  0  0  0  0  0  0  0  0  0
    8.3457  -13.8823   25.5275 C   0  0  1  0  0  0  0  0  0  0  0  0
    6.9524  -13.3076   25.3882 C   0  0  0  0  0  0  0  0  0  0  0  0
    6.4740  -12.2866   26.7741 S   0  0  0  0  0  0  0  0  0  0  0  0
    8.5247  -14.5465   26.8574 C   0  0  0  0  0  0  0  0  0  0  0  0
    8.2019  -13.9293   27.9042 O   0  0  0  0  0  0  0  0  0  0  0  0
    9.0502  -15.8584   26.9750 N   0  0  0  0  0  0  0  0  0  0  0  0
   10.2781  -16.1676   27.6954 C   0  0  1  0  0  0  0  0  0  0  0  0
   11.4782  -16.0382   26.7878 C   0  0  0  0  0  0  0  0  0  0  0  0
   11.5521  -17.0794   25.7430 C   0  0  0  0  0  0  0  0  0  0  0  0
   10.6583  -17.9559   25.6429 O   0  0  0  0  0  0  0  0  0  0  0  0
   10.3928  -15.3152   28.9036 C   0  0  0  0  0  0  0  0  0  0  0  0
   10.5084  -15.7928   30.0341 O   0  0  0  0  0  0  0  0  0  0  0  0
   12.6033  -17.1304   24.8380 O   0  0  0  0  0  0  0  0  0  0  0  0
   10.3733  -13.9138   28.7998 O   0  0  0  0  0  0  0  0  0  0  0  0
  2  1  1  1
  3  4  1  0
  3  2  1  0
  4  8  1  0
  5  4  2  0
  6  7  2  0
  6  2  1  0
  9  6  1  0
 10  9  1  0
 10 13  1  0
 10 11  1  6
 12 11  1  0
 13 15  1  0
 14 13  2  0
 15 16  1  0
 16 20  1  0
 16 17  1  6
 17 18  1  0
 18 22  1  0
 19 18  2  0
 20 21  2  0
 20 23  1  0
M  END
$$$$
