DCD.pdb
     RDKit          3D

 23 22  0  0  1  0  0  0  0  0999 V2000
    6.7272  -16.1868   20.3888 N   0  0  0  0  0  0  0  0  0  0  0  0
    8.1500  -16.1037   20.1143 C   0  0  1  0  0  0  0  0  0  0  0  0
    8.3137  -15.2044   18.9068 C   0  0  0  0  0  0  0  0  0  0  0  0
    8.3745  -16.0372   17.6560 C   0  0  0  0  0  0  0  0  0  0  0  0
    8.1585  -17.2741   17.7241 O   0  0  0  0  0  0  0  0  0  0  0  0
    8.8862  -15.5626   21.2916 C   0  0  0  0  0  0  0  0  0  0  0  0
   10.1379  -15.3959   21.1834 O   0  0  0  0  0  0  0  0  0  0  0  0
    8.6611  -15.4936   16.4212 O   0  0  0  0  0  0  0  0  0  0  0  0
    8.2155  -15.2447   22.4901 N   0  0  0  0  0  0  0  0  0  0  0  0
    8.9269  -14.9797   23.6987 C   0  0  1  0  0  0  0  0  0  0  0  0
    8.1513  -14.1130   24.6673 C   0  0  0  0  0  0  0  0  0  0  0  0
    6.5211  -14.7498   25.0263 S   0  0  0  0  0  0  0  0  0  0  0  0
    9.4044  -16.2347   24.3612 C   0  0  0  0  0  0  0  0  0  0  0  0
    8.6793  -17.2616   24.3337 O   0  0  0  0  0  0  0  0  0  0  0  0
   10.6567  -16.3028   25.0232 N   0  0  0  0  0  0  0  0  0  0  0  0
   11.1530  -17.5069   25.6759 C   0  0  1  0  0  0  0  0  0  0  0  0
   12.6220  -17.7054   25.3875 C   0  0  0  0  0  0  0  0  0  0  0  0
   12.8974  -18.2698   24.0508 C   0  0  0  0  0  0  0  0  0  0  0  0
   11.9750  -18.7683   23.3596 O   0  0  0  0  0  0  0  0  0  0  0  0
   10.8676  -17.4569   27.1304 C   0  0  0  0  0  0  0  0  0  0  0  0
   10.6750  -16.3941   27.7244 O   0  0  0  0  0  0  0  0  0  0  0  0
   14.1757  -18.2718   23.5098 O   0  0  0  0  0  0  0  0  0  0  0  0
   10.8061  -18.6361   27.8923 O   0  0  0  0  0  0  0  0  0  0  0  0
  2  1  1  1
  3  4  1  0
  3  2  1  0
  4  8  1  0
  5  4  2  0
  6  7  2  0
  6  2  1  0
  9  6  1  0
 10  9  1  0
 10 13  1  0
 10 11  1  1
 12 11  1  0
 13 15  1  0
 14 13  2  0
 15 16  1  0
 16 20  1  0
 16 17  1  1
 17 18  1  0
 18 22  1  0
 19 18  2  0
 20 21  2  0
 20 23  1  0
M  END
$$$$
