DCD.pdb
     RDKit          3D

 23 22  0  0  1  0  0  0  0  0999 V2000
    9.0916  -15.4118   20.1399 N   0  0  0  0  0  0  0  0  0  0  0  0
    8.6309  -16.0308   21.3692 C   0  0  1  0  0  0  0  0  0  0  0  0
    9.2346  -17.4189   21.4163 C   0  0  0  0  0  0  0  0  0  0  0  0
    8.7315  -18.2329   20.2562 C   0  0  0  0  0  0  0  0  0  0  0  0
    7.5079  -18.5132   20.1803 O   0  0  0  0  0  0  0  0  0  0  0  0
    9.0409  -15.2256   22.5542 C   0  0  0  0  0  0  0  0  0  0  0  0
   10.1957  -14.7036   22.5463 O   0  0  0  0  0  0  0  0  0  0  0  0
    9.5671  -18.6909   19.2590 O   0  0  0  0  0  0  0  0  0  0  0  0
    8.1746  -15.0477   23.6520 N   0  0  0  0  0  0  0  0  0  0  0  0
    8.5677  -14.3002   24.8027 C   0  0  1  0  0  0  0  0  0  0  0  0
    7.5074  -13.3262   25.2697 C   0  0  0  0  0  0  0  0  0  0  0  0
    7.8870  -12.5815   26.8487 S   0  0  0  0  0  0  0  0  0  0  0  0
    9.0202  -15.1834   25.9239 C   0  0  0  0  0  0  0  0  0  0  0  0
    8.2225  -16.0282   26.4047 O   0  0  0  0  0  0  0  0  0  0  0  0
   10.3283  -15.0972   26.4645 N   0  0  0  0  0  0  0  0  0  0  0  0
   10.8282  -15.9937   27.4983 C   0  0  1  0  0  0  0  0  0  0  0  0
   12.3335  -16.0965   27.4355 C   0  0  0  0  0  0  0  0  0  0  0  0
   12.8566  -16.3899   26.0859 C   0  0  0  0  0  0  0  0  0  0  0  0
   12.1754  -17.0464   25.2599 O   0  0  0  0  0  0  0  0  0  0  0  0
   10.3500  -15.5561   28.8322 C   0  0  0  0  0  0  0  0  0  0  0  0
    9.8221  -14.4565   29.0109 O   0  0  0  0  0  0  0  0  0  0  0  0
   14.1109  -15.9557   25.6800 O   0  0  0  0  0  0  0  0  0  0  0  0
   10.4840  -16.3916   29.9542 O   0  0  0  0  0  0  0  0  0  0  0  0
  2  1  1  6
  3  4  1  0
  3  2  1  0
  4  8  1  0
  5  4  2  0
  6  7  2  0
  6  2  1  0
  9  6  1  0
 10  9  1  0
 10 13  1  0
 10 11  1  1
 12 11  1  0
 13 15  1  0
 14 13  2  0
 15 16  1  0
 16 20  1  0
 16 17  1  1
 17 18  1  0
 18 22  1  0
 19 18  2  0
 20 21  2  0
 20 23  1  0
M  END
$$$$
