DCD.pdb
     RDKit          3D

 23 22  0  0  1  0  0  0  0  0999 V2000
    9.5048  -15.2829   21.0679 N   0  0  0  0  0  0  0  0  0  0  0  0
    9.3770  -16.2615   22.1321 C   0  0  1  0  0  0  0  0  0  0  0  0
   10.0817  -17.5171   21.6626 C   0  0  0  0  0  0  0  0  0  0  0  0
    9.3065  -18.1460   20.5378 C   0  0  0  0  0  0  0  0  0  0  0  0
    8.0699  -17.9375   20.4452 O   0  0  0  0  0  0  0  0  0  0  0  0
    9.9756  -15.7501   23.3974 C   0  0  0  0  0  0  0  0  0  0  0  0
   10.5933  -14.6442   23.3571 O   0  0  0  0  0  0  0  0  0  0  0  0
    9.9033  -18.9525   19.5914 O   0  0  0  0  0  0  0  0  0  0  0  0
    9.8609  -16.4706   24.6036 N   0  0  0  0  0  0  0  0  0  0  0  0
   10.2259  -15.8947   25.8575 C   0  0  1  0  0  0  0  0  0  0  0  0
    9.5269  -14.5810   26.1343 C   0  0  0  0  0  0  0  0  0  0  0  0
    9.9323  -13.8952   27.7335 S   0  0  0  0  0  0  0  0  0  0  0  0
   10.0445  -16.8521   26.9943 C   0  0  0  0  0  0  0  0  0  0  0  0
    8.8844  -17.2138   27.3176 O   0  0  0  0  0  0  0  0  0  0  0  0
   11.1465  -17.3677   27.7229 N   0  0  0  0  0  0  0  0  0  0  0  0
   11.0128  -18.3574   28.7834 C   0  0  1  0  0  0  0  0  0  0  0  0
   12.1870  -19.3070   28.7804 C   0  0  0  0  0  0  0  0  0  0  0  0
   12.4201  -19.9650   27.4789 C   0  0  0  0  0  0  0  0  0  0  0  0
   11.4577  -20.2955   26.7429 O   0  0  0  0  0  0  0  0  0  0  0  0
   10.8370  -17.6852   30.0936 C   0  0  0  0  0  0  0  0  0  0  0  0
   10.5938  -18.3142   31.1255 O   0  0  0  0  0  0  0  0  0  0  0  0
   13.7009  -20.2420   27.0212 O   0  0  0  0  0  0  0  0  0  0  0  0
   10.9432  -16.2884   30.2054 O   0  0  0  0  0  0  0  0  0  0  0  0
  2  1  1  6
  3  4  1  0
  3  2  1  0
  4  8  1  0
  5  4  2  0
  6  7  2  0
  6  2  1  0
  9  6  1  0
 10  9  1  0
 10 13  1  0
 10 11  1  1
 12 11  1  0
 13 15  1  0
 14 13  2  0
 15 16  1  0
 16 20  1  0
 16 17  1  1
 17 18  1  0
 18 22  1  0
 19 18  2  0
 20 21  2  0
 20 23  1  0
M  END
$$$$
