DCD.pdb
     RDKit          3D

 23 22  0  0  1  0  0  0  0  0999 V2000
    8.5265  -14.3500   13.8121 N   0  0  0  0  0  0  0  0  0  0  0  0
    8.1943  -15.1710   14.9619 C   0  0  1  0  0  0  0  0  0  0  0  0
    8.7746  -16.5458   14.7038 C   0  0  0  0  0  0  0  0  0  0  0  0
    8.0996  -17.1682   13.5128 C   0  0  0  0  0  0  0  0  0  0  0  0
    6.8843  -17.4832   13.5839 O   0  0  0  0  0  0  0  0  0  0  0  0
    8.7477  -14.5799   16.2130 C   0  0  0  0  0  0  0  0  0  0  0  0
    9.9276  -14.1186   16.1800 O   0  0  0  0  0  0  0  0  0  0  0  0
    8.7668  -17.4111   12.3303 O   0  0  0  0  0  0  0  0  0  0  0  0
    7.9862  -14.5335   17.3984 N   0  0  0  0  0  0  0  0  0  0  0  0
    8.4984  -13.9481   18.5951 C   0  0  1  0  0  0  0  0  0  0  0  0
    7.4148  -13.4119   19.5058 C   0  0  0  0  0  0  0  0  0  0  0  0
    8.0374  -12.8639   21.0882 S   0  0  0  0  0  0  0  0  0  0  0  0
    9.4126  -14.8764   19.3330 C   0  0  0  0  0  0  0  0  0  0  0  0
    9.1329  -16.1009   19.3916 O   0  0  0  0  0  0  0  0  0  0  0  0
   10.5917  -14.4158   19.9721 N   0  0  0  0  0  0  0  0  0  0  0  0
   11.4618  -15.2756   20.7632 C   0  0  1  0  0  0  0  0  0  0  0  0
   12.8752  -14.7438   20.7723 C   0  0  0  0  0  0  0  0  0  0  0  0
   13.5800  -14.8985   19.4837 C   0  0  0  0  0  0  0  0  0  0  0  0
   14.4102  -14.0394   19.0966 O   0  0  0  0  0  0  0  0  0  0  0  0
   10.9144  -15.4399   22.1317 C   0  0  0  0  0  0  0  0  0  0  0  0
   11.4626  -16.1517   22.9758 O   0  0  0  0  0  0  0  0  0  0  0  0
   13.3548  -15.9899   18.6563 O   0  0  0  0  0  0  0  0  0  0  0  0
    9.7353  -14.7805   22.5189 O   0  0  0  0  0  0  0  0  0  0  0  0
  2  1  1  6
  3  4  1  0
  3  2  1  0
  4  8  1  0
  5  4  2  0
  6  7  2  0
  6  2  1  0
  9  6  1  0
 10  9  1  0
 10 13  1  0
 10 11  1  1
 12 11  1  0
 13 15  1  0
 14 13  2  0
 15 16  1  0
 16 20  1  0
 16 17  1  1
 17 18  1  0
 18 22  1  0
 19 18  2  0
 20 21  2  0
 20 23  1  0
M  END
$$$$
