DKG.pdb
     RDKit          3D

 22 21  0  0  1  0  0  0  0  0999 V2000
   16.9763  -10.0524  -16.2563 N   0  0  0  0  0  0  0  0  0  0  0  0
   17.4034  -10.5458  -14.9612 C   0  0  1  0  0  0  0  0  0  0  0  0
   17.3219  -12.0435  -14.9111 C   0  0  0  0  0  0  0  0  0  0  0  0
   15.9307  -12.5342  -14.8843 C   0  0  0  0  0  0  0  0  0  0  0  0
   14.9897  -11.7008  -14.8981 O   0  0  0  0  0  0  0  0  0  0  0  0
   18.7699  -10.0513  -14.6164 C   0  0  0  0  0  0  0  0  0  0  0  0
   19.3549  -10.4396  -13.5804 O   0  0  0  0  0  0  0  0  0  0  0  0
   15.5877  -13.8778  -14.8441 O   0  0  0  0  0  0  0  0  0  0  0  0
   19.4101   -9.1395  -15.4617 N   0  0  0  0  0  0  0  0  0  0  0  0
   20.7969   -8.6834  -15.2673 C   0  0  1  0  0  0  0  0  0  0  0  0
   21.4481   -8.7588  -16.6323 C   0  0  0  0  0  0  0  0  0  0  0  0
   21.5715  -10.1206  -17.2008 C   0  0  0  0  0  0  0  0  0  0  0  0
   22.3005  -10.0543  -18.5452 C   0  0  0  0  0  0  0  0  0  0  0  0
   22.3473  -11.4232  -19.1854 C   0  0  0  0  0  0  0  0  0  0  0  0
   23.0235  -11.3715  -20.4657 N   0  0  0  0  0  0  0  0  0  0  0  0
   20.8397   -7.3648  -14.6426 C   0  0  0  0  0  0  0  0  0  0  0  0
   19.9633   -6.5106  -15.0180 O   0  0  0  0  0  0  0  0  0  0  0  0
   21.7517   -6.9225  -13.6528 N   0  0  0  0  0  0  0  0  0  0  0  0
   21.6758   -5.6018  -13.0535 C   0  0  0  0  0  0  0  0  0  0  0  0
   22.2257   -4.5747  -13.9911 C   0  0  0  0  0  0  0  0  0  0  0  0
   22.2887   -3.2410  -13.6698 O   0  0  0  0  0  0  0  0  0  0  0  0
   22.6438   -4.9475  -15.1104 O   0  0  0  0  0  0  0  0  0  0  0  0
  2  6  1  0
  2  3  1  0
  2  1  1  6
  3  4  1  0
  4  8  1  0
  4  5  2  0
  6  7  2  0
  9 10  1  0
  9  6  1  0
 10 16  1  0
 11 12  1  0
 10 11  1  6
 12 13  1  0
 13 14  1  0
 14 15  1  0
 16 18  1  0
 16 17  2  0
 18 19  1  0
 20 21  1  0
 20 19  1  0
 22 20  2  0
M  END
$$$$
