DKG.pdb
     RDKit          3D

 22 21  0  0  1  0  0  0  0  0999 V2000
   20.2067  -12.0395  -18.8598 N   0  0  0  0  0  0  0  0  0  0  0  0
   20.9200  -11.6293  -17.6656 C   0  0  1  0  0  0  0  0  0  0  0  0
   22.3997  -11.8031  -17.8456 C   0  0  0  0  0  0  0  0  0  0  0  0
   22.7770  -13.2047  -18.1107 C   0  0  0  0  0  0  0  0  0  0  0  0
   23.9910  -13.5279  -18.0674 O   0  0  0  0  0  0  0  0  0  0  0  0
   20.5673  -10.2309  -17.2770 C   0  0  0  0  0  0  0  0  0  0  0  0
   20.6457   -9.2924  -18.1011 O   0  0  0  0  0  0  0  0  0  0  0  0
   21.8641  -14.2055  -18.4095 O   0  0  0  0  0  0  0  0  0  0  0  0
   20.1422   -9.9611  -15.9723 N   0  0  0  0  0  0  0  0  0  0  0  0
   19.6595   -8.6421  -15.5291 C   0  0  1  0  0  0  0  0  0  0  0  0
   18.3305   -8.8991  -14.8503 C   0  0  0  0  0  0  0  0  0  0  0  0
   17.1975   -9.1791  -15.7618 C   0  0  0  0  0  0  0  0  0  0  0  0
   15.9192   -9.3895  -14.9463 C   0  0  0  0  0  0  0  0  0  0  0  0
   14.7525   -9.6781  -15.8636 C   0  0  0  0  0  0  0  0  0  0  0  0
   13.5435   -9.9167  -15.1017 N   0  0  0  0  0  0  0  0  0  0  0  0
   20.6498   -7.9666  -14.6962 C   0  0  0  0  0  0  0  0  0  0  0  0
   21.3371   -8.6938  -13.8977 O   0  0  0  0  0  0  0  0  0  0  0  0
   20.9402   -6.5801  -14.6766 N   0  0  0  0  0  0  0  0  0  0  0  0
   22.0087   -6.0161  -13.8708 C   0  0  0  0  0  0  0  0  0  0  0  0
   22.1678   -4.5589  -14.1673 C   0  0  0  0  0  0  0  0  0  0  0  0
   23.0175   -3.7494  -13.4542 O   0  0  0  0  0  0  0  0  0  0  0  0
   21.4999   -4.0609  -15.1013 O   0  0  0  0  0  0  0  0  0  0  0  0
  2  6  1  0
  2  3  1  0
  2  1  1  6
  3  4  1  0
  4  8  1  0
  4  5  2  0
  6  7  2  0
  9 10  1  0
  9  6  1  0
 10 16  1  0
 11 12  1  0
 10 11  1  1
 12 13  1  0
 13 14  1  0
 14 15  1  0
 16 18  1  0
 16 17  2  0
 18 19  1  0
 20 21  1  0
 20 19  1  0
 22 20  2  0
M  END
$$$$
