DKG.pdb
     RDKit          3D

 22 21  0  0  1  0  0  0  0  0999 V2000
   19.3892  -15.0867  -15.6167 N   0  0  0  0  0  0  0  0  0  0  0  0
   18.8756  -13.8403  -16.1515 C   0  0  1  0  0  0  0  0  0  0  0  0
   17.5824  -13.4705  -15.4859 C   0  0  0  0  0  0  0  0  0  0  0  0
   16.5368  -14.4949  -15.6718 C   0  0  0  0  0  0  0  0  0  0  0  0
   16.7976  -15.5147  -16.3587 O   0  0  0  0  0  0  0  0  0  0  0  0
   19.8879  -12.7472  -16.0461 C   0  0  0  0  0  0  0  0  0  0  0  0
   20.7757  -12.7719  -15.1644 O   0  0  0  0  0  0  0  0  0  0  0  0
   15.2634  -14.4040  -15.1288 O   0  0  0  0  0  0  0  0  0  0  0  0
   19.8472  -11.6767  -16.9450 N   0  0  0  0  0  0  0  0  0  0  0  0
   20.9025  -10.6540  -17.0424 C   0  0  1  0  0  0  0  0  0  0  0  0
   20.8598  -10.1561  -18.4719 C   0  0  0  0  0  0  0  0  0  0  0  0
   21.7773   -9.0352  -18.7798 C   0  0  0  0  0  0  0  0  0  0  0  0
   23.1286   -9.5865  -19.2414 C   0  0  0  0  0  0  0  0  0  0  0  0
   24.1274   -8.4628  -19.4019 C   0  0  0  0  0  0  0  0  0  0  0  0
   25.4002   -8.9671  -19.8757 N   0  0  0  0  0  0  0  0  0  0  0  0
   20.7321   -9.6168  -16.0295 C   0  0  0  0  0  0  0  0  0  0  0  0
   19.5526   -9.1475  -15.8650 O   0  0  0  0  0  0  0  0  0  0  0  0
   21.7386   -9.0692  -15.1963 N   0  0  0  0  0  0  0  0  0  0  0  0
   21.4607   -8.0476  -14.2022 C   0  0  0  0  0  0  0  0  0  0  0  0
   21.4016   -6.6994  -14.8467 C   0  0  0  0  0  0  0  0  0  0  0  0
   21.2922   -5.5388  -14.1208 O   0  0  0  0  0  0  0  0  0  0  0  0
   21.4540   -6.6291  -16.0953 O   0  0  0  0  0  0  0  0  0  0  0  0
  2  6  1  0
  2  3  1  0
  2  1  1  1
  3  4  1  0
  4  8  1  0
  4  5  2  0
  6  7  2  0
  9 10  1  0
  9  6  1  0
 10 16  1  0
 11 12  1  0
 10 11  1  6
 12 13  1  0
 13 14  1  0
 14 15  1  0
 16 18  1  0
 16 17  2  0
 18 19  1  0
 20 21  1  0
 20 19  1  0
 22 20  2  0
M  END
$$$$
