DKG.pdb
     RDKit          3D

 22 21  0  0  1  0  0  0  0  0999 V2000
   13.4073   -8.2266  -14.7836 N   0  0  0  0  0  0  0  0  0  0  0  0
   14.4835   -7.4114  -15.3131 C   0  0  1  0  0  0  0  0  0  0  0  0
   14.2961   -5.9723  -14.9310 C   0  0  0  0  0  0  0  0  0  0  0  0
   13.0639   -5.3917  -15.4980 C   0  0  0  0  0  0  0  0  0  0  0  0
   12.9444   -4.1413  -15.5450 O   0  0  0  0  0  0  0  0  0  0  0  0
   15.8173   -7.9310  -14.8868 C   0  0  0  0  0  0  0  0  0  0  0  0
   15.9123   -8.9295  -14.1384 O   0  0  0  0  0  0  0  0  0  0  0  0
   12.0109   -6.1487  -15.9910 O   0  0  0  0  0  0  0  0  0  0  0  0
   16.9818   -7.2948  -15.3285 N   0  0  0  0  0  0  0  0  0  0  0  0
   18.3355   -7.8347  -15.1169 C   0  0  1  0  0  0  0  0  0  0  0  0
   18.3947   -9.1183  -15.9182 C   0  0  0  0  0  0  0  0  0  0  0  0
   19.6763   -9.8559  -15.8389 C   0  0  0  0  0  0  0  0  0  0  0  0
   19.5781  -11.1495  -16.6515 C   0  0  0  0  0  0  0  0  0  0  0  0
   20.9063  -11.8719  -16.6515 C   0  0  0  0  0  0  0  0  0  0  0  0
   20.8237  -13.1041  -17.4090 N   0  0  0  0  0  0  0  0  0  0  0  0
   19.3589   -6.8525  -15.4612 C   0  0  0  0  0  0  0  0  0  0  0  0
   19.3428   -6.3833  -16.6520 O   0  0  0  0  0  0  0  0  0  0  0  0
   20.3770   -6.3527  -14.6121 N   0  0  0  0  0  0  0  0  0  0  0  0
   21.3695   -5.3927  -15.0622 C   0  0  0  0  0  0  0  0  0  0  0  0
   22.2747   -5.0151  -13.9333 C   0  0  0  0  0  0  0  0  0  0  0  0
   23.3754   -4.2125  -14.1071 O   0  0  0  0  0  0  0  0  0  0  0  0
   22.0171   -5.4483  -12.7876 O   0  0  0  0  0  0  0  0  0  0  0  0
  2  6  1  0
  2  3  1  0
  2  1  1  1
  3  4  1  0
  4  8  1  0
  4  5  2  0
  6  7  2  0
  9 10  1  0
  9  6  1  0
 10 16  1  0
 11 12  1  0
 10 11  1  6
 12 13  1  0
 13 14  1  0
 14 15  1  0
 16 18  1  0
 16 17  2  0
 18 19  1  0
 20 21  1  0
 20 19  1  0
 22 20  2  0
M  END
$$$$
