DKG.pdb
     RDKit          3D

 22 21  0  0  1  0  0  0  0  0999 V2000
   15.8148  -11.4994  -14.3707 N   0  0  0  0  0  0  0  0  0  0  0  0
   16.2436  -10.3253  -15.1063 C   0  0  1  0  0  0  0  0  0  0  0  0
   15.2905   -9.1865  -14.8897 C   0  0  0  0  0  0  0  0  0  0  0  0
   13.9429   -9.4672  -15.4210 C   0  0  0  0  0  0  0  0  0  0  0  0
   13.4309  -10.5972  -15.2187 O   0  0  0  0  0  0  0  0  0  0  0  0
   17.6468   -9.9501  -14.7584 C   0  0  0  0  0  0  0  0  0  0  0  0
   18.0603  -10.0190  -13.5792 O   0  0  0  0  0  0  0  0  0  0  0  0
   13.1917   -8.5499  -16.1413 O   0  0  0  0  0  0  0  0  0  0  0  0
   18.5164   -9.5143  -15.7631 N   0  0  0  0  0  0  0  0  0  0  0  0
   19.9440   -9.2305  -15.5384 C   0  0  1  0  0  0  0  0  0  0  0  0
   20.6790   -9.8953  -16.6833 C   0  0  0  0  0  0  0  0  0  0  0  0
   20.7450  -11.3734  -16.6204 C   0  0  0  0  0  0  0  0  0  0  0  0
   21.4344  -11.9130  -17.8760 C   0  0  0  0  0  0  0  0  0  0  0  0
   21.5204  -13.4215  -17.8211 C   0  0  0  0  0  0  0  0  0  0  0  0
   22.0239  -13.9558  -19.0700 N   0  0  0  0  0  0  0  0  0  0  0  0
   20.1865   -7.7970  -15.4078 C   0  0  0  0  0  0  0  0  0  0  0  0
   19.6179   -7.0274  -16.2581 O   0  0  0  0  0  0  0  0  0  0  0  0
   20.9874   -7.1561  -14.4306 N   0  0  0  0  0  0  0  0  0  0  0  0
   21.2307   -5.7244  -14.4351 C   0  0  0  0  0  0  0  0  0  0  0  0
   22.0871   -5.3404  -13.2708 C   0  0  0  0  0  0  0  0  0  0  0  0
   22.4139   -6.2245  -12.2721 O   0  0  0  0  0  0  0  0  0  0  0  0
   22.5210   -4.1682  -13.2066 O   0  0  0  0  0  0  0  0  0  0  0  0
  2  6  1  0
  2  3  1  0
  2  1  1  1
  3  4  1  0
  4  8  1  0
  4  5  2  0
  6  7  2  0
  9 10  1  0
  9  6  1  0
 10 16  1  0
 11 12  1  0
 10 11  1  6
 12 13  1  0
 13 14  1  0
 14 15  1  0
 16 18  1  0
 16 17  2  0
 18 19  1  0
 20 21  1  0
 20 19  1  0
 22 20  2  0
M  END
$$$$
