DKG.pdb
     RDKit          3D

 22 21  0  0  1  0  0  0  0  0999 V2000
   24.0138  -12.2047  -16.4148 N   0  0  0  0  0  0  0  0  0  0  0  0
   24.5245  -11.0913  -17.1912 C   0  0  1  0  0  0  0  0  0  0  0  0
   24.6593  -11.4704  -18.6369 C   0  0  0  0  0  0  0  0  0  0  0  0
   25.3986  -12.7335  -18.8244 C   0  0  0  0  0  0  0  0  0  0  0  0
   24.7785  -13.7484  -19.2311 O   0  0  0  0  0  0  0  0  0  0  0  0
   23.6796   -9.8727  -17.0122 C   0  0  0  0  0  0  0  0  0  0  0  0
   23.9996   -8.7823  -17.5364 O   0  0  0  0  0  0  0  0  0  0  0  0
   26.7562  -12.8763  -18.5770 O   0  0  0  0  0  0  0  0  0  0  0  0
   22.5112   -9.9465  -16.2473 N   0  0  0  0  0  0  0  0  0  0  0  0
   21.5402   -8.8449  -16.1347 C   0  0  1  0  0  0  0  0  0  0  0  0
   20.1917   -9.5056  -15.9396 C   0  0  0  0  0  0  0  0  0  0  0  0
   19.0480   -8.5776  -15.7861 C   0  0  0  0  0  0  0  0  0  0  0  0
   17.7510   -9.3772  -15.6393 C   0  0  0  0  0  0  0  0  0  0  0  0
   16.5836   -8.4460  -15.4024 C   0  0  0  0  0  0  0  0  0  0  0  0
   15.3670   -9.1944  -15.1606 N   0  0  0  0  0  0  0  0  0  0  0  0
   21.9192   -7.9084  -15.0810 C   0  0  0  0  0  0  0  0  0  0  0  0
   22.4003   -8.4036  -14.0031 O   0  0  0  0  0  0  0  0  0  0  0  0
   21.8159   -6.4961  -15.1218 N   0  0  0  0  0  0  0  0  0  0  0  0
   22.1420   -5.6548  -13.9838 C   0  0  0  0  0  0  0  0  0  0  0  0
   21.9040   -4.2165  -14.3172 C   0  0  0  0  0  0  0  0  0  0  0  0
   21.5357   -3.8016  -15.5735 O   0  0  0  0  0  0  0  0  0  0  0  0
   22.0466   -3.3605  -13.4153 O   0  0  0  0  0  0  0  0  0  0  0  0
  2  6  1  0
  2  3  1  0
  2  1  1  1
  3  4  1  0
  4  8  1  0
  4  5  2  0
  6  7  2  0
  9 10  1  0
  9  6  1  0
 10 16  1  0
 11 12  1  0
 10 11  1  1
 12 13  1  0
 13 14  1  0
 14 15  1  0
 16 18  1  0
 16 17  2  0
 18 19  1  0
 20 21  1  0
 20 19  1  0
 22 20  2  0
M  END
$$$$
