DKG.pdb
     RDKit          3D

 22 21  0  0  1  0  0  0  0  0999 V2000
   22.8150  -18.7566  -15.6343 N   0  0  0  0  0  0  0  0  0  0  0  0
   22.2512  -19.6317  -14.6245 C   0  0  1  0  0  0  0  0  0  0  0  0
   21.2760  -20.5922  -15.2398 C   0  0  0  0  0  0  0  0  0  0  0  0
   20.1181  -19.9106  -15.8495 C   0  0  0  0  0  0  0  0  0  0  0  0
   19.1008  -20.5859  -16.1481 O   0  0  0  0  0  0  0  0  0  0  0  0
   23.3223  -20.3392  -13.8610 C   0  0  0  0  0  0  0  0  0  0  0  0
   23.0474  -21.2831  -13.0866 O   0  0  0  0  0  0  0  0  0  0  0  0
   20.0784  -18.5503  -16.1190 O   0  0  0  0  0  0  0  0  0  0  0  0
   24.6555  -19.9441  -14.0104 N   0  0  0  0  0  0  0  0  0  0  0  0
   25.7756  -20.5647  -13.2830 C   0  0  1  0  0  0  0  0  0  0  0  0
   26.9693  -20.4686  -14.2098 C   0  0  0  0  0  0  0  0  0  0  0  0
   26.8575  -21.2403  -15.4687 C   0  0  0  0  0  0  0  0  0  0  0  0
   28.0360  -20.9046  -16.3860 C   0  0  0  0  0  0  0  0  0  0  0  0
   27.8784  -21.5994  -17.7195 C   0  0  0  0  0  0  0  0  0  0  0  0
   29.0192  -21.3410  -18.5744 N   0  0  0  0  0  0  0  0  0  0  0  0
   25.9671  -19.9461  -11.9748 C   0  0  0  0  0  0  0  0  0  0  0  0
   26.4249  -18.7509  -11.9539 O   0  0  0  0  0  0  0  0  0  0  0  0
   25.6956  -20.5277  -10.7118 N   0  0  0  0  0  0  0  0  0  0  0  0
   26.0154  -19.8642   -9.4602 C   0  0  0  0  0  0  0  0  0  0  0  0
   25.6030  -20.7156   -8.3019 C   0  0  0  0  0  0  0  0  0  0  0  0
   25.8540  -20.3609   -6.9992 O   0  0  0  0  0  0  0  0  0  0  0  0
   25.0066  -21.7918   -8.5314 O   0  0  0  0  0  0  0  0  0  0  0  0
  2  6  1  0
  2  3  1  0
  2  1  1  6
  3  4  1  0
  4  8  1  0
  4  5  2  0
  6  7  2  0
  9 10  1  0
  9  6  1  0
 10 16  1  0
 11 12  1  0
 10 11  1  6
 12 13  1  0
 13 14  1  0
 14 15  1  0
 16 18  1  0
 16 17  2  0
 18 19  1  0
 20 21  1  0
 20 19  1  0
 22 20  2  0
M  END
$$$$
