DKG.pdb
     RDKit          3D

 22 21  0  0  1  0  0  0  0  0999 V2000
   19.0374   -9.2150  -18.2726 N   0  0  0  0  0  0  0  0  0  0  0  0
   18.5149   -8.9721  -16.9417 C   0  0  1  0  0  0  0  0  0  0  0  0
   17.8120  -10.1900  -16.4175 C   0  0  0  0  0  0  0  0  0  0  0  0
   16.6232  -10.5453  -17.2162 C   0  0  0  0  0  0  0  0  0  0  0  0
   16.3927   -9.9160  -18.2796 O   0  0  0  0  0  0  0  0  0  0  0  0
   19.5892   -8.5074  -16.0140 C   0  0  0  0  0  0  0  0  0  0  0  0
   19.3493   -8.2913  -14.8048 O   0  0  0  0  0  0  0  0  0  0  0  0
   15.7285  -11.5453  -16.8639 O   0  0  0  0  0  0  0  0  0  0  0  0
   20.8855   -8.3091  -16.4995 N   0  0  0  0  0  0  0  0  0  0  0  0
   22.0038   -7.8346  -15.6669 C   0  0  1  0  0  0  0  0  0  0  0  0
   23.1962   -8.6804  -16.0616 C   0  0  0  0  0  0  0  0  0  0  0  0
   23.0098  -10.1428  -15.9207 C   0  0  0  0  0  0  0  0  0  0  0  0
   24.2524  -10.8732  -16.4361 C   0  0  0  0  0  0  0  0  0  0  0  0
   24.0763  -12.3688  -16.3013 C   0  0  0  0  0  0  0  0  0  0  0  0
   25.1793  -13.0763  -16.9192 N   0  0  0  0  0  0  0  0  0  0  0  0
   22.2011   -6.3957  -15.8125 C   0  0  0  0  0  0  0  0  0  0  0  0
   22.8872   -5.9977  -16.8173 O   0  0  0  0  0  0  0  0  0  0  0  0
   21.7083   -5.3794  -14.9573 N   0  0  0  0  0  0  0  0  0  0  0  0
   22.0411   -3.9771  -15.1361 C   0  0  0  0  0  0  0  0  0  0  0  0
   21.3475   -3.1442  -14.1058 C   0  0  0  0  0  0  0  0  0  0  0  0
   21.5680   -1.7948  -13.9774 O   0  0  0  0  0  0  0  0  0  0  0  0
   20.5358   -3.7006  -13.3324 O   0  0  0  0  0  0  0  0  0  0  0  0
  2  6  1  0
  2  3  1  0
  2  1  1  6
  3  4  1  0
  4  8  1  0
  4  5  2  0
  6  7  2  0
  9 10  1  0
  9  6  1  0
 10 16  1  0
 11 12  1  0
 10 11  1  6
 12 13  1  0
 13 14  1  0
 14 15  1  0
 16 18  1  0
 16 17  2  0
 18 19  1  0
 20 21  1  0
 20 19  1  0
 22 20  2  0
M  END
$$$$
