DKG.pdb
     RDKit          3D

 22 21  0  0  1  0  0  0  0  0999 V2000
   17.6912  -11.3069  -15.0004 N   0  0  0  0  0  0  0  0  0  0  0  0
   18.4593  -10.4409  -15.8741 C   0  0  1  0  0  0  0  0  0  0  0  0
   17.5831   -9.3804  -16.4737 C   0  0  0  0  0  0  0  0  0  0  0  0
   16.6059   -9.9291  -17.4335 C   0  0  0  0  0  0  0  0  0  0  0  0
   16.1095  -11.0634  -17.2170 O   0  0  0  0  0  0  0  0  0  0  0  0
   19.6334   -9.8548  -15.1609 C   0  0  0  0  0  0  0  0  0  0  0  0
   19.5414   -9.4693  -13.9739 O   0  0  0  0  0  0  0  0  0  0  0  0
   16.1926   -9.2635  -18.5784 O   0  0  0  0  0  0  0  0  0  0  0  0
   20.8575   -9.7328  -15.8260 N   0  0  0  0  0  0  0  0  0  0  0  0
   22.0792   -9.2063  -15.1942 C   0  0  1  0  0  0  0  0  0  0  0  0
   23.2272   -9.9644  -15.8270 C   0  0  0  0  0  0  0  0  0  0  0  0
   23.4599  -11.3249  -15.2904 C   0  0  0  0  0  0  0  0  0  0  0  0
   24.5712  -12.0112  -16.0886 C   0  0  0  0  0  0  0  0  0  0  0  0
   24.6541  -13.4756  -15.7217 C   0  0  0  0  0  0  0  0  0  0  0  0
   25.6629  -14.1499  -16.5132 N   0  0  0  0  0  0  0  0  0  0  0  0
   22.1611   -7.7547  -15.3242 C   0  0  0  0  0  0  0  0  0  0  0  0
   21.8123   -7.2469  -16.4463 O   0  0  0  0  0  0  0  0  0  0  0  0
   22.5849   -6.8352  -14.3331 N   0  0  0  0  0  0  0  0  0  0  0  0
   22.7113   -5.4115  -14.5899 C   0  0  0  0  0  0  0  0  0  0  0  0
   21.4727   -4.6945  -14.1560 C   0  0  0  0  0  0  0  0  0  0  0  0
   21.3708   -3.3250  -14.1669 O   0  0  0  0  0  0  0  0  0  0  0  0
   20.4932   -5.3706  -13.7687 O   0  0  0  0  0  0  0  0  0  0  0  0
  2  6  1  0
  2  3  1  0
  2  1  1  1
  3  4  1  0
  4  8  1  0
  4  5  2  0
  6  7  2  0
  9 10  1  0
  9  6  1  0
 10 16  1  0
 11 12  1  0
 10 11  1  6
 12 13  1  0
 13 14  1  0
 14 15  1  0
 16 18  1  0
 16 17  2  0
 18 19  1  0
 20 21  1  0
 20 19  1  0
 22 20  2  0
M  END
$$$$
