DKG.pdb
     RDKit          3D

 22 21  0  0  1  0  0  0  0  0999 V2000
   20.5054   -9.4641  -20.8205 N   0  0  0  0  0  0  0  0  0  0  0  0
   21.2442   -9.4409  -19.5728 C   0  0  1  0  0  0  0  0  0  0  0  0
   22.5834   -8.7905  -19.7614 C   0  0  0  0  0  0  0  0  0  0  0  0
   23.4272   -9.5048  -20.7385 C   0  0  0  0  0  0  0  0  0  0  0  0
   23.4334  -10.7618  -20.7351 O   0  0  0  0  0  0  0  0  0  0  0  0
   20.4551   -8.7850  -18.4876 C   0  0  0  0  0  0  0  0  0  0  0  0
   19.6455   -7.8655  -18.7433 O   0  0  0  0  0  0  0  0  0  0  0  0
   24.2275   -8.8689  -21.6765 O   0  0  0  0  0  0  0  0  0  0  0  0
   20.6200   -9.2014  -17.1628 N   0  0  0  0  0  0  0  0  0  0  0  0
   19.8696   -8.6325  -16.0304 C   0  0  1  0  0  0  0  0  0  0  0  0
   19.2440   -9.8136  -15.3187 C   0  0  0  0  0  0  0  0  0  0  0  0
   18.0496  -10.3900  -15.9776 C   0  0  0  0  0  0  0  0  0  0  0  0
   17.5122  -11.5555  -15.1433 C   0  0  0  0  0  0  0  0  0  0  0  0
   16.1293  -11.2352  -14.6229 C   0  0  0  0  0  0  0  0  0  0  0  0
   15.6557  -12.2804  -13.7384 N   0  0  0  0  0  0  0  0  0  0  0  0
   20.7250   -7.7978  -15.1922 C   0  0  0  0  0  0  0  0  0  0  0  0
   21.9538   -8.1402  -15.0860 O   0  0  0  0  0  0  0  0  0  0  0  0
   20.3418   -6.6355  -14.4786 N   0  0  0  0  0  0  0  0  0  0  0  0
   21.2616   -5.9013  -13.6277 C   0  0  0  0  0  0  0  0  0  0  0  0
   21.9739   -4.8511  -14.4190 C   0  0  0  0  0  0  0  0  0  0  0  0
   22.8029   -3.9241  -13.8366 O   0  0  0  0  0  0  0  0  0  0  0  0
   21.8064   -4.8181  -15.6589 O   0  0  0  0  0  0  0  0  0  0  0  0
  2  6  1  0
  2  3  1  0
  2  1  1  6
  3  4  1  0
  4  8  1  0
  4  5  2  0
  6  7  2  0
  9 10  1  0
  9  6  1  0
 10 16  1  0
 11 12  1  0
 10 11  1  1
 12 13  1  0
 13 14  1  0
 14 15  1  0
 16 18  1  0
 16 17  2  0
 18 19  1  0
 20 21  1  0
 20 19  1  0
 22 20  2  0
M  END
$$$$
