DKG.pdb
     RDKit          3D

 22 21  0  0  1  0  0  0  0  0999 V2000
   26.5101  -33.0876   -4.7421 N   0  0  0  0  0  0  0  0  0  0  0  0
   26.9120  -33.7664   -3.5251 C   0  0  1  0  0  0  0  0  0  0  0  0
   28.3907  -34.0220   -3.5239 C   0  0  0  0  0  0  0  0  0  0  0  0
   28.7823  -35.0848   -4.4695 C   0  0  0  0  0  0  0  0  0  0  0  0
   27.8968  -35.6283   -5.1769 O   0  0  0  0  0  0  0  0  0  0  0  0
   26.4774  -33.0091   -2.3133 C   0  0  0  0  0  0  0  0  0  0  0  0
   26.7401  -31.7924   -2.1834 O   0  0  0  0  0  0  0  0  0  0  0  0
   30.0860  -35.5307   -4.6313 O   0  0  0  0  0  0  0  0  0  0  0  0
   25.7651  -33.6659   -1.3048 N   0  0  0  0  0  0  0  0  0  0  0  0
   25.1917  -32.9809   -0.1339 C   0  0  1  0  0  0  0  0  0  0  0  0
   23.7129  -33.3061   -0.1525 C   0  0  0  0  0  0  0  0  0  0  0  0
   22.9073  -32.6524    0.9043 C   0  0  0  0  0  0  0  0  0  0  0  0
   21.4313  -33.0178    0.7280 C   0  0  0  0  0  0  0  0  0  0  0  0
   20.5922  -32.3402    1.7876 C   0  0  0  0  0  0  0  0  0  0  0  0
   19.1874  -32.6444    1.6064 N   0  0  0  0  0  0  0  0  0  0  0  0
   25.8844  -33.3585    1.0943 C   0  0  0  0  0  0  0  0  0  0  0  0
   26.4177  -34.5216    1.1315 O   0  0  0  0  0  0  0  0  0  0  0  0
   26.0366  -32.5696    2.2611 N   0  0  0  0  0  0  0  0  0  0  0  0
   26.7804  -33.0256    3.4221 C   0  0  0  0  0  0  0  0  0  0  0  0
   26.7797  -31.9730    4.4845 C   0  0  0  0  0  0  0  0  0  0  0  0
   27.3386  -32.1742    5.7226 O   0  0  0  0  0  0  0  0  0  0  0  0
   26.2489  -30.8678    4.2329 O   0  0  0  0  0  0  0  0  0  0  0  0
  2  6  1  0
  2  3  1  0
  2  1  1  6
  3  4  1  0
  4  8  1  0
  4  5  2  0
  6  7  2  0
  9 10  1  0
  9  6  1  0
 10 16  1  0
 11 12  1  0
 10 11  1  1
 12 13  1  0
 13 14  1  0
 14 15  1  0
 16 18  1  0
 16 17  2  0
 18 19  1  0
 20 21  1  0
 20 19  1  0
 22 20  2  0
M  END
$$$$
