DKG.pdb
     RDKit          3D

 22 21  0  0  1  0  0  0  0  0999 V2000
   18.9372   -9.3498  -12.1829 N   0  0  0  0  0  0  0  0  0  0  0  0
   18.6679   -8.1392  -12.9347 C   0  0  1  0  0  0  0  0  0  0  0  0
   18.2409   -8.4686  -14.3351 C   0  0  0  0  0  0  0  0  0  0  0  0
   19.3144   -9.1099  -15.1183 C   0  0  0  0  0  0  0  0  0  0  0  0
   19.5320  -10.3382  -14.9632 O   0  0  0  0  0  0  0  0  0  0  0  0
   17.6672   -7.2784  -12.2359 C   0  0  0  0  0  0  0  0  0  0  0  0
   17.3404   -6.1623  -12.6984 O   0  0  0  0  0  0  0  0  0  0  0  0
   20.1125   -8.4343  -16.0300 O   0  0  0  0  0  0  0  0  0  0  0  0
   17.0831   -7.7224  -11.0454 N   0  0  0  0  0  0  0  0  0  0  0  0
   15.9964   -7.0073  -10.3548 C   0  0  1  0  0  0  0  0  0  0  0  0
   15.1946   -8.0737   -9.6385 C   0  0  0  0  0  0  0  0  0  0  0  0
   13.9982   -7.5869   -8.9141 C   0  0  0  0  0  0  0  0  0  0  0  0
   13.0992   -8.7707   -8.5489 C   0  0  0  0  0  0  0  0  0  0  0  0
   11.8395   -8.2837   -7.8692 C   0  0  0  0  0  0  0  0  0  0  0  0
   10.9301   -9.3832   -7.6182 N   0  0  0  0  0  0  0  0  0  0  0  0
   16.5192   -5.9533   -9.4909 C   0  0  0  0  0  0  0  0  0  0  0  0
   17.4116   -6.2863   -8.6357 O   0  0  0  0  0  0  0  0  0  0  0  0
   16.1465   -4.5864   -9.4971 N   0  0  0  0  0  0  0  0  0  0  0  0
   16.6546   -3.6328   -8.5268 C   0  0  0  0  0  0  0  0  0  0  0  0
   16.1952   -2.2512   -8.8682 C   0  0  0  0  0  0  0  0  0  0  0  0
   16.4131   -1.1760   -8.0421 O   0  0  0  0  0  0  0  0  0  0  0  0
   15.5894   -2.0707   -9.9485 O   0  0  0  0  0  0  0  0  0  0  0  0
  2  6  1  0
  2  3  1  0
  2  1  1  1
  3  4  1  0
  4  8  1  0
  4  5  2  0
  6  7  2  0
  9 10  1  0
  9  6  1  0
 10 16  1  0
 11 12  1  0
 10 11  1  1
 12 13  1  0
 13 14  1  0
 14 15  1  0
 16 18  1  0
 16 17  2  0
 18 19  1  0
 20 21  1  0
 20 19  1  0
 22 20  2  0
M  END
$$$$
