DKG.pdb
     RDKit          3D

 22 21  0  0  1  0  0  0  0  0999 V2000
   15.4487  -10.8161   -9.7460 N   0  0  0  0  0  0  0  0  0  0  0  0
   15.3637  -10.2855  -11.0931 C   0  0  1  0  0  0  0  0  0  0  0  0
   13.9979  -10.5186  -11.6696 C   0  0  0  0  0  0  0  0  0  0  0  0
   13.7257  -11.9468  -11.9210 C   0  0  0  0  0  0  0  0  0  0  0  0
   14.3402  -12.8124  -11.2480 O   0  0  0  0  0  0  0  0  0  0  0  0
   15.7450   -8.8419  -11.1321 C   0  0  0  0  0  0  0  0  0  0  0  0
   15.8994   -8.2440  -12.2206 O   0  0  0  0  0  0  0  0  0  0  0  0
   12.8205  -12.4041  -12.8677 O   0  0  0  0  0  0  0  0  0  0  0  0
   15.9338   -8.1429   -9.9357 N   0  0  0  0  0  0  0  0  0  0  0  0
   16.2484   -6.7055   -9.8728 C   0  0  1  0  0  0  0  0  0  0  0  0
   15.4683   -6.1667   -8.6920 C   0  0  0  0  0  0  0  0  0  0  0  0
   15.5400   -4.6999   -8.5018 C   0  0  0  0  0  0  0  0  0  0  0  0
   14.5433   -4.2703   -7.4224 C   0  0  0  0  0  0  0  0  0  0  0  0
   14.5496   -2.7661   -7.2701 C   0  0  0  0  0  0  0  0  0  0  0  0
   13.5605   -2.3411   -6.3007 N   0  0  0  0  0  0  0  0  0  0  0  0
   17.6890   -6.4795   -9.8070 C   0  0  0  0  0  0  0  0  0  0  0  0
   18.2487   -6.6002   -8.6621 O   0  0  0  0  0  0  0  0  0  0  0  0
   18.5462   -6.1414  -10.8831 N   0  0  0  0  0  0  0  0  0  0  0  0
   19.9866   -6.0345  -10.7319 C   0  0  0  0  0  0  0  0  0  0  0  0
   20.6077   -5.5581  -12.0061 C   0  0  0  0  0  0  0  0  0  0  0  0
   21.9304   -5.1992  -12.0930 O   0  0  0  0  0  0  0  0  0  0  0  0
   19.8927   -5.4848  -13.0308 O   0  0  0  0  0  0  0  0  0  0  0  0
  2  6  1  0
  2  3  1  0
  2  1  1  1
  3  4  1  0
  4  8  1  0
  4  5  2  0
  6  7  2  0
  9 10  1  0
  9  6  1  0
 10 16  1  0
 11 12  1  0
 10 11  1  1
 12 13  1  0
 13 14  1  0
 14 15  1  0
 16 18  1  0
 16 17  2  0
 18 19  1  0
 20 21  1  0
 20 19  1  0
 22 20  2  0
M  END
$$$$
