DKG.pdb
     RDKit          3D

 22 21  0  0  1  0  0  0  0  0999 V2000
   26.3588  -12.0381  -15.9803 N   0  0  0  0  0  0  0  0  0  0  0  0
   26.9439  -10.7736  -16.3830 C   0  0  1  0  0  0  0  0  0  0  0  0
   27.8285  -10.9563  -17.5814 C   0  0  0  0  0  0  0  0  0  0  0  0
   28.9260  -11.9112  -17.3347 C   0  0  0  0  0  0  0  0  0  0  0  0
   30.0023  -11.4890  -16.8415 O   0  0  0  0  0  0  0  0  0  0  0  0
   25.8917   -9.7407  -16.6206 C   0  0  0  0  0  0  0  0  0  0  0  0
   26.1975   -8.5583  -16.8941 O   0  0  0  0  0  0  0  0  0  0  0  0
   28.8459  -13.2673  -17.6164 O   0  0  0  0  0  0  0  0  0  0  0  0
   24.5415  -10.0955  -16.5371 N   0  0  0  0  0  0  0  0  0  0  0  0
   23.4352   -9.1534  -16.7770 C   0  0  1  0  0  0  0  0  0  0  0  0
   22.2794   -9.9967  -17.2730 C   0  0  0  0  0  0  0  0  0  0  0  0
   21.0322   -9.2532  -17.5641 C   0  0  0  0  0  0  0  0  0  0  0  0
   19.9497  -10.2267  -18.0369 C   0  0  0  0  0  0  0  0  0  0  0  0
   18.6896   -9.4748  -18.4012 C   0  0  0  0  0  0  0  0  0  0  0  0
   17.6762  -10.3791  -18.9054 N   0  0  0  0  0  0  0  0  0  0  0  0
   23.1453   -8.3603  -15.5863 C   0  0  0  0  0  0  0  0  0  0  0  0
   23.2514   -8.9459  -14.4529 O   0  0  0  0  0  0  0  0  0  0  0  0
   22.7590   -6.9979  -15.5460 N   0  0  0  0  0  0  0  0  0  0  0  0
   22.4033   -6.3220  -14.3108 C   0  0  0  0  0  0  0  0  0  0  0  0
   22.1552   -4.8697  -14.5674 C   0  0  0  0  0  0  0  0  0  0  0  0
   22.3081   -4.3033  -15.8091 O   0  0  0  0  0  0  0  0  0  0  0  0
   21.7945   -4.1453  -13.6126 O   0  0  0  0  0  0  0  0  0  0  0  0
  2  6  1  0
  2  3  1  0
  2  1  1  6
  3  4  1  0
  4  8  1  0
  4  5  2  0
  6  7  2  0
  9 10  1  0
  9  6  1  0
 10 16  1  0
 11 12  1  0
 10 11  1  1
 12 13  1  0
 13 14  1  0
 14 15  1  0
 16 18  1  0
 16 17  2  0
 18 19  1  0
 20 21  1  0
 20 19  1  0
 22 20  2  0
M  END
$$$$
