DKG.pdb
     RDKit          3D

 22 21  0  0  1  0  0  0  0  0999 V2000
   17.8021   -9.8322  -16.8064 N   0  0  0  0  0  0  0  0  0  0  0  0
   17.8063   -9.6261  -15.3708 C   0  0  1  0  0  0  0  0  0  0  0  0
   17.2875  -10.8412  -14.6591 C   0  0  0  0  0  0  0  0  0  0  0  0
   15.8999  -11.1700  -15.0381 C   0  0  0  0  0  0  0  0  0  0  0  0
   15.2012  -10.2967  -15.6117 O   0  0  0  0  0  0  0  0  0  0  0  0
   19.1622   -9.2325  -14.8836 C   0  0  0  0  0  0  0  0  0  0  0  0
   19.4091   -9.1479  -13.6597 O   0  0  0  0  0  0  0  0  0  0  0  0
   15.3064  -12.4008  -14.7985 O   0  0  0  0  0  0  0  0  0  0  0  0
   20.1754   -8.9532  -15.8061 N   0  0  0  0  0  0  0  0  0  0  0  0
   21.5626   -8.6404  -15.4229 C   0  0  1  0  0  0  0  0  0  0  0  0
   22.4310   -9.2173  -16.5211 C   0  0  0  0  0  0  0  0  0  0  0  0
   22.4461  -10.6957  -16.6059 C   0  0  0  0  0  0  0  0  0  0  0  0
   23.3935  -11.1387  -17.7236 C   0  0  0  0  0  0  0  0  0  0  0  0
   23.4427  -12.6477  -17.8033 C   0  0  0  0  0  0  0  0  0  0  0  0
   24.4391  -13.0820  -18.7611 N   0  0  0  0  0  0  0  0  0  0  0  0
   21.7403   -7.2101  -15.1922 C   0  0  0  0  0  0  0  0  0  0  0  0
   21.1887   -6.4098  -16.0253 O   0  0  0  0  0  0  0  0  0  0  0  0
   22.4604   -6.6030  -14.1339 N   0  0  0  0  0  0  0  0  0  0  0  0
   22.5924   -5.1626  -14.0029 C   0  0  0  0  0  0  0  0  0  0  0  0
   21.5161   -4.6219  -13.1165 C   0  0  0  0  0  0  0  0  0  0  0  0
   21.4870   -3.3116  -12.7066 O   0  0  0  0  0  0  0  0  0  0  0  0
   20.6088   -5.3951  -12.7352 O   0  0  0  0  0  0  0  0  0  0  0  0
  2  6  1  0
  2  3  1  0
  2  1  1  6
  3  4  1  0
  4  8  1  0
  4  5  2  0
  6  7  2  0
  9 10  1  0
  9  6  1  0
 10 16  1  0
 11 12  1  0
 10 11  1  6
 12 13  1  0
 13 14  1  0
 14 15  1  0
 16 18  1  0
 16 17  2  0
 18 19  1  0
 20 21  1  0
 20 19  1  0
 22 20  2  0
M  END
$$$$
