DKG.pdb
     RDKit          3D

 22 21  0  0  1  0  0  0  0  0999 V2000
   20.4539  -12.7104  -17.1986 N   0  0  0  0  0  0  0  0  0  0  0  0
   21.2789  -11.8439  -16.3789 C   0  0  1  0  0  0  0  0  0  0  0  0
   22.7341  -12.1489  -16.5827 C   0  0  0  0  0  0  0  0  0  0  0  0
   23.6066  -11.3770  -15.6771 C   0  0  0  0  0  0  0  0  0  0  0  0
   23.0810  -10.6200  -14.8224 O   0  0  0  0  0  0  0  0  0  0  0  0
   20.9715  -10.4044  -16.6320 C   0  0  0  0  0  0  0  0  0  0  0  0
   21.1216   -9.9021  -17.7684 O   0  0  0  0  0  0  0  0  0  0  0  0
   24.9924  -11.4334  -15.7082 O   0  0  0  0  0  0  0  0  0  0  0  0
   20.5082   -9.6008  -15.5854 N   0  0  0  0  0  0  0  0  0  0  0  0
   20.1973   -8.1689  -15.7338 C   0  0  1  0  0  0  0  0  0  0  0  0
   18.6994   -8.0532  -15.5443 C   0  0  0  0  0  0  0  0  0  0  0  0
   17.8808   -8.4461  -16.7141 C   0  0  0  0  0  0  0  0  0  0  0  0
   16.3947   -8.3375  -16.3638 C   0  0  0  0  0  0  0  0  0  0  0  0
   15.5453   -8.7728  -17.5364 C   0  0  0  0  0  0  0  0  0  0  0  0
   14.1469   -8.8413  -17.1638 N   0  0  0  0  0  0  0  0  0  0  0  0
   20.9929   -7.3552  -14.8196 C   0  0  0  0  0  0  0  0  0  0  0  0
   20.9486   -7.6582  -13.5767 O   0  0  0  0  0  0  0  0  0  0  0  0
   21.8209   -6.2573  -15.1605 N   0  0  0  0  0  0  0  0  0  0  0  0
   22.5683   -5.5038  -14.1692 C   0  0  0  0  0  0  0  0  0  0  0  0
   21.7540   -4.3528  -13.6707 C   0  0  0  0  0  0  0  0  0  0  0  0
   22.2553   -3.4170  -12.7995 O   0  0  0  0  0  0  0  0  0  0  0  0
   20.5711   -4.2404  -14.0639 O   0  0  0  0  0  0  0  0  0  0  0  0
  2  6  1  0
  2  3  1  0
  2  1  1  6
  3  4  1  0
  4  8  1  0
  4  5  2  0
  6  7  2  0
  9 10  1  0
  9  6  1  0
 10 16  1  0
 11 12  1  0
 10 11  1  1
 12 13  1  0
 13 14  1  0
 14 15  1  0
 16 18  1  0
 16 17  2  0
 18 19  1  0
 20 21  1  0
 20 19  1  0
 22 20  2  0
M  END
$$$$
