DIK.pdb
     RDKit          3D

 26 25  0  0  1  0  0  0  0  0999 V2000
    8.9553  -15.6708   20.3188 N   0  0  0  0  0  0  0  0  0  0  0  0
    8.1821  -16.0967   21.4452 C   0  0  1  0  0  0  0  0  0  0  0  0
    8.3070  -17.5972   21.6852 C   0  0  0  0  0  0  0  0  0  0  0  0
    7.7802  -18.2931   20.4907 C   0  0  0  0  0  0  0  0  0  0  0  0
    6.5263  -18.4944   20.3838 O   0  0  0  0  0  0  0  0  0  0  0  0
    8.6325  -15.4365   22.7139 C   0  0  0  0  0  0  0  0  0  0  0  0
    9.8719  -15.3899   22.9300 O   0  0  0  0  0  0  0  0  0  0  0  0
    8.6035  -18.7471   19.4586 O   0  0  0  0  0  0  0  0  0  0  0  0
    6.4542  -11.3360   26.7249 C   0  0  0  0  0  0  0  0  0  0  0  0
    7.5638  -12.3216   26.3274 C   0  0  0  0  0  0  0  0  0  0  0  0
    7.1234  -13.1509   25.1675 C   0  0  2  0  0  0  0  0  0  0  0  0
    5.8265  -13.8402   25.5799 C   0  0  0  0  0  0  0  0  0  0  0  0
    8.1686  -14.1502   24.7760 C   0  0  2  0  0  0  0  0  0  0  0  0
    7.6888  -14.9027   23.6026 N   0  0  0  0  0  0  0  0  0  0  0  0
    8.5417  -15.1120   25.8369 C   0  0  0  0  0  0  0  0  0  0  0  0
    7.7871  -16.1244   26.0767 O   0  0  0  0  0  0  0  0  0  0  0  0
    9.7092  -15.0005   26.6273 N   0  0  0  0  0  0  0  0  0  0  0  0
   10.0643  -16.1264   27.4966 C   0  0  1  0  0  0  0  0  0  0  0  0
   11.2209  -16.8925   26.8462 C   0  0  0  0  0  0  0  0  0  0  0  0
   11.6171  -18.0098   27.7298 C   0  0  0  0  0  0  0  0  0  0  0  0
   12.7332  -18.8598   27.1571 C   0  0  0  0  0  0  0  0  0  0  0  0
   13.1289  -19.9935   28.0524 C   0  0  0  0  0  0  0  0  0  0  0  0
   14.0441  -20.9139   27.4525 N   0  0  0  0  0  0  0  0  0  0  0  0
   10.3974  -15.5981   28.8264 C   0  0  0  0  0  0  0  0  0  0  0  0
   10.5613  -16.4638   29.9043 O   0  0  0  0  0  0  0  0  0  0  0  0
   10.5519  -14.3834   29.0818 O   0  0  0  0  0  0  0  0  0  0  0  0
  2  1  1  6
  2  3  1  0
  3  4  1  0
  4  8  1  0
  5  4  2  0
  6  7  2  0
  6  2  1  0
  9 10  1  0
 10 11  1  0
 11 13  1  0
 11 12  1  1
 13 14  1  6
 14  6  1  0
 15 13  1  0
 16 15  2  0
 17 15  1  0
 18 17  1  0
 18 19  1  6
 20 19  1  0
 20 21  1  0
 22 21  1  0
 23 22  1  0
 24 25  1  0
 24 18  1  0
 26 24  2  0
M  END
$$$$
