DIK.pdb
     RDKit          3D

 26 25  0  0  1  0  0  0  0  0999 V2000
    8.2458  -14.7269   20.3036 N   0  0  0  0  0  0  0  0  0  0  0  0
    7.6946  -15.4893   21.3821 C   0  0  1  0  0  0  0  0  0  0  0  0
    7.8769  -16.9880   21.1696 C   0  0  0  0  0  0  0  0  0  0  0  0
    7.1636  -17.3603   19.9281 C   0  0  0  0  0  0  0  0  0  0  0  0
    7.7755  -18.0218   19.0270 O   0  0  0  0  0  0  0  0  0  0  0  0
    8.3608  -15.1730   22.6876 C   0  0  0  0  0  0  0  0  0  0  0  0
    9.6195  -15.1490   22.7005 O   0  0  0  0  0  0  0  0  0  0  0  0
    5.8311  -17.0163   19.6925 O   0  0  0  0  0  0  0  0  0  0  0  0
    6.0098  -11.5292   25.7720 C   0  0  0  0  0  0  0  0  0  0  0  0
    7.0967  -12.3538   25.0653 C   0  0  0  0  0  0  0  0  0  0  0  0
    7.3847  -13.5961   25.8403 C   0  0  2  0  0  0  0  0  0  0  0  0
    8.0364  -13.1630   27.1498 C   0  0  0  0  0  0  0  0  0  0  0  0
    8.2718  -14.5299   25.0752 C   0  0  2  0  0  0  0  0  0  0  0  0
    7.5873  -14.9192   23.8289 N   0  0  0  0  0  0  0  0  0  0  0  0
    8.6647  -15.7562   25.8043 C   0  0  0  0  0  0  0  0  0  0  0  0
    7.8034  -16.6912   25.9940 O   0  0  0  0  0  0  0  0  0  0  0  0
    9.9620  -15.9867   26.3181 N   0  0  0  0  0  0  0  0  0  0  0  0
   10.2571  -17.3082   26.8801 C   0  0  1  0  0  0  0  0  0  0  0  0
   11.4494  -17.9003   26.1213 C   0  0  0  0  0  0  0  0  0  0  0  0
   11.8184  -19.1935   26.7357 C   0  0  0  0  0  0  0  0  0  0  0  0
   13.0296  -19.8383   26.0928 C   0  0  0  0  0  0  0  0  0  0  0  0
   13.3953  -21.1525   26.7115 C   0  0  0  0  0  0  0  0  0  0  0  0
   14.5516  -21.7636   26.1336 N   0  0  0  0  0  0  0  0  0  0  0  0
   10.5078  -17.1543   28.3195 C   0  0  0  0  0  0  0  0  0  0  0  0
   10.4939  -18.2664   29.1569 O   0  0  0  0  0  0  0  0  0  0  0  0
   10.7420  -16.0605   28.8793 O   0  0  0  0  0  0  0  0  0  0  0  0
  2  1  1  6
  2  3  1  0
  3  4  1  0
  4  8  1  0
  5  4  2  0
  6  7  2  0
  6  2  1  0
  9 10  1  0
 10 11  1  0
 11 13  1  0
 11 12  1  1
 13 14  1  6
 14  6  1  0
 15 13  1  0
 16 15  2  0
 17 15  1  0
 18 17  1  0
 18 19  1  6
 20 19  1  0
 20 21  1  0
 22 21  1  0
 23 22  1  0
 24 25  1  0
 24 18  1  0
 26 24  2  0
M  END
$$$$
