DIK.pdb
     RDKit          3D

 26 25  0  0  1  0  0  0  0  0999 V2000
    8.3321  -15.0827   20.6267 N   0  0  0  0  0  0  0  0  0  0  0  0
    7.7846  -15.6766   21.8081 C   0  0  1  0  0  0  0  0  0  0  0  0
    7.9993  -17.1858   21.8369 C   0  0  0  0  0  0  0  0  0  0  0  0
    7.2779  -17.7688   20.6844 C   0  0  0  0  0  0  0  0  0  0  0  0
    6.8913  -17.0094   19.7368 O   0  0  0  0  0  0  0  0  0  0  0  0
    8.4301  -15.1436   23.0521 C   0  0  0  0  0  0  0  0  0  0  0  0
    9.6824  -15.0151   23.0410 O   0  0  0  0  0  0  0  0  0  0  0  0
    6.9957  -19.1324   20.5833 O   0  0  0  0  0  0  0  0  0  0  0  0
    5.6081  -11.5871   25.9414 C   0  0  0  0  0  0  0  0  0  0  0  0
    6.7764  -12.2892   25.2324 C   0  0  0  0  0  0  0  0  0  0  0  0
    7.3117  -13.3880   26.0887 C   0  0  2  0  0  0  0  0  0  0  0  0
    7.9456  -12.7314   27.3110 C   0  0  0  0  0  0  0  0  0  0  0  0
    8.3052  -14.2297   25.3480 C   0  0  2  0  0  0  0  0  0  0  0  0
    7.6451  -14.8112   24.1650 N   0  0  0  0  0  0  0  0  0  0  0  0
    8.9104  -15.3236   26.1398 C   0  0  0  0  0  0  0  0  0  0  0  0
    8.2105  -16.3589   26.4400 O   0  0  0  0  0  0  0  0  0  0  0  0
   10.2480  -15.3178   26.5992 N   0  0  0  0  0  0  0  0  0  0  0  0
   10.7346  -16.4965   27.3226 C   0  0  1  0  0  0  0  0  0  0  0  0
   12.0535  -16.9444   26.6842 C   0  0  0  0  0  0  0  0  0  0  0  0
   12.5750  -18.1137   27.4236 C   0  0  0  0  0  0  0  0  0  0  0  0
   13.9403  -18.5648   26.9453 C   0  0  0  0  0  0  0  0  0  0  0  0
   14.4299  -19.7981   27.6402 C   0  0  0  0  0  0  0  0  0  0  0  0
   15.6056  -20.3646   27.0560 N   0  0  0  0  0  0  0  0  0  0  0  0
   10.8705  -16.1455   28.7426 C   0  0  0  0  0  0  0  0  0  0  0  0
   11.0031  -17.1449   29.7028 O   0  0  0  0  0  0  0  0  0  0  0  0
   10.8766  -14.9735   29.1796 O   0  0  0  0  0  0  0  0  0  0  0  0
  2  1  1  6
  2  3  1  0
  3  4  1  0
  4  8  1  0
  5  4  2  0
  6  7  2  0
  6  2  1  0
  9 10  1  0
 10 11  1  0
 11 13  1  0
 11 12  1  1
 13 14  1  6
 14  6  1  0
 15 13  1  0
 16 15  2  0
 17 15  1  0
 18 17  1  0
 18 19  1  6
 20 19  1  0
 20 21  1  0
 22 21  1  0
 23 22  1  0
 24 25  1  0
 24 18  1  0
 26 24  2  0
M  END
$$$$
