DIK.pdb
     RDKit          3D

 26 25  0  0  1  0  0  0  0  0999 V2000
    8.5965  -15.4900   20.5240 N   0  0  0  0  0  0  0  0  0  0  0  0
    7.9568  -15.9290   21.7265 C   0  0  1  0  0  0  0  0  0  0  0  0
    8.0850  -17.4358   21.9206 C   0  0  0  0  0  0  0  0  0  0  0  0
    7.7082  -18.0907   20.6487 C   0  0  0  0  0  0  0  0  0  0  0  0
    6.6649  -17.7028   20.0281 O   0  0  0  0  0  0  0  0  0  0  0  0
    8.5664  -15.3022   22.9446 C   0  0  0  0  0  0  0  0  0  0  0  0
    9.8076  -15.0927   22.9241 O   0  0  0  0  0  0  0  0  0  0  0  0
    8.4523  -19.1298   20.0866 O   0  0  0  0  0  0  0  0  0  0  0  0
    6.0466  -11.4543   25.6072 C   0  0  0  0  0  0  0  0  0  0  0  0
    7.1411  -12.3359   24.9863 C   0  0  0  0  0  0  0  0  0  0  0  0
    7.4786  -13.4610   25.9067 C   0  0  2  0  0  0  0  0  0  0  0  0
    8.1078  -12.8441   27.1519 C   0  0  0  0  0  0  0  0  0  0  0  0
    8.4063  -14.4432   25.2595 C   0  0  2  0  0  0  0  0  0  0  0  0
    7.7616  -14.9743   24.0447 N   0  0  0  0  0  0  0  0  0  0  0  0
    8.8111  -15.5788   26.1176 C   0  0  0  0  0  0  0  0  0  0  0  0
    7.9536  -16.4852   26.4257 O   0  0  0  0  0  0  0  0  0  0  0  0
   10.1164  -15.7506   26.6343 N   0  0  0  0  0  0  0  0  0  0  0  0
   10.4109  -16.9844   27.3695 C   0  0  1  0  0  0  0  0  0  0  0  0
   11.5971  -17.6786   26.6921 C   0  0  0  0  0  0  0  0  0  0  0  0
   12.8508  -17.0284   27.1298 C   0  0  0  0  0  0  0  0  0  0  0  0
   14.0451  -17.3904   26.2702 C   0  0  0  0  0  0  0  0  0  0  0  0
   15.3058  -16.7011   26.6933 C   0  0  0  0  0  0  0  0  0  0  0  0
   16.4469  -17.0428   25.9024 N   0  0  0  0  0  0  0  0  0  0  0  0
   10.6702  -16.6370   28.7732 C   0  0  0  0  0  0  0  0  0  0  0  0
   10.9317  -17.6363   29.7065 O   0  0  0  0  0  0  0  0  0  0  0  0
   10.6749  -15.4682   29.2187 O   0  0  0  0  0  0  0  0  0  0  0  0
  2  1  1  6
  2  3  1  0
  3  4  1  0
  4  8  1  0
  5  4  2  0
  6  7  2  0
  6  2  1  0
  9 10  1  0
 10 11  1  0
 11 13  1  0
 11 12  1  1
 13 14  1  6
 14  6  1  0
 15 13  1  0
 16 15  2  0
 17 15  1  0
 18 17  1  0
 18 19  1  6
 20 19  1  0
 20 21  1  0
 22 21  1  0
 23 22  1  0
 24 25  1  0
 24 18  1  0
 26 24  2  0
M  END
$$$$
