DIK.pdb
     RDKit          3D

 26 25  0  0  1  0  0  0  0  0999 V2000
    6.9157  -15.9660   21.6425 N   0  0  0  0  0  0  0  0  0  0  0  0
    8.3461  -16.0000   21.6778 C   0  0  1  0  0  0  0  0  0  0  0  0
    8.9619  -15.1299   20.5876 C   0  0  0  0  0  0  0  0  0  0  0  0
    8.8123  -15.8427   19.2999 C   0  0  0  0  0  0  0  0  0  0  0  0
    7.6667  -16.2816   18.9549 O   0  0  0  0  0  0  0  0  0  0  0  0
    8.8855  -15.4789   22.9762 C   0  0  0  0  0  0  0  0  0  0  0  0
   10.1309  -15.3133   23.0570 O   0  0  0  0  0  0  0  0  0  0  0  0
    9.8828  -16.0610   18.4306 O   0  0  0  0  0  0  0  0  0  0  0  0
    5.9758  -11.9444   25.6262 C   0  0  0  0  0  0  0  0  0  0  0  0
    7.2154  -12.6648   25.0738 C   0  0  0  0  0  0  0  0  0  0  0  0
    7.5879  -13.8029   25.9641 C   0  0  2  0  0  0  0  0  0  0  0  0
    8.1525  -13.1991   27.2462 C   0  0  0  0  0  0  0  0  0  0  0  0
    8.5816  -14.7128   25.3091 C   0  0  2  0  0  0  0  0  0  0  0  0
    8.0142  -15.1973   24.0376 N   0  0  0  0  0  0  0  0  0  0  0  0
    8.9904  -15.8798   26.1220 C   0  0  0  0  0  0  0  0  0  0  0  0
    8.1391  -16.8061   26.3849 O   0  0  0  0  0  0  0  0  0  0  0  0
   10.2932  -16.0613   26.6416 N   0  0  0  0  0  0  0  0  0  0  0  0
   10.6176  -17.3523   27.2561 C   0  0  1  0  0  0  0  0  0  0  0  0
   11.7629  -17.9903   26.4631 C   0  0  0  0  0  0  0  0  0  0  0  0
   12.1808  -19.2378   27.1378 C   0  0  0  0  0  0  0  0  0  0  0  0
   13.2883  -19.9713   26.4087 C   0  0  0  0  0  0  0  0  0  0  0  0
   13.6947  -21.2453   27.0835 C   0  0  0  0  0  0  0  0  0  0  0  0
   14.5256  -21.0540   28.2313 N   0  0  0  0  0  0  0  0  0  0  0  0
   10.9510  -17.1227   28.6683 C   0  0  0  0  0  0  0  0  0  0  0  0
   10.9926  -15.8278   29.1778 O   0  0  0  0  0  0  0  0  0  0  0  0
   11.2127  -18.0327   29.4857 O   0  0  0  0  0  0  0  0  0  0  0  0
  2  1  1  1
  2  3  1  0
  3  4  1  0
  4  8  1  0
  5  4  2  0
  6  7  2  0
  6  2  1  0
  9 10  1  0
 10 11  1  0
 11 13  1  0
 11 12  1  1
 13 14  1  6
 14  6  1  0
 15 13  1  0
 16 15  2  0
 17 15  1  0
 18 17  1  0
 18 19  1  6
 20 19  1  0
 20 21  1  0
 22 21  1  0
 23 22  1  0
 24 25  1  0
 24 18  1  0
 26 24  2  0
M  END
$$$$
