DIK.pdb
     RDKit          3D

 26 25  0  0  1  0  0  0  0  0999 V2000
    7.9166  -14.8146   20.5495 N   0  0  0  0  0  0  0  0  0  0  0  0
    7.6240  -15.6076   21.7044 C   0  0  1  0  0  0  0  0  0  0  0  0
    8.1054  -17.0452   21.5431 C   0  0  0  0  0  0  0  0  0  0  0  0
    7.3654  -17.6473   20.4125 C   0  0  0  0  0  0  0  0  0  0  0  0
    8.0086  -18.0813   19.4015 O   0  0  0  0  0  0  0  0  0  0  0  0
    8.3041  -15.0793   22.9318 C   0  0  0  0  0  0  0  0  0  0  0  0
    9.5507  -14.9129   22.8726 O   0  0  0  0  0  0  0  0  0  0  0  0
    5.9743  -17.7648   20.3994 O   0  0  0  0  0  0  0  0  0  0  0  0
    5.9220  -11.3058   25.8447 C   0  0  0  0  0  0  0  0  0  0  0  0
    6.9836  -12.1646   25.1402 C   0  0  0  0  0  0  0  0  0  0  0  0
    7.3517  -13.3308   25.9954 C   0  0  2  0  0  0  0  0  0  0  0  0
    8.0209  -12.7716   27.2470 C   0  0  0  0  0  0  0  0  0  0  0  0
    8.2582  -14.2797   25.2729 C   0  0  2  0  0  0  0  0  0  0  0  0
    7.5561  -14.7919   24.0821 N   0  0  0  0  0  0  0  0  0  0  0  0
    8.7289  -15.4289   26.0777 C   0  0  0  0  0  0  0  0  0  0  0  0
    7.8918  -16.3236   26.4658 O   0  0  0  0  0  0  0  0  0  0  0  0
   10.0769  -15.6263   26.4574 N   0  0  0  0  0  0  0  0  0  0  0  0
   10.4232  -16.8701   27.1519 C   0  0  1  0  0  0  0  0  0  0  0  0
   11.7866  -17.3458   26.6392 C   0  0  0  0  0  0  0  0  0  0  0  0
   11.5797  -18.4136   25.6376 C   0  0  0  0  0  0  0  0  0  0  0  0
   12.8738  -19.0065   25.1180 C   0  0  0  0  0  0  0  0  0  0  0  0
   12.6606  -20.1487   24.1728 C   0  0  0  0  0  0  0  0  0  0  0  0
   13.8703  -20.7740   23.7368 N   0  0  0  0  0  0  0  0  0  0  0  0
   10.4081  -16.6131   28.5983 C   0  0  0  0  0  0  0  0  0  0  0  0
   10.4605  -17.6727   29.4997 O   0  0  0  0  0  0  0  0  0  0  0  0
   10.3487  -15.4728   29.1090 O   0  0  0  0  0  0  0  0  0  0  0  0
  2  1  1  6
  2  3  1  0
  3  4  1  0
  4  8  1  0
  5  4  2  0
  6  7  2  0
  6  2  1  0
  9 10  1  0
 10 11  1  0
 11 13  1  0
 11 12  1  1
 13 14  1  6
 14  6  1  0
 15 13  1  0
 16 15  2  0
 17 15  1  0
 18 17  1  0
 18 19  1  6
 20 19  1  0
 20 21  1  0
 22 21  1  0
 23 22  1  0
 24 25  1  0
 24 18  1  0
 26 24  2  0
M  END
$$$$
