DIK.pdb
     RDKit          3D

 26 25  0  0  1  0  0  0  0  0999 V2000
    7.9309  -14.8613   20.2337 N   0  0  0  0  0  0  0  0  0  0  0  0
    7.2963  -15.3906   21.4022 C   0  0  1  0  0  0  0  0  0  0  0  0
    7.2604  -16.9148   21.3880 C   0  0  0  0  0  0  0  0  0  0  0  0
    6.5928  -17.3412   20.1386 C   0  0  0  0  0  0  0  0  0  0  0  0
    5.8676  -16.5107   19.4996 O   0  0  0  0  0  0  0  0  0  0  0  0
    8.0237  -15.0060   22.6557 C   0  0  0  0  0  0  0  0  0  0  0  0
    9.2819  -14.9999   22.6122 O   0  0  0  0  0  0  0  0  0  0  0  0
    6.7211  -18.6301   19.6176 O   0  0  0  0  0  0  0  0  0  0  0  0
    5.9388  -11.2619   25.8786 C   0  0  0  0  0  0  0  0  0  0  0  0
    6.9433  -12.1250   25.0996 C   0  0  0  0  0  0  0  0  0  0  0  0
    7.2348  -13.3802   25.8523 C   0  0  2  0  0  0  0  0  0  0  0  0
    7.9669  -12.9747   27.1277 C   0  0  0  0  0  0  0  0  0  0  0  0
    8.0524  -14.3346   25.0369 C   0  0  2  0  0  0  0  0  0  0  0  0
    7.3048  -14.6724   23.8121 N   0  0  0  0  0  0  0  0  0  0  0  0
    8.4223  -15.5892   25.7289 C   0  0  0  0  0  0  0  0  0  0  0  0
    7.5169  -16.4593   26.0031 O   0  0  0  0  0  0  0  0  0  0  0  0
    9.7425  -15.9162   26.1167 N   0  0  0  0  0  0  0  0  0  0  0  0
    9.9957  -17.2640   26.6352 C   0  0  1  0  0  0  0  0  0  0  0  0
   10.9652  -17.9730   25.6837 C   0  0  0  0  0  0  0  0  0  0  0  0
   11.3512  -19.2744   26.2696 C   0  0  0  0  0  0  0  0  0  0  0  0
   12.3432  -20.0432   25.4204 C   0  0  0  0  0  0  0  0  0  0  0  0
   12.7247  -21.3654   26.0119 C   0  0  0  0  0  0  0  0  0  0  0  0
   13.4411  -22.2171   25.1142 N   0  0  0  0  0  0  0  0  0  0  0  0
   10.5149  -17.1441   28.0043 C   0  0  0  0  0  0  0  0  0  0  0  0
   10.5250  -18.2498   28.8502 O   0  0  0  0  0  0  0  0  0  0  0  0
   10.9671  -16.0858   28.4944 O   0  0  0  0  0  0  0  0  0  0  0  0
  2  1  1  6
  2  3  1  0
  3  4  1  0
  4  8  1  0
  5  4  2  0
  6  7  2  0
  6  2  1  0
  9 10  1  0
 10 11  1  0
 11 13  1  0
 11 12  1  1
 13 14  1  6
 14  6  1  0
 15 13  1  0
 16 15  2  0
 17 15  1  0
 18 17  1  0
 18 19  1  6
 20 19  1  0
 20 21  1  0
 22 21  1  0
 23 22  1  0
 24 25  1  0
 24 18  1  0
 26 24  2  0
M  END
$$$$
