DIK.pdb
     RDKit          3D

 26 25  0  0  1  0  0  0  0  0999 V2000
    7.4607  -14.8873   20.4000 N   0  0  0  0  0  0  0  0  0  0  0  0
    6.9054  -15.4233   21.6052 C   0  0  1  0  0  0  0  0  0  0  0  0
    6.8075  -16.9441   21.5581 C   0  0  0  0  0  0  0  0  0  0  0  0
    5.9333  -17.3075   20.4213 C   0  0  0  0  0  0  0  0  0  0  0  0
    4.6704  -17.1796   20.5349 O   0  0  0  0  0  0  0  0  0  0  0  0
    7.7499  -15.1005   22.8014 C   0  0  0  0  0  0  0  0  0  0  0  0
    8.9991  -15.1210   22.6465 O   0  0  0  0  0  0  0  0  0  0  0  0
    6.4331  -17.7914   19.2108 O   0  0  0  0  0  0  0  0  0  0  0  0
    6.1147  -11.2308   25.9534 C   0  0  0  0  0  0  0  0  0  0  0  0
    7.0349  -12.1828   25.1739 C   0  0  0  0  0  0  0  0  0  0  0  0
    7.3296  -13.3964   25.9908 C   0  0  2  0  0  0  0  0  0  0  0  0
    8.2094  -12.9478   27.1534 C   0  0  0  0  0  0  0  0  0  0  0  0
    8.0045  -14.4578   25.1771 C   0  0  2  0  0  0  0  0  0  0  0  0
    7.1443  -14.7925   24.0276 N   0  0  0  0  0  0  0  0  0  0  0  0
    8.3199  -15.7025   25.9127 C   0  0  0  0  0  0  0  0  0  0  0  0
    7.3671  -16.4435   26.3543 O   0  0  0  0  0  0  0  0  0  0  0  0
    9.6351  -16.1563   26.1674 N   0  0  0  0  0  0  0  0  0  0  0  0
    9.8018  -17.4614   26.8142 C   0  0  1  0  0  0  0  0  0  0  0  0
   10.5662  -18.3809   25.8561 C   0  0  0  0  0  0  0  0  0  0  0  0
   10.8311  -19.6690   26.5319 C   0  0  0  0  0  0  0  0  0  0  0  0
   11.7283  -20.5918   25.7321 C   0  0  0  0  0  0  0  0  0  0  0  0
   11.8854  -21.9453   26.3540 C   0  0  0  0  0  0  0  0  0  0  0  0
   12.5247  -22.9025   25.5057 N   0  0  0  0  0  0  0  0  0  0  0  0
   10.4930  -17.2592   28.0947 C   0  0  0  0  0  0  0  0  0  0  0  0
   10.4484  -18.2428   29.0790 O   0  0  0  0  0  0  0  0  0  0  0  0
   11.1454  -16.2328   28.3870 O   0  0  0  0  0  0  0  0  0  0  0  0
  2  1  1  6
  2  3  1  0
  3  4  1  0
  4  8  1  0
  5  4  2  0
  6  7  2  0
  6  2  1  0
  9 10  1  0
 10 11  1  0
 11 13  1  0
 11 12  1  1
 13 14  1  6
 14  6  1  0
 15 13  1  0
 16 15  2  0
 17 15  1  0
 18 17  1  0
 18 19  1  6
 20 19  1  0
 20 21  1  0
 22 21  1  0
 23 22  1  0
 24 25  1  0
 24 18  1  0
 26 24  2  0
M  END
$$$$
