DIK.pdb
     RDKit          3D

 26 25  0  0  1  0  0  0  0  0999 V2000
    8.3579  -15.5072   20.8245 N   0  0  0  0  0  0  0  0  0  0  0  0
    7.7028  -15.8886   22.0384 C   0  0  1  0  0  0  0  0  0  0  0  0
    7.6023  -17.4036   22.1778 C   0  0  0  0  0  0  0  0  0  0  0  0
    6.7510  -17.9050   21.0766 C   0  0  0  0  0  0  0  0  0  0  0  0
    7.2696  -18.1282   19.9342 O   0  0  0  0  0  0  0  0  0  0  0  0
    8.4472  -15.4108   23.2491 C   0  0  0  0  0  0  0  0  0  0  0  0
    9.7033  -15.3699   23.1735 O   0  0  0  0  0  0  0  0  0  0  0  0
    5.3851  -18.1493   21.2313 O   0  0  0  0  0  0  0  0  0  0  0  0
    6.2364  -11.4535   26.0389 C   0  0  0  0  0  0  0  0  0  0  0  0
    7.2848  -12.3471   25.3584 C   0  0  0  0  0  0  0  0  0  0  0  0
    7.6511  -13.4832   26.2540 C   0  0  2  0  0  0  0  0  0  0  0  0
    8.3814  -12.8871   27.4533 C   0  0  0  0  0  0  0  0  0  0  0  0
    8.5034  -14.4910   25.5453 C   0  0  2  0  0  0  0  0  0  0  0  0
    7.7458  -15.0323   24.4023 N   0  0  0  0  0  0  0  0  0  0  0  0
    8.9663  -15.6182   26.3849 C   0  0  0  0  0  0  0  0  0  0  0  0
    8.1154  -16.4637   26.8463 O   0  0  0  0  0  0  0  0  0  0  0  0
   10.3209  -15.8461   26.7219 N   0  0  0  0  0  0  0  0  0  0  0  0
   10.6469  -17.0481   27.4954 C   0  0  1  0  0  0  0  0  0  0  0  0
   11.9884  -17.5946   26.9958 C   0  0  0  0  0  0  0  0  0  0  0  0
   11.7876  -18.2373   25.6795 C   0  0  0  0  0  0  0  0  0  0  0  0
   13.0702  -18.7635   25.0678 C   0  0  0  0  0  0  0  0  0  0  0  0
   12.8714  -19.3683   23.7121 C   0  0  0  0  0  0  0  0  0  0  0  0
   14.0602  -19.9253   23.1456 N   0  0  0  0  0  0  0  0  0  0  0  0
   10.6634  -16.6919   28.9205 C   0  0  0  0  0  0  0  0  0  0  0  0
   10.5460  -15.3612   29.3125 O   0  0  0  0  0  0  0  0  0  0  0  0
   10.7800  -17.5200   29.8508 O   0  0  0  0  0  0  0  0  0  0  0  0
  2  1  1  6
  2  3  1  0
  3  4  1  0
  4  8  1  0
  5  4  2  0
  6  7  2  0
  6  2  1  0
  9 10  1  0
 10 11  1  0
 11 13  1  0
 11 12  1  1
 13 14  1  6
 14  6  1  0
 15 13  1  0
 16 15  2  0
 17 15  1  0
 18 17  1  0
 18 19  1  6
 20 19  1  0
 20 21  1  0
 22 21  1  0
 23 22  1  0
 24 25  1  0
 24 18  1  0
 26 24  2  0
M  END
$$$$
