DIK.pdb
     RDKit          3D

 26 25  0  0  1  0  0  0  0  0999 V2000
    8.8036  -15.6476   20.3476 N   0  0  0  0  0  0  0  0  0  0  0  0
    8.0097  -15.9454   21.5006 C   0  0  1  0  0  0  0  0  0  0  0  0
    7.9790  -17.4404   21.7984 C   0  0  0  0  0  0  0  0  0  0  0  0
    7.3047  -18.1145   20.6672 C   0  0  0  0  0  0  0  0  0  0  0  0
    7.9740  -18.4105   19.6239 O   0  0  0  0  0  0  0  0  0  0  0  0
    8.5500  -15.2891   22.7357 C   0  0  0  0  0  0  0  0  0  0  0  0
    9.8014  -15.1963   22.8377 O   0  0  0  0  0  0  0  0  0  0  0  0
    5.9490  -18.4473   20.6880 O   0  0  0  0  0  0  0  0  0  0  0  0
    6.7170  -11.2813   26.9785 C   0  0  0  0  0  0  0  0  0  0  0  0
    7.7924  -12.2512   26.4651 C   0  0  0  0  0  0  0  0  0  0  0  0
    7.2631  -13.0449   25.3177 C   0  0  2  0  0  0  0  0  0  0  0  0
    5.9452  -13.6628   25.7740 C   0  0  0  0  0  0  0  0  0  0  0  0
    8.2346  -14.0987   24.8817 C   0  0  2  0  0  0  0  0  0  0  0  0
    7.6730  -14.8088   23.7182 N   0  0  0  0  0  0  0  0  0  0  0  0
    8.5859  -15.0924   25.9205 C   0  0  0  0  0  0  0  0  0  0  0  0
    7.7451  -16.0116   26.2368 O   0  0  0  0  0  0  0  0  0  0  0  0
    9.8217  -15.1111   26.6080 N   0  0  0  0  0  0  0  0  0  0  0  0
   10.1085  -16.2533   27.4813 C   0  0  1  0  0  0  0  0  0  0  0  0
   11.3022  -17.0179   26.8997 C   0  0  0  0  0  0  0  0  0  0  0  0
   11.5915  -18.1864   27.7582 C   0  0  0  0  0  0  0  0  0  0  0  0
   12.7933  -18.9858   27.2970 C   0  0  0  0  0  0  0  0  0  0  0  0
   13.0136  -20.2327   28.0971 C   0  0  0  0  0  0  0  0  0  0  0  0
   14.0336  -21.0860   27.5719 N   0  0  0  0  0  0  0  0  0  0  0  0
   10.3524  -15.7488   28.8393 C   0  0  0  0  0  0  0  0  0  0  0  0
   10.3731  -14.3787   29.0856 O   0  0  0  0  0  0  0  0  0  0  0  0
   10.5524  -16.4789   29.8351 O   0  0  0  0  0  0  0  0  0  0  0  0
  2  1  1  6
  2  3  1  0
  3  4  1  0
  4  8  1  0
  5  4  2  0
  6  7  2  0
  6  2  1  0
  9 10  1  0
 10 11  1  0
 11 13  1  0
 11 12  1  1
 13 14  1  6
 14  6  1  0
 15 13  1  0
 16 15  2  0
 17 15  1  0
 18 17  1  0
 18 19  1  6
 20 19  1  0
 20 21  1  0
 22 21  1  0
 23 22  1  0
 24 25  1  0
 24 18  1  0
 26 24  2  0
M  END
$$$$
