DIK.pdb
     RDKit          3D

 26 25  0  0  1  0  0  0  0  0999 V2000
    8.4871  -15.0242   20.7219 N   0  0  0  0  0  0  0  0  0  0  0  0
    8.1109  -15.8260   21.8462 C   0  0  1  0  0  0  0  0  0  0  0  0
    8.6392  -17.2514   21.7295 C   0  0  0  0  0  0  0  0  0  0  0  0
    8.0382  -17.8605   20.5226 C   0  0  0  0  0  0  0  0  0  0  0  0
    7.5827  -19.0493   20.5802 O   0  0  0  0  0  0  0  0  0  0  0  0
    8.6652  -15.2837   23.1296 C   0  0  0  0  0  0  0  0  0  0  0  0
    9.9174  -15.1930   23.2229 O   0  0  0  0  0  0  0  0  0  0  0  0
    7.9447  -17.1850   19.3044 O   0  0  0  0  0  0  0  0  0  0  0  0
    5.8213  -11.4830   25.5774 C   0  0  0  0  0  0  0  0  0  0  0  0
    6.9983  -12.2994   25.0216 C   0  0  0  0  0  0  0  0  0  0  0  0
    7.3810  -13.3718   25.9863 C   0  0  2  0  0  0  0  0  0  0  0  0
    7.9493  -12.6784   27.2205 C   0  0  0  0  0  0  0  0  0  0  0  0
    8.3756  -14.3202   25.3901 C   0  0  2  0  0  0  0  0  0  0  0  0
    7.7995  -14.9021   24.1641 N   0  0  0  0  0  0  0  0  0  0  0  0
    8.8023  -15.4205   26.2829 C   0  0  0  0  0  0  0  0  0  0  0  0
    8.1042  -16.4976   26.3494 O   0  0  0  0  0  0  0  0  0  0  0  0
    9.9636  -15.3765   27.0890 N   0  0  0  0  0  0  0  0  0  0  0  0
   10.4066  -16.6187   27.7295 C   0  0  1  0  0  0  0  0  0  0  0  0
   11.6062  -17.1639   26.9476 C   0  0  0  0  0  0  0  0  0  0  0  0
   11.2281  -18.4461   26.3158 C   0  0  0  0  0  0  0  0  0  0  0  0
   12.3592  -19.0869   25.5372 C   0  0  0  0  0  0  0  0  0  0  0  0
   11.9682  -20.3773   24.8850 C   0  0  0  0  0  0  0  0  0  0  0  0
   12.9582  -20.9010   23.9961 N   0  0  0  0  0  0  0  0  0  0  0  0
   10.7174  -16.3297   29.1360 C   0  0  0  0  0  0  0  0  0  0  0  0
   10.6935  -15.0190   29.6048 O   0  0  0  0  0  0  0  0  0  0  0  0
   11.0153  -17.2002   29.9833 O   0  0  0  0  0  0  0  0  0  0  0  0
  2  1  1  6
  2  3  1  0
  3  4  1  0
  4  8  1  0
  5  4  2  0
  6  7  2  0
  6  2  1  0
  9 10  1  0
 10 11  1  0
 11 13  1  0
 11 12  1  1
 13 14  1  6
 14  6  1  0
 15 13  1  0
 16 15  2  0
 17 15  1  0
 18 17  1  0
 18 19  1  6
 20 19  1  0
 20 21  1  0
 22 21  1  0
 23 22  1  0
 24 25  1  0
 24 18  1  0
 26 24  2  0
M  END
$$$$
