DIK.pdb
     RDKit          3D

 26 25  0  0  1  0  0  0  0  0999 V2000
    8.8635  -15.8044   20.4675 N   0  0  0  0  0  0  0  0  0  0  0  0
    8.2671  -16.2149   21.7020 C   0  0  1  0  0  0  0  0  0  0  0  0
    8.5561  -17.6792   22.0133 C   0  0  0  0  0  0  0  0  0  0  0  0
    7.9433  -18.4994   20.9454 C   0  0  0  0  0  0  0  0  0  0  0  0
    7.2123  -17.9388   20.0649 O   0  0  0  0  0  0  0  0  0  0  0  0
    8.7974  -15.4325   22.8661 C   0  0  0  0  0  0  0  0  0  0  0  0
   10.0263  -15.1593   22.8640 O   0  0  0  0  0  0  0  0  0  0  0  0
    8.1304  -19.8800   20.8544 O   0  0  0  0  0  0  0  0  0  0  0  0
    6.8484  -11.4238   27.0154 C   0  0  0  0  0  0  0  0  0  0  0  0
    7.9870  -12.2981   26.4679 C   0  0  0  0  0  0  0  0  0  0  0  0
    7.4777  -13.1831   25.3796 C   0  0  2  0  0  0  0  0  0  0  0  0
    6.1846  -13.8136   25.8869 C   0  0  0  0  0  0  0  0  0  0  0  0
    8.4819  -14.2300   25.0053 C   0  0  2  0  0  0  0  0  0  0  0  0
    7.9357  -15.0362   23.8984 N   0  0  0  0  0  0  0  0  0  0  0  0
    8.8764  -15.1384   26.1049 C   0  0  0  0  0  0  0  0  0  0  0  0
    8.0265  -15.9799   26.5755 O   0  0  0  0  0  0  0  0  0  0  0  0
   10.1637  -15.1553   26.6903 N   0  0  0  0  0  0  0  0  0  0  0  0
   10.4784  -16.2315   27.6349 C   0  0  1  0  0  0  0  0  0  0  0  0
   11.8331  -16.8334   27.2472 C   0  0  0  0  0  0  0  0  0  0  0  0
   11.6204  -17.8866   26.2315 C   0  0  0  0  0  0  0  0  0  0  0  0
   12.9018  -18.5714   25.8011 C   0  0  0  0  0  0  0  0  0  0  0  0
   12.6761  -19.6799   24.8193 C   0  0  0  0  0  0  0  0  0  0  0  0
   13.8793  -20.2142   24.2615 N   0  0  0  0  0  0  0  0  0  0  0  0
   10.4619  -15.6747   28.9942 C   0  0  0  0  0  0  0  0  0  0  0  0
   10.5596  -16.5167   30.0986 O   0  0  0  0  0  0  0  0  0  0  0  0
   10.3624  -14.4549   29.2531 O   0  0  0  0  0  0  0  0  0  0  0  0
  2  1  1  6
  2  3  1  0
  3  4  1  0
  4  8  1  0
  5  4  2  0
  6  7  2  0
  6  2  1  0
  9 10  1  0
 10 11  1  0
 11 13  1  0
 11 12  1  1
 13 14  1  6
 14  6  1  0
 15 13  1  0
 16 15  2  0
 17 15  1  0
 18 17  1  0
 18 19  1  6
 20 19  1  0
 20 21  1  0
 22 21  1  0
 23 22  1  0
 24 25  1  0
 24 18  1  0
 26 24  2  0
M  END
$$$$
