DIK.pdb
     RDKit          3D

 26 25  0  0  1  0  0  0  0  0999 V2000
    9.9796  -18.0438   16.7086 N   0  0  0  0  0  0  0  0  0  0  0  0
    9.0002  -17.9156   17.7442 C   0  0  1  0  0  0  0  0  0  0  0  0
    8.7042  -19.2525   18.4148 C   0  0  0  0  0  0  0  0  0  0  0  0
    7.8290  -20.0299   17.5101 C   0  0  0  0  0  0  0  0  0  0  0  0
    8.2583  -20.3675   16.3587 O   0  0  0  0  0  0  0  0  0  0  0  0
    9.4596  -16.9979   18.8374 C   0  0  0  0  0  0  0  0  0  0  0  0
   10.7011  -16.8344   18.9679 O   0  0  0  0  0  0  0  0  0  0  0  0
    6.5349  -20.4175   17.8627 O   0  0  0  0  0  0  0  0  0  0  0  0
    6.8324  -12.4247   19.9174 C   0  0  0  0  0  0  0  0  0  0  0  0
    7.9452  -13.4677   19.7321 C   0  0  0  0  0  0  0  0  0  0  0  0
    8.0123  -14.3648   20.9228 C   0  0  2  0  0  0  0  0  0  0  0  0
    8.3805  -13.4915   22.1181 C   0  0  0  0  0  0  0  0  0  0  0  0
    9.0088  -15.4662   20.7276 C   0  0  2  0  0  0  0  0  0  0  0  0
    8.5218  -16.3627   19.6634 N   0  0  0  0  0  0  0  0  0  0  0  0
    9.2926  -16.2730   21.9352 C   0  0  0  0  0  0  0  0  0  0  0  0
    8.3499  -16.9484   22.4894 O   0  0  0  0  0  0  0  0  0  0  0  0
   10.5676  -16.3652   22.5402 N   0  0  0  0  0  0  0  0  0  0  0  0
   10.7127  -17.2283   23.7164 C   0  0  1  0  0  0  0  0  0  0  0  0
   11.9354  -18.1278   23.5073 C   0  0  0  0  0  0  0  0  0  0  0  0
   11.7063  -18.9864   22.3256 C   0  0  0  0  0  0  0  0  0  0  0  0
   12.8409  -19.9552   22.0600 C   0  0  0  0  0  0  0  0  0  0  0  0
   12.5677  -20.8828   20.9162 C   0  0  0  0  0  0  0  0  0  0  0  0
   13.6566  -21.7555   20.6046 N   0  0  0  0  0  0  0  0  0  0  0  0
   10.8210  -16.3746   24.9072 C   0  0  0  0  0  0  0  0  0  0  0  0
   11.0222  -15.0037   24.7717 O   0  0  0  0  0  0  0  0  0  0  0  0
   10.7452  -16.7951   26.0828 O   0  0  0  0  0  0  0  0  0  0  0  0
  2  1  1  6
  2  3  1  0
  3  4  1  0
  4  8  1  0
  5  4  2  0
  6  7  2  0
  6  2  1  0
  9 10  1  0
 10 11  1  0
 11 13  1  0
 11 12  1  1
 13 14  1  6
 14  6  1  0
 15 13  1  0
 16 15  2  0
 17 15  1  0
 18 17  1  0
 18 19  1  6
 20 19  1  0
 20 21  1  0
 22 21  1  0
 23 22  1  0
 24 25  1  0
 24 18  1  0
 26 24  2  0
M  END
$$$$
