WVR.pdb
     RDKit          3D

 33 34  0  0  1  0  0  0  0  0999 V2000
   28.5502  -21.2117  -10.3777 N   0  0  0  0  0  0  0  0  0  0  0  0
   27.1465  -20.9012  -10.0671 C   0  0  1  0  0  0  0  0  0  0  0  0
   27.2228  -19.6499   -9.1833 C   0  0  0  0  0  0  0  0  0  0  0  0
   28.3215  -19.8749   -8.2186 C   0  0  0  0  0  0  0  0  0  0  0  0
   29.5489  -20.4628   -8.4839 C   0  0  0  0  0  0  0  0  0  0  0  0
   30.2837  -20.4983   -7.3607 N   0  0  0  0  0  0  0  0  0  0  0  0
   29.5911  -19.9542   -6.3517 C   0  0  0  0  0  0  0  0  0  0  0  0
   29.8483  -19.7337   -5.0186 C   0  0  0  0  0  0  0  0  0  0  0  0
   28.8955  -19.1300   -4.2198 C   0  0  0  0  0  0  0  0  0  0  0  0
   27.6669  -18.7292   -4.7143 C   0  0  0  0  0  0  0  0  0  0  0  0
   27.4183  -18.9578   -6.0655 C   0  0  0  0  0  0  0  0  0  0  0  0
   28.3577  -19.5586   -6.8756 C   0  0  0  0  0  0  0  0  0  0  0  0
   26.3907  -20.6246  -11.3061 C   0  0  0  0  0  0  0  0  0  0  0  0
   26.8519  -19.7624  -12.0963 O   0  0  0  0  0  0  0  0  0  0  0  0
   24.0207  -23.5331  -13.0687 C   0  0  0  0  0  0  0  0  0  0  0  0
   24.6190  -22.3249  -13.7064 C   0  0  2  0  0  0  0  0  0  0  0  0
   26.0340  -22.5564  -14.1858 C   0  0  0  0  0  0  0  0  0  0  0  0
   24.4709  -21.0694  -12.8931 C   0  0  2  0  0  0  0  0  0  0  0  0
   25.1842  -21.2979  -11.6123 N   0  0  0  0  0  0  0  0  0  0  0  0
   23.1087  -20.6646  -12.5746 C   0  0  0  0  0  0  0  0  0  0  0  0
   22.6150  -21.0877  -11.4603 O   0  0  0  0  0  0  0  0  0  0  0  0
   16.9824  -15.5514  -12.2006 N   0  0  0  0  0  0  0  0  0  0  0  0
   17.8138  -15.0944  -13.2537 C   0  0  0  0  0  0  0  0  0  0  0  0
   18.0049  -13.8212  -13.4958 N   0  0  0  0  0  0  0  0  0  0  0  0
   18.5021  -15.9929  -14.1269 N   0  0  0  0  0  0  0  0  0  0  0  0
   18.0839  -17.3514  -14.2371 C   0  0  0  0  0  0  0  0  0  0  0  0
   18.8945  -18.3115  -13.4153 C   0  0  0  0  0  0  0  0  0  0  0  0
   20.2552  -18.5939  -13.9818 C   0  0  0  0  0  0  0  0  0  0  0  0
   20.8938  -19.6436  -13.0647 C   0  0  2  0  0  0  0  0  0  0  0  0
   22.2992  -19.8374  -13.4097 N   0  0  0  0  0  0  0  0  0  0  0  0
   20.1679  -20.9281  -13.1181 C   0  0  0  0  0  0  0  0  0  0  0  0
   19.2709  -21.2391  -12.0923 O   0  0  0  0  0  0  0  0  0  0  0  0
   20.3301  -21.7359  -14.0429 O   0  0  0  0  0  0  0  0  0  0  0  0
  2  1  1  6
  2 13  1  0
  2  3  1  0
  4  3  1  0
  4  5  2  0
  6  5  1  0
  7  6  1  0
  8  7  2  0
  9  8  1  0
 10  9  2  0
 10 11  1  0
 11 12  2  0
 12  7  1  0
 12  4  1  0
 13 14  2  0
 16 15  1  1
 17 16  1  0
 18 16  1  0
 18 19  1  1
 19 13  1  0
 20 18  1  0
 21 20  2  0
 22 23  1  0
 23 25  1  0
 23 24  2  0
 25 26  1  0
 27 26  1  0
 27 28  1  0
 29 28  1  6
 29 30  1  0
 30 20  1  0
 31 29  1  0
 31 32  1  0
 33 31  2  0
M  END
$$$$
