WVR.pdb
     RDKit          3D

 33 34  0  0  1  0  0  0  0  0999 V2000
   28.1917  -22.2227  -10.2641 N   0  0  0  0  0  0  0  0  0  0  0  0
   27.3266  -21.0447  -10.0998 C   0  0  1  0  0  0  0  0  0  0  0  0
   28.3057  -19.8838   -9.8843 C   0  0  0  0  0  0  0  0  0  0  0  0
   28.9258  -20.0892   -8.5570 C   0  0  0  0  0  0  0  0  0  0  0  0
   30.1121  -20.7560   -8.2916 C   0  0  0  0  0  0  0  0  0  0  0  0
   30.3509  -20.7423   -6.9704 N   0  0  0  0  0  0  0  0  0  0  0  0
   29.3654  -20.0891   -6.3411 C   0  0  0  0  0  0  0  0  0  0  0  0
   29.1033  -19.7806   -5.0265 C   0  0  0  0  0  0  0  0  0  0  0  0
   27.9644  -19.0712   -4.6951 C   0  0  0  0  0  0  0  0  0  0  0  0
   27.0565  -18.6485   -5.6499 C   0  0  0  0  0  0  0  0  0  0  0  0
   27.3328  -18.9668   -6.9773 C   0  0  0  0  0  0  0  0  0  0  0  0
   28.4639  -19.6736   -7.3245 C   0  0  0  0  0  0  0  0  0  0  0  0
   26.5118  -20.8271  -11.3129 C   0  0  0  0  0  0  0  0  0  0  0  0
   27.1086  -20.5113  -12.3733 O   0  0  0  0  0  0  0  0  0  0  0  0
   24.1572  -22.0553  -14.7805 C   0  0  0  0  0  0  0  0  0  0  0  0
   24.7744  -22.0398  -13.4228 C   0  0  2  0  0  0  0  0  0  0  0  0
   24.7030  -23.3828  -12.7323 C   0  0  0  0  0  0  0  0  0  0  0  0
   24.3081  -20.9054  -12.5538 C   0  0  2  0  0  0  0  0  0  0  0  0
   25.1034  -20.9649  -11.3025 N   0  0  0  0  0  0  0  0  0  0  0  0
   22.8997  -20.9139  -12.1834 C   0  0  0  0  0  0  0  0  0  0  0  0
   22.5825  -21.5239  -11.0917 O   0  0  0  0  0  0  0  0  0  0  0  0
   16.6779  -17.2924  -15.8753 N   0  0  0  0  0  0  0  0  0  0  0  0
   18.0523  -17.1325  -16.1828 C   0  0  0  0  0  0  0  0  0  0  0  0
   18.5403  -16.0135  -16.6580 N   0  0  0  0  0  0  0  0  0  0  0  0
   19.0030  -18.1836  -15.9961 N   0  0  0  0  0  0  0  0  0  0  0  0
   18.5662  -19.4968  -15.6535 C   0  0  0  0  0  0  0  0  0  0  0  0
   19.4635  -20.2080  -14.6823 C   0  0  0  0  0  0  0  0  0  0  0  0
   19.5569  -19.5382  -13.3427 C   0  0  0  0  0  0  0  0  0  0  0  0
   20.4822  -20.4124  -12.4880 C   0  0  2  0  0  0  0  0  0  0  0  0
   21.8639  -20.2944  -12.9451 N   0  0  0  0  0  0  0  0  0  0  0  0
   20.0559  -21.8258  -12.4944 C   0  0  0  0  0  0  0  0  0  0  0  0
   19.1882  -22.2732  -11.4940 O   0  0  0  0  0  0  0  0  0  0  0  0
   20.4437  -22.6247  -13.3579 O   0  0  0  0  0  0  0  0  0  0  0  0
  2  1  1  6
  2 13  1  0
  2  3  1  0
  4  3  1  0
  4  5  2  0
  6  5  1  0
  7  6  1  0
  8  7  2  0
  9  8  1  0
 10  9  2  0
 10 11  1  0
 11 12  2  0
 12  7  1  0
 12  4  1  0
 13 14  2  0
 16 15  1  6
 17 16  1  0
 18 16  1  0
 18 19  1  1
 19 13  1  0
 20 18  1  0
 21 20  2  0
 22 23  1  0
 23 25  1  0
 23 24  2  0
 25 26  1  0
 27 26  1  0
 27 28  1  0
 29 28  1  6
 29 30  1  0
 30 20  1  0
 31 29  1  0
 31 32  1  0
 33 31  2  0
M  END
$$$$
