WVR.pdb
     RDKit          3D

 33 34  0  0  1  0  0  0  0  0999 V2000
   25.6982  -20.9804  -10.5733 N   0  0  0  0  0  0  0  0  0  0  0  0
   25.0817  -20.8954   -9.2406 C   0  0  1  0  0  0  0  0  0  0  0  0
   25.7446  -19.6722   -8.5948 C   0  0  0  0  0  0  0  0  0  0  0  0
   27.1033  -20.0897   -8.1849 C   0  0  0  0  0  0  0  0  0  0  0  0
   28.0791  -20.6461   -8.9977 C   0  0  0  0  0  0  0  0  0  0  0  0
   29.1803  -20.8979   -8.2720 N   0  0  0  0  0  0  0  0  0  0  0  0
   28.9762  -20.5293   -7.0006 C   0  0  0  0  0  0  0  0  0  0  0  0
   29.7409  -20.5569   -5.8576 C   0  0  0  0  0  0  0  0  0  0  0  0
   29.2225  -20.0865   -4.6658 C   0  0  0  0  0  0  0  0  0  0  0  0
   27.9392  -19.5777   -4.5710 C   0  0  0  0  0  0  0  0  0  0  0  0
   27.1749  -19.5550   -5.7350 C   0  0  0  0  0  0  0  0  0  0  0  0
   27.6768  -20.0203   -6.9314 C   0  0  0  0  0  0  0  0  0  0  0  0
   23.6215  -20.7022   -9.3566 C   0  0  0  0  0  0  0  0  0  0  0  0
   23.2048  -19.8498  -10.1814 O   0  0  0  0  0  0  0  0  0  0  0  0
   21.3819  -23.3493  -10.3899 C   0  0  0  0  0  0  0  0  0  0  0  0
   21.0228  -21.9117  -10.2203 C   0  0  2  0  0  0  0  0  0  0  0  0
   21.6259  -21.0281  -11.2885 C   0  0  0  0  0  0  0  0  0  0  0  0
   21.2438  -21.3879   -8.8288 C   0  0  2  0  0  0  0  0  0  0  0  0
   22.7045  -21.4430   -8.5737 N   0  0  0  0  0  0  0  0  0  0  0  0
   20.5796  -22.1123   -7.7542 C   0  0  0  0  0  0  0  0  0  0  0  0
   21.3325  -22.6584   -6.8602 O   0  0  0  0  0  0  0  0  0  0  0  0
   14.3714  -26.4055   -5.0902 N   0  0  0  0  0  0  0  0  0  0  0  0
   14.3594  -25.6452   -3.8940 C   0  0  0  0  0  0  0  0  0  0  0  0
   14.0361  -26.1637   -2.7353 N   0  0  0  0  0  0  0  0  0  0  0  0
   14.6993  -24.2568   -3.8692 N   0  0  0  0  0  0  0  0  0  0  0  0
   15.1395  -23.6022   -5.0568 C   0  0  0  0  0  0  0  0  0  0  0  0
   16.6322  -23.5248   -5.1973 C   0  0  0  0  0  0  0  0  0  0  0  0
   17.0873  -22.8491   -6.4576 C   0  0  0  0  0  0  0  0  0  0  0  0
   18.6183  -22.9310   -6.4613 C   0  0  2  0  0  0  0  0  0  0  0  0
   19.1643  -22.2506   -7.6321 N   0  0  0  0  0  0  0  0  0  0  0  0
   19.0895  -24.3293   -6.4111 C   0  0  0  0  0  0  0  0  0  0  0  0
   19.4533  -24.8746   -5.1766 O   0  0  0  0  0  0  0  0  0  0  0  0
   19.1717  -25.0313   -7.4282 O   0  0  0  0  0  0  0  0  0  0  0  0
  2  1  1  6
  2 13  1  0
  2  3  1  0
  4  3  1  0
  4  5  2  0
  6  5  1  0
  7  6  1  0
  8  7  2  0
  9  8  1  0
 10  9  2  0
 10 11  1  0
 11 12  2  0
 12  7  1  0
 12  4  1  0
 13 14  2  0
 16 15  1  1
 17 16  1  0
 18 16  1  0
 18 19  1  1
 19 13  1  0
 20 18  1  0
 21 20  2  0
 22 23  1  0
 23 25  1  0
 23 24  2  0
 25 26  1  0
 27 26  1  0
 27 28  1  0
 29 28  1  6
 29 30  1  0
 30 20  1  0
 31 29  1  0
 31 32  1  0
 33 31  2  0
M  END
$$$$
