WVR.pdb
     RDKit          3D

 33 34  0  0  1  0  0  0  0  0999 V2000
   28.0879  -20.6812  -16.2374 N   0  0  0  0  0  0  0  0  0  0  0  0
   27.0726  -19.9591  -15.4558 C   0  0  1  0  0  0  0  0  0  0  0  0
   26.0927  -19.4269  -16.5091 C   0  0  0  0  0  0  0  0  0  0  0  0
   26.6907  -18.1925  -17.0632 C   0  0  0  0  0  0  0  0  0  0  0  0
   27.1304  -17.9970  -18.3636 C   0  0  0  0  0  0  0  0  0  0  0  0
   27.6158  -16.7518  -18.4927 N   0  0  0  0  0  0  0  0  0  0  0  0
   27.5164  -16.1059  -17.3236 C   0  0  0  0  0  0  0  0  0  0  0  0
   27.8482  -14.8426  -16.8925 C   0  0  0  0  0  0  0  0  0  0  0  0
   27.6088  -14.4723  -15.5825 C   0  0  0  0  0  0  0  0  0  0  0  0
   27.0369  -15.3369  -14.6660 C   0  0  0  0  0  0  0  0  0  0  0  0
   26.7052  -16.6131  -15.1143 C   0  0  0  0  0  0  0  0  0  0  0  0
   26.9375  -16.9980  -16.4173 C   0  0  0  0  0  0  0  0  0  0  0  0
   26.3909  -20.8761  -14.5191 C   0  0  0  0  0  0  0  0  0  0  0  0
   26.3651  -22.0994  -14.8080 O   0  0  0  0  0  0  0  0  0  0  0  0
   25.0300  -20.1818  -10.1376 C   0  0  0  0  0  0  0  0  0  0  0  0
   25.8151  -21.0862  -11.0264 C   0  0  2  0  0  0  0  0  0  0  0  0
   27.2649  -20.6747  -11.1464 C   0  0  0  0  0  0  0  0  0  0  0  0
   25.1656  -21.3487  -12.3564 C   0  0  2  0  0  0  0  0  0  0  0  0
   25.7806  -20.4125  -13.3295 N   0  0  0  0  0  0  0  0  0  0  0  0
   23.7223  -21.1640  -12.4166 C   0  0  0  0  0  0  0  0  0  0  0  0
   23.2496  -20.0646  -11.9347 O   0  0  0  0  0  0  0  0  0  0  0  0
   18.7345  -24.6820   -7.2672 N   0  0  0  0  0  0  0  0  0  0  0  0
   18.5886  -25.2491   -8.5580 C   0  0  0  0  0  0  0  0  0  0  0  0
   18.1500  -26.4695   -8.7436 N   0  0  0  0  0  0  0  0  0  0  0  0
   18.9112  -24.5276   -9.7491 N   0  0  0  0  0  0  0  0  0  0  0  0
   19.2340  -23.1404   -9.6852 C   0  0  0  0  0  0  0  0  0  0  0  0
   19.6706  -22.5510  -10.9952 C   0  0  0  0  0  0  0  0  0  0  0  0
   21.1351  -22.7191  -11.2763 C   0  0  0  0  0  0  0  0  0  0  0  0
   21.3979  -22.0271  -12.6190 C   0  0  2  0  0  0  0  0  0  0  0  0
   22.8123  -22.1135  -12.9711 N   0  0  0  0  0  0  0  0  0  0  0  0
   20.9558  -20.6186  -12.6019 C   0  0  0  0  0  0  0  0  0  0  0  0
   20.0437  -20.1861  -13.5688 O   0  0  0  0  0  0  0  0  0  0  0  0
   21.3685  -19.8111  -11.7582 O   0  0  0  0  0  0  0  0  0  0  0  0
  2  1  1  6
  2 13  1  0
  2  3  1  0
  4  3  1  0
  4  5  2  0
  6  5  1  0
  7  6  1  0
  8  7  2  0
  9  8  1  0
 10  9  2  0
 10 11  1  0
 11 12  2  0
 12  7  1  0
 12  4  1  0
 13 14  2  0
 16 15  1  6
 17 16  1  0
 18 16  1  0
 18 19  1  6
 19 13  1  0
 20 18  1  0
 21 20  2  0
 22 23  1  0
 23 25  1  0
 23 24  2  0
 25 26  1  0
 27 26  1  0
 27 28  1  0
 29 28  1  1
 29 30  1  0
 30 20  1  0
 31 29  1  0
 31 32  1  0
 33 31  2  0
M  END
$$$$
