WVR.pdb
     RDKit          3D

 33 34  0  0  1  0  0  0  0  0999 V2000
   27.7225  -20.6279  -10.5692 N   0  0  0  0  0  0  0  0  0  0  0  0
   26.4954  -21.0715   -9.8904 C   0  0  1  0  0  0  0  0  0  0  0  0
   26.5762  -20.4240   -8.5023 C   0  0  0  0  0  0  0  0  0  0  0  0
   27.9438  -20.6708   -7.9951 C   0  0  0  0  0  0  0  0  0  0  0  0
   28.9615  -21.3450   -8.6524 C   0  0  0  0  0  0  0  0  0  0  0  0
   30.0575  -21.3729   -7.8773 N   0  0  0  0  0  0  0  0  0  0  0  0
   29.8094  -20.7404   -6.7230 C   0  0  0  0  0  0  0  0  0  0  0  0
   30.5499  -20.4738   -5.5949 C   0  0  0  0  0  0  0  0  0  0  0  0
   29.9849  -19.7758   -4.5442 C   0  0  0  0  0  0  0  0  0  0  0  0
   28.6775  -19.3237   -4.5792 C   0  0  0  0  0  0  0  0  0  0  0  0
   27.9380  -19.5998   -5.7266 C   0  0  0  0  0  0  0  0  0  0  0  0
   28.4865  -20.2946   -6.7831 C   0  0  0  0  0  0  0  0  0  0  0  0
   25.3004  -20.6015  -10.6211 C   0  0  0  0  0  0  0  0  0  0  0  0
   25.2903  -19.4124  -11.0289 O   0  0  0  0  0  0  0  0  0  0  0  0
   24.1838  -21.6222  -13.8703 C   0  0  0  0  0  0  0  0  0  0  0  0
   23.6370  -20.5316  -13.0125 C   0  0  2  0  0  0  0  0  0  0  0  0
   24.6041  -19.3825  -12.8395 C   0  0  0  0  0  0  0  0  0  0  0  0
   23.0548  -21.0119  -11.7125 C   0  0  2  0  0  0  0  0  0  0  0  0
   24.1921  -21.4471  -10.8647 N   0  0  0  0  0  0  0  0  0  0  0  0
   22.1163  -22.1222  -11.7976 C   0  0  0  0  0  0  0  0  0  0  0  0
   22.5195  -23.2675  -11.3614 O   0  0  0  0  0  0  0  0  0  0  0  0
   16.4162  -23.9541   -7.6539 N   0  0  0  0  0  0  0  0  0  0  0  0
   17.5019  -24.5400   -6.9561 C   0  0  0  0  0  0  0  0  0  0  0  0
   17.3656  -25.6144   -6.2192 N   0  0  0  0  0  0  0  0  0  0  0  0
   18.8236  -23.9976   -7.0077 N   0  0  0  0  0  0  0  0  0  0  0  0
   19.1024  -22.8569   -7.8162 C   0  0  0  0  0  0  0  0  0  0  0  0
   19.6151  -23.1877   -9.1880 C   0  0  0  0  0  0  0  0  0  0  0  0
   19.9567  -21.9819  -10.0135 C   0  0  0  0  0  0  0  0  0  0  0  0
   19.6618  -22.3597  -11.4698 C   0  0  2  0  0  0  0  0  0  0  0  0
   20.7946  -22.0196  -12.3261 N   0  0  0  0  0  0  0  0  0  0  0  0
   18.4302  -21.7115  -11.9624 C   0  0  0  0  0  0  0  0  0  0  0  0
   17.2674  -22.4774  -12.0845 O   0  0  0  0  0  0  0  0  0  0  0  0
   18.3973  -20.5121  -12.2698 O   0  0  0  0  0  0  0  0  0  0  0  0
  2  1  1  6
  2 13  1  0
  2  3  1  0
  4  3  1  0
  4  5  2  0
  6  5  1  0
  7  6  1  0
  8  7  2  0
  9  8  1  0
 10  9  2  0
 10 11  1  0
 11 12  2  0
 12  7  1  0
 12  4  1  0
 13 14  2  0
 16 15  1  1
 17 16  1  0
 18 16  1  0
 18 19  1  1
 19 13  1  0
 20 18  1  0
 21 20  2  0
 22 23  1  0
 23 25  1  0
 23 24  2  0
 25 26  1  0
 27 26  1  0
 27 28  1  0
 29 28  1  1
 29 30  1  0
 30 20  1  0
 31 29  1  0
 31 32  1  0
 33 31  2  0
M  END
$$$$
