WVR.pdb
     RDKit          3D

 33 34  0  0  1  0  0  0  0  0999 V2000
   24.5977  -19.3467   -8.7841 N   0  0  0  0  0  0  0  0  0  0  0  0
   25.8573  -19.9371   -9.2618 C   0  0  1  0  0  0  0  0  0  0  0  0
   25.9464  -21.2815   -8.5288 C   0  0  0  0  0  0  0  0  0  0  0  0
   26.1689  -20.9742   -7.0989 C   0  0  0  0  0  0  0  0  0  0  0  0
   25.2250  -21.0248   -6.0845 C   0  0  0  0  0  0  0  0  0  0  0  0
   25.7955  -20.6753   -4.9204 N   0  0  0  0  0  0  0  0  0  0  0  0
   27.0894  -20.3923   -5.1196 C   0  0  0  0  0  0  0  0  0  0  0  0
   28.1222  -19.9923   -4.3039 C   0  0  0  0  0  0  0  0  0  0  0  0
   29.3805  -19.7781   -4.8340 C   0  0  0  0  0  0  0  0  0  0  0  0
   29.6521  -19.9526   -6.1795 C   0  0  0  0  0  0  0  0  0  0  0  0
   28.5984  -20.3578   -6.9951 C   0  0  0  0  0  0  0  0  0  0  0  0
   27.3377  -20.5756   -6.4824 C   0  0  0  0  0  0  0  0  0  0  0  0
   25.8133  -20.1378  -10.7249 C   0  0  0  0  0  0  0  0  0  0  0  0
   24.6877  -20.1388  -11.2848 O   0  0  0  0  0  0  0  0  0  0  0  0
   28.8288  -19.3064  -14.6159 C   0  0  0  0  0  0  0  0  0  0  0  0
   28.5474  -19.8155  -13.2426 C   0  0  2  0  0  0  0  0  0  0  0  0
   29.2602  -21.1146  -12.9429 C   0  0  0  0  0  0  0  0  0  0  0  0
   27.0860  -19.8516  -12.8930 C   0  0  2  0  0  0  0  0  0  0  0  0
   26.9891  -20.3245  -11.4899 N   0  0  0  0  0  0  0  0  0  0  0  0
   26.2487  -20.7184  -13.7106 C   0  0  0  0  0  0  0  0  0  0  0  0
   26.3893  -21.9911  -13.5524 O   0  0  0  0  0  0  0  0  0  0  0  0
   19.9461  -21.7687  -13.3601 N   0  0  0  0  0  0  0  0  0  0  0  0
   20.1407  -23.1094  -13.7770 C   0  0  0  0  0  0  0  0  0  0  0  0
   19.8779  -24.1315  -13.0010 N   0  0  0  0  0  0  0  0  0  0  0  0
   20.6387  -23.4397  -15.0756 N   0  0  0  0  0  0  0  0  0  0  0  0
   21.0216  -22.4091  -15.9833 C   0  0  0  0  0  0  0  0  0  0  0  0
   22.5063  -22.2516  -16.1417 C   0  0  0  0  0  0  0  0  0  0  0  0
   23.1134  -21.2558  -15.1974 C   0  0  0  0  0  0  0  0  0  0  0  0
   24.6126  -21.2185  -15.5166 C   0  0  2  0  0  0  0  0  0  0  0  0
   25.2937  -20.2500  -14.6622 N   0  0  0  0  0  0  0  0  0  0  0  0
   24.8594  -20.9139  -16.9399 C   0  0  0  0  0  0  0  0  0  0  0  0
   24.7832  -19.5857  -17.3685 O   0  0  0  0  0  0  0  0  0  0  0  0
   25.1314  -21.7986  -17.7631 O   0  0  0  0  0  0  0  0  0  0  0  0
  2  1  1  1
  2 13  1  0
  2  3  1  0
  4  3  1  0
  4  5  2  0
  6  5  1  0
  7  6  1  0
  8  7  2  0
  9  8  1  0
 10  9  2  0
 10 11  1  0
 11 12  2  0
 12  7  1  0
 12  4  1  0
 13 14  2  0
 16 15  1  6
 17 16  1  0
 18 16  1  0
 18 19  1  1
 19 13  1  0
 20 18  1  0
 21 20  2  0
 22 23  1  0
 23 25  1  0
 23 24  2  0
 25 26  1  0
 27 26  1  0
 27 28  1  0
 29 28  1  6
 29 30  1  0
 30 20  1  0
 31 29  1  0
 31 32  1  0
 33 31  2  0
M  END
$$$$
