WVR.pdb
     RDKit          3D

 33 34  0  0  1  0  0  0  0  0999 V2000
   27.4906  -22.4195  -13.4404 N   0  0  0  0  0  0  0  0  0  0  0  0
   26.4579  -21.6285  -12.7539 C   0  0  1  0  0  0  0  0  0  0  0  0
   27.1763  -20.3329  -12.3564 C   0  0  0  0  0  0  0  0  0  0  0  0
   27.9527  -20.6332  -11.1335 C   0  0  0  0  0  0  0  0  0  0  0  0
   29.3050  -20.9312  -11.0635 C   0  0  0  0  0  0  0  0  0  0  0  0
   29.6527  -21.1497   -9.7852 N   0  0  0  0  0  0  0  0  0  0  0  0
   28.5799  -21.0084   -8.9959 C   0  0  0  0  0  0  0  0  0  0  0  0
   28.3627  -21.1135   -7.6417 C   0  0  0  0  0  0  0  0  0  0  0  0
   27.0991  -20.8999   -7.1241 C   0  0  0  0  0  0  0  0  0  0  0  0
   26.0193  -20.5778   -7.9272 C   0  0  0  0  0  0  0  0  0  0  0  0
   26.2517  -20.4743   -9.2965 C   0  0  0  0  0  0  0  0  0  0  0  0
   27.5057  -20.6842   -9.8286 C   0  0  0  0  0  0  0  0  0  0  0  0
   25.3302  -21.3461  -13.6658 C   0  0  0  0  0  0  0  0  0  0  0  0
   25.5981  -21.0442  -14.8564 O   0  0  0  0  0  0  0  0  0  0  0  0
   21.4969  -22.9826  -13.0097 C   0  0  0  0  0  0  0  0  0  0  0  0
   22.1486  -22.5462  -14.2783 C   0  0  2  0  0  0  0  0  0  0  0  0
   23.0028  -23.6279  -14.8995 C   0  0  0  0  0  0  0  0  0  0  0  0
   22.8553  -21.2233  -14.1772 C   0  0  2  0  0  0  0  0  0  0  0  0
   23.9845  -21.4081  -13.2325 N   0  0  0  0  0  0  0  0  0  0  0  0
   22.0585  -20.1016  -13.7000 C   0  0  0  0  0  0  0  0  0  0  0  0
   21.9025  -19.9919  -12.4240 O   0  0  0  0  0  0  0  0  0  0  0  0
   20.7146  -16.4084  -19.7978 N   0  0  0  0  0  0  0  0  0  0  0  0
   19.4638  -17.0397  -19.5835 C   0  0  0  0  0  0  0  0  0  0  0  0
   18.8431  -17.7068  -20.5247 N   0  0  0  0  0  0  0  0  0  0  0  0
   18.7910  -16.9916  -18.3230 N   0  0  0  0  0  0  0  0  0  0  0  0
   19.4456  -16.4500  -17.1781 C   0  0  0  0  0  0  0  0  0  0  0  0
   19.7734  -17.4650  -16.1215 C   0  0  0  0  0  0  0  0  0  0  0  0
   20.4979  -16.8940  -14.9377 C   0  0  0  0  0  0  0  0  0  0  0  0
   20.6758  -18.0480  -13.9442 C   0  0  2  0  0  0  0  0  0  0  0  0
   21.4497  -19.1287  -14.5484 N   0  0  0  0  0  0  0  0  0  0  0  0
   19.3768  -18.5536  -13.4577 C   0  0  0  0  0  0  0  0  0  0  0  0
   18.7300  -17.8681  -12.4255 O   0  0  0  0  0  0  0  0  0  0  0  0
   18.8450  -19.5648  -13.9361 O   0  0  0  0  0  0  0  0  0  0  0  0
  2  1  1  6
  2 13  1  0
  2  3  1  0
  4  3  1  0
  4  5  2  0
  6  5  1  0
  7  6  1  0
  8  7  2  0
  9  8  1  0
 10  9  2  0
 10 11  1  0
 11 12  2  0
 12  7  1  0
 12  4  1  0
 13 14  2  0
 16 15  1  1
 17 16  1  0
 18 16  1  0
 18 19  1  1
 19 13  1  0
 20 18  1  0
 21 20  2  0
 22 23  1  0
 23 25  1  0
 23 24  2  0
 25 26  1  0
 27 26  1  0
 27 28  1  0
 29 28  1  6
 29 30  1  0
 30 20  1  0
 31 29  1  0
 31 32  1  0
 33 31  2  0
M  END
$$$$
