WVR.pdb
     RDKit          3D

 33 34  0  0  1  0  0  0  0  0999 V2000
   23.9499  -20.6386  -13.6539 N   0  0  0  0  0  0  0  0  0  0  0  0
   22.6694  -20.4106  -12.9671 C   0  0  1  0  0  0  0  0  0  0  0  0
   21.6121  -20.8880  -13.9705 C   0  0  0  0  0  0  0  0  0  0  0  0
   21.3062  -19.7371  -14.8482 C   0  0  0  0  0  0  0  0  0  0  0  0
   22.2120  -19.0078  -15.6032 C   0  0  0  0  0  0  0  0  0  0  0  0
   21.5657  -18.0367  -16.2681 N   0  0  0  0  0  0  0  0  0  0  0  0
   20.2578  -18.0901  -15.9848 C   0  0  0  0  0  0  0  0  0  0  0  0
   19.1596  -17.3589  -16.3740 C   0  0  0  0  0  0  0  0  0  0  0  0
   17.9063  -17.6785  -15.8868 C   0  0  0  0  0  0  0  0  0  0  0  0
   17.7043  -18.7254  -15.0048 C   0  0  0  0  0  0  0  0  0  0  0  0
   18.8238  -19.4582  -14.6181 C   0  0  0  0  0  0  0  0  0  0  0  0
   20.0804  -19.1525  -15.0947 C   0  0  0  0  0  0  0  0  0  0  0  0
   22.6035  -21.1986  -11.7189 C   0  0  0  0  0  0  0  0  0  0  0  0
   23.0094  -22.3879  -11.7523 O   0  0  0  0  0  0  0  0  0  0  0  0
   22.5839  -19.4520   -7.8180 C   0  0  0  0  0  0  0  0  0  0  0  0
   23.0246  -20.7918   -8.3026 C   0  0  2  0  0  0  0  0  0  0  0  0
   24.4507  -20.7924   -8.8046 C   0  0  0  0  0  0  0  0  0  0  0  0
   22.0636  -21.4410   -9.2589 C   0  0  2  0  0  0  0  0  0  0  0  0
   22.1031  -20.6505  -10.5140 N   0  0  0  0  0  0  0  0  0  0  0  0
   20.6749  -21.5150   -8.8265 C   0  0  0  0  0  0  0  0  0  0  0  0
   19.7920  -20.9612   -9.5869 O   0  0  0  0  0  0  0  0  0  0  0  0
   17.8783  -28.6358   -8.0636 N   0  0  0  0  0  0  0  0  0  0  0  0
   16.9296  -28.1766   -9.0113 C   0  0  0  0  0  0  0  0  0  0  0  0
   15.7768  -28.7709   -9.1959 N   0  0  0  0  0  0  0  0  0  0  0  0
   17.1656  -27.0313   -9.8336 N   0  0  0  0  0  0  0  0  0  0  0  0
   18.3612  -26.2697   -9.6809 C   0  0  0  0  0  0  0  0  0  0  0  0
   18.2294  -25.1016   -8.7470 C   0  0  0  0  0  0  0  0  0  0  0  0
   19.4485  -24.2279   -8.6948 C   0  0  0  0  0  0  0  0  0  0  0  0
   19.1323  -23.1070   -7.6977 C   0  0  2  0  0  0  0  0  0  0  0  0
   20.2385  -22.1565   -7.6286 N   0  0  0  0  0  0  0  0  0  0  0  0
   18.8270  -23.6414   -6.3557 C   0  0  0  0  0  0  0  0  0  0  0  0
   17.4898  -23.7971   -5.9798 O   0  0  0  0  0  0  0  0  0  0  0  0
   19.7189  -23.9548   -5.5553 O   0  0  0  0  0  0  0  0  0  0  0  0
  2  1  1  6
  2 13  1  0
  2  3  1  0
  4  3  1  0
  4  5  2  0
  6  5  1  0
  7  6  1  0
  8  7  2  0
  9  8  1  0
 10  9  2  0
 10 11  1  0
 11 12  2  0
 12  7  1  0
 12  4  1  0
 13 14  2  0
 16 15  1  6
 17 16  1  0
 18 16  1  0
 18 19  1  6
 19 13  1  0
 20 18  1  0
 21 20  2  0
 22 23  1  0
 23 25  1  0
 23 24  2  0
 25 26  1  0
 27 26  1  0
 27 28  1  0
 29 28  1  6
 29 30  1  0
 30 20  1  0
 31 29  1  0
 31 32  1  0
 33 31  2  0
M  END
$$$$
