WVR.pdb
     RDKit          3D

 33 34  0  0  1  0  0  0  0  0999 V2000
   24.6956  -20.4660  -16.5387 N   0  0  0  0  0  0  0  0  0  0  0  0
   23.6695  -20.0219  -15.5832 C   0  0  1  0  0  0  0  0  0  0  0  0
   22.3855  -19.9402  -16.4183 C   0  0  0  0  0  0  0  0  0  0  0  0
   22.4533  -18.6756  -17.1829 C   0  0  0  0  0  0  0  0  0  0  0  0
   23.1445  -18.4591  -18.3653 C   0  0  0  0  0  0  0  0  0  0  0  0
   22.9753  -17.1868  -18.7595 N   0  0  0  0  0  0  0  0  0  0  0  0
   22.1945  -16.5431  -17.8820 C   0  0  0  0  0  0  0  0  0  0  0  0
   21.7071  -15.2601  -17.7901 C   0  0  0  0  0  0  0  0  0  0  0  0
   20.9002  -14.9000  -16.7273 C   0  0  0  0  0  0  0  0  0  0  0  0
   20.5540  -15.7943  -15.7298 C   0  0  0  0  0  0  0  0  0  0  0  0
   21.0536  -17.0902  -15.8339 C   0  0  0  0  0  0  0  0  0  0  0  0
   21.8594  -17.4653  -16.8873 C   0  0  0  0  0  0  0  0  0  0  0  0
   23.5228  -21.0023  -14.4876 C   0  0  0  0  0  0  0  0  0  0  0  0
   23.3619  -22.2101  -14.7969 O   0  0  0  0  0  0  0  0  0  0  0  0
   24.2077  -20.0561  -10.2551 C   0  0  0  0  0  0  0  0  0  0  0  0
   24.3773  -21.3420  -10.9913 C   0  0  2  0  0  0  0  0  0  0  0  0
   25.7835  -21.5378  -11.5107 C   0  0  0  0  0  0  0  0  0  0  0  0
   23.3243  -21.5909  -12.0348 C   0  0  2  0  0  0  0  0  0  0  0  0
   23.5596  -20.6145  -13.1271 N   0  0  0  0  0  0  0  0  0  0  0  0
   21.9413  -21.4459  -11.6024 C   0  0  0  0  0  0  0  0  0  0  0  0
   21.3759  -20.3056  -11.8131 O   0  0  0  0  0  0  0  0  0  0  0  0
   14.6822  -26.3152  -10.9186 N   0  0  0  0  0  0  0  0  0  0  0  0
   15.9355  -26.2185  -11.5737 C   0  0  0  0  0  0  0  0  0  0  0  0
   16.3519  -27.1184  -12.4299 N   0  0  0  0  0  0  0  0  0  0  0  0
   16.8341  -25.1306  -11.3445 N   0  0  0  0  0  0  0  0  0  0  0  0
   16.5685  -24.1827  -10.3132 C   0  0  0  0  0  0  0  0  0  0  0  0
   17.5683  -23.0655  -10.2346 C   0  0  0  0  0  0  0  0  0  0  0  0
   18.9256  -23.4297  -10.7613 C   0  0  0  0  0  0  0  0  0  0  0  0
   19.8120  -22.1956  -10.5570 C   0  0  2  0  0  0  0  0  0  0  0  0
   21.1840  -22.4770  -10.9696 N   0  0  0  0  0  0  0  0  0  0  0  0
   19.7803  -21.7274   -9.1572 C   0  0  0  0  0  0  0  0  0  0  0  0
   18.6033  -21.1579   -8.6629 O   0  0  0  0  0  0  0  0  0  0  0  0
   20.7634  -21.8241   -8.4101 O   0  0  0  0  0  0  0  0  0  0  0  0
  2  1  1  6
  2 13  1  0
  2  3  1  0
  4  3  1  0
  4  5  2  0
  6  5  1  0
  7  6  1  0
  8  7  2  0
  9  8  1  0
 10  9  2  0
 10 11  1  0
 11 12  2  0
 12  7  1  0
 12  4  1  0
 13 14  2  0
 16 15  1  6
 17 16  1  0
 18 16  1  0
 18 19  1  6
 19 13  1  0
 20 18  1  0
 21 20  2  0
 22 23  1  0
 23 25  1  0
 23 24  2  0
 25 26  1  0
 27 26  1  0
 27 28  1  0
 29 28  1  1
 29 30  1  0
 30 20  1  0
 31 29  1  0
 31 32  1  0
 33 31  2  0
M  END
$$$$
