WVR.pdb
     RDKit          3D

 33 34  0  0  1  0  0  0  0  0999 V2000
   22.9424  -20.6537  -14.9348 N   0  0  0  0  0  0  0  0  0  0  0  0
   21.8065  -20.2547  -14.0900 C   0  0  1  0  0  0  0  0  0  0  0  0
   20.5837  -20.4097  -15.0030 C   0  0  0  0  0  0  0  0  0  0  0  0
   20.5028  -19.1795  -15.8206 C   0  0  0  0  0  0  0  0  0  0  0  0
   21.0086  -19.0002  -17.0991 C   0  0  0  0  0  0  0  0  0  0  0  0
   20.7468  -17.7511  -17.5162 N   0  0  0  0  0  0  0  0  0  0  0  0
   20.0828  -17.0870  -16.5613 C   0  0  0  0  0  0  0  0  0  0  0  0
   19.5763  -15.8128  -16.4519 C   0  0  0  0  0  0  0  0  0  0  0  0
   18.9217  -15.4241  -15.2983 C   0  0  0  0  0  0  0  0  0  0  0  0
   18.7501  -16.2805  -14.2251 C   0  0  0  0  0  0  0  0  0  0  0  0
   19.2672  -17.5678  -14.3478 C   0  0  0  0  0  0  0  0  0  0  0  0
   19.9227  -17.9712  -15.4913 C   0  0  0  0  0  0  0  0  0  0  0  0
   21.6996  -21.1413  -12.9129 C   0  0  0  0  0  0  0  0  0  0  0  0
   22.2198  -22.2833  -12.9878 O   0  0  0  0  0  0  0  0  0  0  0  0
   20.4383  -19.5214   -9.1939 C   0  0  0  0  0  0  0  0  0  0  0  0
   21.3916  -20.6566   -9.3573 C   0  0  2  0  0  0  0  0  0  0  0  0
   22.8367  -20.2123   -9.3535 C   0  0  0  0  0  0  0  0  0  0  0  0
   21.0599  -21.5715  -10.5030 C   0  0  2  0  0  0  0  0  0  0  0  0
   21.0374  -20.7367  -11.7296 N   0  0  0  0  0  0  0  0  0  0  0  0
   19.7855  -22.2714  -10.4209 C   0  0  0  0  0  0  0  0  0  0  0  0
   18.7787  -21.7318  -11.0204 O   0  0  0  0  0  0  0  0  0  0  0  0
   18.3995  -30.0763   -7.2400 N   0  0  0  0  0  0  0  0  0  0  0  0
   17.2512  -29.4999   -7.8385 C   0  0  0  0  0  0  0  0  0  0  0  0
   16.0718  -30.0677   -7.7862 N   0  0  0  0  0  0  0  0  0  0  0  0
   17.3006  -28.2569   -8.5428 N   0  0  0  0  0  0  0  0  0  0  0  0
   16.6305  -27.1095   -8.0258 C   0  0  0  0  0  0  0  0  0  0  0  0
   16.8300  -25.8639   -8.8398 C   0  0  0  0  0  0  0  0  0  0  0  0
   18.2512  -25.3831   -8.8720 C   0  0  0  0  0  0  0  0  0  0  0  0
   18.2346  -24.0398   -9.6109 C   0  0  2  0  0  0  0  0  0  0  0  0
   19.5875  -23.5032   -9.7276 N   0  0  0  0  0  0  0  0  0  0  0  0
   17.3481  -23.0635   -8.9472 C   0  0  0  0  0  0  0  0  0  0  0  0
   17.7995  -22.4189   -7.7920 O   0  0  0  0  0  0  0  0  0  0  0  0
   16.2190  -22.7997   -9.3828 O   0  0  0  0  0  0  0  0  0  0  0  0
  2  1  1  6
  2 13  1  0
  2  3  1  0
  4  3  1  0
  4  5  2  0
  6  5  1  0
  7  6  1  0
  8  7  2  0
  9  8  1  0
 10  9  2  0
 10 11  1  0
 11 12  2  0
 12  7  1  0
 12  4  1  0
 13 14  2  0
 16 15  1  6
 17 16  1  0
 18 16  1  0
 18 19  1  6
 19 13  1  0
 20 18  1  0
 21 20  2  0
 22 23  1  0
 23 25  1  0
 23 24  2  0
 25 26  1  0
 27 26  1  0
 27 28  1  0
 29 28  1  1
 29 30  1  0
 30 20  1  0
 31 29  1  0
 31 32  1  0
 33 31  2  0
M  END
$$$$
