WVR.pdb
     RDKit          3D

 33 34  0  0  1  0  0  0  0  0999 V2000
   25.8036  -20.8927  -10.0915 N   0  0  0  0  0  0  0  0  0  0  0  0
   25.1794  -20.8147   -8.7620 C   0  0  1  0  0  0  0  0  0  0  0  0
   25.8138  -19.5752   -8.1187 C   0  0  0  0  0  0  0  0  0  0  0  0
   27.1961  -19.9479   -7.7460 C   0  0  0  0  0  0  0  0  0  0  0  0
   28.1430  -20.5423   -8.5660 C   0  0  0  0  0  0  0  0  0  0  0  0
   29.2797  -20.7328   -7.8772 N   0  0  0  0  0  0  0  0  0  0  0  0
   29.1272  -20.2865   -6.6236 C   0  0  0  0  0  0  0  0  0  0  0  0
   29.9428  -20.2310   -5.5174 C   0  0  0  0  0  0  0  0  0  0  0  0
   29.4712  -19.6923   -4.3352 C   0  0  0  0  0  0  0  0  0  0  0  0
   28.1855  -19.1953   -4.2139 C   0  0  0  0  0  0  0  0  0  0  0  0
   27.3693  -19.2570   -5.3407 C   0  0  0  0  0  0  0  0  0  0  0  0
   27.8242  -19.7911   -6.5271 C   0  0  0  0  0  0  0  0  0  0  0  0
   23.7160  -20.6524   -8.8855 C   0  0  0  0  0  0  0  0  0  0  0  0
   23.2865  -19.6599   -9.5266 O   0  0  0  0  0  0  0  0  0  0  0  0
   21.7744  -20.5113  -10.8556 C   0  0  0  0  0  0  0  0  0  0  0  0
   21.1934  -21.6454  -10.0805 C   0  0  2  0  0  0  0  0  0  0  0  0
   19.7771  -21.9730  -10.4957 C   0  0  0  0  0  0  0  0  0  0  0  0
   21.3548  -21.5128   -8.5919 C   0  0  2  0  0  0  0  0  0  0  0  0
   22.8099  -21.5735   -8.3082 N   0  0  0  0  0  0  0  0  0  0  0  0
   20.7031  -22.5309   -7.7797 C   0  0  0  0  0  0  0  0  0  0  0  0
   21.3850  -23.5919   -7.5083 O   0  0  0  0  0  0  0  0  0  0  0  0
   13.2150  -23.7967   -2.9597 N   0  0  0  0  0  0  0  0  0  0  0  0
   14.4920  -23.3923   -2.4962 C   0  0  0  0  0  0  0  0  0  0  0  0
   14.6686  -22.8266   -1.3279 N   0  0  0  0  0  0  0  0  0  0  0  0
   15.6781  -23.5733   -3.2734 N   0  0  0  0  0  0  0  0  0  0  0  0
   15.6092  -24.1827   -4.5605 C   0  0  0  0  0  0  0  0  0  0  0  0
   16.9446  -24.3824   -5.2170 C   0  0  0  0  0  0  0  0  0  0  0  0
   17.5080  -23.1359   -5.8341 C   0  0  0  0  0  0  0  0  0  0  0  0
   18.8045  -23.5525   -6.5387 C   0  0  2  0  0  0  0  0  0  0  0  0
   19.3736  -22.4251   -7.2715 N   0  0  0  0  0  0  0  0  0  0  0  0
   18.5891  -24.6994   -7.4429 C   0  0  0  0  0  0  0  0  0  0  0  0
   18.1180  -24.4592   -8.7368 O   0  0  0  0  0  0  0  0  0  0  0  0
   18.8130  -25.8652   -7.0894 O   0  0  0  0  0  0  0  0  0  0  0  0
  2  1  1  6
  2 13  1  0
  2  3  1  0
  4  3  1  0
  4  5  2  0
  6  5  1  0
  7  6  1  0
  8  7  2  0
  9  8  1  0
 10  9  2  0
 10 11  1  0
 11 12  2  0
 12  7  1  0
 12  4  1  0
 13 14  2  0
 16 15  1  6
 17 16  1  0
 18 16  1  0
 18 19  1  6
 19 13  1  0
 20 18  1  0
 21 20  2  0
 22 23  1  0
 23 25  1  0
 23 24  2  0
 25 26  1  0
 27 26  1  0
 27 28  1  0
 29 28  1  6
 29 30  1  0
 30 20  1  0
 31 29  1  0
 31 32  1  0
 33 31  2  0
M  END
$$$$
