WVR.pdb
     RDKit          3D

 33 34  0  0  1  0  0  0  0  0999 V2000
   26.3499  -17.5225  -17.3776 N   0  0  0  0  0  0  0  0  0  0  0  0
   26.2723  -17.3817  -15.9156 C   0  0  1  0  0  0  0  0  0  0  0  0
   24.9916  -16.5706  -15.6814 C   0  0  0  0  0  0  0  0  0  0  0  0
   25.2960  -15.1734  -16.0602 C   0  0  0  0  0  0  0  0  0  0  0  0
   26.3524  -14.4022  -15.6000 C   0  0  0  0  0  0  0  0  0  0  0  0
   26.3004  -13.1846  -16.1636 N   0  0  0  0  0  0  0  0  0  0  0  0
   25.2455  -13.1132  -16.9858 C   0  0  0  0  0  0  0  0  0  0  0  0
   24.7257  -12.1333  -17.7991 C   0  0  0  0  0  0  0  0  0  0  0  0
   23.5893  -12.3828  -18.5451 C   0  0  0  0  0  0  0  0  0  0  0  0
   22.9377  -13.6030  -18.5084 C   0  0  0  0  0  0  0  0  0  0  0  0
   23.4736  -14.5871  -17.6813 C   0  0  0  0  0  0  0  0  0  0  0  0
   24.6060  -14.3544  -16.9309 C   0  0  0  0  0  0  0  0  0  0  0  0
   26.1797  -18.7082  -15.2716 C   0  0  0  0  0  0  0  0  0  0  0  0
   25.3622  -19.5368  -15.7466 O   0  0  0  0  0  0  0  0  0  0  0  0
   29.1550  -20.1827  -12.5269 C   0  0  0  0  0  0  0  0  0  0  0  0
   28.2198  -20.9601  -13.3903 C   0  0  2  0  0  0  0  0  0  0  0  0
   28.8113  -21.2942  -14.7409 C   0  0  0  0  0  0  0  0  0  0  0  0
   26.8404  -20.3698  -13.4814 C   0  0  2  0  0  0  0  0  0  0  0  0
   26.9771  -19.0548  -14.1550 N   0  0  0  0  0  0  0  0  0  0  0  0
   26.1485  -20.1501  -12.2189 C   0  0  0  0  0  0  0  0  0  0  0  0
   26.4802  -19.1036  -11.5411 O   0  0  0  0  0  0  0  0  0  0  0  0
   19.6631  -20.8629  -14.0855 N   0  0  0  0  0  0  0  0  0  0  0  0
   20.0953  -21.9907  -13.3436 C   0  0  0  0  0  0  0  0  0  0  0  0
   19.9653  -23.2160  -13.7883 N   0  0  0  0  0  0  0  0  0  0  0  0
   20.7036  -21.8690  -12.0556 N   0  0  0  0  0  0  0  0  0  0  0  0
   20.9522  -20.5816  -11.4957 C   0  0  0  0  0  0  0  0  0  0  0  0
   22.4082  -20.2573  -11.3259 C   0  0  0  0  0  0  0  0  0  0  0  0
   23.1056  -21.1172  -10.3129 C   0  0  0  0  0  0  0  0  0  0  0  0
   24.5889  -20.7336  -10.3708 C   0  0  2  0  0  0  0  0  0  0  0  0
   25.1379  -21.0110  -11.6950 N   0  0  0  0  0  0  0  0  0  0  0  0
   25.3729  -21.4297   -9.3313 C   0  0  0  0  0  0  0  0  0  0  0  0
   25.4138  -20.8900   -8.0427 O   0  0  0  0  0  0  0  0  0  0  0  0
   25.9938  -22.4752   -9.5673 O   0  0  0  0  0  0  0  0  0  0  0  0
  2  1  1  6
  2 13  1  0
  2  3  1  0
  4  3  1  0
  4  5  2  0
  6  5  1  0
  7  6  1  0
  8  7  2  0
  9  8  1  0
 10  9  2  0
 10 11  1  0
 11 12  2  0
 12  7  1  0
 12  4  1  0
 13 14  2  0
 16 15  1  6
 17 16  1  0
 18 16  1  0
 18 19  1  1
 19 13  1  0
 20 18  1  0
 21 20  2  0
 22 23  1  0
 23 25  1  0
 23 24  2  0
 25 26  1  0
 27 26  1  0
 27 28  1  0
 29 28  1  6
 29 30  1  0
 30 20  1  0
 31 29  1  0
 31 32  1  0
 33 31  2  0
M  END
$$$$
