WVR.pdb
     RDKit          3D

 33 34  0  0  1  0  0  0  0  0999 V2000
   28.7840  -22.2067  -10.2908 N   0  0  0  0  0  0  0  0  0  0  0  0
   27.7293  -21.2258   -9.9925 C   0  0  1  0  0  0  0  0  0  0  0  0
   28.4914  -19.9902   -9.4973 C   0  0  0  0  0  0  0  0  0  0  0  0
   29.0619  -20.3408   -8.1782 C   0  0  0  0  0  0  0  0  0  0  0  0
   30.1051  -21.2211   -7.9348 C   0  0  0  0  0  0  0  0  0  0  0  0
   30.3410  -21.2861   -6.6146 N   0  0  0  0  0  0  0  0  0  0  0  0
   29.4918  -20.4797   -5.9648 C   0  0  0  0  0  0  0  0  0  0  0  0
   29.2897  -20.1629   -4.6416 C   0  0  0  0  0  0  0  0  0  0  0  0
   28.3003  -19.2651   -4.2875 C   0  0  0  0  0  0  0  0  0  0  0  0
   27.4865  -18.6578   -5.2275 C   0  0  0  0  0  0  0  0  0  0  0  0
   27.7009  -18.9865   -6.5638 C   0  0  0  0  0  0  0  0  0  0  0  0
   28.6831  -19.8799   -6.9336 C   0  0  0  0  0  0  0  0  0  0  0  0
   26.9539  -20.9123  -11.2105 C   0  0  0  0  0  0  0  0  0  0  0  0
   27.5860  -20.7548  -12.2857 O   0  0  0  0  0  0  0  0  0  0  0  0
   24.5702  -23.1686  -12.6481 C   0  0  0  0  0  0  0  0  0  0  0  0
   25.0539  -21.8974  -13.2601 C   0  0  2  0  0  0  0  0  0  0  0  0
   26.4965  -21.9743  -13.7056 C   0  0  0  0  0  0  0  0  0  0  0  0
   24.7555  -20.6735  -12.4400 C   0  0  2  0  0  0  0  0  0  0  0  0
   25.5443  -20.7892  -11.1886 N   0  0  0  0  0  0  0  0  0  0  0  0
   23.3623  -20.4711  -12.0674 C   0  0  0  0  0  0  0  0  0  0  0  0
   22.9446  -21.0720  -11.0050 O   0  0  0  0  0  0  0  0  0  0  0  0
   18.9136  -18.5121  -17.9874 N   0  0  0  0  0  0  0  0  0  0  0  0
   18.0538  -18.0788  -16.9471 C   0  0  0  0  0  0  0  0  0  0  0  0
   16.7562  -17.9857  -17.1011 N   0  0  0  0  0  0  0  0  0  0  0  0
   18.5441  -17.7118  -15.6554 N   0  0  0  0  0  0  0  0  0  0  0  0
   19.9464  -17.6050  -15.4214 C   0  0  0  0  0  0  0  0  0  0  0  0
   20.5104  -18.7003  -14.5633 C   0  0  0  0  0  0  0  0  0  0  0  0
   20.3020  -18.4850  -13.0928 C   0  0  0  0  0  0  0  0  0  0  0  0
   21.0452  -19.6220  -12.3817 C   0  0  2  0  0  0  0  0  0  0  0  0
   22.4446  -19.6570  -12.7969 N   0  0  0  0  0  0  0  0  0  0  0  0
   20.4024  -20.9288  -12.6243 C   0  0  0  0  0  0  0  0  0  0  0  0
   19.3035  -21.2955  -11.8423 O   0  0  0  0  0  0  0  0  0  0  0  0
   20.8075  -21.7076  -13.4981 O   0  0  0  0  0  0  0  0  0  0  0  0
  2  1  1  6
  2 13  1  0
  2  3  1  0
  4  3  1  0
  4  5  2  0
  6  5  1  0
  7  6  1  0
  8  7  2  0
  9  8  1  0
 10  9  2  0
 10 11  1  0
 11 12  2  0
 12  7  1  0
 12  4  1  0
 13 14  2  0
 16 15  1  1
 17 16  1  0
 18 16  1  0
 18 19  1  1
 19 13  1  0
 20 18  1  0
 21 20  2  0
 22 23  1  0
 23 25  1  0
 23 24  2  0
 25 26  1  0
 27 26  1  0
 27 28  1  0
 29 28  1  6
 29 30  1  0
 30 20  1  0
 31 29  1  0
 31 32  1  0
 33 31  2  0
M  END
$$$$
