WVR.pdb
     RDKit          3D

 33 34  0  0  1  0  0  0  0  0999 V2000
   26.3652  -22.3076  -16.3078 N   0  0  0  0  0  0  0  0  0  0  0  0
   25.1852  -21.6394  -15.7382 C   0  0  1  0  0  0  0  0  0  0  0  0
   24.0166  -22.1396  -16.5966 C   0  0  0  0  0  0  0  0  0  0  0  0
   23.6737  -21.0448  -17.5306 C   0  0  0  0  0  0  0  0  0  0  0  0
   24.2580  -20.7942  -18.7628 C   0  0  0  0  0  0  0  0  0  0  0  0
   23.6884  -19.7136  -19.3201 N   0  0  0  0  0  0  0  0  0  0  0  0
   22.7424  -19.2313  -18.5038 C   0  0  0  0  0  0  0  0  0  0  0  0
   21.8682  -18.1711  -18.5667 C   0  0  0  0  0  0  0  0  0  0  0  0
   20.9888  -17.9357  -17.5267 C   0  0  0  0  0  0  0  0  0  0  0  0
   20.9490  -18.7383  -16.4002 C   0  0  0  0  0  0  0  0  0  0  0  0
   21.8389  -19.8085  -16.3483 C   0  0  0  0  0  0  0  0  0  0  0  0
   22.7222  -20.0569  -17.3768 C   0  0  0  0  0  0  0  0  0  0  0  0
   25.0026  -22.0268  -14.3242 C   0  0  0  0  0  0  0  0  0  0  0  0
   25.1517  -23.2380  -14.0223 O   0  0  0  0  0  0  0  0  0  0  0  0
   26.6425  -20.5822  -11.1398 C   0  0  0  0  0  0  0  0  0  0  0  0
   25.1564  -20.4948  -11.0500 C   0  0  2  0  0  0  0  0  0  0  0  0
   24.6561  -20.4826   -9.6234 C   0  0  0  0  0  0  0  0  0  0  0  0
   24.4335  -21.4859  -11.9188 C   0  0  2  0  0  0  0  0  0  0  0  0
   24.6706  -21.0799  -13.3262 N   0  0  0  0  0  0  0  0  0  0  0  0
   22.9937  -21.5847  -11.7236 C   0  0  0  0  0  0  0  0  0  0  0  0
   22.2497  -20.8012  -12.4287 O   0  0  0  0  0  0  0  0  0  0  0  0
   15.4274  -24.1618   -8.3881 N   0  0  0  0  0  0  0  0  0  0  0  0
   15.9341  -25.0629   -9.3578 C   0  0  0  0  0  0  0  0  0  0  0  0
   15.1531  -25.8022  -10.1058 N   0  0  0  0  0  0  0  0  0  0  0  0
   17.3355  -25.2282   -9.5868 N   0  0  0  0  0  0  0  0  0  0  0  0
   18.2824  -24.4887   -8.8193 C   0  0  0  0  0  0  0  0  0  0  0  0
   18.9553  -23.3811   -9.5772 C   0  0  0  0  0  0  0  0  0  0  0  0
   20.4311  -23.5828   -9.7606 C   0  0  0  0  0  0  0  0  0  0  0  0
   20.9150  -22.4337  -10.6528 C   0  0  2  0  0  0  0  0  0  0  0  0
   22.3655  -22.4857  -10.8124 N   0  0  0  0  0  0  0  0  0  0  0  0
   20.5015  -21.1198  -10.1216 C   0  0  0  0  0  0  0  0  0  0  0  0
   19.4833  -20.4186  -10.7739 O   0  0  0  0  0  0  0  0  0  0  0  0
   21.0290  -20.6219   -9.1176 O   0  0  0  0  0  0  0  0  0  0  0  0
  2  1  1  6
  2 13  1  0
  2  3  1  0
  4  3  1  0
  4  5  2  0
  6  5  1  0
  7  6  1  0
  8  7  2  0
  9  8  1  0
 10  9  2  0
 10 11  1  0
 11 12  2  0
 12  7  1  0
 12  4  1  0
 13 14  2  0
 16 15  1  1
 17 16  1  0
 18 16  1  0
 18 19  1  6
 19 13  1  0
 20 18  1  0
 21 20  2  0
 22 23  1  0
 23 25  1  0
 23 24  2  0
 25 26  1  0
 27 26  1  0
 27 28  1  0
 29 28  1  1
 29 30  1  0
 30 20  1  0
 31 29  1  0
 31 32  1  0
 33 31  2  0
M  END
$$$$
