DMK.pdb
     RDKit          3D

 26 25  0  0  1  0  0  0  0  0999 V2000
   16.6279  -11.2587  -13.7388 N   0  0  0  0  0  0  0  0  0  0  0  0
   17.2090  -10.0519  -13.2120 C   0  0  1  0  0  0  0  0  0  0  0  0
   17.8137   -9.3059  -14.4038 C   0  0  0  0  0  0  0  0  0  0  0  0
   18.9142  -10.1422  -14.9252 C   0  0  0  0  0  0  0  0  0  0  0  0
   18.8156  -10.6328  -16.0708 O   0  0  0  0  0  0  0  0  0  0  0  0
   16.2122   -9.2058  -12.5086 C   0  0  0  0  0  0  0  0  0  0  0  0
   15.1666   -8.8122  -13.0883 O   0  0  0  0  0  0  0  0  0  0  0  0
   20.0433  -10.3923  -14.1785 O   0  0  0  0  0  0  0  0  0  0  0  0
   11.7577   -7.9267   -6.9479 C   0  0  0  0  0  0  0  0  0  0  0  0
   12.8095   -8.6691   -8.2059 S   0  0  0  0  0  0  0  0  0  0  0  0
   14.5244   -8.0362   -8.0561 C   0  0  0  0  0  0  0  0  0  0  0  0
   15.4403   -8.6896   -9.0441 C   0  0  0  0  0  0  0  0  0  0  0  0
   15.5314   -8.0067  -10.3863 C   0  0  2  0  0  0  0  0  0  0  0  0
   16.4633   -8.8475  -11.1605 N   0  0  0  0  0  0  0  0  0  0  0  0
   16.0480   -6.6554  -10.2345 C   0  0  0  0  0  0  0  0  0  0  0  0
   17.2432   -6.5426   -9.7688 O   0  0  0  0  0  0  0  0  0  0  0  0
   15.4295   -5.4289  -10.5305 N   0  0  0  0  0  0  0  0  0  0  0  0
   16.1192   -4.1298  -10.3244 C   0  0  1  0  0  0  0  0  0  0  0  0
   15.8448   -3.2461  -11.5215 C   0  0  0  0  0  0  0  0  0  0  0  0
   16.4355   -1.8906  -11.3548 C   0  0  0  0  0  0  0  0  0  0  0  0
   16.2742   -1.0678  -12.6397 C   0  0  0  0  0  0  0  0  0  0  0  0
   16.9603    0.2764  -12.4141 C   0  0  0  0  0  0  0  0  0  0  0  0
   16.8439    1.0920  -13.6086 N   0  0  0  0  0  0  0  0  0  0  0  0
   15.5430   -3.5212   -9.1278 C   0  0  0  0  0  0  0  0  0  0  0  0
   14.3142   -3.9172   -8.6524 O   0  0  0  0  0  0  0  0  0  0  0  0
   16.1558   -2.6265   -8.5111 O   0  0  0  0  0  0  0  0  0  0  0  0
  2  1  1  6
  2  3  1  0
  3  4  1  0
  4  8  1  0
  5  4  2  0
  6  2  1  0
  7  6  2  0
  9 10  1  0
 10 11  1  0
 11 12  1  0
 13 12  1  1
 13 15  1  0
 13 14  1  0
 14  6  1  0
 15 16  2  0
 17 18  1  0
 17 15  1  0
 19 20  1  0
 18 19  1  6
 21 20  1  0
 22 21  1  0
 23 22  1  0
 24 18  1  0
 25 24  1  0
 26 24  2  0
M  END
$$$$
