DMK.pdb
     RDKit          3D

 26 25  0  0  1  0  0  0  0  0999 V2000
   28.3897  -21.2261  -16.2860 N   0  0  0  0  0  0  0  0  0  0  0  0
   27.6625  -20.2952  -15.4638 C   0  0  1  0  0  0  0  0  0  0  0  0
   26.9024  -19.3737  -16.4207 C   0  0  0  0  0  0  0  0  0  0  0  0
   27.8652  -18.3638  -16.9059 C   0  0  0  0  0  0  0  0  0  0  0  0
   28.7789  -17.9786  -16.1445 O   0  0  0  0  0  0  0  0  0  0  0  0
   26.7290  -20.9754  -14.5311 C   0  0  0  0  0  0  0  0  0  0  0  0
   25.9984  -21.9248  -14.9173 O   0  0  0  0  0  0  0  0  0  0  0  0
   27.7782  -17.8388  -18.1755 O   0  0  0  0  0  0  0  0  0  0  0  0
   27.8713  -20.1087   -8.1795 C   0  0  0  0  0  0  0  0  0  0  0  0
   26.0772  -20.2474   -8.1351 S   0  0  0  0  0  0  0  0  0  0  0  0
   25.4611  -21.0301   -9.6752 C   0  0  0  0  0  0  0  0  0  0  0  0
   26.2029  -20.5361  -10.8783 C   0  0  0  0  0  0  0  0  0  0  0  0
   25.7817  -21.1499  -12.1906 C   0  0  2  0  0  0  0  0  0  0  0  0
   26.6766  -20.5312  -13.1862 N   0  0  0  0  0  0  0  0  0  0  0  0
   24.3891  -20.8386  -12.4731 C   0  0  0  0  0  0  0  0  0  0  0  0
   24.0959  -19.5949  -12.6323 O   0  0  0  0  0  0  0  0  0  0  0  0
   23.2934  -21.7082  -12.6069 N   0  0  0  0  0  0  0  0  0  0  0  0
   21.9537  -21.2265  -13.0298 C   0  0  1  0  0  0  0  0  0  0  0  0
   21.1747  -22.4000  -13.5822 C   0  0  0  0  0  0  0  0  0  0  0  0
   19.8216  -21.9943  -14.0500 C   0  0  0  0  0  0  0  0  0  0  0  0
   19.0485  -23.2058  -14.5872 C   0  0  0  0  0  0  0  0  0  0  0  0
   17.6816  -22.7104  -15.0504 C   0  0  0  0  0  0  0  0  0  0  0  0
   16.8847  -23.8321  -15.5111 N   0  0  0  0  0  0  0  0  0  0  0  0
   21.2832  -20.7155  -11.8366 C   0  0  0  0  0  0  0  0  0  0  0  0
   21.5432  -21.2470  -10.5947 O   0  0  0  0  0  0  0  0  0  0  0  0
   20.4579  -19.7838  -11.9206 O   0  0  0  0  0  0  0  0  0  0  0  0
  2  1  1  6
  2  3  1  0
  3  4  1  0
  4  8  1  0
  5  4  2  0
  6  2  1  0
  7  6  2  0
  9 10  1  0
 10 11  1  0
 11 12  1  0
 13 12  1  1
 13 15  1  0
 13 14  1  0
 14  6  1  0
 15 16  2  0
 17 18  1  0
 17 15  1  0
 19 20  1  0
 18 19  1  1
 21 20  1  0
 22 21  1  0
 23 22  1  0
 24 18  1  0
 25 24  1  0
 26 24  2  0
M  END
$$$$
