DMK.pdb
     RDKit          3D

 26 25  0  0  1  0  0  0  0  0999 V2000
   18.8429  -10.0556  -18.5040 N   0  0  0  0  0  0  0  0  0  0  0  0
   18.3908  -11.1647  -17.7058 C   0  0  1  0  0  0  0  0  0  0  0  0
   19.0879  -12.4098  -18.2594 C   0  0  0  0  0  0  0  0  0  0  0  0
   18.5064  -12.6756  -19.5912 C   0  0  0  0  0  0  0  0  0  0  0  0
   19.2653  -12.7587  -20.5812 O   0  0  0  0  0  0  0  0  0  0  0  0
   18.6965  -10.9842  -16.2642 C   0  0  0  0  0  0  0  0  0  0  0  0
   18.5388  -11.9240  -15.4419 O   0  0  0  0  0  0  0  0  0  0  0  0
   17.1500  -12.8335  -19.7651 O   0  0  0  0  0  0  0  0  0  0  0  0
   24.5107  -10.1981  -14.0984 C   0  0  0  0  0  0  0  0  0  0  0  0
   22.9570   -9.5115  -13.5031 S   0  0  0  0  0  0  0  0  0  0  0  0
   21.9100   -8.9881  -14.9151 C   0  0  0  0  0  0  0  0  0  0  0  0
   20.5944   -8.4432  -14.4523 C   0  0  0  0  0  0  0  0  0  0  0  0
   19.4635   -9.4411  -14.4107 C   0  0  2  0  0  0  0  0  0  0  0  0
   19.1733   -9.7225  -15.8289 N   0  0  0  0  0  0  0  0  0  0  0  0
   18.3052   -8.8681  -13.7428 C   0  0  0  0  0  0  0  0  0  0  0  0
   17.8080   -7.8002  -14.2628 O   0  0  0  0  0  0  0  0  0  0  0  0
   17.6290   -9.3161  -12.5953 N   0  0  0  0  0  0  0  0  0  0  0  0
   16.4238   -8.6239  -12.0717 C   0  0  1  0  0  0  0  0  0  0  0  0
   15.4317   -9.6700  -11.6127 C   0  0  0  0  0  0  0  0  0  0  0  0
   14.1313   -9.0634  -11.2189 C   0  0  0  0  0  0  0  0  0  0  0  0
   13.2039  -10.1209  -10.6062 C   0  0  0  0  0  0  0  0  0  0  0  0
   11.8560   -9.4548  -10.3451 C   0  0  0  0  0  0  0  0  0  0  0  0
   10.9264  -10.4273   -9.8017 N   0  0  0  0  0  0  0  0  0  0  0  0
   16.8504   -7.8224  -10.9273 C   0  0  0  0  0  0  0  0  0  0  0  0
   16.0605   -6.8075  -10.4385 O   0  0  0  0  0  0  0  0  0  0  0  0
   17.9437   -8.0427  -10.3685 O   0  0  0  0  0  0  0  0  0  0  0  0
  2  1  1  6
  2  3  1  0
  3  4  1  0
  4  8  1  0
  5  4  2  0
  6  2  1  0
  7  6  2  0
  9 10  1  0
 10 11  1  0
 11 12  1  0
 13 12  1  6
 13 15  1  0
 13 14  1  0
 14  6  1  0
 15 16  2  0
 17 18  1  0
 17 15  1  0
 19 20  1  0
 18 19  1  1
 21 20  1  0
 22 21  1  0
 23 22  1  0
 24 18  1  0
 25 24  1  0
 26 24  2  0
M  END
$$$$
