DMK.pdb
     RDKit          3D

 26 25  0  0  1  0  0  0  0  0999 V2000
   16.3401  -11.8620  -15.8803 N   0  0  0  0  0  0  0  0  0  0  0  0
   16.2535  -10.5290  -16.4161 C   0  0  1  0  0  0  0  0  0  0  0  0
   14.7626  -10.2242  -16.5810 C   0  0  0  0  0  0  0  0  0  0  0  0
   14.2331  -11.1780  -17.5771 C   0  0  0  0  0  0  0  0  0  0  0  0
   13.2154  -11.8479  -17.2974 O   0  0  0  0  0  0  0  0  0  0  0  0
   16.9049   -9.5244  -15.5382 C   0  0  0  0  0  0  0  0  0  0  0  0
   16.5744   -9.4030  -14.3297 O   0  0  0  0  0  0  0  0  0  0  0  0
   14.8350  -11.3447  -18.8039 O   0  0  0  0  0  0  0  0  0  0  0  0
   22.5507   -6.4362  -12.5505 C   0  0  0  0  0  0  0  0  0  0  0  0
   21.4739   -7.6004  -13.4019 S   0  0  0  0  0  0  0  0  0  0  0  0
   21.1088   -7.0062  -15.0983 C   0  0  0  0  0  0  0  0  0  0  0  0
   20.1009   -7.8775  -15.7815 C   0  0  0  0  0  0  0  0  0  0  0  0
   18.6869   -7.7470  -15.2718 C   0  0  2  0  0  0  0  0  0  0  0  0
   17.9144   -8.6983  -16.0923 N   0  0  0  0  0  0  0  0  0  0  0  0
   18.2049   -6.3866  -15.4541 C   0  0  0  0  0  0  0  0  0  0  0  0
   18.0446   -5.9882  -16.6679 O   0  0  0  0  0  0  0  0  0  0  0  0
   17.8755   -5.4232  -14.4856 N   0  0  0  0  0  0  0  0  0  0  0  0
   17.3112   -4.0994  -14.8529 C   0  0  1  0  0  0  0  0  0  0  0  0
   16.0982   -3.8384  -13.9870 C   0  0  0  0  0  0  0  0  0  0  0  0
   15.5000   -2.5038  -14.2613 C   0  0  0  0  0  0  0  0  0  0  0  0
   14.2499   -2.2832  -13.3996 C   0  0  0  0  0  0  0  0  0  0  0  0
   13.2824   -3.4265  -13.6918 C   0  0  0  0  0  0  0  0  0  0  0  0
   11.9994   -3.1527  -13.0717 N   0  0  0  0  0  0  0  0  0  0  0  0
   18.3373   -3.0994  -14.5674 C   0  0  0  0  0  0  0  0  0  0  0  0
   19.5223   -3.4517  -13.9638 O   0  0  0  0  0  0  0  0  0  0  0  0
   18.1586   -1.9014  -14.8659 O   0  0  0  0  0  0  0  0  0  0  0  0
  2  1  1  1
  2  3  1  0
  3  4  1  0
  4  8  1  0
  5  4  2  0
  6  2  1  0
  7  6  2  0
  9 10  1  0
 10 11  1  0
 11 12  1  0
 13 12  1  6
 13 15  1  0
 13 14  1  0
 14  6  1  0
 15 16  2  0
 17 18  1  0
 17 15  1  0
 19 20  1  0
 18 19  1  1
 21 20  1  0
 22 21  1  0
 23 22  1  0
 24 18  1  0
 25 24  1  0
 26 24  2  0
M  END
$$$$
