DMK.pdb
     RDKit          3D

 26 25  0  0  1  0  0  0  0  0999 V2000
   20.9103  -13.5132  -16.4971 N   0  0  0  0  0  0  0  0  0  0  0  0
   20.9279  -12.1490  -16.9554 C   0  0  1  0  0  0  0  0  0  0  0  0
   19.4860  -11.7996  -17.3318 C   0  0  0  0  0  0  0  0  0  0  0  0
   19.1370  -12.6149  -18.5133 C   0  0  0  0  0  0  0  0  0  0  0  0
   18.0391  -12.4260  -19.0805 O   0  0  0  0  0  0  0  0  0  0  0  0
   21.4471  -11.2142  -15.9255 C   0  0  0  0  0  0  0  0  0  0  0  0
   20.9987  -11.2257  -14.7494 O   0  0  0  0  0  0  0  0  0  0  0  0
   19.9929  -13.5761  -19.0019 O   0  0  0  0  0  0  0  0  0  0  0  0
   27.2677  -10.1800  -17.1111 C   0  0  0  0  0  0  0  0  0  0  0  0
   27.0090  -10.7230  -15.4146 S   0  0  0  0  0  0  0  0  0  0  0  0
   25.2243  -10.6713  -14.9950 C   0  0  0  0  0  0  0  0  0  0  0  0
   24.5542   -9.4708  -15.5878 C   0  0  0  0  0  0  0  0  0  0  0  0
   23.0715   -9.3676  -15.3281 C   0  0  2  0  0  0  0  0  0  0  0  0
   22.4662  -10.3014  -16.2958 N   0  0  0  0  0  0  0  0  0  0  0  0
   22.6099   -8.0068  -15.5544 C   0  0  0  0  0  0  0  0  0  0  0  0
   22.6815   -7.5656  -16.7619 O   0  0  0  0  0  0  0  0  0  0  0  0
   22.0812   -7.0834  -14.6365 N   0  0  0  0  0  0  0  0  0  0  0  0
   21.6360   -5.7287  -15.0513 C   0  0  1  0  0  0  0  0  0  0  0  0
   20.1304   -5.7434  -15.1999 C   0  0  0  0  0  0  0  0  0  0  0  0
   19.5990   -4.4057  -15.5772 C   0  0  0  0  0  0  0  0  0  0  0  0
   18.0659   -4.4275  -15.6311 C   0  0  0  0  0  0  0  0  0  0  0  0
   17.5999   -3.0305  -16.0311 C   0  0  0  0  0  0  0  0  0  0  0  0
   16.1540   -3.0124  -16.1513 N   0  0  0  0  0  0  0  0  0  0  0  0
   22.0105   -4.8060  -13.9823 C   0  0  0  0  0  0  0  0  0  0  0  0
   22.1203   -3.4550  -14.2178 O   0  0  0  0  0  0  0  0  0  0  0  0
   22.2395   -5.2264  -12.8303 O   0  0  0  0  0  0  0  0  0  0  0  0
  2  1  1  1
  2  3  1  0
  3  4  1  0
  4  8  1  0
  5  4  2  0
  6  2  1  0
  7  6  2  0
  9 10  1  0
 10 11  1  0
 11 12  1  0
 13 12  1  6
 13 15  1  0
 13 14  1  0
 14  6  1  0
 15 16  2  0
 17 18  1  0
 17 15  1  0
 19 20  1  0
 18 19  1  1
 21 20  1  0
 22 21  1  0
 23 22  1  0
 24 18  1  0
 25 24  1  0
 26 24  2  0
M  END
$$$$
