DMK.pdb
     RDKit          3D

 26 25  0  0  1  0  0  0  0  0999 V2000
   28.8334  -21.3794  -15.5917 N   0  0  0  0  0  0  0  0  0  0  0  0
   28.0166  -20.4341  -14.8771 C   0  0  1  0  0  0  0  0  0  0  0  0
   27.3184  -19.5772  -15.9359 C   0  0  0  0  0  0  0  0  0  0  0  0
   28.3659  -18.7829  -16.6099 C   0  0  0  0  0  0  0  0  0  0  0  0
   28.9142  -17.8468  -15.9888 O   0  0  0  0  0  0  0  0  0  0  0  0
   27.0240  -21.0987  -13.9956 C   0  0  0  0  0  0  0  0  0  0  0  0
   26.2321  -21.9679  -14.4449 O   0  0  0  0  0  0  0  0  0  0  0  0
   28.7501  -19.0507  -17.9044 O   0  0  0  0  0  0  0  0  0  0  0  0
   27.8554  -20.1046   -7.7529 C   0  0  0  0  0  0  0  0  0  0  0  0
   26.0961  -20.4598   -7.6166 S   0  0  0  0  0  0  0  0  0  0  0  0
   25.4337  -21.0242   -9.2311 C   0  0  0  0  0  0  0  0  0  0  0  0
   26.3922  -20.7451  -10.3469 C   0  0  0  0  0  0  0  0  0  0  0  0
   25.9838  -21.2838  -11.6958 C   0  0  2  0  0  0  0  0  0  0  0  0
   26.9854  -20.7322  -12.6271 N   0  0  0  0  0  0  0  0  0  0  0  0
   24.6446  -20.8313  -12.0389 C   0  0  0  0  0  0  0  0  0  0  0  0
   24.4724  -19.5592  -12.1392 O   0  0  0  0  0  0  0  0  0  0  0  0
   23.4872  -21.5884  -12.2883 N   0  0  0  0  0  0  0  0  0  0  0  0
   22.2133  -20.9590  -12.7203 C   0  0  1  0  0  0  0  0  0  0  0  0
   21.4435  -21.9590  -13.5550 C   0  0  0  0  0  0  0  0  0  0  0  0
   20.1070  -21.4371  -13.9497 C   0  0  0  0  0  0  0  0  0  0  0  0
   19.3675  -22.4527  -14.8302 C   0  0  0  0  0  0  0  0  0  0  0  0
   18.0629  -21.8040  -15.2840 C   0  0  0  0  0  0  0  0  0  0  0  0
   17.2713  -22.7654  -16.0287 N   0  0  0  0  0  0  0  0  0  0  0  0
   21.4547  -20.6479  -11.5111 C   0  0  0  0  0  0  0  0  0  0  0  0
   20.5495  -19.6121  -11.4888 O   0  0  0  0  0  0  0  0  0  0  0  0
   21.6134  -21.3176  -10.4707 O   0  0  0  0  0  0  0  0  0  0  0  0
  2  1  1  6
  2  3  1  0
  3  4  1  0
  4  8  1  0
  5  4  2  0
  6  2  1  0
  7  6  2  0
  9 10  1  0
 10 11  1  0
 11 12  1  0
 13 12  1  1
 13 15  1  0
 13 14  1  0
 14  6  1  0
 15 16  2  0
 17 18  1  0
 17 15  1  0
 19 20  1  0
 18 19  1  6
 21 20  1  0
 22 21  1  0
 23 22  1  0
 24 18  1  0
 25 24  1  0
 26 24  2  0
M  END
$$$$
