DMK.pdb
     RDKit          3D

 26 25  0  0  1  0  0  0  0  0999 V2000
   28.1820  -22.9660  -16.5878 N   0  0  0  0  0  0  0  0  0  0  0  0
   27.5449  -21.7449  -16.1701 C   0  0  1  0  0  0  0  0  0  0  0  0
   26.8900  -21.1487  -17.4185 C   0  0  0  0  0  0  0  0  0  0  0  0
   27.9788  -20.6408  -18.2781 C   0  0  0  0  0  0  0  0  0  0  0  0
   28.2278  -21.2258  -19.3544 O   0  0  0  0  0  0  0  0  0  0  0  0
   26.5392  -21.9699  -15.1014 C   0  0  0  0  0  0  0  0  0  0  0  0
   25.8748  -23.0376  -15.0459 O   0  0  0  0  0  0  0  0  0  0  0  0
   28.7235  -19.5397  -17.9201 O   0  0  0  0  0  0  0  0  0  0  0  0
   24.1761  -21.4903   -8.2844 C   0  0  0  0  0  0  0  0  0  0  0  0
   25.1859  -21.5937   -9.7709 S   0  0  0  0  0  0  0  0  0  0  0  0
   25.0643  -20.0367  -10.7325 C   0  0  0  0  0  0  0  0  0  0  0  0
   25.8760  -20.1012  -11.9890 C   0  0  0  0  0  0  0  0  0  0  0  0
   25.4076  -21.1121  -13.0064 C   0  0  2  0  0  0  0  0  0  0  0  0
   26.3406  -20.9505  -14.1370 N   0  0  0  0  0  0  0  0  0  0  0  0
   24.0397  -20.8282  -13.4116 C   0  0  0  0  0  0  0  0  0  0  0  0
   23.8001  -19.6394  -13.8445 O   0  0  0  0  0  0  0  0  0  0  0  0
   22.9177  -21.6743  -13.4074 N   0  0  0  0  0  0  0  0  0  0  0  0
   21.5837  -21.2144  -13.8708 C   0  0  1  0  0  0  0  0  0  0  0  0
   20.7272  -22.4304  -14.1485 C   0  0  0  0  0  0  0  0  0  0  0  0
   19.3463  -22.0529  -14.5541 C   0  0  0  0  0  0  0  0  0  0  0  0
   18.5136  -23.3024  -14.8690 C   0  0  0  0  0  0  0  0  0  0  0  0
   17.1412  -22.8331  -15.3433 C   0  0  0  0  0  0  0  0  0  0  0  0
   16.2771  -23.9797  -15.5526 N   0  0  0  0  0  0  0  0  0  0  0  0
   20.9923  -20.4410  -12.7816 C   0  0  0  0  0  0  0  0  0  0  0  0
   20.1199  -19.4085  -13.0373 O   0  0  0  0  0  0  0  0  0  0  0  0
   21.2680  -20.7022  -11.5933 O   0  0  0  0  0  0  0  0  0  0  0  0
  2  1  1  6
  2  3  1  0
  3  4  1  0
  4  8  1  0
  5  4  2  0
  6  2  1  0
  7  6  2  0
  9 10  1  0
 10 11  1  0
 11 12  1  0
 13 12  1  1
 13 15  1  0
 13 14  1  0
 14  6  1  0
 15 16  2  0
 17 18  1  0
 17 15  1  0
 19 20  1  0
 18 19  1  1
 21 20  1  0
 22 21  1  0
 23 22  1  0
 24 18  1  0
 25 24  1  0
 26 24  2  0
M  END
$$$$
