DMK.pdb
     RDKit          3D

 26 25  0  0  1  0  0  0  0  0999 V2000
   28.4580  -21.6152  -15.8182 N   0  0  0  0  0  0  0  0  0  0  0  0
   27.8823  -20.6341  -14.9365 C   0  0  1  0  0  0  0  0  0  0  0  0
   27.1903  -19.6016  -15.8296 C   0  0  0  0  0  0  0  0  0  0  0  0
   28.2506  -18.8971  -16.5792 C   0  0  0  0  0  0  0  0  0  0  0  0
   29.0784  -18.2003  -15.9530 O   0  0  0  0  0  0  0  0  0  0  0  0
   26.9207  -21.2328  -13.9768 C   0  0  0  0  0  0  0  0  0  0  0  0
   26.1342  -22.1503  -14.3290 O   0  0  0  0  0  0  0  0  0  0  0  0
   28.3464  -18.9912  -17.9492 O   0  0  0  0  0  0  0  0  0  0  0  0
   27.3995  -19.0340   -7.7716 C   0  0  0  0  0  0  0  0  0  0  0  0
   26.3979  -20.5172   -7.5794 S   0  0  0  0  0  0  0  0  0  0  0  0
   25.5545  -20.9244   -9.1563 C   0  0  0  0  0  0  0  0  0  0  0  0
   26.4551  -20.7105  -10.3332 C   0  0  0  0  0  0  0  0  0  0  0  0
   25.9214  -21.2139  -11.6516 C   0  0  2  0  0  0  0  0  0  0  0  0
   26.9059  -20.7470  -12.6454 N   0  0  0  0  0  0  0  0  0  0  0  0
   24.6054  -20.6525  -11.9143 C   0  0  0  0  0  0  0  0  0  0  0  0
   24.5399  -19.3741  -12.0539 O   0  0  0  0  0  0  0  0  0  0  0  0
   23.3698  -21.3083  -12.0474 N   0  0  0  0  0  0  0  0  0  0  0  0
   22.1342  -20.5858  -12.4436 C   0  0  1  0  0  0  0  0  0  0  0  0
   21.4554  -21.3665  -13.5477 C   0  0  0  0  0  0  0  0  0  0  0  0
   20.1303  -20.7882  -13.8995 C   0  0  0  0  0  0  0  0  0  0  0  0
   19.4420  -21.6302  -14.9817 C   0  0  0  0  0  0  0  0  0  0  0  0
   18.0827  -20.9961  -15.2624 C   0  0  0  0  0  0  0  0  0  0  0  0
   17.3758  -21.7757  -16.2614 N   0  0  0  0  0  0  0  0  0  0  0  0
   21.2642  -20.5448  -11.2707 C   0  0  0  0  0  0  0  0  0  0  0  0
   20.2530  -19.6174  -11.1699 O   0  0  0  0  0  0  0  0  0  0  0  0
   21.4216  -21.3527  -10.3333 O   0  0  0  0  0  0  0  0  0  0  0  0
  2  1  1  6
  2  3  1  0
  3  4  1  0
  4  8  1  0
  5  4  2  0
  6  2  1  0
  7  6  2  0
  9 10  1  0
 10 11  1  0
 11 12  1  0
 13 12  1  1
 13 15  1  0
 13 14  1  0
 14  6  1  0
 15 16  2  0
 17 18  1  0
 17 15  1  0
 19 20  1  0
 18 19  1  6
 21 20  1  0
 22 21  1  0
 23 22  1  0
 24 18  1  0
 25 24  1  0
 26 24  2  0
M  END
$$$$
