DMK.pdb
     RDKit          3D

 26 25  0  0  1  0  0  0  0  0999 V2000
   28.3940  -20.9308  -15.9280 N   0  0  0  0  0  0  0  0  0  0  0  0
   27.1659  -21.5968  -16.2738 C   0  0  1  0  0  0  0  0  0  0  0  0
   27.5573  -22.9724  -16.8188 C   0  0  0  0  0  0  0  0  0  0  0  0
   28.3665  -22.7429  -18.0333 C   0  0  0  0  0  0  0  0  0  0  0  0
   28.2459  -21.6621  -18.6499 O   0  0  0  0  0  0  0  0  0  0  0  0
   26.2493  -21.7288  -15.1133 C   0  0  0  0  0  0  0  0  0  0  0  0
   25.2277  -22.4619  -15.1698 O   0  0  0  0  0  0  0  0  0  0  0  0
   29.2486  -23.6915  -18.4996 O   0  0  0  0  0  0  0  0  0  0  0  0
   23.8735  -21.3316   -8.4158 C   0  0  0  0  0  0  0  0  0  0  0  0
   24.6821  -21.5341  -10.0111 S   0  0  0  0  0  0  0  0  0  0  0  0
   25.6756  -20.0462  -10.4145 C   0  0  0  0  0  0  0  0  0  0  0  0
   26.3833  -20.1959  -11.7254 C   0  0  0  0  0  0  0  0  0  0  0  0
   25.6373  -20.9848  -12.7729 C   0  0  2  0  0  0  0  0  0  0  0  0
   26.5499  -21.0072  -13.9311 N   0  0  0  0  0  0  0  0  0  0  0  0
   24.3836  -20.3269  -13.1068 C   0  0  0  0  0  0  0  0  0  0  0  0
   24.4369  -19.0594  -13.3270 O   0  0  0  0  0  0  0  0  0  0  0  0
   23.0970  -20.8778  -13.2336 N   0  0  0  0  0  0  0  0  0  0  0  0
   21.9157  -20.0464  -13.5786 C   0  0  1  0  0  0  0  0  0  0  0  0
   21.2930  -20.5992  -14.8420 C   0  0  0  0  0  0  0  0  0  0  0  0
   20.0598  -19.8576  -15.2206 C   0  0  0  0  0  0  0  0  0  0  0  0
   19.3939  -20.5025  -16.4432 C   0  0  0  0  0  0  0  0  0  0  0  0
   18.2513  -19.5899  -16.8794 C   0  0  0  0  0  0  0  0  0  0  0  0
   17.5073  -20.2172  -17.9556 N   0  0  0  0  0  0  0  0  0  0  0  0
   20.9664  -20.1676  -12.4748 C   0  0  0  0  0  0  0  0  0  0  0  0
   20.1385  -19.1232  -12.1337 O   0  0  0  0  0  0  0  0  0  0  0  0
   20.8874  -21.2245  -11.8168 O   0  0  0  0  0  0  0  0  0  0  0  0
  2  1  1  1
  2  3  1  0
  3  4  1  0
  4  8  1  0
  5  4  2  0
  6  2  1  0
  7  6  2  0
  9 10  1  0
 10 11  1  0
 11 12  1  0
 13 12  1  1
 13 15  1  0
 13 14  1  0
 14  6  1  0
 15 16  2  0
 17 18  1  0
 17 15  1  0
 19 20  1  0
 18 19  1  6
 21 20  1  0
 22 21  1  0
 23 22  1  0
 24 18  1  0
 25 24  1  0
 26 24  2  0
M  END
$$$$
