DMK.pdb
     RDKit          3D

 26 25  0  0  1  0  0  0  0  0999 V2000
   28.1729  -21.5556  -16.0874 N   0  0  0  0  0  0  0  0  0  0  0  0
   27.3888  -20.6106  -15.3367 C   0  0  1  0  0  0  0  0  0  0  0  0
   26.5108  -19.8735  -16.3508 C   0  0  0  0  0  0  0  0  0  0  0  0
   27.4066  -19.0254  -17.1636 C   0  0  0  0  0  0  0  0  0  0  0  0
   27.5579  -17.8246  -16.8503 O   0  0  0  0  0  0  0  0  0  0  0  0
   26.5579  -21.2670  -14.2960 C   0  0  0  0  0  0  0  0  0  0  0  0
   26.1243  -22.4385  -14.4513 O   0  0  0  0  0  0  0  0  0  0  0  0
   28.0768  -19.5277  -18.2562 O   0  0  0  0  0  0  0  0  0  0  0  0
   27.9784  -20.7513   -8.6092 C   0  0  0  0  0  0  0  0  0  0  0  0
   26.2590  -20.6789   -8.0813 S   0  0  0  0  0  0  0  0  0  0  0  0
   25.1473  -20.6289   -9.5392 C   0  0  0  0  0  0  0  0  0  0  0  0
   25.9017  -20.3249  -10.7963 C   0  0  0  0  0  0  0  0  0  0  0  0
   25.4976  -21.1376  -12.0016 C   0  0  2  0  0  0  0  0  0  0  0  0
   26.2604  -20.5427  -13.1147 N   0  0  0  0  0  0  0  0  0  0  0  0
   24.0653  -21.0281  -12.2308 C   0  0  0  0  0  0  0  0  0  0  0  0
   23.6156  -19.8591  -12.5293 O   0  0  0  0  0  0  0  0  0  0  0  0
   23.0782  -22.0270  -12.1803 N   0  0  0  0  0  0  0  0  0  0  0  0
   21.6375  -21.7197  -12.3695 C   0  0  1  0  0  0  0  0  0  0  0  0
   20.8404  -22.5201  -11.3628 C   0  0  0  0  0  0  0  0  0  0  0  0
   19.3800  -22.2615  -11.4828 C   0  0  0  0  0  0  0  0  0  0  0  0
   18.6175  -23.5686  -11.7353 C   0  0  0  0  0  0  0  0  0  0  0  0
   17.1317  -23.2280  -11.8062 C   0  0  0  0  0  0  0  0  0  0  0  0
   16.3698  -24.4228  -12.1180 N   0  0  0  0  0  0  0  0  0  0  0  0
   21.4629  -20.2935  -12.1053 C   0  0  0  0  0  0  0  0  0  0  0  0
   22.4635  -19.5532  -11.5193 O   0  0  0  0  0  0  0  0  0  0  0  0
   20.3988  -19.7164  -12.4066 O   0  0  0  0  0  0  0  0  0  0  0  0
  2  1  1  6
  2  3  1  0
  3  4  1  0
  4  8  1  0
  5  4  2  0
  6  2  1  0
  7  6  2  0
  9 10  1  0
 10 11  1  0
 11 12  1  0
 13 12  1  1
 13 15  1  0
 13 14  1  0
 14  6  1  0
 15 16  2  0
 17 18  1  0
 17 15  1  0
 19 20  1  0
 18 19  1  1
 21 20  1  0
 22 21  1  0
 23 22  1  0
 24 18  1  0
 25 24  1  0
 26 24  2  0
M  END
$$$$
