DMK.pdb
     RDKit          3D

 26 25  0  0  1  0  0  0  0  0999 V2000
   15.3157  -12.3170  -15.9203 N   0  0  0  0  0  0  0  0  0  0  0  0
   15.6090  -11.0525  -16.5420 C   0  0  1  0  0  0  0  0  0  0  0  0
   14.2804  -10.2989  -16.6395 C   0  0  0  0  0  0  0  0  0  0  0  0
   13.3992  -11.0872  -17.5252 C   0  0  0  0  0  0  0  0  0  0  0  0
   13.8271  -11.4515  -18.6419 O   0  0  0  0  0  0  0  0  0  0  0  0
   16.6086  -10.2656  -15.7766 C   0  0  0  0  0  0  0  0  0  0  0  0
   16.4705  -10.0610  -14.5423 O   0  0  0  0  0  0  0  0  0  0  0  0
   12.1200  -11.4285  -17.1481 O   0  0  0  0  0  0  0  0  0  0  0  0
   23.3542   -9.0896  -13.6282 C   0  0  0  0  0  0  0  0  0  0  0  0
   21.7771   -9.7213  -14.2231 S   0  0  0  0  0  0  0  0  0  0  0  0
   21.3260   -8.9160  -15.8079 C   0  0  0  0  0  0  0  0  0  0  0  0
   20.0720   -9.4976  -16.3833 C   0  0  0  0  0  0  0  0  0  0  0  0
   18.7882   -8.9792  -15.7838 C   0  0  2  0  0  0  0  0  0  0  0  0
   17.7306   -9.7453  -16.4689 N   0  0  0  0  0  0  0  0  0  0  0  0
   18.6493   -7.5534  -16.0365 C   0  0  0  0  0  0  0  0  0  0  0  0
   18.5810   -7.1890  -17.2696 O   0  0  0  0  0  0  0  0  0  0  0  0
   18.5710   -6.4917  -15.1193 N   0  0  0  0  0  0  0  0  0  0  0  0
   18.4670   -5.0772  -15.5600 C   0  0  1  0  0  0  0  0  0  0  0  0
   17.3032   -4.4344  -14.8378 C   0  0  0  0  0  0  0  0  0  0  0  0
   17.1872   -2.9855  -15.1564 C   0  0  0  0  0  0  0  0  0  0  0  0
   15.9975   -2.3616  -14.4153 C   0  0  0  0  0  0  0  0  0  0  0  0
   15.8437   -0.9286  -14.9165 C   0  0  0  0  0  0  0  0  0  0  0  0
   14.6390   -0.3418  -14.3598 N   0  0  0  0  0  0  0  0  0  0  0  0
   19.7084   -4.4124  -15.1710 C   0  0  0  0  0  0  0  0  0  0  0  0
   20.5939   -5.0134  -14.3066 O   0  0  0  0  0  0  0  0  0  0  0  0
   19.9912   -3.2819  -15.6164 O   0  0  0  0  0  0  0  0  0  0  0  0
  2  1  1  1
  2  3  1  0
  3  4  1  0
  4  8  1  0
  5  4  2  0
  6  2  1  0
  7  6  2  0
  9 10  1  0
 10 11  1  0
 11 12  1  0
 13 12  1  6
 13 15  1  0
 13 14  1  0
 14  6  1  0
 15 16  2  0
 17 18  1  0
 17 15  1  0
 19 20  1  0
 18 19  1  1
 21 20  1  0
 22 21  1  0
 23 22  1  0
 24 18  1  0
 25 24  1  0
 26 24  2  0
M  END
$$$$
