DMK.pdb
     RDKit          3D

 26 25  0  0  1  0  0  0  0  0999 V2000
   24.7356  -18.9304  -18.6597 N   0  0  0  0  0  0  0  0  0  0  0  0
   23.5422  -18.6432  -17.9082 C   0  0  1  0  0  0  0  0  0  0  0  0
   22.4893  -18.1908  -18.9229 C   0  0  0  0  0  0  0  0  0  0  0  0
   22.5992  -16.7220  -19.0354 C   0  0  0  0  0  0  0  0  0  0  0  0
   22.7731  -16.2091  -20.1621 O   0  0  0  0  0  0  0  0  0  0  0  0
   23.0637  -19.8187  -17.1378 C   0  0  0  0  0  0  0  0  0  0  0  0
   22.0380  -20.4566  -17.4920 O   0  0  0  0  0  0  0  0  0  0  0  0
   22.5145  -15.9076  -17.9287 O   0  0  0  0  0  0  0  0  0  0  0  0
   26.8429  -21.5592  -12.1692 C   0  0  0  0  0  0  0  0  0  0  0  0
   27.2171  -22.4357  -13.6962 S   0  0  0  0  0  0  0  0  0  0  0  0
   25.9106  -22.1246  -14.9452 C   0  0  0  0  0  0  0  0  0  0  0  0
   24.6494  -21.6271  -14.3100 C   0  0  0  0  0  0  0  0  0  0  0  0
   23.4819  -21.4511  -15.2494 C   0  0  2  0  0  0  0  0  0  0  0  0
   23.7908  -20.2115  -15.9863 N   0  0  0  0  0  0  0  0  0  0  0  0
   22.2423  -21.3195  -14.4997 C   0  0  0  0  0  0  0  0  0  0  0  0
   22.1667  -20.3321  -13.6768 O   0  0  0  0  0  0  0  0  0  0  0  0
   21.0884  -22.1204  -14.5425 N   0  0  0  0  0  0  0  0  0  0  0  0
   19.8915  -21.8206  -13.7160 C   0  0  1  0  0  0  0  0  0  0  0  0
   18.6770  -21.8071  -14.6183 C   0  0  0  0  0  0  0  0  0  0  0  0
   17.4357  -21.4718  -13.8694 C   0  0  0  0  0  0  0  0  0  0  0  0
   16.2257  -21.4419  -14.8123 C   0  0  0  0  0  0  0  0  0  0  0  0
   15.0306  -20.9339  -14.0108 C   0  0  0  0  0  0  0  0  0  0  0  0
   13.8874  -20.7679  -14.8887 N   0  0  0  0  0  0  0  0  0  0  0  0
   19.7606  -22.8997  -12.7399 C   0  0  0  0  0  0  0  0  0  0  0  0
   19.0040  -22.7389  -11.6023 O   0  0  0  0  0  0  0  0  0  0  0  0
   20.3348  -23.9927  -12.9191 O   0  0  0  0  0  0  0  0  0  0  0  0
  2  1  1  6
  2  3  1  0
  3  4  1  0
  4  8  1  0
  5  4  2  0
  6  2  1  0
  7  6  2  0
  9 10  1  0
 10 11  1  0
 11 12  1  0
 13 12  1  1
 13 15  1  0
 13 14  1  0
 14  6  1  0
 15 16  2  0
 17 18  1  0
 17 15  1  0
 19 20  1  0
 18 19  1  6
 21 20  1  0
 22 21  1  0
 23 22  1  0
 24 18  1  0
 25 24  1  0
 26 24  2  0
M  END
$$$$
