AAQ.pdb
     RDKit          3D

 20 19  0  0  1  0  0  0  0  0999 V2000
    6.3539  -17.1873   20.0568 C   0  0  0  0  0  0  0  0  0  0  0  0
    7.0381  -15.8642   19.7085 C   0  0  2  0  0  0  0  0  0  0  0  0
    7.7891  -16.0833   18.5092 N   0  0  0  0  0  0  0  0  0  0  0  0
    7.9071  -15.5010   20.8650 C   0  0  0  0  0  0  0  0  0  0  0  0
    9.1014  -15.8948   20.8818 O   0  0  0  0  0  0  0  0  0  0  0  0
    7.5233  -13.4939   24.0853 C   0  0  0  0  0  0  0  0  0  0  0  0
    8.2464  -14.4287   23.1298 C   0  0  2  0  0  0  0  0  0  0  0  0
    7.4538  -14.7246   21.9629 N   0  0  0  0  0  0  0  0  0  0  0  0
    8.6134  -15.6473   23.8858 C   0  0  0  0  0  0  0  0  0  0  0  0
    7.7235  -16.5035   24.1058 O   0  0  0  0  0  0  0  0  0  0  0  0
   13.2431  -20.7854   24.2132 N   0  0  0  0  0  0  0  0  0  0  0  0
   13.3214  -19.3883   24.4490 C   0  0  0  0  0  0  0  0  0  0  0  0
   14.2966  -18.7589   23.9951 O   0  0  0  0  0  0  0  0  0  0  0  0
   12.2803  -18.7022   25.2095 C   0  0  0  0  0  0  0  0  0  0  0  0
   11.7668  -17.4378   24.6096 C   0  0  0  0  0  0  0  0  0  0  0  0
   10.3617  -17.1008   24.9882 C   0  0  2  0  0  0  0  0  0  0  0  0
    9.9395  -15.8405   24.3495 N   0  0  0  0  0  0  0  0  0  0  0  0
   10.1880  -16.9023   26.4420 C   0  0  0  0  0  0  0  0  0  0  0  0
   10.0350  -15.7417   26.8812 O   0  0  0  0  0  0  0  0  0  0  0  0
   10.1891  -17.9563   27.3307 O   0  0  0  0  0  0  0  0  0  0  0  0
  2  1  1  1
  3  2  1  0
  4  2  1  0
  4  5  2  0
  7  6  1  1
  7  8  1  0
  8  4  1  0
  9  7  1  0
  9 17  1  0
 10  9  2  0
 12 11  1  0
 13 12  2  0
 14 12  1  0
 15 14  1  0
 16 17  1  0
 16 15  1  1
 18 16  1  0
 19 18  2  0
 20 18  1  0
M  END
$$$$
