AAQ.pdb
     RDKit          3D

 20 19  0  0  1  0  0  0  0  0999 V2000
    7.7697  -18.5445   18.9074 C   0  0  0  0  0  0  0  0  0  0  0  0
    7.8260  -18.1201   20.3760 C   0  0  2  0  0  0  0  0  0  0  0  0
    6.4911  -18.2010   20.8876 N   0  0  0  0  0  0  0  0  0  0  0  0
    8.3650  -16.7298   20.4112 C   0  0  0  0  0  0  0  0  0  0  0  0
    9.5754  -16.5343   20.1311 O   0  0  0  0  0  0  0  0  0  0  0  0
    6.9978  -13.2205   20.5767 C   0  0  0  0  0  0  0  0  0  0  0  0
    8.0824  -14.2532   20.8357 C   0  0  2  0  0  0  0  0  0  0  0  0
    7.5758  -15.5997   20.7482 N   0  0  0  0  0  0  0  0  0  0  0  0
    8.6753  -13.9588   22.1597 C   0  0  0  0  0  0  0  0  0  0  0  0
    9.2164  -12.8409   22.3359 O   0  0  0  0  0  0  0  0  0  0  0  0
    6.9057  -11.9348   27.3689 N   0  0  0  0  0  0  0  0  0  0  0  0
    6.2885  -12.9493   26.5922 C   0  0  0  0  0  0  0  0  0  0  0  0
    5.0487  -12.9356   26.4668 O   0  0  0  0  0  0  0  0  0  0  0  0
    7.0906  -13.9895   25.9537 C   0  0  0  0  0  0  0  0  0  0  0  0
    8.2599  -13.5114   25.1624 C   0  0  0  0  0  0  0  0  0  0  0  0
    9.0905  -14.6014   24.5680 C   0  0  2  0  0  0  0  0  0  0  0  0
    8.6318  -14.9185   23.2028 N   0  0  0  0  0  0  0  0  0  0  0  0
    9.0148  -15.8650   25.3301 C   0  0  0  0  0  0  0  0  0  0  0  0
    8.2817  -16.7851   24.9068 O   0  0  0  0  0  0  0  0  0  0  0  0
    9.7271  -16.0624   26.4938 O   0  0  0  0  0  0  0  0  0  0  0  0
  2  1  1  6
  3  2  1  0
  4  2  1  0
  4  5  2  0
  7  6  1  1
  7  8  1  0
  8  4  1  0
  9  7  1  0
  9 17  1  0
 10  9  2  0
 12 11  1  0
 13 12  2  0
 14 12  1  0
 15 14  1  0
 16 17  1  0
 16 15  1  1
 18 16  1  0
 19 18  2  0
 20 18  1  0
M  END
$$$$
