AAQ.pdb
     RDKit          3D

 20 19  0  0  1  0  0  0  0  0999 V2000
    8.6862  -12.4024   19.8825 C   0  0  0  0  0  0  0  0  0  0  0  0
    8.0796  -13.7522   19.4950 C   0  0  2  0  0  0  0  0  0  0  0  0
    6.7566  -13.4942   19.0118 N   0  0  0  0  0  0  0  0  0  0  0  0
    8.0815  -14.6027   20.7203 C   0  0  0  0  0  0  0  0  0  0  0  0
    7.1860  -14.4316   21.5866 O   0  0  0  0  0  0  0  0  0  0  0  0
    9.7703  -17.7569   21.9102 C   0  0  0  0  0  0  0  0  0  0  0  0
    9.1008  -16.4154   22.1587 C   0  0  2  0  0  0  0  0  0  0  0  0
    9.0519  -15.6086   20.9654 N   0  0  0  0  0  0  0  0  0  0  0  0
    9.8289  -15.7478   23.2612 C   0  0  0  0  0  0  0  0  0  0  0  0
   10.8487  -15.0735   22.9805 O   0  0  0  0  0  0  0  0  0  0  0  0
   10.7941  -14.4933   30.2174 N   0  0  0  0  0  0  0  0  0  0  0  0
    9.9087  -14.9229   29.1951 C   0  0  0  0  0  0  0  0  0  0  0  0
    9.2604  -15.9731   29.3679 O   0  0  0  0  0  0  0  0  0  0  0  0
    9.7615  -14.1501   27.9646 C   0  0  0  0  0  0  0  0  0  0  0  0
    9.1417  -14.8719   26.8169 C   0  0  0  0  0  0  0  0  0  0  0  0
   10.0924  -15.2146   25.7170 C   0  0  2  0  0  0  0  0  0  0  0  0
    9.3829  -15.8686   24.6019 N   0  0  0  0  0  0  0  0  0  0  0  0
   11.1485  -16.1573   26.1405 C   0  0  0  0  0  0  0  0  0  0  0  0
   12.2705  -15.7071   26.4592 O   0  0  0  0  0  0  0  0  0  0  0  0
   10.9364  -17.5185   26.1955 O   0  0  0  0  0  0  0  0  0  0  0  0
  2  1  1  1
  3  2  1  0
  4  2  1  0
  4  5  2  0
  7  6  1  6
  7  8  1  0
  8  4  1  0
  9  7  1  0
  9 17  1  0
 10  9  2  0
 12 11  1  0
 13 12  2  0
 14 12  1  0
 15 14  1  0
 16 17  1  0
 16 15  1  1
 18 16  1  0
 19 18  2  0
 20 18  1  0
M  END
$$$$
