AAQ.pdb
     RDKit          3D

 20 19  0  0  1  0  0  0  0  0999 V2000
    6.2009  -15.4453   20.4691 C   0  0  0  0  0  0  0  0  0  0  0  0
    6.9531  -14.1274   20.6622 C   0  0  2  0  0  0  0  0  0  0  0  0
    7.8481  -13.9887   19.5532 N   0  0  0  0  0  0  0  0  0  0  0  0
    7.6729  -14.2191   21.9655 C   0  0  0  0  0  0  0  0  0  0  0  0
    8.8045  -14.7663   22.0035 O   0  0  0  0  0  0  0  0  0  0  0  0
    7.0415  -13.0757   25.5491 C   0  0  0  0  0  0  0  0  0  0  0  0
    7.8288  -13.7675   24.4485 C   0  0  2  0  0  0  0  0  0  0  0  0
    7.1431  -13.7157   23.1819 N   0  0  0  0  0  0  0  0  0  0  0  0
    8.0932  -15.1553   24.8902 C   0  0  0  0  0  0  0  0  0  0  0  0
    7.1609  -15.9915   24.8204 O   0  0  0  0  0  0  0  0  0  0  0  0
   12.4880  -20.5342   24.1172 N   0  0  0  0  0  0  0  0  0  0  0  0
   12.5339  -19.2639   24.7480 C   0  0  0  0  0  0  0  0  0  0  0  0
   13.5859  -18.5995   24.6788 O   0  0  0  0  0  0  0  0  0  0  0  0
   11.3716  -18.7466   25.4652 C   0  0  0  0  0  0  0  0  0  0  0  0
   10.8600  -17.4254   25.0018 C   0  0  0  0  0  0  0  0  0  0  0  0
    9.6780  -16.9197   25.7623 C   0  0  2  0  0  0  0  0  0  0  0  0
    9.3705  -15.5290   25.3802 N   0  0  0  0  0  0  0  0  0  0  0  0
    9.8956  -16.9050   27.2237 C   0  0  0  0  0  0  0  0  0  0  0  0
   10.0784  -15.8097   27.7983 O   0  0  0  0  0  0  0  0  0  0  0  0
    9.9037  -18.0611   27.9748 O   0  0  0  0  0  0  0  0  0  0  0  0
  2  1  1  6
  3  2  1  0
  4  2  1  0
  4  5  2  0
  7  6  1  1
  7  8  1  0
  8  4  1  0
  9  7  1  0
  9 17  1  0
 10  9  2  0
 12 11  1  0
 13 12  2  0
 14 12  1  0
 15 14  1  0
 16 17  1  0
 16 15  1  6
 18 16  1  0
 19 18  2  0
 20 18  1  0
M  END
$$$$
