AAQ.pdb
     RDKit          3D

 20 19  0  0  1  0  0  0  0  0999 V2000
    7.7668  -16.6842   15.7268 C   0  0  0  0  0  0  0  0  0  0  0  0
    8.1285  -15.2053   15.5782 C   0  0  2  0  0  0  0  0  0  0  0  0
    9.0167  -15.1010   14.4599 N   0  0  0  0  0  0  0  0  0  0  0  0
    8.7702  -14.7793   16.8555 C   0  0  0  0  0  0  0  0  0  0  0  0
    9.9897  -15.0249   17.0405 O   0  0  0  0  0  0  0  0  0  0  0  0
    7.7037  -12.8333   19.9563 C   0  0  0  0  0  0  0  0  0  0  0  0
    8.6778  -13.6341   19.1080 C   0  0  2  0  0  0  0  0  0  0  0  0
    8.0702  -14.1028   17.8880 N   0  0  0  0  0  0  0  0  0  0  0  0
    9.1937  -14.7423   19.9428 C   0  0  0  0  0  0  0  0  0  0  0  0
    8.6196  -15.8557   19.8776 O   0  0  0  0  0  0  0  0  0  0  0  0
   15.3698  -16.4598   19.8876 N   0  0  0  0  0  0  0  0  0  0  0  0
   14.5413  -15.3742   20.2729 C   0  0  0  0  0  0  0  0  0  0  0  0
   15.0796  -14.3091   20.6320 O   0  0  0  0  0  0  0  0  0  0  0  0
   13.0867  -15.5033   20.2503 C   0  0  0  0  0  0  0  0  0  0  0  0
   12.4156  -15.5011   21.5815 C   0  0  0  0  0  0  0  0  0  0  0  0
   10.9323  -15.6684   21.5254 C   0  0  2  0  0  0  0  0  0  0  0  0
   10.3104  -14.5484   20.7952 N   0  0  0  0  0  0  0  0  0  0  0  0
   10.3030  -15.6865   22.8621 C   0  0  0  0  0  0  0  0  0  0  0  0
    9.5598  -14.7378   23.1950 O   0  0  0  0  0  0  0  0  0  0  0  0
   10.5091  -16.7166   23.7550 O   0  0  0  0  0  0  0  0  0  0  0  0
  2  1  1  1
  3  2  1  0
  4  2  1  0
  4  5  2  0
  7  6  1  1
  7  8  1  0
  8  4  1  0
  9  7  1  0
  9 17  1  0
 10  9  2  0
 12 11  1  0
 13 12  2  0
 14 12  1  0
 15 14  1  0
 16 17  1  0
 16 15  1  1
 18 16  1  0
 19 18  2  0
 20 18  1  0
M  END
$$$$
