AAQ.pdb
     RDKit          3D

 20 19  0  0  1  0  0  0  0  0999 V2000
   11.0023  -17.4120   18.9983 C   0  0  0  0  0  0  0  0  0  0  0  0
   10.8113  -15.9032   18.8342 C   0  0  2  0  0  0  0  0  0  0  0  0
   12.0915  -15.3514   18.5068 N   0  0  0  0  0  0  0  0  0  0  0  0
   10.2827  -15.3838   20.1287 C   0  0  0  0  0  0  0  0  0  0  0  0
   11.0914  -14.9816   21.0038 O   0  0  0  0  0  0  0  0  0  0  0  0
    6.8392  -14.7559   21.6436 C   0  0  0  0  0  0  0  0  0  0  0  0
    8.3589  -14.7715   21.6511 C   0  0  2  0  0  0  0  0  0  0  0  0
    8.8979  -15.3178   20.4311 N   0  0  0  0  0  0  0  0  0  0  0  0
    8.7940  -15.5266   22.8476 C   0  0  0  0  0  0  0  0  0  0  0  0
    9.1053  -16.7340   22.7105 O   0  0  0  0  0  0  0  0  0  0  0  0
   10.5013  -14.9321   30.1373 N   0  0  0  0  0  0  0  0  0  0  0  0
   10.0115  -14.4466   28.8971 C   0  0  0  0  0  0  0  0  0  0  0  0
    9.5953  -13.2735   28.8364 O   0  0  0  0  0  0  0  0  0  0  0  0
    9.9943  -15.3055   27.7160 C   0  0  0  0  0  0  0  0  0  0  0  0
    9.5035  -14.6699   26.4601 C   0  0  0  0  0  0  0  0  0  0  0  0
    9.3453  -15.6123   25.3121 C   0  0  2  0  0  0  0  0  0  0  0  0
    8.8570  -14.8987   24.1175 N   0  0  0  0  0  0  0  0  0  0  0  0
    8.3654  -16.6857   25.5778 C   0  0  0  0  0  0  0  0  0  0  0  0
    7.1637  -16.4941   25.2907 O   0  0  0  0  0  0  0  0  0  0  0  0
    8.7337  -17.8929   26.1326 O   0  0  0  0  0  0  0  0  0  0  0  0
  2  1  1  1
  3  2  1  0
  4  2  1  0
  4  5  2  0
  7  6  1  6
  7  8  1  0
  8  4  1  0
  9  7  1  0
  9 17  1  0
 10  9  2  0
 12 11  1  0
 13 12  2  0
 14 12  1  0
 15 14  1  0
 16 17  1  0
 16 15  1  1
 18 16  1  0
 19 18  2  0
 20 18  1  0
M  END
$$$$
