AAQ.pdb
     RDKit          3D

 20 19  0  0  1  0  0  0  0  0999 V2000
    5.8044  -16.5466   21.0188 C   0  0  0  0  0  0  0  0  0  0  0  0
    6.6704  -15.2932   20.8800 C   0  0  2  0  0  0  0  0  0  0  0  0
    7.6367  -15.5620   19.8582 N   0  0  0  0  0  0  0  0  0  0  0  0
    7.3017  -15.0460   22.2086 C   0  0  0  0  0  0  0  0  0  0  0  0
    8.3659  -15.6480   22.5030 O   0  0  0  0  0  0  0  0  0  0  0  0
    6.6211  -12.8021   25.2144 C   0  0  0  0  0  0  0  0  0  0  0  0
    7.3343  -13.9206   24.4727 C   0  0  2  0  0  0  0  0  0  0  0  0
    6.7598  -14.1562   23.1721 N   0  0  0  0  0  0  0  0  0  0  0  0
    7.2959  -15.1249   25.3326 C   0  0  0  0  0  0  0  0  0  0  0  0
    6.2179  -15.7598   25.4223 O   0  0  0  0  0  0  0  0  0  0  0  0
    7.6763  -20.4711   28.1095 N   0  0  0  0  0  0  0  0  0  0  0  0
    7.4944  -19.9270   26.8116 C   0  0  0  0  0  0  0  0  0  0  0  0
    6.3576  -19.9622   26.3024 O   0  0  0  0  0  0  0  0  0  0  0  0
    8.6178  -19.3390   26.0869 C   0  0  0  0  0  0  0  0  0  0  0  0
    8.4115  -17.9487   25.5902 C   0  0  0  0  0  0  0  0  0  0  0  0
    8.5427  -16.8927   26.6385 C   0  0  2  0  0  0  0  0  0  0  0  0
    8.4511  -15.5494   26.0372 N   0  0  0  0  0  0  0  0  0  0  0  0
    9.8400  -16.9387   27.3443 C   0  0  0  0  0  0  0  0  0  0  0  0
   10.8212  -16.3435   26.8482 O   0  0  0  0  0  0  0  0  0  0  0  0
   10.0035  -17.6173   28.5332 O   0  0  0  0  0  0  0  0  0  0  0  0
  2  1  1  1
  3  2  1  0
  4  2  1  0
  4  5  2  0
  7  6  1  1
  7  8  1  0
  8  4  1  0
  9  7  1  0
  9 17  1  0
 10  9  2  0
 12 11  1  0
 13 12  2  0
 14 12  1  0
 15 14  1  0
 16 17  1  0
 16 15  1  6
 18 16  1  0
 19 18  2  0
 20 18  1  0
M  END
$$$$
