AAQ.pdb
     RDKit          3D

 20 19  0  0  1  0  0  0  0  0999 V2000
    7.3775  -12.6377   19.3505 C   0  0  0  0  0  0  0  0  0  0  0  0
    8.6938  -13.4170   19.3340 C   0  0  2  0  0  0  0  0  0  0  0  0
    8.9521  -13.7754   17.9719 N   0  0  0  0  0  0  0  0  0  0  0  0
    8.5092  -14.6098   20.2104 C   0  0  0  0  0  0  0  0  0  0  0  0
    8.3056  -14.4413   21.4399 O   0  0  0  0  0  0  0  0  0  0  0  0
    7.9685  -18.3269   19.6997 C   0  0  0  0  0  0  0  0  0  0  0  0
    8.3187  -17.1096   20.5396 C   0  0  2  0  0  0  0  0  0  0  0  0
    8.5515  -15.9429   19.7260 N   0  0  0  0  0  0  0  0  0  0  0  0
    9.4922  -17.4605   21.3709 C   0  0  0  0  0  0  0  0  0  0  0  0
    9.3990  -18.4371   22.1526 O   0  0  0  0  0  0  0  0  0  0  0  0
   13.2078  -14.2104   18.6133 N   0  0  0  0  0  0  0  0  0  0  0  0
   13.8358  -14.9369   19.6581 C   0  0  0  0  0  0  0  0  0  0  0  0
   15.0070  -15.3295   19.4933 O   0  0  0  0  0  0  0  0  0  0  0  0
   13.1229  -15.2198   20.9009 C   0  0  0  0  0  0  0  0  0  0  0  0
   13.1315  -16.6435   21.3427 C   0  0  0  0  0  0  0  0  0  0  0  0
   11.8932  -17.0756   22.0578 C   0  0  2  0  0  0  0  0  0  0  0  0
   10.6921  -16.7098   21.2843 N   0  0  0  0  0  0  0  0  0  0  0  0
   11.7390  -16.4371   23.3813 C   0  0  0  0  0  0  0  0  0  0  0  0
   10.8143  -15.6131   23.5527 O   0  0  0  0  0  0  0  0  0  0  0  0
   12.5825  -16.7208   24.4343 O   0  0  0  0  0  0  0  0  0  0  0  0
  2  1  1  6
  3  2  1  0
  4  2  1  0
  4  5  2  0
  7  6  1  6
  7  8  1  0
  8  4  1  0
  9  7  1  0
  9 17  1  0
 10  9  2  0
 12 11  1  0
 13 12  2  0
 14 12  1  0
 15 14  1  0
 16 17  1  0
 16 15  1  6
 18 16  1  0
 19 18  2  0
 20 18  1  0
M  END
$$$$
