AAQ.pdb
     RDKit          3D

 20 19  0  0  1  0  0  0  0  0999 V2000
    6.4702  -16.1831   21.9595 C   0  0  0  0  0  0  0  0  0  0  0  0
    7.0691  -14.8040   21.6771 C   0  0  2  0  0  0  0  0  0  0  0  0
    8.0507  -14.9755   20.6488 N   0  0  0  0  0  0  0  0  0  0  0  0
    7.6633  -14.3132   22.9541 C   0  0  0  0  0  0  0  0  0  0  0  0
    8.8285  -14.6700   23.2650 O   0  0  0  0  0  0  0  0  0  0  0  0
    6.5778  -12.0132   25.7969 C   0  0  0  0  0  0  0  0  0  0  0  0
    7.5236  -12.9725   25.0935 C   0  0  2  0  0  0  0  0  0  0  0  0
    6.9763  -13.4535   23.8500 N   0  0  0  0  0  0  0  0  0  0  0  0
    7.8314  -14.0713   26.0364 C   0  0  0  0  0  0  0  0  0  0  0  0
    6.9954  -14.9973   26.1669 O   0  0  0  0  0  0  0  0  0  0  0  0
   12.4346  -19.1931   27.8942 N   0  0  0  0  0  0  0  0  0  0  0  0
   11.9570  -18.0383   27.2220 C   0  0  0  0  0  0  0  0  0  0  0  0
   12.4397  -17.7514   26.1094 O   0  0  0  0  0  0  0  0  0  0  0  0
   10.9213  -17.2022   27.8229 C   0  0  0  0  0  0  0  0  0  0  0  0
   10.4441  -16.0625   26.9888 C   0  0  0  0  0  0  0  0  0  0  0  0
    9.4148  -15.2036   27.6476 C   0  0  2  0  0  0  0  0  0  0  0  0
    9.0428  -14.0755   26.7737 N   0  0  0  0  0  0  0  0  0  0  0  0
    9.8878  -14.6040   28.9125 C   0  0  0  0  0  0  0  0  0  0  0  0
   10.0681  -13.3680   28.9672 O   0  0  0  0  0  0  0  0  0  0  0  0
   10.1370  -15.3642   30.0354 O   0  0  0  0  0  0  0  0  0  0  0  0
  2  1  1  1
  3  2  1  0
  4  2  1  0
  4  5  2  0
  7  6  1  1
  7  8  1  0
  8  4  1  0
  9  7  1  0
  9 17  1  0
 10  9  2  0
 12 11  1  0
 13 12  2  0
 14 12  1  0
 15 14  1  0
 16 17  1  0
 16 15  1  6
 18 16  1  0
 19 18  2  0
 20 18  1  0
M  END
$$$$
