AAQ.pdb
     RDKit          3D

 20 19  0  0  1  0  0  0  0  0999 V2000
    8.3525  -15.4545   18.1674 C   0  0  0  0  0  0  0  0  0  0  0  0
    8.6485  -16.4245   19.3126 C   0  0  2  0  0  0  0  0  0  0  0  0
    7.4938  -17.2571   19.4663 N   0  0  0  0  0  0  0  0  0  0  0  0
    8.9214  -15.6013   20.5262 C   0  0  0  0  0  0  0  0  0  0  0  0
    9.9780  -14.9214   20.5807 O   0  0  0  0  0  0  0  0  0  0  0  0
    6.9277  -14.0316   23.2192 C   0  0  0  0  0  0  0  0  0  0  0  0
    8.2296  -14.6789   22.7766 C   0  0  2  0  0  0  0  0  0  0  0  0
    8.0418  -15.5425   21.6381 N   0  0  0  0  0  0  0  0  0  0  0  0
    8.7928  -15.3969   23.9421 C   0  0  0  0  0  0  0  0  0  0  0  0
    8.1742  -16.3946   24.3841 O   0  0  0  0  0  0  0  0  0  0  0  0
    9.9128  -13.5331   29.2223 N   0  0  0  0  0  0  0  0  0  0  0  0
   10.2035  -14.9153   29.3582 C   0  0  0  0  0  0  0  0  0  0  0  0
   10.6326  -15.3315   30.4517 O   0  0  0  0  0  0  0  0  0  0  0  0
   10.0048  -15.8313   28.2382 C   0  0  0  0  0  0  0  0  0  0  0  0
    9.6238  -15.1982   26.9435 C   0  0  0  0  0  0  0  0  0  0  0  0
   10.5038  -15.5657   25.7938 C   0  0  2  0  0  0  0  0  0  0  0  0
   10.0026  -14.9659   24.5434 N   0  0  0  0  0  0  0  0  0  0  0  0
   10.5625  -17.0227   25.5552 C   0  0  0  0  0  0  0  0  0  0  0  0
    9.5510  -17.6045   25.1060 O   0  0  0  0  0  0  0  0  0  0  0  0
   11.6975  -17.7620   25.8120 O   0  0  0  0  0  0  0  0  0  0  0  0
  2  1  1  6
  3  2  1  0
  4  2  1  0
  4  5  2  0
  7  6  1  1
  7  8  1  0
  8  4  1  0
  9  7  1  0
  9 17  1  0
 10  9  2  0
 12 11  1  0
 13 12  2  0
 14 12  1  0
 15 14  1  0
 16 17  1  0
 16 15  1  1
 18 16  1  0
 19 18  2  0
 20 18  1  0
M  END
$$$$
