AAQ.pdb
     RDKit          3D

 20 19  0  0  1  0  0  0  0  0999 V2000
    7.4248  -17.7134   16.5972 C   0  0  0  0  0  0  0  0  0  0  0  0
    7.4565  -17.8323   18.1220 C   0  0  2  0  0  0  0  0  0  0  0  0
    6.0967  -17.8412   18.5705 N   0  0  0  0  0  0  0  0  0  0  0  0
    8.2178  -16.6582   18.6385 C   0  0  0  0  0  0  0  0  0  0  0  0
    9.4735  -16.6635   18.5700 O   0  0  0  0  0  0  0  0  0  0  0  0
    7.4417  -13.1784   19.9323 C   0  0  0  0  0  0  0  0  0  0  0  0
    8.3061  -14.4232   19.8179 C   0  0  2  0  0  0  0  0  0  0  0  0
    7.5939  -15.5195   19.2111 N   0  0  0  0  0  0  0  0  0  0  0  0
    8.7996  -14.7531   21.1739 C   0  0  0  0  0  0  0  0  0  0  0  0
    8.0488  -14.5277   22.1532 O   0  0  0  0  0  0  0  0  0  0  0  0
   11.4227  -20.0178   25.0668 N   0  0  0  0  0  0  0  0  0  0  0  0
   10.4943  -19.1935   24.3797 C   0  0  0  0  0  0  0  0  0  0  0  0
    9.4323  -19.7013   23.9705 O   0  0  0  0  0  0  0  0  0  0  0  0
   10.7786  -17.7786   24.1556 C   0  0  0  0  0  0  0  0  0  0  0  0
   10.2080  -17.1930   22.9092 C   0  0  0  0  0  0  0  0  0  0  0  0
   10.5581  -15.7583   22.6846 C   0  0  2  0  0  0  0  0  0  0  0  0
   10.0902  -15.3105   21.3598 N   0  0  0  0  0  0  0  0  0  0  0  0
   12.0142  -15.5091   22.7112 C   0  0  0  0  0  0  0  0  0  0  0  0
   12.6274  -15.3828   21.6289 O   0  0  0  0  0  0  0  0  0  0  0  0
   12.7193  -15.4111   23.8919 O   0  0  0  0  0  0  0  0  0  0  0  0
  2  1  1  6
  3  2  1  0
  4  2  1  0
  4  5  2  0
  7  6  1  1
  7  8  1  0
  8  4  1  0
  9  7  1  0
  9 17  1  0
 10  9  2  0
 12 11  1  0
 13 12  2  0
 14 12  1  0
 15 14  1  0
 16 17  1  0
 16 15  1  6
 18 16  1  0
 19 18  2  0
 20 18  1  0
M  END
$$$$
