AAQ.pdb
     RDKit          3D

 20 19  0  0  1  0  0  0  0  0999 V2000
   -2.3313  -20.3733   23.9893 C   0  0  0  0  0  0  0  0  0  0  0  0
   -1.8817  -21.8234   23.8023 C   0  0  2  0  0  0  0  0  0  0  0  0
   -2.0118  -22.1266   22.4089 N   0  0  0  0  0  0  0  0  0  0  0  0
   -2.7661  -22.6709   24.6534 C   0  0  0  0  0  0  0  0  0  0  0  0
   -4.0093  -22.6402   24.4663 O   0  0  0  0  0  0  0  0  0  0  0  0
   -2.2958  -25.4050   27.2510 C   0  0  0  0  0  0  0  0  0  0  0  0
   -3.1062  -24.3558   26.5079 C   0  0  2  0  0  0  0  0  0  0  0  0
   -2.2746  -23.5219   25.6771 N   0  0  0  0  0  0  0  0  0  0  0  0
   -3.8602  -23.5753   27.5146 C   0  0  0  0  0  0  0  0  0  0  0  0
   -3.3682  -22.4965   27.9240 O   0  0  0  0  0  0  0  0  0  0  0  0
  -10.4004  -22.7589   31.0564 N   0  0  0  0  0  0  0  0  0  0  0  0
   -9.5272  -23.3356   30.0979 C   0  0  0  0  0  0  0  0  0  0  0  0
   -9.9996  -24.1250   29.2572 O   0  0  0  0  0  0  0  0  0  0  0  0
   -8.1033  -23.0112   30.0979 C   0  0  0  0  0  0  0  0  0  0  0  0
   -7.2820  -23.7005   29.0622 C   0  0  0  0  0  0  0  0  0  0  0  0
   -5.8367  -23.3235   29.0687 C   0  0  2  0  0  0  0  0  0  0  0  0
   -5.1087  -24.0373   28.0032 N   0  0  0  0  0  0  0  0  0  0  0  0
   -5.1560  -23.6699   30.3336 C   0  0  0  0  0  0  0  0  0  0  0  0
   -4.6420  -24.8032   30.4546 O   0  0  0  0  0  0  0  0  0  0  0  0
   -5.0693  -22.7831   31.3856 O   0  0  0  0  0  0  0  0  0  0  0  0
  2  1  1  6
  3  2  1  0
  4  2  1  0
  4  5  2  0
  7  6  1  1
  7  8  1  0
  8  4  1  0
  9  7  1  0
  9 17  1  0
 10  9  2  0
 12 11  1  0
 13 12  2  0
 14 12  1  0
 15 14  1  0
 16 17  1  0
 16 15  1  1
 18 16  1  0
 19 18  2  0
 20 18  1  0
M  END
$$$$
