AAQ.pdb
     RDKit          3D

 20 19  0  0  1  0  0  0  0  0999 V2000
    5.9835  -18.0370   21.6509 C   0  0  0  0  0  0  0  0  0  0  0  0
    6.1478  -17.5054   20.2260 C   0  0  2  0  0  0  0  0  0  0  0  0
    6.3280  -18.6411   19.3727 N   0  0  0  0  0  0  0  0  0  0  0  0
    7.3348  -16.6020   20.2282 C   0  0  0  0  0  0  0  0  0  0  0  0
    8.4873  -17.1042   20.1941 O   0  0  0  0  0  0  0  0  0  0  0  0
    7.9685  -12.8612   19.9973 C   0  0  0  0  0  0  0  0  0  0  0  0
    8.3632  -14.2937   20.3164 C   0  0  2  0  0  0  0  0  0  0  0  0
    7.2333  -15.1872   20.2673 N   0  0  0  0  0  0  0  0  0  0  0  0
    9.0240  -14.2927   21.6409 C   0  0  0  0  0  0  0  0  0  0  0  0
   10.1261  -13.7051   21.7574 O   0  0  0  0  0  0  0  0  0  0  0  0
    5.7133  -11.9085   26.5912 N   0  0  0  0  0  0  0  0  0  0  0  0
    6.1480  -13.1890   26.1613 C   0  0  0  0  0  0  0  0  0  0  0  0
    5.5618  -14.1978   26.5991 O   0  0  0  0  0  0  0  0  0  0  0  0
    7.2613  -13.3216   25.2253 C   0  0  0  0  0  0  0  0  0  0  0  0
    7.8509  -14.6859   25.1093 C   0  0  0  0  0  0  0  0  0  0  0  0
    8.9612  -14.7963   24.1163 C   0  0  2  0  0  0  0  0  0  0  0  0
    8.4243  -14.9410   22.7505 N   0  0  0  0  0  0  0  0  0  0  0  0
    9.8243  -15.9736   24.3447 C   0  0  0  0  0  0  0  0  0  0  0  0
   10.4994  -16.0356   25.3952 O   0  0  0  0  0  0  0  0  0  0  0  0
    9.9092  -17.0070   23.4360 O   0  0  0  0  0  0  0  0  0  0  0  0
  2  1  1  1
  3  2  1  0
  4  2  1  0
  4  5  2  0
  7  6  1  1
  7  8  1  0
  8  4  1  0
  9  7  1  0
  9 17  1  0
 10  9  2  0
 12 11  1  0
 13 12  2  0
 14 12  1  0
 15 14  1  0
 16 17  1  0
 16 15  1  1
 18 16  1  0
 19 18  2  0
 20 18  1  0
M  END
$$$$
