AAQ.pdb
     RDKit          3D

 20 19  0  0  1  0  0  0  0  0999 V2000
    8.6611  -12.1680   19.5349 C   0  0  0  0  0  0  0  0  0  0  0  0
    8.5998  -13.5788   18.9468 C   0  0  2  0  0  0  0  0  0  0  0  0
    7.7639  -13.5134   17.7860 N   0  0  0  0  0  0  0  0  0  0  0  0
    8.0381  -14.4708   20.0022 C   0  0  0  0  0  0  0  0  0  0  0  0
    6.9923  -15.1254   19.7586 O   0  0  0  0  0  0  0  0  0  0  0  0
    9.4301  -16.9425   21.3173 C   0  0  0  0  0  0  0  0  0  0  0  0
    8.6405  -15.8566   22.0296 C   0  0  2  0  0  0  0  0  0  0  0  0
    8.6275  -14.6233   21.2840 N   0  0  0  0  0  0  0  0  0  0  0  0
    9.2218  -15.6924   23.3810 C   0  0  0  0  0  0  0  0  0  0  0  0
   10.4685  -15.7519   23.5055 O   0  0  0  0  0  0  0  0  0  0  0  0
    5.9985  -10.9273   26.2720 N   0  0  0  0  0  0  0  0  0  0  0  0
    6.2483  -12.3011   26.5244 C   0  0  0  0  0  0  0  0  0  0  0  0
    5.5211  -12.9014   27.3392 O   0  0  0  0  0  0  0  0  0  0  0  0
    7.3369  -12.9971   25.8436 C   0  0  0  0  0  0  0  0  0  0  0  0
    7.8565  -14.2144   26.5296 C   0  0  0  0  0  0  0  0  0  0  0  0
    8.9209  -14.9415   25.7748 C   0  0  2  0  0  0  0  0  0  0  0  0
    8.3878  -15.4730   24.5068 N   0  0  0  0  0  0  0  0  0  0  0  0
    9.4597  -16.1030   26.5123 C   0  0  0  0  0  0  0  0  0  0  0  0
    9.0550  -17.2487   26.2177 O   0  0  0  0  0  0  0  0  0  0  0  0
   10.3951  -15.9640   27.5155 O   0  0  0  0  0  0  0  0  0  0  0  0
  2  1  1  1
  3  2  1  0
  4  2  1  0
  4  5  2  0
  7  6  1  6
  7  8  1  0
  8  4  1  0
  9  7  1  0
  9 17  1  0
 10  9  2  0
 12 11  1  0
 13 12  2  0
 14 12  1  0
 15 14  1  0
 16 17  1  0
 16 15  1  1
 18 16  1  0
 19 18  2  0
 20 18  1  0
M  END
$$$$
