YAT.pdb
     RDKit          3D

 25 25  0  0  1  0  0  0  0  0999 V2000
   11.4830  -14.7280   28.4838 O   0  0  0  0  0  0  0  0  0  0  0  0
   10.2398  -14.9024   27.8808 C   0  0  0  0  0  0  0  0  0  0  0  0
    9.5712  -16.1123   27.9739 C   0  0  0  0  0  0  0  0  0  0  0  0
    8.3462  -16.2826   27.3803 C   0  0  0  0  0  0  0  0  0  0  0  0
    7.7164  -15.2748   26.6655 C   0  0  0  0  0  0  0  0  0  0  0  0
    6.3836  -15.4879   26.0271 C   0  0  0  0  0  0  0  0  0  0  0  0
    6.4462  -16.7558   25.2011 C   0  0  2  0  0  0  0  0  0  0  0  0
    7.2744  -17.7367   25.9110 N   0  0  0  0  0  0  0  0  0  0  0  0
    7.0433  -16.5383   23.8776 C   0  0  0  0  0  0  0  0  0  0  0  0
    7.5953  -17.4960   23.2593 O   0  0  0  0  0  0  0  0  0  0  0  0
    8.3877  -14.0693   26.5754 C   0  0  0  0  0  0  0  0  0  0  0  0
    9.6240  -13.8941   27.1737 C   0  0  0  0  0  0  0  0  0  0  0  0
    7.2314  -13.7026   21.3958 C   0  0  0  0  0  0  0  0  0  0  0  0
    7.4798  -15.1496   21.8223 C   0  0  2  0  0  0  0  0  0  0  0  0
    7.0570  -15.2812   23.1933 N   0  0  0  0  0  0  0  0  0  0  0  0
    8.8871  -15.5419   21.6175 C   0  0  0  0  0  0  0  0  0  0  0  0
    9.3873  -15.4549   20.4577 O   0  0  0  0  0  0  0  0  0  0  0  0
   11.8168  -14.8893   24.3103 C   0  0  0  0  0  0  0  0  0  0  0  0
   11.9187  -16.2559   23.7239 C   0  0  1  0  0  0  0  0  0  0  0  0
   11.4847  -17.1837   24.6672 O   0  0  0  0  0  0  0  0  0  0  0  0
   11.1145  -16.4088   22.4516 C   0  0  2  0  0  0  0  0  0  0  0  0
    9.7335  -16.0180   22.6439 N   0  0  0  0  0  0  0  0  0  0  0  0
   11.2500  -17.7155   21.8010 C   0  0  0  0  0  0  0  0  0  0  0  0
   10.2471  -18.4160   21.5345 O   0  0  0  0  0  0  0  0  0  0  0  0
   12.4867  -18.2727   21.4337 O   0  0  0  0  0  0  0  0  0  0  0  0
  2  1  1  0
  3  2  2  0
  4  3  1  0
  5  4  2  0
  5 11  1  0
  6  5  1  0
  7  9  1  0
  7  6  1  0
  7  8  1  1
  9 10  2  0
 11 12  2  0
 12  2  1  0
 14 13  1  1
 14 16  1  0
 15 14  1  0
 15  9  1  0
 16 22  1  0
 17 16  2  0
 19 20  1  0
 19 18  1  1
 21 19  1  0
 21 22  1  1
 23 25  1  0
 23 21  1  0
 24 23  2  0
M  END
$$$$
