YAT.pdb
     RDKit          3D

 25 25  0  0  1  0  0  0  0  0999 V2000
   10.3364  -14.3320   30.5419 O   0  0  0  0  0  0  0  0  0  0  0  0
   10.0411  -14.6396   29.2162 C   0  0  0  0  0  0  0  0  0  0  0  0
    9.7196  -13.6402   28.3121 C   0  0  0  0  0  0  0  0  0  0  0  0
    9.4298  -13.9443   27.0062 C   0  0  0  0  0  0  0  0  0  0  0  0
    9.4404  -15.2439   26.5222 C   0  0  0  0  0  0  0  0  0  0  0  0
    9.1185  -15.5472   25.0962 C   0  0  0  0  0  0  0  0  0  0  0  0
    7.7021  -15.0892   24.8177 C   0  0  2  0  0  0  0  0  0  0  0  0
    6.7773  -15.9423   25.5720 N   0  0  0  0  0  0  0  0  0  0  0  0
    7.3460  -15.1879   23.3967 C   0  0  0  0  0  0  0  0  0  0  0  0
    6.8219  -16.2468   22.9403 O   0  0  0  0  0  0  0  0  0  0  0  0
    9.7618  -16.2377   27.4283 C   0  0  0  0  0  0  0  0  0  0  0  0
   10.0551  -15.9340   28.7469 C   0  0  0  0  0  0  0  0  0  0  0  0
    7.6288  -13.0159   20.3229 C   0  0  0  0  0  0  0  0  0  0  0  0
    7.4330  -14.3633   21.0185 C   0  0  2  0  0  0  0  0  0  0  0  0
    7.5486  -14.1447   22.4379 N   0  0  0  0  0  0  0  0  0  0  0  0
    8.3808  -15.3762   20.5166 C   0  0  0  0  0  0  0  0  0  0  0  0
    9.5517  -15.4141   20.9967 O   0  0  0  0  0  0  0  0  0  0  0  0
    7.5194  -19.2161   19.8177 C   0  0  0  0  0  0  0  0  0  0  0  0
    8.2548  -18.6154   18.6686 C   0  0  1  0  0  0  0  0  0  0  0  0
    7.3504  -18.3555   17.6422 O   0  0  0  0  0  0  0  0  0  0  0  0
    8.9830  -17.3425   19.0403 C   0  0  2  0  0  0  0  0  0  0  0  0
    8.0691  -16.3258   19.5179 N   0  0  0  0  0  0  0  0  0  0  0  0
    9.8993  -16.8443   18.0101 C   0  0  0  0  0  0  0  0  0  0  0  0
   10.9516  -17.4594   17.7236 O   0  0  0  0  0  0  0  0  0  0  0  0
    9.6751  -15.6650   17.2796 O   0  0  0  0  0  0  0  0  0  0  0  0
  2  1  1  0
  3  2  2  0
  4  3  1  0
  5  4  2  0
  5 11  1  0
  6  5  1  0
  7  9  1  0
  7  6  1  0
  7  8  1  1
  9 10  2  0
 11 12  2  0
 12  2  1  0
 14 13  1  6
 14 16  1  0
 15 14  1  0
 15  9  1  0
 16 22  1  0
 17 16  2  0
 19 20  1  0
 19 18  1  1
 21 19  1  0
 21 22  1  6
 23 25  1  0
 23 21  1  0
 24 23  2  0
M  END
$$$$
