YAT.pdb
     RDKit          3D

 25 25  0  0  1  0  0  0  0  0999 V2000
   -2.4090  -17.7504   30.0877 O   0  0  0  0  0  0  0  0  0  0  0  0
   -3.2191  -18.8801   30.0060 C   0  0  0  0  0  0  0  0  0  0  0  0
   -3.4561  -19.4947   28.7871 C   0  0  0  0  0  0  0  0  0  0  0  0
   -4.2536  -20.6081   28.7079 C   0  0  0  0  0  0  0  0  0  0  0  0
   -4.8586  -21.1738   29.8202 C   0  0  0  0  0  0  0  0  0  0  0  0
   -5.7242  -22.3849   29.7053 C   0  0  0  0  0  0  0  0  0  0  0  0
   -4.9778  -23.5638   30.2942 C   0  0  2  0  0  0  0  0  0  0  0  0
   -3.9405  -23.9826   29.3453 N   0  0  0  0  0  0  0  0  0  0  0  0
   -5.8511  -24.7176   30.5428 C   0  0  0  0  0  0  0  0  0  0  0  0
   -6.0323  -25.5889   29.6416 O   0  0  0  0  0  0  0  0  0  0  0  0
   -4.6191  -20.5567   31.0342 C   0  0  0  0  0  0  0  0  0  0  0  0
   -3.8144  -19.4331   31.1176 C   0  0  0  0  0  0  0  0  0  0  0  0
   -7.4946  -26.3666   33.4629 C   0  0  0  0  0  0  0  0  0  0  0  0
   -7.4175  -26.0874   31.9617 C   0  0  2  0  0  0  0  0  0  0  0  0
   -6.5476  -24.9550   31.7705 N   0  0  0  0  0  0  0  0  0  0  0  0
   -8.7570  -25.8849   31.3777 C   0  0  0  0  0  0  0  0  0  0  0  0
   -9.2793  -24.7325   31.4220 O   0  0  0  0  0  0  0  0  0  0  0  0
  -10.0883  -26.6787   27.7634 C   0  0  0  0  0  0  0  0  0  0  0  0
  -10.9052  -27.3723   28.7996 C   0  0  1  0  0  0  0  0  0  0  0  0
  -10.4816  -28.6953   28.8951 O   0  0  0  0  0  0  0  0  0  0  0  0
  -10.8155  -26.7095   30.1566 C   0  0  2  0  0  0  0  0  0  0  0  0
   -9.5141  -26.9058   30.7605 N   0  0  0  0  0  0  0  0  0  0  0  0
  -11.9186  -27.0351   31.0654 C   0  0  0  0  0  0  0  0  0  0  0  0
  -11.7232  -27.6823   32.1193 O   0  0  0  0  0  0  0  0  0  0  0  0
  -13.2515  -26.6561   30.8317 O   0  0  0  0  0  0  0  0  0  0  0  0
  2  1  1  0
  3  2  2  0
  4  3  1  0
  5  4  2  0
  5 11  1  0
  6  5  1  0
  7  9  1  0
  7  6  1  0
  7  8  1  6
  9 10  2  0
 11 12  2  0
 12  2  1  0
 14 13  1  1
 14 16  1  0
 15 14  1  0
 15  9  1  0
 16 22  1  0
 17 16  2  0
 19 20  1  0
 19 18  1  6
 21 19  1  0
 21 22  1  1
 23 25  1  0
 23 21  1  0
 24 23  2  0
M  END
$$$$
