YAT.pdb
     RDKit          3D

 25 25  0  0  1  0  0  0  0  0999 V2000
    7.6172  -12.9240   16.2668 O   0  0  0  0  0  0  0  0  0  0  0  0
    7.5658  -13.3250   17.5995 C   0  0  0  0  0  0  0  0  0  0  0  0
    6.9611  -14.5193   17.9567 C   0  0  0  0  0  0  0  0  0  0  0  0
    6.9119  -14.9138   19.2696 C   0  0  0  0  0  0  0  0  0  0  0  0
    7.4530  -14.1563   20.2975 C   0  0  0  0  0  0  0  0  0  0  0  0
    7.3834  -14.6082   21.7188 C   0  0  0  0  0  0  0  0  0  0  0  0
    8.7622  -15.0702   22.1419 C   0  0  2  0  0  0  0  0  0  0  0  0
    9.2418  -16.0615   21.1726 N   0  0  0  0  0  0  0  0  0  0  0  0
    8.7640  -15.7015   23.4674 C   0  0  0  0  0  0  0  0  0  0  0  0
    8.2617  -15.1009   24.4630 O   0  0  0  0  0  0  0  0  0  0  0  0
    8.0553  -12.9653   19.9359 C   0  0  0  0  0  0  0  0  0  0  0  0
    8.1070  -12.5645   18.6117 C   0  0  0  0  0  0  0  0  0  0  0  0
    9.6624  -19.0481   24.9359 C   0  0  0  0  0  0  0  0  0  0  0  0
    9.3149  -17.5652   25.0695 C   0  0  2  0  0  0  0  0  0  0  0  0
    9.3088  -16.9954   23.7462 N   0  0  0  0  0  0  0  0  0  0  0  0
   10.2390  -16.8716   25.9867 C   0  0  0  0  0  0  0  0  0  0  0  0
   11.3865  -16.5387   25.5681 O   0  0  0  0  0  0  0  0  0  0  0  0
   10.2489  -13.5865   27.3659 C   0  0  0  0  0  0  0  0  0  0  0  0
   10.3300  -14.4708   28.5631 C   0  0  1  0  0  0  0  0  0  0  0  0
    9.0695  -14.5509   29.1493 O   0  0  0  0  0  0  0  0  0  0  0  0
   10.8270  -15.8608   28.2320 C   0  0  2  0  0  0  0  0  0  0  0  0
    9.9288  -16.5462   27.3263 N   0  0  0  0  0  0  0  0  0  0  0  0
   11.1848  -16.6718   29.3995 C   0  0  0  0  0  0  0  0  0  0  0  0
   10.6465  -17.7827   29.6090 O   0  0  0  0  0  0  0  0  0  0  0  0
   12.1374  -16.2765   30.3540 O   0  0  0  0  0  0  0  0  0  0  0  0
  2  1  1  0
  3  2  2  0
  4  3  1  0
  5  4  2  0
  5 11  1  0
  6  5  1  0
  7  9  1  0
  7  6  1  0
  7  8  1  6
  9 10  2  0
 11 12  2  0
 12  2  1  0
 14 13  1  6
 14 16  1  0
 15 14  1  0
 15  9  1  0
 16 22  1  0
 17 16  2  0
 19 20  1  0
 19 18  1  6
 21 19  1  0
 21 22  1  1
 23 25  1  0
 23 21  1  0
 24 23  2  0
M  END
$$$$
