YAT.pdb
     RDKit          3D

 25 25  0  0  1  0  0  0  0  0999 V2000
   10.4028  -14.0594   30.7253 O   0  0  0  0  0  0  0  0  0  0  0  0
   10.1476  -14.4287   29.4070 C   0  0  0  0  0  0  0  0  0  0  0  0
    9.6675  -13.5046   28.4931 C   0  0  0  0  0  0  0  0  0  0  0  0
    9.4173  -13.8692   27.1945 C   0  0  0  0  0  0  0  0  0  0  0  0
    9.6252  -15.1585   26.7278 C   0  0  0  0  0  0  0  0  0  0  0  0
    9.3422  -15.5292   25.3095 C   0  0  0  0  0  0  0  0  0  0  0  0
    7.8683  -15.3065   25.0419 C   0  0  2  0  0  0  0  0  0  0  0  0
    7.0984  -16.2838   25.8192 N   0  0  0  0  0  0  0  0  0  0  0  0
    7.5186  -15.4829   23.6269 C   0  0  0  0  0  0  0  0  0  0  0  0
    7.1811  -16.6221   23.1882 O   0  0  0  0  0  0  0  0  0  0  0  0
   10.1043  -16.0770   27.6437 C   0  0  0  0  0  0  0  0  0  0  0  0
   10.3582  -15.7121   28.9549 C   0  0  0  0  0  0  0  0  0  0  0  0
    7.4925  -13.3361   20.5216 C   0  0  0  0  0  0  0  0  0  0  0  0
    7.4855  -14.6870   21.2375 C   0  0  2  0  0  0  0  0  0  0  0  0
    7.5260  -14.4321   22.6550 N   0  0  0  0  0  0  0  0  0  0  0  0
    8.5911  -15.5498   20.7796 C   0  0  0  0  0  0  0  0  0  0  0  0
    9.7307  -15.4264   21.3173 O   0  0  0  0  0  0  0  0  0  0  0  0
    8.2806  -19.5064   19.8883 C   0  0  0  0  0  0  0  0  0  0  0  0
    8.9904  -18.7278   18.8338 C   0  0  1  0  0  0  0  0  0  0  0  0
    8.1129  -18.4973   17.7775 O   0  0  0  0  0  0  0  0  0  0  0  0
    9.5316  -17.4100   19.3431 C   0  0  2  0  0  0  0  0  0  0  0  0
    8.4666  -16.5231   19.7630 N   0  0  0  0  0  0  0  0  0  0  0  0
   10.4915  -16.7603   18.4456 C   0  0  0  0  0  0  0  0  0  0  0  0
   10.1801  -15.7408   17.7889 O   0  0  0  0  0  0  0  0  0  0  0  0
   11.8060  -17.2191   18.2552 O   0  0  0  0  0  0  0  0  0  0  0  0
  2  1  1  0
  3  2  2  0
  4  3  1  0
  5  4  2  0
  5 11  1  0
  6  5  1  0
  7  9  1  0
  7  6  1  0
  7  8  1  1
  9 10  2  0
 11 12  2  0
 12  2  1  0
 14 13  1  6
 14 16  1  0
 15 14  1  0
 15  9  1  0
 16 22  1  0
 17 16  2  0
 19 20  1  0
 19 18  1  1
 21 19  1  0
 21 22  1  6
 23 25  1  0
 23 21  1  0
 24 23  2  0
M  END
$$$$
