YAT.pdb
     RDKit          3D

 25 25  0  0  1  0  0  0  0  0999 V2000
    7.6612  -12.6205   17.0416 O   0  0  0  0  0  0  0  0  0  0  0  0
    7.8155  -13.1079   18.3370 C   0  0  0  0  0  0  0  0  0  0  0  0
    6.7139  -13.3164   19.1509 C   0  0  0  0  0  0  0  0  0  0  0  0
    6.8670  -13.7975   20.4264 C   0  0  0  0  0  0  0  0  0  0  0  0
    8.1082  -14.0974   20.9673 C   0  0  0  0  0  0  0  0  0  0  0  0
    8.2466  -14.6177   22.3599 C   0  0  0  0  0  0  0  0  0  0  0  0
    8.4813  -16.1123   22.2910 C   0  0  2  0  0  0  0  0  0  0  0  0
    7.2344  -16.7634   21.8748 N   0  0  0  0  0  0  0  0  0  0  0  0
    8.8747  -16.6821   23.5856 C   0  0  0  0  0  0  0  0  0  0  0  0
    8.0578  -16.6964   24.5534 O   0  0  0  0  0  0  0  0  0  0  0  0
    9.2045  -13.8875   20.1511 C   0  0  0  0  0  0  0  0  0  0  0  0
    9.0533  -13.4025   18.8631 C   0  0  0  0  0  0  0  0  0  0  0  0
   11.5904  -18.8775   24.8895 C   0  0  0  0  0  0  0  0  0  0  0  0
   10.4842  -17.8501   25.1312 C   0  0  2  0  0  0  0  0  0  0  0  0
   10.1596  -17.2489   23.8629 N   0  0  0  0  0  0  0  0  0  0  0  0
   10.8775  -16.8586   26.1503 C   0  0  0  0  0  0  0  0  0  0  0  0
   11.6564  -15.9158   25.8228 O   0  0  0  0  0  0  0  0  0  0  0  0
    9.9342  -13.9461   27.4076 C   0  0  0  0  0  0  0  0  0  0  0  0
    9.9691  -14.7771   28.6446 C   0  0  1  0  0  0  0  0  0  0  0  0
    8.6769  -15.2076   28.9338 O   0  0  0  0  0  0  0  0  0  0  0  0
   10.8886  -15.9722   28.5216 C   0  0  2  0  0  0  0  0  0  0  0  0
   10.4387  -16.8870   27.4931 N   0  0  0  0  0  0  0  0  0  0  0  0
   11.1837  -16.6443   29.7905 C   0  0  0  0  0  0  0  0  0  0  0  0
   11.7253  -16.0328   30.7394 O   0  0  0  0  0  0  0  0  0  0  0  0
   10.8893  -17.9961   30.0371 O   0  0  0  0  0  0  0  0  0  0  0  0
  2  1  1  0
  3  2  2  0
  4  3  1  0
  5  4  2  0
  5 11  1  0
  6  5  1  0
  7  9  1  0
  7  6  1  0
  7  8  1  1
  9 10  2  0
 11 12  2  0
 12  2  1  0
 14 13  1  6
 14 16  1  0
 15 14  1  0
 15  9  1  0
 16 22  1  0
 17 16  2  0
 19 20  1  0
 19 18  1  6
 21 19  1  0
 21 22  1  6
 23 25  1  0
 23 21  1  0
 24 23  2  0
M  END
$$$$
