YAT.pdb
     RDKit          3D

 25 25  0  0  1  0  0  0  0  0999 V2000
    5.3717  -10.3069   28.3044 O   0  0  0  0  0  0  0  0  0  0  0  0
    6.0209  -11.3056   27.5831 C   0  0  0  0  0  0  0  0  0  0  0  0
    5.6533  -11.5889   26.2776 C   0  0  0  0  0  0  0  0  0  0  0  0
    6.2942  -12.5722   25.5676 C   0  0  0  0  0  0  0  0  0  0  0  0
    7.3271  -13.3271   26.1029 C   0  0  0  0  0  0  0  0  0  0  0  0
    8.0060  -14.3935   25.3085 C   0  0  0  0  0  0  0  0  0  0  0  0
    6.9438  -15.2486   24.6497 C   0  0  2  0  0  0  0  0  0  0  0  0
    6.5430  -16.3028   25.5879 N   0  0  0  0  0  0  0  0  0  0  0  0
    7.4226  -15.8979   23.4230 C   0  0  0  0  0  0  0  0  0  0  0  0
    7.8575  -17.0870   23.4561 O   0  0  0  0  0  0  0  0  0  0  0  0
    7.6901  -13.0407   27.4060 C   0  0  0  0  0  0  0  0  0  0  0  0
    7.0456  -12.0485   28.1252 C   0  0  0  0  0  0  0  0  0  0  0  0
    7.8883  -14.9407   19.8010 C   0  0  0  0  0  0  0  0  0  0  0  0
    8.0486  -15.8966   20.9834 C   0  0  2  0  0  0  0  0  0  0  0  0
    7.4420  -15.2765   22.1337 N   0  0  0  0  0  0  0  0  0  0  0  0
    9.4627  -16.2535   21.2050 C   0  0  0  0  0  0  0  0  0  0  0  0
   10.2621  -15.3669   21.6266 O   0  0  0  0  0  0  0  0  0  0  0  0
   11.2226  -19.1570   23.2478 C   0  0  0  0  0  0  0  0  0  0  0  0
   11.5916  -19.2063   21.8044 C   0  0  1  0  0  0  0  0  0  0  0  0
   10.8208  -20.1809   21.1761 O   0  0  0  0  0  0  0  0  0  0  0  0
   11.4018  -17.8780   21.1057 C   0  0  2  0  0  0  0  0  0  0  0  0
    9.9997  -17.5401   20.9751 N   0  0  0  0  0  0  0  0  0  0  0  0
   12.1383  -17.7443   19.8453 C   0  0  0  0  0  0  0  0  0  0  0  0
   11.5403  -17.6650   18.7482 O   0  0  0  0  0  0  0  0  0  0  0  0
   13.5408  -17.6957   19.7698 O   0  0  0  0  0  0  0  0  0  0  0  0
  2  1  1  0
  3  2  2  0
  4  3  1  0
  5  4  2  0
  5 11  1  0
  6  5  1  0
  7  9  1  0
  7  6  1  0
  7  8  1  1
  9 10  2  0
 11 12  2  0
 12  2  1  0
 14 13  1  6
 14 16  1  0
 15 14  1  0
 15  9  1  0
 16 22  1  0
 17 16  2  0
 19 20  1  0
 19 18  1  1
 21 19  1  0
 21 22  1  6
 23 25  1  0
 23 21  1  0
 24 23  2  0
M  END
$$$$
