YAT.pdb
     RDKit          3D

 25 25  0  0  1  0  0  0  0  0999 V2000
    4.9989  -10.7299   26.8216 O   0  0  0  0  0  0  0  0  0  0  0  0
    6.0130  -11.6777   26.7097 C   0  0  0  0  0  0  0  0  0  0  0  0
    5.9830  -12.6316   25.7053 C   0  0  0  0  0  0  0  0  0  0  0  0
    6.9831  -13.5641   25.5954 C   0  0  0  0  0  0  0  0  0  0  0  0
    8.0621  -13.6078   26.4656 C   0  0  0  0  0  0  0  0  0  0  0  0
    9.1359  -14.6355   26.3247 C   0  0  0  0  0  0  0  0  0  0  0  0
    8.7092  -15.6312   25.2664 C   0  0  2  0  0  0  0  0  0  0  0  0
    7.4795  -16.2934   25.7152 N   0  0  0  0  0  0  0  0  0  0  0  0
    9.7183  -16.6711   25.0301 C   0  0  0  0  0  0  0  0  0  0  0  0
   10.9187  -16.3532   24.7807 O   0  0  0  0  0  0  0  0  0  0  0  0
    8.0874  -12.6539   27.4662 C   0  0  0  0  0  0  0  0  0  0  0  0
    7.0799  -11.7110   27.5796 C   0  0  0  0  0  0  0  0  0  0  0  0
    9.8174  -20.4429   24.9013 C   0  0  0  0  0  0  0  0  0  0  0  0
   10.4648  -19.0633   24.7777 C   0  0  2  0  0  0  0  0  0  0  0  0
    9.4524  -18.0773   25.0580 N   0  0  0  0  0  0  0  0  0  0  0  0
   11.0957  -18.8761   23.4573 C   0  0  0  0  0  0  0  0  0  0  0  0
   12.0763  -19.6091   23.1348 O   0  0  0  0  0  0  0  0  0  0  0  0
    8.9446  -17.8159   20.2217 C   0  0  0  0  0  0  0  0  0  0  0  0
   10.2708  -17.1354   20.2228 C   0  0  1  0  0  0  0  0  0  0  0  0
   10.0879  -15.7940   20.5483 O   0  0  0  0  0  0  0  0  0  0  0  0
   11.2511  -17.7647   21.1881 C   0  0  2  0  0  0  0  0  0  0  0  0
   10.6756  -17.9175   22.5082 N   0  0  0  0  0  0  0  0  0  0  0  0
   12.5713  -17.1280   21.2140 C   0  0  0  0  0  0  0  0  0  0  0  0
   13.0522  -16.6717   22.2762 O   0  0  0  0  0  0  0  0  0  0  0  0
   13.3828  -16.9825   20.0760 O   0  0  0  0  0  0  0  0  0  0  0  0
  2  1  1  0
  3  2  2  0
  4  3  1  0
  5  4  2  0
  5 11  1  0
  6  5  1  0
  7  9  1  0
  7  6  1  0
  7  8  1  1
  9 10  2  0
 11 12  2  0
 12  2  1  0
 14 13  1  6
 14 16  1  0
 15 14  1  0
 15  9  1  0
 16 22  1  0
 17 16  2  0
 19 20  1  0
 19 18  1  1
 21 19  1  0
 21 22  1  1
 23 25  1  0
 23 21  1  0
 24 23  2  0
M  END
$$$$
