YAT.pdb
     RDKit          3D

 25 25  0  0  1  0  0  0  0  0999 V2000
    5.1740  -10.7509   28.5319 O   0  0  0  0  0  0  0  0  0  0  0  0
    5.8592  -11.7023   27.7805 C   0  0  0  0  0  0  0  0  0  0  0  0
    6.7578  -12.5676   28.3834 C   0  0  0  0  0  0  0  0  0  0  0  0
    7.4315  -13.5052   27.6423 C   0  0  0  0  0  0  0  0  0  0  0  0
    7.2578  -13.6402   26.2731 C   0  0  0  0  0  0  0  0  0  0  0  0
    8.0059  -14.6679   25.4900 C   0  0  0  0  0  0  0  0  0  0  0  0
    7.0098  -15.4695   24.6784 C   0  0  2  0  0  0  0  0  0  0  0  0
    6.7031  -16.7073   25.4036 N   0  0  0  0  0  0  0  0  0  0  0  0
    7.5281  -15.8410   23.3559 C   0  0  0  0  0  0  0  0  0  0  0  0
    8.0448  -16.9820   23.1684 O   0  0  0  0  0  0  0  0  0  0  0  0
    6.3600  -12.7743   25.6762 C   0  0  0  0  0  0  0  0  0  0  0  0
    5.6782  -11.8273   26.4213 C   0  0  0  0  0  0  0  0  0  0  0  0
    7.8166  -14.2348   19.9519 C   0  0  0  0  0  0  0  0  0  0  0  0
    7.9547  -15.4183   20.9099 C   0  0  2  0  0  0  0  0  0  0  0  0
    7.4994  -14.9875   22.2072 N   0  0  0  0  0  0  0  0  0  0  0  0
    9.3342  -15.9406   20.9322 C   0  0  0  0  0  0  0  0  0  0  0  0
   10.2600  -15.2127   21.3968 O   0  0  0  0  0  0  0  0  0  0  0  0
   10.8343  -19.1826   22.4928 C   0  0  0  0  0  0  0  0  0  0  0  0
   11.1185  -19.1374   21.0302 C   0  0  1  0  0  0  0  0  0  0  0  0
   10.2019  -19.9505   20.3686 O   0  0  0  0  0  0  0  0  0  0  0  0
   11.0570  -17.7356   20.4647 C   0  0  2  0  0  0  0  0  0  0  0  0
    9.7034  -17.2208   20.4621 N   0  0  0  0  0  0  0  0  0  0  0  0
   11.7295  -17.5722   19.1724 C   0  0  0  0  0  0  0  0  0  0  0  0
   12.9749  -17.6540   19.0728 O   0  0  0  0  0  0  0  0  0  0  0  0
   11.0464  -17.3168   17.9712 O   0  0  0  0  0  0  0  0  0  0  0  0
  2  1  1  0
  3  2  2  0
  4  3  1  0
  5  4  2  0
  5 11  1  0
  6  5  1  0
  7  9  1  0
  7  6  1  0
  7  8  1  1
  9 10  2  0
 11 12  2  0
 12  2  1  0
 14 13  1  6
 14 16  1  0
 15 14  1  0
 15  9  1  0
 16 22  1  0
 17 16  2  0
 19 20  1  0
 19 18  1  1
 21 19  1  0
 21 22  1  6
 23 25  1  0
 23 21  1  0
 24 23  2  0
M  END
$$$$
