SAE.pdb
     RDKit          3D

 21 20  0  0  1  0  0  0  0  0999 V2000
    7.2172  -18.4350   18.2696 O   0  0  0  0  0  0  0  0  0  0  0  0
    6.4133  -17.5540   17.5720 C   0  0  0  0  0  0  0  0  0  0  0  0
    7.3023  -16.4733   16.9946 C   0  0  2  0  0  0  0  0  0  0  0  0
    8.2221  -17.1186   16.0762 N   0  0  0  0  0  0  0  0  0  0  0  0
    8.0669  -15.8804   18.1412 C   0  0  0  0  0  0  0  0  0  0  0  0
    9.1600  -16.4013   18.4749 O   0  0  0  0  0  0  0  0  0  0  0  0
    7.5270  -13.0064   20.4897 C   0  0  0  0  0  0  0  0  0  0  0  0
    8.3078  -14.2074   20.0173 C   0  0  2  0  0  0  0  0  0  0  0  0
    7.6197  -14.7606   18.8696 N   0  0  0  0  0  0  0  0  0  0  0  0
    8.5025  -15.2169   21.0867 C   0  0  0  0  0  0  0  0  0  0  0  0
    7.5944  -16.0501   21.3360 O   0  0  0  0  0  0  0  0  0  0  0  0
    9.6832  -15.3048   21.8696 N   0  0  0  0  0  0  0  0  0  0  0  0
    9.8769  -16.2654   22.9423 C   0  0  1  0  0  0  0  0  0  0  0  0
   11.2832  -16.7803   22.8753 C   0  0  0  0  0  0  0  0  0  0  0  0
   11.6211  -17.5517   21.6478 C   0  0  0  0  0  0  0  0  0  0  0  0
   13.0407  -17.9547   21.5576 C   0  0  0  0  0  0  0  0  0  0  0  0
   13.9911  -17.1937   21.2553 O   0  0  0  0  0  0  0  0  0  0  0  0
    9.5437  -15.6640   24.2647 C   0  0  0  0  0  0  0  0  0  0  0  0
    9.5434  -16.3481   25.3337 O   0  0  0  0  0  0  0  0  0  0  0  0
   13.3534  -19.2779   21.8275 O   0  0  0  0  0  0  0  0  0  0  0  0
    9.2175  -14.3238   24.3884 O   0  0  0  0  0  0  0  0  0  0  0  0
  1  2  1  0
  2  3  1  0
  3  4  1  6
  5  3  1  0
  5  6  2  0
  8  7  1  1
  8 10  1  0
  8  9  1  0
  9  5  1  0
 10 12  1  0
 11 10  2  0
 12 13  1  0
 13 14  1  1
 14 15  1  0
 15 16  1  0
 16 20  1  0
 17 16  2  0
 18 13  1  0
 19 18  2  0
 21 18  1  0
M  END
$$$$
