SAE.pdb
     RDKit          3D

 21 20  0  0  1  0  0  0  0  0999 V2000
    8.4140  -17.4579   16.1668 O   0  0  0  0  0  0  0  0  0  0  0  0
    7.3545  -16.5717   16.2016 C   0  0  0  0  0  0  0  0  0  0  0  0
    7.8763  -15.2096   15.7968 C   0  0  2  0  0  0  0  0  0  0  0  0
    8.7498  -15.4060   14.6546 N   0  0  0  0  0  0  0  0  0  0  0  0
    8.6716  -14.6863   16.9562 C   0  0  0  0  0  0  0  0  0  0  0  0
    9.9031  -14.9288   17.0055 O   0  0  0  0  0  0  0  0  0  0  0  0
    7.9098  -12.6135   19.9859 C   0  0  0  0  0  0  0  0  0  0  0  0
    8.8333  -13.4842   19.1711 C   0  0  2  0  0  0  0  0  0  0  0  0
    8.1055  -13.9307   18.0016 N   0  0  0  0  0  0  0  0  0  0  0  0
    9.3800  -14.6212   19.9514 C   0  0  0  0  0  0  0  0  0  0  0  0
    8.7859  -15.7294   19.9460 O   0  0  0  0  0  0  0  0  0  0  0  0
   10.5660  -14.5356   20.7266 N   0  0  0  0  0  0  0  0  0  0  0  0
   11.1587  -15.6594   21.4313 C   0  0  1  0  0  0  0  0  0  0  0  0
   12.6084  -15.3627   21.6716 C   0  0  0  0  0  0  0  0  0  0  0  0
   13.3538  -16.4032   22.4318 C   0  0  0  0  0  0  0  0  0  0  0  0
   14.7766  -16.0777   22.6677 C   0  0  0  0  0  0  0  0  0  0  0  0
   15.2189  -14.9431   22.9687 O   0  0  0  0  0  0  0  0  0  0  0  0
   10.4132  -15.9559   22.6874 C   0  0  0  0  0  0  0  0  0  0  0  0
    9.6067  -15.1227   23.2034 O   0  0  0  0  0  0  0  0  0  0  0  0
   15.7008  -17.1039   22.5483 O   0  0  0  0  0  0  0  0  0  0  0  0
   10.5669  -17.1607   23.3527 O   0  0  0  0  0  0  0  0  0  0  0  0
  1  2  1  0
  2  3  1  0
  3  4  1  6
  5  3  1  0
  5  6  2  0
  8  7  1  1
  8 10  1  0
  8  9  1  0
  9  5  1  0
 10 12  1  0
 11 10  2  0
 12 13  1  0
 13 14  1  1
 14 15  1  0
 15 16  1  0
 16 20  1  0
 17 16  2  0
 18 13  1  0
 19 18  2  0
 21 18  1  0
M  END
$$$$
