SAE.pdb
     RDKit          3D

 21 20  0  0  1  0  0  0  0  0999 V2000
   12.3687  -19.6884   16.4411 O   0  0  0  0  0  0  0  0  0  0  0  0
   12.6553  -19.1907   17.6977 C   0  0  0  0  0  0  0  0  0  0  0  0
   11.3547  -19.0962   18.4665 C   0  0  2  0  0  0  0  0  0  0  0  0
   10.6849  -17.8848   18.0307 N   0  0  0  0  0  0  0  0  0  0  0  0
   11.7150  -18.9794   19.9182 C   0  0  0  0  0  0  0  0  0  0  0  0
   12.0301  -17.8529   20.3758 O   0  0  0  0  0  0  0  0  0  0  0  0
   11.3784  -21.0845   22.9421 C   0  0  0  0  0  0  0  0  0  0  0  0
   12.1109  -19.9985   22.1944 C   0  0  2  0  0  0  0  0  0  0  0  0
   11.7187  -20.0757   20.8027 N   0  0  0  0  0  0  0  0  0  0  0  0
   13.5824  -20.0850   22.3613 C   0  0  0  0  0  0  0  0  0  0  0  0
   14.2518  -20.8623   21.6342 O   0  0  0  0  0  0  0  0  0  0  0  0
   14.3042  -19.3239   23.3176 N   0  0  0  0  0  0  0  0  0  0  0  0
   15.7485  -19.3687   23.4688 C   0  0  1  0  0  0  0  0  0  0  0  0
   16.2346  -17.9974   23.8302 C   0  0  0  0  0  0  0  0  0  0  0  0
   16.3264  -17.0354   22.6979 C   0  0  0  0  0  0  0  0  0  0  0  0
   16.7991  -15.6889   23.0843 C   0  0  0  0  0  0  0  0  0  0  0  0
   17.0046  -15.3041   24.2606 O   0  0  0  0  0  0  0  0  0  0  0  0
   16.1500  -20.4049   24.4621 C   0  0  0  0  0  0  0  0  0  0  0  0
   15.4421  -20.6689   25.4819 O   0  0  0  0  0  0  0  0  0  0  0  0
   17.0361  -14.7735   22.0707 O   0  0  0  0  0  0  0  0  0  0  0  0
   17.3201  -21.1313   24.3169 O   0  0  0  0  0  0  0  0  0  0  0  0
  1  2  1  0
  2  3  1  0
  3  4  1  6
  5  3  1  0
  5  6  2  0
  8  7  1  1
  8 10  1  0
  8  9  1  0
  9  5  1  0
 10 12  1  0
 11 10  2  0
 12 13  1  0
 13 14  1  1
 14 15  1  0
 15 16  1  0
 16 20  1  0
 17 16  2  0
 18 13  1  0
 19 18  2  0
 21 18  1  0
M  END
$$$$
