SAE.pdb
     RDKit          3D

 21 20  0  0  1  0  0  0  0  0999 V2000
    7.3537  -18.4680   18.4280 O   0  0  0  0  0  0  0  0  0  0  0  0
    6.4071  -17.6142   17.8950 C   0  0  0  0  0  0  0  0  0  0  0  0
    7.1395  -16.4875   17.1980 C   0  0  2  0  0  0  0  0  0  0  0  0
    8.0176  -17.0905   16.2125 N   0  0  0  0  0  0  0  0  0  0  0  0
    7.9581  -15.7887   18.2431 C   0  0  0  0  0  0  0  0  0  0  0  0
    9.1275  -16.1897   18.4655 O   0  0  0  0  0  0  0  0  0  0  0  0
    7.3855  -12.9234   20.5932 C   0  0  0  0  0  0  0  0  0  0  0  0
    8.1780  -14.1178   20.1236 C   0  0  2  0  0  0  0  0  0  0  0  0
    7.4806  -14.6971   18.9945 N   0  0  0  0  0  0  0  0  0  0  0  0
    8.4062  -15.1099   21.2026 C   0  0  0  0  0  0  0  0  0  0  0  0
    7.5744  -16.0336   21.3921 O   0  0  0  0  0  0  0  0  0  0  0  0
    9.5370  -15.0822   22.0602 N   0  0  0  0  0  0  0  0  0  0  0  0
   10.0214  -16.2330   22.8031 C   0  0  1  0  0  0  0  0  0  0  0  0
   10.4752  -17.2763   21.8269 C   0  0  0  0  0  0  0  0  0  0  0  0
   10.9555  -18.5487   22.4321 C   0  0  0  0  0  0  0  0  0  0  0  0
   11.4064  -19.5551   21.4475 C   0  0  0  0  0  0  0  0  0  0  0  0
   10.7823  -19.8823   20.4097 O   0  0  0  0  0  0  0  0  0  0  0  0
   11.0893  -15.8374   23.7646 C   0  0  0  0  0  0  0  0  0  0  0  0
   11.2301  -16.4123   24.8873 O   0  0  0  0  0  0  0  0  0  0  0  0
   12.6147  -20.1920   21.6842 O   0  0  0  0  0  0  0  0  0  0  0  0
   11.9820  -14.8188   23.4755 O   0  0  0  0  0  0  0  0  0  0  0  0
  1  2  1  0
  2  3  1  0
  3  4  1  6
  5  3  1  0
  5  6  2  0
  8  7  1  1
  8 10  1  0
  8  9  1  0
  9  5  1  0
 10 12  1  0
 11 10  2  0
 12 13  1  0
 13 14  1  6
 14 15  1  0
 15 16  1  0
 16 20  1  0
 17 16  2  0
 18 13  1  0
 19 18  2  0
 21 18  1  0
M  END
$$$$
