SAE.pdb
     RDKit          3D

 21 20  0  0  1  0  0  0  0  0999 V2000
    7.6983  -12.6990   17.8228 O   0  0  0  0  0  0  0  0  0  0  0  0
    7.4959  -13.4671   18.9533 C   0  0  0  0  0  0  0  0  0  0  0  0
    8.8074  -13.5387   19.7059 C   0  0  2  0  0  0  0  0  0  0  0  0
    9.7570  -14.2255   18.8500 N   0  0  0  0  0  0  0  0  0  0  0  0
    8.5571  -14.3554   20.9393 C   0  0  0  0  0  0  0  0  0  0  0  0
    7.6971  -13.9592   21.7645 O   0  0  0  0  0  0  0  0  0  0  0  0
    9.7908  -17.6330   22.2644 C   0  0  0  0  0  0  0  0  0  0  0  0
    9.0781  -16.3157   22.4433 C   0  0  2  0  0  0  0  0  0  0  0  0
    9.2416  -15.5533   21.2232 N   0  0  0  0  0  0  0  0  0  0  0  0
    9.5540  -15.5675   23.6325 C   0  0  0  0  0  0  0  0  0  0  0  0
   10.6443  -14.9429   23.5861 O   0  0  0  0  0  0  0  0  0  0  0  0
    8.8360  -15.5100   24.8556 N   0  0  0  0  0  0  0  0  0  0  0  0
    9.3658  -14.9399   26.0825 C   0  0  1  0  0  0  0  0  0  0  0  0
    8.2648  -14.2001   26.7808 C   0  0  0  0  0  0  0  0  0  0  0  0
    7.8005  -12.9595   26.1015 C   0  0  0  0  0  0  0  0  0  0  0  0
    6.6753  -12.2823   26.7805 C   0  0  0  0  0  0  0  0  0  0  0  0
    6.0659  -12.7223   27.7849 O   0  0  0  0  0  0  0  0  0  0  0  0
    9.9873  -15.9920   26.9358 C   0  0  0  0  0  0  0  0  0  0  0  0
    9.7736  -17.2280   26.7422 O   0  0  0  0  0  0  0  0  0  0  0  0
    6.2550  -11.0633   26.2716 O   0  0  0  0  0  0  0  0  0  0  0  0
   10.8313  -15.6675   27.9848 O   0  0  0  0  0  0  0  0  0  0  0  0
  1  2  1  0
  2  3  1  0
  3  4  1  6
  5  3  1  0
  5  6  2  0
  8  7  1  6
  8 10  1  0
  8  9  1  0
  9  5  1  0
 10 12  1  0
 11 10  2  0
 12 13  1  0
 13 14  1  1
 14 15  1  0
 15 16  1  0
 16 20  1  0
 17 16  2  0
 18 13  1  0
 19 18  2  0
 21 18  1  0
M  END
$$$$
