SAE.pdb
     RDKit          3D

 21 20  0  0  1  0  0  0  0  0999 V2000
    8.2466  -19.1316   19.2288 O   0  0  0  0  0  0  0  0  0  0  0  0
    7.0131  -18.5175   19.1274 C   0  0  0  0  0  0  0  0  0  0  0  0
    7.2244  -17.1528   18.5074 C   0  0  2  0  0  0  0  0  0  0  0  0
    7.9901  -17.3477   17.2901 N   0  0  0  0  0  0  0  0  0  0  0  0
    8.0290  -16.3500   19.4866 C   0  0  0  0  0  0  0  0  0  0  0  0
    9.2814  -16.3560   19.3913 O   0  0  0  0  0  0  0  0  0  0  0  0
    7.2305  -14.0976   22.3752 C   0  0  0  0  0  0  0  0  0  0  0  0
    8.2028  -14.8983   21.5455 C   0  0  2  0  0  0  0  0  0  0  0  0
    7.4490  -15.5831   20.5161 N   0  0  0  0  0  0  0  0  0  0  0  0
    9.0080  -15.8394   22.3619 C   0  0  0  0  0  0  0  0  0  0  0  0
    8.5699  -16.9927   22.6047 O   0  0  0  0  0  0  0  0  0  0  0  0
   10.2789  -15.5115   22.9024 N   0  0  0  0  0  0  0  0  0  0  0  0
   11.0937  -16.4312   23.6776 C   0  0  1  0  0  0  0  0  0  0  0  0
   12.5378  -16.1523   23.3873 C   0  0  0  0  0  0  0  0  0  0  0  0
   13.5099  -17.0422   24.0795 C   0  0  0  0  0  0  0  0  0  0  0  0
   14.9261  -16.7377   23.7841 C   0  0  0  0  0  0  0  0  0  0  0  0
   15.4209  -15.5866   23.7215 O   0  0  0  0  0  0  0  0  0  0  0  0
   10.7678  -16.3407   25.1292 C   0  0  0  0  0  0  0  0  0  0  0  0
   10.1430  -15.3499   25.6176 O   0  0  0  0  0  0  0  0  0  0  0  0
   15.7811  -17.8050   23.5571 O   0  0  0  0  0  0  0  0  0  0  0  0
   11.1337  -17.3392   26.0164 O   0  0  0  0  0  0  0  0  0  0  0  0
  1  2  1  0
  2  3  1  0
  3  4  1  6
  5  3  1  0
  5  6  2  0
  8  7  1  1
  8 10  1  0
  8  9  1  0
  9  5  1  0
 10 12  1  0
 11 10  2  0
 12 13  1  0
 13 14  1  1
 14 15  1  0
 15 16  1  0
 16 20  1  0
 17 16  2  0
 18 13  1  0
 19 18  2  0
 21 18  1  0
M  END
$$$$
