SAE.pdb
     RDKit          3D

 21 20  0  0  1  0  0  0  0  0999 V2000
   11.1937  -13.1210   19.0623 O   0  0  0  0  0  0  0  0  0  0  0  0
   10.4173  -14.1612   18.5885 C   0  0  0  0  0  0  0  0  0  0  0  0
    9.0075  -13.9577   19.1010 C   0  0  2  0  0  0  0  0  0  0  0  0
    8.8307  -12.5339   19.3190 N   0  0  0  0  0  0  0  0  0  0  0  0
    8.9113  -14.6845   20.4100 C   0  0  0  0  0  0  0  0  0  0  0  0
    8.9076  -14.0179   21.4746 O   0  0  0  0  0  0  0  0  0  0  0  0
    8.5222  -18.2730   21.4256 C   0  0  0  0  0  0  0  0  0  0  0  0
    8.6552  -16.8069   21.7539 C   0  0  2  0  0  0  0  0  0  0  0  0
    8.8242  -16.0869   20.5090 N   0  0  0  0  0  0  0  0  0  0  0  0
    9.7594  -16.5343   22.7063 C   0  0  0  0  0  0  0  0  0  0  0  0
   10.9073  -16.2581   22.2738 O   0  0  0  0  0  0  0  0  0  0  0  0
    9.5981  -16.5664   24.1162 N   0  0  0  0  0  0  0  0  0  0  0  0
   10.6291  -16.1720   25.0609 C   0  0  1  0  0  0  0  0  0  0  0  0
    9.9812  -15.8752   26.3798 C   0  0  0  0  0  0  0  0  0  0  0  0
   10.8999  -15.3889   27.4454 C   0  0  0  0  0  0  0  0  0  0  0  0
   10.2741  -15.2784   28.7803 C   0  0  0  0  0  0  0  0  0  0  0  0
    9.5736  -14.3148   29.1734 O   0  0  0  0  0  0  0  0  0  0  0  0
   11.6905  -17.2137   25.1594 C   0  0  0  0  0  0  0  0  0  0  0  0
   11.4333  -18.4500   25.0319 O   0  0  0  0  0  0  0  0  0  0  0  0
   10.4735  -16.3193   29.6737 O   0  0  0  0  0  0  0  0  0  0  0  0
   13.0133  -16.8786   25.3957 O   0  0  0  0  0  0  0  0  0  0  0  0
  1  2  1  0
  2  3  1  0
  3  4  1  1
  5  3  1  0
  5  6  2  0
  8  7  1  6
  8 10  1  0
  8  9  1  0
  9  5  1  0
 10 12  1  0
 11 10  2  0
 12 13  1  0
 13 14  1  1
 14 15  1  0
 15 16  1  0
 16 20  1  0
 17 16  2  0
 18 13  1  0
 19 18  2  0
 21 18  1  0
M  END
$$$$
