SAE.pdb
     RDKit          3D

 21 20  0  0  1  0  0  0  0  0999 V2000
    7.7720  -18.4081   20.6343 O   0  0  0  0  0  0  0  0  0  0  0  0
    6.9496  -17.4573   20.0609 C   0  0  0  0  0  0  0  0  0  0  0  0
    7.7990  -16.2489   19.7298 C   0  0  2  0  0  0  0  0  0  0  0  0
    8.7585  -16.6612   18.7221 N   0  0  0  0  0  0  0  0  0  0  0  0
    8.5212  -15.8669   20.9881 C   0  0  0  0  0  0  0  0  0  0  0  0
    9.7008  -16.2651   21.1547 O   0  0  0  0  0  0  0  0  0  0  0  0
    7.7331  -13.6786   23.9267 C   0  0  0  0  0  0  0  0  0  0  0  0
    8.6467  -14.6171   23.1786 C   0  0  2  0  0  0  0  0  0  0  0  0
    7.9414  -15.0784   22.0011 N   0  0  0  0  0  0  0  0  0  0  0  0
    9.1177  -15.7445   24.0199 C   0  0  0  0  0  0  0  0  0  0  0  0
    8.3647  -16.7297   24.2278 O   0  0  0  0  0  0  0  0  0  0  0  0
   10.4022  -15.7831   24.6229 N   0  0  0  0  0  0  0  0  0  0  0  0
   10.9197  -16.9235   25.3595 C   0  0  1  0  0  0  0  0  0  0  0  0
   12.4164  -16.9082   25.2755 C   0  0  0  0  0  0  0  0  0  0  0  0
   12.9775  -16.9764   23.8984 C   0  0  0  0  0  0  0  0  0  0  0  0
   14.2184  -16.1948   23.7109 C   0  0  0  0  0  0  0  0  0  0  0  0
   14.6478  -15.7719   22.6106 O   0  0  0  0  0  0  0  0  0  0  0  0
   10.4194  -16.9244   26.7635 C   0  0  0  0  0  0  0  0  0  0  0  0
    9.7007  -15.9842   27.2220 O   0  0  0  0  0  0  0  0  0  0  0  0
   14.9724  -15.9027   24.8367 O   0  0  0  0  0  0  0  0  0  0  0  0
   10.7174  -17.9570   27.6370 O   0  0  0  0  0  0  0  0  0  0  0  0
  1  2  1  0
  2  3  1  0
  3  4  1  6
  5  3  1  0
  5  6  2  0
  8  7  1  1
  8 10  1  0
  8  9  1  0
  9  5  1  0
 10 12  1  0
 11 10  2  0
 12 13  1  0
 13 14  1  1
 14 15  1  0
 15 16  1  0
 16 20  1  0
 17 16  2  0
 18 13  1  0
 19 18  2  0
 21 18  1  0
M  END
$$$$
