SAE.pdb
     RDKit          3D

 21 20  0  0  1  0  0  0  0  0999 V2000
    7.1678  -17.0940   15.2554 O   0  0  0  0  0  0  0  0  0  0  0  0
    7.9844  -16.7595   16.3187 C   0  0  0  0  0  0  0  0  0  0  0  0
    8.3514  -15.2975   16.1791 C   0  0  2  0  0  0  0  0  0  0  0  0
    9.3744  -15.2073   15.1537 N   0  0  0  0  0  0  0  0  0  0  0  0
    8.9193  -14.8637   17.4982 C   0  0  0  0  0  0  0  0  0  0  0  0
   10.0769  -15.2369   17.8120 O   0  0  0  0  0  0  0  0  0  0  0  0
    7.6730  -12.8101   20.3784 C   0  0  0  0  0  0  0  0  0  0  0  0
    8.7021  -13.7018   19.7295 C   0  0  2  0  0  0  0  0  0  0  0  0
    8.2169  -14.0531   18.4113 N   0  0  0  0  0  0  0  0  0  0  0  0
    9.0108  -14.9021   20.5448 C   0  0  0  0  0  0  0  0  0  0  0  0
    8.3166  -15.9427   20.4175 O   0  0  0  0  0  0  0  0  0  0  0  0
   10.0712  -14.9523   21.4871 N   0  0  0  0  0  0  0  0  0  0  0  0
   10.4277  -16.1387   22.2462 C   0  0  1  0  0  0  0  0  0  0  0  0
   11.8869  -16.4159   22.0433 C   0  0  0  0  0  0  0  0  0  0  0  0
   12.8134  -15.3998   22.6135 C   0  0  0  0  0  0  0  0  0  0  0  0
   14.2447  -15.6857   22.3779 C   0  0  0  0  0  0  0  0  0  0  0  0
   15.1902  -14.9006   22.6295 O   0  0  0  0  0  0  0  0  0  0  0  0
   10.0629  -15.9835   23.6830 C   0  0  0  0  0  0  0  0  0  0  0  0
    9.5847  -14.9013   24.1423 O   0  0  0  0  0  0  0  0  0  0  0  0
   14.5751  -16.9180   21.8360 O   0  0  0  0  0  0  0  0  0  0  0  0
   10.2299  -17.0186   24.5877 O   0  0  0  0  0  0  0  0  0  0  0  0
  1  2  1  0
  2  3  1  0
  3  4  1  6
  5  3  1  0
  5  6  2  0
  8  7  1  1
  8 10  1  0
  8  9  1  0
  9  5  1  0
 10 12  1  0
 11 10  2  0
 12 13  1  0
 13 14  1  1
 14 15  1  0
 15 16  1  0
 16 20  1  0
 17 16  2  0
 18 13  1  0
 19 18  2  0
 21 18  1  0
M  END
$$$$
