SAE.pdb
     RDKit          3D

 21 20  0  0  1  0  0  0  0  0999 V2000
    8.7731  -17.2757   16.2729 O   0  0  0  0  0  0  0  0  0  0  0  0
    7.6132  -16.6494   15.8588 C   0  0  0  0  0  0  0  0  0  0  0  0
    7.9630  -15.2236   15.4896 C   0  0  2  0  0  0  0  0  0  0  0  0
    8.8550  -15.2822   14.3464 N   0  0  0  0  0  0  0  0  0  0  0  0
    8.6865  -14.6349   16.6646 C   0  0  0  0  0  0  0  0  0  0  0  0
    9.9285  -14.7987   16.7558 O   0  0  0  0  0  0  0  0  0  0  0  0
    7.7039  -12.5576   19.6264 C   0  0  0  0  0  0  0  0  0  0  0  0
    8.7035  -13.3875   18.8600 C   0  0  2  0  0  0  0  0  0  0  0  0
    8.0411  -13.9020   17.6797 N   0  0  0  0  0  0  0  0  0  0  0  0
    9.2927  -14.4724   19.6824 C   0  0  0  0  0  0  0  0  0  0  0  0
    8.7385  -15.6003   19.7236 O   0  0  0  0  0  0  0  0  0  0  0  0
   10.4772  -14.3138   20.4484 N   0  0  0  0  0  0  0  0  0  0  0  0
   11.0428  -15.3513   21.2937 C   0  0  1  0  0  0  0  0  0  0  0  0
   12.5042  -15.0736   21.4791 C   0  0  0  0  0  0  0  0  0  0  0  0
   13.3290  -15.1514   20.2423 C   0  0  0  0  0  0  0  0  0  0  0  0
   14.7626  -14.8562   20.4510 C   0  0  0  0  0  0  0  0  0  0  0  0
   15.5052  -15.4284   21.2845 O   0  0  0  0  0  0  0  0  0  0  0  0
   10.3047  -15.4501   22.5849 C   0  0  0  0  0  0  0  0  0  0  0  0
    9.4382  -14.5901   22.9317 O   0  0  0  0  0  0  0  0  0  0  0  0
   15.3383  -13.8693   19.6661 O   0  0  0  0  0  0  0  0  0  0  0  0
   10.5317  -16.4906   23.4701 O   0  0  0  0  0  0  0  0  0  0  0  0
  1  2  1  0
  2  3  1  0
  3  4  1  6
  5  3  1  0
  5  6  2  0
  8  7  1  1
  8 10  1  0
  8  9  1  0
  9  5  1  0
 10 12  1  0
 11 10  2  0
 12 13  1  0
 13 14  1  1
 14 15  1  0
 15 16  1  0
 16 20  1  0
 17 16  2  0
 18 13  1  0
 19 18  2  0
 21 18  1  0
M  END
$$$$
