MNQ.pdb
     RDKit          3D

 26 25  0  0  1  0  0  0  0  0999 V2000
   27.6212  -19.3603   -5.0901 C   0  0  0  0  0  0  0  0  0  0  0  0
   27.1884  -19.3742   -6.8504 S   0  0  0  0  0  0  0  0  0  0  0  0
   27.5199  -21.0417   -7.5346 C   0  0  0  0  0  0  0  0  0  0  0  0
   27.3900  -21.0170   -9.0347 C   0  0  0  0  0  0  0  0  0  0  0  0
   26.1467  -20.3864   -9.5340 C   0  0  2  0  0  0  0  0  0  0  0  0
   25.0302  -21.2671   -9.0928 N   0  0  0  0  0  0  0  0  0  0  0  0
   25.9900  -20.2040  -10.9641 C   0  0  0  0  0  0  0  0  0  0  0  0
   27.0374  -20.0802  -11.6969 O   0  0  0  0  0  0  0  0  0  0  0  0
   27.7469  -22.0553  -13.6113 N   0  0  0  0  0  0  0  0  0  0  0  0
   26.8763  -21.0178  -14.0434 C   0  0  0  0  0  0  0  0  0  0  0  0
   27.3800  -20.0443  -14.6174 O   0  0  0  0  0  0  0  0  0  0  0  0
   25.4582  -21.1521  -13.7921 C   0  0  0  0  0  0  0  0  0  0  0  0
   24.7648  -19.9521  -13.1523 C   0  0  2  0  0  0  0  0  0  0  0  0
   24.7646  -20.1469  -11.6956 N   0  0  0  0  0  0  0  0  0  0  0  0
   23.3947  -19.7465  -13.6494 C   0  0  0  0  0  0  0  0  0  0  0  0
   22.4774  -19.3731  -12.8793 O   0  0  0  0  0  0  0  0  0  0  0  0
   20.1420  -23.8662  -13.3871 N   0  0  0  0  0  0  0  0  0  0  0  0
   19.6161  -22.5978  -13.0207 C   0  0  0  0  0  0  0  0  0  0  0  0
   18.7398  -22.5869  -12.1126 O   0  0  0  0  0  0  0  0  0  0  0  0
   20.0750  -21.3459  -13.6745 C   0  0  0  0  0  0  0  0  0  0  0  0
   21.2482  -21.6059  -14.5910 C   0  0  0  0  0  0  0  0  0  0  0  0
   21.6850  -20.3608  -15.3244 C   0  0  2  0  0  0  0  0  0  0  0  0
   23.0044  -19.9446  -15.0013 N   0  0  0  0  0  0  0  0  0  0  0  0
   20.6598  -19.3146  -15.0931 C   0  0  0  0  0  0  0  0  0  0  0  0
   19.4706  -19.3744  -15.4937 O   0  0  0  0  0  0  0  0  0  0  0  0
   21.0289  -18.1818  -14.3832 O   0  0  0  0  0  0  0  0  0  0  0  0
  2  1  1  0
  3  2  1  0
  4  5  1  0
  4  3  1  0
  5  7  1  0
  5  6  1  6
  7  8  2  0
 10  9  1  0
 11 10  2  0
 13 12  1  6
 12 10  1  0
 14  7  1  0
 14 13  1  0
 15 13  1  0
 15 16  2  0
 18 17  1  0
 18 19  2  0
 20 21  1  0
 20 18  1  0
 22 21  1  1
 22 23  1  0
 22 24  1  0
 23 15  1  0
 24 25  2  0
 24 26  1  0
M  END
$$$$
