MNQ.pdb
     RDKit          3D

 26 25  0  0  1  0  0  0  0  0999 V2000
   16.4810  -18.1546  -15.2599 C   0  0  0  0  0  0  0  0  0  0  0  0
   17.3539  -16.9473  -16.2926 S   0  0  0  0  0  0  0  0  0  0  0  0
   16.2508  -15.5172  -16.6029 C   0  0  0  0  0  0  0  0  0  0  0  0
   16.9618  -14.4934  -17.4481 C   0  0  0  0  0  0  0  0  0  0  0  0
   17.7750  -13.5213  -16.6824 C   0  0  2  0  0  0  0  0  0  0  0  0
   16.8164  -12.5258  -16.1284 N   0  0  0  0  0  0  0  0  0  0  0  0
   18.7949  -12.7673  -17.3856 C   0  0  0  0  0  0  0  0  0  0  0  0
   19.9505  -12.6234  -16.8441 O   0  0  0  0  0  0  0  0  0  0  0  0
   19.2604  -12.8617  -22.6537 N   0  0  0  0  0  0  0  0  0  0  0  0
   19.9273  -12.5851  -21.4290 C   0  0  0  0  0  0  0  0  0  0  0  0
   20.7306  -13.4264  -21.0073 O   0  0  0  0  0  0  0  0  0  0  0  0
   19.6352  -11.3450  -20.7443 C   0  0  0  0  0  0  0  0  0  0  0  0
   19.7834  -11.3562  -19.2251 C   0  0  2  0  0  0  0  0  0  0  0  0
   18.6747  -12.1401  -18.6631 N   0  0  0  0  0  0  0  0  0  0  0  0
   19.8145  -10.0059  -18.6398 C   0  0  0  0  0  0  0  0  0  0  0  0
   18.7621   -9.3370  -18.5027 O   0  0  0  0  0  0  0  0  0  0  0  0
   21.8865   -7.8627  -13.4295 N   0  0  0  0  0  0  0  0  0  0  0  0
   21.5544   -6.6617  -14.1128 C   0  0  0  0  0  0  0  0  0  0  0  0
   21.5449   -5.6021  -13.4274 O   0  0  0  0  0  0  0  0  0  0  0  0
   21.2339   -6.6536  -15.5628 C   0  0  0  0  0  0  0  0  0  0  0  0
   21.2906   -8.0479  -16.1432 C   0  0  0  0  0  0  0  0  0  0  0  0
   20.9519   -8.0667  -17.6142 C   0  0  2  0  0  0  0  0  0  0  0  0
   21.0003   -9.3639  -18.1917 N   0  0  0  0  0  0  0  0  0  0  0  0
   21.8275   -7.0818  -18.2942 C   0  0  0  0  0  0  0  0  0  0  0  0
   22.7084   -7.3702  -19.1422 O   0  0  0  0  0  0  0  0  0  0  0  0
   21.6720   -5.7402  -17.9790 O   0  0  0  0  0  0  0  0  0  0  0  0
  2  1  1  0
  3  2  1  0
  4  5  1  0
  4  3  1  0
  5  7  1  0
  5  6  1  6
  7  8  2  0
 10  9  1  0
 11 10  2  0
 13 12  1  6
 12 10  1  0
 14  7  1  0
 14 13  1  0
 15 13  1  0
 15 16  2  0
 18 17  1  0
 18 19  2  0
 20 21  1  0
 20 18  1  0
 22 21  1  1
 22 23  1  0
 22 24  1  0
 23 15  1  0
 24 25  2  0
 24 26  1  0
M  END
$$$$
