MNQ.pdb
     RDKit          3D

 26 25  0  0  1  0  0  0  0  0999 V2000
   31.7111  -22.4712   -7.8296 C   0  0  0  0  0  0  0  0  0  0  0  0
   32.5269  -21.3805   -9.0259 S   0  0  0  0  0  0  0  0  0  0  0  0
   31.5420  -21.3447  -10.5710 C   0  0  0  0  0  0  0  0  0  0  0  0
   30.0829  -21.5421  -10.2553 C   0  0  0  0  0  0  0  0  0  0  0  0
   29.2413  -21.8840  -11.4248 C   0  0  2  0  0  0  0  0  0  0  0  0
   29.5627  -20.8775  -12.4739 N   0  0  0  0  0  0  0  0  0  0  0  0
   27.7998  -21.8718  -11.2667 C   0  0  0  0  0  0  0  0  0  0  0  0
   27.2966  -22.0897  -10.1054 O   0  0  0  0  0  0  0  0  0  0  0  0
   23.1581  -21.1250   -9.8152 N   0  0  0  0  0  0  0  0  0  0  0  0
   23.8770  -20.1121  -10.5070 C   0  0  0  0  0  0  0  0  0  0  0  0
   23.3055  -19.0328  -10.7051 O   0  0  0  0  0  0  0  0  0  0  0  0
   25.2282  -20.3926  -10.9399 C   0  0  0  0  0  0  0  0  0  0  0  0
   25.3974  -21.5275  -11.9467 C   0  0  2  0  0  0  0  0  0  0  0  0
   26.8244  -21.6326  -12.2822 N   0  0  0  0  0  0  0  0  0  0  0  0
   24.5896  -21.3430  -13.1633 C   0  0  0  0  0  0  0  0  0  0  0  0
   24.7218  -20.3200  -13.8774 O   0  0  0  0  0  0  0  0  0  0  0  0
   19.4767  -19.4635  -14.0116 N   0  0  0  0  0  0  0  0  0  0  0  0
   19.7160  -20.5579  -13.1371 C   0  0  0  0  0  0  0  0  0  0  0  0
   18.9063  -20.7087  -12.1809 O   0  0  0  0  0  0  0  0  0  0  0  0
   20.8630  -21.4793  -13.3385 C   0  0  0  0  0  0  0  0  0  0  0  0
   21.6949  -21.0648  -14.5302 C   0  0  0  0  0  0  0  0  0  0  0  0
   22.8441  -22.0114  -14.7796 C   0  0  2  0  0  0  0  0  0  0  0  0
   23.6223  -22.2778  -13.6212 N   0  0  0  0  0  0  0  0  0  0  0  0
   23.6343  -21.4767  -15.9149 C   0  0  0  0  0  0  0  0  0  0  0  0
   24.8392  -21.1273  -15.8488 O   0  0  0  0  0  0  0  0  0  0  0  0
   23.0080  -21.3484  -17.1456 O   0  0  0  0  0  0  0  0  0  0  0  0
  2  1  1  0
  3  2  1  0
  4  5  1  0
  4  3  1  0
  5  7  1  0
  5  6  1  6
  7  8  2  0
 10  9  1  0
 11 10  2  0
 13 12  1  1
 12 10  1  0
 14  7  1  0
 14 13  1  0
 15 13  1  0
 15 16  2  0
 18 17  1  0
 18 19  2  0
 20 21  1  0
 20 18  1  0
 22 21  1  1
 22 23  1  0
 22 24  1  0
 23 15  1  0
 24 25  2  0
 24 26  1  0
M  END
$$$$
