MNQ.pdb
     RDKit          3D

 26 25  0  0  1  0  0  0  0  0999 V2000
   24.0851  -20.6892   -8.1506 C   0  0  0  0  0  0  0  0  0  0  0  0
   25.7729  -20.1802   -8.5729 S   0  0  0  0  0  0  0  0  0  0  0  0
   26.3218  -21.1027  -10.0582 C   0  0  0  0  0  0  0  0  0  0  0  0
   25.3899  -20.8265  -11.2085 C   0  0  0  0  0  0  0  0  0  0  0  0
   25.6772  -21.6066  -12.4339 C   0  0  2  0  0  0  0  0  0  0  0  0
   26.7692  -20.8809  -13.1395 N   0  0  0  0  0  0  0  0  0  0  0  0
   24.6123  -21.7935  -13.4003 C   0  0  0  0  0  0  0  0  0  0  0  0
   24.4187  -20.8961  -14.2983 O   0  0  0  0  0  0  0  0  0  0  0  0
   24.6353  -25.9894  -15.7804 N   0  0  0  0  0  0  0  0  0  0  0  0
   23.9375  -24.7697  -15.9960 C   0  0  0  0  0  0  0  0  0  0  0  0
   24.3220  -24.0410  -16.9190 O   0  0  0  0  0  0  0  0  0  0  0  0
   22.8230  -24.4458  -15.1328 C   0  0  0  0  0  0  0  0  0  0  0  0
   22.7657  -23.0145  -14.6052 C   0  0  2  0  0  0  0  0  0  0  0  0
   23.7139  -22.9003  -13.4882 N   0  0  0  0  0  0  0  0  0  0  0  0
   21.4146  -22.6101  -14.1836 C   0  0  0  0  0  0  0  0  0  0  0  0
   20.9906  -22.8751  -13.0330 O   0  0  0  0  0  0  0  0  0  0  0  0
   15.3078  -19.6559  -16.4845 N   0  0  0  0  0  0  0  0  0  0  0  0
   16.4737  -19.1936  -15.8163 C   0  0  0  0  0  0  0  0  0  0  0  0
   16.8509  -18.0183  -16.0791 O   0  0  0  0  0  0  0  0  0  0  0  0
   17.2127  -20.0516  -14.8555 C   0  0  0  0  0  0  0  0  0  0  0  0
   18.4806  -20.5961  -15.4716 C   0  0  0  0  0  0  0  0  0  0  0  0
   19.2369  -21.4919  -14.5206 C   0  0  2  0  0  0  0  0  0  0  0  0
   20.5030  -21.9054  -15.0152 N   0  0  0  0  0  0  0  0  0  0  0  0
   18.3464  -22.6196  -14.1540 C   0  0  0  0  0  0  0  0  0  0  0  0
   18.2264  -23.6825  -14.8128 O   0  0  0  0  0  0  0  0  0  0  0  0
   17.5846  -22.5041  -13.0009 O   0  0  0  0  0  0  0  0  0  0  0  0
  2  1  1  0
  3  2  1  0
  4  5  1  0
  4  3  1  0
  5  7  1  0
  5  6  1  6
  7  8  2  0
 10  9  1  0
 11 10  2  0
 13 12  1  1
 12 10  1  0
 14  7  1  0
 14 13  1  0
 15 13  1  0
 15 16  2  0
 18 17  1  0
 18 19  2  0
 20 21  1  0
 20 18  1  0
 22 21  1  6
 22 23  1  0
 22 24  1  0
 23 15  1  0
 24 25  2  0
 24 26  1  0
M  END
$$$$
