MNQ.pdb
     RDKit          3D

 26 25  0  0  1  0  0  0  0  0999 V2000
   24.1153  -12.5354  -15.7280 C   0  0  0  0  0  0  0  0  0  0  0  0
   25.8503  -12.4842  -16.2507 S   0  0  0  0  0  0  0  0  0  0  0  0
   26.7847  -13.7782  -15.3501 C   0  0  0  0  0  0  0  0  0  0  0  0
   26.1251  -15.1180  -15.5447 C   0  0  0  0  0  0  0  0  0  0  0  0
   27.0404  -16.1961  -15.9836 C   0  0  2  0  0  0  0  0  0  0  0  0
   27.5238  -15.8033  -17.3359 N   0  0  0  0  0  0  0  0  0  0  0  0
   26.5148  -17.5421  -16.1065 C   0  0  0  0  0  0  0  0  0  0  0  0
   26.1266  -17.9587  -17.2576 O   0  0  0  0  0  0  0  0  0  0  0  0
   27.5297  -23.1058  -15.9703 N   0  0  0  0  0  0  0  0  0  0  0  0
   26.6092  -22.2557  -15.2986 C   0  0  0  0  0  0  0  0  0  0  0  0
   25.5491  -22.7543  -14.9004 O   0  0  0  0  0  0  0  0  0  0  0  0
   26.9559  -20.8634  -15.1166 C   0  0  0  0  0  0  0  0  0  0  0  0
   25.8391  -19.8490  -15.3487 C   0  0  2  0  0  0  0  0  0  0  0  0
   26.3719  -18.5090  -15.0651 N   0  0  0  0  0  0  0  0  0  0  0  0
   24.6415  -20.1151  -14.5353 C   0  0  0  0  0  0  0  0  0  0  0  0
   24.4312  -19.4861  -13.4703 O   0  0  0  0  0  0  0  0  0  0  0  0
   20.2769  -17.5004  -13.5973 N   0  0  0  0  0  0  0  0  0  0  0  0
   19.6569  -18.7215  -13.2178 C   0  0  0  0  0  0  0  0  0  0  0  0
   18.5201  -18.6372  -12.6762 O   0  0  0  0  0  0  0  0  0  0  0  0
   20.3144  -20.0331  -13.4472 C   0  0  0  0  0  0  0  0  0  0  0  0
   21.7021  -19.8566  -14.0192 C   0  0  0  0  0  0  0  0  0  0  0  0
   22.4422  -21.1674  -14.1332 C   0  0  2  0  0  0  0  0  0  0  0  0
   23.6504  -21.0750  -14.8749 N   0  0  0  0  0  0  0  0  0  0  0  0
   21.4960  -22.1782  -14.6645 C   0  0  0  0  0  0  0  0  0  0  0  0
   21.5903  -22.7273  -15.7904 O   0  0  0  0  0  0  0  0  0  0  0  0
   20.4238  -22.5532  -13.8688 O   0  0  0  0  0  0  0  0  0  0  0  0
  2  1  1  0
  3  2  1  0
  4  5  1  0
  4  3  1  0
  5  7  1  0
  5  6  1  6
  7  8  2  0
 10  9  1  0
 11 10  2  0
 13 12  1  1
 12 10  1  0
 14  7  1  0
 14 13  1  0
 15 13  1  0
 15 16  2  0
 18 17  1  0
 18 19  2  0
 20 21  1  0
 20 18  1  0
 22 21  1  6
 22 23  1  0
 22 24  1  0
 23 15  1  0
 24 25  2  0
 24 26  1  0
M  END
$$$$
