MNQ.pdb
     RDKit          3D

 26 25  0  0  1  0  0  0  0  0999 V2000
   30.0982   -8.9367  -19.1329 C   0  0  0  0  0  0  0  0  0  0  0  0
   31.1595  -10.0230  -18.1430 S   0  0  0  0  0  0  0  0  0  0  0  0
   30.1289  -10.9053  -16.9110 C   0  0  0  0  0  0  0  0  0  0  0  0
   28.6696  -10.7125  -17.2290 C   0  0  0  0  0  0  0  0  0  0  0  0
   27.7433  -11.1690  -16.1676 C   0  0  2  0  0  0  0  0  0  0  0  0
   28.0503  -12.6084  -15.9419 N   0  0  0  0  0  0  0  0  0  0  0  0
   26.3163  -11.0831  -16.4112 C   0  0  0  0  0  0  0  0  0  0  0  0
   25.6822  -12.1346  -16.7876 O   0  0  0  0  0  0  0  0  0  0  0  0
   21.5380  -12.5010  -16.4904 N   0  0  0  0  0  0  0  0  0  0  0  0
   22.0609  -11.3923  -15.7703 C   0  0  0  0  0  0  0  0  0  0  0  0
   21.2565  -10.6409  -15.2053 O   0  0  0  0  0  0  0  0  0  0  0  0
   23.4941  -11.2010  -15.7351 C   0  0  0  0  0  0  0  0  0  0  0  0
   24.0397  -10.0067  -16.5136 C   0  0  2  0  0  0  0  0  0  0  0  0
   25.4877   -9.9279  -16.2751 N   0  0  0  0  0  0  0  0  0  0  0  0
   23.3841   -8.7382  -16.1558 C   0  0  0  0  0  0  0  0  0  0  0  0
   23.5686   -8.2101  -15.0328 O   0  0  0  0  0  0  0  0  0  0  0  0
   20.1884   -4.4204  -19.7316 N   0  0  0  0  0  0  0  0  0  0  0  0
   20.1007   -3.9558  -18.3914 C   0  0  0  0  0  0  0  0  0  0  0  0
   19.4810   -2.8723  -18.2051 O   0  0  0  0  0  0  0  0  0  0  0  0
   20.7087   -4.7084  -17.2648 C   0  0  0  0  0  0  0  0  0  0  0  0
   21.3215   -6.0052  -17.7410 C   0  0  0  0  0  0  0  0  0  0  0  0
   21.9054   -6.8101  -16.6052 C   0  0  2  0  0  0  0  0  0  0  0  0
   22.5148   -8.0235  -17.0233 N   0  0  0  0  0  0  0  0  0  0  0  0
   20.8417   -7.0000  -15.5896 C   0  0  0  0  0  0  0  0  0  0  0  0
   19.9216   -7.8520  -15.6650 O   0  0  0  0  0  0  0  0  0  0  0  0
   20.8528   -6.1827  -14.4692 O   0  0  0  0  0  0  0  0  0  0  0  0
  2  1  1  0
  3  2  1  0
  4  5  1  0
  4  3  1  0
  5  7  1  0
  5  6  1  6
  7  8  2  0
 10  9  1  0
 11 10  2  0
 13 12  1  1
 12 10  1  0
 14  7  1  0
 14 13  1  0
 15 13  1  0
 15 16  2  0
 18 17  1  0
 18 19  2  0
 20 21  1  0
 20 18  1  0
 22 21  1  6
 22 23  1  0
 22 24  1  0
 23 15  1  0
 24 25  2  0
 24 26  1  0
M  END
$$$$
