MNQ.pdb
     RDKit          3D

 26 25  0  0  1  0  0  0  0  0999 V2000
   20.8042  -16.4609  -13.7990 C   0  0  0  0  0  0  0  0  0  0  0  0
   19.8482  -17.4006  -15.0193 S   0  0  0  0  0  0  0  0  0  0  0  0
   20.3836  -16.9128  -16.7027 C   0  0  0  0  0  0  0  0  0  0  0  0
   20.5021  -15.4141  -16.7905 C   0  0  0  0  0  0  0  0  0  0  0  0
   19.3280  -14.7383  -17.3885 C   0  0  2  0  0  0  0  0  0  0  0  0
   19.3842  -15.0264  -18.8482 N   0  0  0  0  0  0  0  0  0  0  0  0
   19.2162  -13.2987  -17.2545 C   0  0  0  0  0  0  0  0  0  0  0  0
   19.7727  -12.5442  -18.1322 O   0  0  0  0  0  0  0  0  0  0  0  0
   16.3062   -8.4161  -16.2918 N   0  0  0  0  0  0  0  0  0  0  0  0
   17.1150   -9.1930  -15.4180 C   0  0  0  0  0  0  0  0  0  0  0  0
   17.6863   -8.6084  -14.4892 O   0  0  0  0  0  0  0  0  0  0  0  0
   17.2275  -10.6150  -15.6573 C   0  0  0  0  0  0  0  0  0  0  0  0
   18.5734  -11.1120  -16.1785 C   0  0  2  0  0  0  0  0  0  0  0  0
   18.5311  -12.5802  -16.2277 N   0  0  0  0  0  0  0  0  0  0  0  0
   19.7110  -10.6517  -15.3657 C   0  0  0  0  0  0  0  0  0  0  0  0
   20.3456  -11.4482  -14.6330 O   0  0  0  0  0  0  0  0  0  0  0  0
   24.7153  -11.0010  -16.8539 N   0  0  0  0  0  0  0  0  0  0  0  0
   25.0062  -10.1838  -15.7282 C   0  0  0  0  0  0  0  0  0  0  0  0
   26.2114  -10.1360  -15.3570 O   0  0  0  0  0  0  0  0  0  0  0  0
   23.9437   -9.4231  -15.0226 C   0  0  0  0  0  0  0  0  0  0  0  0
   22.5732   -9.7811  -15.5494 C   0  0  0  0  0  0  0  0  0  0  0  0
   21.4780   -8.9981  -14.8664 C   0  0  2  0  0  0  0  0  0  0  0  0
   20.1759   -9.3091  -15.3421 N   0  0  0  0  0  0  0  0  0  0  0  0
   21.8183   -7.5583  -14.9682 C   0  0  0  0  0  0  0  0  0  0  0  0
   22.8049   -7.0133  -14.4135 O   0  0  0  0  0  0  0  0  0  0  0  0
   20.9940   -6.7430  -15.7292 O   0  0  0  0  0  0  0  0  0  0  0  0
  2  1  1  0
  3  2  1  0
  4  5  1  0
  4  3  1  0
  5  7  1  0
  5  6  1  6
  7  8  2  0
 10  9  1  0
 11 10  2  0
 13 12  1  1
 12 10  1  0
 14  7  1  0
 14 13  1  0
 15 13  1  0
 15 16  2  0
 18 17  1  0
 18 19  2  0
 20 21  1  0
 20 18  1  0
 22 21  1  6
 22 23  1  0
 22 24  1  0
 23 15  1  0
 24 25  2  0
 24 26  1  0
M  END
$$$$
