MNQ.pdb
     RDKit          3D

 26 25  0  0  1  0  0  0  0  0999 V2000
   30.4834  -20.8211  -10.3990 C   0  0  0  0  0  0  0  0  0  0  0  0
   28.9917  -21.8501  -10.3538 S   0  0  0  0  0  0  0  0  0  0  0  0
   27.5585  -20.8057   -9.8917 C   0  0  0  0  0  0  0  0  0  0  0  0
   26.7594  -20.4568  -11.1195 C   0  0  0  0  0  0  0  0  0  0  0  0
   26.0893  -21.6088  -11.7650 C   0  0  2  0  0  0  0  0  0  0  0  0
   27.0508  -22.1347  -12.7730 N   0  0  0  0  0  0  0  0  0  0  0  0
   24.8401  -21.3790  -12.4648 C   0  0  0  0  0  0  0  0  0  0  0  0
   24.8201  -21.4483  -13.7470 O   0  0  0  0  0  0  0  0  0  0  0  0
   19.3106  -22.0584  -13.0415 N   0  0  0  0  0  0  0  0  0  0  0  0
   19.8636  -20.8734  -12.4836 C   0  0  0  0  0  0  0  0  0  0  0  0
   19.2122  -19.8271  -12.5913 O   0  0  0  0  0  0  0  0  0  0  0  0
   21.1486  -20.9509  -11.8242 C   0  0  0  0  0  0  0  0  0  0  0  0
   22.3793  -20.9009  -12.7259 C   0  0  2  0  0  0  0  0  0  0  0  0
   23.5709  -21.0769  -11.8838 N   0  0  0  0  0  0  0  0  0  0  0  0
   22.4723  -19.6551  -13.5045 C   0  0  0  0  0  0  0  0  0  0  0  0
   22.8586  -18.5874  -12.9709 O   0  0  0  0  0  0  0  0  0  0  0  0
   25.9296  -16.2045  -15.3231 N   0  0  0  0  0  0  0  0  0  0  0  0
   25.6428  -16.6432  -16.6441 C   0  0  0  0  0  0  0  0  0  0  0  0
   26.2608  -16.0663  -17.5811 O   0  0  0  0  0  0  0  0  0  0  0  0
   24.6635  -17.7276  -16.9093 C   0  0  0  0  0  0  0  0  0  0  0  0
   24.1148  -18.2961  -15.6210 C   0  0  0  0  0  0  0  0  0  0  0  0
   22.6159  -18.4693  -15.6676 C   0  0  2  0  0  0  0  0  0  0  0  0
   22.1451  -19.5567  -14.8837 N   0  0  0  0  0  0  0  0  0  0  0  0
   22.2121  -18.5468  -17.0923 C   0  0  0  0  0  0  0  0  0  0  0  0
   22.0365  -17.5551  -17.8433 O   0  0  0  0  0  0  0  0  0  0  0  0
   22.0103  -19.8012  -17.6484 O   0  0  0  0  0  0  0  0  0  0  0  0
  2  1  1  0
  3  2  1  0
  4  5  1  0
  4  3  1  0
  5  7  1  0
  5  6  1  6
  7  8  2  0
 10  9  1  0
 11 10  2  0
 13 12  1  1
 12 10  1  0
 14  7  1  0
 14 13  1  0
 15 13  1  0
 15 16  2  0
 18 17  1  0
 18 19  2  0
 20 21  1  0
 20 18  1  0
 22 21  1  6
 22 23  1  0
 22 24  1  0
 23 15  1  0
 24 25  2  0
 24 26  1  0
M  END
$$$$
