MNQ.pdb
     RDKit          3D

 26 25  0  0  1  0  0  0  0  0999 V2000
   27.5186  -19.7699   -7.2242 C   0  0  0  0  0  0  0  0  0  0  0  0
   29.1570  -19.7137   -7.9979 S   0  0  0  0  0  0  0  0  0  0  0  0
   29.0858  -20.5776   -9.6125 C   0  0  0  0  0  0  0  0  0  0  0  0
   27.7223  -21.1855   -9.8107 C   0  0  0  0  0  0  0  0  0  0  0  0
   27.1985  -21.0839  -11.1921 C   0  0  2  0  0  0  0  0  0  0  0  0
   27.4872  -19.6944  -11.6426 N   0  0  0  0  0  0  0  0  0  0  0  0
   25.7824  -21.3051  -11.4126 C   0  0  0  0  0  0  0  0  0  0  0  0
   25.2931  -22.4746  -11.2074 O   0  0  0  0  0  0  0  0  0  0  0  0
   22.7346  -20.9365   -9.2665 N   0  0  0  0  0  0  0  0  0  0  0  0
   22.2863  -19.7613   -9.9292 C   0  0  0  0  0  0  0  0  0  0  0  0
   21.6808  -18.9165   -9.2581 O   0  0  0  0  0  0  0  0  0  0  0  0
   22.5588  -19.6144  -11.3421 C   0  0  0  0  0  0  0  0  0  0  0  0
   23.4020  -20.7102  -11.9890 C   0  0  2  0  0  0  0  0  0  0  0  0
   24.8178  -20.3440  -11.8436 N   0  0  0  0  0  0  0  0  0  0  0  0
   23.0659  -20.9352  -13.4044 C   0  0  0  0  0  0  0  0  0  0  0  0
   23.9126  -20.7368  -14.3087 O   0  0  0  0  0  0  0  0  0  0  0  0
   24.1839  -25.5792  -15.1091 N   0  0  0  0  0  0  0  0  0  0  0  0
   24.7239  -24.3434  -15.5573 C   0  0  0  0  0  0  0  0  0  0  0  0
   25.9270  -24.3539  -15.9383 O   0  0  0  0  0  0  0  0  0  0  0  0
   23.9123  -23.0999  -15.5765 C   0  0  0  0  0  0  0  0  0  0  0  0
   22.4960  -23.3642  -15.1199 C   0  0  0  0  0  0  0  0  0  0  0  0
   21.6677  -22.1029  -15.0739 C   0  0  2  0  0  0  0  0  0  0  0  0
   21.7953  -21.3837  -13.8553 N   0  0  0  0  0  0  0  0  0  0  0  0
   20.2685  -22.4665  -15.4042 C   0  0  0  0  0  0  0  0  0  0  0  0
   19.6254  -22.0236  -16.3883 O   0  0  0  0  0  0  0  0  0  0  0  0
   19.6107  -23.3607  -14.5728 O   0  0  0  0  0  0  0  0  0  0  0  0
  2  1  1  0
  3  2  1  0
  4  5  1  0
  4  3  1  0
  5  7  1  0
  5  6  1  1
  7  8  2  0
 10  9  1  0
 11 10  2  0
 13 12  1  6
 12 10  1  0
 14  7  1  0
 14 13  1  0
 15 13  1  0
 15 16  2  0
 18 17  1  0
 18 19  2  0
 20 21  1  0
 20 18  1  0
 22 21  1  1
 22 23  1  0
 22 24  1  0
 23 15  1  0
 24 25  2  0
 24 26  1  0
M  END
$$$$
