MNQ.pdb
     RDKit          3D

 26 25  0  0  1  0  0  0  0  0999 V2000
   29.7797  -20.9794  -10.4517 C   0  0  0  0  0  0  0  0  0  0  0  0
   28.7087  -19.8266   -9.5517 S   0  0  0  0  0  0  0  0  0  0  0  0
   27.3222  -20.7605   -8.8008 C   0  0  0  0  0  0  0  0  0  0  0  0
   26.4070  -21.2777   -9.8791 C   0  0  0  0  0  0  0  0  0  0  0  0
   25.2296  -20.4213  -10.1496 C   0  0  2  0  0  0  0  0  0  0  0  0
   24.3372  -20.5594   -8.9657 N   0  0  0  0  0  0  0  0  0  0  0  0
   24.4178  -20.7100  -11.3160 C   0  0  0  0  0  0  0  0  0  0  0  0
   23.7599  -21.8120  -11.3624 O   0  0  0  0  0  0  0  0  0  0  0  0
   20.3334  -20.5844  -13.5153 N   0  0  0  0  0  0  0  0  0  0  0  0
   21.2731  -19.5492  -13.2572 C   0  0  0  0  0  0  0  0  0  0  0  0
   21.0196  -18.7555  -12.3426 O   0  0  0  0  0  0  0  0  0  0  0  0
   22.4673  -19.4775  -14.0701 C   0  0  0  0  0  0  0  0  0  0  0  0
   23.6089  -20.4147  -13.6848 C   0  0  2  0  0  0  0  0  0  0  0  0
   24.2445  -19.8861  -12.4697 N   0  0  0  0  0  0  0  0  0  0  0  0
   24.6012  -20.5851  -14.7586 C   0  0  0  0  0  0  0  0  0  0  0  0
   25.4575  -19.6988  -14.9932 O   0  0  0  0  0  0  0  0  0  0  0  0
   27.9009  -25.5779  -16.3147 N   0  0  0  0  0  0  0  0  0  0  0  0
   28.2499  -24.6418  -17.3254 C   0  0  0  0  0  0  0  0  0  0  0  0
   29.2013  -24.9604  -18.0909 O   0  0  0  0  0  0  0  0  0  0  0  0
   27.5304  -23.3512  -17.4737 C   0  0  0  0  0  0  0  0  0  0  0  0
   26.4513  -23.2032  -16.4260 C   0  0  0  0  0  0  0  0  0  0  0  0
   25.7303  -21.8812  -16.5337 C   0  0  2  0  0  0  0  0  0  0  0  0
   24.6747  -21.7317  -15.5946 N   0  0  0  0  0  0  0  0  0  0  0  0
   25.2989  -21.7130  -17.9425 C   0  0  0  0  0  0  0  0  0  0  0  0
   24.1168  -21.8337  -18.3502 O   0  0  0  0  0  0  0  0  0  0  0  0
   26.2626  -21.3992  -18.8892 O   0  0  0  0  0  0  0  0  0  0  0  0
  2  1  1  0
  3  2  1  0
  4  5  1  0
  4  3  1  0
  5  7  1  0
  5  6  1  1
  7  8  2  0
 10  9  1  0
 11 10  2  0
 13 12  1  6
 12 10  1  0
 14  7  1  0
 14 13  1  0
 15 13  1  0
 15 16  2  0
 18 17  1  0
 18 19  2  0
 20 21  1  0
 20 18  1  0
 22 21  1  6
 22 23  1  0
 22 24  1  0
 23 15  1  0
 24 25  2  0
 24 26  1  0
M  END
$$$$
