MNQ.pdb
     RDKit          3D

 26 25  0  0  1  0  0  0  0  0999 V2000
   28.6098  -19.3653   -3.4628 C   0  0  0  0  0  0  0  0  0  0  0  0
   28.3248  -20.3659   -4.9473 S   0  0  0  0  0  0  0  0  0  0  0  0
   27.7103  -19.2814   -6.2907 C   0  0  0  0  0  0  0  0  0  0  0  0
   27.7841  -20.0045   -7.6096 C   0  0  0  0  0  0  0  0  0  0  0  0
   26.4908  -20.1184   -8.3217 C   0  0  2  0  0  0  0  0  0  0  0  0
   25.7009  -21.1420   -7.5832 N   0  0  0  0  0  0  0  0  0  0  0  0
   26.5012  -20.5278   -9.7129 C   0  0  0  0  0  0  0  0  0  0  0  0
   27.2141  -21.5373  -10.0620 O   0  0  0  0  0  0  0  0  0  0  0  0
   25.7865  -21.7680  -14.6325 N   0  0  0  0  0  0  0  0  0  0  0  0
   25.5810  -22.5597  -13.4697 C   0  0  0  0  0  0  0  0  0  0  0  0
   25.3953  -23.7732  -13.6240 O   0  0  0  0  0  0  0  0  0  0  0  0
   25.5995  -21.9117  -12.1767 C   0  0  0  0  0  0  0  0  0  0  0  0
   25.9376  -20.4232  -12.1673 C   0  0  2  0  0  0  0  0  0  0  0  0
   25.7837  -19.9278  -10.7923 N   0  0  0  0  0  0  0  0  0  0  0  0
   25.1099  -19.6389  -13.0982 C   0  0  0  0  0  0  0  0  0  0  0  0
   23.8605  -19.6131  -12.9868 O   0  0  0  0  0  0  0  0  0  0  0  0
   27.9712  -16.2694  -16.7218 N   0  0  0  0  0  0  0  0  0  0  0  0
   26.9577  -15.4350  -16.1776 C   0  0  0  0  0  0  0  0  0  0  0  0
   27.2797  -14.2413  -15.9245 O   0  0  0  0  0  0  0  0  0  0  0  0
   25.5864  -15.9428  -15.9189 C   0  0  0  0  0  0  0  0  0  0  0  0
   25.5019  -17.4334  -16.1534 C   0  0  0  0  0  0  0  0  0  0  0  0
   24.7752  -18.1452  -15.0379 C   0  0  2  0  0  0  0  0  0  0  0  0
   25.6365  -18.8664  -14.1682 N   0  0  0  0  0  0  0  0  0  0  0  0
   23.7136  -18.9813  -15.6487 C   0  0  0  0  0  0  0  0  0  0  0  0
   23.9112  -20.0700  -16.2435 O   0  0  0  0  0  0  0  0  0  0  0  0
   22.4019  -18.5392  -15.5635 O   0  0  0  0  0  0  0  0  0  0  0  0
  2  1  1  0
  3  2  1  0
  4  5  1  0
  4  3  1  0
  5  7  1  0
  5  6  1  1
  7  8  2  0
 10  9  1  0
 11 10  2  0
 13 12  1  1
 12 10  1  0
 14  7  1  0
 14 13  1  0
 15 13  1  0
 15 16  2  0
 18 17  1  0
 18 19  2  0
 20 21  1  0
 20 18  1  0
 22 21  1  6
 22 23  1  0
 22 24  1  0
 23 15  1  0
 24 25  2  0
 24 26  1  0
M  END
$$$$
