RVD.pdb
     RDKit          3D

 27 26  0  0  1  0  0  0  0  0999 V2000
   29.5839  -22.9211  -17.8591 N   0  0  0  0  0  0  0  0  0  0  0  0
   28.9355  -23.5906  -16.7786 C   0  0  0  0  0  0  0  0  0  0  0  0
   29.3473  -24.7317  -16.3676 N   0  0  0  0  0  0  0  0  0  0  0  0
   27.8121  -23.0122  -16.1224 N   0  0  0  0  0  0  0  0  0  0  0  0
   27.3233  -21.6952  -16.4315 C   0  0  0  0  0  0  0  0  0  0  0  0
   25.9666  -21.7438  -17.1445 C   0  0  0  0  0  0  0  0  0  0  0  0
   24.9390  -21.8874  -16.0581 C   0  0  0  0  0  0  0  0  0  0  0  0
   23.5173  -21.9961  -16.5689 C   0  0  2  0  0  0  0  0  0  0  0  0
   23.5315  -21.4086  -17.9167 N   0  0  0  0  0  0  0  0  0  0  0  0
   22.6506  -21.1426  -15.7297 C   0  0  0  0  0  0  0  0  0  0  0  0
   22.5264  -21.2650  -14.4886 O   0  0  0  0  0  0  0  0  0  0  0  0
   28.9281  -25.2916  -15.6027 C   0  0  0  0  0  0  0  0  0  0  0  0
   20.5767  -16.7639  -15.5027 C   0  0  2  0  0  0  0  0  0  0  0  0
   21.4363  -17.8223  -16.0994 C   0  0  0  0  0  0  0  0  0  0  0  0
   22.8769  -17.4743  -15.8119 C   0  0  1  0  0  0  0  0  0  0  0  0
   21.1124  -19.1919  -15.5242 N   0  0  0  0  0  0  0  0  0  0  0  0
   21.9032  -20.1138  -16.3456 C   0  0  0  0  0  0  0  0  0  0  0  0
   19.7014  -19.5386  -15.5425 O   0  0  0  0  0  0  0  0  0  0  0  0
   19.1293  -19.6644  -16.6808 N   0  0  0  0  0  0  0  0  0  0  0  0
   18.8607  -19.7627  -14.4303 C   0  0  1  0  0  0  0  0  0  0  0  0
   17.4437  -20.0848  -14.5908 C   0  0  0  0  0  0  0  0  0  0  0  0
   16.9420  -20.9028  -13.4033 C   0  0  0  0  0  0  0  0  0  0  0  0
   17.2082  -22.3417  -13.5938 O   0  0  0  0  0  0  0  0  0  0  0  0
   17.8057  -22.8308  -14.5829 C   0  0  0  0  0  0  0  0  0  0  0  0
   16.6810  -18.8213  -14.5735 O   0  0  0  0  0  0  0  0  0  0  0  0
   16.9639  -17.7524  -13.7329 O   0  0  0  0  0  0  0  0  0  0  0  0
   16.7840  -23.2780  -12.6307 O   0  0  0  0  0  0  0  0  0  0  0  0
  2  3  2  0
  2  1  1  0
  4  2  1  0
  5  4  1  0
  6  5  1  0
  7  6  1  0
  8  7  1  0
  8  9  1  6
 10  8  1  0
 11 10  2  0
 13 12  1  6
 13 14  1  0
 15 13  1  0
 15 16  1  6
 16 10  1  0
 17 19  1  0
 17 15  1  0
 18 17  2  0
 20 19  1  0
 20 21  1  6
 21 22  1  0
 22 26  1  0
 23 22  2  0
 24 25  1  0
 24 20  1  0
 27 24  2  0
M  END
$$$$
