RVD.pdb
     RDKit          3D

 27 26  0  0  1  0  0  0  0  0999 V2000
   20.5902  -20.4378  -17.4976 N   0  0  0  0  0  0  0  0  0  0  0  0
   21.2485  -19.2001  -17.7637 C   0  0  0  0  0  0  0  0  0  0  0  0
   20.9450  -18.4995  -18.7921 N   0  0  0  0  0  0  0  0  0  0  0  0
   22.2618  -18.7038  -16.8953 N   0  0  0  0  0  0  0  0  0  0  0  0
   22.4288  -19.1733  -15.5459 C   0  0  0  0  0  0  0  0  0  0  0  0
   21.2009  -18.8669  -14.6800 C   0  0  0  0  0  0  0  0  0  0  0  0
   21.2366  -19.8612  -13.5543 C   0  0  0  0  0  0  0  0  0  0  0  0
   22.5760  -19.9450  -12.8521 C   0  0  2  0  0  0  0  0  0  0  0  0
   23.5032  -20.5331  -13.8300 N   0  0  0  0  0  0  0  0  0  0  0  0
   22.4592  -20.9011  -11.7314 C   0  0  0  0  0  0  0  0  0  0  0  0
   22.3219  -22.1392  -11.8697 O   0  0  0  0  0  0  0  0  0  0  0  0
   21.3910  -17.6077  -19.0752 C   0  0  0  0  0  0  0  0  0  0  0  0
   23.4718  -21.4625   -6.9909 C   0  0  2  0  0  0  0  0  0  0  0  0
   23.4122  -20.6805   -8.2558 C   0  0  0  0  0  0  0  0  0  0  0  0
   24.8134  -20.5719   -8.8069 C   0  0  1  0  0  0  0  0  0  0  0  0
   22.5061  -21.3463   -9.2793 N   0  0  0  0  0  0  0  0  0  0  0  0
   22.5026  -20.4097  -10.4074 C   0  0  0  0  0  0  0  0  0  0  0  0
   21.1585  -21.6190   -8.8091 O   0  0  0  0  0  0  0  0  0  0  0  0
   20.3583  -20.6288   -8.6746 N   0  0  0  0  0  0  0  0  0  0  0  0
   20.6062  -22.8751   -8.4756 C   0  0  1  0  0  0  0  0  0  0  0  0
   19.2402  -23.0041   -7.9706 C   0  0  0  0  0  0  0  0  0  0  0  0
   18.4793  -24.0737   -8.7504 C   0  0  0  0  0  0  0  0  0  0  0  0
   17.8822  -23.5168   -9.9796 O   0  0  0  0  0  0  0  0  0  0  0  0
   17.9537  -22.3122  -10.3239 C   0  0  0  0  0  0  0  0  0  0  0  0
   19.3098  -23.4812   -6.5757 O   0  0  0  0  0  0  0  0  0  0  0  0
   18.2222  -23.5264   -5.7130 O   0  0  0  0  0  0  0  0  0  0  0  0
   17.1702  -24.3488  -10.8656 O   0  0  0  0  0  0  0  0  0  0  0  0
  2  3  2  0
  2  1  1  0
  4  2  1  0
  5  4  1  0
  6  5  1  0
  7  6  1  0
  8  7  1  0
  8  9  1  6
 10  8  1  0
 11 10  2  0
 13 12  1  1
 13 14  1  0
 15 13  1  0
 15 16  1  1
 16 10  1  0
 17 19  1  0
 17 15  1  0
 18 17  2  0
 20 19  1  0
 20 21  1  1
 21 22  1  0
 22 26  1  0
 23 22  2  0
 24 25  1  0
 24 20  1  0
 27 24  2  0
M  END
$$$$
