RVD.pdb
     RDKit          3D

 27 26  0  0  1  0  0  0  0  0999 V2000
   27.3929  -25.3839  -16.5243 N   0  0  0  0  0  0  0  0  0  0  0  0
   26.9957  -24.3984  -17.4767 C   0  0  0  0  0  0  0  0  0  0  0  0
   26.9956  -24.6561  -18.7314 N   0  0  0  0  0  0  0  0  0  0  0  0
   26.5859  -23.0988  -17.0638 N   0  0  0  0  0  0  0  0  0  0  0  0
   25.3712  -22.8621  -16.3307 C   0  0  0  0  0  0  0  0  0  0  0  0
   24.9275  -24.1035  -15.5472 C   0  0  0  0  0  0  0  0  0  0  0  0
   23.6650  -23.7076  -14.8356 C   0  0  0  0  0  0  0  0  0  0  0  0
   23.8876  -22.7692  -13.6678 C   0  0  2  0  0  0  0  0  0  0  0  0
   24.8584  -23.4435  -12.7934 N   0  0  0  0  0  0  0  0  0  0  0  0
   22.6238  -22.6546  -12.9105 C   0  0  0  0  0  0  0  0  0  0  0  0
   22.1404  -23.5666  -12.1996 O   0  0  0  0  0  0  0  0  0  0  0  0
   26.7374  -23.9973  -19.4888 C   0  0  0  0  0  0  0  0  0  0  0  0
   19.6499  -19.4803  -10.7826 C   0  0  2  0  0  0  0  0  0  0  0  0
   20.8378  -19.8674  -11.5915 C   0  0  0  0  0  0  0  0  0  0  0  0
   22.0547  -19.7988  -10.7008 C   0  0  1  0  0  0  0  0  0  0  0  0
   20.6920  -21.2709  -12.1575 N   0  0  0  0  0  0  0  0  0  0  0  0
   21.8950  -21.4459  -12.9772 C   0  0  0  0  0  0  0  0  0  0  0  0
   19.4826  -21.4890  -12.9330 O   0  0  0  0  0  0  0  0  0  0  0  0
   19.3380  -20.8252  -14.0181 N   0  0  0  0  0  0  0  0  0  0  0  0
   18.4195  -22.3682  -12.6316 C   0  0  1  0  0  0  0  0  0  0  0  0
   17.1842  -22.3766  -13.4137 C   0  0  0  0  0  0  0  0  0  0  0  0
   16.2870  -23.5356  -12.9860 C   0  0  0  0  0  0  0  0  0  0  0  0
   15.3118  -23.8747  -14.0403 O   0  0  0  0  0  0  0  0  0  0  0  0
   15.2073  -23.2705  -15.1352 C   0  0  0  0  0  0  0  0  0  0  0  0
   16.4377  -21.1412  -13.1059 O   0  0  0  0  0  0  0  0  0  0  0  0
   16.2320  -20.6553  -11.8210 O   0  0  0  0  0  0  0  0  0  0  0  0
   14.4096  -24.9413  -13.8594 O   0  0  0  0  0  0  0  0  0  0  0  0
  2  3  2  0
  2  1  1  0
  4  2  1  0
  5  4  1  0
  6  5  1  0
  7  6  1  0
  8  7  1  0
  8  9  1  1
 10  8  1  0
 11 10  2  0
 13 12  1  6
 13 14  1  0
 15 13  1  0
 15 16  1  6
 16 10  1  0
 17 19  1  0
 17 15  1  0
 18 17  2  0
 20 19  1  0
 20 21  1  1
 21 22  1  0
 22 26  1  0
 23 22  2  0
 24 25  1  0
 24 20  1  0
 27 24  2  0
M  END
$$$$
