RVD.pdb
     RDKit          3D

 27 26  0  0  1  0  0  0  0  0999 V2000
   18.8886  -29.0229   -9.4983 N   0  0  0  0  0  0  0  0  0  0  0  0
   17.8114  -28.9659   -8.5643 C   0  0  0  0  0  0  0  0  0  0  0  0
   17.4475  -30.0070   -7.9130 N   0  0  0  0  0  0  0  0  0  0  0  0
   17.1079  -27.7513   -8.3255 N   0  0  0  0  0  0  0  0  0  0  0  0
   17.5622  -26.4788   -8.8188 C   0  0  0  0  0  0  0  0  0  0  0  0
   18.6466  -25.8732   -7.9195 C   0  0  0  0  0  0  0  0  0  0  0  0
   18.8936  -24.4904   -8.4520 C   0  0  0  0  0  0  0  0  0  0  0  0
   19.9402  -23.7137   -7.6801 C   0  0  2  0  0  0  0  0  0  0  0  0
   19.3203  -23.3839   -6.3883 N   0  0  0  0  0  0  0  0  0  0  0  0
   20.1906  -22.4380   -8.3827 C   0  0  0  0  0  0  0  0  0  0  0  0
   19.5068  -21.3992   -8.2272 O   0  0  0  0  0  0  0  0  0  0  0  0
   16.6639  -30.0597   -7.2366 C   0  0  0  0  0  0  0  0  0  0  0  0
   23.5609  -19.9021  -10.8328 C   0  0  2  0  0  0  0  0  0  0  0  0
   23.0715  -21.0142   -9.9732 C   0  0  0  0  0  0  0  0  0  0  0  0
   23.5615  -20.7703   -8.5663 C   0  0  1  0  0  0  0  0  0  0  0  0
   21.5535  -21.0980   -9.9828 N   0  0  0  0  0  0  0  0  0  0  0  0
   21.2669  -22.3607   -9.2948 C   0  0  0  0  0  0  0  0  0  0  0  0
   20.9530  -21.0639  -11.3057 O   0  0  0  0  0  0  0  0  0  0  0  0
   20.9638  -22.1412  -11.9972 N   0  0  0  0  0  0  0  0  0  0  0  0
   20.3401  -19.9608  -11.9392 C   0  0  2  0  0  0  0  0  0  0  0  0
   19.7433  -20.0728  -13.2692 C   0  0  0  0  0  0  0  0  0  0  0  0
   18.5782  -19.0973  -13.4177 C   0  0  0  0  0  0  0  0  0  0  0  0
   18.0226  -19.1313  -14.7844 O   0  0  0  0  0  0  0  0  0  0  0  0
   18.6082  -18.6901  -15.8027 C   0  0  0  0  0  0  0  0  0  0  0  0
   20.7549  -19.6619  -14.2622 O   0  0  0  0  0  0  0  0  0  0  0  0
   20.8636  -20.2078  -15.5348 O   0  0  0  0  0  0  0  0  0  0  0  0
   16.7495  -19.6855  -15.0219 O   0  0  0  0  0  0  0  0  0  0  0  0
  2  3  2  0
  2  1  1  0
  4  2  1  0
  5  4  1  0
  6  5  1  0
  7  6  1  0
  8  7  1  0
  8  9  1  1
 10  8  1  0
 11 10  2  0
 13 12  1  6
 13 14  1  0
 15 13  1  0
 15 16  1  6
 16 10  1  0
 17 19  1  0
 17 15  1  0
 18 17  2  0
 20 19  1  0
 20 21  1  6
 21 22  1  0
 22 26  1  0
 23 22  2  0
 24 25  1  0
 24 20  1  0
 27 24  2  0
M  END
$$$$
