RVD.pdb
     RDKit          3D

 27 26  0  0  1  0  0  0  0  0999 V2000
   26.5879  -17.5132  -20.6077 N   0  0  0  0  0  0  0  0  0  0  0  0
   26.3947  -18.9259  -20.6589 C   0  0  0  0  0  0  0  0  0  0  0  0
   26.0555  -19.5061  -21.7493 N   0  0  0  0  0  0  0  0  0  0  0  0
   26.5735  -19.7357  -19.5015 N   0  0  0  0  0  0  0  0  0  0  0  0
   26.8851  -19.1874  -18.2087 C   0  0  0  0  0  0  0  0  0  0  0  0
   27.2006  -20.2850  -17.1853 C   0  0  0  0  0  0  0  0  0  0  0  0
   27.4999  -19.5699  -15.8985 C   0  0  0  0  0  0  0  0  0  0  0  0
   28.0137  -20.4756  -14.7986 C   0  0  2  0  0  0  0  0  0  0  0  0
   28.7488  -21.5521  -15.4788 N   0  0  0  0  0  0  0  0  0  0  0  0
   26.8555  -21.0970  -14.1231 C   0  0  0  0  0  0  0  0  0  0  0  0
   26.3492  -22.1946  -14.4542 O   0  0  0  0  0  0  0  0  0  0  0  0
   25.8803  -20.5204  -21.8710 C   0  0  0  0  0  0  0  0  0  0  0  0
   24.3243  -21.1076   -9.9496 C   0  0  2  0  0  0  0  0  0  0  0  0
   25.4306  -20.6679  -10.8429 C   0  0  0  0  0  0  0  0  0  0  0  0
   26.7078  -21.3114  -10.3598 C   0  0  1  0  0  0  0  0  0  0  0  0
   25.1692  -21.0627  -12.2877 N   0  0  0  0  0  0  0  0  0  0  0  0
   26.2632  -20.4274  -13.0290 C   0  0  0  0  0  0  0  0  0  0  0  0
   23.8717  -20.6574  -12.8015 O   0  0  0  0  0  0  0  0  0  0  0  0
   23.5460  -19.4233  -12.7019 N   0  0  0  0  0  0  0  0  0  0  0  0
   22.9003  -21.4776  -13.4160 C   0  0  1  0  0  0  0  0  0  0  0  0
   21.6701  -20.9222  -13.9780 C   0  0  0  0  0  0  0  0  0  0  0  0
   21.1190  -21.8365  -15.0695 C   0  0  0  0  0  0  0  0  0  0  0  0
   19.8640  -21.3018  -15.6322 O   0  0  0  0  0  0  0  0  0  0  0  0
   19.3514  -20.2019  -15.3126 C   0  0  0  0  0  0  0  0  0  0  0  0
   20.6508  -20.8923  -12.9109 O   0  0  0  0  0  0  0  0  0  0  0  0
   19.7171  -19.8759  -12.7542 O   0  0  0  0  0  0  0  0  0  0  0  0
   19.1480  -22.0347  -16.5990 O   0  0  0  0  0  0  0  0  0  0  0  0
  2  3  2  0
  2  1  1  0
  4  2  1  0
  5  4  1  0
  6  5  1  0
  7  6  1  0
  8  7  1  0
  8  9  1  6
 10  8  1  0
 11 10  2  0
 13 12  1  1
 13 14  1  0
 15 13  1  0
 15 16  1  1
 16 10  1  0
 17 19  1  0
 17 15  1  0
 18 17  2  0
 20 19  1  0
 20 21  1  1
 21 22  1  0
 22 26  1  0
 23 22  2  0
 24 25  1  0
 24 20  1  0
 27 24  2  0
M  END
$$$$
