RVD.pdb
     RDKit          3D

 27 26  0  0  1  0  0  0  0  0999 V2000
   29.6056  -20.4530  -18.7833 N   0  0  0  0  0  0  0  0  0  0  0  0
   29.1381  -19.1424  -19.0989 C   0  0  0  0  0  0  0  0  0  0  0  0
   28.7025  -18.8618  -20.2703 N   0  0  0  0  0  0  0  0  0  0  0  0
   29.1395  -18.1056  -18.1230 N   0  0  0  0  0  0  0  0  0  0  0  0
   29.0392  -18.3651  -16.7118 C   0  0  0  0  0  0  0  0  0  0  0  0
   27.6212  -18.1128  -16.1855 C   0  0  0  0  0  0  0  0  0  0  0  0
   26.9775  -19.4661  -16.0806 C   0  0  0  0  0  0  0  0  0  0  0  0
   27.5024  -20.3080  -14.9361 C   0  0  2  0  0  0  0  0  0  0  0  0
   28.4097  -21.2907  -15.5469 N   0  0  0  0  0  0  0  0  0  0  0  0
   26.3734  -21.0608  -14.3511 C   0  0  0  0  0  0  0  0  0  0  0  0
   25.8834  -22.1012  -14.8495 O   0  0  0  0  0  0  0  0  0  0  0  0
   28.3038  -17.9535  -20.5709 C   0  0  0  0  0  0  0  0  0  0  0  0
   26.5330  -21.5980  -10.7429 C   0  0  2  0  0  0  0  0  0  0  0  0
   25.1061  -21.2635  -11.0025 C   0  0  0  0  0  0  0  0  0  0  0  0
   24.8662  -19.8446  -10.5465 C   0  0  2  0  0  0  0  0  0  0  0  0
   24.7633  -21.3955  -12.4778 N   0  0  0  0  0  0  0  0  0  0  0  0
   25.7917  -20.5956  -13.1504 C   0  0  0  0  0  0  0  0  0  0  0  0
   23.4261  -20.9503  -12.8315 O   0  0  0  0  0  0  0  0  0  0  0  0
   23.2354  -19.6950  -12.9946 N   0  0  0  0  0  0  0  0  0  0  0  0
   22.2803  -21.7525  -13.0256 C   0  0  1  0  0  0  0  0  0  0  0  0
   20.9910  -21.1730  -13.3991 C   0  0  0  0  0  0  0  0  0  0  0  0
   20.2479  -22.0952  -14.3627 C   0  0  0  0  0  0  0  0  0  0  0  0
   18.8939  -21.5858  -14.6540 O   0  0  0  0  0  0  0  0  0  0  0  0
   17.8379  -22.0420  -14.1526 C   0  0  0  0  0  0  0  0  0  0  0  0
   20.1573  -21.0870  -12.1843 O   0  0  0  0  0  0  0  0  0  0  0  0
   19.1602  -20.1398  -11.9896 O   0  0  0  0  0  0  0  0  0  0  0  0
   18.7138  -20.5144  -15.5506 O   0  0  0  0  0  0  0  0  0  0  0  0
  2  3  2  0
  2  1  1  0
  4  2  1  0
  5  4  1  0
  6  5  1  0
  7  6  1  0
  8  7  1  0
  8  9  1  6
 10  8  1  0
 11 10  2  0
 13 12  1  1
 13 14  1  0
 15 13  1  0
 15 16  1  6
 16 10  1  0
 17 19  1  0
 17 15  1  0
 18 17  2  0
 20 19  1  0
 20 21  1  1
 21 22  1  0
 22 26  1  0
 23 22  2  0
 24 25  1  0
 24 20  1  0
 27 24  2  0
M  END
$$$$
