RVD.pdb
     RDKit          3D

 27 26  0  0  1  0  0  0  0  0999 V2000
   21.7993  -15.4833  -17.3634 N   0  0  0  0  0  0  0  0  0  0  0  0
   20.5489  -15.9739  -17.8446 C   0  0  0  0  0  0  0  0  0  0  0  0
   20.4495  -17.1496  -18.3431 N   0  0  0  0  0  0  0  0  0  0  0  0
   19.3724  -15.1741  -17.7853 N   0  0  0  0  0  0  0  0  0  0  0  0
   19.3255  -13.9081  -17.1041 C   0  0  0  0  0  0  0  0  0  0  0  0
   17.9244  -13.2869  -17.1521 C   0  0  0  0  0  0  0  0  0  0  0  0
   18.0249  -11.9934  -16.3946 C   0  0  0  0  0  0  0  0  0  0  0  0
   17.0586  -11.8859  -15.2332 C   0  0  2  0  0  0  0  0  0  0  0  0
   15.7433  -12.2619  -15.7723 N   0  0  0  0  0  0  0  0  0  0  0  0
   16.9735  -10.4688  -14.8232 C   0  0  0  0  0  0  0  0  0  0  0  0
   16.3581   -9.5836  -15.4623 O   0  0  0  0  0  0  0  0  0  0  0  0
   19.6088  -17.5492  -18.7991 C   0  0  0  0  0  0  0  0  0  0  0  0
   15.5999   -9.4179  -11.8085 C   0  0  2  0  0  0  0  0  0  0  0  0
   16.9400   -8.7706  -11.7916 C   0  0  0  0  0  0  0  0  0  0  0  0
   17.8497   -9.5976  -10.9157 C   0  0  2  0  0  0  0  0  0  0  0  0
   17.5257   -8.6676  -13.1909 N   0  0  0  0  0  0  0  0  0  0  0  0
   17.6212  -10.0617  -13.6352 C   0  0  0  0  0  0  0  0  0  0  0  0
   18.8128   -7.9968  -13.2613 O   0  0  0  0  0  0  0  0  0  0  0  0
   19.8570   -8.6680  -12.9481 N   0  0  0  0  0  0  0  0  0  0  0  0
   19.0618   -6.6609  -13.6452 C   0  0  1  0  0  0  0  0  0  0  0  0
   20.4185   -6.1195  -13.7076 C   0  0  0  0  0  0  0  0  0  0  0  0
   21.0281   -6.3589  -15.0867 C   0  0  0  0  0  0  0  0  0  0  0  0
   22.4091   -5.8437  -15.1581 O   0  0  0  0  0  0  0  0  0  0  0  0
   23.0278   -5.3279  -14.1959 C   0  0  0  0  0  0  0  0  0  0  0  0
   20.3364   -4.6553  -13.5410 O   0  0  0  0  0  0  0  0  0  0  0  0
   21.3720   -3.8677  -13.0547 O   0  0  0  0  0  0  0  0  0  0  0  0
   23.1319   -5.9087  -16.3655 O   0  0  0  0  0  0  0  0  0  0  0  0
  2  3  2  0
  2  1  1  0
  4  2  1  0
  5  4  1  0
  6  5  1  0
  7  6  1  0
  8  7  1  0
  8  9  1  6
 10  8  1  0
 11 10  2  0
 13 12  1  1
 13 14  1  0
 15 13  1  0
 15 16  1  6
 16 10  1  0
 17 19  1  0
 17 15  1  0
 18 17  2  0
 20 19  1  0
 20 21  1  1
 21 22  1  0
 22 26  1  0
 23 22  2  0
 24 25  1  0
 24 20  1  0
 27 24  2  0
M  END
$$$$
