RVD.pdb
     RDKit          3D

 27 26  0  0  1  0  0  0  0  0999 V2000
   26.6704  -22.6476  -15.3556 N   0  0  0  0  0  0  0  0  0  0  0  0
   27.2584  -21.7307  -16.2773 C   0  0  0  0  0  0  0  0  0  0  0  0
   28.3810  -21.9879  -16.8379 N   0  0  0  0  0  0  0  0  0  0  0  0
   26.6167  -20.5024  -16.6042 N   0  0  0  0  0  0  0  0  0  0  0  0
   25.2106  -20.2800  -16.3982 C   0  0  0  0  0  0  0  0  0  0  0  0
   24.4332  -21.5984  -16.3031 C   0  0  0  0  0  0  0  0  0  0  0  0
   23.8434  -21.6260  -14.9217 C   0  0  0  0  0  0  0  0  0  0  0  0
   22.3432  -21.8339  -14.8993 C   0  0  2  0  0  0  0  0  0  0  0  0
   21.7564  -20.5519  -15.3164 N   0  0  0  0  0  0  0  0  0  0  0  0
   21.9234  -22.0724  -13.5026 C   0  0  0  0  0  0  0  0  0  0  0  0
   22.3959  -22.9693  -12.7658 O   0  0  0  0  0  0  0  0  0  0  0  0
   28.8869  -21.3715  -17.5000 C   0  0  0  0  0  0  0  0  0  0  0  0
   19.6804  -19.9769   -9.6928 C   0  0  2  0  0  0  0  0  0  0  0  0
   20.2332  -19.9924  -11.0746 C   0  0  0  0  0  0  0  0  0  0  0  0
   21.4899  -19.1561  -11.0867 C   0  0  1  0  0  0  0  0  0  0  0  0
   20.5514  -21.4074  -11.5307 N   0  0  0  0  0  0  0  0  0  0  0  0
   20.9244  -21.2470  -12.9395 C   0  0  0  0  0  0  0  0  0  0  0  0
   19.4608  -22.3547  -11.3729 O   0  0  0  0  0  0  0  0  0  0  0  0
   18.4405  -22.2271  -12.1354 N   0  0  0  0  0  0  0  0  0  0  0  0
   19.3859  -23.4293  -10.4599 C   0  0  1  0  0  0  0  0  0  0  0  0
   18.1802  -24.2462  -10.3320 C   0  0  0  0  0  0  0  0  0  0  0  0
   18.4702  -25.5064   -9.5204 C   0  0  0  0  0  0  0  0  0  0  0  0
   17.2625  -26.3430   -9.3812 O   0  0  0  0  0  0  0  0  0  0  0  0
   16.1472  -26.0744   -9.8897 C   0  0  0  0  0  0  0  0  0  0  0  0
   17.1848  -23.4776   -9.5595 O   0  0  0  0  0  0  0  0  0  0  0  0
   15.8384  -23.3935   -9.8902 O   0  0  0  0  0  0  0  0  0  0  0  0
   17.3059  -27.5376   -8.6359 O   0  0  0  0  0  0  0  0  0  0  0  0
  2  3  2  0
  2  1  1  0
  4  2  1  0
  5  4  1  0
  6  5  1  0
  7  6  1  0
  8  7  1  0
  8  9  1  1
 10  8  1  0
 11 10  2  0
 13 12  1  6
 13 14  1  0
 15 13  1  0
 15 16  1  6
 16 10  1  0
 17 19  1  0
 17 15  1  0
 18 17  2  0
 20 19  1  0
 20 21  1  1
 21 22  1  0
 22 26  1  0
 23 22  2  0
 24 25  1  0
 24 20  1  0
 27 24  2  0
M  END
$$$$
