RVD.pdb
     RDKit          3D

 27 26  0  0  1  0  0  0  0  0999 V2000
   15.7917  -23.7744   -5.9091 N   0  0  0  0  0  0  0  0  0  0  0  0
   16.4700  -24.6164   -4.9780 C   0  0  0  0  0  0  0  0  0  0  0  0
   15.9741  -24.8543   -3.8212 N   0  0  0  0  0  0  0  0  0  0  0  0
   17.7176  -25.2197   -5.3046 N   0  0  0  0  0  0  0  0  0  0  0  0
   18.3702  -25.0214   -6.5710 C   0  0  0  0  0  0  0  0  0  0  0  0
   17.7688  -25.9093   -7.6671 C   0  0  0  0  0  0  0  0  0  0  0  0
   18.8612  -26.1046   -8.6797 C   0  0  0  0  0  0  0  0  0  0  0  0
   18.4785  -27.0169   -9.8266 C   0  0  2  0  0  0  0  0  0  0  0  0
   19.1905  -28.2806   -9.5860 N   0  0  0  0  0  0  0  0  0  0  0  0
   19.0143  -26.4455  -11.0796 C   0  0  0  0  0  0  0  0  0  0  0  0
   20.1897  -26.6061  -11.4840 O   0  0  0  0  0  0  0  0  0  0  0  0
   16.3950  -25.4560   -3.0897 C   0  0  0  0  0  0  0  0  0  0  0  0
   17.9482  -25.1737  -15.5517 C   0  0  2  0  0  0  0  0  0  0  0  0
   17.7338  -25.7623  -14.2016 C   0  0  0  0  0  0  0  0  0  0  0  0
   18.0006  -27.2456  -14.2885 C   0  0  1  0  0  0  0  0  0  0  0  0
   18.6541  -25.1330  -13.1679 N   0  0  0  0  0  0  0  0  0  0  0  0
   18.1634  -25.6627  -11.8918 C   0  0  0  0  0  0  0  0  0  0  0  0
   18.6663  -23.6799  -13.1721 O   0  0  0  0  0  0  0  0  0  0  0  0
   17.6637  -23.0702  -12.6604 N   0  0  0  0  0  0  0  0  0  0  0  0
   19.6755  -22.8339  -13.6818 C   0  0  1  0  0  0  0  0  0  0  0  0
   19.5532  -21.3778  -13.6356 C   0  0  0  0  0  0  0  0  0  0  0  0
   20.8431  -20.7161  -14.1146 C   0  0  0  0  0  0  0  0  0  0  0  0
   20.7637  -19.2467  -14.0046 O   0  0  0  0  0  0  0  0  0  0  0  0
   19.8011  -18.6211  -13.4979 C   0  0  0  0  0  0  0  0  0  0  0  0
   18.5031  -20.9748  -14.5912 O   0  0  0  0  0  0  0  0  0  0  0  0
   17.4278  -20.1574  -14.2675 O   0  0  0  0  0  0  0  0  0  0  0  0
   21.8124  -18.4389  -14.4861 O   0  0  0  0  0  0  0  0  0  0  0  0
  2  3  2  0
  2  1  1  0
  4  2  1  0
  5  4  1  0
  6  5  1  0
  7  6  1  0
  8  7  1  0
  8  9  1  1
 10  8  1  0
 11 10  2  0
 13 12  1  6
 13 14  1  0
 15 13  1  0
 15 16  1  1
 16 10  1  0
 17 19  1  0
 17 15  1  0
 18 17  2  0
 20 19  1  0
 20 21  1  6
 21 22  1  0
 22 26  1  0
 23 22  2  0
 24 25  1  0
 24 20  1  0
 27 24  2  0
M  END
$$$$
