RVD.pdb
     RDKit          3D

 27 26  0  0  1  0  0  0  0  0999 V2000
   26.7493  -26.4843  -17.0354 N   0  0  0  0  0  0  0  0  0  0  0  0
   25.3794  -26.1307  -17.2206 C   0  0  0  0  0  0  0  0  0  0  0  0
   24.6069  -26.8451  -17.9509 N   0  0  0  0  0  0  0  0  0  0  0  0
   24.8272  -24.9746  -16.5995 N   0  0  0  0  0  0  0  0  0  0  0  0
   25.5850  -24.1283  -15.7172 C   0  0  0  0  0  0  0  0  0  0  0  0
   25.1732  -24.3183  -14.2523 C   0  0  0  0  0  0  0  0  0  0  0  0
   24.1227  -23.2781  -13.9852 C   0  0  0  0  0  0  0  0  0  0  0  0
   24.6572  -21.8613  -13.9506 C   0  0  2  0  0  0  0  0  0  0  0  0
   25.3871  -21.7409  -12.6799 N   0  0  0  0  0  0  0  0  0  0  0  0
   23.5122  -20.9293  -13.8864 C   0  0  0  0  0  0  0  0  0  0  0  0
   23.0468  -20.4532  -12.8246 O   0  0  0  0  0  0  0  0  0  0  0  0
   23.5953  -26.6830  -18.1083 C   0  0  0  0  0  0  0  0  0  0  0  0
   21.2552  -17.5282  -16.5007 C   0  0  1  0  0  0  0  0  0  0  0  0
   22.2822  -18.5725  -16.2366 C   0  0  0  0  0  0  0  0  0  0  0  0
   23.5861  -17.8797  -15.9223 C   0  0  1  0  0  0  0  0  0  0  0  0
   21.8804  -19.4665  -15.0743 N   0  0  0  0  0  0  0  0  0  0  0  0
   22.8846  -20.5348  -15.0893 C   0  0  0  0  0  0  0  0  0  0  0  0
   20.5321  -20.0016  -15.1592 O   0  0  0  0  0  0  0  0  0  0  0  0
   20.2501  -20.7627  -16.1492 N   0  0  0  0  0  0  0  0  0  0  0  0
   19.4661  -19.7825  -14.2594 C   0  0  1  0  0  0  0  0  0  0  0  0
   18.1451  -20.3705  -14.4755 C   0  0  0  0  0  0  0  0  0  0  0  0
   17.2839  -20.2288  -13.2227 C   0  0  0  0  0  0  0  0  0  0  0  0
   15.9584  -20.8493  -13.4115 O   0  0  0  0  0  0  0  0  0  0  0  0
   15.5714  -21.3940  -14.4737 C   0  0  0  0  0  0  0  0  0  0  0  0
   17.4658  -19.5970  -15.5331 O   0  0  0  0  0  0  0  0  0  0  0  0
   17.4296  -18.2093  -15.5817 O   0  0  0  0  0  0  0  0  0  0  0  0
   15.0208  -20.8597  -12.3602 O   0  0  0  0  0  0  0  0  0  0  0  0
  2  3  2  0
  2  1  1  0
  4  2  1  0
  5  4  1  0
  6  5  1  0
  7  6  1  0
  8  7  1  0
  8  9  1  1
 10  8  1  0
 11 10  2  0
 13 12  1  6
 13 14  1  0
 15 13  1  0
 15 16  1  6
 16 10  1  0
 17 19  1  0
 17 15  1  0
 18 17  2  0
 20 19  1  0
 20 21  1  6
 21 22  1  0
 22 26  1  0
 23 22  2  0
 24 25  1  0
 24 20  1  0
 27 24  2  0
M  END
$$$$
