RVD.pdb
     RDKit          3D

 27 26  0  0  1  0  0  0  0  0999 V2000
   24.1442  -20.7628   -9.3502 N   0  0  0  0  0  0  0  0  0  0  0  0
   25.5707  -20.7320   -9.3502 C   0  0  0  0  0  0  0  0  0  0  0  0
   26.2133  -19.9446   -8.5706 N   0  0  0  0  0  0  0  0  0  0  0  0
   26.3251  -21.5751  -10.2146 N   0  0  0  0  0  0  0  0  0  0  0  0
   26.2725  -21.4669  -11.6479 C   0  0  0  0  0  0  0  0  0  0  0  0
   26.6103  -20.0492  -12.1251 C   0  0  0  0  0  0  0  0  0  0  0  0
   26.2478  -20.0115  -13.5825 C   0  0  0  0  0  0  0  0  0  0  0  0
   26.6703  -21.2460  -14.3518 C   0  0  2  0  0  0  0  0  0  0  0  0
   27.8786  -20.8590  -15.0949 N   0  0  0  0  0  0  0  0  0  0  0  0
   25.6254  -21.5577  -15.3491 C   0  0  0  0  0  0  0  0  0  0  0  0
   25.2886  -20.7926  -16.2829 O   0  0  0  0  0  0  0  0  0  0  0  0
   27.2436  -19.8438   -8.5204 C   0  0  0  0  0  0  0  0  0  0  0  0
   23.1267  -25.2037  -17.4068 C   0  0  2  0  0  0  0  0  0  0  0  0
   24.1550  -24.6364  -16.4925 C   0  0  0  0  0  0  0  0  0  0  0  0
   25.5126  -24.8716  -17.1093 C   0  0  1  0  0  0  0  0  0  0  0  0
   23.9409  -23.1478  -16.2699 N   0  0  0  0  0  0  0  0  0  0  0  0
   24.9476  -22.7945  -15.2641 C   0  0  0  0  0  0  0  0  0  0  0  0
   22.6027  -22.7864  -15.8340 O   0  0  0  0  0  0  0  0  0  0  0  0
   22.3578  -22.7969  -14.5775 N   0  0  0  0  0  0  0  0  0  0  0  0
   21.5098  -22.4122  -16.6462 C   0  0  1  0  0  0  0  0  0  0  0  0
   20.2274  -22.0098  -16.0710 C   0  0  0  0  0  0  0  0  0  0  0  0
   20.2226  -20.5138  -15.7659 C   0  0  0  0  0  0  0  0  0  0  0  0
   18.9015  -20.0710  -15.2797 O   0  0  0  0  0  0  0  0  0  0  0  0
   17.9222  -20.8312  -15.0857 C   0  0  0  0  0  0  0  0  0  0  0  0
   19.1799  -22.2271  -17.0878 O   0  0  0  0  0  0  0  0  0  0  0  0
   18.0612  -23.0275  -16.8947 O   0  0  0  0  0  0  0  0  0  0  0  0
   18.6657  -18.7111  -14.9979 O   0  0  0  0  0  0  0  0  0  0  0  0
  2  3  2  0
  2  1  1  0
  4  2  1  0
  5  4  1  0
  6  5  1  0
  7  6  1  0
  8  7  1  0
  8  9  1  6
 10  8  1  0
 11 10  2  0
 13 12  1  1
 13 14  1  0
 15 13  1  0
 15 16  1  1
 16 10  1  0
 17 19  1  0
 17 15  1  0
 18 17  2  0
 20 19  1  0
 20 21  1  6
 21 22  1  0
 22 26  1  0
 23 22  2  0
 24 25  1  0
 24 20  1  0
 27 24  2  0
M  END
$$$$
