RVD.pdb
     RDKit          3D

 27 26  0  0  1  0  0  0  0  0999 V2000
   17.5589  -32.1485  -13.9274 N   0  0  0  0  0  0  0  0  0  0  0  0
   18.3176  -31.7076  -15.0525 C   0  0  0  0  0  0  0  0  0  0  0  0
   18.1477  -32.2317  -16.2088 N   0  0  0  0  0  0  0  0  0  0  0  0
   19.2859  -30.6714  -14.9268 N   0  0  0  0  0  0  0  0  0  0  0  0
   19.5507  -30.0004  -13.6823 C   0  0  0  0  0  0  0  0  0  0  0  0
   18.2720  -29.4238  -13.0626 C   0  0  0  0  0  0  0  0  0  0  0  0
   18.6999  -28.7644  -11.7824 C   0  0  0  0  0  0  0  0  0  0  0  0
   19.5103  -27.5009  -11.9842 C   0  0  2  0  0  0  0  0  0  0  0  0
   20.8673  -27.9482  -12.3311 N   0  0  0  0  0  0  0  0  0  0  0  0
   19.6018  -26.7906  -10.6916 C   0  0  0  0  0  0  0  0  0  0  0  0
   20.5338  -26.9403   -9.8671 O   0  0  0  0  0  0  0  0  0  0  0  0
   18.6750  -31.9943  -17.0690 C   0  0  0  0  0  0  0  0  0  0  0  0
   18.4896  -22.5937   -8.6340 C   0  0  2  0  0  0  0  0  0  0  0  0
   18.5045  -23.6104   -9.7209 C   0  0  0  0  0  0  0  0  0  0  0  0
   19.5994  -23.2424  -10.6928 C   0  0  1  0  0  0  0  0  0  0  0  0
   18.7501  -25.0071   -9.1727 N   0  0  0  0  0  0  0  0  0  0  0  0
   18.5823  -25.8775  -10.3406 C   0  0  0  0  0  0  0  0  0  0  0  0
   17.8662  -25.3961   -8.0869 O   0  0  0  0  0  0  0  0  0  0  0  0
   16.6226  -25.5468   -8.3506 N   0  0  0  0  0  0  0  0  0  0  0  0
   18.2187  -25.6378   -6.7410 C   0  0  1  0  0  0  0  0  0  0  0  0
   17.2197  -26.0074   -5.7396 C   0  0  0  0  0  0  0  0  0  0  0  0
   17.8970  -26.5124   -4.4679 C   0  0  0  0  0  0  0  0  0  0  0  0
   18.2939  -27.9277   -4.5988 O   0  0  0  0  0  0  0  0  0  0  0  0
   18.0873  -28.6346   -5.6149 C   0  0  0  0  0  0  0  0  0  0  0  0
   16.4802  -24.7887   -5.3574 O   0  0  0  0  0  0  0  0  0  0  0  0
   15.1289  -24.7660   -5.0370 O   0  0  0  0  0  0  0  0  0  0  0  0
   18.9531  -28.5832   -3.5405 O   0  0  0  0  0  0  0  0  0  0  0  0
  2  3  2  0
  2  1  1  0
  4  2  1  0
  5  4  1  0
  6  5  1  0
  7  6  1  0
  8  7  1  0
  8  9  1  1
 10  8  1  0
 11 10  2  0
 13 12  1  6
 13 14  1  0
 15 13  1  0
 15 16  1  6
 16 10  1  0
 17 19  1  0
 17 15  1  0
 18 17  2  0
 20 19  1  0
 20 21  1  1
 21 22  1  0
 22 26  1  0
 23 22  2  0
 24 25  1  0
 24 20  1  0
 27 24  2  0
M  END
$$$$
