RVD.pdb
     RDKit          3D

 27 26  0  0  1  0  0  0  0  0999 V2000
   16.3273  -12.8982  -17.6912 N   0  0  0  0  0  0  0  0  0  0  0  0
   15.3948  -12.2517  -18.5564 C   0  0  0  0  0  0  0  0  0  0  0  0
   14.6569  -12.9290  -19.3547 N   0  0  0  0  0  0  0  0  0  0  0  0
   15.2537  -10.8349  -18.5595 N   0  0  0  0  0  0  0  0  0  0  0  0
   15.9936   -9.9772  -17.6731 C   0  0  0  0  0  0  0  0  0  0  0  0
   15.3541   -9.9085  -16.2810 C   0  0  0  0  0  0  0  0  0  0  0  0
   16.1612   -8.9032  -15.5098 C   0  0  0  0  0  0  0  0  0  0  0  0
   17.3423   -9.5001  -14.7730 C   0  0  2  0  0  0  0  0  0  0  0  0
   16.7738  -10.2167  -13.6218 N   0  0  0  0  0  0  0  0  0  0  0  0
   18.1669   -8.3972  -14.2368 C   0  0  0  0  0  0  0  0  0  0  0  0
   17.9468   -7.8140  -13.1496 O   0  0  0  0  0  0  0  0  0  0  0  0
   13.9442  -12.5433  -20.0010 C   0  0  0  0  0  0  0  0  0  0  0  0
   22.6025   -6.4362  -14.3828 C   0  0  1  0  0  0  0  0  0  0  0  0
   21.5624   -7.4530  -14.6982 C   0  0  0  0  0  0  0  0  0  0  0  0
   21.8169   -8.6671  -13.8381 C   0  0  1  0  0  0  0  0  0  0  0  0
   20.1638   -6.9184  -14.4341 N   0  0  0  0  0  0  0  0  0  0  0  0
   19.2825   -7.9542  -14.9822 C   0  0  0  0  0  0  0  0  0  0  0  0
   19.8901   -5.6191  -15.0244 O   0  0  0  0  0  0  0  0  0  0  0  0
   19.8649   -5.5338  -16.3015 N   0  0  0  0  0  0  0  0  0  0  0  0
   19.6389   -4.4065  -14.3458 C   0  0  1  0  0  0  0  0  0  0  0  0
   19.3230   -3.1741  -15.0661 C   0  0  0  0  0  0  0  0  0  0  0  0
   18.0673   -2.5238  -14.4906 C   0  0  0  0  0  0  0  0  0  0  0  0
   17.7561   -1.2572  -15.1810 O   0  0  0  0  0  0  0  0  0  0  0  0
   18.4020   -0.7990  -16.1544 C   0  0  0  0  0  0  0  0  0  0  0  0
   20.4236   -2.2166  -14.8419 O   0  0  0  0  0  0  0  0  0  0  0  0
   20.8103   -1.2463  -15.7575 O   0  0  0  0  0  0  0  0  0  0  0  0
   16.6697   -0.4652  -14.7604 O   0  0  0  0  0  0  0  0  0  0  0  0
  2  3  2  0
  2  1  1  0
  4  2  1  0
  5  4  1  0
  6  5  1  0
  7  6  1  0
  8  7  1  0
  8  9  1  1
 10  8  1  0
 11 10  2  0
 13 12  1  6
 13 14  1  0
 15 13  1  0
 15 16  1  6
 16 10  1  0
 17 19  1  0
 17 15  1  0
 18 17  2  0
 20 19  1  0
 20 21  1  6
 21 22  1  0
 22 26  1  0
 23 22  2  0
 24 25  1  0
 24 20  1  0
 27 24  2  0
M  END
$$$$
