RVD.pdb
     RDKit          3D

 27 26  0  0  1  0  0  0  0  0999 V2000
   19.5210  -21.2597  -20.8966 N   0  0  0  0  0  0  0  0  0  0  0  0
   19.1613  -22.1888  -19.8752 C   0  0  0  0  0  0  0  0  0  0  0  0
   18.0421  -22.8104  -19.9135 N   0  0  0  0  0  0  0  0  0  0  0  0
   20.0340  -22.4555  -18.7823 N   0  0  0  0  0  0  0  0  0  0  0  0
   21.2743  -21.7535  -18.5875 C   0  0  0  0  0  0  0  0  0  0  0  0
   21.0931  -20.5093  -17.7097 C   0  0  0  0  0  0  0  0  0  0  0  0
   21.0104  -21.0145  -16.2973 C   0  0  0  0  0  0  0  0  0  0  0  0
   22.0251  -20.3900  -15.3620 C   0  0  2  0  0  0  0  0  0  0  0  0
   23.3420  -20.8053  -15.8671 N   0  0  0  0  0  0  0  0  0  0  0  0
   21.8614  -20.9921  -14.0225 C   0  0  0  0  0  0  0  0  0  0  0  0
   22.6321  -21.8518  -13.5349 O   0  0  0  0  0  0  0  0  0  0  0  0
   17.7088  -23.5087  -19.2238 C   0  0  0  0  0  0  0  0  0  0  0  0
   20.1824  -19.9786   -9.6185 C   0  0  2  0  0  0  0  0  0  0  0  0
   20.4711  -19.7197  -11.0554 C   0  0  0  0  0  0  0  0  0  0  0  0
   21.7074  -18.8573  -11.1377 C   0  0  1  0  0  0  0  0  0  0  0  0
   20.6944  -21.0147  -11.8201 N   0  0  0  0  0  0  0  0  0  0  0  0
   20.7710  -20.5871  -13.2204 C   0  0  0  0  0  0  0  0  0  0  0  0
   19.6624  -22.0191  -11.6254 O   0  0  0  0  0  0  0  0  0  0  0  0
   18.4910  -21.7710  -12.0783 N   0  0  0  0  0  0  0  0  0  0  0  0
   19.7956  -23.2699  -10.9837 C   0  0  1  0  0  0  0  0  0  0  0  0
   18.6590  -24.1751  -10.8216 C   0  0  0  0  0  0  0  0  0  0  0  0
   19.0727  -25.4205  -10.0415 C   0  0  0  0  0  0  0  0  0  0  0  0
   18.2348  -26.5806  -10.4017 O   0  0  0  0  0  0  0  0  0  0  0  0
   17.2616  -26.5384  -11.1927 C   0  0  0  0  0  0  0  0  0  0  0  0
   17.6417  -23.4917   -9.9991 O   0  0  0  0  0  0  0  0  0  0  0  0
   16.2888  -23.4489  -10.3107 O   0  0  0  0  0  0  0  0  0  0  0  0
   18.4991  -27.8490   -9.8487 O   0  0  0  0  0  0  0  0  0  0  0  0
  2  3  2  0
  2  1  1  0
  4  2  1  0
  5  4  1  0
  6  5  1  0
  7  6  1  0
  8  7  1  0
  8  9  1  6
 10  8  1  0
 11 10  2  0
 13 12  1  1
 13 14  1  0
 15 13  1  0
 15 16  1  6
 16 10  1  0
 17 19  1  0
 17 15  1  0
 18 17  2  0
 20 19  1  0
 20 21  1  1
 21 22  1  0
 22 26  1  0
 23 22  2  0
 24 25  1  0
 24 20  1  0
 27 24  2  0
M  END
$$$$
