FLW.pdb
     RDKit          3D

 34 36  0  0  1  0  0  0  0  0999 V2000
    6.2998  -18.0500   19.6613 N   0  0  0  0  0  0  0  0  0  0  0  0
    7.0163  -16.8809   20.1637 C   0  0  1  0  0  0  0  0  0  0  0  0
    6.4490  -15.6500   19.4943 C   0  0  0  0  0  0  0  0  0  0  0  0
    7.2211  -14.4255   19.7344 C   0  0  0  0  0  0  0  0  0  0  0  0
    8.2873  -14.1139   18.8887 C   0  0  0  0  0  0  0  0  0  0  0  0
    9.0204  -12.9731   19.0945 C   0  0  0  0  0  0  0  0  0  0  0  0
    8.7007  -12.1438   20.1320 C   0  0  0  0  0  0  0  0  0  0  0  0
    7.6605  -12.4114   20.9881 C   0  0  0  0  0  0  0  0  0  0  0  0
    6.9311  -13.5652   20.7676 C   0  0  0  0  0  0  0  0  0  0  0  0
    6.9315  -16.7962   21.6268 C   0  0  0  0  0  0  0  0  0  0  0  0
    6.2093  -15.9205   22.1644 O   0  0  0  0  0  0  0  0  0  0  0  0
    6.7877  -21.2028   24.4002 C   0  0  0  0  0  0  0  0  0  0  0  0
    6.7752  -19.8425   23.7795 C   0  0  1  0  0  0  0  0  0  0  0  0
    5.2927  -19.5095   23.5192 C   0  0  0  0  0  0  0  0  0  0  0  0
    7.2999  -18.7503   24.6383 C   0  0  0  0  0  0  0  0  0  0  0  0
    7.7212  -17.5175   23.9303 C   0  0  2  0  0  0  0  0  0  0  0  0
    7.6388  -17.6712   22.4922 N   0  0  0  0  0  0  0  0  0  0  0  0
    9.0516  -17.0123   24.2959 C   0  0  0  0  0  0  0  0  0  0  0  0
    9.7068  -16.3274   23.4650 O   0  0  0  0  0  0  0  0  0  0  0  0
    9.6141  -17.2792   25.5627 N   0  0  0  0  0  0  0  0  0  0  0  0
   10.9392  -16.7215   25.8619 C   0  0  1  0  0  0  0  0  0  0  0  0
   10.8729  -15.2288   25.7767 C   0  0  0  0  0  0  0  0  0  0  0  0
    9.8331  -14.5923   26.5584 C   0  0  0  0  0  0  0  0  0  0  0  0
    9.7594  -14.5913   27.9636 C   0  0  0  0  0  0  0  0  0  0  0  0
    8.6519  -13.9477   28.3587 N   0  0  0  0  0  0  0  0  0  0  0  0
    8.0025  -13.5276   27.2359 C   0  0  0  0  0  0  0  0  0  0  0  0
    6.8237  -12.8056   27.1118 C   0  0  0  0  0  0  0  0  0  0  0  0
    6.3418  -12.4598   25.8745 C   0  0  0  0  0  0  0  0  0  0  0  0
    7.0522  -12.8436   24.7423 C   0  0  0  0  0  0  0  0  0  0  0  0
    8.2181  -13.5588   24.8716 C   0  0  0  0  0  0  0  0  0  0  0  0
    8.7123  -13.9136   26.1221 C   0  0  0  0  0  0  0  0  0  0  0  0
   11.3764  -17.1921   27.1791 C   0  0  0  0  0  0  0  0  0  0  0  0
   10.5395  -18.0686   27.8875 O   0  0  0  0  0  0  0  0  0  0  0  0
   12.4472  -16.8828   27.7486 O   0  0  0  0  0  0  0  0  0  0  0  0
  2  1  1  6
  3  2  1  0
  3  4  1  0
  4  5  2  0
  5  6  1  0
  7  6  2  0
  8  7  1  0
  9  8  2  0
  9  4  1  0
 10 11  2  0
 10  2  1  0
 13 14  1  1
 13 12  1  0
 15 13  1  0
 16 15  1  1
 16 17  1  0
 17 10  1  0
 18 16  1  0
 19 18  2  0
 20 18  1  0
 21 22  1  1
 21 20  1  0
 22 23  1  0
 23 31  1  0
 23 24  2  0
 24 25  1  0
 26 25  1  0
 26 27  2  0
 28 27  1  0
 29 28  2  0
 30 31  2  0
 30 29  1  0
 31 26  1  0
 32 21  1  0
 33 32  1  0
 34 32  2  0
M  END
$$$$
