FLW.pdb
     RDKit          3D

 34 36  0  0  1  0  0  0  0  0999 V2000
    7.9783  -19.6077   19.3177 N   0  0  0  0  0  0  0  0  0  0  0  0
    7.6220  -18.9853   20.5898 C   0  0  1  0  0  0  0  0  0  0  0  0
    7.5151  -20.0696   21.6376 C   0  0  0  0  0  0  0  0  0  0  0  0
    7.1050  -19.5877   22.9615 C   0  0  0  0  0  0  0  0  0  0  0  0
    7.9925  -19.6984   24.0335 C   0  0  0  0  0  0  0  0  0  0  0  0
    7.6295  -19.2522   25.2786 C   0  0  0  0  0  0  0  0  0  0  0  0
    6.3941  -18.6988   25.4631 C   0  0  0  0  0  0  0  0  0  0  0  0
    5.4899  -18.5703   24.4373 C   0  0  0  0  0  0  0  0  0  0  0  0
    5.8706  -19.0249   23.1882 C   0  0  0  0  0  0  0  0  0  0  0  0
    8.5969  -17.9546   20.9666 C   0  0  0  0  0  0  0  0  0  0  0  0
    9.8258  -18.1698   20.8227 O   0  0  0  0  0  0  0  0  0  0  0  0
    6.7690  -13.0028   19.6517 C   0  0  0  0  0  0  0  0  0  0  0  0
    7.6803  -14.1701   19.8587 C   0  0  1  0  0  0  0  0  0  0  0  0
    8.8683  -13.9549   18.9003 C   0  0  0  0  0  0  0  0  0  0  0  0
    8.2625  -14.2847   21.2202 C   0  0  0  0  0  0  0  0  0  0  0  0
    9.0543  -15.5104   21.4831 C   0  0  2  0  0  0  0  0  0  0  0  0
    8.2194  -16.6941   21.4993 N   0  0  0  0  0  0  0  0  0  0  0  0
    9.8774  -15.4719   22.6996 C   0  0  0  0  0  0  0  0  0  0  0  0
   10.7360  -14.5601   22.8411 O   0  0  0  0  0  0  0  0  0  0  0  0
    9.7269  -16.4388   23.7170 N   0  0  0  0  0  0  0  0  0  0  0  0
   10.5291  -16.2881   24.9378 C   0  0  1  0  0  0  0  0  0  0  0  0
   10.1334  -15.0218   25.6305 C   0  0  0  0  0  0  0  0  0  0  0  0
    8.7161  -14.8427   25.8681 C   0  0  0  0  0  0  0  0  0  0  0  0
    7.7487  -15.8632   25.8154 C   0  0  0  0  0  0  0  0  0  0  0  0
    6.5330  -15.3472   26.0453 N   0  0  0  0  0  0  0  0  0  0  0  0
    6.6905  -14.0083   26.2485 C   0  0  0  0  0  0  0  0  0  0  0  0
    5.7413  -13.0385   26.5394 C   0  0  0  0  0  0  0  0  0  0  0  0
    6.1123  -11.7313   26.7307 C   0  0  0  0  0  0  0  0  0  0  0  0
    7.4564  -11.3896   26.6288 C   0  0  0  0  0  0  0  0  0  0  0  0
    8.3912  -12.3541   26.3400 C   0  0  0  0  0  0  0  0  0  0  0  0
    8.0228  -13.6806   26.1440 C   0  0  0  0  0  0  0  0  0  0  0  0
   10.3518  -17.4722   25.7828 C   0  0  0  0  0  0  0  0  0  0  0  0
    9.4787  -18.4807   25.3458 O   0  0  0  0  0  0  0  0  0  0  0  0
   10.9149  -17.6784   26.8815 O   0  0  0  0  0  0  0  0  0  0  0  0
  2  1  1  6
  3  2  1  0
  3  4  1  0
  4  5  2  0
  5  6  1  0
  7  6  2  0
  8  7  1  0
  9  8  2  0
  9  4  1  0
 10 11  2  0
 10  2  1  0
 13 14  1  6
 13 12  1  0
 15 13  1  0
 16 15  1  1
 16 17  1  0
 17 10  1  0
 18 16  1  0
 19 18  2  0
 20 18  1  0
 21 22  1  1
 21 20  1  0
 22 23  1  0
 23 31  1  0
 23 24  2  0
 24 25  1  0
 26 25  1  0
 26 27  2  0
 28 27  1  0
 29 28  2  0
 30 31  2  0
 30 29  1  0
 31 26  1  0
 32 21  1  0
 33 32  1  0
 34 32  2  0
M  END
$$$$
