FLW.pdb
     RDKit          3D

 34 36  0  0  1  0  0  0  0  0999 V2000
    7.3116  -20.7124   22.9272 N   0  0  0  0  0  0  0  0  0  0  0  0
    6.6965  -19.4082   23.1574 C   0  0  1  0  0  0  0  0  0  0  0  0
    6.5443  -19.2092   24.6481 C   0  0  0  0  0  0  0  0  0  0  0  0
    5.8866  -20.3241   25.3392 C   0  0  0  0  0  0  0  0  0  0  0  0
    6.3745  -20.7422   26.5787 C   0  0  0  0  0  0  0  0  0  0  0  0
    5.7729  -21.7810   27.2421 C   0  0  0  0  0  0  0  0  0  0  0  0
    4.6934  -22.4038   26.6825 C   0  0  0  0  0  0  0  0  0  0  0  0
    4.1806  -22.0255   25.4658 C   0  0  0  0  0  0  0  0  0  0  0  0
    4.7980  -20.9769   24.8094 C   0  0  0  0  0  0  0  0  0  0  0  0
    7.4844  -18.3345   22.5398 C   0  0  0  0  0  0  0  0  0  0  0  0
    8.6998  -18.5165   22.2810 O   0  0  0  0  0  0  0  0  0  0  0  0
    8.5331  -14.0046   19.5372 C   0  0  0  0  0  0  0  0  0  0  0  0
    7.6330  -13.6840   20.6874 C   0  0  1  0  0  0  0  0  0  0  0  0
    6.5679  -12.7165   20.1345 C   0  0  0  0  0  0  0  0  0  0  0  0
    6.8897  -14.8399   21.2504 C   0  0  0  0  0  0  0  0  0  0  0  0
    7.7174  -15.8903   21.8907 C   0  0  2  0  0  0  0  0  0  0  0  0
    6.9359  -17.0675   22.2098 N   0  0  0  0  0  0  0  0  0  0  0  0
    8.4634  -15.4574   23.0803 C   0  0  0  0  0  0  0  0  0  0  0  0
    8.3407  -14.2733   23.4947 O   0  0  0  0  0  0  0  0  0  0  0  0
    9.3185  -16.3427   23.7713 N   0  0  0  0  0  0  0  0  0  0  0  0
   10.1657  -15.7939   24.8379 C   0  0  1  0  0  0  0  0  0  0  0  0
    9.3955  -15.7885   26.1211 C   0  0  0  0  0  0  0  0  0  0  0  0
    8.1983  -14.9740   26.1412 C   0  0  0  0  0  0  0  0  0  0  0  0
    6.8827  -15.4618   26.0352 C   0  0  0  0  0  0  0  0  0  0  0  0
    6.0174  -14.4380   26.0490 N   0  0  0  0  0  0  0  0  0  0  0  0
    6.7455  -13.2909   26.1635 C   0  0  0  0  0  0  0  0  0  0  0  0
    6.3168  -11.9731   26.2382 C   0  0  0  0  0  0  0  0  0  0  0  0
    7.2208  -10.9497   26.3736 C   0  0  0  0  0  0  0  0  0  0  0  0
    8.5769  -11.2511   26.4351 C   0  0  0  0  0  0  0  0  0  0  0  0
    8.9951  -12.5577   26.3598 C   0  0  0  0  0  0  0  0  0  0  0  0
    8.0850  -13.6000   26.2217 C   0  0  0  0  0  0  0  0  0  0  0  0
   11.4016  -16.5765   24.9254 C   0  0  0  0  0  0  0  0  0  0  0  0
   12.3927  -16.1623   25.8290 O   0  0  0  0  0  0  0  0  0  0  0  0
   11.6674  -17.6019   24.2586 O   0  0  0  0  0  0  0  0  0  0  0  0
  2  1  1  1
  3  2  1  0
  3  4  1  0
  4  5  2  0
  5  6  1  0
  7  6  2  0
  8  7  1  0
  9  8  2  0
  9  4  1  0
 10 11  2  0
 10  2  1  0
 13 14  1  6
 13 12  1  0
 15 13  1  0
 16 15  1  1
 16 17  1  0
 17 10  1  0
 18 16  1  0
 19 18  2  0
 20 18  1  0
 21 22  1  1
 21 20  1  0
 22 23  1  0
 23 31  1  0
 23 24  2  0
 24 25  1  0
 26 25  1  0
 26 27  2  0
 28 27  1  0
 29 28  2  0
 30 31  2  0
 30 29  1  0
 31 26  1  0
 32 21  1  0
 33 32  1  0
 34 32  2  0
M  END
$$$$
