FLW.pdb
     RDKit          3D

 34 36  0  0  1  0  0  0  0  0999 V2000
   10.4897  -18.9225   18.4302 N   0  0  0  0  0  0  0  0  0  0  0  0
    9.5680  -18.6839   19.5374 C   0  0  1  0  0  0  0  0  0  0  0  0
    9.6065  -19.8832   20.4567 C   0  0  0  0  0  0  0  0  0  0  0  0
    9.1791  -21.1376   19.8265 C   0  0  0  0  0  0  0  0  0  0  0  0
   10.1045  -22.1703   19.6647 C   0  0  0  0  0  0  0  0  0  0  0  0
    9.7248  -23.3514   19.0799 C   0  0  0  0  0  0  0  0  0  0  0  0
    8.4356  -23.5109   18.6571 C   0  0  0  0  0  0  0  0  0  0  0  0
    7.4928  -22.5219   18.7962 C   0  0  0  0  0  0  0  0  0  0  0  0
    7.8909  -21.3371   19.3875 C   0  0  0  0  0  0  0  0  0  0  0  0
    9.9005  -17.4414   20.2449 C   0  0  0  0  0  0  0  0  0  0  0  0
   11.1014  -17.1409   20.4560 O   0  0  0  0  0  0  0  0  0  0  0  0
    6.1655  -13.2354   20.1596 C   0  0  0  0  0  0  0  0  0  0  0  0
    7.4825  -13.9418   20.1092 C   0  0  1  0  0  0  0  0  0  0  0  0
    8.4968  -12.9089   19.5795 C   0  0  0  0  0  0  0  0  0  0  0  0
    8.0054  -14.3998   21.4216 C   0  0  0  0  0  0  0  0  0  0  0  0
    9.2013  -15.2749   21.3707 C   0  0  2  0  0  0  0  0  0  0  0  0
    8.9148  -16.5356   20.7174 N   0  0  0  0  0  0  0  0  0  0  0  0
    9.8447  -15.5275   22.6673 C   0  0  0  0  0  0  0  0  0  0  0  0
   10.8436  -14.8396   23.0106 O   0  0  0  0  0  0  0  0  0  0  0  0
    9.3665  -16.5287   23.5399 N   0  0  0  0  0  0  0  0  0  0  0  0
    9.9530  -16.6121   24.8836 C   0  0  1  0  0  0  0  0  0  0  0  0
    9.6794  -15.3368   25.6174 C   0  0  0  0  0  0  0  0  0  0  0  0
    8.2902  -14.9363   25.7013 C   0  0  0  0  0  0  0  0  0  0  0  0
    7.1892  -15.7535   25.3848 C   0  0  0  0  0  0  0  0  0  0  0  0
    6.0522  -15.0593   25.5339 N   0  0  0  0  0  0  0  0  0  0  0  0
    6.3921  -13.8040   25.9433 C   0  0  0  0  0  0  0  0  0  0  0  0
    5.5794  -12.7215   26.2496 C   0  0  0  0  0  0  0  0  0  0  0  0
    6.1242  -11.5341   26.6692 C   0  0  0  0  0  0  0  0  0  0  0  0
    7.5060  -11.4289   26.7838 C   0  0  0  0  0  0  0  0  0  0  0  0
    8.3052  -12.5038   26.4784 C   0  0  0  0  0  0  0  0  0  0  0  0
    7.7605  -13.7101   26.0518 C   0  0  0  0  0  0  0  0  0  0  0  0
    9.4147  -17.7869   25.5747 C   0  0  0  0  0  0  0  0  0  0  0  0
    9.9462  -18.1268   26.8287 O   0  0  0  0  0  0  0  0  0  0  0  0
    8.5065  -18.5350   25.1478 O   0  0  0  0  0  0  0  0  0  0  0  0
  2  1  1  6
  3  2  1  0
  3  4  1  0
  4  5  2  0
  5  6  1  0
  7  6  2  0
  8  7  1  0
  9  8  2  0
  9  4  1  0
 10 11  2  0
 10  2  1  0
 13 14  1  1
 13 12  1  0
 15 13  1  0
 16 15  1  1
 16 17  1  0
 17 10  1  0
 18 16  1  0
 19 18  2  0
 20 18  1  0
 21 22  1  1
 21 20  1  0
 22 23  1  0
 23 31  1  0
 23 24  2  0
 24 25  1  0
 26 25  1  0
 26 27  2  0
 28 27  1  0
 29 28  2  0
 30 31  2  0
 30 29  1  0
 31 26  1  0
 32 21  1  0
 33 32  1  0
 34 32  2  0
M  END
$$$$
