FLW.pdb
     RDKit          3D

 34 36  0  0  1  0  0  0  0  0999 V2000
    9.1342  -18.8508   19.7225 N   0  0  0  0  0  0  0  0  0  0  0  0
   10.5032  -18.3796   19.9134 C   0  0  1  0  0  0  0  0  0  0  0  0
   11.1774  -18.3135   18.5621 C   0  0  0  0  0  0  0  0  0  0  0  0
   10.3266  -17.7815   17.4913 C   0  0  0  0  0  0  0  0  0  0  0  0
    9.0106  -17.4176   17.7821 C   0  0  0  0  0  0  0  0  0  0  0  0
    8.1995  -16.9164   16.7961 C   0  0  0  0  0  0  0  0  0  0  0  0
    8.6876  -16.7756   15.5279 C   0  0  0  0  0  0  0  0  0  0  0  0
    9.9752  -17.1209   15.1975 C   0  0  0  0  0  0  0  0  0  0  0  0
   10.7804  -17.6247   16.2023 C   0  0  0  0  0  0  0  0  0  0  0  0
   10.5259  -17.0824   20.6002 C   0  0  0  0  0  0  0  0  0  0  0  0
   11.6186  -16.4960   20.7989 O   0  0  0  0  0  0  0  0  0  0  0  0
    8.5371  -13.8685   18.9905 C   0  0  0  0  0  0  0  0  0  0  0  0
    8.1534  -13.3668   20.3458 C   0  0  1  0  0  0  0  0  0  0  0  0
    6.7329  -12.7871   20.1960 C   0  0  0  0  0  0  0  0  0  0  0  0
    8.0671  -14.4054   21.4039 C   0  0  0  0  0  0  0  0  0  0  0  0
    9.3248  -15.1330   21.6989 C   0  0  2  0  0  0  0  0  0  0  0  0
    9.3512  -16.4356   21.0655 N   0  0  0  0  0  0  0  0  0  0  0  0
    9.6437  -15.2734   23.1264 C   0  0  0  0  0  0  0  0  0  0  0  0
   10.0285  -14.2664   23.7797 O   0  0  0  0  0  0  0  0  0  0  0  0
    9.5286  -16.5170   23.7841 N   0  0  0  0  0  0  0  0  0  0  0  0
    9.8923  -16.5835   25.2053 C   0  0  1  0  0  0  0  0  0  0  0  0
    8.6460  -16.7083   26.0244 C   0  0  0  0  0  0  0  0  0  0  0  0
    7.6613  -15.6611   25.8483 C   0  0  0  0  0  0  0  0  0  0  0  0
    6.3930  -15.8295   25.2626 C   0  0  0  0  0  0  0  0  0  0  0  0
    5.7536  -14.6520   25.2203 N   0  0  0  0  0  0  0  0  0  0  0  0
    6.5820  -13.7188   25.7695 C   0  0  0  0  0  0  0  0  0  0  0  0
    6.3767  -12.3612   25.9718 C   0  0  0  0  0  0  0  0  0  0  0  0
    7.3413  -11.5889   26.5684 C   0  0  0  0  0  0  0  0  0  0  0  0
    8.5315  -12.1861   26.9691 C   0  0  0  0  0  0  0  0  0  0  0  0
    8.7291  -13.5303   26.7654 C   0  0  0  0  0  0  0  0  0  0  0  0
    7.7566  -14.3193   26.1607 C   0  0  0  0  0  0  0  0  0  0  0  0
   10.8195  -17.6987   25.4160 C   0  0  0  0  0  0  0  0  0  0  0  0
   11.0923  -18.5543   24.3371 O   0  0  0  0  0  0  0  0  0  0  0  0
   11.4062  -17.9704   26.4878 O   0  0  0  0  0  0  0  0  0  0  0  0
  2  1  1  6
  3  2  1  0
  3  4  1  0
  4  5  2  0
  5  6  1  0
  7  6  2  0
  8  7  1  0
  9  8  2  0
  9  4  1  0
 10 11  2  0
 10  2  1  0
 13 14  1  6
 13 12  1  0
 15 13  1  0
 16 15  1  1
 16 17  1  0
 17 10  1  0
 18 16  1  0
 19 18  2  0
 20 18  1  0
 21 22  1  1
 21 20  1  0
 22 23  1  0
 23 31  1  0
 23 24  2  0
 24 25  1  0
 26 25  1  0
 26 27  2  0
 28 27  1  0
 29 28  2  0
 30 31  2  0
 30 29  1  0
 31 26  1  0
 32 21  1  0
 33 32  1  0
 34 32  2  0
M  END
$$$$
