FLW.pdb
     RDKit          3D

 34 36  0  0  1  0  0  0  0  0999 V2000
    9.7389  -18.6493   18.6396 N   0  0  0  0  0  0  0  0  0  0  0  0
    9.9929  -18.7684   20.0727 C   0  0  1  0  0  0  0  0  0  0  0  0
   11.1883  -19.6721   20.2715 C   0  0  0  0  0  0  0  0  0  0  0  0
   11.5223  -19.9263   21.6775 C   0  0  0  0  0  0  0  0  0  0  0  0
   10.6934  -20.7537   22.4374 C   0  0  0  0  0  0  0  0  0  0  0  0
   10.9890  -21.0058   23.7528 C   0  0  0  0  0  0  0  0  0  0  0  0
   12.0994  -20.4422   24.3146 C   0  0  0  0  0  0  0  0  0  0  0  0
   12.9421  -19.6224   23.6045 C   0  0  0  0  0  0  0  0  0  0  0  0
   12.6307  -19.3778   22.2797 C   0  0  0  0  0  0  0  0  0  0  0  0
   10.1957  -17.4502   20.6859 C   0  0  0  0  0  0  0  0  0  0  0  0
   11.2605  -16.8176   20.4777 O   0  0  0  0  0  0  0  0  0  0  0  0
    6.3064  -13.7994   20.4114 C   0  0  0  0  0  0  0  0  0  0  0  0
    7.6331  -14.4775   20.5368 C   0  0  1  0  0  0  0  0  0  0  0  0
    8.6634  -13.5087   19.9234 C   0  0  0  0  0  0  0  0  0  0  0  0
    8.0836  -14.7339   21.9286 C   0  0  0  0  0  0  0  0  0  0  0  0
    9.3481  -15.4955   22.0683 C   0  0  2  0  0  0  0  0  0  0  0  0
    9.2306  -16.8329   21.5241 N   0  0  0  0  0  0  0  0  0  0  0  0
    9.8862  -15.5653   23.4338 C   0  0  0  0  0  0  0  0  0  0  0  0
   10.6735  -14.6681   23.8387 O   0  0  0  0  0  0  0  0  0  0  0  0
    9.5395  -16.6204   24.3050 N   0  0  0  0  0  0  0  0  0  0  0  0
   10.1738  -16.6603   25.6289 C   0  0  1  0  0  0  0  0  0  0  0  0
    9.7191  -15.4777   26.4255 C   0  0  0  0  0  0  0  0  0  0  0  0
    8.3637  -15.0295   26.1820 C   0  0  0  0  0  0  0  0  0  0  0  0
    7.2734  -15.8667   25.8815 C   0  0  0  0  0  0  0  0  0  0  0  0
    6.1760  -15.1250   25.6755 N   0  0  0  0  0  0  0  0  0  0  0  0
    6.5310  -13.8186   25.8377 C   0  0  0  0  0  0  0  0  0  0  0  0
    5.7546  -12.6717   25.7479 C   0  0  0  0  0  0  0  0  0  0  0  0
    6.3054  -11.4347   25.9696 C   0  0  0  0  0  0  0  0  0  0  0  0
    7.6564  -11.3446   26.2864 C   0  0  0  0  0  0  0  0  0  0  0  0
    8.4199  -12.4836   26.3731 C   0  0  0  0  0  0  0  0  0  0  0  0
    7.8689  -13.7406   26.1490 C   0  0  0  0  0  0  0  0  0  0  0  0
    9.8561  -17.9343   26.2797 C   0  0  0  0  0  0  0  0  0  0  0  0
    9.0056  -18.8311   25.6144 O   0  0  0  0  0  0  0  0  0  0  0  0
   10.2779  -18.3111   27.3963 O   0  0  0  0  0  0  0  0  0  0  0  0
  2  1  1  6
  3  2  1  0
  3  4  1  0
  4  5  2  0
  5  6  1  0
  7  6  2  0
  8  7  1  0
  9  8  2  0
  9  4  1  0
 10 11  2  0
 10  2  1  0
 13 14  1  1
 13 12  1  0
 15 13  1  0
 16 15  1  1
 16 17  1  0
 17 10  1  0
 18 16  1  0
 19 18  2  0
 20 18  1  0
 21 22  1  1
 21 20  1  0
 22 23  1  0
 23 31  1  0
 23 24  2  0
 24 25  1  0
 26 25  1  0
 26 27  2  0
 28 27  1  0
 29 28  2  0
 30 31  2  0
 30 29  1  0
 31 26  1  0
 32 21  1  0
 33 32  1  0
 34 32  2  0
M  END
$$$$
