FLW.pdb
     RDKit          3D

 34 36  0  0  1  0  0  0  0  0999 V2000
    8.8905  -18.5359   18.9042 N   0  0  0  0  0  0  0  0  0  0  0  0
    8.7692  -17.2205   19.5268 C   0  0  1  0  0  0  0  0  0  0  0  0
    8.2177  -16.2567   18.5012 C   0  0  0  0  0  0  0  0  0  0  0  0
    7.9807  -14.9028   19.0151 C   0  0  0  0  0  0  0  0  0  0  0  0
    8.9981  -13.9510   18.9263 C   0  0  0  0  0  0  0  0  0  0  0  0
    8.7962  -12.6793   19.3988 C   0  0  0  0  0  0  0  0  0  0  0  0
    7.5935  -12.3501   19.9568 C   0  0  0  0  0  0  0  0  0  0  0  0
    6.5654  -13.2545   20.0645 C   0  0  0  0  0  0  0  0  0  0  0  0
    6.7843  -14.5322   19.5838 C   0  0  0  0  0  0  0  0  0  0  0  0
    7.9295  -17.2792   20.7294 C   0  0  0  0  0  0  0  0  0  0  0  0
    6.8192  -16.6927   20.7494 O   0  0  0  0  0  0  0  0  0  0  0  0
    6.8138  -21.7771   23.0963 C   0  0  0  0  0  0  0  0  0  0  0  0
    6.9350  -20.3703   22.6042 C   0  0  1  0  0  0  0  0  0  0  0  0
    5.5249  -19.9639   22.1324 C   0  0  0  0  0  0  0  0  0  0  0  0
    7.3315  -19.3729   23.6307 C   0  0  0  0  0  0  0  0  0  0  0  0
    7.5539  -17.9923   23.1379 C   0  0  2  0  0  0  0  0  0  0  0  0
    8.3117  -17.9799   21.9033 N   0  0  0  0  0  0  0  0  0  0  0  0
    8.1746  -17.0772   24.1056 C   0  0  0  0  0  0  0  0  0  0  0  0
    7.5439  -16.0552   24.4882 O   0  0  0  0  0  0  0  0  0  0  0  0
    9.4677  -17.3191   24.6174 N   0  0  0  0  0  0  0  0  0  0  0  0
   10.2098  -16.1856   25.1840 C   0  0  1  0  0  0  0  0  0  0  0  0
    9.5632  -15.7697   26.4681 C   0  0  0  0  0  0  0  0  0  0  0  0
    8.2640  -15.1407   26.3518 C   0  0  0  0  0  0  0  0  0  0  0  0
    7.0640  -15.8074   26.0424 C   0  0  0  0  0  0  0  0  0  0  0  0
    6.0589  -14.9230   25.9748 N   0  0  0  0  0  0  0  0  0  0  0  0
    6.5819  -13.6913   26.2361 C   0  0  0  0  0  0  0  0  0  0  0  0
    5.9512  -12.4567   26.3019 C   0  0  0  0  0  0  0  0  0  0  0  0
    6.6626  -11.3229   26.6037 C   0  0  0  0  0  0  0  0  0  0  0  0
    8.0284  -11.4270   26.8434 C   0  0  0  0  0  0  0  0  0  0  0  0
    8.6471  -12.6518   26.7760 C   0  0  0  0  0  0  0  0  0  0  0  0
    7.9330  -13.8052   26.4700 C   0  0  0  0  0  0  0  0  0  0  0  0
   11.6147  -16.5648   25.3571 C   0  0  0  0  0  0  0  0  0  0  0  0
   12.0438  -17.7961   24.8373 O   0  0  0  0  0  0  0  0  0  0  0  0
   12.4908  -15.8837   25.9362 O   0  0  0  0  0  0  0  0  0  0  0  0
  2  1  1  6
  3  2  1  0
  3  4  1  0
  4  5  2  0
  5  6  1  0
  7  6  2  0
  8  7  1  0
  9  8  2  0
  9  4  1  0
 10 11  2  0
 10  2  1  0
 13 14  1  1
 13 12  1  0
 15 13  1  0
 16 15  1  1
 16 17  1  0
 17 10  1  0
 18 16  1  0
 19 18  2  0
 20 18  1  0
 21 22  1  1
 21 20  1  0
 22 23  1  0
 23 31  1  0
 23 24  2  0
 24 25  1  0
 26 25  1  0
 26 27  2  0
 28 27  1  0
 29 28  2  0
 30 31  2  0
 30 29  1  0
 31 26  1  0
 32 21  1  0
 33 32  1  0
 34 32  2  0
M  END
$$$$
