FLW.pdb
     RDKit          3D

 34 36  0  0  1  0  0  0  0  0999 V2000
    7.9006  -20.1861   20.2435 N   0  0  0  0  0  0  0  0  0  0  0  0
    7.3566  -19.1717   21.1421 C   0  0  1  0  0  0  0  0  0  0  0  0
    7.1060  -19.8123   22.4881 C   0  0  0  0  0  0  0  0  0  0  0  0
    6.1367  -20.9136   22.4586 C   0  0  0  0  0  0  0  0  0  0  0  0
    5.6634  -21.3737   21.2284 C   0  0  0  0  0  0  0  0  0  0  0  0
    4.7587  -22.4034   21.1787 C   0  0  0  0  0  0  0  0  0  0  0  0
    4.3238  -22.9758   22.3404 C   0  0  0  0  0  0  0  0  0  0  0  0
    4.7627  -22.5549   23.5719 C   0  0  0  0  0  0  0  0  0  0  0  0
    5.6744  -21.5160   23.6054 C   0  0  0  0  0  0  0  0  0  0  0  0
    8.2574  -18.0173   21.2449 C   0  0  0  0  0  0  0  0  0  0  0  0
    9.4886  -18.1612   21.0427 O   0  0  0  0  0  0  0  0  0  0  0  0
    6.2697  -12.9800   19.8653 C   0  0  0  0  0  0  0  0  0  0  0  0
    7.1755  -14.1603   20.0141 C   0  0  1  0  0  0  0  0  0  0  0  0
    8.3163  -13.9491   18.9991 C   0  0  0  0  0  0  0  0  0  0  0  0
    7.8241  -14.2965   21.3432 C   0  0  0  0  0  0  0  0  0  0  0  0
    8.6319  -15.5233   21.5451 C   0  0  2  0  0  0  0  0  0  0  0  0
    7.8040  -16.7118   21.5690 N   0  0  0  0  0  0  0  0  0  0  0  0
    9.5047  -15.5077   22.7271 C   0  0  0  0  0  0  0  0  0  0  0  0
   10.4363  -14.6619   22.8012 O   0  0  0  0  0  0  0  0  0  0  0  0
    9.3217  -16.4238   23.7852 N   0  0  0  0  0  0  0  0  0  0  0  0
   10.1533  -16.2684   24.9855 C   0  0  1  0  0  0  0  0  0  0  0  0
    9.8956  -14.9233   25.5890 C   0  0  0  0  0  0  0  0  0  0  0  0
    8.5112  -14.6090   25.8753 C   0  0  0  0  0  0  0  0  0  0  0  0
    7.4512  -15.5344   25.8719 C   0  0  0  0  0  0  0  0  0  0  0  0
    6.2986  -14.9039   26.1386 N   0  0  0  0  0  0  0  0  0  0  0  0
    6.5884  -13.5837   26.3173 C   0  0  0  0  0  0  0  0  0  0  0  0
    5.7458  -12.5258   26.6288 C   0  0  0  0  0  0  0  0  0  0  0  0
    6.2445  -11.2575   26.7884 C   0  0  0  0  0  0  0  0  0  0  0  0
    7.6100  -11.0449   26.6331 C   0  0  0  0  0  0  0  0  0  0  0  0
    8.4389  -12.0961   26.3240 C   0  0  0  0  0  0  0  0  0  0  0  0
    7.9407  -13.3840   26.1600 C   0  0  0  0  0  0  0  0  0  0  0  0
    9.8724  -17.3664   25.9146 C   0  0  0  0  0  0  0  0  0  0  0  0
    8.9393  -18.3430   25.5328 O   0  0  0  0  0  0  0  0  0  0  0  0
   10.3943  -17.5234   27.0414 O   0  0  0  0  0  0  0  0  0  0  0  0
  2  1  1  6
  3  2  1  0
  3  4  1  0
  4  5  2  0
  5  6  1  0
  7  6  2  0
  8  7  1  0
  9  8  2  0
  9  4  1  0
 10 11  2  0
 10  2  1  0
 13 14  1  6
 13 12  1  0
 15 13  1  0
 16 15  1  1
 16 17  1  0
 17 10  1  0
 18 16  1  0
 19 18  2  0
 20 18  1  0
 21 22  1  1
 21 20  1  0
 22 23  1  0
 23 31  1  0
 23 24  2  0
 24 25  1  0
 26 25  1  0
 26 27  2  0
 28 27  1  0
 29 28  2  0
 30 31  2  0
 30 29  1  0
 31 26  1  0
 32 21  1  0
 33 32  1  0
 34 32  2  0
M  END
$$$$
