FLW.pdb
     RDKit          3D

 34 36  0  0  1  0  0  0  0  0999 V2000
    8.7207  -19.6186   19.4002 N   0  0  0  0  0  0  0  0  0  0  0  0
    8.1154  -19.1391   20.6396 C   0  0  1  0  0  0  0  0  0  0  0  0
    8.2053  -20.2403   21.6713 C   0  0  0  0  0  0  0  0  0  0  0  0
    7.6263  -19.8922   22.9739 C   0  0  0  0  0  0  0  0  0  0  0  0
    8.4296  -19.9462   24.1145 C   0  0  0  0  0  0  0  0  0  0  0  0
    7.9084  -19.6228   25.3413 C   0  0  0  0  0  0  0  0  0  0  0  0
    6.5985  -19.2475   25.4399 C   0  0  0  0  0  0  0  0  0  0  0  0
    5.7726  -19.1807   24.3446 C   0  0  0  0  0  0  0  0  0  0  0  0
    6.3127  -19.5098   23.1151 C   0  0  0  0  0  0  0  0  0  0  0  0
    8.7604  -17.9036   21.1006 C   0  0  0  0  0  0  0  0  0  0  0  0
   10.0124  -17.8058   21.0869 O   0  0  0  0  0  0  0  0  0  0  0  0
    6.0442  -13.2678   19.8935 C   0  0  0  0  0  0  0  0  0  0  0  0
    7.1089  -14.2921   20.1238 C   0  0  1  0  0  0  0  0  0  0  0  0
    8.3191  -13.8412   19.2822 C   0  0  0  0  0  0  0  0  0  0  0  0
    7.5941  -14.3966   21.5235 C   0  0  0  0  0  0  0  0  0  0  0  0
    8.5904  -15.4635   21.7839 C   0  0  2  0  0  0  0  0  0  0  0  0
    8.0296  -16.7826   21.5742 N   0  0  0  0  0  0  0  0  0  0  0  0
    9.2345  -15.4065   23.1033 C   0  0  0  0  0  0  0  0  0  0  0  0
    9.9767  -14.4293   23.3916 O   0  0  0  0  0  0  0  0  0  0  0  0
    9.0395  -16.4273   24.0585 N   0  0  0  0  0  0  0  0  0  0  0  0
    9.7079  -16.2935   25.3593 C   0  0  1  0  0  0  0  0  0  0  0  0
    8.6718  -16.1541   26.4302 C   0  0  0  0  0  0  0  0  0  0  0  0
    7.7518  -15.0452   26.2849 C   0  0  0  0  0  0  0  0  0  0  0  0
    6.4266  -15.1450   25.8223 C   0  0  0  0  0  0  0  0  0  0  0  0
    5.8710  -13.9260   25.7730 N   0  0  0  0  0  0  0  0  0  0  0  0
    6.8100  -13.0329   26.1966 C   0  0  0  0  0  0  0  0  0  0  0  0
    6.7207  -11.6557   26.3428 C   0  0  0  0  0  0  0  0  0  0  0  0
    7.7880  -10.9310   26.8103 C   0  0  0  0  0  0  0  0  0  0  0  0
    8.9645  -11.5965   27.1367 C   0  0  0  0  0  0  0  0  0  0  0  0
    9.0469  -12.9600   26.9890 C   0  0  0  0  0  0  0  0  0  0  0  0
    7.9699  -13.7011   26.5152 C   0  0  0  0  0  0  0  0  0  0  0  0
   10.5875  -17.4461   25.5724 C   0  0  0  0  0  0  0  0  0  0  0  0
   11.3353  -17.5061   26.7588 O   0  0  0  0  0  0  0  0  0  0  0  0
   10.7417  -18.4051   24.7830 O   0  0  0  0  0  0  0  0  0  0  0  0
  2  1  1  6
  3  2  1  0
  3  4  1  0
  4  5  2  0
  5  6  1  0
  7  6  2  0
  8  7  1  0
  9  8  2  0
  9  4  1  0
 10 11  2  0
 10  2  1  0
 13 14  1  6
 13 12  1  0
 15 13  1  0
 16 15  1  1
 16 17  1  0
 17 10  1  0
 18 16  1  0
 19 18  2  0
 20 18  1  0
 21 22  1  1
 21 20  1  0
 22 23  1  0
 23 31  1  0
 23 24  2  0
 24 25  1  0
 26 25  1  0
 26 27  2  0
 28 27  1  0
 29 28  2  0
 30 31  2  0
 30 29  1  0
 31 26  1  0
 32 21  1  0
 33 32  1  0
 34 32  2  0
M  END
$$$$
