FLW.pdb
     RDKit          3D

 34 36  0  0  1  0  0  0  0  0999 V2000
   10.9051  -19.0734   18.7172 N   0  0  0  0  0  0  0  0  0  0  0  0
    9.7960  -18.7514   19.6109 C   0  0  1  0  0  0  0  0  0  0  0  0
    9.5804  -19.9212   20.5438 C   0  0  0  0  0  0  0  0  0  0  0  0
   10.8185  -20.5003   21.0777 C   0  0  0  0  0  0  0  0  0  0  0  0
   12.0348  -19.8635   20.8244 C   0  0  0  0  0  0  0  0  0  0  0  0
   13.2032  -20.3872   21.3161 C   0  0  0  0  0  0  0  0  0  0  0  0
   13.1692  -21.5356   22.0552 C   0  0  0  0  0  0  0  0  0  0  0  0
   11.9956  -22.1948   22.3284 C   0  0  0  0  0  0  0  0  0  0  0  0
   10.8264  -21.6545   21.8258 C   0  0  0  0  0  0  0  0  0  0  0  0
   10.0516  -17.5062   20.3450 C   0  0  0  0  0  0  0  0  0  0  0  0
   11.2316  -17.1219   20.5381 O   0  0  0  0  0  0  0  0  0  0  0  0
    6.1045  -13.4550   20.2845 C   0  0  0  0  0  0  0  0  0  0  0  0
    7.3997  -14.1995   20.2210 C   0  0  1  0  0  0  0  0  0  0  0  0
    8.4206  -13.2213   19.6068 C   0  0  0  0  0  0  0  0  0  0  0  0
    7.9585  -14.6102   21.5342 C   0  0  0  0  0  0  0  0  0  0  0  0
    9.2146  -15.3964   21.4844 C   0  0  2  0  0  0  0  0  0  0  0  0
    9.0128  -16.6895   20.8634 N   0  0  0  0  0  0  0  0  0  0  0  0
    9.8924  -15.5712   22.7763 C   0  0  0  0  0  0  0  0  0  0  0  0
   10.9005  -14.8660   23.0503 O   0  0  0  0  0  0  0  0  0  0  0  0
    9.4371  -16.5165   23.7206 N   0  0  0  0  0  0  0  0  0  0  0  0
   10.1555  -16.6191   24.9973 C   0  0  1  0  0  0  0  0  0  0  0  0
    9.9654  -15.3512   25.7695 C   0  0  0  0  0  0  0  0  0  0  0  0
    8.5968  -14.9962   26.0829 C   0  0  0  0  0  0  0  0  0  0  0  0
    7.4906  -15.8600   25.9823 C   0  0  0  0  0  0  0  0  0  0  0  0
    6.3700  -15.2009   26.3090 N   0  0  0  0  0  0  0  0  0  0  0  0
    6.7259  -13.9226   26.6222 C   0  0  0  0  0  0  0  0  0  0  0  0
    5.9364  -12.8596   27.0379 C   0  0  0  0  0  0  0  0  0  0  0  0
    6.4985  -11.6417   27.3273 C   0  0  0  0  0  0  0  0  0  0  0  0
    7.8742  -11.4857   27.1981 C   0  0  0  0  0  0  0  0  0  0  0  0
    8.6503  -12.5416   26.7854 C   0  0  0  0  0  0  0  0  0  0  0  0
    8.0878  -13.7785   26.4895 C   0  0  0  0  0  0  0  0  0  0  0  0
    9.6819  -17.7993   25.7258 C   0  0  0  0  0  0  0  0  0  0  0  0
    8.7605  -18.6494   25.0944 O   0  0  0  0  0  0  0  0  0  0  0  0
   10.0257  -18.1323   26.8823 O   0  0  0  0  0  0  0  0  0  0  0  0
  2  1  1  6
  3  2  1  0
  3  4  1  0
  4  5  2  0
  5  6  1  0
  7  6  2  0
  8  7  1  0
  9  8  2  0
  9  4  1  0
 10 11  2  0
 10  2  1  0
 13 14  1  1
 13 12  1  0
 15 13  1  0
 16 15  1  1
 16 17  1  0
 17 10  1  0
 18 16  1  0
 19 18  2  0
 20 18  1  0
 21 22  1  1
 21 20  1  0
 22 23  1  0
 23 31  1  0
 23 24  2  0
 24 25  1  0
 26 25  1  0
 26 27  2  0
 28 27  1  0
 29 28  2  0
 30 31  2  0
 30 29  1  0
 31 26  1  0
 32 21  1  0
 33 32  1  0
 34 32  2  0
M  END
$$$$
