FLW.pdb
     RDKit          3D

 34 36  0  0  1  0  0  0  0  0999 V2000
    8.2191  -20.8020   20.3229 N   0  0  0  0  0  0  0  0  0  0  0  0
    7.9901  -19.9203   21.4642 C   0  0  1  0  0  0  0  0  0  0  0  0
    8.4800  -20.6188   22.7121 C   0  0  0  0  0  0  0  0  0  0  0  0
    8.2409  -19.8717   23.9522 C   0  0  0  0  0  0  0  0  0  0  0  0
    9.3309  -19.4020   24.6873 C   0  0  0  0  0  0  0  0  0  0  0  0
    9.1292  -18.6998   25.8480 C   0  0  0  0  0  0  0  0  0  0  0  0
    7.8551  -18.4630   26.2803 C   0  0  0  0  0  0  0  0  0  0  0  0
    6.7542  -18.9064   25.5890 C   0  0  0  0  0  0  0  0  0  0  0  0
    6.9740  -19.6128   24.4209 C   0  0  0  0  0  0  0  0  0  0  0  0
    8.6468  -18.6219   21.2706 C   0  0  0  0  0  0  0  0  0  0  0  0
    9.8371  -18.5731   20.8727 O   0  0  0  0  0  0  0  0  0  0  0  0
    8.8389  -13.3880   19.6268 C   0  0  0  0  0  0  0  0  0  0  0  0
    8.1173  -13.6536   20.9091 C   0  0  1  0  0  0  0  0  0  0  0  0
    6.8866  -12.7254   20.9025 C   0  0  0  0  0  0  0  0  0  0  0  0
    7.5933  -15.0344   21.0660 C   0  0  0  0  0  0  0  0  0  0  0  0
    8.6065  -16.0833   21.3339 C   0  0  2  0  0  0  0  0  0  0  0  0
    7.9956  -17.3843   21.5143 N   0  0  0  0  0  0  0  0  0  0  0  0
    9.5109  -15.8040   22.4577 C   0  0  0  0  0  0  0  0  0  0  0  0
   10.3118  -14.8334   22.3853 O   0  0  0  0  0  0  0  0  0  0  0  0
    9.5023  -16.6033   23.6212 N   0  0  0  0  0  0  0  0  0  0  0  0
   10.2220  -16.1113   24.8029 C   0  0  1  0  0  0  0  0  0  0  0  0
    9.3457  -16.2601   26.0070 C   0  0  0  0  0  0  0  0  0  0  0  0
    8.0806  -15.5567   25.9642 C   0  0  0  0  0  0  0  0  0  0  0  0
    6.8404  -16.1357   25.6373 C   0  0  0  0  0  0  0  0  0  0  0  0
    5.8837  -15.1968   25.6539 N   0  0  0  0  0  0  0  0  0  0  0  0
    6.4778  -14.0158   25.9872 C   0  0  0  0  0  0  0  0  0  0  0  0
    5.9166  -12.7573   26.1523 C   0  0  0  0  0  0  0  0  0  0  0  0
    6.6943  -11.6865   26.5150 C   0  0  0  0  0  0  0  0  0  0  0  0
    8.0568  -11.8792   26.7155 C   0  0  0  0  0  0  0  0  0  0  0  0
    8.6065  -13.1273   26.5498 C   0  0  0  0  0  0  0  0  0  0  0  0
    7.8250  -14.2171   26.1816 C   0  0  0  0  0  0  0  0  0  0  0  0
   11.4890  -16.8359   24.9346 C   0  0  0  0  0  0  0  0  0  0  0  0
   11.7846  -17.8409   24.0003 O   0  0  0  0  0  0  0  0  0  0  0  0
   12.3541  -16.6430   25.8184 O   0  0  0  0  0  0  0  0  0  0  0  0
  2  1  1  6
  3  2  1  0
  3  4  1  0
  4  5  2  0
  5  6  1  0
  7  6  2  0
  8  7  1  0
  9  8  2  0
  9  4  1  0
 10 11  2  0
 10  2  1  0
 13 14  1  6
 13 12  1  0
 15 13  1  0
 16 15  1  1
 16 17  1  0
 17 10  1  0
 18 16  1  0
 19 18  2  0
 20 18  1  0
 21 22  1  1
 21 20  1  0
 22 23  1  0
 23 31  1  0
 23 24  2  0
 24 25  1  0
 26 25  1  0
 26 27  2  0
 28 27  1  0
 29 28  2  0
 30 31  2  0
 30 29  1  0
 31 26  1  0
 32 21  1  0
 33 32  1  0
 34 32  2  0
M  END
$$$$
