FLW.pdb
     RDKit          3D

 34 36  0  0  1  0  0  0  0  0999 V2000
   10.8727  -18.8446   18.4055 N   0  0  0  0  0  0  0  0  0  0  0  0
    9.9110  -18.5789   19.4717 C   0  0  1  0  0  0  0  0  0  0  0  0
    9.9170  -19.7537   20.4229 C   0  0  0  0  0  0  0  0  0  0  0  0
    9.3007  -20.9697   19.8801 C   0  0  0  0  0  0  0  0  0  0  0  0
    8.8069  -20.9604   18.5743 C   0  0  0  0  0  0  0  0  0  0  0  0
    8.2290  -22.0871   18.0473 C   0  0  0  0  0  0  0  0  0  0  0  0
    8.1398  -23.2183   18.8080 C   0  0  0  0  0  0  0  0  0  0  0  0
    8.6120  -23.2719   20.0966 C   0  0  0  0  0  0  0  0  0  0  0  0
    9.1918  -22.1281   20.6137 C   0  0  0  0  0  0  0  0  0  0  0  0
   10.2163  -17.3177   20.1581 C   0  0  0  0  0  0  0  0  0  0  0  0
   11.4005  -16.9031   20.2129 O   0  0  0  0  0  0  0  0  0  0  0  0
    6.5115  -13.1901   20.0285 C   0  0  0  0  0  0  0  0  0  0  0  0
    7.8408  -13.8741   20.0603 C   0  0  1  0  0  0  0  0  0  0  0  0
    8.8763  -12.8060   19.6564 C   0  0  0  0  0  0  0  0  0  0  0  0
    8.2623  -14.3762   21.3929 C   0  0  0  0  0  0  0  0  0  0  0  0
    9.4704  -15.2358   21.4068 C   0  0  2  0  0  0  0  0  0  0  0  0
    9.2222  -16.5184   20.7809 N   0  0  0  0  0  0  0  0  0  0  0  0
   10.0732  -15.4426   22.7307 C   0  0  0  0  0  0  0  0  0  0  0  0
   11.0331  -14.7129   23.0981 O   0  0  0  0  0  0  0  0  0  0  0  0
    9.5988  -16.4457   23.6033 N   0  0  0  0  0  0  0  0  0  0  0  0
   10.1924  -16.5331   24.9436 C   0  0  1  0  0  0  0  0  0  0  0  0
    9.8283  -15.3074   25.7213 C   0  0  0  0  0  0  0  0  0  0  0  0
    8.4132  -15.0188   25.8286 C   0  0  0  0  0  0  0  0  0  0  0  0
    7.3756  -15.9147   25.5111 C   0  0  0  0  0  0  0  0  0  0  0  0
    6.1897  -15.3145   25.6857 N   0  0  0  0  0  0  0  0  0  0  0  0
    6.4355  -14.0433   26.1128 C   0  0  0  0  0  0  0  0  0  0  0  0
    5.5445  -13.0332   26.4475 C   0  0  0  0  0  0  0  0  0  0  0  0
    6.0000  -11.8137   26.8812 C   0  0  0  0  0  0  0  0  0  0  0  0
    7.3708  -11.6020   26.9812 C   0  0  0  0  0  0  0  0  0  0  0  0
    8.2477  -12.6057   26.6476 C   0  0  0  0  0  0  0  0  0  0  0  0
    7.7937  -13.8439   26.2067 C   0  0  0  0  0  0  0  0  0  0  0  0
    9.7420  -17.7673   25.5930 C   0  0  0  0  0  0  0  0  0  0  0  0
   10.2818  -18.0991   26.8455 O   0  0  0  0  0  0  0  0  0  0  0  0
    8.9039  -18.5739   25.1306 O   0  0  0  0  0  0  0  0  0  0  0  0
  2  1  1  6
  3  2  1  0
  3  4  1  0
  4  5  2  0
  5  6  1  0
  7  6  2  0
  8  7  1  0
  9  8  2  0
  9  4  1  0
 10 11  2  0
 10  2  1  0
 13 14  1  1
 13 12  1  0
 15 13  1  0
 16 15  1  1
 16 17  1  0
 17 10  1  0
 18 16  1  0
 19 18  2  0
 20 18  1  0
 21 22  1  1
 21 20  1  0
 22 23  1  0
 23 31  1  0
 23 24  2  0
 24 25  1  0
 26 25  1  0
 26 27  2  0
 28 27  1  0
 29 28  2  0
 30 31  2  0
 30 29  1  0
 31 26  1  0
 32 21  1  0
 33 32  1  0
 34 32  2  0
M  END
$$$$
