FLW.pdb
     RDKit          3D

 34 36  0  0  1  0  0  0  0  0999 V2000
    7.7944  -20.4308   19.6395 N   0  0  0  0  0  0  0  0  0  0  0  0
    7.6777  -19.7543   20.9283 C   0  0  1  0  0  0  0  0  0  0  0  0
    8.2186  -20.6733   21.9998 C   0  0  0  0  0  0  0  0  0  0  0  0
    8.1527  -20.1186   23.3567 C   0  0  0  0  0  0  0  0  0  0  0  0
    6.9057  -19.8645   23.9307 C   0  0  0  0  0  0  0  0  0  0  0  0
    6.8221  -19.3481   25.1985 C   0  0  0  0  0  0  0  0  0  0  0  0
    7.9667  -19.0841   25.8961 C   0  0  0  0  0  0  0  0  0  0  0  0
    9.2137  -19.3185   25.3705 C   0  0  0  0  0  0  0  0  0  0  0  0
    9.2814  -19.8391   24.0914 C   0  0  0  0  0  0  0  0  0  0  0  0
    8.3742  -18.4622   20.9133 C   0  0  0  0  0  0  0  0  0  0  0  0
    9.5692  -18.3972   20.5325 O   0  0  0  0  0  0  0  0  0  0  0  0
    6.7826  -12.5282   20.2268 C   0  0  0  0  0  0  0  0  0  0  0  0
    7.8309  -13.5630   20.4840 C   0  0  1  0  0  0  0  0  0  0  0  0
    8.5994  -13.0859   21.7323 C   0  0  0  0  0  0  0  0  0  0  0  0
    7.3163  -14.9181   20.8077 C   0  0  0  0  0  0  0  0  0  0  0  0
    8.3412  -15.9337   21.1492 C   0  0  2  0  0  0  0  0  0  0  0  0
    7.7572  -17.2488   21.3158 N   0  0  0  0  0  0  0  0  0  0  0  0
    9.1721  -15.6125   22.3177 C   0  0  0  0  0  0  0  0  0  0  0  0
    9.9388  -14.6127   22.2799 O   0  0  0  0  0  0  0  0  0  0  0  0
    9.1304  -16.4033   23.4861 N   0  0  0  0  0  0  0  0  0  0  0  0
    9.9244  -15.9697   24.6429 C   0  0  1  0  0  0  0  0  0  0  0  0
    9.0624  -15.9963   25.8661 C   0  0  0  0  0  0  0  0  0  0  0  0
    7.8817  -15.1584   25.8309 C   0  0  0  0  0  0  0  0  0  0  0  0
    6.5803  -15.6017   25.5310 C   0  0  0  0  0  0  0  0  0  0  0  0
    5.7331  -14.5630   25.5471 N   0  0  0  0  0  0  0  0  0  0  0  0
    6.4587  -13.4502   25.8536 C   0  0  0  0  0  0  0  0  0  0  0  0
    6.0420  -12.1354   26.0076 C   0  0  0  0  0  0  0  0  0  0  0  0
    6.9383  -11.1519   26.3425 C   0  0  0  0  0  0  0  0  0  0  0  0
    8.2744  -11.4908   26.5261 C   0  0  0  0  0  0  0  0  0  0  0  0
    8.6809  -12.7940   26.3715 C   0  0  0  0  0  0  0  0  0  0  0  0
    7.7785  -13.7960   26.0314 C   0  0  0  0  0  0  0  0  0  0  0  0
   11.1065  -16.8269   24.7674 C   0  0  0  0  0  0  0  0  0  0  0  0
   11.2624  -17.8866   23.8603 O   0  0  0  0  0  0  0  0  0  0  0  0
   12.0123  -16.7049   25.6227 O   0  0  0  0  0  0  0  0  0  0  0  0
  2  1  1  6
  3  2  1  0
  3  4  1  0
  4  5  2  0
  5  6  1  0
  7  6  2  0
  8  7  1  0
  9  8  2  0
  9  4  1  0
 10 11  2  0
 10  2  1  0
 13 14  1  1
 13 12  1  0
 15 13  1  0
 16 15  1  1
 16 17  1  0
 17 10  1  0
 18 16  1  0
 19 18  2  0
 20 18  1  0
 21 22  1  1
 21 20  1  0
 22 23  1  0
 23 31  1  0
 23 24  2  0
 24 25  1  0
 26 25  1  0
 26 27  2  0
 28 27  1  0
 29 28  2  0
 30 31  2  0
 30 29  1  0
 31 26  1  0
 32 21  1  0
 33 32  1  0
 34 32  2  0
M  END
$$$$
