FLW.pdb
     RDKit          3D

 34 36  0  0  1  0  0  0  0  0999 V2000
    8.5995  -18.8274   19.5370 N   0  0  0  0  0  0  0  0  0  0  0  0
   10.0012  -18.4430   19.3954 C   0  0  1  0  0  0  0  0  0  0  0  0
   10.2985  -18.2576   17.9250 C   0  0  0  0  0  0  0  0  0  0  0  0
   10.6464  -19.4973   17.2211 C   0  0  0  0  0  0  0  0  0  0  0  0
   10.8908  -19.4569   15.8472 C   0  0  0  0  0  0  0  0  0  0  0  0
   11.2195  -20.6039   15.1709 C   0  0  0  0  0  0  0  0  0  0  0  0
   11.3061  -21.7861   15.8502 C   0  0  0  0  0  0  0  0  0  0  0  0
   11.0737  -21.8718   17.2011 C   0  0  0  0  0  0  0  0  0  0  0  0
   10.7435  -20.7069   17.8687 C   0  0  0  0  0  0  0  0  0  0  0  0
   10.2993  -17.2326   20.1706 C   0  0  0  0  0  0  0  0  0  0  0  0
   11.4876  -16.8483   20.3029 O   0  0  0  0  0  0  0  0  0  0  0  0
    6.4785  -13.2605   20.1168 C   0  0  0  0  0  0  0  0  0  0  0  0
    7.7639  -14.0243   20.1117 C   0  0  1  0  0  0  0  0  0  0  0  0
    8.7925  -13.1174   19.4074 C   0  0  0  0  0  0  0  0  0  0  0  0
    8.3269  -14.3246   21.4528 C   0  0  0  0  0  0  0  0  0  0  0  0
    9.5310  -15.1896   21.4691 C   0  0  2  0  0  0  0  0  0  0  0  0
    9.2936  -16.4506   20.7967 N   0  0  0  0  0  0  0  0  0  0  0  0
   10.1000  -15.4412   22.8002 C   0  0  0  0  0  0  0  0  0  0  0  0
   11.0328  -14.7084   23.2265 O   0  0  0  0  0  0  0  0  0  0  0  0
    9.6229  -16.4907   23.6147 N   0  0  0  0  0  0  0  0  0  0  0  0
   10.2411  -16.6778   24.9335 C   0  0  1  0  0  0  0  0  0  0  0  0
    9.9937  -15.4600   25.7676 C   0  0  0  0  0  0  0  0  0  0  0  0
    8.6124  -15.0429   25.8906 C   0  0  0  0  0  0  0  0  0  0  0  0
    7.4944  -15.8865   25.7547 C   0  0  0  0  0  0  0  0  0  0  0  0
    6.3684  -15.1714   25.8880 N   0  0  0  0  0  0  0  0  0  0  0  0
    6.7323  -13.8763   26.1100 C   0  0  0  0  0  0  0  0  0  0  0  0
    5.9396  -12.7582   26.3279 C   0  0  0  0  0  0  0  0  0  0  0  0
    6.5087  -11.5304   26.5551 C   0  0  0  0  0  0  0  0  0  0  0  0
    7.8950  -11.4206   26.5641 C   0  0  0  0  0  0  0  0  0  0  0  0
    8.6742  -12.5310   26.3470 C   0  0  0  0  0  0  0  0  0  0  0  0
    8.1047  -13.7784   26.1153 C   0  0  0  0  0  0  0  0  0  0  0  0
    9.7118  -17.8987   25.5475 C   0  0  0  0  0  0  0  0  0  0  0  0
    8.8245  -18.6911   24.8025 O   0  0  0  0  0  0  0  0  0  0  0  0
    9.9788  -18.3148   26.6974 O   0  0  0  0  0  0  0  0  0  0  0  0
  2  1  1  6
  3  2  1  0
  3  4  1  0
  4  5  2  0
  5  6  1  0
  7  6  2  0
  8  7  1  0
  9  8  2  0
  9  4  1  0
 10 11  2  0
 10  2  1  0
 13 14  1  6
 13 12  1  0
 15 13  1  0
 16 15  1  1
 16 17  1  0
 17 10  1  0
 18 16  1  0
 19 18  2  0
 20 18  1  0
 21 22  1  1
 21 20  1  0
 22 23  1  0
 23 31  1  0
 23 24  2  0
 24 25  1  0
 26 25  1  0
 26 27  2  0
 28 27  1  0
 29 28  2  0
 30 31  2  0
 30 29  1  0
 31 26  1  0
 32 21  1  0
 33 32  1  0
 34 32  2  0
M  END
$$$$
