FLW.pdb
     RDKit          3D

 34 36  0  0  1  0  0  0  0  0999 V2000
    5.8737  -18.7327   20.0860 N   0  0  0  0  0  0  0  0  0  0  0  0
    6.2233  -18.1601   21.3830 C   0  0  1  0  0  0  0  0  0  0  0  0
    6.1730  -19.2600   22.4188 C   0  0  0  0  0  0  0  0  0  0  0  0
    6.5818  -18.8383   23.7635 C   0  0  0  0  0  0  0  0  0  0  0  0
    5.9692  -17.7275   24.3465 C   0  0  0  0  0  0  0  0  0  0  0  0
    6.3352  -17.3181   25.6033 C   0  0  0  0  0  0  0  0  0  0  0  0
    7.3030  -18.0041   26.2810 C   0  0  0  0  0  0  0  0  0  0  0  0
    7.9317  -19.1017   25.7459 C   0  0  0  0  0  0  0  0  0  0  0  0
    7.5518  -19.5020   24.4781 C   0  0  0  0  0  0  0  0  0  0  0  0
    7.5391  -17.5108   21.3380 C   0  0  0  0  0  0  0  0  0  0  0  0
    8.5422  -18.1513   20.9370 O   0  0  0  0  0  0  0  0  0  0  0  0
    6.8671  -12.3776   20.0770 C   0  0  0  0  0  0  0  0  0  0  0  0
    7.3019  -13.7953   20.2693 C   0  0  1  0  0  0  0  0  0  0  0  0
    7.6071  -14.3393   18.8596 C   0  0  0  0  0  0  0  0  0  0  0  0
    8.5463  -13.9737   21.0601 C   0  0  0  0  0  0  0  0  0  0  0  0
    8.9112  -15.3741   21.3830 C   0  0  2  0  0  0  0  0  0  0  0  0
    7.7480  -16.1635   21.7330 N   0  0  0  0  0  0  0  0  0  0  0  0
    9.9401  -15.5268   22.4208 C   0  0  0  0  0  0  0  0  0  0  0  0
   11.1270  -15.1807   22.1757 O   0  0  0  0  0  0  0  0  0  0  0  0
    9.6264  -16.0556   23.6914 N   0  0  0  0  0  0  0  0  0  0  0  0
   10.6713  -16.0413   24.7232 C   0  0  1  0  0  0  0  0  0  0  0  0
   10.5092  -14.8162   25.5674 C   0  0  0  0  0  0  0  0  0  0  0  0
    9.1859  -14.5875   26.1094 C   0  0  0  0  0  0  0  0  0  0  0  0
    8.3493  -15.5791   26.6544 C   0  0  0  0  0  0  0  0  0  0  0  0
    7.1825  -15.0334   27.0258 N   0  0  0  0  0  0  0  0  0  0  0  0
    7.2439  -13.7030   26.7339 C   0  0  0  0  0  0  0  0  0  0  0  0
    6.3009  -12.7060   26.9412 C   0  0  0  0  0  0  0  0  0  0  0  0
    6.5680  -11.4065   26.5909 C   0  0  0  0  0  0  0  0  0  0  0  0
    7.8000  -11.1002   26.0232 C   0  0  0  0  0  0  0  0  0  0  0  0
    8.7290  -12.0918   25.8198 C   0  0  0  0  0  0  0  0  0  0  0  0
    8.4652  -13.4111   26.1715 C   0  0  0  0  0  0  0  0  0  0  0  0
   10.5967  -17.2786   25.5049 C   0  0  0  0  0  0  0  0  0  0  0  0
    9.6177  -18.2257   25.1659 O   0  0  0  0  0  0  0  0  0  0  0  0
   11.3369  -17.5820   26.4676 O   0  0  0  0  0  0  0  0  0  0  0  0
  2  1  1  6
  3  2  1  0
  3  4  1  0
  4  5  2  0
  5  6  1  0
  7  6  2  0
  8  7  1  0
  9  8  2  0
  9  4  1  0
 10 11  2  0
 10  2  1  0
 13 14  1  6
 13 12  1  0
 15 13  1  0
 16 15  1  1
 16 17  1  0
 17 10  1  0
 18 16  1  0
 19 18  2  0
 20 18  1  0
 21 22  1  1
 21 20  1  0
 22 23  1  0
 23 31  1  0
 23 24  2  0
 24 25  1  0
 26 25  1  0
 26 27  2  0
 28 27  1  0
 29 28  2  0
 30 31  2  0
 30 29  1  0
 31 26  1  0
 32 21  1  0
 33 32  1  0
 34 32  2  0
M  END
$$$$
