TDQ.pdb
     RDKit          3D

 25 24  0  0  1  0  0  0  0  0999 V2000
   22.1020  -11.7200  -17.5392 C   0  0  0  0  0  0  0  0  0  0  0  0
   20.8910  -12.5625  -17.7840 C   0  0  1  0  0  0  0  0  0  0  0  0
   21.2144  -13.9139  -17.8524 O   0  0  0  0  0  0  0  0  0  0  0  0
   19.8650  -12.3732  -16.7001 C   0  0  2  0  0  0  0  0  0  0  0  0
   18.7755  -13.2932  -16.8404 N   0  0  0  0  0  0  0  0  0  0  0  0
   19.3698  -10.9570  -16.7332 C   0  0  0  0  0  0  0  0  0  0  0  0
   19.0626  -10.4863  -17.8742 O   0  0  0  0  0  0  0  0  0  0  0  0
   19.2478  -10.1803  -15.5685 N   0  0  0  0  0  0  0  0  0  0  0  0
   18.7337   -8.7685  -15.6263 C   0  0  1  0  0  0  0  0  0  0  0  0
   17.7935   -8.6902  -14.4424 C   0  0  0  0  0  0  0  0  0  0  0  0
   17.2156   -7.3759  -14.1812 C   0  0  0  0  0  0  0  0  0  0  0  0
   17.3702   -6.3776  -14.9102 O   0  0  0  0  0  0  0  0  0  0  0  0
   19.9433   -7.9706  -15.3141 C   0  0  0  0  0  0  0  0  0  0  0  0
   20.7759   -8.5179  -14.4915 O   0  0  0  0  0  0  0  0  0  0  0  0
   16.4147   -7.1656  -13.0319 O   0  0  0  0  0  0  0  0  0  0  0  0
   22.6844   -3.0357  -18.0086 N   0  0  0  0  0  0  0  0  0  0  0  0
   23.4306   -3.1264  -16.8017 C   0  0  0  0  0  0  0  0  0  0  0  0
   24.3440   -2.2686  -16.6322 O   0  0  0  0  0  0  0  0  0  0  0  0
   23.1409   -4.1939  -15.7816 C   0  0  0  0  0  0  0  0  0  0  0  0
   21.9686   -4.9809  -16.2983 C   0  0  0  0  0  0  0  0  0  0  0  0
   21.5176   -6.0724  -15.3387 C   0  0  2  0  0  0  0  0  0  0  0  0
   20.2822   -6.6993  -15.8134 N   0  0  0  0  0  0  0  0  0  0  0  0
   21.2088   -5.3785  -14.0702 C   0  0  0  0  0  0  0  0  0  0  0  0
   20.0711   -4.9439  -13.8317 O   0  0  0  0  0  0  0  0  0  0  0  0
   22.2100   -5.2151  -13.1400 O   0  0  0  0  0  0  0  0  0  0  0  0
  2  1  1  1
  2  4  1  0
  3  2  1  0
  4  6  1  0
  4  5  1  6
  6  8  1  0
  6  7  2  0
  8  9  1  0
  9 10  1  1
  9 13  1  0
 11 10  1  0
 12 11  2  0
 13 14  2  0
 15 11  1  0
 16 17  1  0
 17 18  2  0
 17 19  1  0
 19 20  1  0
 21 20  1  6
 21 23  1  0
 22 21  1  0
 22 13  1  0
 23 25  1  0
 24 23  2  0
M  END
$$$$
