TDQ.pdb
     RDKit          3D

 25 24  0  0  1  0  0  0  0  0999 V2000
   22.2263  -16.9032  -19.7269 C   0  0  0  0  0  0  0  0  0  0  0  0
   20.8101  -16.7955  -19.2587 C   0  0  1  0  0  0  0  0  0  0  0  0
   19.9132  -16.8952  -20.3174 O   0  0  0  0  0  0  0  0  0  0  0  0
   20.4829  -17.8679  -18.2555 C   0  0  2  0  0  0  0  0  0  0  0  0
   19.9915  -19.0529  -18.8935 N   0  0  0  0  0  0  0  0  0  0  0  0
   19.4761  -17.3364  -17.2778 C   0  0  0  0  0  0  0  0  0  0  0  0
   18.2663  -17.2977  -17.6687 O   0  0  0  0  0  0  0  0  0  0  0  0
   19.8401  -16.9006  -15.9925 N   0  0  0  0  0  0  0  0  0  0  0  0
   18.8143  -16.3568  -15.0369 C   0  0  1  0  0  0  0  0  0  0  0  0
   19.3814  -16.7084  -13.6781 C   0  0  0  0  0  0  0  0  0  0  0  0
   18.9828  -18.0068  -13.1445 C   0  0  0  0  0  0  0  0  0  0  0  0
   19.1742  -19.0961  -13.7178 O   0  0  0  0  0  0  0  0  0  0  0  0
   18.9381  -14.8921  -15.2285 C   0  0  0  0  0  0  0  0  0  0  0  0
   20.1410  -14.4506  -15.3947 O   0  0  0  0  0  0  0  0  0  0  0  0
   18.3287  -18.0914  -11.8909 O   0  0  0  0  0  0  0  0  0  0  0  0
   19.8121  -11.6431  -18.4892 N   0  0  0  0  0  0  0  0  0  0  0  0
   19.2177  -10.4663  -17.9566 C   0  0  0  0  0  0  0  0  0  0  0  0
   19.6705   -9.3620  -18.3740 O   0  0  0  0  0  0  0  0  0  0  0  0
   18.1051  -10.5406  -16.9464 C   0  0  0  0  0  0  0  0  0  0  0  0
   17.7929  -11.9983  -16.7513 C   0  0  0  0  0  0  0  0  0  0  0  0
   18.2553  -12.5287  -15.4021 C   0  0  2  0  0  0  0  0  0  0  0  0
   17.9006  -13.9417  -15.2535 N   0  0  0  0  0  0  0  0  0  0  0  0
   17.4872  -11.7659  -14.3950 C   0  0  0  0  0  0  0  0  0  0  0  0
   16.4887  -12.2510  -13.8405 O   0  0  0  0  0  0  0  0  0  0  0  0
   17.8950  -10.4917  -14.0719 O   0  0  0  0  0  0  0  0  0  0  0  0
  2  1  1  6
  2  4  1  0
  3  2  1  0
  4  6  1  0
  4  5  1  6
  6  8  1  0
  6  7  2  0
  8  9  1  0
  9 10  1  1
  9 13  1  0
 11 10  1  0
 12 11  2  0
 13 14  2  0
 15 11  1  0
 16 17  1  0
 17 18  2  0
 17 19  1  0
 19 20  1  0
 21 20  1  6
 21 23  1  0
 22 21  1  0
 22 13  1  0
 23 25  1  0
 24 23  2  0
M  END
$$$$
