TDQ.pdb
     RDKit          3D

 25 24  0  0  1  0  0  0  0  0999 V2000
   12.3861  -12.3756  -10.0660 C   0  0  0  0  0  0  0  0  0  0  0  0
   13.6202  -12.6783  -10.8544 C   0  0  1  0  0  0  0  0  0  0  0  0
   13.5115  -13.8908  -11.5278 O   0  0  0  0  0  0  0  0  0  0  0  0
   13.9036  -11.5981  -11.8626 C   0  0  2  0  0  0  0  0  0  0  0  0
   14.2453  -12.1478  -13.1408 N   0  0  0  0  0  0  0  0  0  0  0  0
   15.0100  -10.7238  -11.3492 C   0  0  0  0  0  0  0  0  0  0  0  0
   15.1875  -10.7085  -10.0898 O   0  0  0  0  0  0  0  0  0  0  0  0
   15.8157   -9.9563  -12.2073 N   0  0  0  0  0  0  0  0  0  0  0  0
   16.8100   -8.9686  -11.6626 C   0  0  1  0  0  0  0  0  0  0  0  0
   17.3611   -8.3052  -12.9069 C   0  0  0  0  0  0  0  0  0  0  0  0
   18.3355   -7.2435  -12.6772 C   0  0  0  0  0  0  0  0  0  0  0  0
   18.7363   -6.8820  -11.5545 O   0  0  0  0  0  0  0  0  0  0  0  0
   15.9442   -7.9926  -10.9589 C   0  0  0  0  0  0  0  0  0  0  0  0
   14.8123   -7.7388  -11.5279 O   0  0  0  0  0  0  0  0  0  0  0  0
   18.8962   -6.5421  -13.7727 O   0  0  0  0  0  0  0  0  0  0  0  0
   12.5404   -7.9127   -7.2521 N   0  0  0  0  0  0  0  0  0  0  0  0
   12.5977   -6.5204   -6.9696 C   0  0  0  0  0  0  0  0  0  0  0  0
   11.5604   -5.9988   -6.4690 O   0  0  0  0  0  0  0  0  0  0  0  0
   13.8359   -5.7148   -7.2556 C   0  0  0  0  0  0  0  0  0  0  0  0
   14.8550   -6.6690   -7.8136 C   0  0  0  0  0  0  0  0  0  0  0  0
   15.2321   -6.3584   -9.2547 C   0  0  2  0  0  0  0  0  0  0  0  0
   16.2153   -7.3236   -9.7509 N   0  0  0  0  0  0  0  0  0  0  0  0
   15.8868   -5.0334   -9.2136 C   0  0  0  0  0  0  0  0  0  0  0  0
   15.2556   -4.0100   -8.9068 O   0  0  0  0  0  0  0  0  0  0  0  0
   17.2247   -4.9422   -9.5236 O   0  0  0  0  0  0  0  0  0  0  0  0
  2  1  1  6
  2  4  1  0
  3  2  1  0
  4  6  1  0
  4  5  1  6
  6  8  1  0
  6  7  2  0
  8  9  1  0
  9 10  1  6
  9 13  1  0
 11 10  1  0
 12 11  2  0
 13 14  2  0
 15 11  1  0
 16 17  1  0
 17 18  2  0
 17 19  1  0
 19 20  1  0
 21 20  1  1
 21 23  1  0
 22 21  1  0
 22 13  1  0
 23 25  1  0
 24 23  2  0
M  END
$$$$
