TDQ.pdb
     RDKit          3D

 25 24  0  0  1  0  0  0  0  0999 V2000
   15.5919   -6.8337   -8.5745 C   0  0  0  0  0  0  0  0  0  0  0  0
   14.8319   -8.0819   -8.2571 C   0  0  1  0  0  0  0  0  0  0  0  0
   14.2843   -8.0353   -6.9791 O   0  0  0  0  0  0  0  0  0  0  0  0
   13.7190   -8.3101   -9.2434 C   0  0  2  0  0  0  0  0  0  0  0  0
   13.0557   -9.5583   -9.0087 N   0  0  0  0  0  0  0  0  0  0  0  0
   14.2772   -8.2606  -10.6355 C   0  0  0  0  0  0  0  0  0  0  0  0
   14.7744   -9.3396  -11.0897 O   0  0  0  0  0  0  0  0  0  0  0  0
   14.2573   -7.0866  -11.4075 N   0  0  0  0  0  0  0  0  0  0  0  0
   14.7283   -7.0877  -12.8355 C   0  0  1  0  0  0  0  0  0  0  0  0
   13.7198   -6.2029  -13.5368 C   0  0  0  0  0  0  0  0  0  0  0  0
   13.9933   -5.9261  -14.9433 C   0  0  0  0  0  0  0  0  0  0  0  0
   14.9821   -6.3532  -15.5690 O   0  0  0  0  0  0  0  0  0  0  0  0
   16.0137   -6.3541  -12.7527 C   0  0  0  0  0  0  0  0  0  0  0  0
   16.0375   -5.3614  -11.9260 O   0  0  0  0  0  0  0  0  0  0  0  0
   13.1045   -5.1204  -15.6965 O   0  0  0  0  0  0  0  0  0  0  0  0
   21.6419   -8.1193  -11.9350 N   0  0  0  0  0  0  0  0  0  0  0  0
   21.0817   -8.4608  -13.1964 C   0  0  0  0  0  0  0  0  0  0  0  0
   21.6279   -9.4146  -13.8215 O   0  0  0  0  0  0  0  0  0  0  0  0
   19.8970   -7.7185  -13.7526 C   0  0  0  0  0  0  0  0  0  0  0  0
   19.5499   -6.6469  -12.7568 C   0  0  0  0  0  0  0  0  0  0  0  0
   18.3728   -5.7880  -13.1955 C   0  0  2  0  0  0  0  0  0  0  0  0
   17.1982   -6.6202  -13.4644 N   0  0  0  0  0  0  0  0  0  0  0  0
   18.7887   -5.1739  -14.4745 C   0  0  0  0  0  0  0  0  0  0  0  0
   19.6356   -4.2676  -14.5110 O   0  0  0  0  0  0  0  0  0  0  0  0
   18.2194   -5.6227  -15.6445 O   0  0  0  0  0  0  0  0  0  0  0  0
  2  1  1  6
  2  4  1  0
  3  2  1  0
  4  6  1  0
  4  5  1  1
  6  8  1  0
  6  7  2  0
  8  9  1  0
  9 10  1  6
  9 13  1  0
 11 10  1  0
 12 11  2  0
 13 14  2  0
 15 11  1  0
 16 17  1  0
 17 18  2  0
 17 19  1  0
 19 20  1  0
 21 20  1  6
 21 23  1  0
 22 21  1  0
 22 13  1  0
 23 25  1  0
 24 23  2  0
M  END
$$$$
