TDQ.pdb
     RDKit          3D

 25 24  0  0  1  0  0  0  0  0999 V2000
   16.4542  -13.5086  -14.3458 C   0  0  0  0  0  0  0  0  0  0  0  0
   17.2620  -12.2502  -14.3614 C   0  0  1  0  0  0  0  0  0  0  0  0
   18.2011  -12.2589  -15.3876 O   0  0  0  0  0  0  0  0  0  0  0  0
   16.3848  -11.0395  -14.5296 C   0  0  2  0  0  0  0  0  0  0  0  0
   16.1137  -10.7741  -15.9112 N   0  0  0  0  0  0  0  0  0  0  0  0
   17.0473   -9.8582  -13.8834 C   0  0  0  0  0  0  0  0  0  0  0  0
   17.7018  -10.0840  -12.8164 O   0  0  0  0  0  0  0  0  0  0  0  0
   16.9559   -8.5632  -14.4210 N   0  0  0  0  0  0  0  0  0  0  0  0
   17.6916   -7.4094  -13.7978 C   0  0  1  0  0  0  0  0  0  0  0  0
   17.9233   -6.4719  -14.9636 C   0  0  0  0  0  0  0  0  0  0  0  0
   18.5487   -5.1957  -14.6327 C   0  0  0  0  0  0  0  0  0  0  0  0
   18.8561   -4.8364  -13.4802 O   0  0  0  0  0  0  0  0  0  0  0  0
   16.6635   -6.8093  -12.9146 C   0  0  0  0  0  0  0  0  0  0  0  0
   15.4595   -6.8036  -13.3833 O   0  0  0  0  0  0  0  0  0  0  0  0
   18.8485   -4.2629  -15.6557 O   0  0  0  0  0  0  0  0  0  0  0  0
   15.0675   -7.8594   -7.5253 N   0  0  0  0  0  0  0  0  0  0  0  0
   14.3314   -6.6443   -7.5829 C   0  0  0  0  0  0  0  0  0  0  0  0
   13.4094   -6.4973   -6.7301 O   0  0  0  0  0  0  0  0  0  0  0  0
   14.6408   -5.5906   -8.6114 C   0  0  0  0  0  0  0  0  0  0  0  0
   15.8000   -6.1017   -9.4210 C   0  0  0  0  0  0  0  0  0  0  0  0
   15.6771   -5.7787  -10.9029 C   0  0  2  0  0  0  0  0  0  0  0  0
   16.8524   -6.2557  -11.6347 N   0  0  0  0  0  0  0  0  0  0  0  0
   15.6674   -4.3025  -10.9845 C   0  0  0  0  0  0  0  0  0  0  0  0
   16.6872   -3.6656  -11.2917 O   0  0  0  0  0  0  0  0  0  0  0  0
   14.4986   -3.6285  -10.7124 O   0  0  0  0  0  0  0  0  0  0  0  0
  2  1  1  6
  2  4  1  0
  3  2  1  0
  4  6  1  0
  4  5  1  6
  6  8  1  0
  6  7  2  0
  8  9  1  0
  9 10  1  6
  9 13  1  0
 11 10  1  0
 12 11  2  0
 13 14  2  0
 15 11  1  0
 16 17  1  0
 17 18  2  0
 17 19  1  0
 19 20  1  0
 21 20  1  1
 21 23  1  0
 22 21  1  0
 22 13  1  0
 23 25  1  0
 24 23  2  0
M  END
$$$$
