TDQ.pdb
     RDKit          3D

 25 24  0  0  1  0  0  0  0  0999 V2000
   16.7246  -13.3640  -16.6137 C   0  0  0  0  0  0  0  0  0  0  0  0
   16.7392  -11.8700  -16.6757 C   0  0  1  0  0  0  0  0  0  0  0  0
   15.4764  -11.3366  -16.4386 O   0  0  0  0  0  0  0  0  0  0  0  0
   17.6968  -11.2904  -15.6704 C   0  0  2  0  0  0  0  0  0  0  0  0
   17.3142  -11.6189  -14.3292 N   0  0  0  0  0  0  0  0  0  0  0  0
   17.7612   -9.8023  -15.8533 C   0  0  0  0  0  0  0  0  0  0  0  0
   18.1646   -9.3833  -16.9845 O   0  0  0  0  0  0  0  0  0  0  0  0
   17.3969   -8.9073  -14.8331 N   0  0  0  0  0  0  0  0  0  0  0  0
   17.4575   -7.4200  -15.0461 C   0  0  1  0  0  0  0  0  0  0  0  0
   16.5752   -6.8729  -13.9443 C   0  0  0  0  0  0  0  0  0  0  0  0
   15.7951   -5.6890  -14.2897 C   0  0  0  0  0  0  0  0  0  0  0  0
   14.8035   -5.2848  -13.6531 O   0  0  0  0  0  0  0  0  0  0  0  0
   18.8672   -7.1030  -14.7146 C   0  0  0  0  0  0  0  0  0  0  0  0
   19.3575   -7.7346  -13.6997 O   0  0  0  0  0  0  0  0  0  0  0  0
   16.1466   -4.9087  -15.4184 O   0  0  0  0  0  0  0  0  0  0  0  0
   23.5903   -6.5331  -18.3639 N   0  0  0  0  0  0  0  0  0  0  0  0
   24.2580   -6.2897  -17.1324 C   0  0  0  0  0  0  0  0  0  0  0  0
   25.5183   -6.1970  -17.1778 O   0  0  0  0  0  0  0  0  0  0  0  0
   23.4948   -6.1507  -15.8432 C   0  0  0  0  0  0  0  0  0  0  0  0
   22.0398   -6.3254  -16.1795 C   0  0  0  0  0  0  0  0  0  0  0  0
   21.1272   -6.1509  -14.9743 C   0  0  2  0  0  0  0  0  0  0  0  0
   19.7209   -6.2034  -15.3795 N   0  0  0  0  0  0  0  0  0  0  0  0
   21.3974   -4.7875  -14.4702 C   0  0  0  0  0  0  0  0  0  0  0  0
   20.6636   -3.8317  -14.7668 O   0  0  0  0  0  0  0  0  0  0  0  0
   22.4878   -4.5830  -13.6555 O   0  0  0  0  0  0  0  0  0  0  0  0
  2  1  1  1
  2  4  1  0
  3  2  1  0
  4  6  1  0
  4  5  1  1
  6  8  1  0
  6  7  2  0
  8  9  1  0
  9 10  1  1
  9 13  1  0
 11 10  1  0
 12 11  2  0
 13 14  2  0
 15 11  1  0
 16 17  1  0
 17 18  2  0
 17 19  1  0
 19 20  1  0
 21 20  1  6
 21 23  1  0
 22 21  1  0
 22 13  1  0
 23 25  1  0
 24 23  2  0
M  END
$$$$
