TDQ.pdb
     RDKit          3D

 25 24  0  0  1  0  0  0  0  0999 V2000
   16.2337  -15.6830  -14.6638 C   0  0  0  0  0  0  0  0  0  0  0  0
   16.5359  -14.2752  -15.0676 C   0  0  1  0  0  0  0  0  0  0  0  0
   17.9032  -14.0708  -15.2228 O   0  0  0  0  0  0  0  0  0  0  0  0
   15.8519  -13.9180  -16.3591 C   0  0  2  0  0  0  0  0  0  0  0  0
   16.3462  -14.7031  -17.4510 N   0  0  0  0  0  0  0  0  0  0  0  0
   16.0442  -12.4545  -16.6294 C   0  0  0  0  0  0  0  0  0  0  0  0
   16.8486  -12.1480  -17.5658 O   0  0  0  0  0  0  0  0  0  0  0  0
   15.3746  -11.4637  -15.8914 N   0  0  0  0  0  0  0  0  0  0  0  0
   15.5385  -10.0057  -16.2207 C   0  0  1  0  0  0  0  0  0  0  0  0
   14.2207   -9.3994  -15.7875 C   0  0  0  0  0  0  0  0  0  0  0  0
   14.1069   -7.9538  -15.9515 C   0  0  0  0  0  0  0  0  0  0  0  0
   14.9843   -7.2280  -16.4566 O   0  0  0  0  0  0  0  0  0  0  0  0
   16.5864   -9.5741  -15.2653 C   0  0  0  0  0  0  0  0  0  0  0  0
   16.5048  -10.0824  -14.0802 O   0  0  0  0  0  0  0  0  0  0  0  0
   12.9380   -7.2782  -15.5229 O   0  0  0  0  0  0  0  0  0  0  0  0
   22.4805   -9.4451  -15.7749 N   0  0  0  0  0  0  0  0  0  0  0  0
   22.3850   -8.9990  -14.4282 C   0  0  0  0  0  0  0  0  0  0  0  0
   23.4643   -8.9356  -13.7725 O   0  0  0  0  0  0  0  0  0  0  0  0
   21.0607   -8.6229  -13.8210 C   0  0  0  0  0  0  0  0  0  0  0  0
   20.0137   -8.8837  -14.8681 C   0  0  0  0  0  0  0  0  0  0  0  0
   18.6201   -8.4542  -14.4335 C   0  0  2  0  0  0  0  0  0  0  0  0
   17.6504   -8.6853  -15.5063 N   0  0  0  0  0  0  0  0  0  0  0  0
   18.7079   -6.9944  -14.2161 C   0  0  0  0  0  0  0  0  0  0  0  0
   19.1138   -6.5244  -13.1418 O   0  0  0  0  0  0  0  0  0  0  0  0
   18.3294   -6.1463  -15.2319 O   0  0  0  0  0  0  0  0  0  0  0  0
  2  1  1  6
  2  4  1  0
  3  2  1  0
  4  6  1  0
  4  5  1  6
  6  8  1  0
  6  7  2  0
  8  9  1  0
  9 10  1  1
  9 13  1  0
 11 10  1  0
 12 11  2  0
 13 14  2  0
 15 11  1  0
 16 17  1  0
 17 18  2  0
 17 19  1  0
 19 20  1  0
 21 20  1  6
 21 23  1  0
 22 21  1  0
 22 13  1  0
 23 25  1  0
 24 23  2  0
M  END
$$$$
