TDQ.pdb
     RDKit          3D

 25 24  0  0  1  0  0  0  0  0999 V2000
   16.8367  -10.9214  -10.4388 C   0  0  0  0  0  0  0  0  0  0  0  0
   15.3912  -11.2689  -10.5996 C   0  0  1  0  0  0  0  0  0  0  0  0
   15.1506  -12.6055  -10.2981 O   0  0  0  0  0  0  0  0  0  0  0  0
   14.5224  -10.4177   -9.7140 C   0  0  2  0  0  0  0  0  0  0  0  0
   13.1439  -10.7970   -9.8080 N   0  0  0  0  0  0  0  0  0  0  0  0
   14.7016   -8.9756  -10.0884 C   0  0  0  0  0  0  0  0  0  0  0  0
   14.1405   -8.5909  -11.1631 O   0  0  0  0  0  0  0  0  0  0  0  0
   15.4497   -8.0857   -9.2989 N   0  0  0  0  0  0  0  0  0  0  0  0
   15.6229   -6.6473   -9.7014 C   0  0  1  0  0  0  0  0  0  0  0  0
   15.4385   -5.8958   -8.4002 C   0  0  0  0  0  0  0  0  0  0  0  0
   15.5563   -4.4439   -8.4878 C   0  0  0  0  0  0  0  0  0  0  0  0
   15.8172   -3.8171   -9.5322 O   0  0  0  0  0  0  0  0  0  0  0  0
   17.0560   -6.5864  -10.0754 C   0  0  0  0  0  0  0  0  0  0  0  0
   17.8889   -6.9431   -9.1543 O   0  0  0  0  0  0  0  0  0  0  0  0
   15.3706   -3.6434   -7.3340 O   0  0  0  0  0  0  0  0  0  0  0  0
   19.8675   -9.7268  -13.8440 N   0  0  0  0  0  0  0  0  0  0  0  0
   20.9736   -8.8776  -13.5664 C   0  0  0  0  0  0  0  0  0  0  0  0
   22.0994   -9.2484  -14.0067 O   0  0  0  0  0  0  0  0  0  0  0  0
   20.8039   -7.6022  -12.7864 C   0  0  0  0  0  0  0  0  0  0  0  0
   19.3646   -7.5457  -12.3551 C   0  0  0  0  0  0  0  0  0  0  0  0
   19.0471   -6.3231  -11.5066 C   0  0  2  0  0  0  0  0  0  0  0  0
   17.6018   -6.1915  -11.3109 N   0  0  0  0  0  0  0  0  0  0  0  0
   19.4985   -5.1627  -12.3037 C   0  0  0  0  0  0  0  0  0  0  0  0
   18.6879   -4.4135  -12.8707 O   0  0  0  0  0  0  0  0  0  0  0  0
   20.8480   -4.9156  -12.4142 O   0  0  0  0  0  0  0  0  0  0  0  0
  2  1  1  1
  2  4  1  0
  3  2  1  0
  4  6  1  0
  4  5  1  6
  6  8  1  0
  6  7  2  0
  8  9  1  0
  9 10  1  1
  9 13  1  0
 11 10  1  0
 12 11  2  0
 13 14  2  0
 15 11  1  0
 16 17  1  0
 17 18  2  0
 17 19  1  0
 19 20  1  0
 21 20  1  6
 21 23  1  0
 22 21  1  0
 22 13  1  0
 23 25  1  0
 24 23  2  0
M  END
$$$$
