TDQ.pdb
     RDKit          3D

 25 24  0  0  1  0  0  0  0  0999 V2000
   26.4662  -13.5125  -15.7799 C   0  0  0  0  0  0  0  0  0  0  0  0
   25.3981  -12.5482  -16.1870 C   0  0  1  0  0  0  0  0  0  0  0  0
   25.9000  -11.5507  -17.0168 O   0  0  0  0  0  0  0  0  0  0  0  0
   24.2767  -13.2464  -16.9072 C   0  0  2  0  0  0  0  0  0  0  0  0
   24.7151  -13.7969  -18.1552 N   0  0  0  0  0  0  0  0  0  0  0  0
   23.1511  -12.2775  -17.1219 C   0  0  0  0  0  0  0  0  0  0  0  0
   23.2196  -11.5438  -18.1587 O   0  0  0  0  0  0  0  0  0  0  0  0
   22.0707  -12.1770  -16.2290 N   0  0  0  0  0  0  0  0  0  0  0  0
   20.9304  -11.2328  -16.4923 C   0  0  1  0  0  0  0  0  0  0  0  0
   19.7201  -12.0036  -16.0098 C   0  0  0  0  0  0  0  0  0  0  0  0
   18.4469  -11.2950  -16.0913 C   0  0  0  0  0  0  0  0  0  0  0  0
   18.2737  -10.2189  -16.6944 O   0  0  0  0  0  0  0  0  0  0  0  0
   21.1940  -10.1323  -15.5349 C   0  0  0  0  0  0  0  0  0  0  0  0
   21.7873  -10.4755  -14.4396 O   0  0  0  0  0  0  0  0  0  0  0  0
   17.2956  -11.8239  -15.4579 O   0  0  0  0  0  0  0  0  0  0  0  0
   22.1071   -4.0699  -16.3362 N   0  0  0  0  0  0  0  0  0  0  0  0
   22.3255   -4.1838  -14.9358 C   0  0  0  0  0  0  0  0  0  0  0  0
   22.7340   -3.1472  -14.3381 O   0  0  0  0  0  0  0  0  0  0  0  0
   22.0800   -5.4781  -14.2088 C   0  0  0  0  0  0  0  0  0  0  0  0
   21.6117   -6.4707  -15.2363 C   0  0  0  0  0  0  0  0  0  0  0  0
   21.2964   -7.8357  -14.6421 C   0  0  2  0  0  0  0  0  0  0  0  0
   20.8764   -8.7700  -15.6886 N   0  0  0  0  0  0  0  0  0  0  0  0
   20.1406   -7.6177  -13.7463 C   0  0  0  0  0  0  0  0  0  0  0  0
   18.9751   -7.7463  -14.1523 O   0  0  0  0  0  0  0  0  0  0  0  0
   20.3713   -7.2646  -12.4361 O   0  0  0  0  0  0  0  0  0  0  0  0
  2  1  1  6
  2  4  1  0
  3  2  1  0
  4  6  1  0
  4  5  1  6
  6  8  1  0
  6  7  2  0
  8  9  1  0
  9 10  1  1
  9 13  1  0
 11 10  1  0
 12 11  2  0
 13 14  2  0
 15 11  1  0
 16 17  1  0
 17 18  2  0
 17 19  1  0
 19 20  1  0
 21 20  1  6
 21 23  1  0
 22 21  1  0
 22 13  1  0
 23 25  1  0
 24 23  2  0
M  END
$$$$
