TDQ.pdb
     RDKit          3D

 25 24  0  0  1  0  0  0  0  0999 V2000
   18.3677  -11.9003  -17.1422 C   0  0  0  0  0  0  0  0  0  0  0  0
   17.2878  -11.2809  -16.3136 C   0  0  1  0  0  0  0  0  0  0  0  0
   16.2951  -12.2026  -15.9968 O   0  0  0  0  0  0  0  0  0  0  0  0
   17.8380  -10.7152  -15.0327 C   0  0  2  0  0  0  0  0  0  0  0  0
   18.4437  -11.7324  -14.2257 N   0  0  0  0  0  0  0  0  0  0  0  0
   16.7329  -10.0318  -14.2819 C   0  0  0  0  0  0  0  0  0  0  0  0
   16.0992   -9.1207  -14.9034 O   0  0  0  0  0  0  0  0  0  0  0  0
   16.4059  -10.3728  -12.9586 N   0  0  0  0  0  0  0  0  0  0  0  0
   15.1818   -9.8098  -12.2909 C   0  0  1  0  0  0  0  0  0  0  0  0
   14.6863  -10.9608  -11.4416 C   0  0  0  0  0  0  0  0  0  0  0  0
   13.7802  -11.8916  -12.1067 C   0  0  0  0  0  0  0  0  0  0  0  0
   12.6656  -11.5843  -12.5703 O   0  0  0  0  0  0  0  0  0  0  0  0
   15.7500   -8.7778  -11.3911 C   0  0  0  0  0  0  0  0  0  0  0  0
   16.8991   -9.0608  -10.8727 O   0  0  0  0  0  0  0  0  0  0  0  0
   14.1444  -13.2515  -12.2625 O   0  0  0  0  0  0  0  0  0  0  0  0
   14.1530   -2.8048  -10.2782 N   0  0  0  0  0  0  0  0  0  0  0  0
   15.3294   -2.9269   -9.4891 C   0  0  0  0  0  0  0  0  0  0  0  0
   15.6913   -1.9005   -8.8454 O   0  0  0  0  0  0  0  0  0  0  0  0
   16.1000   -4.2178   -9.4287 C   0  0  0  0  0  0  0  0  0  0  0  0
   15.3341   -5.2190  -10.2483 C   0  0  0  0  0  0  0  0  0  0  0  0
   15.9967   -6.5883  -10.2832 C   0  0  2  0  0  0  0  0  0  0  0  0
   15.1833   -7.5364  -11.0475 N   0  0  0  0  0  0  0  0  0  0  0  0
   16.0212   -7.0498   -8.8788 C   0  0  0  0  0  0  0  0  0  0  0  0
   15.1954   -7.8733   -8.4548 O   0  0  0  0  0  0  0  0  0  0  0  0
   16.9833   -6.5503   -8.0307 O   0  0  0  0  0  0  0  0  0  0  0  0
  2  1  1  1
  2  4  1  0
  3  2  1  0
  4  6  1  0
  4  5  1  1
  6  8  1  0
  6  7  2  0
  8  9  1  0
  9 10  1  1
  9 13  1  0
 11 10  1  0
 12 11  2  0
 13 14  2  0
 15 11  1  0
 16 17  1  0
 17 18  2  0
 17 19  1  0
 19 20  1  0
 21 20  1  1
 21 23  1  0
 22 21  1  0
 22 13  1  0
 23 25  1  0
 24 23  2  0
M  END
$$$$
