TDQ.pdb
     RDKit          3D

 25 24  0  0  1  0  0  0  0  0999 V2000
   13.0450   -6.6934   -9.0947 C   0  0  0  0  0  0  0  0  0  0  0  0
   13.0024   -8.1713   -8.8706 C   0  0  1  0  0  0  0  0  0  0  0  0
   11.7012   -8.6198   -8.6678 O   0  0  0  0  0  0  0  0  0  0  0  0
   13.5864   -8.9185  -10.0386 C   0  0  2  0  0  0  0  0  0  0  0  0
   13.6611  -10.3255   -9.7789 N   0  0  0  0  0  0  0  0  0  0  0  0
   14.9462   -8.3639  -10.3473 C   0  0  0  0  0  0  0  0  0  0  0  0
   15.8776   -8.6479   -9.5289 O   0  0  0  0  0  0  0  0  0  0  0  0
   15.1900   -7.5696  -11.4805 N   0  0  0  0  0  0  0  0  0  0  0  0
   16.5710   -7.0621  -11.7911 C   0  0  1  0  0  0  0  0  0  0  0  0
   16.7682   -7.4506  -13.2409 C   0  0  0  0  0  0  0  0  0  0  0  0
   17.3443   -8.7721  -13.4675 C   0  0  0  0  0  0  0  0  0  0  0  0
   17.2203   -9.4267  -14.5201 O   0  0  0  0  0  0  0  0  0  0  0  0
   16.3982   -5.5915  -11.7222 C   0  0  0  0  0  0  0  0  0  0  0  0
   15.3585   -5.1226  -12.3293 O   0  0  0  0  0  0  0  0  0  0  0  0
   18.1067   -9.4003  -12.4524 O   0  0  0  0  0  0  0  0  0  0  0  0
   17.9254   -1.5057   -7.3932 N   0  0  0  0  0  0  0  0  0  0  0  0
   17.3672   -0.6261   -8.3608 C   0  0  0  0  0  0  0  0  0  0  0  0
   17.2651    0.5904   -8.0313 O   0  0  0  0  0  0  0  0  0  0  0  0
   16.9224   -1.1266   -9.7083 C   0  0  0  0  0  0  0  0  0  0  0  0
   17.1723   -2.6091   -9.7244 C   0  0  0  0  0  0  0  0  0  0  0  0
   16.8237   -3.2550  -11.0574 C   0  0  2  0  0  0  0  0  0  0  0  0
   17.2306   -4.6617  -11.0718 N   0  0  0  0  0  0  0  0  0  0  0  0
   17.6384   -2.5429  -12.0649 C   0  0  0  0  0  0  0  0  0  0  0  0
   18.6408   -3.0682  -12.5739 O   0  0  0  0  0  0  0  0  0  0  0  0
   17.2702   -1.2710  -12.4403 O   0  0  0  0  0  0  0  0  0  0  0  0
  2  1  1  6
  2  4  1  0
  3  2  1  0
  4  6  1  0
  4  5  1  1
  6  8  1  0
  6  7  2  0
  8  9  1  0
  9 10  1  6
  9 13  1  0
 11 10  1  0
 12 11  2  0
 13 14  2  0
 15 11  1  0
 16 17  1  0
 17 18  2  0
 17 19  1  0
 19 20  1  0
 21 20  1  1
 21 23  1  0
 22 21  1  0
 22 13  1  0
 23 25  1  0
 24 23  2  0
M  END
$$$$
