FAH.pdb
     RDKit          3D

 27 28  0  0  1  0  0  0  0  0999 V2000
   27.8041  -21.0257  -11.7502 N   0  0  0  0  0  0  0  0  0  0  0  0
   26.3800  -20.9205  -12.0006 C   0  0  1  0  0  0  0  0  0  0  0  0
   25.8423  -19.7730  -11.1738 C   0  0  0  0  0  0  0  0  0  0  0  0
   25.9915  -20.1231   -9.7529 C   0  0  0  0  0  0  0  0  0  0  0  0
   25.2731  -21.1547   -9.2034 C   0  0  0  0  0  0  0  0  0  0  0  0
   25.4024  -21.4995   -7.8599 C   0  0  0  0  0  0  0  0  0  0  0  0
   26.2775  -20.7742   -7.0838 C   0  0  0  0  0  0  0  0  0  0  0  0
   27.0278  -19.7153   -7.6074 C   0  0  0  0  0  0  0  0  0  0  0  0
   26.8575  -19.4132   -8.9639 C   0  0  0  0  0  0  0  0  0  0  0  0
   26.1056  -20.7262  -13.4563 C   0  0  0  0  0  0  0  0  0  0  0  0
   26.6432  -19.8070  -14.1234 O   0  0  0  0  0  0  0  0  0  0  0  0
   24.8751  -22.3848  -16.4490 C   0  0  0  0  0  0  0  0  0  0  0  0
   24.6437  -21.3206  -15.4307 C   0  0  2  0  0  0  0  0  0  0  0  0
   25.2126  -21.5892  -14.1455 N   0  0  0  0  0  0  0  0  0  0  0  0
   23.1822  -21.0378  -15.3245 C   0  0  0  0  0  0  0  0  0  0  0  0
   22.4694  -21.5182  -14.4112 O   0  0  0  0  0  0  0  0  0  0  0  0
   22.5606  -20.1980  -16.2818 N   0  0  0  0  0  0  0  0  0  0  0  0
   21.0921  -19.9637  -16.1449 C   0  0  1  0  0  0  0  0  0  0  0  0
   20.9709  -18.4733  -16.0114 C   0  0  0  0  0  0  0  0  0  0  0  0
   20.6476  -18.0837  -14.6315 C   0  0  0  0  0  0  0  0  0  0  0  0
   20.4153  -18.8022  -13.4833 C   0  0  0  0  0  0  0  0  0  0  0  0
   20.2243  -17.9689  -12.4192 N   0  0  0  0  0  0  0  0  0  0  0  0
   20.3430  -16.7427  -12.9248 C   0  0  0  0  0  0  0  0  0  0  0  0
   20.5948  -16.7821  -14.2361 N   0  0  0  0  0  0  0  0  0  0  0  0
   20.5094  -20.3097  -17.4867 C   0  0  0  0  0  0  0  0  0  0  0  0
   19.1858  -20.5298  -17.7091 O   0  0  0  0  0  0  0  0  0  0  0  0
   21.3388  -20.3930  -18.4607 O   0  0  0  0  0  0  0  0  0  0  0  0
  2  1  1  6
  3  4  1  0
  3  2  1  0
  4  5  2  0
  4  9  1  0
  5  6  1  0
  6  7  2  0
  8  7  1  0
  9  8  2  0
 10 11  2  0
 10  2  1  0
 13 12  1  6
 13 14  1  0
 14 10  1  0
 15 13  1  0
 15 17  1  0
 16 15  2  0
 18 17  1  0
 18 25  1  0
 18 19  1  6
 20 21  2  0
 20 19  1  0
 22 21  1  0
 23 24  2  0
 23 22  1  0
 24 20  1  0
 25 26  1  0
 27 25  2  0
M  END
$$$$
