FAH.pdb
     RDKit          3D

 27 28  0  0  1  0  0  0  0  0999 V2000
   19.2999  -11.1124  -18.6926 N   0  0  0  0  0  0  0  0  0  0  0  0
   20.0572   -9.9536  -19.1233 C   0  0  1  0  0  0  0  0  0  0  0  0
   19.1295   -9.0535  -19.9098 C   0  0  0  0  0  0  0  0  0  0  0  0
   18.7862   -9.7361  -21.1668 C   0  0  0  0  0  0  0  0  0  0  0  0
   17.5643  -10.3384  -21.3293 C   0  0  0  0  0  0  0  0  0  0  0  0
   17.2231  -10.9890  -22.5129 C   0  0  0  0  0  0  0  0  0  0  0  0
   18.1495  -11.0159  -23.5304 C   0  0  0  0  0  0  0  0  0  0  0  0
   19.4061  -10.4134  -23.4031 C   0  0  0  0  0  0  0  0  0  0  0  0
   19.6947   -9.7738  -22.1914 C   0  0  0  0  0  0  0  0  0  0  0  0
   20.6557   -9.2409  -17.9545 C   0  0  0  0  0  0  0  0  0  0  0  0
   19.9899   -8.9629  -16.9256 O   0  0  0  0  0  0  0  0  0  0  0  0
   24.1642   -8.0865  -17.0318 C   0  0  0  0  0  0  0  0  0  0  0  0
   22.6790   -8.1408  -16.9130 C   0  0  2  0  0  0  0  0  0  0  0  0
   22.0203   -8.8475  -17.9686 N   0  0  0  0  0  0  0  0  0  0  0  0
   22.1367   -6.7578  -16.7702 C   0  0  0  0  0  0  0  0  0  0  0  0
   21.8687   -6.0356  -17.7599 O   0  0  0  0  0  0  0  0  0  0  0  0
   21.9102   -6.2250  -15.4768 N   0  0  0  0  0  0  0  0  0  0  0  0
   21.3866   -4.8294  -15.3868 C   0  0  1  0  0  0  0  0  0  0  0  0
   20.3790   -4.8882  -14.2755 C   0  0  0  0  0  0  0  0  0  0  0  0
   19.0810   -5.3838  -14.7551 C   0  0  0  0  0  0  0  0  0  0  0  0
   18.6520   -5.8721  -15.9660 C   0  0  0  0  0  0  0  0  0  0  0  0
   17.3512   -6.2790  -15.8923 N   0  0  0  0  0  0  0  0  0  0  0  0
   16.9927   -6.0379  -14.6326 C   0  0  0  0  0  0  0  0  0  0  0  0
   18.0008   -5.5068  -13.9357 N   0  0  0  0  0  0  0  0  0  0  0  0
   22.5334   -4.0093  -14.8652 C   0  0  0  0  0  0  0  0  0  0  0  0
   22.5282   -2.6512  -14.7919 O   0  0  0  0  0  0  0  0  0  0  0  0
   23.5644   -4.6619  -14.4717 O   0  0  0  0  0  0  0  0  0  0  0  0
  2  1  1  1
  3  4  1  0
  3  2  1  0
  4  5  2  0
  4  9  1  0
  5  6  1  0
  6  7  2  0
  8  7  1  0
  9  8  2  0
 10 11  2  0
 10  2  1  0
 13 12  1  6
 13 14  1  0
 14 10  1  0
 15 13  1  0
 15 17  1  0
 16 15  2  0
 18 17  1  0
 18 25  1  0
 18 19  1  1
 20 21  2  0
 20 19  1  0
 22 21  1  0
 23 24  2  0
 23 22  1  0
 24 20  1  0
 25 26  1  0
 27 25  2  0
M  END
$$$$
