FAH.pdb
     RDKit          3D

 27 28  0  0  1  0  0  0  0  0999 V2000
   17.6994  -14.0342    7.6961 N   0  0  0  0  0  0  0  0  0  0  0  0
   17.2933  -15.0954    6.7955 C   0  0  1  0  0  0  0  0  0  0  0  0
   18.3951  -15.2935    5.7777 C   0  0  0  0  0  0  0  0  0  0  0  0
   18.4532  -14.0951    4.9267 C   0  0  0  0  0  0  0  0  0  0  0  0
   17.6272  -13.9638    3.8392 C   0  0  0  0  0  0  0  0  0  0  0  0
   17.6691  -12.8358    3.0229 C   0  0  0  0  0  0  0  0  0  0  0  0
   18.5685  -11.8415    3.3336 C   0  0  0  0  0  0  0  0  0  0  0  0
   19.4275  -11.9383    4.4341 C   0  0  0  0  0  0  0  0  0  0  0  0
   19.3416  -13.0944    5.2194 C   0  0  0  0  0  0  0  0  0  0  0  0
   17.0053  -16.3540    7.5472 C   0  0  0  0  0  0  0  0  0  0  0  0
   17.8578  -16.9013    8.2907 O   0  0  0  0  0  0  0  0  0  0  0  0
   14.0819  -18.4540    8.5183 C   0  0  0  0  0  0  0  0  0  0  0  0
   15.4366  -18.3016    7.9143 C   0  0  2  0  0  0  0  0  0  0  0  0
   15.7365  -16.9839    7.4441 N   0  0  0  0  0  0  0  0  0  0  0  0
   15.6203  -19.3142    6.8336 C   0  0  0  0  0  0  0  0  0  0  0  0
   15.1568  -19.1563    5.6789 O   0  0  0  0  0  0  0  0  0  0  0  0
   16.3421  -20.5033    7.1041 N   0  0  0  0  0  0  0  0  0  0  0  0
   16.5528  -21.4556    5.9733 C   0  0  1  0  0  0  0  0  0  0  0  0
   17.5478  -20.7598    5.0904 C   0  0  0  0  0  0  0  0  0  0  0  0
   17.1610  -20.8467    3.6751 C   0  0  0  0  0  0  0  0  0  0  0  0
   16.0390  -21.3170    3.0359 C   0  0  0  0  0  0  0  0  0  0  0  0
   16.1246  -21.1105    1.6894 N   0  0  0  0  0  0  0  0  0  0  0  0
   17.3011  -20.5120    1.5135 C   0  0  0  0  0  0  0  0  0  0  0  0
   17.9367  -20.3430    2.6762 N   0  0  0  0  0  0  0  0  0  0  0  0
   17.2775  -22.6280    6.5730 C   0  0  0  0  0  0  0  0  0  0  0  0
   17.5094  -23.7972    5.9180 O   0  0  0  0  0  0  0  0  0  0  0  0
   17.6909  -22.4831    7.7779 O   0  0  0  0  0  0  0  0  0  0  0  0
  2  1  1  1
  3  4  1  0
  3  2  1  0
  4  5  2  0
  4  9  1  0
  5  6  1  0
  6  7  2  0
  8  7  1  0
  9  8  2  0
 10 11  2  0
 10  2  1  0
 13 12  1  6
 13 14  1  0
 14 10  1  0
 15 13  1  0
 15 17  1  0
 16 15  2  0
 18 17  1  0
 18 25  1  0
 18 19  1  6
 20 21  2  0
 20 19  1  0
 22 21  1  0
 23 24  2  0
 23 22  1  0
 24 20  1  0
 25 26  1  0
 27 25  2  0
M  END
$$$$
