FAH.pdb
     RDKit          3D

 27 28  0  0  1  0  0  0  0  0999 V2000
   25.7455  -13.6843  -18.2465 N   0  0  0  0  0  0  0  0  0  0  0  0
   24.5985  -13.6465  -17.3605 C   0  0  1  0  0  0  0  0  0  0  0  0
   25.0926  -13.8533  -15.9454 C   0  0  0  0  0  0  0  0  0  0  0  0
   25.7071  -15.1874  -15.8654 C   0  0  0  0  0  0  0  0  0  0  0  0
   24.9548  -16.3204  -16.0451 C   0  0  0  0  0  0  0  0  0  0  0  0
   25.5207  -17.5912  -15.9727 C   0  0  0  0  0  0  0  0  0  0  0  0
   26.8689  -17.6888  -15.7135 C   0  0  0  0  0  0  0  0  0  0  0  0
   27.6697  -16.5569  -15.5244 C   0  0  0  0  0  0  0  0  0  0  0  0
   27.0475  -15.3054  -15.6083 C   0  0  0  0  0  0  0  0  0  0  0  0
   23.8557  -12.3579  -17.5015 C   0  0  0  0  0  0  0  0  0  0  0  0
   24.4296  -11.2420  -17.4339 O   0  0  0  0  0  0  0  0  0  0  0  0
   20.2761  -11.4356  -18.4107 C   0  0  0  0  0  0  0  0  0  0  0  0
   21.6605  -11.1774  -17.9209 C   0  0  2  0  0  0  0  0  0  0  0  0
   22.4524  -12.3522  -17.7204 N   0  0  0  0  0  0  0  0  0  0  0  0
   21.6072  -10.3457  -16.6829 C   0  0  0  0  0  0  0  0  0  0  0  0
   21.4444  -10.8455  -15.5442 O   0  0  0  0  0  0  0  0  0  0  0  0
   21.7436   -8.9385  -16.7788 N   0  0  0  0  0  0  0  0  0  0  0  0
   21.7764   -8.1595  -15.5051 C   0  0  1  0  0  0  0  0  0  0  0  0
   22.9492   -7.2371  -15.6713 C   0  0  0  0  0  0  0  0  0  0  0  0
   24.2166   -7.9810  -15.6941 C   0  0  0  0  0  0  0  0  0  0  0  0
   24.5733   -9.2407  -15.2764 C   0  0  0  0  0  0  0  0  0  0  0  0
   25.8763   -9.5042  -15.5857 N   0  0  0  0  0  0  0  0  0  0  0  0
   26.3089   -8.4014  -16.1939 C   0  0  0  0  0  0  0  0  0  0  0  0
   25.3436   -7.4814  -16.2718 N   0  0  0  0  0  0  0  0  0  0  0  0
   20.5528   -7.2873  -15.5430 C   0  0  0  0  0  0  0  0  0  0  0  0
   20.1630   -6.4760  -14.5234 O   0  0  0  0  0  0  0  0  0  0  0  0
   19.8565   -7.3336  -16.6185 O   0  0  0  0  0  0  0  0  0  0  0  0
  2  1  1  6
  3  4  1  0
  3  2  1  0
  4  5  2  0
  4  9  1  0
  5  6  1  0
  6  7  2  0
  8  7  1  0
  9  8  2  0
 10 11  2  0
 10  2  1  0
 13 12  1  1
 13 14  1  0
 14 10  1  0
 15 13  1  0
 15 17  1  0
 16 15  2  0
 18 17  1  0
 18 25  1  0
 18 19  1  6
 20 21  2  0
 20 19  1  0
 22 21  1  0
 23 24  2  0
 23 22  1  0
 24 20  1  0
 25 26  1  0
 27 25  2  0
M  END
$$$$
