FAH.pdb
     RDKit          3D

 27 28  0  0  1  0  0  0  0  0999 V2000
   27.8073  -21.3659  -15.8210 N   0  0  0  0  0  0  0  0  0  0  0  0
   27.3317  -20.4443  -14.8079 C   0  0  1  0  0  0  0  0  0  0  0  0
   26.5810  -19.3299  -15.5034 C   0  0  0  0  0  0  0  0  0  0  0  0
   27.5558  -18.5135  -16.2432 C   0  0  0  0  0  0  0  0  0  0  0  0
   27.8831  -18.8132  -17.5414 C   0  0  0  0  0  0  0  0  0  0  0  0
   28.8040  -18.0507  -18.2563 C   0  0  0  0  0  0  0  0  0  0  0  0
   29.3871  -16.9755  -17.6254 C   0  0  0  0  0  0  0  0  0  0  0  0
   29.0795  -16.6378  -16.3027 C   0  0  0  0  0  0  0  0  0  0  0  0
   28.1471  -17.4392  -15.6327 C   0  0  0  0  0  0  0  0  0  0  0  0
   26.4724  -21.1461  -13.8072 C   0  0  0  0  0  0  0  0  0  0  0  0
   25.6375  -22.0248  -14.1390 O   0  0  0  0  0  0  0  0  0  0  0  0
   25.9574  -20.8276  -10.0425 C   0  0  0  0  0  0  0  0  0  0  0  0
   25.5539  -21.0935  -11.4530 C   0  0  2  0  0  0  0  0  0  0  0  0
   26.5729  -20.8376  -12.4245 N   0  0  0  0  0  0  0  0  0  0  0  0
   24.3065  -20.3374  -11.7686 C   0  0  0  0  0  0  0  0  0  0  0  0
   24.3237  -19.1454  -12.1581 O   0  0  0  0  0  0  0  0  0  0  0  0
   23.0482  -20.9738  -11.6285 N   0  0  0  0  0  0  0  0  0  0  0  0
   21.8627  -20.3017  -12.2394 C   0  0  1  0  0  0  0  0  0  0  0  0
   22.0500  -20.5013  -13.7154 C   0  0  0  0  0  0  0  0  0  0  0  0
   20.9012  -19.9884  -14.4753 C   0  0  0  0  0  0  0  0  0  0  0  0
   19.6799  -20.5246  -14.8063 C   0  0  0  0  0  0  0  0  0  0  0  0
   18.9143  -19.6132  -15.4744 N   0  0  0  0  0  0  0  0  0  0  0  0
   19.6740  -18.5219  -15.5465 C   0  0  0  0  0  0  0  0  0  0  0  0
   20.8585  -18.7172  -14.9608 N   0  0  0  0  0  0  0  0  0  0  0  0
   20.6836  -21.1495  -11.8515 C   0  0  0  0  0  0  0  0  0  0  0  0
   19.4534  -20.6531  -11.5514 O   0  0  0  0  0  0  0  0  0  0  0  0
   20.8837  -22.4152  -11.8122 O   0  0  0  0  0  0  0  0  0  0  0  0
  2  1  1  6
  3  4  1  0
  3  2  1  0
  4  5  2  0
  4  9  1  0
  5  6  1  0
  6  7  2  0
  8  7  1  0
  9  8  2  0
 10 11  2  0
 10  2  1  0
 13 12  1  1
 13 14  1  0
 14 10  1  0
 15 13  1  0
 15 17  1  0
 16 15  2  0
 18 17  1  0
 18 25  1  0
 18 19  1  6
 20 21  2  0
 20 19  1  0
 22 21  1  0
 23 24  2  0
 23 22  1  0
 24 20  1  0
 25 26  1  0
 27 25  2  0
M  END
$$$$
