FAH.pdb
     RDKit          3D

 27 28  0  0  1  0  0  0  0  0999 V2000
   24.6489  -12.6621  -18.1417 N   0  0  0  0  0  0  0  0  0  0  0  0
   24.0035  -11.6047  -18.8949 C   0  0  1  0  0  0  0  0  0  0  0  0
   22.7406  -12.1694  -19.5076 C   0  0  0  0  0  0  0  0  0  0  0  0
   23.1244  -13.2303  -20.4515 C   0  0  0  0  0  0  0  0  0  0  0  0
   22.8808  -14.5495  -20.1642 C   0  0  0  0  0  0  0  0  0  0  0  0
   23.2377  -15.5664  -21.0468 C   0  0  0  0  0  0  0  0  0  0  0  0
   23.8483  -15.2164  -22.2295 C   0  0  0  0  0  0  0  0  0  0  0  0
   24.1137  -13.8824  -22.5586 C   0  0  0  0  0  0  0  0  0  0  0  0
   23.7332  -12.9022  -21.6340 C   0  0  0  0  0  0  0  0  0  0  0  0
   23.7134  -10.4268  -18.0227 C   0  0  0  0  0  0  0  0  0  0  0  0
   23.3476  -10.5515  -16.8270 O   0  0  0  0  0  0  0  0  0  0  0  0
   23.9322   -6.6468  -18.4739 C   0  0  0  0  0  0  0  0  0  0  0  0
   23.5683   -7.9152  -17.7797 C   0  0  2  0  0  0  0  0  0  0  0  0
   23.8438   -9.1049  -18.5254 N   0  0  0  0  0  0  0  0  0  0  0  0
   22.1378   -7.8629  -17.3575 C   0  0  0  0  0  0  0  0  0  0  0  0
   21.2027   -8.2379  -18.1045 O   0  0  0  0  0  0  0  0  0  0  0  0
   21.8058   -7.3748  -16.0694 N   0  0  0  0  0  0  0  0  0  0  0  0
   20.3582   -7.3055  -15.7092 C   0  0  1  0  0  0  0  0  0  0  0  0
   20.2057   -8.3194  -14.6127 C   0  0  0  0  0  0  0  0  0  0  0  0
   19.9372   -9.6588  -15.1551 C   0  0  0  0  0  0  0  0  0  0  0  0
   19.9071  -10.1654  -16.4323 C   0  0  0  0  0  0  0  0  0  0  0  0
   19.6773  -11.5108  -16.4157 N   0  0  0  0  0  0  0  0  0  0  0  0
   19.5698  -11.8194  -15.1248 C   0  0  0  0  0  0  0  0  0  0  0  0
   19.7204  -10.7384  -14.3546 N   0  0  0  0  0  0  0  0  0  0  0  0
   20.1755   -5.9615  -15.0611 C   0  0  0  0  0  0  0  0  0  0  0  0
   18.9705   -5.4516  -14.6899 O   0  0  0  0  0  0  0  0  0  0  0  0
   21.2423   -5.2800  -14.8586 O   0  0  0  0  0  0  0  0  0  0  0  0
  2  1  1  1
  3  4  1  0
  3  2  1  0
  4  5  2  0
  4  9  1  0
  5  6  1  0
  6  7  2  0
  8  7  1  0
  9  8  2  0
 10 11  2  0
 10  2  1  0
 13 12  1  6
 13 14  1  0
 14 10  1  0
 15 13  1  0
 15 17  1  0
 16 15  2  0
 18 17  1  0
 18 25  1  0
 18 19  1  1
 20 21  2  0
 20 19  1  0
 22 21  1  0
 23 24  2  0
 23 22  1  0
 24 20  1  0
 25 26  1  0
 27 25  2  0
M  END
$$$$
