FAH.pdb
     RDKit          3D

 27 28  0  0  1  0  0  0  0  0999 V2000
   24.9302  -13.4001  -14.9330 N   0  0  0  0  0  0  0  0  0  0  0  0
   24.2017  -12.9782  -16.1133 C   0  0  1  0  0  0  0  0  0  0  0  0
   22.7827  -13.4902  -15.9961 C   0  0  0  0  0  0  0  0  0  0  0  0
   22.8216  -14.9601  -16.0362 C   0  0  0  0  0  0  0  0  0  0  0  0
   23.4121  -15.6200  -17.0841 C   0  0  0  0  0  0  0  0  0  0  0  0
   23.4576  -17.0112  -17.1377 C   0  0  0  0  0  0  0  0  0  0  0  0
   22.8904  -17.7207  -16.1037 C   0  0  0  0  0  0  0  0  0  0  0  0
   22.2790  -17.0842  -15.0177 C   0  0  0  0  0  0  0  0  0  0  0  0
   22.2625  -15.6841  -15.0165 C   0  0  0  0  0  0  0  0  0  0  0  0
   24.2402  -11.4921  -16.2631 C   0  0  0  0  0  0  0  0  0  0  0  0
   23.9328  -10.7152  -15.3245 O   0  0  0  0  0  0  0  0  0  0  0  0
   25.1916   -9.1107  -19.0869 C   0  0  0  0  0  0  0  0  0  0  0  0
   24.6245   -9.4938  -17.7623 C   0  0  2  0  0  0  0  0  0  0  0  0
   24.6324  -10.8990  -17.4926 N   0  0  0  0  0  0  0  0  0  0  0  0
   23.2516   -8.9259  -17.6216 C   0  0  0  0  0  0  0  0  0  0  0  0
   22.2206   -9.5838  -17.8995 O   0  0  0  0  0  0  0  0  0  0  0  0
   23.0882   -7.5966  -17.1587 N   0  0  0  0  0  0  0  0  0  0  0  0
   21.6965   -7.0622  -17.0707 C   0  0  1  0  0  0  0  0  0  0  0  0
   21.1141   -7.7554  -15.8732 C   0  0  0  0  0  0  0  0  0  0  0  0
   19.7550   -7.2756  -15.5850 C   0  0  0  0  0  0  0  0  0  0  0  0
   19.2446   -6.0420  -15.2592 C   0  0  0  0  0  0  0  0  0  0  0  0
   17.8843   -6.0907  -15.1575 N   0  0  0  0  0  0  0  0  0  0  0  0
   17.5706   -7.3571  -15.4243 C   0  0  0  0  0  0  0  0  0  0  0  0
   18.6625   -8.0821  -15.6819 N   0  0  0  0  0  0  0  0  0  0  0  0
   21.8509   -5.6185  -16.6811 C   0  0  0  0  0  0  0  0  0  0  0  0
   20.8827   -4.6773  -16.8438 O   0  0  0  0  0  0  0  0  0  0  0  0
   22.9768   -5.2878  -16.1649 O   0  0  0  0  0  0  0  0  0  0  0  0
  2  1  1  1
  3  4  1  0
  3  2  1  0
  4  5  2  0
  4  9  1  0
  5  6  1  0
  6  7  2  0
  8  7  1  0
  9  8  2  0
 10 11  2  0
 10  2  1  0
 13 12  1  6
 13 14  1  0
 14 10  1  0
 15 13  1  0
 15 17  1  0
 16 15  2  0
 18 17  1  0
 18 25  1  0
 18 19  1  1
 20 21  2  0
 20 19  1  0
 22 21  1  0
 23 24  2  0
 23 22  1  0
 24 20  1  0
 25 26  1  0
 27 25  2  0
M  END
$$$$
