FAH.pdb
     RDKit          3D

 27 28  0  0  1  0  0  0  0  0999 V2000
   25.2677   -9.9352  -19.1472 N   0  0  0  0  0  0  0  0  0  0  0  0
   24.5844   -9.6716  -17.8960 C   0  0  1  0  0  0  0  0  0  0  0  0
   25.5225   -8.8857  -17.0063 C   0  0  0  0  0  0  0  0  0  0  0  0
   26.7175   -9.7079  -16.7614 C   0  0  0  0  0  0  0  0  0  0  0  0
   27.9227   -9.3848  -17.3317 C   0  0  0  0  0  0  0  0  0  0  0  0
   29.0639  -10.1524  -17.1104 C   0  0  0  0  0  0  0  0  0  0  0  0
   28.9566  -11.2571  -16.2966 C   0  0  0  0  0  0  0  0  0  0  0  0
   27.7453  -11.6194  -15.6968 C   0  0  0  0  0  0  0  0  0  0  0  0
   26.6312  -10.8114  -15.9544 C   0  0  0  0  0  0  0  0  0  0  0  0
   23.3039   -8.9383  -18.1298 C   0  0  0  0  0  0  0  0  0  0  0  0
   23.2151   -7.9869  -18.9460 O   0  0  0  0  0  0  0  0  0  0  0  0
   19.6769   -9.5459  -17.4367 C   0  0  0  0  0  0  0  0  0  0  0  0
   20.8589   -8.6454  -17.5598 C   0  0  2  0  0  0  0  0  0  0  0  0
   22.1247   -9.2989  -17.4250 N   0  0  0  0  0  0  0  0  0  0  0  0
   20.7306   -7.5150  -16.5940 C   0  0  0  0  0  0  0  0  0  0  0  0
   19.7637   -6.7165  -16.6188 O   0  0  0  0  0  0  0  0  0  0  0  0
   21.7280   -7.3219  -15.6062 N   0  0  0  0  0  0  0  0  0  0  0  0
   21.6272   -6.1007  -14.7526 C   0  0  1  0  0  0  0  0  0  0  0  0
   21.7279   -6.6262  -13.3499 C   0  0  0  0  0  0  0  0  0  0  0  0
   20.4802   -7.2815  -12.9326 C   0  0  0  0  0  0  0  0  0  0  0  0
   19.2734   -7.4867  -13.5573 C   0  0  0  0  0  0  0  0  0  0  0  0
   18.4378   -8.2242  -12.7693 N   0  0  0  0  0  0  0  0  0  0  0  0
   19.1416   -8.4673  -11.6653 C   0  0  0  0  0  0  0  0  0  0  0  0
   20.3578   -7.9193  -11.7362 N   0  0  0  0  0  0  0  0  0  0  0  0
   22.8976   -5.3371  -15.0026 C   0  0  0  0  0  0  0  0  0  0  0  0
   23.8206   -5.6792  -15.9412 O   0  0  0  0  0  0  0  0  0  0  0  0
   23.0916   -4.3034  -14.2694 O   0  0  0  0  0  0  0  0  0  0  0  0
  2  1  1  6
  3  4  1  0
  3  2  1  0
  4  5  2  0
  4  9  1  0
  5  6  1  0
  6  7  2  0
  8  7  1  0
  9  8  2  0
 10 11  2  0
 10  2  1  0
 13 12  1  1
 13 14  1  0
 14 10  1  0
 15 13  1  0
 15 17  1  0
 16 15  2  0
 18 17  1  0
 18 25  1  0
 18 19  1  1
 20 21  2  0
 20 19  1  0
 22 21  1  0
 23 24  2  0
 23 22  1  0
 24 20  1  0
 25 26  1  0
 27 25  2  0
M  END
$$$$
