FAH.pdb
     RDKit          3D

 27 28  0  0  1  0  0  0  0  0999 V2000
   17.7091  -12.8214  -19.5474 N   0  0  0  0  0  0  0  0  0  0  0  0
   17.9299  -11.7569  -18.5883 C   0  0  1  0  0  0  0  0  0  0  0  0
   19.0061  -12.2092  -17.6257 C   0  0  0  0  0  0  0  0  0  0  0  0
   18.5626  -13.4645  -17.0001 C   0  0  0  0  0  0  0  0  0  0  0  0
   17.5912  -13.4629  -16.0313 C   0  0  0  0  0  0  0  0  0  0  0  0
   17.1597  -14.6424  -15.4287 C   0  0  0  0  0  0  0  0  0  0  0  0
   17.7355  -15.8261  -15.8303 C   0  0  0  0  0  0  0  0  0  0  0  0
   18.7289  -15.8690  -16.8150 C   0  0  0  0  0  0  0  0  0  0  0  0
   19.1236  -14.6531  -17.3861 C   0  0  0  0  0  0  0  0  0  0  0  0
   18.3062  -10.4856  -19.2771 C   0  0  0  0  0  0  0  0  0  0  0  0
   19.0656  -10.4644  -20.2781 O   0  0  0  0  0  0  0  0  0  0  0  0
   16.7709   -7.1534  -19.6081 C   0  0  0  0  0  0  0  0  0  0  0  0
   18.0019   -7.9844  -19.4774 C   0  0  2  0  0  0  0  0  0  0  0  0
   17.8093   -9.2380  -18.8149 N   0  0  0  0  0  0  0  0  0  0  0  0
   19.0777   -7.1866  -18.8190 C   0  0  0  0  0  0  0  0  0  0  0  0
   19.5016   -6.1072  -19.2967 O   0  0  0  0  0  0  0  0  0  0  0  0
   19.6523   -7.6505  -17.6097 N   0  0  0  0  0  0  0  0  0  0  0  0
   20.7206   -6.8131  -16.9870 C   0  0  1  0  0  0  0  0  0  0  0  0
   19.9877   -5.6070  -16.4754 C   0  0  0  0  0  0  0  0  0  0  0  0
   20.8602   -4.7604  -15.6495 C   0  0  0  0  0  0  0  0  0  0  0  0
   22.0758   -4.1612  -15.8777 C   0  0  0  0  0  0  0  0  0  0  0  0
   22.4521   -3.4030  -14.8069 N   0  0  0  0  0  0  0  0  0  0  0  0
   21.4606   -3.5424  -13.9291 C   0  0  0  0  0  0  0  0  0  0  0  0
   20.5024   -4.3427  -14.4042 N   0  0  0  0  0  0  0  0  0  0  0  0
   21.1639   -7.5772  -15.7708 C   0  0  0  0  0  0  0  0  0  0  0  0
   22.4064   -7.4876  -15.2251 O   0  0  0  0  0  0  0  0  0  0  0  0
   20.2915   -8.3512  -15.2383 O   0  0  0  0  0  0  0  0  0  0  0  0
  2  1  1  6
  3  4  1  0
  3  2  1  0
  4  5  2  0
  4  9  1  0
  5  6  1  0
  6  7  2  0
  8  7  1  0
  9  8  2  0
 10 11  2  0
 10  2  1  0
 13 12  1  1
 13 14  1  0
 14 10  1  0
 15 13  1  0
 15 17  1  0
 16 15  2  0
 18 17  1  0
 18 25  1  0
 18 19  1  1
 20 21  2  0
 20 19  1  0
 22 21  1  0
 23 24  2  0
 23 22  1  0
 24 20  1  0
 25 26  1  0
 27 25  2  0
M  END
$$$$
