FAH.pdb
     RDKit          3D

 27 28  0  0  1  0  0  0  0  0999 V2000
   28.5345  -21.1118   -8.3549 N   0  0  0  0  0  0  0  0  0  0  0  0
   27.2743  -20.3961   -8.3131 C   0  0  1  0  0  0  0  0  0  0  0  0
   27.4928  -19.1065   -7.5525 C   0  0  0  0  0  0  0  0  0  0  0  0
   28.2045  -19.4256   -6.3053 C   0  0  0  0  0  0  0  0  0  0  0  0
   29.4809  -18.9720   -6.0878 C   0  0  0  0  0  0  0  0  0  0  0  0
   30.1690  -19.2649   -4.9126 C   0  0  0  0  0  0  0  0  0  0  0  0
   29.5339  -20.0292   -3.9604 C   0  0  0  0  0  0  0  0  0  0  0  0
   28.2328  -20.5103   -4.1451 C   0  0  0  0  0  0  0  0  0  0  0  0
   27.5893  -20.1850   -5.3454 C   0  0  0  0  0  0  0  0  0  0  0  0
   26.7577  -20.1415   -9.6917 C   0  0  0  0  0  0  0  0  0  0  0  0
   25.6813  -19.5279   -9.9019 O   0  0  0  0  0  0  0  0  0  0  0  0
   28.2485  -20.4900  -13.1636 C   0  0  0  0  0  0  0  0  0  0  0  0
   27.1416  -20.2865  -12.1857 C   0  0  2  0  0  0  0  0  0  0  0  0
   27.4787  -20.5924  -10.8291 N   0  0  0  0  0  0  0  0  0  0  0  0
   25.9368  -21.0490  -12.6266 C   0  0  0  0  0  0  0  0  0  0  0  0
   25.9893  -22.2593  -12.9512 O   0  0  0  0  0  0  0  0  0  0  0  0
   24.6798  -20.3977  -12.6866 N   0  0  0  0  0  0  0  0  0  0  0  0
   23.5127  -21.1927  -13.1727 C   0  0  1  0  0  0  0  0  0  0  0  0
   22.3470  -20.6343  -12.4092 C   0  0  0  0  0  0  0  0  0  0  0  0
   22.3415  -21.1082  -11.0179 C   0  0  0  0  0  0  0  0  0  0  0  0
   23.1987  -21.9009  -10.2929 C   0  0  0  0  0  0  0  0  0  0  0  0
   22.7912  -21.9954   -8.9937 N   0  0  0  0  0  0  0  0  0  0  0  0
   21.6851  -21.2565   -8.9319 C   0  0  0  0  0  0  0  0  0  0  0  0
   21.3958  -20.7180  -10.1197 N   0  0  0  0  0  0  0  0  0  0  0  0
   23.3142  -20.7708  -14.6018 C   0  0  0  0  0  0  0  0  0  0  0  0
   23.4168  -19.4870  -15.0390 O   0  0  0  0  0  0  0  0  0  0  0  0
   23.0336  -21.7041  -15.4347 O   0  0  0  0  0  0  0  0  0  0  0  0
  2  1  1  6
  3  4  1  0
  3  2  1  0
  4  5  2  0
  4  9  1  0
  5  6  1  0
  6  7  2  0
  8  7  1  0
  9  8  2  0
 10 11  2  0
 10  2  1  0
 13 12  1  6
 13 14  1  0
 14 10  1  0
 15 13  1  0
 15 17  1  0
 16 15  2  0
 18 17  1  0
 18 25  1  0
 18 19  1  1
 20 21  2  0
 20 19  1  0
 22 21  1  0
 23 24  2  0
 23 22  1  0
 24 20  1  0
 25 26  1  0
 27 25  2  0
M  END
$$$$
