FAH.pdb
     RDKit          3D

 27 28  0  0  1  0  0  0  0  0999 V2000
   21.5050  -16.3848    7.5823 N   0  0  0  0  0  0  0  0  0  0  0  0
   21.0885  -16.0021    8.9172 C   0  0  1  0  0  0  0  0  0  0  0  0
   19.7913  -15.2320    8.8006 C   0  0  0  0  0  0  0  0  0  0  0  0
   20.1026  -13.8836    8.3021 C   0  0  0  0  0  0  0  0  0  0  0  0
   20.4818  -12.8852    9.1633 C   0  0  0  0  0  0  0  0  0  0  0  0
   20.7801  -11.6030    8.7081 C   0  0  0  0  0  0  0  0  0  0  0  0
   20.6856  -11.3540    7.3578 C   0  0  0  0  0  0  0  0  0  0  0  0
   20.3024  -12.3456    6.4477 C   0  0  0  0  0  0  0  0  0  0  0  0
   20.0145  -13.6159    6.9615 C   0  0  0  0  0  0  0  0  0  0  0  0
   20.9397  -17.2014    9.7957 C   0  0  0  0  0  0  0  0  0  0  0  0
   20.6419  -18.3340    9.3399 O   0  0  0  0  0  0  0  0  0  0  0  0
   21.1741  -17.7974   13.5575 C   0  0  0  0  0  0  0  0  0  0  0  0
   20.9364  -18.1652   12.1323 C   0  0  2  0  0  0  0  0  0  0  0  0
   21.1334  -17.0986   11.1989 N   0  0  0  0  0  0  0  0  0  0  0  0
   19.5763  -18.7625   11.9889 C   0  0  0  0  0  0  0  0  0  0  0  0
   18.6530  -18.1886   11.3635 O   0  0  0  0  0  0  0  0  0  0  0  0
   19.3004  -20.0231   12.5742 N   0  0  0  0  0  0  0  0  0  0  0  0
   17.9237  -20.5765   12.4049 C   0  0  1  0  0  0  0  0  0  0  0  0
   17.8851  -21.0284   10.9739 C   0  0  0  0  0  0  0  0  0  0  0  0
   16.7686  -20.4083   10.2463 C   0  0  0  0  0  0  0  0  0  0  0  0
   15.5118  -20.0015   10.6255 C   0  0  0  0  0  0  0  0  0  0  0  0
   14.8593  -19.4065    9.5848 N   0  0  0  0  0  0  0  0  0  0  0  0
   15.7244  -19.4518    8.5734 C   0  0  0  0  0  0  0  0  0  0  0  0
   16.8660  -20.0410    8.9391 N   0  0  0  0  0  0  0  0  0  0  0  0
   17.8953  -21.8281   13.2370 C   0  0  0  0  0  0  0  0  0  0  0  0
   16.8176  -22.6515   13.3389 O   0  0  0  0  0  0  0  0  0  0  0  0
   18.9705  -22.1085   13.8764 O   0  0  0  0  0  0  0  0  0  0  0  0
  2  1  1  6
  3  4  1  0
  3  2  1  0
  4  5  2  0
  4  9  1  0
  5  6  1  0
  6  7  2  0
  8  7  1  0
  9  8  2  0
 10 11  2  0
 10  2  1  0
 13 12  1  1
 13 14  1  0
 14 10  1  0
 15 13  1  0
 15 17  1  0
 16 15  2  0
 18 17  1  0
 18 25  1  0
 18 19  1  6
 20 21  2  0
 20 19  1  0
 22 21  1  0
 23 24  2  0
 23 22  1  0
 24 20  1  0
 25 26  1  0
 27 25  2  0
M  END
$$$$
