FAH.pdb
     RDKit          3D

 27 28  0  0  1  0  0  0  0  0999 V2000
   28.9175  -25.8016  -16.5682 N   0  0  0  0  0  0  0  0  0  0  0  0
   27.9729  -26.9011  -16.5944 C   0  0  1  0  0  0  0  0  0  0  0  0
   26.9792  -26.6389  -17.7048 C   0  0  0  0  0  0  0  0  0  0  0  0
   26.1422  -25.4957  -17.3096 C   0  0  0  0  0  0  0  0  0  0  0  0
   25.2247  -25.6125  -16.2963 C   0  0  0  0  0  0  0  0  0  0  0  0
   24.4243  -24.5400  -15.9095 C   0  0  0  0  0  0  0  0  0  0  0  0
   24.5742  -23.3440  -16.5737 C   0  0  0  0  0  0  0  0  0  0  0  0
   25.4986  -23.1853  -17.6122 C   0  0  0  0  0  0  0  0  0  0  0  0
   26.2765  -24.2968  -17.9586 C   0  0  0  0  0  0  0  0  0  0  0  0
   28.6760  -28.2061  -16.7814 C   0  0  0  0  0  0  0  0  0  0  0  0
   29.8085  -28.2867  -17.3199 O   0  0  0  0  0  0  0  0  0  0  0  0
   28.0138  -31.7740  -15.6400 C   0  0  0  0  0  0  0  0  0  0  0  0
   28.6862  -30.7105  -16.4398 C   0  0  2  0  0  0  0  0  0  0  0  0
   28.0767  -29.4190  -16.3492 N   0  0  0  0  0  0  0  0  0  0  0  0
   28.8053  -31.1516  -17.8606 C   0  0  0  0  0  0  0  0  0  0  0  0
   27.9722  -30.8223  -18.7384 O   0  0  0  0  0  0  0  0  0  0  0  0
   29.8928  -31.9726  -18.2495 N   0  0  0  0  0  0  0  0  0  0  0  0
   29.9469  -32.4178  -19.6740 C   0  0  1  0  0  0  0  0  0  0  0  0
   31.3543  -32.9098  -19.8496 C   0  0  0  0  0  0  0  0  0  0  0  0
   31.6002  -33.3477  -21.2309 C   0  0  0  0  0  0  0  0  0  0  0  0
   30.8674  -33.2540  -22.3898 C   0  0  0  0  0  0  0  0  0  0  0  0
   31.5674  -33.7553  -23.4490 N   0  0  0  0  0  0  0  0  0  0  0  0
   32.7278  -34.1518  -22.9297 C   0  0  0  0  0  0  0  0  0  0  0  0
   32.7738  -33.9211  -21.6149 N   0  0  0  0  0  0  0  0  0  0  0  0
   29.0691  -33.6361  -19.7416 C   0  0  0  0  0  0  0  0  0  0  0  0
   28.3833  -34.1414  -18.6813 O   0  0  0  0  0  0  0  0  0  0  0  0
   28.9821  -34.2096  -20.8849 O   0  0  0  0  0  0  0  0  0  0  0  0
  2  1  1  6
  3  4  1  0
  3  2  1  0
  4  5  2  0
  4  9  1  0
  5  6  1  0
  6  7  2  0
  8  7  1  0
  9  8  2  0
 10 11  2  0
 10  2  1  0
 13 12  1  1
 13 14  1  0
 14 10  1  0
 15 13  1  0
 15 17  1  0
 16 15  2  0
 18 17  1  0
 18 25  1  0
 18 19  1  1
 20 21  2  0
 20 19  1  0
 22 21  1  0
 23 24  2  0
 23 22  1  0
 24 20  1  0
 25 26  1  0
 27 25  2  0
M  END
$$$$
