FAH.pdb
     RDKit          3D

 27 28  0  0  1  0  0  0  0  0999 V2000
   26.4113  -12.0063  -17.6590 N   0  0  0  0  0  0  0  0  0  0  0  0
   26.2200  -10.7011  -17.0574 C   0  0  1  0  0  0  0  0  0  0  0  0
   26.6172   -9.6537  -18.0744 C   0  0  0  0  0  0  0  0  0  0  0  0
   28.0482   -9.8222  -18.3703 C   0  0  0  0  0  0  0  0  0  0  0  0
   28.4600  -10.4798  -19.5017 C   0  0  0  0  0  0  0  0  0  0  0  0
   29.8110  -10.6482  -19.7969 C   0  0  0  0  0  0  0  0  0  0  0  0
   30.7375  -10.1344  -18.9184 C   0  0  0  0  0  0  0  0  0  0  0  0
   30.3571   -9.4576  -17.7541 C   0  0  0  0  0  0  0  0  0  0  0  0
   28.9858   -9.3180  -17.5082 C   0  0  0  0  0  0  0  0  0  0  0  0
   24.8071  -10.5221  -16.6057 C   0  0  0  0  0  0  0  0  0  0  0  0
   23.8273  -10.8229  -17.3327 O   0  0  0  0  0  0  0  0  0  0  0  0
   23.0945   -9.6297  -13.3467 C   0  0  0  0  0  0  0  0  0  0  0  0
   23.2100   -9.6905  -14.8320 C   0  0  2  0  0  0  0  0  0  0  0  0
   24.5206   -9.9971  -15.3175 N   0  0  0  0  0  0  0  0  0  0  0  0
   22.6982   -8.4211  -15.4269 C   0  0  0  0  0  0  0  0  0  0  0  0
   23.4411   -7.6211  -16.0443 O   0  0  0  0  0  0  0  0  0  0  0  0
   21.3260   -8.0918  -15.2992 N   0  0  0  0  0  0  0  0  0  0  0  0
   20.8292   -6.8997  -16.0491 C   0  0  1  0  0  0  0  0  0  0  0  0
   20.9942   -7.2808  -17.4917 C   0  0  0  0  0  0  0  0  0  0  0  0
   20.5221   -6.2134  -18.3851 C   0  0  0  0  0  0  0  0  0  0  0  0
   20.0751   -4.9330  -18.1631 C   0  0  0  0  0  0  0  0  0  0  0  0
   19.8150   -4.2980  -19.3431 N   0  0  0  0  0  0  0  0  0  0  0  0
   20.1072   -5.1962  -20.2817 C   0  0  0  0  0  0  0  0  0  0  0  0
   20.5297   -6.3420  -19.7403 N   0  0  0  0  0  0  0  0  0  0  0  0
   19.3480   -6.8618  -15.7957 C   0  0  0  0  0  0  0  0  0  0  0  0
   18.6277   -5.7167  -15.6551 O   0  0  0  0  0  0  0  0  0  0  0  0
   18.7575   -7.9968  -15.7143 O   0  0  0  0  0  0  0  0  0  0  0  0
  2  1  1  6
  3  4  1  0
  3  2  1  0
  4  5  2  0
  4  9  1  0
  5  6  1  0
  6  7  2  0
  8  7  1  0
  9  8  2  0
 10 11  2  0
 10  2  1  0
 13 12  1  1
 13 14  1  0
 14 10  1  0
 15 13  1  0
 15 17  1  0
 16 15  2  0
 18 17  1  0
 18 25  1  0
 18 19  1  6
 20 21  2  0
 20 19  1  0
 22 21  1  0
 23 24  2  0
 23 22  1  0
 24 20  1  0
 25 26  1  0
 27 25  2  0
M  END
$$$$
