FAH.pdb
     RDKit          3D

 27 28  0  0  1  0  0  0  0  0999 V2000
   15.2130   -7.8377  -10.6769 N   0  0  0  0  0  0  0  0  0  0  0  0
   15.9565   -7.1748   -9.6235 C   0  0  1  0  0  0  0  0  0  0  0  0
   15.5802   -7.8194   -8.3073 C   0  0  0  0  0  0  0  0  0  0  0  0
   14.1601   -7.5362   -8.0484 C   0  0  0  0  0  0  0  0  0  0  0  0
   13.2133   -8.5220   -8.1664 C   0  0  0  0  0  0  0  0  0  0  0  0
   11.8645   -8.2710   -7.9249 C   0  0  0  0  0  0  0  0  0  0  0  0
   11.4955   -6.9961   -7.5605 C   0  0  0  0  0  0  0  0  0  0  0  0
   12.4313   -5.9640   -7.4296 C   0  0  0  0  0  0  0  0  0  0  0  0
   13.7728   -6.2736   -7.6846 C   0  0  0  0  0  0  0  0  0  0  0  0
   17.4271   -7.2546   -9.8749 C   0  0  0  0  0  0  0  0  0  0  0  0
   18.2689   -6.7278   -9.1048 O   0  0  0  0  0  0  0  0  0  0  0  0
   19.7180   -9.2718  -12.0536 C   0  0  0  0  0  0  0  0  0  0  0  0
   19.3101   -8.0025  -11.3860 C   0  0  2  0  0  0  0  0  0  0  0  0
   17.9303   -7.9403  -11.0124 N   0  0  0  0  0  0  0  0  0  0  0  0
   19.6892   -6.8411  -12.2431 C   0  0  0  0  0  0  0  0  0  0  0  0
   20.8819   -6.5766  -12.5271 O   0  0  0  0  0  0  0  0  0  0  0  0
   18.6779   -5.9960  -12.7637 N   0  0  0  0  0  0  0  0  0  0  0  0
   19.1038   -4.8827  -13.6633 C   0  0  1  0  0  0  0  0  0  0  0  0
   18.5280   -5.2522  -14.9995 C   0  0  0  0  0  0  0  0  0  0  0  0
   19.3799   -6.2239  -15.6998 C   0  0  0  0  0  0  0  0  0  0  0  0
   20.5747   -6.8245  -15.3827 C   0  0  0  0  0  0  0  0  0  0  0  0
   20.9352   -7.7254  -16.3427 N   0  0  0  0  0  0  0  0  0  0  0  0
   19.9549   -7.6710  -17.2423 C   0  0  0  0  0  0  0  0  0  0  0  0
   19.0185   -6.7879  -16.8849 N   0  0  0  0  0  0  0  0  0  0  0  0
   18.3327   -3.6797  -13.1966 C   0  0  0  0  0  0  0  0  0  0  0  0
   17.3986   -3.7093  -12.2085 O   0  0  0  0  0  0  0  0  0  0  0  0
   18.5974   -2.5727  -13.7864 O   0  0  0  0  0  0  0  0  0  0  0  0
  2  1  1  6
  3  4  1  0
  3  2  1  0
  4  5  2  0
  4  9  1  0
  5  6  1  0
  6  7  2  0
  8  7  1  0
  9  8  2  0
 10 11  2  0
 10  2  1  0
 13 12  1  6
 13 14  1  0
 14 10  1  0
 15 13  1  0
 15 17  1  0
 16 15  2  0
 18 17  1  0
 18 25  1  0
 18 19  1  6
 20 21  2  0
 20 19  1  0
 22 21  1  0
 23 24  2  0
 23 22  1  0
 24 20  1  0
 25 26  1  0
 27 25  2  0
M  END
$$$$
