IEH.pdb
     RDKit          3D

 28 28  0  0  1  0  0  0  0  0999 V2000
   22.4312  -12.9488  -21.9902 C   0  0  0  0  0  0  0  0  0  0  0  0
   22.6157  -12.8669  -20.5078 C   0  0  0  0  0  0  0  0  0  0  0  0
   21.7256  -11.8430  -19.8858 C   0  0  2  0  0  0  0  0  0  0  0  0
   22.4588  -10.8028  -19.1042 C   0  0  0  0  0  0  0  0  0  0  0  0
   20.7217  -12.5098  -18.9767 C   0  0  2  0  0  0  0  0  0  0  0  0
   19.9689  -13.4344  -19.8318 N   0  0  0  0  0  0  0  0  0  0  0  0
   19.7721  -11.5698  -18.3479 C   0  0  0  0  0  0  0  0  0  0  0  0
   18.9904  -10.8252  -18.9926 O   0  0  0  0  0  0  0  0  0  0  0  0
   19.7249  -11.4887  -16.9271 N   0  0  0  0  0  0  0  0  0  0  0  0
   18.8528  -10.5829  -16.2422 C   0  0  1  0  0  0  0  0  0  0  0  0
   17.8804  -11.1599  -15.3002 C   0  0  0  0  0  0  0  0  0  0  0  0
   16.9585  -12.2156  -15.6868 C   0  0  0  0  0  0  0  0  0  0  0  0
   15.9976  -12.7599  -14.7569 C   0  0  0  0  0  0  0  0  0  0  0  0
   15.1724  -12.1377  -14.0468 O   0  0  0  0  0  0  0  0  0  0  0  0
   19.6194   -9.4303  -15.6746 C   0  0  0  0  0  0  0  0  0  0  0  0
   20.7274   -9.6630  -15.1576 O   0  0  0  0  0  0  0  0  0  0  0  0
   15.9485  -14.1610  -14.5979 O   0  0  0  0  0  0  0  0  0  0  0  0
   19.1354   -8.1279  -15.7085 N   0  0  0  0  0  0  0  0  0  0  0  0
   19.7931   -6.9685  -15.1194 C   0  0  1  0  0  0  0  0  0  0  0  0
   20.6854   -6.2683  -16.0586 C   0  0  0  0  0  0  0  0  0  0  0  0
   21.3552   -5.1161  -15.4119 C   0  0  0  0  0  0  0  0  0  0  0  0
   22.0055   -4.9858  -14.2092 C   0  0  0  0  0  0  0  0  0  0  0  0
   22.5434   -3.7468  -14.0682 N   0  0  0  0  0  0  0  0  0  0  0  0
   22.2322   -3.0897  -15.1906 C   0  0  0  0  0  0  0  0  0  0  0  0
   21.5271   -3.8812  -16.0048 N   0  0  0  0  0  0  0  0  0  0  0  0
   18.6375   -6.0937  -14.7118 C   0  0  0  0  0  0  0  0  0  0  0  0
   18.8132   -4.9664  -14.2690 O   0  0  0  0  0  0  0  0  0  0  0  0
   17.3546   -6.5701  -14.8380 O   0  0  0  0  0  0  0  0  0  0  0  0
  2  1  1  0
  3  2  1  0
  3  4  1  1
  5  3  1  0
  5  6  1  6
  7  5  1  0
  7  8  2  0
  9  7  1  0
 10  9  1  0
 10 11  1  1
 12 11  1  0
 12 13  1  0
 13 17  1  0
 13 14  2  0
 15 10  1  0
 16 15  2  0
 18 15  1  0
 19 18  1  0
 19 26  1  0
 19 20  1  6
 21 25  1  0
 21 20  1  0
 22 21  2  0
 23 22  1  0
 23 24  1  0
 24 25  2  0
 26 28  1  0
 27 26  2  0
M  END
$$$$
