IEH.pdb
     RDKit          3D

 28 28  0  0  1  0  0  0  0  0999 V2000
   27.5118  -16.5621  -16.3425 C   0  0  0  0  0  0  0  0  0  0  0  0
   26.2681  -15.7356  -16.2497 C   0  0  0  0  0  0  0  0  0  0  0  0
   26.5680  -14.2921  -16.0174 C   0  0  2  0  0  0  0  0  0  0  0  0
   27.4433  -14.0421  -14.8333 C   0  0  0  0  0  0  0  0  0  0  0  0
   25.2852  -13.5163  -15.8403 C   0  0  2  0  0  0  0  0  0  0  0  0
   24.4888  -13.7921  -17.0415 N   0  0  0  0  0  0  0  0  0  0  0  0
   25.4827  -12.0570  -15.7303 C   0  0  0  0  0  0  0  0  0  0  0  0
   25.6328  -11.4491  -14.6400 O   0  0  0  0  0  0  0  0  0  0  0  0
   25.5080  -11.2756  -16.9204 N   0  0  0  0  0  0  0  0  0  0  0  0
   25.6344   -9.8496  -16.8953 C   0  0  1  0  0  0  0  0  0  0  0  0
   26.8396   -9.2653  -17.5052 C   0  0  0  0  0  0  0  0  0  0  0  0
   28.1683   -9.8064  -17.2698 C   0  0  0  0  0  0  0  0  0  0  0  0
   29.3509   -9.1661  -17.7951 C   0  0  0  0  0  0  0  0  0  0  0  0
   29.4209   -8.1236  -18.4885 O   0  0  0  0  0  0  0  0  0  0  0  0
   24.3651   -9.1933  -17.3386 C   0  0  0  0  0  0  0  0  0  0  0  0
   23.9691   -9.4098  -18.4984 O   0  0  0  0  0  0  0  0  0  0  0  0
   30.6028   -9.7543  -17.5167 O   0  0  0  0  0  0  0  0  0  0  0  0
   23.6284   -8.3617  -16.5035 N   0  0  0  0  0  0  0  0  0  0  0  0
   22.2009   -8.0947  -16.6256 C   0  0  1  0  0  0  0  0  0  0  0  0
   21.3723   -9.3069  -16.5132 C   0  0  0  0  0  0  0  0  0  0  0  0
   19.9281   -8.9830  -16.5751 C   0  0  0  0  0  0  0  0  0  0  0  0
   19.2572   -7.7947  -16.7314 C   0  0  0  0  0  0  0  0  0  0  0  0
   17.9158   -7.9900  -16.8144 N   0  0  0  0  0  0  0  0  0  0  0  0
   17.7377   -9.3114  -16.7115 C   0  0  0  0  0  0  0  0  0  0  0  0
   18.9174   -9.9234  -16.5689 N   0  0  0  0  0  0  0  0  0  0  0  0
   21.9346   -7.1459  -15.4875 C   0  0  0  0  0  0  0  0  0  0  0  0
   22.8114   -6.8405  -14.6902 O   0  0  0  0  0  0  0  0  0  0  0  0
   20.6784   -6.6092  -15.3376 O   0  0  0  0  0  0  0  0  0  0  0  0
  2  1  1  0
  3  2  1  0
  3  4  1  1
  5  3  1  0
  5  6  1  6
  7  5  1  0
  7  8  2  0
  9  7  1  0
 10  9  1  0
 10 11  1  6
 12 11  1  0
 12 13  1  0
 13 17  1  0
 13 14  2  0
 15 10  1  0
 16 15  2  0
 18 15  1  0
 19 18  1  0
 19 26  1  0
 19 20  1  1
 21 25  1  0
 21 20  1  0
 22 21  2  0
 23 22  1  0
 23 24  1  0
 24 25  2  0
 26 28  1  0
 27 26  2  0
M  END
$$$$
