IEH.pdb
     RDKit          3D

 28 28  0  0  1  0  0  0  0  0999 V2000
   24.3479  -31.3442   -8.5576 C   0  0  0  0  0  0  0  0  0  0  0  0
   25.5501  -32.2340   -8.5237 C   0  0  0  0  0  0  0  0  0  0  0  0
   25.5808  -33.0919   -7.3027 C   0  0  2  0  0  0  0  0  0  0  0  0
   25.4728  -32.3254   -6.0255 C   0  0  0  0  0  0  0  0  0  0  0  0
   26.8522  -33.9051   -7.2703 C   0  0  2  0  0  0  0  0  0  0  0  0
   26.7738  -34.8056   -8.4261 N   0  0  0  0  0  0  0  0  0  0  0  0
   27.0067  -34.7192   -6.0479 C   0  0  0  0  0  0  0  0  0  0  0  0
   26.2419  -35.6664   -5.7338 O   0  0  0  0  0  0  0  0  0  0  0  0
   28.0814  -34.4283   -5.1601 N   0  0  0  0  0  0  0  0  0  0  0  0
   28.2330  -35.0925   -3.9008 C   0  0  1  0  0  0  0  0  0  0  0  0
   29.5418  -34.9928   -3.2353 C   0  0  0  0  0  0  0  0  0  0  0  0
   29.7984  -35.5906   -1.9350 C   0  0  0  0  0  0  0  0  0  0  0  0
   31.1099  -35.5592   -1.3325 C   0  0  0  0  0  0  0  0  0  0  0  0
   31.3985  -35.4690   -0.1155 O   0  0  0  0  0  0  0  0  0  0  0  0
   27.0805  -34.7905   -2.9958 C   0  0  0  0  0  0  0  0  0  0  0  0
   26.4180  -33.7602   -3.2168 O   0  0  0  0  0  0  0  0  0  0  0  0
   32.2328  -35.6370   -2.1833 O   0  0  0  0  0  0  0  0  0  0  0  0
   26.7355  -35.6160   -1.9323 N   0  0  0  0  0  0  0  0  0  0  0  0
   25.5861  -35.4266   -1.0565 C   0  0  1  0  0  0  0  0  0  0  0  0
   24.3046  -35.7589   -1.7012 C   0  0  0  0  0  0  0  0  0  0  0  0
   23.5541  -34.5377   -2.0753 C   0  0  0  0  0  0  0  0  0  0  0  0
   23.8342  -33.2019   -1.9209 C   0  0  0  0  0  0  0  0  0  0  0  0
   22.8812  -32.4257   -2.4988 N   0  0  0  0  0  0  0  0  0  0  0  0
   21.9934  -33.2771   -3.0236 C   0  0  0  0  0  0  0  0  0  0  0  0
   22.3705  -34.5372   -2.7859 N   0  0  0  0  0  0  0  0  0  0  0  0
   25.8762  -36.3581    0.0901 C   0  0  0  0  0  0  0  0  0  0  0  0
   25.1254  -36.4414    1.0529 O   0  0  0  0  0  0  0  0  0  0  0  0
   27.0104  -37.1336    0.0578 O   0  0  0  0  0  0  0  0  0  0  0  0
  2  1  1  0
  3  2  1  0
  3  4  1  1
  5  3  1  0
  5  6  1  6
  7  5  1  0
  7  8  2  0
  9  7  1  0
 10  9  1  0
 10 11  1  1
 12 11  1  0
 12 13  1  0
 13 17  1  0
 13 14  2  0
 15 10  1  0
 16 15  2  0
 18 15  1  0
 19 18  1  0
 19 26  1  0
 19 20  1  6
 21 25  1  0
 21 20  1  0
 22 21  2  0
 23 22  1  0
 23 24  1  0
 24 25  2  0
 26 28  1  0
 27 26  2  0
M  END
$$$$
