IEH.pdb
     RDKit          3D

 28 28  0  0  1  0  0  0  0  0999 V2000
   26.7849  -13.9280  -24.5030 C   0  0  0  0  0  0  0  0  0  0  0  0
   27.2159  -12.4953  -24.4938 C   0  0  0  0  0  0  0  0  0  0  0  0
   26.7638  -11.7798  -23.2645 C   0  0  2  0  0  0  0  0  0  0  0  0
   25.2805  -11.7581  -23.0917 C   0  0  0  0  0  0  0  0  0  0  0  0
   27.2681  -10.3569  -23.2758 C   0  0  2  0  0  0  0  0  0  0  0  0
   28.7258  -10.4565  -23.4106 N   0  0  0  0  0  0  0  0  0  0  0  0
   26.9588   -9.6063  -22.0423 C   0  0  0  0  0  0  0  0  0  0  0  0
   25.8479   -9.6480  -21.4549 O   0  0  0  0  0  0  0  0  0  0  0  0
   27.9677   -8.7808  -21.4692 N   0  0  0  0  0  0  0  0  0  0  0  0
   27.7555   -8.0426  -20.2609 C   0  0  1  0  0  0  0  0  0  0  0  0
   28.8834   -7.9425  -19.3209 C   0  0  0  0  0  0  0  0  0  0  0  0
   29.5383   -9.1166  -18.7672 C   0  0  0  0  0  0  0  0  0  0  0  0
   30.6419   -9.0033  -17.8434 C   0  0  0  0  0  0  0  0  0  0  0  0
   31.1358   -7.9592  -17.3551 O   0  0  0  0  0  0  0  0  0  0  0  0
   27.1004   -6.7282  -20.5465 C   0  0  0  0  0  0  0  0  0  0  0  0
   27.4192   -6.1308  -21.5907 O   0  0  0  0  0  0  0  0  0  0  0  0
   31.2703  -10.1905  -17.4117 O   0  0  0  0  0  0  0  0  0  0  0  0
   26.1606   -6.1657  -19.6909 N   0  0  0  0  0  0  0  0  0  0  0  0
   25.4262   -4.9317  -19.9395 C   0  0  1  0  0  0  0  0  0  0  0  0
   25.9800   -4.1409  -21.0514 C   0  0  0  0  0  0  0  0  0  0  0  0
   25.2180   -2.8872  -21.2562 C   0  0  0  0  0  0  0  0  0  0  0  0
   24.3037   -2.2273  -20.4719 C   0  0  0  0  0  0  0  0  0  0  0  0
   23.9213   -1.0533  -21.0374 N   0  0  0  0  0  0  0  0  0  0  0  0
   24.6001   -0.9697  -22.1866 C   0  0  0  0  0  0  0  0  0  0  0  0
   25.3773   -2.0463  -22.3395 N   0  0  0  0  0  0  0  0  0  0  0  0
   24.0384   -5.4212  -20.2579 C   0  0  0  0  0  0  0  0  0  0  0  0
   23.7953   -6.6129  -20.3928 O   0  0  0  0  0  0  0  0  0  0  0  0
   23.0193   -4.5104  -20.4016 O   0  0  0  0  0  0  0  0  0  0  0  0
  2  1  1  0
  3  2  1  0
  3  4  1  6
  5  3  1  0
  5  6  1  1
  7  5  1  0
  7  8  2  0
  9  7  1  0
 10  9  1  0
 10 11  1  6
 12 11  1  0
 12 13  1  0
 13 17  1  0
 13 14  2  0
 15 10  1  0
 16 15  2  0
 18 15  1  0
 19 18  1  0
 19 26  1  0
 19 20  1  6
 21 25  1  0
 21 20  1  0
 22 21  2  0
 23 22  1  0
 23 24  1  0
 24 25  2  0
 26 28  1  0
 27 26  2  0
M  END
$$$$
