IEH.pdb
     RDKit          3D

 28 28  0  0  1  0  0  0  0  0999 V2000
   33.6147  -32.3353   -6.9662 C   0  0  0  0  0  0  0  0  0  0  0  0
   33.6869  -33.8247   -6.8447 C   0  0  0  0  0  0  0  0  0  0  0  0
   32.8739  -34.3360   -5.7022 C   0  0  2  0  0  0  0  0  0  0  0  0
   33.3009  -33.8039   -4.3737 C   0  0  0  0  0  0  0  0  0  0  0  0
   32.9301  -35.8439   -5.6576 C   0  0  2  0  0  0  0  0  0  0  0  0
   32.3508  -36.2977   -6.9270 N   0  0  0  0  0  0  0  0  0  0  0  0
   32.1561  -36.4355   -4.5478 C   0  0  0  0  0  0  0  0  0  0  0  0
   30.9013  -36.5147   -4.5309 O   0  0  0  0  0  0  0  0  0  0  0  0
   32.8564  -36.9528   -3.4210 N   0  0  0  0  0  0  0  0  0  0  0  0
   32.1802  -37.4016   -2.2415 C   0  0  1  0  0  0  0  0  0  0  0  0
   32.9062  -38.3236   -1.3534 C   0  0  0  0  0  0  0  0  0  0  0  0
   32.3147  -38.8554   -0.1364 C   0  0  0  0  0  0  0  0  0  0  0  0
   32.9959  -39.8414    0.6686 C   0  0  0  0  0  0  0  0  0  0  0  0
   32.5582  -40.4568    1.6697 O   0  0  0  0  0  0  0  0  0  0  0  0
   31.5479  -36.2539   -1.5194 C   0  0  0  0  0  0  0  0  0  0  0  0
   32.2383  -35.2382   -1.3178 O   0  0  0  0  0  0  0  0  0  0  0  0
   34.3195  -40.1832    0.3195 O   0  0  0  0  0  0  0  0  0  0  0  0
   30.2316  -36.2910   -1.0747 N   0  0  0  0  0  0  0  0  0  0  0  0
   29.5520  -35.2170   -0.3617 C   0  0  1  0  0  0  0  0  0  0  0  0
   29.3417  -34.0153   -1.1864 C   0  0  0  0  0  0  0  0  0  0  0  0
   28.6604  -34.3452   -2.4598 C   0  0  0  0  0  0  0  0  0  0  0  0
   28.1519  -35.5216   -2.9537 C   0  0  0  0  0  0  0  0  0  0  0  0
   27.5324  -35.3314   -4.1472 N   0  0  0  0  0  0  0  0  0  0  0  0
   27.6487  -34.0251   -4.4087 C   0  0  0  0  0  0  0  0  0  0  0  0
   28.3142  -33.4173   -3.4217 N   0  0  0  0  0  0  0  0  0  0  0  0
   28.2408  -35.8455    0.0288 C   0  0  0  0  0  0  0  0  0  0  0  0
   27.3882  -35.2184    0.6430 O   0  0  0  0  0  0  0  0  0  0  0  0
   27.9935  -37.1541   -0.3106 O   0  0  0  0  0  0  0  0  0  0  0  0
  2  1  1  0
  3  2  1  0
  3  4  1  1
  5  3  1  0
  5  6  1  6
  7  5  1  0
  7  8  2  0
  9  7  1  0
 10  9  1  0
 10 11  1  1
 12 11  1  0
 12 13  1  0
 13 17  1  0
 13 14  2  0
 15 10  1  0
 16 15  2  0
 18 15  1  0
 19 18  1  0
 19 26  1  0
 19 20  1  6
 21 25  1  0
 21 20  1  0
 22 21  2  0
 23 22  1  0
 23 24  1  0
 24 25  2  0
 26 28  1  0
 27 26  2  0
M  END
$$$$
