IEH.pdb
     RDKit          3D

 28 28  0  0  1  0  0  0  0  0999 V2000
   24.5470  -31.4672   -8.6742 C   0  0  0  0  0  0  0  0  0  0  0  0
   25.8408  -32.2151   -8.6047 C   0  0  0  0  0  0  0  0  0  0  0  0
   25.9728  -32.9944   -7.3387 C   0  0  2  0  0  0  0  0  0  0  0  0
   25.9217  -32.1530   -6.1058 C   0  0  0  0  0  0  0  0  0  0  0  0
   27.2675  -33.7708   -7.3383 C   0  0  2  0  0  0  0  0  0  0  0  0
   27.1716  -34.6974   -8.4720 N   0  0  0  0  0  0  0  0  0  0  0  0
   27.4911  -34.5542   -6.1067 C   0  0  0  0  0  0  0  0  0  0  0  0
   26.7572  -35.5057   -5.7368 O   0  0  0  0  0  0  0  0  0  0  0  0
   28.6002  -34.2264   -5.2760 N   0  0  0  0  0  0  0  0  0  0  0  0
   28.8959  -34.9495   -4.0761 C   0  0  1  0  0  0  0  0  0  0  0  0
   30.3053  -35.0226   -3.6588 C   0  0  0  0  0  0  0  0  0  0  0  0
   31.3103  -35.7246   -4.4406 C   0  0  0  0  0  0  0  0  0  0  0  0
   32.6891  -35.7903   -4.0176 C   0  0  0  0  0  0  0  0  0  0  0  0
   33.1834  -35.4004   -2.9331 O   0  0  0  0  0  0  0  0  0  0  0  0
   27.9680  -34.5530   -2.9715 C   0  0  0  0  0  0  0  0  0  0  0  0
   27.7194  -33.3425   -2.8231 O   0  0  0  0  0  0  0  0  0  0  0  0
   33.6290  -36.3560   -4.9050 O   0  0  0  0  0  0  0  0  0  0  0  0
   27.3858  -35.4849   -2.1206 N   0  0  0  0  0  0  0  0  0  0  0  0
   26.4463  -35.1774   -1.0498 C   0  0  1  0  0  0  0  0  0  0  0  0
   25.0420  -35.1751   -1.4930 C   0  0  0  0  0  0  0  0  0  0  0  0
   24.1138  -35.0139   -0.3498 C   0  0  0  0  0  0  0  0  0  0  0  0
   24.3315  -34.8044    0.9900 C   0  0  0  0  0  0  0  0  0  0  0  0
   23.1634  -34.6327    1.6611 N   0  0  0  0  0  0  0  0  0  0  0  0
   22.2005  -34.7328    0.7385 C   0  0  0  0  0  0  0  0  0  0  0  0
   22.7390  -34.9588   -0.4638 N   0  0  0  0  0  0  0  0  0  0  0  0
   26.6999  -36.2746   -0.0505 C   0  0  0  0  0  0  0  0  0  0  0  0
   27.5290  -37.1504   -0.2582 O   0  0  0  0  0  0  0  0  0  0  0  0
   25.9844  -36.2959    1.1227 O   0  0  0  0  0  0  0  0  0  0  0  0
  2  1  1  0
  3  2  1  0
  3  4  1  1
  5  3  1  0
  5  6  1  6
  7  5  1  0
  7  8  2  0
  9  7  1  0
 10  9  1  0
 10 11  1  1
 12 11  1  0
 12 13  1  0
 13 17  1  0
 13 14  2  0
 15 10  1  0
 16 15  2  0
 18 15  1  0
 19 18  1  0
 19 26  1  0
 19 20  1  6
 21 25  1  0
 21 20  1  0
 22 21  2  0
 23 22  1  0
 23 24  1  0
 24 25  2  0
 26 28  1  0
 27 26  2  0
M  END
$$$$
