IEH.pdb
     RDKit          3D

 28 28  0  0  1  0  0  0  0  0999 V2000
   15.6946  -14.0999  -18.5107 C   0  0  0  0  0  0  0  0  0  0  0  0
   17.0797  -14.5430  -18.1592 C   0  0  0  0  0  0  0  0  0  0  0  0
   17.8750  -13.4518  -17.5232 C   0  0  2  0  0  0  0  0  0  0  0  0
   18.0414  -12.2456  -18.3880 C   0  0  0  0  0  0  0  0  0  0  0  0
   19.2431  -13.9614  -17.1392 C   0  0  2  0  0  0  0  0  0  0  0  0
   19.0040  -15.0650  -16.2022 N   0  0  0  0  0  0  0  0  0  0  0  0
   20.0885  -12.9511  -16.4719 C   0  0  0  0  0  0  0  0  0  0  0  0
   19.8142  -12.4285  -15.3617 O   0  0  0  0  0  0  0  0  0  0  0  0
   21.2908  -12.5319  -17.1095 N   0  0  0  0  0  0  0  0  0  0  0  0
   22.1826  -11.5849  -16.5113 C   0  0  1  0  0  0  0  0  0  0  0  0
   23.6259  -11.7957  -16.7070 C   0  0  0  0  0  0  0  0  0  0  0  0
   24.6228  -10.8824  -16.1726 C   0  0  0  0  0  0  0  0  0  0  0  0
   26.0360  -11.1072  -16.3640 C   0  0  0  0  0  0  0  0  0  0  0  0
   26.6995  -10.9929  -17.4219 O   0  0  0  0  0  0  0  0  0  0  0  0
   21.7419  -10.1836  -16.7951 C   0  0  0  0  0  0  0  0  0  0  0  0
   21.5137   -9.8708  -17.9780 O   0  0  0  0  0  0  0  0  0  0  0  0
   26.8014  -11.5060  -15.2479 O   0  0  0  0  0  0  0  0  0  0  0  0
   21.5832   -9.2372  -15.7897 N   0  0  0  0  0  0  0  0  0  0  0  0
   21.1273   -7.8670  -15.9861 C   0  0  1  0  0  0  0  0  0  0  0  0
   19.7206   -7.7791  -16.4127 C   0  0  0  0  0  0  0  0  0  0  0  0
   19.2986   -6.3715  -16.5998 C   0  0  0  0  0  0  0  0  0  0  0  0
   19.9570   -5.2709  -17.0914 C   0  0  0  0  0  0  0  0  0  0  0  0
   19.1369   -4.1903  -17.1550 N   0  0  0  0  0  0  0  0  0  0  0  0
   17.9513   -4.6113  -16.7018 C   0  0  0  0  0  0  0  0  0  0  0  0
   18.0211   -5.9032  -16.3660 N   0  0  0  0  0  0  0  0  0  0  0  0
   21.3242   -7.2461  -14.6287 C   0  0  0  0  0  0  0  0  0  0  0  0
   21.7808   -7.8874  -13.6917 O   0  0  0  0  0  0  0  0  0  0  0  0
   20.9835   -5.9290  -14.4345 O   0  0  0  0  0  0  0  0  0  0  0  0
  2  1  1  0
  3  2  1  0
  3  4  1  6
  5  3  1  0
  5  6  1  1
  7  5  1  0
  7  8  2  0
  9  7  1  0
 10  9  1  0
 10 11  1  6
 12 11  1  0
 12 13  1  0
 13 17  1  0
 13 14  2  0
 15 10  1  0
 16 15  2  0
 18 15  1  0
 19 18  1  0
 19 26  1  0
 19 20  1  1
 21 25  1  0
 21 20  1  0
 22 21  2  0
 23 22  1  0
 23 24  1  0
 24 25  2  0
 26 28  1  0
 27 26  2  0
M  END
$$$$
