IEH.pdb
     RDKit          3D

 28 28  0  0  1  0  0  0  0  0999 V2000
   14.3548  -14.8222  -17.7678 C   0  0  0  0  0  0  0  0  0  0  0  0
   15.8238  -15.1042  -17.7391 C   0  0  0  0  0  0  0  0  0  0  0  0
   16.5742  -14.0976  -16.9320 C   0  0  2  0  0  0  0  0  0  0  0  0
   16.4373  -12.6985  -17.4363 C   0  0  0  0  0  0  0  0  0  0  0  0
   18.0408  -14.4531  -16.8902 C   0  0  2  0  0  0  0  0  0  0  0  0
   18.1040  -15.7971  -16.3050 N   0  0  0  0  0  0  0  0  0  0  0  0
   18.8512  -13.5389  -16.0607 C   0  0  0  0  0  0  0  0  0  0  0  0
   18.7752  -13.4748  -14.8073 O   0  0  0  0  0  0  0  0  0  0  0  0
   19.7801  -12.6708  -16.7020 N   0  0  0  0  0  0  0  0  0  0  0  0
   20.5448  -11.7011  -15.9776 C   0  0  1  0  0  0  0  0  0  0  0  0
   21.9954  -11.9251  -15.8696 C   0  0  0  0  0  0  0  0  0  0  0  0
   22.8806  -10.9746  -15.2162 C   0  0  0  0  0  0  0  0  0  0  0  0
   24.3065  -11.1901  -15.1493 C   0  0  0  0  0  0  0  0  0  0  0  0
   25.1790  -10.4357  -14.6572 O   0  0  0  0  0  0  0  0  0  0  0  0
   20.1872  -10.3123  -16.4040 C   0  0  0  0  0  0  0  0  0  0  0  0
   20.3283  -10.0147  -17.6043 O   0  0  0  0  0  0  0  0  0  0  0  0
   24.8232  -12.3848  -15.6938 O   0  0  0  0  0  0  0  0  0  0  0  0
   19.7094   -9.3612  -15.5104 N   0  0  0  0  0  0  0  0  0  0  0  0
   19.4068   -7.9737  -15.8378 C   0  0  1  0  0  0  0  0  0  0  0  0
   18.3279   -7.4049  -15.0127 C   0  0  0  0  0  0  0  0  0  0  0  0
   18.1219   -5.9677  -15.3067 C   0  0  0  0  0  0  0  0  0  0  0  0
   17.9034   -5.2907  -16.4816 C   0  0  0  0  0  0  0  0  0  0  0  0
   17.6847   -3.9690  -16.2587 N   0  0  0  0  0  0  0  0  0  0  0  0
   17.7639   -3.8098  -14.9333 C   0  0  0  0  0  0  0  0  0  0  0  0
   18.0224   -4.9819  -14.3452 N   0  0  0  0  0  0  0  0  0  0  0  0
   20.7144   -7.2721  -15.5831 C   0  0  0  0  0  0  0  0  0  0  0  0
   21.6971   -7.8776  -15.1767 O   0  0  0  0  0  0  0  0  0  0  0  0
   20.8090   -5.9201  -15.8108 O   0  0  0  0  0  0  0  0  0  0  0  0
  2  1  1  0
  3  2  1  0
  3  4  1  6
  5  3  1  0
  5  6  1  1
  7  5  1  0
  7  8  2  0
  9  7  1  0
 10  9  1  0
 10 11  1  6
 12 11  1  0
 12 13  1  0
 13 17  1  0
 13 14  2  0
 15 10  1  0
 16 15  2  0
 18 15  1  0
 19 18  1  0
 19 26  1  0
 19 20  1  1
 21 25  1  0
 21 20  1  0
 22 21  2  0
 23 22  1  0
 23 24  1  0
 24 25  2  0
 26 28  1  0
 27 26  2  0
M  END
$$$$
