IEH.pdb
     RDKit          3D

 28 28  0  0  1  0  0  0  0  0999 V2000
   17.8082  -14.7771  -17.0638 C   0  0  0  0  0  0  0  0  0  0  0  0
   19.1368  -14.1917  -17.4251 C   0  0  0  0  0  0  0  0  0  0  0  0
   19.3810  -12.8870  -16.7426 C   0  0  2  0  0  0  0  0  0  0  0  0
   18.3377  -11.8560  -17.0236 C   0  0  0  0  0  0  0  0  0  0  0  0
   20.7262  -12.3330  -17.1455 C   0  0  2  0  0  0  0  0  0  0  0  0
   21.7110  -13.3240  -16.6969 N   0  0  0  0  0  0  0  0  0  0  0  0
   21.0461  -11.0339  -16.5204 C   0  0  0  0  0  0  0  0  0  0  0  0
   21.2831  -10.8839  -15.2948 O   0  0  0  0  0  0  0  0  0  0  0  0
   21.0939   -9.8705  -17.3400 N   0  0  0  0  0  0  0  0  0  0  0  0
   21.3711   -8.5711  -16.8063 C   0  0  1  0  0  0  0  0  0  0  0  0
   22.0557   -7.6094  -17.6852 C   0  0  0  0  0  0  0  0  0  0  0  0
   22.3256   -6.2406  -17.2762 C   0  0  0  0  0  0  0  0  0  0  0  0
   22.9816   -5.3026  -18.1559 C   0  0  0  0  0  0  0  0  0  0  0  0
   23.5504   -5.5371  -19.2486 O   0  0  0  0  0  0  0  0  0  0  0  0
   20.1638   -8.0035  -16.1291 C   0  0  0  0  0  0  0  0  0  0  0  0
   19.0720   -8.0771  -16.7221 O   0  0  0  0  0  0  0  0  0  0  0  0
   23.0084   -3.9440  -17.7760 O   0  0  0  0  0  0  0  0  0  0  0  0
   20.2277   -7.4059  -14.8759 N   0  0  0  0  0  0  0  0  0  0  0  0
   19.1189   -6.7446  -14.1998 C   0  0  1  0  0  0  0  0  0  0  0  0
   19.0996   -6.9839  -12.7469 C   0  0  0  0  0  0  0  0  0  0  0  0
   18.2603   -8.1548  -12.4023 C   0  0  0  0  0  0  0  0  0  0  0  0
   17.5388   -9.0300  -13.1769 C   0  0  0  0  0  0  0  0  0  0  0  0
   16.9824  -10.0147  -12.4251 N   0  0  0  0  0  0  0  0  0  0  0  0
   17.3564   -9.7610  -11.1664 C   0  0  0  0  0  0  0  0  0  0  0  0
   18.1161   -8.6620  -11.1264 N   0  0  0  0  0  0  0  0  0  0  0  0
   19.3525   -5.2897  -14.5087 C   0  0  0  0  0  0  0  0  0  0  0  0
   20.3326   -4.9189  -15.1408 O   0  0  0  0  0  0  0  0  0  0  0  0
   18.4458   -4.3541  -14.0713 O   0  0  0  0  0  0  0  0  0  0  0  0
  2  1  1  0
  3  2  1  0
  3  4  1  6
  5  3  1  0
  5  6  1  1
  7  5  1  0
  7  8  2  0
  9  7  1  0
 10  9  1  0
 10 11  1  6
 12 11  1  0
 12 13  1  0
 13 17  1  0
 13 14  2  0
 15 10  1  0
 16 15  2  0
 18 15  1  0
 19 18  1  0
 19 26  1  0
 19 20  1  1
 21 25  1  0
 21 20  1  0
 22 21  2  0
 23 22  1  0
 23 24  1  0
 24 25  2  0
 26 28  1  0
 27 26  2  0
M  END
$$$$
