IEH.pdb
     RDKit          3D

 28 28  0  0  1  0  0  0  0  0999 V2000
   18.1316  -14.6565  -19.9547 C   0  0  0  0  0  0  0  0  0  0  0  0
   19.5824  -14.4791  -19.6353 C   0  0  0  0  0  0  0  0  0  0  0  0
   19.8445  -13.2091  -18.8963 C   0  0  2  0  0  0  0  0  0  0  0  0
   19.3783  -11.9864  -19.6162 C   0  0  0  0  0  0  0  0  0  0  0  0
   21.3205  -13.0674  -18.6127 C   0  0  2  0  0  0  0  0  0  0  0  0
   21.6720  -14.2164  -17.7704 N   0  0  0  0  0  0  0  0  0  0  0  0
   21.6712  -11.8283  -17.8901 C   0  0  0  0  0  0  0  0  0  0  0  0
   21.3691  -11.6058  -16.6901 O   0  0  0  0  0  0  0  0  0  0  0  0
   22.3955  -10.8135  -18.5781 N   0  0  0  0  0  0  0  0  0  0  0  0
   22.8112   -9.6031  -17.9361 C   0  0  1  0  0  0  0  0  0  0  0  0
   24.1109   -9.0377  -18.3323 C   0  0  0  0  0  0  0  0  0  0  0  0
   24.6264   -7.8038  -17.7618 C   0  0  0  0  0  0  0  0  0  0  0  0
   25.8798   -7.2342  -18.1962 C   0  0  0  0  0  0  0  0  0  0  0  0
   26.7753   -7.7752  -18.8876 O   0  0  0  0  0  0  0  0  0  0  0  0
   21.7035   -8.5975  -17.9242 C   0  0  0  0  0  0  0  0  0  0  0  0
   21.1183   -8.3597  -18.9966 O   0  0  0  0  0  0  0  0  0  0  0  0
   26.1721   -5.9069  -17.8172 O   0  0  0  0  0  0  0  0  0  0  0  0
   21.3168   -7.9327  -16.7666 N   0  0  0  0  0  0  0  0  0  0  0  0
   20.2719   -6.9200  -16.6851 C   0  0  1  0  0  0  0  0  0  0  0  0
   18.9223   -7.4896  -16.5354 C   0  0  0  0  0  0  0  0  0  0  0  0
   17.8920   -6.4280  -16.4597 C   0  0  0  0  0  0  0  0  0  0  0  0
   17.5854   -5.3817  -17.2951 C   0  0  0  0  0  0  0  0  0  0  0  0
   16.4920   -4.7039  -16.8598 N   0  0  0  0  0  0  0  0  0  0  0  0
   16.1038   -5.3273  -15.7421 C   0  0  0  0  0  0  0  0  0  0  0  0
   16.9187   -6.3546  -15.4833 N   0  0  0  0  0  0  0  0  0  0  0  0
   20.6649   -6.1242  -15.4690 C   0  0  0  0  0  0  0  0  0  0  0  0
   21.6353   -6.4310  -14.7894 O   0  0  0  0  0  0  0  0  0  0  0  0
   19.9177   -5.0278  -15.1110 O   0  0  0  0  0  0  0  0  0  0  0  0
  2  1  1  0
  3  2  1  0
  3  4  1  6
  5  3  1  0
  5  6  1  1
  7  5  1  0
  7  8  2  0
  9  7  1  0
 10  9  1  0
 10 11  1  6
 12 11  1  0
 12 13  1  0
 13 17  1  0
 13 14  2  0
 15 10  1  0
 16 15  2  0
 18 15  1  0
 19 18  1  0
 19 26  1  0
 19 20  1  1
 21 25  1  0
 21 20  1  0
 22 21  2  0
 23 22  1  0
 23 24  1  0
 24 25  2  0
 26 28  1  0
 27 26  2  0
M  END
$$$$
