IEH.pdb
     RDKit          3D

 28 28  0  0  1  0  0  0  0  0999 V2000
   28.8533  -12.0322  -16.3989 C   0  0  0  0  0  0  0  0  0  0  0  0
   27.5053  -12.6785  -16.4581 C   0  0  0  0  0  0  0  0  0  0  0  0
   26.4019  -11.6746  -16.5067 C   0  0  2  0  0  0  0  0  0  0  0  0
   26.3028  -10.8291  -15.2796 C   0  0  0  0  0  0  0  0  0  0  0  0
   25.0779  -12.3671  -16.7225 C   0  0  2  0  0  0  0  0  0  0  0  0
   25.2711  -13.2311  -17.8926 N   0  0  0  0  0  0  0  0  0  0  0  0
   23.9606  -11.4418  -16.9988 C   0  0  0  0  0  0  0  0  0  0  0  0
   23.9479  -10.6210  -17.9512 O   0  0  0  0  0  0  0  0  0  0  0  0
   22.8207  -11.4671  -16.1458 N   0  0  0  0  0  0  0  0  0  0  0  0
   21.6700  -10.6492  -16.3841 C   0  0  1  0  0  0  0  0  0  0  0  0
   20.3520  -11.2280  -16.0782 C   0  0  0  0  0  0  0  0  0  0  0  0
   20.0203  -12.6090  -16.3886 C   0  0  0  0  0  0  0  0  0  0  0  0
   19.3113  -13.4469  -15.4507 C   0  0  0  0  0  0  0  0  0  0  0  0
   19.6985  -14.5185  -14.9270 O   0  0  0  0  0  0  0  0  0  0  0  0
   21.8636   -9.2777  -15.8184 C   0  0  0  0  0  0  0  0  0  0  0  0
   22.3599   -9.1790  -14.6813 O   0  0  0  0  0  0  0  0  0  0  0  0
   18.0199  -13.0462  -15.0478 O   0  0  0  0  0  0  0  0  0  0  0  0
   21.5098   -8.1296  -16.5173 N   0  0  0  0  0  0  0  0  0  0  0  0
   21.6688   -6.7647  -16.0320 C   0  0  1  0  0  0  0  0  0  0  0  0
   22.1152   -5.8263  -17.0754 C   0  0  0  0  0  0  0  0  0  0  0  0
   22.1849   -4.4387  -16.5616 C   0  0  0  0  0  0  0  0  0  0  0  0
   22.0638   -3.9186  -15.2962 C   0  0  0  0  0  0  0  0  0  0  0  0
   22.2852   -2.5787  -15.2877 N   0  0  0  0  0  0  0  0  0  0  0  0
   22.5499   -2.2499  -16.5566 C   0  0  0  0  0  0  0  0  0  0  0  0
   22.4969   -3.3368  -17.3327 N   0  0  0  0  0  0  0  0  0  0  0  0
   20.2890   -6.4163  -15.5409 C   0  0  0  0  0  0  0  0  0  0  0  0
   20.1118   -5.5623  -14.6824 O   0  0  0  0  0  0  0  0  0  0  0  0
   19.2014   -7.0716  -16.0665 O   0  0  0  0  0  0  0  0  0  0  0  0
  2  1  1  0
  3  2  1  0
  3  4  1  1
  5  3  1  0
  5  6  1  6
  7  5  1  0
  7  8  2  0
  9  7  1  0
 10  9  1  0
 10 11  1  1
 12 11  1  0
 12 13  1  0
 13 17  1  0
 13 14  2  0
 15 10  1  0
 16 15  2  0
 18 15  1  0
 19 18  1  0
 19 26  1  0
 19 20  1  6
 21 25  1  0
 21 20  1  0
 22 21  2  0
 23 22  1  0
 23 24  1  0
 24 25  2  0
 26 28  1  0
 27 26  2  0
M  END
$$$$
