IEH.pdb
     RDKit          3D

 28 28  0  0  1  0  0  0  0  0999 V2000
   17.9477  -14.3521  -15.8575 C   0  0  0  0  0  0  0  0  0  0  0  0
   18.3725  -13.6436  -17.1048 C   0  0  0  0  0  0  0  0  0  0  0  0
   19.1979  -12.4351  -16.8119 C   0  0  2  0  0  0  0  0  0  0  0  0
   18.5006  -11.4201  -15.9668 C   0  0  0  0  0  0  0  0  0  0  0  0
   19.6293  -11.7753  -18.0994 C   0  0  2  0  0  0  0  0  0  0  0  0
   20.4414  -12.7752  -18.8018 N   0  0  0  0  0  0  0  0  0  0  0  0
   20.4447  -10.5602  -17.9011 C   0  0  0  0  0  0  0  0  0  0  0  0
   21.7005  -10.5599  -17.8388 O   0  0  0  0  0  0  0  0  0  0  0  0
   19.7860   -9.3045  -17.7709 N   0  0  0  0  0  0  0  0  0  0  0  0
   20.5057   -8.0780  -17.6042 C   0  0  1  0  0  0  0  0  0  0  0  0
   20.4542   -7.1066  -18.7085 C   0  0  0  0  0  0  0  0  0  0  0  0
   21.1301   -5.8210  -18.6429 C   0  0  0  0  0  0  0  0  0  0  0  0
   20.4072   -4.5972  -18.3903 C   0  0  0  0  0  0  0  0  0  0  0  0
   19.1698   -4.4041  -18.4549 O   0  0  0  0  0  0  0  0  0  0  0  0
   20.2256   -7.4724  -16.2652 C   0  0  0  0  0  0  0  0  0  0  0  0
   19.1265   -7.7133  -15.7330 O   0  0  0  0  0  0  0  0  0  0  0  0
   21.1471   -3.4535  -18.0226 O   0  0  0  0  0  0  0  0  0  0  0  0
   21.1446   -6.6613  -15.6102 N   0  0  0  0  0  0  0  0  0  0  0  0
   20.9637   -6.0815  -14.2855 C   0  0  1  0  0  0  0  0  0  0  0  0
   21.0961   -7.0659  -13.1983 C   0  0  0  0  0  0  0  0  0  0  0  0
   19.8415   -7.8289  -13.0032 C   0  0  0  0  0  0  0  0  0  0  0  0
   18.6576   -7.8472  -13.6994 C   0  0  0  0  0  0  0  0  0  0  0  0
   17.8030   -8.7768  -13.1996 N   0  0  0  0  0  0  0  0  0  0  0  0
   18.4520   -9.3515  -12.1813 C   0  0  0  0  0  0  0  0  0  0  0  0
   19.6647   -8.8064  -12.0444 N   0  0  0  0  0  0  0  0  0  0  0  0
   22.0536   -5.0451  -14.2170 C   0  0  0  0  0  0  0  0  0  0  0  0
   22.8185   -4.8578  -15.1538 O   0  0  0  0  0  0  0  0  0  0  0  0
   22.1955   -4.2910  -13.0769 O   0  0  0  0  0  0  0  0  0  0  0  0
  2  1  1  0
  3  2  1  0
  3  4  1  1
  5  3  1  0
  5  6  1  6
  7  5  1  0
  7  8  2  0
  9  7  1  0
 10  9  1  0
 10 11  1  6
 12 11  1  0
 12 13  1  0
 13 17  1  0
 13 14  2  0
 15 10  1  0
 16 15  2  0
 18 15  1  0
 19 18  1  0
 19 26  1  0
 19 20  1  1
 21 25  1  0
 21 20  1  0
 22 21  2  0
 23 22  1  0
 23 24  1  0
 24 25  2  0
 26 28  1  0
 27 26  2  0
M  END
$$$$
