IEH.pdb
     RDKit          3D

 28 28  0  0  1  0  0  0  0  0999 V2000
   18.2491  -14.0956  -19.3953 C   0  0  0  0  0  0  0  0  0  0  0  0
   19.4040  -13.5034  -18.6512 C   0  0  0  0  0  0  0  0  0  0  0  0
   19.0050  -12.3065  -17.8537 C   0  0  2  0  0  0  0  0  0  0  0  0
   18.4398  -11.1958  -18.6767 C   0  0  0  0  0  0  0  0  0  0  0  0
   20.1891  -11.7785  -17.0804 C   0  0  2  0  0  0  0  0  0  0  0  0
   20.6614  -12.9038  -16.2657 N   0  0  0  0  0  0  0  0  0  0  0  0
   19.8598  -10.6525  -16.1835 C   0  0  0  0  0  0  0  0  0  0  0  0
   19.0243  -10.7224  -15.2465 O   0  0  0  0  0  0  0  0  0  0  0  0
   20.5187   -9.4050  -16.3766 N   0  0  0  0  0  0  0  0  0  0  0  0
   20.2758   -8.2742  -15.5327 C   0  0  1  0  0  0  0  0  0  0  0  0
   21.4461   -7.5153  -15.0631 C   0  0  0  0  0  0  0  0  0  0  0  0
   21.3208   -6.3519  -14.2001 C   0  0  0  0  0  0  0  0  0  0  0  0
   22.4721   -5.5780  -13.8003 C   0  0  0  0  0  0  0  0  0  0  0  0
   23.6459   -5.6601  -14.2339 O   0  0  0  0  0  0  0  0  0  0  0  0
   19.1932   -7.4096  -16.0971 C   0  0  0  0  0  0  0  0  0  0  0  0
   19.2237   -7.1548  -17.3150 O   0  0  0  0  0  0  0  0  0  0  0  0
   22.2978   -4.5975  -12.8008 O   0  0  0  0  0  0  0  0  0  0  0  0
   18.1709   -6.8918  -15.3107 N   0  0  0  0  0  0  0  0  0  0  0  0
   17.0614   -6.0814  -15.7968 C   0  0  1  0  0  0  0  0  0  0  0  0
   15.7642   -6.4651  -15.2148 C   0  0  0  0  0  0  0  0  0  0  0  0
   15.1930   -7.6486  -15.8986 C   0  0  0  0  0  0  0  0  0  0  0  0
   15.3815   -8.1643  -17.1575 C   0  0  0  0  0  0  0  0  0  0  0  0
   14.7026   -9.3287  -17.3230 N   0  0  0  0  0  0  0  0  0  0  0  0
   14.0817   -9.5515  -16.1596 C   0  0  0  0  0  0  0  0  0  0  0  0
   14.3572   -8.5683  -15.2971 N   0  0  0  0  0  0  0  0  0  0  0  0
   17.4525   -4.6876  -15.3833 C   0  0  0  0  0  0  0  0  0  0  0  0
   18.4918   -4.4683  -14.7755 O   0  0  0  0  0  0  0  0  0  0  0  0
   16.6247   -3.6355  -15.6937 O   0  0  0  0  0  0  0  0  0  0  0  0
  2  1  1  0
  3  2  1  0
  3  4  1  6
  5  3  1  0
  5  6  1  1
  7  5  1  0
  7  8  2  0
  9  7  1  0
 10  9  1  0
 10 11  1  6
 12 11  1  0
 12 13  1  0
 13 17  1  0
 13 14  2  0
 15 10  1  0
 16 15  2  0
 18 15  1  0
 19 18  1  0
 19 26  1  0
 19 20  1  1
 21 25  1  0
 21 20  1  0
 22 21  2  0
 23 22  1  0
 23 24  1  0
 24 25  2  0
 26 28  1  0
 27 26  2  0
M  END
$$$$
