MSF.pdb
     RDKit          3D

 26 26  0  0  1  0  0  0  0  0999 V2000
   28.4745  -12.6033  -15.2954 C   0  0  0  0  0  0  0  0  0  0  0  0
   27.8480  -14.2530  -15.4956 S   0  0  0  0  0  0  0  0  0  0  0  0
   26.1283  -14.5296  -15.2521 C   0  0  0  0  0  0  0  0  0  0  0  0
   25.5647  -15.8989  -15.3761 C   0  0  0  0  0  0  0  0  0  0  0  0
   26.3266  -16.7929  -16.2607 C   0  0  2  0  0  0  0  0  0  0  0  0
   26.2468  -16.3952  -17.6176 N   0  0  0  0  0  0  0  0  0  0  0  0
   25.9453  -18.2377  -16.0954 C   0  0  0  0  0  0  0  0  0  0  0  0
   24.9422  -18.6747  -16.6949 O   0  0  0  0  0  0  0  0  0  0  0  0
   27.9428  -20.9473  -13.3592 O   0  0  0  0  0  0  0  0  0  0  0  0
   27.3884  -21.3750  -14.5613 C   0  0  0  0  0  0  0  0  0  0  0  0
   26.2493  -20.4654  -14.9567 C   0  0  2  0  0  0  0  0  0  0  0  0
   26.6773  -19.1365  -15.2830 N   0  0  0  0  0  0  0  0  0  0  0  0
   25.1658  -20.4973  -13.9593 C   0  0  0  0  0  0  0  0  0  0  0  0
   25.2485  -19.7531  -12.9285 O   0  0  0  0  0  0  0  0  0  0  0  0
   24.0170  -21.3116  -14.0668 N   0  0  0  0  0  0  0  0  0  0  0  0
   23.0154  -21.3845  -12.9917 C   0  0  1  0  0  0  0  0  0  0  0  0
   22.5957  -19.9711  -12.6948 C   0  0  0  0  0  0  0  0  0  0  0  0
   21.4454  -19.8689  -11.7799 C   0  0  0  0  0  0  0  0  0  0  0  0
   20.1292  -19.7963  -12.2173 C   0  0  0  0  0  0  0  0  0  0  0  0
   19.0643  -19.7046  -11.3389 C   0  0  0  0  0  0  0  0  0  0  0  0
   19.3023  -19.6830   -9.9628 C   0  0  0  0  0  0  0  0  0  0  0  0
   20.6043  -19.7545   -9.5217 C   0  0  0  0  0  0  0  0  0  0  0  0
   21.6470  -19.8454  -10.4190 C   0  0  0  0  0  0  0  0  0  0  0  0
   21.9194  -22.2890  -13.3399 C   0  0  0  0  0  0  0  0  0  0  0  0
   21.1731  -22.9567  -12.3754 O   0  0  0  0  0  0  0  0  0  0  0  0
   21.6393  -22.4719  -14.5488 O   0  0  0  0  0  0  0  0  0  0  0  0
  2  3  1  0
  2  1  1  0
  3  4  1  0
  4  5  1  0
  5  6  1  6
  7  5  1  0
  7 12  1  0
  8  7  2  0
  9 10  1  0
 11 10  1  1
 11 12  1  0
 11 13  1  0
 13 14  2  0
 15 13  1  0
 15 16  1  0
 16 24  1  0
 16 17  1  6
 18 17  1  0
 19 18  2  0
 20 19  1  0
 21 20  2  0
 22 21  1  0
 22 23  2  0
 23 18  1  0
 24 26  2  0
 24 25  1  0
M  END
$$$$
