MSF.pdb
     RDKit          3D

 26 26  0  0  1  0  0  0  0  0999 V2000
   30.9723  -22.1638  -16.9207 C   0  0  0  0  0  0  0  0  0  0  0  0
   29.6607  -23.2926  -17.3207 S   0  0  0  0  0  0  0  0  0  0  0  0
   28.0156  -22.8525  -16.8810 C   0  0  0  0  0  0  0  0  0  0  0  0
   27.7672  -21.8920  -15.7748 C   0  0  0  0  0  0  0  0  0  0  0  0
   26.3461  -21.6198  -15.5126 C   0  0  2  0  0  0  0  0  0  0  0  0
   25.6836  -21.1015  -16.6519 N   0  0  0  0  0  0  0  0  0  0  0  0
   26.1348  -20.7375  -14.3138 C   0  0  0  0  0  0  0  0  0  0  0  0
   25.8530  -19.5344  -14.4859 O   0  0  0  0  0  0  0  0  0  0  0  0
   23.5023  -21.5721  -11.8891 O   0  0  0  0  0  0  0  0  0  0  0  0
   24.1669  -20.3538  -11.9847 C   0  0  0  0  0  0  0  0  0  0  0  0
   25.6559  -20.5659  -11.8455 C   0  0  2  0  0  0  0  0  0  0  0  0
   26.2415  -21.2109  -12.9841 N   0  0  0  0  0  0  0  0  0  0  0  0
   25.9873  -21.2257  -10.5709 C   0  0  0  0  0  0  0  0  0  0  0  0
   26.8522  -22.1611  -10.5624 O   0  0  0  0  0  0  0  0  0  0  0  0
   25.4018  -20.8878   -9.3310 N   0  0  0  0  0  0  0  0  0  0  0  0
   26.1460  -20.9989   -8.0667 C   0  0  1  0  0  0  0  0  0  0  0  0
   27.3280  -20.0757   -8.1779 C   0  0  0  0  0  0  0  0  0  0  0  0
   28.0758  -19.9081   -6.9195 C   0  0  0  0  0  0  0  0  0  0  0  0
   29.0832  -20.7729   -6.5119 C   0  0  0  0  0  0  0  0  0  0  0  0
   29.7746  -20.5932   -5.3271 C   0  0  0  0  0  0  0  0  0  0  0  0
   29.4622  -19.5113   -4.5009 C   0  0  0  0  0  0  0  0  0  0  0  0
   28.4648  -18.6499   -4.8982 C   0  0  0  0  0  0  0  0  0  0  0  0
   27.7916  -18.8523   -6.0841 C   0  0  0  0  0  0  0  0  0  0  0  0
   25.2820  -20.7522   -6.9121 C   0  0  0  0  0  0  0  0  0  0  0  0
   25.4977  -21.3595   -5.6802 O   0  0  0  0  0  0  0  0  0  0  0  0
   24.3116  -19.9664   -7.0324 O   0  0  0  0  0  0  0  0  0  0  0  0
  2  3  1  0
  2  1  1  0
  3  4  1  0
  4  5  1  0
  5  6  1  6
  7  5  1  0
  7 12  1  0
  8  7  2  0
  9 10  1  0
 11 10  1  6
 11 12  1  0
 11 13  1  0
 13 14  2  0
 15 13  1  0
 15 16  1  0
 16 24  1  0
 16 17  1  6
 18 17  1  0
 19 18  2  0
 20 19  1  0
 21 20  2  0
 22 21  1  0
 22 23  2  0
 23 18  1  0
 24 26  2  0
 24 25  1  0
M  END
$$$$
