MSF.pdb
     RDKit          3D

 26 26  0  0  1  0  0  0  0  0999 V2000
   20.3821  -16.3220   -0.1288 C   0  0  0  0  0  0  0  0  0  0  0  0
   20.2722  -15.2830    1.3076 S   0  0  0  0  0  0  0  0  0  0  0  0
   18.7091  -15.1065    2.0941 C   0  0  0  0  0  0  0  0  0  0  0  0
   18.5929  -14.3525    3.3692 C   0  0  0  0  0  0  0  0  0  0  0  0
   17.2390  -14.3313    3.9427 C   0  0  2  0  0  0  0  0  0  0  0  0
   16.6763  -13.0317    3.9332 N   0  0  0  0  0  0  0  0  0  0  0  0
   17.1802  -14.9381    5.3170 C   0  0  0  0  0  0  0  0  0  0  0  0
   17.2795  -14.1956    6.3147 O   0  0  0  0  0  0  0  0  0  0  0  0
   16.7502  -19.1384    5.9287 O   0  0  0  0  0  0  0  0  0  0  0  0
   16.3934  -18.2478    6.9361 C   0  0  0  0  0  0  0  0  0  0  0  0
   17.1921  -16.9726    6.8042 C   0  0  2  0  0  0  0  0  0  0  0  0
   17.0161  -16.3267    5.5363 N   0  0  0  0  0  0  0  0  0  0  0  0
   18.6067  -17.1865    7.1548 C   0  0  0  0  0  0  0  0  0  0  0  0
   19.4452  -17.4362    6.2286 O   0  0  0  0  0  0  0  0  0  0  0  0
   19.1105  -17.1333    8.4730 N   0  0  0  0  0  0  0  0  0  0  0  0
   20.5192  -17.4292    8.7768 C   0  0  1  0  0  0  0  0  0  0  0  0
   21.0915  -16.1957    9.4196 C   0  0  0  0  0  0  0  0  0  0  0  0
   22.5088  -16.3235    9.8013 C   0  0  0  0  0  0  0  0  0  0  0  0
   22.9335  -16.4583   11.1168 C   0  0  0  0  0  0  0  0  0  0  0  0
   24.2704  -16.5806   11.4510 C   0  0  0  0  0  0  0  0  0  0  0  0
   25.2390  -16.5701   10.4449 C   0  0  0  0  0  0  0  0  0  0  0  0
   24.8257  -16.4368    9.1387 C   0  0  0  0  0  0  0  0  0  0  0  0
   23.4867  -16.3168    8.8334 C   0  0  0  0  0  0  0  0  0  0  0  0
   20.6519  -18.6514    9.5699 C   0  0  0  0  0  0  0  0  0  0  0  0
   21.7082  -19.5384    9.3958 O   0  0  0  0  0  0  0  0  0  0  0  0
   19.7852  -18.9128   10.4383 O   0  0  0  0  0  0  0  0  0  0  0  0
  2  3  1  0
  2  1  1  0
  3  4  1  0
  4  5  1  0
  5  6  1  1
  7  5  1  0
  7 12  1  0
  8  7  2  0
  9 10  1  0
 11 10  1  6
 11 12  1  0
 11 13  1  0
 13 14  2  0
 15 13  1  0
 15 16  1  0
 16 24  1  0
 16 17  1  1
 18 17  1  0
 19 18  2  0
 20 19  1  0
 21 20  2  0
 22 21  1  0
 22 23  2  0
 23 18  1  0
 24 26  2  0
 24 25  1  0
M  END
$$$$
