MSF.pdb
     RDKit          3D

 26 26  0  0  1  0  0  0  0  0999 V2000
   20.7326  -19.0005  -14.0769 C   0  0  0  0  0  0  0  0  0  0  0  0
   21.7303  -18.0929  -15.2325 S   0  0  0  0  0  0  0  0  0  0  0  0
   23.3031  -18.7456  -15.6722 C   0  0  0  0  0  0  0  0  0  0  0  0
   23.9561  -19.7685  -14.8148 C   0  0  0  0  0  0  0  0  0  0  0  0
   24.8583  -19.2192  -13.7916 C   0  0  2  0  0  0  0  0  0  0  0  0
   25.7931  -18.3073  -14.3393 N   0  0  0  0  0  0  0  0  0  0  0  0
   25.5483  -20.2882  -12.9907 C   0  0  0  0  0  0  0  0  0  0  0  0
   24.8804  -21.2461  -12.5517 O   0  0  0  0  0  0  0  0  0  0  0  0
   29.5936  -20.1445  -12.6291 O   0  0  0  0  0  0  0  0  0  0  0  0
   29.0721  -21.3597  -12.1974 C   0  0  0  0  0  0  0  0  0  0  0  0
   27.6077  -21.2029  -11.8622 C   0  0  2  0  0  0  0  0  0  0  0  0
   26.9347  -20.2600  -12.7069 N   0  0  0  0  0  0  0  0  0  0  0  0
   27.4108  -20.9391  -10.4265 C   0  0  0  0  0  0  0  0  0  0  0  0
   28.1411  -20.0693   -9.8490 O   0  0  0  0  0  0  0  0  0  0  0  0
   26.4495  -21.5959   -9.6272 N   0  0  0  0  0  0  0  0  0  0  0  0
   26.0271  -21.0586   -8.3244 C   0  0  1  0  0  0  0  0  0  0  0  0
   26.8443  -19.8196   -8.0819 C   0  0  0  0  0  0  0  0  0  0  0  0
   27.6221  -19.8521   -6.8310 C   0  0  0  0  0  0  0  0  0  0  0  0
   27.6911  -20.9675   -6.0064 C   0  0  0  0  0  0  0  0  0  0  0  0
   28.4314  -20.9758   -4.8378 C   0  0  0  0  0  0  0  0  0  0  0  0
   29.1395  -19.8330   -4.4589 C   0  0  0  0  0  0  0  0  0  0  0  0
   29.0759  -18.7235   -5.2711 C   0  0  0  0  0  0  0  0  0  0  0  0
   28.3304  -18.7423   -6.4306 C   0  0  0  0  0  0  0  0  0  0  0  0
   24.5789  -20.8579   -8.2708 C   0  0  0  0  0  0  0  0  0  0  0  0
   23.8550  -20.3796   -9.3572 O   0  0  0  0  0  0  0  0  0  0  0  0
   23.9642  -21.1249   -7.2104 O   0  0  0  0  0  0  0  0  0  0  0  0
  2  3  1  0
  2  1  1  0
  3  4  1  0
  4  5  1  0
  5  6  1  6
  7  5  1  0
  7 12  1  0
  8  7  2  0
  9 10  1  0
 11 10  1  1
 11 12  1  0
 11 13  1  0
 13 14  2  0
 15 13  1  0
 15 16  1  0
 16 24  1  0
 16 17  1  6
 18 17  1  0
 19 18  2  0
 20 19  1  0
 21 20  2  0
 22 21  1  0
 22 23  2  0
 23 18  1  0
 24 26  2  0
 24 25  1  0
M  END
$$$$
