MSF.pdb
     RDKit          3D

 26 26  0  0  1  0  0  0  0  0999 V2000
   31.4226  -41.4718   -7.5586 C   0  0  0  0  0  0  0  0  0  0  0  0
   30.3078  -42.7232   -8.1465 S   0  0  0  0  0  0  0  0  0  0  0  0
   28.5844  -42.5032   -7.8728 C   0  0  0  0  0  0  0  0  0  0  0  0
   27.9530  -41.1775   -8.1002 C   0  0  0  0  0  0  0  0  0  0  0  0
   26.5573  -41.0823   -7.6469 C   0  0  2  0  0  0  0  0  0  0  0  0
   25.6892  -41.8905   -8.4207 N   0  0  0  0  0  0  0  0  0  0  0  0
   26.0632  -39.6640   -7.5806 C   0  0  0  0  0  0  0  0  0  0  0  0
   25.1077  -39.3181   -8.3044 O   0  0  0  0  0  0  0  0  0  0  0  0
   24.1794  -36.0664   -6.0431 O   0  0  0  0  0  0  0  0  0  0  0  0
   24.6291  -37.3727   -6.2056 C   0  0  0  0  0  0  0  0  0  0  0  0
   26.1045  -37.3741   -6.5288 C   0  0  2  0  0  0  0  0  0  0  0  0
   26.6361  -38.6908   -6.7272 N   0  0  0  0  0  0  0  0  0  0  0  0
   26.8691  -36.5813   -5.5508 C   0  0  0  0  0  0  0  0  0  0  0  0
   28.0354  -36.9678   -5.2138 O   0  0  0  0  0  0  0  0  0  0  0  0
   26.3909  -35.3976   -4.9470 N   0  0  0  0  0  0  0  0  0  0  0  0
   27.2963  -34.4436   -4.2878 C   0  0  1  0  0  0  0  0  0  0  0  0
   28.1676  -33.8588   -5.3651 C   0  0  0  0  0  0  0  0  0  0  0  0
   27.4172  -33.2015   -6.4495 C   0  0  0  0  0  0  0  0  0  0  0  0
   27.5638  -33.5379   -7.7890 C   0  0  0  0  0  0  0  0  0  0  0  0
   26.8452  -32.9090   -8.7900 C   0  0  0  0  0  0  0  0  0  0  0  0
   25.9375  -31.8997   -8.4607 C   0  0  0  0  0  0  0  0  0  0  0  0
   25.7868  -31.5608   -7.1352 C   0  0  0  0  0  0  0  0  0  0  0  0
   26.5157  -32.2038   -6.1575 C   0  0  0  0  0  0  0  0  0  0  0  0
   26.5560  -33.4601   -3.4970 C   0  0  0  0  0  0  0  0  0  0  0  0
   27.1886  -32.5789   -2.6273 O   0  0  0  0  0  0  0  0  0  0  0  0
   25.3074  -33.4058   -3.6036 O   0  0  0  0  0  0  0  0  0  0  0  0
  2  3  1  0
  2  1  1  0
  3  4  1  0
  4  5  1  0
  5  6  1  6
  7  5  1  0
  7 12  1  0
  8  7  2  0
  9 10  1  0
 11 10  1  1
 11 12  1  0
 11 13  1  0
 13 14  2  0
 15 13  1  0
 15 16  1  0
 16 24  1  0
 16 17  1  6
 18 17  1  0
 19 18  2  0
 20 19  1  0
 21 20  2  0
 22 21  1  0
 22 23  2  0
 23 18  1  0
 24 26  2  0
 24 25  1  0
M  END
$$$$
