MSF.pdb
     RDKit          3D

 26 26  0  0  1  0  0  0  0  0999 V2000
   21.4255  -10.5646  -24.9832 C   0  0  0  0  0  0  0  0  0  0  0  0
   22.4119  -12.0399  -24.9134 S   0  0  0  0  0  0  0  0  0  0  0  0
   22.6288  -12.8278  -23.3560 C   0  0  0  0  0  0  0  0  0  0  0  0
   23.1432  -12.0594  -22.1929 C   0  0  0  0  0  0  0  0  0  0  0  0
   24.4311  -12.5378  -21.6688 C   0  0  2  0  0  0  0  0  0  0  0  0
   24.3334  -13.8404  -21.1217 N   0  0  0  0  0  0  0  0  0  0  0  0
   25.0505  -11.5821  -20.6874 C   0  0  0  0  0  0  0  0  0  0  0  0
   24.7737  -11.6899  -19.4756 O   0  0  0  0  0  0  0  0  0  0  0  0
   27.0144   -8.0200  -21.8755 O   0  0  0  0  0  0  0  0  0  0  0  0
   27.5778   -8.7373  -20.8252 C   0  0  0  0  0  0  0  0  0  0  0  0
   26.5290   -9.6070  -20.1732 C   0  0  2  0  0  0  0  0  0  0  0  0
   25.9424  -10.5540  -21.0758 N   0  0  0  0  0  0  0  0  0  0  0  0
   25.5315   -8.7969  -19.4534 C   0  0  0  0  0  0  0  0  0  0  0  0
   24.3872   -8.6079  -19.9810 O   0  0  0  0  0  0  0  0  0  0  0  0
   25.7579   -8.2017  -18.1929 N   0  0  0  0  0  0  0  0  0  0  0  0
   24.7462   -7.3541  -17.5431 C   0  0  1  0  0  0  0  0  0  0  0  0
   24.7616   -7.7059  -16.0809 C   0  0  0  0  0  0  0  0  0  0  0  0
   23.7789   -6.9591  -15.2762 C   0  0  0  0  0  0  0  0  0  0  0  0
   23.8787   -5.5968  -15.0252 C   0  0  0  0  0  0  0  0  0  0  0  0
   22.9412   -4.9157  -14.2694 C   0  0  0  0  0  0  0  0  0  0  0  0
   21.8515   -5.6054  -13.7329 C   0  0  0  0  0  0  0  0  0  0  0  0
   21.7459   -6.9559  -13.9773 C   0  0  0  0  0  0  0  0  0  0  0  0
   22.6945   -7.6100  -14.7342 C   0  0  0  0  0  0  0  0  0  0  0  0
   24.9655   -5.9373  -17.8349 C   0  0  0  0  0  0  0  0  0  0  0  0
   23.9149   -5.0524  -18.0497 O   0  0  0  0  0  0  0  0  0  0  0  0
   26.1400   -5.5008  -17.8946 O   0  0  0  0  0  0  0  0  0  0  0  0
  2  3  1  0
  2  1  1  0
  3  4  1  0
  4  5  1  0
  5  6  1  1
  7  5  1  0
  7 12  1  0
  8  7  2  0
  9 10  1  0
 11 10  1  6
 11 12  1  0
 11 13  1  0
 13 14  2  0
 15 13  1  0
 15 16  1  0
 16 24  1  0
 16 17  1  1
 18 17  1  0
 19 18  2  0
 20 19  1  0
 21 20  2  0
 22 21  1  0
 22 23  2  0
 23 18  1  0
 24 26  2  0
 24 25  1  0
M  END
$$$$
