MSF.pdb
     RDKit          3D

 26 26  0  0  1  0  0  0  0  0999 V2000
   29.2265  -14.9754  -14.9148 C   0  0  0  0  0  0  0  0  0  0  0  0
   29.2384  -16.1415  -16.2544 S   0  0  0  0  0  0  0  0  0  0  0  0
   27.9823  -17.3715  -16.3033 C   0  0  0  0  0  0  0  0  0  0  0  0
   27.2219  -17.7151  -15.0738 C   0  0  0  0  0  0  0  0  0  0  0  0
   26.3002  -18.8509  -15.2255 C   0  0  2  0  0  0  0  0  0  0  0  0
   25.2900  -18.5933  -16.1840 N   0  0  0  0  0  0  0  0  0  0  0  0
   25.7069  -19.2967  -13.9181 C   0  0  0  0  0  0  0  0  0  0  0  0
   24.8919  -18.5535  -13.3349 O   0  0  0  0  0  0  0  0  0  0  0  0
   25.9027  -23.2203  -12.9806 O   0  0  0  0  0  0  0  0  0  0  0  0
   24.9285  -22.4876  -12.3105 C   0  0  0  0  0  0  0  0  0  0  0  0
   25.3825  -21.0567  -12.1437 C   0  0  2  0  0  0  0  0  0  0  0  0
   26.0318  -20.5327  -13.3096 N   0  0  0  0  0  0  0  0  0  0  0  0
   26.1728  -20.8843  -10.9128 C   0  0  0  0  0  0  0  0  0  0  0  0
   27.4386  -20.7668  -10.9988 O   0  0  0  0  0  0  0  0  0  0  0  0
   25.6154  -20.8388   -9.6161 N   0  0  0  0  0  0  0  0  0  0  0  0
   26.4442  -20.9925   -8.4103 C   0  0  1  0  0  0  0  0  0  0  0  0
   27.3572  -19.7985   -8.3579 C   0  0  0  0  0  0  0  0  0  0  0  0
   28.0205  -19.6102   -7.0558 C   0  0  0  0  0  0  0  0  0  0  0  0
   27.5212  -18.7804   -6.0602 C   0  0  0  0  0  0  0  0  0  0  0  0
   28.1599  -18.6221   -4.8433 C   0  0  0  0  0  0  0  0  0  0  0  0
   29.3477  -19.3121   -4.5902 C   0  0  0  0  0  0  0  0  0  0  0  0
   29.8487  -20.1363   -5.5722 C   0  0  0  0  0  0  0  0  0  0  0  0
   29.1918  -20.2759   -6.7762 C   0  0  0  0  0  0  0  0  0  0  0  0
   25.6226  -21.1888   -7.2158 C   0  0  0  0  0  0  0  0  0  0  0  0
   26.1558  -21.6410   -6.0141 O   0  0  0  0  0  0  0  0  0  0  0  0
   24.3940  -20.9421   -7.2725 O   0  0  0  0  0  0  0  0  0  0  0  0
  2  3  1  0
  2  1  1  0
  3  4  1  0
  4  5  1  0
  5  6  1  6
  7  5  1  0
  7 12  1  0
  8  7  2  0
  9 10  1  0
 11 10  1  6
 11 12  1  0
 11 13  1  0
 13 14  2  0
 15 13  1  0
 15 16  1  0
 16 24  1  0
 16 17  1  1
 18 17  1  0
 19 18  2  0
 20 19  1  0
 21 20  2  0
 22 21  1  0
 22 23  2  0
 23 18  1  0
 24 26  2  0
 24 25  1  0
M  END
$$$$
