MSF.pdb
     RDKit          3D

 26 26  0  0  1  0  0  0  0  0999 V2000
   15.6279   -7.9925   -8.2483 C   0  0  0  0  0  0  0  0  0  0  0  0
   14.0467   -8.4339   -8.9260 S   0  0  0  0  0  0  0  0  0  0  0  0
   13.9561   -8.8561  -10.6309 C   0  0  0  0  0  0  0  0  0  0  0  0
   15.1701   -8.7882  -11.4851 C   0  0  0  0  0  0  0  0  0  0  0  0
   14.9434   -9.1419  -12.8943 C   0  0  2  0  0  0  0  0  0  0  0  0
   14.3950  -10.4398  -13.0366 N   0  0  0  0  0  0  0  0  0  0  0  0
   16.1752   -8.9775  -13.7403 C   0  0  0  0  0  0  0  0  0  0  0  0
   16.4618   -9.8588  -14.5755 O   0  0  0  0  0  0  0  0  0  0  0  0
   16.8571   -5.9149  -16.7280 O   0  0  0  0  0  0  0  0  0  0  0  0
   16.3487   -6.5986  -15.6283 C   0  0  0  0  0  0  0  0  0  0  0  0
   17.4802   -7.0702  -14.7457 C   0  0  2  0  0  0  0  0  0  0  0  0
   17.0357   -7.8586  -13.6338 N   0  0  0  0  0  0  0  0  0  0  0  0
   18.3550   -5.9527  -14.3515 C   0  0  0  0  0  0  0  0  0  0  0  0
   17.9505   -5.1293  -13.4674 O   0  0  0  0  0  0  0  0  0  0  0  0
   19.6380   -5.7241  -14.8955 N   0  0  0  0  0  0  0  0  0  0  0  0
   20.5372   -4.6934  -14.3536 C   0  0  1  0  0  0  0  0  0  0  0  0
   21.8823   -5.3426  -14.1764 C   0  0  0  0  0  0  0  0  0  0  0  0
   21.8505   -6.5708  -13.3632 C   0  0  0  0  0  0  0  0  0  0  0  0
   22.1989   -7.8207  -13.8586 C   0  0  0  0  0  0  0  0  0  0  0  0
   22.1649   -8.9601  -13.0747 C   0  0  0  0  0  0  0  0  0  0  0  0
   21.7695   -8.8691  -11.7382 C   0  0  0  0  0  0  0  0  0  0  0  0
   21.4226   -7.6336  -11.2401 C   0  0  0  0  0  0  0  0  0  0  0  0
   21.4655   -6.5140  -12.0434 C   0  0  0  0  0  0  0  0  0  0  0  0
   20.5416   -3.4922  -15.1888 C   0  0  0  0  0  0  0  0  0  0  0  0
   21.1602   -2.3128  -14.7896 O   0  0  0  0  0  0  0  0  0  0  0  0
   19.9690   -3.5221  -16.3045 O   0  0  0  0  0  0  0  0  0  0  0  0
  2  3  1  0
  2  1  1  0
  3  4  1  0
  4  5  1  0
  5  6  1  1
  7  5  1  0
  7 12  1  0
  8  7  2  0
  9 10  1  0
 11 10  1  1
 11 12  1  0
 11 13  1  0
 13 14  2  0
 15 13  1  0
 15 16  1  0
 16 24  1  0
 16 17  1  6
 18 17  1  0
 19 18  2  0
 20 19  1  0
 21 20  2  0
 22 21  1  0
 22 23  2  0
 23 18  1  0
 24 26  2  0
 24 25  1  0
M  END
$$$$
