MSF.pdb
     RDKit          3D

 26 26  0  0  1  0  0  0  0  0999 V2000
   32.6757  -23.6183  -19.1596 C   0  0  0  0  0  0  0  0  0  0  0  0
   32.6517  -24.8817  -17.9115 S   0  0  0  0  0  0  0  0  0  0  0  0
   31.0947  -25.4151  -17.2916 C   0  0  0  0  0  0  0  0  0  0  0  0
   30.2687  -24.5044  -16.4572 C   0  0  0  0  0  0  0  0  0  0  0  0
   29.2705  -23.7285  -17.2082 C   0  0  2  0  0  0  0  0  0  0  0  0
   29.8610  -22.9531  -18.2357 N   0  0  0  0  0  0  0  0  0  0  0  0
   28.4037  -22.8811  -16.3189 C   0  0  0  0  0  0  0  0  0  0  0  0
   27.7982  -23.4177  -15.3692 O   0  0  0  0  0  0  0  0  0  0  0  0
   27.0765  -18.4073  -14.9156 O   0  0  0  0  0  0  0  0  0  0  0  0
   27.7718  -19.1677  -15.8502 C   0  0  0  0  0  0  0  0  0  0  0  0
   27.4853  -20.6353  -15.6374 C   0  0  2  0  0  0  0  0  0  0  0  0
   28.2391  -21.4882  -16.5092 N   0  0  0  0  0  0  0  0  0  0  0  0
   26.0384  -20.9096  -15.6662 C   0  0  0  0  0  0  0  0  0  0  0  0
   25.4429  -20.9848  -16.7900 O   0  0  0  0  0  0  0  0  0  0  0  0
   25.2473  -21.0992  -14.5119 N   0  0  0  0  0  0  0  0  0  0  0  0
   23.8054  -21.3783  -14.5979 C   0  0  1  0  0  0  0  0  0  0  0  0
   23.5646  -22.6503  -13.8323 C   0  0  0  0  0  0  0  0  0  0  0  0
   22.1432  -23.0227  -13.7242 C   0  0  0  0  0  0  0  0  0  0  0  0
   21.3464  -22.6778  -12.6401 C   0  0  0  0  0  0  0  0  0  0  0  0
   20.0123  -23.0357  -12.5622 C   0  0  0  0  0  0  0  0  0  0  0  0
   19.4307  -23.7685  -13.5993 C   0  0  0  0  0  0  0  0  0  0  0  0
   20.2141  -24.1141  -14.6770 C   0  0  0  0  0  0  0  0  0  0  0  0
   21.5412  -23.7444  -14.7293 C   0  0  0  0  0  0  0  0  0  0  0  0
   23.0098  -20.2344  -14.1518 C   0  0  0  0  0  0  0  0  0  0  0  0
   21.7180  -20.0041  -14.6114 O   0  0  0  0  0  0  0  0  0  0  0  0
   23.5056  -19.4307  -13.3261 O   0  0  0  0  0  0  0  0  0  0  0  0
  2  3  1  0
  2  1  1  0
  3  4  1  0
  4  5  1  0
  5  6  1  6
  7  5  1  0
  7 12  1  0
  8  7  2  0
  9 10  1  0
 11 10  1  6
 11 12  1  0
 11 13  1  0
 13 14  2  0
 15 13  1  0
 15 16  1  0
 16 24  1  0
 16 17  1  1
 18 17  1  0
 19 18  2  0
 20 19  1  0
 21 20  2  0
 22 21  1  0
 22 23  2  0
 23 18  1  0
 24 26  2  0
 24 25  1  0
M  END
$$$$
