MSF.pdb
     RDKit          3D

 26 26  0  0  1  0  0  0  0  0999 V2000
   10.9348  -11.2799  -12.6101 C   0  0  0  0  0  0  0  0  0  0  0  0
   11.5912  -11.7838  -14.1816 S   0  0  0  0  0  0  0  0  0  0  0  0
   13.2922  -11.4833  -14.5124 C   0  0  0  0  0  0  0  0  0  0  0  0
   14.2248  -11.1560  -13.4029 C   0  0  0  0  0  0  0  0  0  0  0  0
   15.6233  -10.9706  -13.8179 C   0  0  2  0  0  0  0  0  0  0  0  0
   16.2612  -12.2015  -14.1070 N   0  0  0  0  0  0  0  0  0  0  0  0
   16.4208  -10.1649  -12.8304 C   0  0  0  0  0  0  0  0  0  0  0  0
   17.0463  -10.7558  -11.9270 O   0  0  0  0  0  0  0  0  0  0  0  0
   17.8920   -6.4216  -13.6095 O   0  0  0  0  0  0  0  0  0  0  0  0
   18.3475   -7.1730  -12.5311 C   0  0  0  0  0  0  0  0  0  0  0  0
   17.2030   -7.9480  -11.9221 C   0  0  2  0  0  0  0  0  0  0  0  0
   16.4970   -8.7522  -12.8762 N   0  0  0  0  0  0  0  0  0  0  0  0
   16.3189   -7.0707  -11.1358 C   0  0  0  0  0  0  0  0  0  0  0  0
   15.2649   -6.6039  -11.6784 O   0  0  0  0  0  0  0  0  0  0  0  0
   16.5616   -6.7023   -9.7943 N   0  0  0  0  0  0  0  0  0  0  0  0
   15.7587   -5.6730   -9.1158 C   0  0  1  0  0  0  0  0  0  0  0  0
   15.2994   -6.2707   -7.8144 C   0  0  0  0  0  0  0  0  0  0  0  0
   14.0515   -7.0469   -7.9207 C   0  0  0  0  0  0  0  0  0  0  0  0
   12.7979   -6.5131   -7.6514 C   0  0  0  0  0  0  0  0  0  0  0  0
   11.6391   -7.2606   -7.7617 C   0  0  0  0  0  0  0  0  0  0  0  0
   11.7135   -8.5985   -8.1558 C   0  0  0  0  0  0  0  0  0  0  0  0
   12.9525   -9.1346   -8.4243 C   0  0  0  0  0  0  0  0  0  0  0  0
   14.0916   -8.3671   -8.3065 C   0  0  0  0  0  0  0  0  0  0  0  0
   16.4962   -4.4161   -8.9865 C   0  0  0  0  0  0  0  0  0  0  0  0
   15.8764   -3.2257   -8.6233 O   0  0  0  0  0  0  0  0  0  0  0  0
   17.7305   -4.4065   -9.2101 O   0  0  0  0  0  0  0  0  0  0  0  0
  2  3  1  0
  2  1  1  0
  3  4  1  0
  4  5  1  0
  5  6  1  1
  7  5  1  0
  7 12  1  0
  8  7  2  0
  9 10  1  0
 11 10  1  6
 11 12  1  0
 11 13  1  0
 13 14  2  0
 15 13  1  0
 15 16  1  0
 16 24  1  0
 16 17  1  1
 18 17  1  0
 19 18  2  0
 20 19  1  0
 21 20  2  0
 22 21  1  0
 22 23  2  0
 23 18  1  0
 24 26  2  0
 24 25  1  0
M  END
$$$$
