MSF.pdb
     RDKit          3D

 26 26  0  0  1  0  0  0  0  0999 V2000
   20.1259  -22.3854  -13.8411 C   0  0  0  0  0  0  0  0  0  0  0  0
   20.4421  -22.4251  -15.5883 S   0  0  0  0  0  0  0  0  0  0  0  0
   22.0972  -22.2122  -16.1435 C   0  0  0  0  0  0  0  0  0  0  0  0
   23.2063  -22.0872  -15.1626 C   0  0  0  0  0  0  0  0  0  0  0  0
   24.5098  -21.7547  -15.7566 C   0  0  2  0  0  0  0  0  0  0  0  0
   24.8854  -22.6737  -16.7665 N   0  0  0  0  0  0  0  0  0  0  0  0
   25.5960  -21.6047  -14.7281 C   0  0  0  0  0  0  0  0  0  0  0  0
   26.3318  -22.5796  -14.4736 O   0  0  0  0  0  0  0  0  0  0  0  0
   26.4916  -17.8739  -12.9214 O   0  0  0  0  0  0  0  0  0  0  0  0
   27.4712  -18.8528  -13.0527 C   0  0  0  0  0  0  0  0  0  0  0  0
   26.8378  -20.2237  -13.0245 C   0  0  2  0  0  0  0  0  0  0  0  0
   25.8268  -20.3975  -14.0261 N   0  0  0  0  0  0  0  0  0  0  0  0
   26.3786  -20.5751  -11.6698 C   0  0  0  0  0  0  0  0  0  0  0  0
   25.1445  -20.4476  -11.3798 O   0  0  0  0  0  0  0  0  0  0  0  0
   27.2272  -21.0537  -10.6474 N   0  0  0  0  0  0  0  0  0  0  0  0
   26.7634  -21.1958   -9.2585 C   0  0  1  0  0  0  0  0  0  0  0  0
   27.9940  -21.2964   -8.3997 C   0  0  0  0  0  0  0  0  0  0  0  0
   27.8429  -20.6898   -7.0655 C   0  0  0  0  0  0  0  0  0  0  0  0
   28.6534  -19.6623   -6.6004 C   0  0  0  0  0  0  0  0  0  0  0  0
   28.4901  -19.1056   -5.3445 C   0  0  0  0  0  0  0  0  0  0  0  0
   27.4816  -19.5803   -4.5028 C   0  0  0  0  0  0  0  0  0  0  0  0
   26.6744  -20.5986   -4.9568 C   0  0  0  0  0  0  0  0  0  0  0  0
   26.8589  -21.1354   -6.2132 C   0  0  0  0  0  0  0  0  0  0  0  0
   25.8432  -20.1206   -8.8874 C   0  0  0  0  0  0  0  0  0  0  0  0
   26.0989  -18.7876   -9.1888 O   0  0  0  0  0  0  0  0  0  0  0  0
   24.7857  -20.4058   -8.2760 O   0  0  0  0  0  0  0  0  0  0  0  0
  2  3  1  0
  2  1  1  0
  3  4  1  0
  4  5  1  0
  5  6  1  6
  7  5  1  0
  7 12  1  0
  8  7  2  0
  9 10  1  0
 11 10  1  1
 11 12  1  0
 11 13  1  0
 13 14  2  0
 15 13  1  0
 15 16  1  0
 16 24  1  0
 16 17  1  1
 18 17  1  0
 19 18  2  0
 20 19  1  0
 21 20  2  0
 22 21  1  0
 22 23  2  0
 23 18  1  0
 24 26  2  0
 24 25  1  0
M  END
$$$$
