MSF.pdb
     RDKit          3D

 26 26  0  0  1  0  0  0  0  0999 V2000
   30.8020  -25.8927  -23.0725 C   0  0  0  0  0  0  0  0  0  0  0  0
   30.8135  -25.3975  -21.3669 S   0  0  0  0  0  0  0  0  0  0  0  0
   32.0136  -26.1109  -20.2972 C   0  0  0  0  0  0  0  0  0  0  0  0
   32.1375  -27.5877  -20.1893 C   0  0  0  0  0  0  0  0  0  0  0  0
   33.0985  -28.0453  -19.1747 C   0  0  2  0  0  0  0  0  0  0  0  0
   34.4197  -27.6254  -19.4639 N   0  0  0  0  0  0  0  0  0  0  0  0
   33.0389  -29.5299  -18.9454 C   0  0  0  0  0  0  0  0  0  0  0  0
   33.6721  -30.2891  -19.7065 O   0  0  0  0  0  0  0  0  0  0  0  0
   33.3993  -33.5073  -17.0974 O   0  0  0  0  0  0  0  0  0  0  0  0
   33.5591  -32.1727  -17.4557 C   0  0  0  0  0  0  0  0  0  0  0  0
   32.2084  -31.5248  -17.6483 C   0  0  2  0  0  0  0  0  0  0  0  0
   32.2905  -30.1150  -17.8961 N   0  0  0  0  0  0  0  0  0  0  0  0
   31.2870  -31.8682  -16.5517 C   0  0  0  0  0  0  0  0  0  0  0  0
   31.4559  -31.3330  -15.4079 O   0  0  0  0  0  0  0  0  0  0  0  0
   30.2062  -32.7680  -16.6807 N   0  0  0  0  0  0  0  0  0  0  0  0
   29.2327  -32.9705  -15.5964 C   0  0  1  0  0  0  0  0  0  0  0  0
   28.7054  -31.6108  -15.2288 C   0  0  0  0  0  0  0  0  0  0  0  0
   27.4492  -31.2527  -15.9103 C   0  0  0  0  0  0  0  0  0  0  0  0
   26.2070  -31.7356  -15.5198 C   0  0  0  0  0  0  0  0  0  0  0  0
   25.0398  -31.3822  -16.1731 C   0  0  0  0  0  0  0  0  0  0  0  0
   25.0938  -30.5117  -17.2640 C   0  0  0  0  0  0  0  0  0  0  0  0
   26.3215  -30.0289  -17.6571 C   0  0  0  0  0  0  0  0  0  0  0  0
   27.4692  -30.3974  -16.9880 C   0  0  0  0  0  0  0  0  0  0  0  0
   28.2074  -33.9448  -15.9708 C   0  0  0  0  0  0  0  0  0  0  0  0
   27.4283  -34.6029  -15.0259 O   0  0  0  0  0  0  0  0  0  0  0  0
   28.0209  -34.1988  -17.1850 O   0  0  0  0  0  0  0  0  0  0  0  0
  2  3  1  0
  2  1  1  0
  3  4  1  0
  4  5  1  0
  5  6  1  6
  7  5  1  0
  7 12  1  0
  8  7  2  0
  9 10  1  0
 11 10  1  1
 11 12  1  0
 11 13  1  0
 13 14  2  0
 15 13  1  0
 15 16  1  0
 16 24  1  0
 16 17  1  6
 18 17  1  0
 19 18  2  0
 20 19  1  0
 21 20  2  0
 22 21  1  0
 22 23  2  0
 23 18  1  0
 24 26  2  0
 24 25  1  0
M  END
$$$$
