MSF.pdb
     RDKit          3D

 26 26  0  0  1  0  0  0  0  0999 V2000
   29.2617  -39.8798   -9.5845 C   0  0  0  0  0  0  0  0  0  0  0  0
   27.8803  -40.9663   -9.3282 S   0  0  0  0  0  0  0  0  0  0  0  0
   27.3686  -41.2932   -7.6776 C   0  0  0  0  0  0  0  0  0  0  0  0
   28.3758  -41.5860   -6.6251 C   0  0  0  0  0  0  0  0  0  0  0  0
   27.8047  -41.9083   -5.3089 C   0  0  2  0  0  0  0  0  0  0  0  0
   26.8776  -42.9766   -5.3772 N   0  0  0  0  0  0  0  0  0  0  0  0
   27.2037  -40.7108   -4.6271 C   0  0  0  0  0  0  0  0  0  0  0  0
   25.9953  -40.4541   -4.8015 O   0  0  0  0  0  0  0  0  0  0  0  0
   27.6669  -39.7630   -1.0330 O   0  0  0  0  0  0  0  0  0  0  0  0
   27.8581  -38.5574   -1.7001 C   0  0  0  0  0  0  0  0  0  0  0  0
   27.4177  -38.6882   -3.1389 C   0  0  2  0  0  0  0  0  0  0  0  0
   27.9508  -39.8505   -3.7873 N   0  0  0  0  0  0  0  0  0  0  0  0
   27.6584  -37.4437   -3.8892 C   0  0  0  0  0  0  0  0  0  0  0  0
   28.8497  -37.1413   -4.2248 O   0  0  0  0  0  0  0  0  0  0  0  0
   26.6406  -36.5424   -4.2715 N   0  0  0  0  0  0  0  0  0  0  0  0
   26.9382  -35.3046   -5.0088 C   0  0  1  0  0  0  0  0  0  0  0  0
   26.2357  -35.4111   -6.3344 C   0  0  0  0  0  0  0  0  0  0  0  0
   26.3493  -34.2028   -7.1697 C   0  0  0  0  0  0  0  0  0  0  0  0
   27.3059  -34.0531   -8.1655 C   0  0  0  0  0  0  0  0  0  0  0  0
   27.3910  -32.9100   -8.9402 C   0  0  0  0  0  0  0  0  0  0  0  0
   26.4932  -31.8614   -8.7275 C   0  0  0  0  0  0  0  0  0  0  0  0
   25.5424  -32.0025   -7.7422 C   0  0  0  0  0  0  0  0  0  0  0  0
   25.4797  -33.1526   -6.9846 C   0  0  0  0  0  0  0  0  0  0  0  0
   26.5934  -34.1177   -4.2260 C   0  0  0  0  0  0  0  0  0  0  0  0
   27.3961  -32.9826   -4.2061 O   0  0  0  0  0  0  0  0  0  0  0  0
   25.5383  -34.1189   -3.5476 O   0  0  0  0  0  0  0  0  0  0  0  0
  2  3  1  0
  2  1  1  0
  3  4  1  0
  4  5  1  0
  5  6  1  6
  7  5  1  0
  7 12  1  0
  8  7  2  0
  9 10  1  0
 11 10  1  1
 11 12  1  0
 11 13  1  0
 13 14  2  0
 15 13  1  0
 15 16  1  0
 16 24  1  0
 16 17  1  6
 18 17  1  0
 19 18  2  0
 20 19  1  0
 21 20  2  0
 22 21  1  0
 22 23  2  0
 23 18  1  0
 24 26  2  0
 24 25  1  0
M  END
$$$$
