MSF.pdb
     RDKit          3D

 26 26  0  0  1  0  0  0  0  0999 V2000
   23.6164  -17.7254  -15.7561 C   0  0  0  0  0  0  0  0  0  0  0  0
   22.8980  -16.1337  -15.4322 S   0  0  0  0  0  0  0  0  0  0  0  0
   23.9699  -14.7986  -15.0302 C   0  0  0  0  0  0  0  0  0  0  0  0
   23.5363  -13.3955  -15.2561 C   0  0  0  0  0  0  0  0  0  0  0  0
   22.8395  -13.1715  -16.5315 C   0  0  2  0  0  0  0  0  0  0  0  0
   23.6899  -13.3723  -17.6460 N   0  0  0  0  0  0  0  0  0  0  0  0
   22.1657  -11.8292  -16.5979 C   0  0  0  0  0  0  0  0  0  0  0  0
   22.8662  -10.8002  -16.6805 O   0  0  0  0  0  0  0  0  0  0  0  0
   17.9471  -11.2433  -15.9817 O   0  0  0  0  0  0  0  0  0  0  0  0
   18.6196  -10.5344  -16.9718 C   0  0  0  0  0  0  0  0  0  0  0  0
   20.0822  -10.4114  -16.6153 C   0  0  2  0  0  0  0  0  0  0  0  0
   20.7590  -11.6745  -16.5708 N   0  0  0  0  0  0  0  0  0  0  0  0
   20.2716   -9.6086  -15.3950 C   0  0  0  0  0  0  0  0  0  0  0  0
   20.2126  -10.1822  -14.2588 O   0  0  0  0  0  0  0  0  0  0  0  0
   20.5193   -8.2182  -15.3946 N   0  0  0  0  0  0  0  0  0  0  0  0
   20.6357   -7.4521  -14.1441 C   0  0  1  0  0  0  0  0  0  0  0  0
   22.0518   -7.6178  -13.6654 C   0  0  0  0  0  0  0  0  0  0  0  0
   23.0615   -7.0599  -14.5819 C   0  0  0  0  0  0  0  0  0  0  0  0
   23.8749   -7.8461  -15.3879 C   0  0  0  0  0  0  0  0  0  0  0  0
   24.8140   -7.2992  -16.2440 C   0  0  0  0  0  0  0  0  0  0  0  0
   24.9630   -5.9122  -16.3130 C   0  0  0  0  0  0  0  0  0  0  0  0
   24.1605   -5.1265  -15.5171 C   0  0  0  0  0  0  0  0  0  0  0  0
   23.2323   -5.6976  -14.6727 C   0  0  0  0  0  0  0  0  0  0  0  0
   20.2077   -6.0645  -14.3231 C   0  0  0  0  0  0  0  0  0  0  0  0
   19.8172   -5.5617  -15.5591 O   0  0  0  0  0  0  0  0  0  0  0  0
   20.1906   -5.2979  -13.3304 O   0  0  0  0  0  0  0  0  0  0  0  0
  2  3  1  0
  2  1  1  0
  3  4  1  0
  4  5  1  0
  5  6  1  6
  7  5  1  0
  7 12  1  0
  8  7  2  0
  9 10  1  0
 11 10  1  1
 11 12  1  0
 11 13  1  0
 13 14  2  0
 15 13  1  0
 15 16  1  0
 16 24  1  0
 16 17  1  6
 18 17  1  0
 19 18  2  0
 20 19  1  0
 21 20  2  0
 22 21  1  0
 22 23  2  0
 23 18  1  0
 24 26  2  0
 24 25  1  0
M  END
$$$$
