MGK.pdb
     RDKit          3D

 22 21  0  0  1  0  0  0  0  0999 V2000
    5.8777  -11.7866   27.7960 C   0  0  0  0  0  0  0  0  0  0  0  0
    7.3865  -12.3556   26.9873 S   0  0  0  0  0  0  0  0  0  0  0  0
    7.0544  -13.4475   25.6035 C   0  0  0  0  0  0  0  0  0  0  0  0
    8.3185  -13.8429   24.8683 C   0  0  0  0  0  0  0  0  0  0  0  0
    7.9623  -14.7006   23.6655 C   0  0  2  0  0  0  0  0  0  0  0  0
    7.2892  -15.9166   24.0713 N   0  0  0  0  0  0  0  0  0  0  0  0
    9.2436  -15.0752   23.0181 C   0  0  0  0  0  0  0  0  0  0  0  0
   10.0157  -14.2051   22.5707 O   0  0  0  0  0  0  0  0  0  0  0  0
    9.5490  -16.4534   22.9311 N   0  0  0  0  0  0  0  0  0  0  0  0
   10.8123  -16.8940   22.3982 C   0  0  0  0  0  0  0  0  0  0  0  0
   11.6518  -17.5513   23.4492 C   0  0  0  0  0  0  0  0  0  0  0  0
   12.8332  -17.9496   23.1711 O   0  0  0  0  0  0  0  0  0  0  0  0
   11.1780  -17.7493   24.7536 N   0  0  0  0  0  0  0  0  0  0  0  0
   11.9554  -18.4840   25.7957 C   0  0  1  0  0  0  0  0  0  0  0  0
   11.1172  -18.7071   26.9577 C   0  0  0  0  0  0  0  0  0  0  0  0
   11.3526  -19.6317   28.0490 C   0  0  0  0  0  0  0  0  0  0  0  0
   11.6631  -19.1130   29.4129 C   0  0  0  0  0  0  0  0  0  0  0  0
   11.7769  -20.0319   30.5517 C   0  0  0  0  0  0  0  0  0  0  0  0
   12.2251  -19.3776   31.7785 N   0  0  0  0  0  0  0  0  0  0  0  0
   12.5278  -19.6322   25.0961 C   0  0  0  0  0  0  0  0  0  0  0  0
   11.7275  -20.3874   24.2410 O   0  0  0  0  0  0  0  0  0  0  0  0
   13.6949  -20.0747   25.1447 O   0  0  0  0  0  0  0  0  0  0  0  0
  2  1  1  0
  3  2  1  0
  4  3  1  0
  4  5  1  0
  5  6  1  1
  7  5  1  0
  7  8  2  0
  9  7  1  0
 10  9  1  0
 10 11  1  0
 11 13  1  0
 12 11  2  0
 13 14  1  0
 14 20  1  0
 14 15  1  1
 15 16  1  0
 16 17  1  0
 18 17  1  0
 19 18  1  0
 20 21  1  0
 22 20  2  0
M  END
$$$$
