MGK.pdb
     RDKit          3D

 22 21  0  0  1  0  0  0  0  0999 V2000
    7.7658  -12.0201   20.7755 C   0  0  0  0  0  0  0  0  0  0  0  0
    6.3160  -13.0114   20.3639 S   0  0  0  0  0  0  0  0  0  0  0  0
    6.6453  -14.7732   20.4357 C   0  0  0  0  0  0  0  0  0  0  0  0
    8.0951  -15.0986   20.1410 C   0  0  0  0  0  0  0  0  0  0  0  0
    8.3086  -16.6006   20.2265 C   0  0  2  0  0  0  0  0  0  0  0  0
    7.5694  -17.1718   21.3327 N   0  0  0  0  0  0  0  0  0  0  0  0
    9.7555  -16.8089   20.4805 C   0  0  0  0  0  0  0  0  0  0  0  0
   10.6178  -16.2991   19.7389 O   0  0  0  0  0  0  0  0  0  0  0  0
   10.1116  -17.6059   21.5933 N   0  0  0  0  0  0  0  0  0  0  0  0
   11.4050  -17.4687   22.2116 C   0  0  0  0  0  0  0  0  0  0  0  0
   11.3002  -16.8529   23.5721 C   0  0  0  0  0  0  0  0  0  0  0  0
   12.3566  -16.5353   24.2163 O   0  0  0  0  0  0  0  0  0  0  0  0
   10.0594  -16.6075   24.1764 N   0  0  0  0  0  0  0  0  0  0  0  0
    9.9190  -15.8837   25.4750 C   0  0  1  0  0  0  0  0  0  0  0  0
    8.8418  -14.9180   25.3774 C   0  0  0  0  0  0  0  0  0  0  0  0
    8.3866  -13.9996   26.4024 C   0  0  0  0  0  0  0  0  0  0  0  0
    7.2250  -13.1017   26.1375 C   0  0  0  0  0  0  0  0  0  0  0  0
    6.7868  -12.1321   27.1484 C   0  0  0  0  0  0  0  0  0  0  0  0
    5.6809  -11.2901   26.6992 N   0  0  0  0  0  0  0  0  0  0  0  0
    9.8452  -16.9371   26.4850 C   0  0  0  0  0  0  0  0  0  0  0  0
    9.7144  -18.2661   26.0866 O   0  0  0  0  0  0  0  0  0  0  0  0
    9.8826  -16.8312   27.7292 O   0  0  0  0  0  0  0  0  0  0  0  0
  2  1  1  0
  3  2  1  0
  4  3  1  0
  4  5  1  0
  5  6  1  1
  7  5  1  0
  7  8  2  0
  9  7  1  0
 10  9  1  0
 10 11  1  0
 11 13  1  0
 12 11  2  0
 13 14  1  0
 14 20  1  0
 14 15  1  6
 15 16  1  0
 16 17  1  0
 18 17  1  0
 19 18  1  0
 20 21  1  0
 22 20  2  0
M  END
$$$$
