MGK.pdb
     RDKit          3D

 22 21  0  0  1  0  0  0  0  0999 V2000
    7.4946  -12.2075   18.6517 C   0  0  0  0  0  0  0  0  0  0  0  0
    7.8008  -11.9300   20.4077 S   0  0  0  0  0  0  0  0  0  0  0  0
    7.6669  -13.4349   21.3747 C   0  0  0  0  0  0  0  0  0  0  0  0
    7.7783  -14.6793   20.5180 C   0  0  0  0  0  0  0  0  0  0  0  0
    7.7094  -15.9143   21.4007 C   0  0  2  0  0  0  0  0  0  0  0  0
    6.8061  -15.7118   22.5139 N   0  0  0  0  0  0  0  0  0  0  0  0
    9.0740  -16.1228   21.9446 C   0  0  0  0  0  0  0  0  0  0  0  0
    9.9943  -16.5535   21.2227 O   0  0  0  0  0  0  0  0  0  0  0  0
    9.2840  -15.8137   23.3086 N   0  0  0  0  0  0  0  0  0  0  0  0
   10.5953  -15.9239   23.8937 C   0  0  0  0  0  0  0  0  0  0  0  0
   10.8219  -17.2827   24.4800 C   0  0  0  0  0  0  0  0  0  0  0  0
    9.8602  -17.9080   25.0421 O   0  0  0  0  0  0  0  0  0  0  0  0
   12.0769  -17.9055   24.4333 N   0  0  0  0  0  0  0  0  0  0  0  0
   12.3219  -19.2770   24.9710 C   0  0  1  0  0  0  0  0  0  0  0  0
   11.9126  -20.2624   23.9892 C   0  0  0  0  0  0  0  0  0  0  0  0
   12.2623  -20.3027   22.5830 C   0  0  0  0  0  0  0  0  0  0  0  0
   11.7807  -21.4248   21.7260 C   0  0  0  0  0  0  0  0  0  0  0  0
   12.1433  -21.4862   20.3051 C   0  0  0  0  0  0  0  0  0  0  0  0
   11.5416  -22.6179   19.6043 N   0  0  0  0  0  0  0  0  0  0  0  0
   13.7094  -19.2576   25.4288 C   0  0  0  0  0  0  0  0  0  0  0  0
   14.2143  -20.3415   26.1445 O   0  0  0  0  0  0  0  0  0  0  0  0
   14.5719  -18.3677   25.2720 O   0  0  0  0  0  0  0  0  0  0  0  0
  2  1  1  0
  3  2  1  0
  4  3  1  0
  4  5  1  0
  5  6  1  1
  7  5  1  0
  7  8  2  0
  9  7  1  0
 10  9  1  0
 10 11  1  0
 11 13  1  0
 12 11  2  0
 13 14  1  0
 14 20  1  0
 14 15  1  6
 15 16  1  0
 16 17  1  0
 18 17  1  0
 19 18  1  0
 20 21  1  0
 22 20  2  0
M  END
$$$$
