MGK.pdb
     RDKit          3D

 22 21  0  0  1  0  0  0  0  0999 V2000
    5.7497  -11.0831   26.9045 C   0  0  0  0  0  0  0  0  0  0  0  0
    7.0930  -12.1210   26.2941 S   0  0  0  0  0  0  0  0  0  0  0  0
    6.5034  -13.6524   25.5699 C   0  0  0  0  0  0  0  0  0  0  0  0
    7.6321  -14.4966   25.0148 C   0  0  0  0  0  0  0  0  0  0  0  0
    7.0671  -15.7735   24.4153 C   0  0  2  0  0  0  0  0  0  0  0  0
    6.3632  -16.5524   25.4123 N   0  0  0  0  0  0  0  0  0  0  0  0
    8.2270  -16.5683   23.9417 C   0  0  0  0  0  0  0  0  0  0  0  0
    9.0228  -17.0869   24.7487 O   0  0  0  0  0  0  0  0  0  0  0  0
    8.3895  -16.7111   22.5440 N   0  0  0  0  0  0  0  0  0  0  0  0
    9.3531  -15.9130   21.8309 C   0  0  0  0  0  0  0  0  0  0  0  0
   10.7311  -16.0882   22.3890 C   0  0  0  0  0  0  0  0  0  0  0  0
   11.7491  -15.7077   21.7175 O   0  0  0  0  0  0  0  0  0  0  0  0
   10.9487  -16.6666   23.6473 N   0  0  0  0  0  0  0  0  0  0  0  0
   12.2343  -16.5245   24.3936 C   0  0  1  0  0  0  0  0  0  0  0  0
   12.0134  -15.7421   25.5942 C   0  0  0  0  0  0  0  0  0  0  0  0
   11.1159  -16.0464   26.6912 C   0  0  0  0  0  0  0  0  0  0  0  0
   11.0347  -15.1298   27.8654 C   0  0  0  0  0  0  0  0  0  0  0  0
   10.0695  -15.3815   28.9421 C   0  0  0  0  0  0  0  0  0  0  0  0
   10.1085  -14.3740   29.9991 N   0  0  0  0  0  0  0  0  0  0  0  0
   12.7509  -17.8862   24.5127 C   0  0  0  0  0  0  0  0  0  0  0  0
   14.0624  -18.0912   24.9368 O   0  0  0  0  0  0  0  0  0  0  0  0
   12.1683  -18.9664   24.2801 O   0  0  0  0  0  0  0  0  0  0  0  0
  2  1  1  0
  3  2  1  0
  4  3  1  0
  4  5  1  0
  5  6  1  1
  7  5  1  0
  7  8  2  0
  9  7  1  0
 10  9  1  0
 10 11  1  0
 11 13  1  0
 12 11  2  0
 13 14  1  0
 14 20  1  0
 14 15  1  1
 15 16  1  0
 16 17  1  0
 18 17  1  0
 19 18  1  0
 20 21  1  0
 22 20  2  0
M  END
$$$$
