MGK.pdb
     RDKit          3D

 22 21  0  0  1  0  0  0  0  0999 V2000
    7.0831  -10.9912   25.7092 C   0  0  0  0  0  0  0  0  0  0  0  0
    6.5420  -12.0475   27.0676 S   0  0  0  0  0  0  0  0  0  0  0  0
    7.3419  -13.6530   27.0502 C   0  0  0  0  0  0  0  0  0  0  0  0
    6.9601  -14.4712   25.8339 C   0  0  0  0  0  0  0  0  0  0  0  0
    6.8070  -15.9307   26.2281 C   0  0  2  0  0  0  0  0  0  0  0  0
    7.9409  -16.3839   27.0062 N   0  0  0  0  0  0  0  0  0  0  0  0
    6.7718  -16.7091   24.9655 C   0  0  0  0  0  0  0  0  0  0  0  0
    5.9228  -16.4677   24.0856 O   0  0  0  0  0  0  0  0  0  0  0  0
    7.7372  -17.7301   24.8046 N   0  0  0  0  0  0  0  0  0  0  0  0
    7.7864  -18.5109   23.5955 C   0  0  0  0  0  0  0  0  0  0  0  0
    8.8495  -18.0151   22.6652 C   0  0  0  0  0  0  0  0  0  0  0  0
    9.0931  -18.6394   21.5776 O   0  0  0  0  0  0  0  0  0  0  0  0
    9.6021  -16.8676   22.9508 N   0  0  0  0  0  0  0  0  0  0  0  0
   10.6453  -16.3313   22.0266 C   0  0  1  0  0  0  0  0  0  0  0  0
   10.1624  -15.1131   21.4059 C   0  0  0  0  0  0  0  0  0  0  0  0
    9.0519  -14.9743   20.4846 C   0  0  0  0  0  0  0  0  0  0  0  0
    8.7876  -13.6618   19.8265 C   0  0  0  0  0  0  0  0  0  0  0  0
    7.7280  -13.5330   18.8191 C   0  0  0  0  0  0  0  0  0  0  0  0
    7.5555  -12.1658   18.3346 N   0  0  0  0  0  0  0  0  0  0  0  0
   11.8683  -16.2905   22.8252 C   0  0  0  0  0  0  0  0  0  0  0  0
   13.0885  -16.0304   22.2044 O   0  0  0  0  0  0  0  0  0  0  0  0
   12.0050  -16.4628   24.0549 O   0  0  0  0  0  0  0  0  0  0  0  0
  2  1  1  0
  3  2  1  0
  4  3  1  0
  4  5  1  0
  5  6  1  1
  7  5  1  0
  7  8  2  0
  9  7  1  0
 10  9  1  0
 10 11  1  0
 11 13  1  0
 12 11  2  0
 13 14  1  0
 14 20  1  0
 14 15  1  1
 15 16  1  0
 16 17  1  0
 18 17  1  0
 19 18  1  0
 20 21  1  0
 22 20  2  0
M  END
$$$$
