MGK.pdb
     RDKit          3D

 22 21  0  0  1  0  0  0  0  0999 V2000
    4.8220  -11.4482   27.1416 C   0  0  0  0  0  0  0  0  0  0  0  0
    6.6119  -11.5000   26.9229 S   0  0  0  0  0  0  0  0  0  0  0  0
    7.2089  -13.1454   26.5309 C   0  0  0  0  0  0  0  0  0  0  0  0
    6.4530  -13.7702   25.3764 C   0  0  0  0  0  0  0  0  0  0  0  0
    7.0101  -15.1550   25.0914 C   0  0  2  0  0  0  0  0  0  0  0  0
    8.0531  -15.5030   26.0334 N   0  0  0  0  0  0  0  0  0  0  0  0
    7.6109  -15.0990   23.7360 C   0  0  0  0  0  0  0  0  0  0  0  0
    6.9060  -15.2208   22.7153 O   0  0  0  0  0  0  0  0  0  0  0  0
    9.0091  -14.9028   23.6527 N   0  0  0  0  0  0  0  0  0  0  0  0
    9.6797  -14.9253   22.3784 C   0  0  0  0  0  0  0  0  0  0  0  0
   10.5948  -16.1044   22.2609 C   0  0  0  0  0  0  0  0  0  0  0  0
   11.3934  -16.2009   21.2685 O   0  0  0  0  0  0  0  0  0  0  0  0
   10.6066  -17.1266   23.2200 N   0  0  0  0  0  0  0  0  0  0  0  0
   11.8176  -17.9501   23.5123 C   0  0  1  0  0  0  0  0  0  0  0  0
   11.9040  -18.1949   24.9389 C   0  0  0  0  0  0  0  0  0  0  0  0
   12.1270  -17.2198   25.9880 C   0  0  0  0  0  0  0  0  0  0  0  0
   11.4513  -17.3767   27.3087 C   0  0  0  0  0  0  0  0  0  0  0  0
   11.6764  -16.4009   28.3817 C   0  0  0  0  0  0  0  0  0  0  0  0
   10.8255  -16.6199   29.5487 N   0  0  0  0  0  0  0  0  0  0  0  0
   11.7289  -19.0851   22.5963 C   0  0  0  0  0  0  0  0  0  0  0  0
   10.4881  -19.4665   22.0893 O   0  0  0  0  0  0  0  0  0  0  0  0
   12.6460  -19.8165   22.1667 O   0  0  0  0  0  0  0  0  0  0  0  0
  2  1  1  0
  3  2  1  0
  4  3  1  0
  4  5  1  0
  5  6  1  1
  7  5  1  0
  7  8  2  0
  9  7  1  0
 10  9  1  0
 10 11  1  0
 11 13  1  0
 12 11  2  0
 13 14  1  0
 14 20  1  0
 14 15  1  1
 15 16  1  0
 16 17  1  0
 18 17  1  0
 19 18  1  0
 20 21  1  0
 22 20  2  0
M  END
$$$$
