MGK.pdb
     RDKit          3D

 22 21  0  0  1  0  0  0  0  0999 V2000
    7.6796  -10.6355   26.2773 C   0  0  0  0  0  0  0  0  0  0  0  0
    7.2990  -12.3198   26.7995 S   0  0  0  0  0  0  0  0  0  0  0  0
    6.4484  -13.2575   25.5287 C   0  0  0  0  0  0  0  0  0  0  0  0
    7.1822  -13.2253   24.2039 C   0  0  0  0  0  0  0  0  0  0  0  0
    7.1750  -14.6121   23.5827 C   0  0  2  0  0  0  0  0  0  0  0  0
    6.2558  -15.4905   24.2752 N   0  0  0  0  0  0  0  0  0  0  0  0
    8.5458  -15.1561   23.7454 C   0  0  0  0  0  0  0  0  0  0  0  0
    9.5154  -14.6416   23.1549 O   0  0  0  0  0  0  0  0  0  0  0  0
    8.7037  -16.2764   24.5940 N   0  0  0  0  0  0  0  0  0  0  0  0
   10.0075  -16.8398   24.8324 C   0  0  0  0  0  0  0  0  0  0  0  0
    9.9495  -17.9536   25.8311 C   0  0  0  0  0  0  0  0  0  0  0  0
    9.0040  -17.9984   26.6889 O   0  0  0  0  0  0  0  0  0  0  0  0
   10.9151  -18.9694   25.8590 N   0  0  0  0  0  0  0  0  0  0  0  0
   10.9929  -19.9843   26.9517 C   0  0  1  0  0  0  0  0  0  0  0  0
   11.6323  -21.1860   26.4520 C   0  0  0  0  0  0  0  0  0  0  0  0
   11.5339  -21.7468   25.1189 C   0  0  0  0  0  0  0  0  0  0  0  0
   12.2904  -22.9850   24.7724 C   0  0  0  0  0  0  0  0  0  0  0  0
   12.1420  -23.6035   23.4496 C   0  0  0  0  0  0  0  0  0  0  0  0
   13.0564  -24.7212   23.2294 N   0  0  0  0  0  0  0  0  0  0  0  0
   11.5892  -19.2741   28.0810 C   0  0  0  0  0  0  0  0  0  0  0  0
   11.3078  -19.6877   29.3816 O   0  0  0  0  0  0  0  0  0  0  0  0
   12.3607  -18.2916   28.0672 O   0  0  0  0  0  0  0  0  0  0  0  0
  2  1  1  0
  3  2  1  0
  4  3  1  0
  4  5  1  0
  5  6  1  1
  7  5  1  0
  7  8  2  0
  9  7  1  0
 10  9  1  0
 10 11  1  0
 11 13  1  0
 12 11  2  0
 13 14  1  0
 14 20  1  0
 14 15  1  6
 15 16  1  0
 16 17  1  0
 18 17  1  0
 19 18  1  0
 20 21  1  0
 22 20  2  0
M  END
$$$$
