MGK.pdb
     RDKit          3D

 22 21  0  0  1  0  0  0  0  0999 V2000
    7.2913  -12.0471   25.3225 C   0  0  0  0  0  0  0  0  0  0  0  0
    7.0427  -12.0470   23.5358 S   0  0  0  0  0  0  0  0  0  0  0  0
    7.4917  -13.6103   22.7794 C   0  0  0  0  0  0  0  0  0  0  0  0
    7.4050  -13.5623   21.2678 C   0  0  0  0  0  0  0  0  0  0  0  0
    7.7172  -14.9347   20.6949 C   0  0  2  0  0  0  0  0  0  0  0  0
    6.9984  -15.9729   21.4033 N   0  0  0  0  0  0  0  0  0  0  0  0
    9.1700  -15.1576   20.8972 C   0  0  0  0  0  0  0  0  0  0  0  0
   10.0148  -14.4178   20.3563 O   0  0  0  0  0  0  0  0  0  0  0  0
    9.5524  -16.2388   21.7248 N   0  0  0  0  0  0  0  0  0  0  0  0
   10.9369  -16.4574   22.0554 C   0  0  0  0  0  0  0  0  0  0  0  0
   11.1394  -16.5501   23.5359 C   0  0  0  0  0  0  0  0  0  0  0  0
   12.3170  -16.6675   24.0168 O   0  0  0  0  0  0  0  0  0  0  0  0
   10.0613  -16.5119   24.4310 N   0  0  0  0  0  0  0  0  0  0  0  0
   10.2357  -16.5675   25.9131 C   0  0  1  0  0  0  0  0  0  0  0  0
    9.1494  -15.8537   26.5557 C   0  0  0  0  0  0  0  0  0  0  0  0
    8.7621  -14.4715   26.3531 C   0  0  0  0  0  0  0  0  0  0  0  0
    7.5550  -13.9264   27.0396 C   0  0  0  0  0  0  0  0  0  0  0  0
    7.2043  -12.5066   26.9154 C   0  0  0  0  0  0  0  0  0  0  0  0
    5.8136  -12.2233   27.2610 N   0  0  0  0  0  0  0  0  0  0  0  0
   10.4375  -17.9832   26.2138 C   0  0  0  0  0  0  0  0  0  0  0  0
   10.9163  -18.3602   27.4670 O   0  0  0  0  0  0  0  0  0  0  0  0
   10.2371  -18.9744   25.4803 O   0  0  0  0  0  0  0  0  0  0  0  0
  2  1  1  0
  3  2  1  0
  4  3  1  0
  4  5  1  0
  5  6  1  1
  7  5  1  0
  7  8  2  0
  9  7  1  0
 10  9  1  0
 10 11  1  0
 11 13  1  0
 12 11  2  0
 13 14  1  0
 14 20  1  0
 14 15  1  1
 15 16  1  0
 16 17  1  0
 18 17  1  0
 19 18  1  0
 20 21  1  0
 22 20  2  0
M  END
$$$$
