MGK.pdb
     RDKit          3D

 22 21  0  0  1  0  0  0  0  0999 V2000
    8.2268  -11.5272   19.9980 C   0  0  0  0  0  0  0  0  0  0  0  0
    7.6021  -12.8901   18.9949 S   0  0  0  0  0  0  0  0  0  0  0  0
    8.9136  -13.9482   18.3801 C   0  0  0  0  0  0  0  0  0  0  0  0
   10.1959  -13.7912   19.1710 C   0  0  0  0  0  0  0  0  0  0  0  0
   10.8140  -15.1573   19.4176 C   0  0  2  0  0  0  0  0  0  0  0  0
   10.2506  -16.1538   18.5312 N   0  0  0  0  0  0  0  0  0  0  0  0
   10.4712  -15.5318   20.8118 C   0  0  0  0  0  0  0  0  0  0  0  0
   10.8350  -14.8278   21.7739 O   0  0  0  0  0  0  0  0  0  0  0  0
    9.7189  -16.7144   21.0006 N   0  0  0  0  0  0  0  0  0  0  0  0
    9.2022  -17.0571   22.3004 C   0  0  0  0  0  0  0  0  0  0  0  0
   10.2629  -16.9680   23.3532 C   0  0  0  0  0  0  0  0  0  0  0  0
   11.4958  -16.9310   23.0211 O   0  0  0  0  0  0  0  0  0  0  0  0
    9.9449  -16.9232   24.7178 N   0  0  0  0  0  0  0  0  0  0  0  0
   10.9780  -16.7825   25.7868 C   0  0  1  0  0  0  0  0  0  0  0  0
   10.4869  -15.8925   26.8208 C   0  0  0  0  0  0  0  0  0  0  0  0
   10.7401  -15.9734   28.2458 C   0  0  0  0  0  0  0  0  0  0  0  0
   10.3731  -14.8331   29.1350 C   0  0  0  0  0  0  0  0  0  0  0  0
   10.6816  -14.8771   30.5693 C   0  0  0  0  0  0  0  0  0  0  0  0
   10.2481  -13.6826   31.2897 N   0  0  0  0  0  0  0  0  0  0  0  0
   11.3433  -18.1531   26.1376 C   0  0  0  0  0  0  0  0  0  0  0  0
   12.6270  -18.4258   26.6065 O   0  0  0  0  0  0  0  0  0  0  0  0
   10.6447  -19.1872   26.0809 O   0  0  0  0  0  0  0  0  0  0  0  0
  2  1  1  0
  3  2  1  0
  4  3  1  0
  4  5  1  0
  5  6  1  6
  7  5  1  0
  7  8  2  0
  9  7  1  0
 10  9  1  0
 10 11  1  0
 11 13  1  0
 12 11  2  0
 13 14  1  0
 14 20  1  0
 14 15  1  1
 15 16  1  0
 16 17  1  0
 18 17  1  0
 19 18  1  0
 20 21  1  0
 22 20  2  0
M  END
$$$$
