MGK.pdb
     RDKit          3D

 22 21  0  0  1  0  0  0  0  0999 V2000
    6.0951  -11.2643   26.4515 C   0  0  0  0  0  0  0  0  0  0  0  0
    6.6496  -12.9126   26.9309 S   0  0  0  0  0  0  0  0  0  0  0  0
    7.0679  -13.9350   25.5177 C   0  0  0  0  0  0  0  0  0  0  0  0
    5.8699  -14.6919   24.9823 C   0  0  0  0  0  0  0  0  0  0  0  0
    6.3293  -15.9992   24.3586 C   0  0  2  0  0  0  0  0  0  0  0  0
    7.1879  -16.7363   25.2619 N   0  0  0  0  0  0  0  0  0  0  0  0
    7.1222  -15.6397   23.1572 C   0  0  0  0  0  0  0  0  0  0  0  0
    6.5840  -15.1034   22.1692 O   0  0  0  0  0  0  0  0  0  0  0  0
    8.5062  -15.9300   23.1813 N   0  0  0  0  0  0  0  0  0  0  0  0
    9.3587  -15.5372   22.0891 C   0  0  0  0  0  0  0  0  0  0  0  0
   10.7696  -15.9890   22.3045 C   0  0  0  0  0  0  0  0  0  0  0  0
   11.6802  -15.6726   21.4662 O   0  0  0  0  0  0  0  0  0  0  0  0
   11.1344  -16.7623   23.4152 N   0  0  0  0  0  0  0  0  0  0  0  0
   12.5457  -17.1598   23.6982 C   0  0  1  0  0  0  0  0  0  0  0  0
   12.6312  -17.7284   25.0293 C   0  0  0  0  0  0  0  0  0  0  0  0
   12.1150  -17.1666   26.2619 C   0  0  0  0  0  0  0  0  0  0  0  0
   12.2377  -17.9288   27.5385 C   0  0  0  0  0  0  0  0  0  0  0  0
   11.7499  -17.3557   28.7986 C   0  0  0  0  0  0  0  0  0  0  0  0
   12.0045  -18.2084   29.9570 N   0  0  0  0  0  0  0  0  0  0  0  0
   12.9450  -17.9684   22.5485 C   0  0  0  0  0  0  0  0  0  0  0  0
   14.2969  -18.1107   22.2420 O   0  0  0  0  0  0  0  0  0  0  0  0
   12.2224  -18.5931   21.7434 O   0  0  0  0  0  0  0  0  0  0  0  0
  2  1  1  0
  3  2  1  0
  4  3  1  0
  4  5  1  0
  5  6  1  1
  7  5  1  0
  7  8  2  0
  9  7  1  0
 10  9  1  0
 10 11  1  0
 11 13  1  0
 12 11  2  0
 13 14  1  0
 14 20  1  0
 14 15  1  1
 15 16  1  0
 16 17  1  0
 18 17  1  0
 19 18  1  0
 20 21  1  0
 22 20  2  0
M  END
$$$$
