MGK.pdb
     RDKit          3D

 22 21  0  0  1  0  0  0  0  0999 V2000
    6.3357  -12.1240   27.0030 C   0  0  0  0  0  0  0  0  0  0  0  0
    6.4240  -12.4417   25.2295 S   0  0  0  0  0  0  0  0  0  0  0  0
    6.5134  -14.1923   24.8487 C   0  0  0  0  0  0  0  0  0  0  0  0
    6.5808  -14.4525   23.3579 C   0  0  0  0  0  0  0  0  0  0  0  0
    6.5319  -15.9490   23.0983 C   0  0  2  0  0  0  0  0  0  0  0  0
    6.1705  -16.6761   24.2971 N   0  0  0  0  0  0  0  0  0  0  0  0
    7.9038  -16.3559   22.7065 C   0  0  0  0  0  0  0  0  0  0  0  0
    8.4947  -17.2782   23.3011 O   0  0  0  0  0  0  0  0  0  0  0  0
    8.5082  -15.6564   21.6361 N   0  0  0  0  0  0  0  0  0  0  0  0
    9.7551  -16.1076   21.0743 C   0  0  0  0  0  0  0  0  0  0  0  0
   10.8321  -16.1742   22.1120 C   0  0  0  0  0  0  0  0  0  0  0  0
   12.0597  -16.2186   21.7615 O   0  0  0  0  0  0  0  0  0  0  0  0
   10.5355  -16.1901   23.4820 N   0  0  0  0  0  0  0  0  0  0  0  0
   11.5810  -16.0532   24.5395 C   0  0  1  0  0  0  0  0  0  0  0  0
   10.9473  -15.7772   25.8142 C   0  0  0  0  0  0  0  0  0  0  0  0
   11.5598  -15.8097   27.1276 C   0  0  0  0  0  0  0  0  0  0  0  0
   10.7510  -15.4790   28.3367 C   0  0  0  0  0  0  0  0  0  0  0  0
   11.3649  -15.4890   29.6699 C   0  0  0  0  0  0  0  0  0  0  0  0
   10.4134  -15.2213   30.7453 N   0  0  0  0  0  0  0  0  0  0  0  0
   12.4146  -17.2450   24.3988 C   0  0  0  0  0  0  0  0  0  0  0  0
   13.7617  -17.1895   24.7512 O   0  0  0  0  0  0  0  0  0  0  0  0
   12.0932  -18.3795   23.9863 O   0  0  0  0  0  0  0  0  0  0  0  0
  2  1  1  0
  3  2  1  0
  4  3  1  0
  4  5  1  0
  5  6  1  1
  7  5  1  0
  7  8  2  0
  9  7  1  0
 10  9  1  0
 10 11  1  0
 11 13  1  0
 12 11  2  0
 13 14  1  0
 14 20  1  0
 14 15  1  1
 15 16  1  0
 16 17  1  0
 18 17  1  0
 19 18  1  0
 20 21  1  0
 22 20  2  0
M  END
$$$$
