SSN.pdb
     RDKit          3D

 21 20  0  0  1  0  0  0  0  0999 V2000
   -0.3721  -26.3502   26.2470 O   0  0  0  0  0  0  0  0  0  0  0  0
   -1.5669  -25.6207   26.1540 C   0  0  0  0  0  0  0  0  0  0  0  0
   -1.8439  -25.3138   24.6999 C   0  0  2  0  0  0  0  0  0  0  0  0
   -0.7221  -24.6522   24.0972 N   0  0  0  0  0  0  0  0  0  0  0  0
   -3.0412  -24.4094   24.6343 C   0  0  0  0  0  0  0  0  0  0  0  0
   -2.9406  -23.2027   24.9626 O   0  0  0  0  0  0  0  0  0  0  0  0
   -6.9790  -25.8850   23.8887 O   0  0  0  0  0  0  0  0  0  0  0  0
   -6.4835  -24.7100   23.2758 C   0  0  0  0  0  0  0  0  0  0  0  0
   -5.4993  -24.1164   24.1955 C   0  0  2  0  0  0  0  0  0  0  0  0
   -4.2961  -24.9195   24.1987 N   0  0  0  0  0  0  0  0  0  0  0  0
   -5.9312  -23.8829   25.5672 C   0  0  0  0  0  0  0  0  0  0  0  0
   -5.3478  -24.4977   26.4883 O   0  0  0  0  0  0  0  0  0  0  0  0
   -7.9500  -22.3497   30.0398 N   0  0  0  0  0  0  0  0  0  0  0  0
   -6.6628  -22.0011   29.5497 C   0  0  0  0  0  0  0  0  0  0  0  0
   -5.8494  -21.4727   30.3425 O   0  0  0  0  0  0  0  0  0  0  0  0
   -6.2999  -22.2546   28.1524 C   0  0  0  0  0  0  0  0  0  0  0  0
   -7.3944  -22.8790   27.3251 C   0  0  2  0  0  0  0  0  0  0  0  0
   -6.9753  -23.0018   25.9463 N   0  0  0  0  0  0  0  0  0  0  0  0
   -8.6749  -22.1337   27.3931 C   0  0  0  0  0  0  0  0  0  0  0  0
   -9.3381  -22.1905   28.4558 O   0  0  0  0  0  0  0  0  0  0  0  0
   -9.1318  -21.3930   26.3151 O   0  0  0  0  0  0  0  0  0  0  0  0
  1  2  1  0
  2  3  1  0
  3  4  1  1
  5  3  1  0
  5  6  2  0
  7  8  1  0
  9  8  1  6
  9 11  1  0
  9 10  1  0
 10  5  1  0
 11 18  1  0
 12 11  2  0
 13 14  1  0
 14 15  2  0
 16 14  1  0
 17 16  1  1
 17 19  1  0
 18 17  1  0
 19 20  2  0
 19 21  1  0
M  END
$$$$
