SSN.pdb
     RDKit          3D

 21 20  0  0  1  0  0  0  0  0999 V2000
   12.2512  -18.1061   14.0219 O   0  0  0  0  0  0  0  0  0  0  0  0
   10.8637  -17.9062   13.9646 C   0  0  0  0  0  0  0  0  0  0  0  0
   10.5782  -16.4225   14.0097 C   0  0  2  0  0  0  0  0  0  0  0  0
   11.3135  -15.7319   12.9891 N   0  0  0  0  0  0  0  0  0  0  0  0
   11.0024  -15.9069   15.3551 C   0  0  0  0  0  0  0  0  0  0  0  0
   12.0279  -15.1924   15.4636 O   0  0  0  0  0  0  0  0  0  0  0  0
    9.6408  -15.1581   19.9018 O   0  0  0  0  0  0  0  0  0  0  0  0
    9.3822  -15.8721   18.7080 C   0  0  0  0  0  0  0  0  0  0  0  0
   10.5313  -15.6615   17.8125 C   0  0  2  0  0  0  0  0  0  0  0  0
   10.2408  -16.2279   16.5134 N   0  0  0  0  0  0  0  0  0  0  0  0
   11.8271  -16.1423   18.2733 C   0  0  0  0  0  0  0  0  0  0  0  0
   12.1412  -17.3301   18.0345 O   0  0  0  0  0  0  0  0  0  0  0  0
   15.3163  -13.1094   17.9215 N   0  0  0  0  0  0  0  0  0  0  0  0
   15.4342  -14.4925   18.2245 C   0  0  0  0  0  0  0  0  0  0  0  0
   15.8295  -15.2659   17.3216 O   0  0  0  0  0  0  0  0  0  0  0  0
   15.1010  -14.9975   19.5596 C   0  0  0  0  0  0  0  0  0  0  0  0
   13.9396  -15.9578   19.5933 C   0  0  2  0  0  0  0  0  0  0  0  0
   12.7738  -15.3593   18.9812 N   0  0  0  0  0  0  0  0  0  0  0  0
   13.6032  -16.4192   20.9621 C   0  0  0  0  0  0  0  0  0  0  0  0
   13.9823  -17.5620   21.3123 O   0  0  0  0  0  0  0  0  0  0  0  0
   12.8895  -15.6144   21.8352 O   0  0  0  0  0  0  0  0  0  0  0  0
  1  2  1  0
  2  3  1  0
  3  4  1  6
  5  3  1  0
  5  6  2  0
  7  8  1  0
  9  8  1  1
  9 11  1  0
  9 10  1  0
 10  5  1  0
 11 18  1  0
 12 11  2  0
 13 14  1  0
 14 15  2  0
 16 14  1  0
 17 16  1  1
 17 19  1  0
 18 17  1  0
 19 20  2  0
 19 21  1  0
M  END
$$$$
