SSN.pdb
     RDKit          3D

 21 20  0  0  1  0  0  0  0  0999 V2000
    0.4103  -19.2416   22.0153 O   0  0  0  0  0  0  0  0  0  0  0  0
    1.7103  -19.4954   22.4776 C   0  0  0  0  0  0  0  0  0  0  0  0
    2.6688  -19.4306   21.3104 C   0  0  2  0  0  0  0  0  0  0  0  0
    2.3652  -20.4488   20.3460 N   0  0  0  0  0  0  0  0  0  0  0  0
    4.0586  -19.6502   21.8359 C   0  0  0  0  0  0  0  0  0  0  0  0
    4.5122  -20.8136   21.9566 O   0  0  0  0  0  0  0  0  0  0  0  0
    6.3450  -16.3866   22.9797 O   0  0  0  0  0  0  0  0  0  0  0  0
    6.9907  -17.4630   22.3268 C   0  0  0  0  0  0  0  0  0  0  0  0
    6.2353  -18.6860   22.6440 C   0  0  2  0  0  0  0  0  0  0  0  0
    4.8668  -18.5369   22.1992 N   0  0  0  0  0  0  0  0  0  0  0  0
    6.2494  -19.1324   24.0308 C   0  0  0  0  0  0  0  0  0  0  0  0
    5.2831  -18.8263   24.7651 O   0  0  0  0  0  0  0  0  0  0  0  0
    7.2187  -21.4477   28.5882 N   0  0  0  0  0  0  0  0  0  0  0  0
    7.0083  -22.3120   27.4803 C   0  0  0  0  0  0  0  0  0  0  0  0
    6.8617  -23.5361   27.7025 O   0  0  0  0  0  0  0  0  0  0  0  0
    6.9648  -21.7815   26.1146 C   0  0  0  0  0  0  0  0  0  0  0  0
    7.2274  -20.3008   26.0100 C   0  0  2  0  0  0  0  0  0  0  0  0
    7.2865  -19.8970   24.6225 N   0  0  0  0  0  0  0  0  0  0  0  0
    8.4664  -19.8770   26.7064 C   0  0  0  0  0  0  0  0  0  0  0  0
    9.4396  -19.5032   26.0097 O   0  0  0  0  0  0  0  0  0  0  0  0
    8.5527  -19.8914   28.0891 O   0  0  0  0  0  0  0  0  0  0  0  0
  1  2  1  0
  2  3  1  0
  3  4  1  6
  5  3  1  0
  5  6  2  0
  7  8  1  0
  9  8  1  1
  9 11  1  0
  9 10  1  0
 10  5  1  0
 11 18  1  0
 12 11  2  0
 13 14  1  0
 14 15  2  0
 16 14  1  0
 17 16  1  6
 17 19  1  0
 18 17  1  0
 19 20  2  0
 19 21  1  0
M  END
$$$$
