SSN.pdb
     RDKit          3D

 21 20  0  0  1  0  0  0  0  0999 V2000
   12.4048  -17.2790   17.8465 O   0  0  0  0  0  0  0  0  0  0  0  0
   13.0253  -18.2848   18.6026 C   0  0  0  0  0  0  0  0  0  0  0  0
   12.0620  -18.7687   19.6623 C   0  0  2  0  0  0  0  0  0  0  0  0
   10.7530  -18.9651   19.1079 N   0  0  0  0  0  0  0  0  0  0  0  0
   11.9882  -17.7228   20.7377 C   0  0  0  0  0  0  0  0  0  0  0  0
   13.0392  -17.2655   21.2479 O   0  0  0  0  0  0  0  0  0  0  0  0
    8.8878  -15.1639   21.1862 O   0  0  0  0  0  0  0  0  0  0  0  0
    9.1902  -15.8665   22.3765 C   0  0  0  0  0  0  0  0  0  0  0  0
   10.5895  -16.3131   22.2795 C   0  0  2  0  0  0  0  0  0  0  0  0
   10.7233  -17.2463   21.1823 N   0  0  0  0  0  0  0  0  0  0  0  0
   11.1871  -16.8847   23.4790 C   0  0  0  0  0  0  0  0  0  0  0  0
   10.9809  -18.0937   23.7292 O   0  0  0  0  0  0  0  0  0  0  0  0
   15.4196  -15.2627   23.9215 N   0  0  0  0  0  0  0  0  0  0  0  0
   14.8796  -16.4248   24.5350 C   0  0  0  0  0  0  0  0  0  0  0  0
   15.1547  -17.5408   24.0367 O   0  0  0  0  0  0  0  0  0  0  0  0
   14.0233  -16.3167   25.7198 C   0  0  0  0  0  0  0  0  0  0  0  0
   12.6186  -16.8276   25.5251 C   0  0  2  0  0  0  0  0  0  0  0  0
   11.9951  -16.1691   24.3984 N   0  0  0  0  0  0  0  0  0  0  0  0
   11.7676  -16.6690   26.7294 C   0  0  0  0  0  0  0  0  0  0  0  0
   12.1586  -17.1844   27.8036 O   0  0  0  0  0  0  0  0  0  0  0  0
   10.5717  -15.9715   26.6759 O   0  0  0  0  0  0  0  0  0  0  0  0
  1  2  1  0
  2  3  1  0
  3  4  1  6
  5  3  1  0
  5  6  2  0
  7  8  1  0
  9  8  1  1
  9 11  1  0
  9 10  1  0
 10  5  1  0
 11 18  1  0
 12 11  2  0
 13 14  1  0
 14 15  2  0
 16 14  1  0
 17 16  1  1
 17 19  1  0
 18 17  1  0
 19 20  2  0
 19 21  1  0
M  END
$$$$
