SSN.pdb
     RDKit          3D

 21 20  0  0  1  0  0  0  0  0999 V2000
    6.8332  -20.4575   20.7113 O   0  0  0  0  0  0  0  0  0  0  0  0
    5.6624  -19.6849   20.7357 C   0  0  0  0  0  0  0  0  0  0  0  0
    6.0132  -18.2498   20.4155 C   0  0  2  0  0  0  0  0  0  0  0  0
    6.4438  -18.1236   19.0524 N   0  0  0  0  0  0  0  0  0  0  0  0
    7.1320  -17.8295   21.3251 C   0  0  0  0  0  0  0  0  0  0  0  0
    8.2712  -17.5900   20.8572 O   0  0  0  0  0  0  0  0  0  0  0  0
    6.2618  -17.0269   25.2577 O   0  0  0  0  0  0  0  0  0  0  0  0
    7.2972  -16.3071   24.6161 C   0  0  0  0  0  0  0  0  0  0  0  0
    7.9160  -17.2106   23.6324 C   0  0  2  0  0  0  0  0  0  0  0  0
    6.9029  -17.7013   22.7236 N   0  0  0  0  0  0  0  0  0  0  0  0
    8.6842  -18.3328   24.1550 C   0  0  0  0  0  0  0  0  0  0  0  0
    8.1779  -19.4763   24.1050 O   0  0  0  0  0  0  0  0  0  0  0  0
   12.9386  -21.7260   24.3087 N   0  0  0  0  0  0  0  0  0  0  0  0
   12.9741  -20.4759   24.9830 C   0  0  0  0  0  0  0  0  0  0  0  0
   13.7598  -20.3458   25.9500 O   0  0  0  0  0  0  0  0  0  0  0  0
   12.1125  -19.3699   24.5554 C   0  0  0  0  0  0  0  0  0  0  0  0
   10.7192  -19.4042   25.1296 C   0  0  2  0  0  0  0  0  0  0  0  0
    9.9787  -18.2299   24.7243 N   0  0  0  0  0  0  0  0  0  0  0  0
   10.6998  -19.5208   26.6081 C   0  0  0  0  0  0  0  0  0  0  0  0
   10.4251  -18.4982   27.2797 O   0  0  0  0  0  0  0  0  0  0  0  0
   10.9769  -20.7241   27.2364 O   0  0  0  0  0  0  0  0  0  0  0  0
  1  2  1  0
  2  3  1  0
  3  4  1  6
  5  3  1  0
  5  6  2  0
  7  8  1  0
  9  8  1  1
  9 11  1  0
  9 10  1  0
 10  5  1  0
 11 18  1  0
 12 11  2  0
 13 14  1  0
 14 15  2  0
 16 14  1  0
 17 16  1  1
 17 19  1  0
 18 17  1  0
 19 20  2  0
 19 21  1  0
M  END
$$$$
