SSN.pdb
     RDKit          3D

 21 20  0  0  1  0  0  0  0  0999 V2000
    6.1759  -14.3694   22.2671 O   0  0  0  0  0  0  0  0  0  0  0  0
    7.1464  -13.6262   21.5785 C   0  0  0  0  0  0  0  0  0  0  0  0
    7.8109  -14.5158   20.5527 C   0  0  2  0  0  0  0  0  0  0  0  0
    6.8412  -15.0544   19.6424 N   0  0  0  0  0  0  0  0  0  0  0  0
    8.4824  -15.6452   21.2803 C   0  0  0  0  0  0  0  0  0  0  0  0
    7.9654  -16.7883   21.2879 O   0  0  0  0  0  0  0  0  0  0  0  0
   12.5925  -17.3690   22.9114 O   0  0  0  0  0  0  0  0  0  0  0  0
   11.9032  -16.2366   22.4170 C   0  0  0  0  0  0  0  0  0  0  0  0
   10.4628  -16.4958   22.5746 C   0  0  2  0  0  0  0  0  0  0  0  0
    9.7097  -15.4217   21.9648 N   0  0  0  0  0  0  0  0  0  0  0  0
    9.9749  -16.7234   23.9285 C   0  0  0  0  0  0  0  0  0  0  0  0
    9.5502  -15.7436   24.5813 O   0  0  0  0  0  0  0  0  0  0  0  0
    6.6587  -19.0571   27.7840 N   0  0  0  0  0  0  0  0  0  0  0  0
    7.9371  -19.5062   27.3568 C   0  0  0  0  0  0  0  0  0  0  0  0
    8.6390  -20.1550   28.1667 O   0  0  0  0  0  0  0  0  0  0  0  0
    8.4187  -19.2160   26.0032 C   0  0  0  0  0  0  0  0  0  0  0  0
    9.4580  -18.1267   25.9291 C   0  0  2  0  0  0  0  0  0  0  0  0
    9.9432  -17.9854   24.5739 N   0  0  0  0  0  0  0  0  0  0  0  0
   10.6011  -18.3470   26.8480 C   0  0  0  0  0  0  0  0  0  0  0  0
   11.6548  -18.8369   26.3766 O   0  0  0  0  0  0  0  0  0  0  0  0
   10.5137  -18.0226   28.1921 O   0  0  0  0  0  0  0  0  0  0  0  0
  1  2  1  0
  2  3  1  0
  3  4  1  6
  5  3  1  0
  5  6  2  0
  7  8  1  0
  9  8  1  1
  9 11  1  0
  9 10  1  0
 10  5  1  0
 11 18  1  0
 12 11  2  0
 13 14  1  0
 14 15  2  0
 16 14  1  0
 17 16  1  6
 17 19  1  0
 18 17  1  0
 19 20  2  0
 19 21  1  0
M  END
$$$$
