SSN.pdb
     RDKit          3D

 21 20  0  0  1  0  0  0  0  0999 V2000
   -1.9281  -25.0834   29.3964 O   0  0  0  0  0  0  0  0  0  0  0  0
   -2.7933  -24.2569   28.6639 C   0  0  0  0  0  0  0  0  0  0  0  0
   -3.3684  -25.0465   27.5103 C   0  0  2  0  0  0  0  0  0  0  0  0
   -2.3322  -25.4486   26.6027 N   0  0  0  0  0  0  0  0  0  0  0  0
   -4.3440  -24.1659   26.7832 C   0  0  0  0  0  0  0  0  0  0  0  0
   -4.0683  -23.7250   25.6414 O   0  0  0  0  0  0  0  0  0  0  0  0
   -8.0217  -23.8443   24.7283 O   0  0  0  0  0  0  0  0  0  0  0  0
   -6.9565  -24.3512   25.5095 C   0  0  0  0  0  0  0  0  0  0  0  0
   -6.7347  -23.4060   26.6160 C   0  0  2  0  0  0  0  0  0  0  0  0
   -5.5867  -23.8282   27.3884 N   0  0  0  0  0  0  0  0  0  0  0  0
   -7.8576  -23.1581   27.5106 C   0  0  0  0  0  0  0  0  0  0  0  0
   -8.8788  -22.6036   27.0455 O   0  0  0  0  0  0  0  0  0  0  0  0
  -11.5127  -24.5496   29.3745 N   0  0  0  0  0  0  0  0  0  0  0  0
  -10.6344  -25.0358   30.3798 C   0  0  0  0  0  0  0  0  0  0  0  0
  -11.0006  -26.0209   31.0616 O   0  0  0  0  0  0  0  0  0  0  0  0
   -9.3347  -24.3986   30.6104 C   0  0  0  0  0  0  0  0  0  0  0  0
   -9.0434  -23.2269   29.7079 C   0  0  2  0  0  0  0  0  0  0  0  0
   -7.8850  -23.5003   28.8863 N   0  0  0  0  0  0  0  0  0  0  0  0
   -8.8428  -21.9566   30.4467 C   0  0  0  0  0  0  0  0  0  0  0  0
   -7.7955  -21.8234   31.1232 O   0  0  0  0  0  0  0  0  0  0  0  0
   -9.7833  -20.9406   30.3951 O   0  0  0  0  0  0  0  0  0  0  0  0
  1  2  1  0
  2  3  1  0
  3  4  1  6
  5  3  1  0
  5  6  2  0
  7  8  1  0
  9  8  1  6
  9 11  1  0
  9 10  1  0
 10  5  1  0
 11 18  1  0
 12 11  2  0
 13 14  1  0
 14 15  2  0
 16 14  1  0
 17 16  1  1
 17 19  1  0
 18 17  1  0
 19 20  2  0
 19 21  1  0
M  END
$$$$
