SSN.pdb
     RDKit          3D

 21 20  0  0  1  0  0  0  0  0999 V2000
    7.7928  -15.7280   15.1587 O   0  0  0  0  0  0  0  0  0  0  0  0
    8.5134  -15.4796   16.3366 C   0  0  0  0  0  0  0  0  0  0  0  0
    7.9626  -14.2366   16.9973 C   0  0  2  0  0  0  0  0  0  0  0  0
    8.2144  -13.0774   16.1898 N   0  0  0  0  0  0  0  0  0  0  0  0
    8.6488  -14.0704   18.3230 C   0  0  0  0  0  0  0  0  0  0  0  0
    9.7563  -13.4852   18.3926 O   0  0  0  0  0  0  0  0  0  0  0  0
    8.3143  -14.4905   23.1033 O   0  0  0  0  0  0  0  0  0  0  0  0
    7.6525  -14.6012   21.8577 C   0  0  0  0  0  0  0  0  0  0  0  0
    8.6730  -14.4710   20.8049 C   0  0  2  0  0  0  0  0  0  0  0  0
    8.0435  -14.5774   19.5068 N   0  0  0  0  0  0  0  0  0  0  0  0
    9.8106  -15.3790   20.8690 C   0  0  0  0  0  0  0  0  0  0  0  0
    9.6821  -16.5295   20.3930 O   0  0  0  0  0  0  0  0  0  0  0  0
   13.3306  -13.7148   19.2152 N   0  0  0  0  0  0  0  0  0  0  0  0
   13.3604  -15.0870   19.5823 C   0  0  0  0  0  0  0  0  0  0  0  0
   13.3386  -15.9456   18.6704 O   0  0  0  0  0  0  0  0  0  0  0  0
   13.4152  -15.4836   20.9924 C   0  0  0  0  0  0  0  0  0  0  0  0
   12.1247  -16.0417   21.5359 C   0  0  2  0  0  0  0  0  0  0  0  0
   11.0695  -15.0575   21.4365 N   0  0  0  0  0  0  0  0  0  0  0  0
   12.2371  -16.5133   22.9376 C   0  0  0  0  0  0  0  0  0  0  0  0
   11.4818  -16.0011   23.7976 O   0  0  0  0  0  0  0  0  0  0  0  0
   13.1498  -17.4928   23.2938 O   0  0  0  0  0  0  0  0  0  0  0  0
  1  2  1  0
  2  3  1  0
  3  4  1  6
  5  3  1  0
  5  6  2  0
  7  8  1  0
  9  8  1  1
  9 11  1  0
  9 10  1  0
 10  5  1  0
 11 18  1  0
 12 11  2  0
 13 14  1  0
 14 15  2  0
 16 14  1  0
 17 16  1  1
 17 19  1  0
 18 17  1  0
 19 20  2  0
 19 21  1  0
M  END
$$$$
