SSN.pdb
     RDKit          3D

 21 20  0  0  1  0  0  0  0  0999 V2000
    8.8884  -15.9494   16.2529 O   0  0  0  0  0  0  0  0  0  0  0  0
    7.5635  -15.6365   16.5921 C   0  0  0  0  0  0  0  0  0  0  0  0
    7.4754  -14.1645   16.9249 C   0  0  2  0  0  0  0  0  0  0  0  0
    7.9765  -13.3675   15.8419 N   0  0  0  0  0  0  0  0  0  0  0  0
    8.3103  -13.9124   18.1477 C   0  0  0  0  0  0  0  0  0  0  0  0
    9.4671  -13.4397   18.0369 O   0  0  0  0  0  0  0  0  0  0  0  0
    6.9732  -15.0801   21.9627 O   0  0  0  0  0  0  0  0  0  0  0  0
    7.6256  -13.8370   21.7868 C   0  0  0  0  0  0  0  0  0  0  0  0
    8.5487  -13.9824   20.6495 C   0  0  2  0  0  0  0  0  0  0  0  0
    7.7906  -14.2096   19.4386 N   0  0  0  0  0  0  0  0  0  0  0  0
    9.5907  -14.9939   20.7673 C   0  0  0  0  0  0  0  0  0  0  0  0
    9.4427  -16.0758   20.1555 O   0  0  0  0  0  0  0  0  0  0  0  0
   13.6574  -13.9870   19.5572 N   0  0  0  0  0  0  0  0  0  0  0  0
   13.2996  -15.2934   19.9858 C   0  0  0  0  0  0  0  0  0  0  0  0
   13.1741  -16.1886   19.1185 O   0  0  0  0  0  0  0  0  0  0  0  0
   13.0836  -15.5823   21.4065 C   0  0  0  0  0  0  0  0  0  0  0  0
   11.6683  -15.9623   21.7596 C   0  0  2  0  0  0  0  0  0  0  0  0
   10.7760  -14.8472   21.5314 N   0  0  0  0  0  0  0  0  0  0  0  0
   11.5232  -16.4400   23.1562 C   0  0  0  0  0  0  0  0  0  0  0  0
   10.7081  -15.8484   23.9033 O   0  0  0  0  0  0  0  0  0  0  0  0
   12.2651  -17.5102   23.6290 O   0  0  0  0  0  0  0  0  0  0  0  0
  1  2  1  0
  2  3  1  0
  3  4  1  6
  5  3  1  0
  5  6  2  0
  7  8  1  0
  9  8  1  1
  9 11  1  0
  9 10  1  0
 10  5  1  0
 11 18  1  0
 12 11  2  0
 13 14  1  0
 14 15  2  0
 16 14  1  0
 17 16  1  1
 17 19  1  0
 18 17  1  0
 19 20  2  0
 19 21  1  0
M  END
$$$$
