SSN.pdb
     RDKit          3D

 21 20  0  0  1  0  0  0  0  0999 V2000
   11.4412  -20.0606   19.8510 O   0  0  0  0  0  0  0  0  0  0  0  0
   10.2210  -19.3733   19.7666 C   0  0  0  0  0  0  0  0  0  0  0  0
   10.4875  -17.9487   19.3371 C   0  0  2  0  0  0  0  0  0  0  0  0
   11.1796  -17.9176   18.0804 N   0  0  0  0  0  0  0  0  0  0  0  0
   11.3436  -17.2981   20.3858 C   0  0  0  0  0  0  0  0  0  0  0  0
   12.5493  -17.0445   20.1495 O   0  0  0  0  0  0  0  0  0  0  0  0
    9.8889  -16.6731   24.2557 O   0  0  0  0  0  0  0  0  0  0  0  0
   10.6185  -15.6381   23.6247 C   0  0  0  0  0  0  0  0  0  0  0  0
   11.5447  -16.2715   22.6719 C   0  0  2  0  0  0  0  0  0  0  0  0
   10.7885  -16.9668   21.6534 N   0  0  0  0  0  0  0  0  0  0  0  0
   12.5534  -17.1663   23.2238 C   0  0  0  0  0  0  0  0  0  0  0  0
   12.3563  -18.4005   23.1557 O   0  0  0  0  0  0  0  0  0  0  0  0
   17.9103  -16.1526   24.5260 N   0  0  0  0  0  0  0  0  0  0  0  0
   16.6912  -16.2491   23.8028 C   0  0  0  0  0  0  0  0  0  0  0  0
   16.1947  -15.1985   23.3345 O   0  0  0  0  0  0  0  0  0  0  0  0
   16.0347  -17.5456   23.6117 C   0  0  0  0  0  0  0  0  0  0  0  0
   14.7238  -17.6964   24.3405 C   0  0  2  0  0  0  0  0  0  0  0  0
   13.7577  -16.7431   23.8409 N   0  0  0  0  0  0  0  0  0  0  0  0
   14.8534  -17.5518   25.8109 C   0  0  0  0  0  0  0  0  0  0  0  0
   15.6334  -18.3249   26.4161 O   0  0  0  0  0  0  0  0  0  0  0  0
   14.1348  -16.5906   26.5032 O   0  0  0  0  0  0  0  0  0  0  0  0
  1  2  1  0
  2  3  1  0
  3  4  1  6
  5  3  1  0
  5  6  2  0
  7  8  1  0
  9  8  1  1
  9 11  1  0
  9 10  1  0
 10  5  1  0
 11 18  1  0
 12 11  2  0
 13 14  1  0
 14 15  2  0
 16 14  1  0
 17 16  1  6
 17 19  1  0
 18 17  1  0
 19 20  2  0
 19 21  1  0
M  END
$$$$
