SSN.pdb
     RDKit          3D

 21 20  0  0  1  0  0  0  0  0999 V2000
   10.2283  -23.5160   24.7717 O   0  0  0  0  0  0  0  0  0  0  0  0
    8.9272  -23.2341   24.3290 C   0  0  0  0  0  0  0  0  0  0  0  0
    8.8917  -21.8309   23.7681 C   0  0  2  0  0  0  0  0  0  0  0  0
    9.8480  -21.6824   22.7085 N   0  0  0  0  0  0  0  0  0  0  0  0
    9.2344  -20.8770   24.8765 C   0  0  0  0  0  0  0  0  0  0  0  0
   10.3738  -20.3548   24.9314 O   0  0  0  0  0  0  0  0  0  0  0  0
    6.3596  -19.8944   27.7296 O   0  0  0  0  0  0  0  0  0  0  0  0
    7.2998  -18.9250   27.3079 C   0  0  0  0  0  0  0  0  0  0  0  0
    8.5365  -19.6388   26.9503 C   0  0  2  0  0  0  0  0  0  0  0  0
    8.2656  -20.5620   25.8700 N   0  0  0  0  0  0  0  0  0  0  0  0
    9.2322  -20.3372   28.0231 C   0  0  0  0  0  0  0  0  0  0  0  0
    9.0257  -21.5632   28.1681 O   0  0  0  0  0  0  0  0  0  0  0  0
   11.9309  -23.3905   30.9381 N   0  0  0  0  0  0  0  0  0  0  0  0
   12.5314  -22.2321   30.3760 C   0  0  0  0  0  0  0  0  0  0  0  0
   13.6882  -21.9247   30.7460 O   0  0  0  0  0  0  0  0  0  0  0  0
   11.8130  -21.4202   29.3894 C   0  0  0  0  0  0  0  0  0  0  0  0
   10.7819  -20.4903   29.9761 C   0  0  2  0  0  0  0  0  0  0  0  0
   10.1374  -19.7286   28.9290 N   0  0  0  0  0  0  0  0  0  0  0  0
   11.3402  -19.5668   30.9936 C   0  0  0  0  0  0  0  0  0  0  0  0
   11.8682  -20.0622   32.0174 O   0  0  0  0  0  0  0  0  0  0  0  0
   11.2830  -18.1931   30.8237 O   0  0  0  0  0  0  0  0  0  0  0  0
  1  2  1  0
  2  3  1  0
  3  4  1  6
  5  3  1  0
  5  6  2  0
  7  8  1  0
  9  8  1  1
  9 11  1  0
  9 10  1  0
 10  5  1  0
 11 18  1  0
 12 11  2  0
 13 14  1  0
 14 15  2  0
 16 14  1  0
 17 16  1  6
 17 19  1  0
 18 17  1  0
 19 20  2  0
 19 21  1  0
M  END
$$$$
