PTI.pdb
     RDKit          3D

 23 23  0  0  1  0  0  0  0  0999 V2000
    7.9789  -14.9696   17.8617 N   0  0  0  0  0  0  0  0  0  0  0  0
    8.3867  -13.8515   17.0081 C   0  0  0  0  0  0  0  0  0  0  0  0
    8.0343  -12.6651   17.8864 C   0  0  0  0  0  0  0  0  0  0  0  0
    8.4954  -13.1294   19.2459 C   0  0  0  0  0  0  0  0  0  0  0  0
    8.5724  -14.6204   19.1133 C   0  0  1  0  0  0  0  0  0  0  0  0
    7.8944  -15.2565   20.2718 C   0  0  0  0  0  0  0  0  0  0  0  0
    6.8430  -15.9364   20.1292 O   0  0  0  0  0  0  0  0  0  0  0  0
    7.3095  -17.7529   21.3301 C   0  0  0  0  0  0  0  0  0  0  0  0
    8.1882  -17.3622   22.5145 C   0  0  1  0  0  0  0  0  0  0  0  0
    9.4976  -17.7311   22.3247 O   0  0  0  0  0  0  0  0  0  0  0  0
    8.0340  -15.8495   22.7161 C   0  0  2  0  0  0  0  0  0  0  0  0
    8.4277  -15.1046   21.5654 N   0  0  0  0  0  0  0  0  0  0  0  0
    8.7371  -15.4381   23.9556 C   0  0  0  0  0  0  0  0  0  0  0  0
    9.9437  -15.1058   23.8493 O   0  0  0  0  0  0  0  0  0  0  0  0
    5.8955  -11.9406   26.6590 C   0  0  0  0  0  0  0  0  0  0  0  0
    6.9919  -12.7409   26.0143 C   0  0  0  0  0  0  0  0  0  0  0  0
    7.7564  -13.6305   26.8987 C   0  0  2  0  0  0  0  0  0  0  0  0
    8.4584  -12.7575   27.9734 C   0  0  0  0  0  0  0  0  0  0  0  0
    8.6814  -14.6249   26.3430 C   0  0  2  0  0  0  0  0  0  0  0  0
    8.1436  -15.3965   25.2336 N   0  0  0  0  0  0  0  0  0  0  0  0
    9.2439  -15.5342   27.3353 C   0  0  0  0  0  0  0  0  0  0  0  0
   10.2532  -15.0741   28.1826 O   0  0  0  0  0  0  0  0  0  0  0  0
    8.8231  -16.7334   27.4281 O   0  0  0  0  0  0  0  0  0  0  0  0
  1  2  1  0
  2  3  1  0
  4  3  1  0
  5  4  1  0
  5  1  1  0
  6  7  2  0
  5  6  1  1
  9  8  1  6
  9 11  1  0
 10  9  1  0
 11 12  1  6
 11 13  1  0
 12  6  1  0
 13 20  1  0
 14 13  2  0
 16 15  1  0
 17 18  1  1
 17 16  1  0
 19 21  1  0
 19 17  1  0
 19 20  1  6
 21 22  1  0
 23 21  2  0
M  END
$$$$
