PTI.pdb
     RDKit          3D

 23 23  0  0  1  0  0  0  0  0999 V2000
    8.0520  -14.9829   17.6015 N   0  0  0  0  0  0  0  0  0  0  0  0
    8.4689  -13.8642   16.7530 C   0  0  0  0  0  0  0  0  0  0  0  0
    8.1012  -12.6783   17.6256 C   0  0  0  0  0  0  0  0  0  0  0  0
    8.5444  -13.1407   18.9917 C   0  0  0  0  0  0  0  0  0  0  0  0
    8.6270  -14.6316   18.8610 C   0  0  1  0  0  0  0  0  0  0  0  0
    7.9344  -15.2688   20.0103 C   0  0  0  0  0  0  0  0  0  0  0  0
    6.9889  -16.0846   19.8410 O   0  0  0  0  0  0  0  0  0  0  0  0
    7.3564  -17.6842   21.1914 C   0  0  0  0  0  0  0  0  0  0  0  0
    8.1889  -17.1869   22.3692 C   0  0  1  0  0  0  0  0  0  0  0  0
    9.5209  -17.4859   22.2175 O   0  0  0  0  0  0  0  0  0  0  0  0
    7.9426  -15.6783   22.4958 C   0  0  2  0  0  0  0  0  0  0  0  0
    8.3329  -14.9635   21.3251 N   0  0  0  0  0  0  0  0  0  0  0  0
    8.5781  -15.1725   23.7368 C   0  0  0  0  0  0  0  0  0  0  0  0
    9.7570  -14.7481   23.6477 O   0  0  0  0  0  0  0  0  0  0  0  0
    6.5377  -10.9523   27.2427 C   0  0  0  0  0  0  0  0  0  0  0  0
    7.4609  -12.1355   27.3205 C   0  0  0  0  0  0  0  0  0  0  0  0
    7.2372  -13.2030   26.3365 C   0  0  2  0  0  0  0  0  0  0  0  0
    5.9035  -13.9148   26.6898 C   0  0  0  0  0  0  0  0  0  0  0  0
    8.2911  -14.1794   26.0380 C   0  0  2  0  0  0  0  0  0  0  0  0
    7.9500  -15.1376   24.9984 N   0  0  0  0  0  0  0  0  0  0  0  0
    8.7889  -14.8940   27.2082 C   0  0  0  0  0  0  0  0  0  0  0  0
    8.6616  -16.2830   27.2604 O   0  0  0  0  0  0  0  0  0  0  0  0
    9.3311  -14.2611   28.1722 O   0  0  0  0  0  0  0  0  0  0  0  0
  1  2  1  0
  2  3  1  0
  4  3  1  0
  5  4  1  0
  5  1  1  0
  6  7  2  0
  5  6  1  1
  9  8  1  6
  9 11  1  0
 10  9  1  0
 11 12  1  6
 11 13  1  0
 12  6  1  0
 13 20  1  0
 14 13  2  0
 16 15  1  0
 17 18  1  1
 17 16  1  0
 19 21  1  0
 19 17  1  0
 19 20  1  6
 21 22  1  0
 23 21  2  0
M  END
$$$$
