PTI.pdb
     RDKit          3D

 23 23  0  0  1  0  0  0  0  0999 V2000
    8.8616  -15.1369   18.6502 N   0  0  0  0  0  0  0  0  0  0  0  0
    8.9210  -14.5538   17.3080 C   0  0  0  0  0  0  0  0  0  0  0  0
    7.7618  -13.5756   17.3591 C   0  0  0  0  0  0  0  0  0  0  0  0
    7.9117  -12.9784   18.7364 C   0  0  0  0  0  0  0  0  0  0  0  0
    8.7527  -13.9756   19.4748 C   0  0  1  0  0  0  0  0  0  0  0  0
    8.1372  -14.2608   20.7963 C   0  0  0  0  0  0  0  0  0  0  0  0
    7.8296  -13.3353   21.5944 O   0  0  0  0  0  0  0  0  0  0  0  0
    6.4675  -17.8290   23.8368 C   0  0  0  0  0  0  0  0  0  0  0  0
    7.2084  -17.5284   22.5375 C   0  0  1  0  0  0  0  0  0  0  0  0
    6.5747  -18.0746   21.4482 O   0  0  0  0  0  0  0  0  0  0  0  0
    7.3385  -16.0038   22.4301 C   0  0  2  0  0  0  0  0  0  0  0  0
    7.8860  -15.5915   21.1794 N   0  0  0  0  0  0  0  0  0  0  0  0
    8.0842  -15.4840   23.6021 C   0  0  0  0  0  0  0  0  0  0  0  0
    9.3383  -15.4862   23.5331 O   0  0  0  0  0  0  0  0  0  0  0  0
    5.8558  -11.9899   27.8266 C   0  0  0  0  0  0  0  0  0  0  0  0
    6.2943  -13.2220   27.0864 C   0  0  0  0  0  0  0  0  0  0  0  0
    7.5850  -13.1395   26.3897 C   0  0  2  0  0  0  0  0  0  0  0  0
    7.4800  -12.0326   25.3064 C   0  0  0  0  0  0  0  0  0  0  0  0
    8.2227  -14.3455   25.8490 C   0  0  2  0  0  0  0  0  0  0  0  0
    7.4814  -14.9920   24.7776 N   0  0  0  0  0  0  0  0  0  0  0  0
    8.5735  -15.3371   26.8596 C   0  0  0  0  0  0  0  0  0  0  0  0
    8.0270  -16.6184   26.7719 O   0  0  0  0  0  0  0  0  0  0  0  0
    9.3663  -15.0397   27.8120 O   0  0  0  0  0  0  0  0  0  0  0  0
  1  2  1  0
  2  3  1  0
  4  3  1  0
  5  4  1  0
  5  1  1  0
  6  7  2  0
  5  6  1  1
  9  8  1  1
  9 11  1  0
 10  9  1  0
 11 12  1  6
 11 13  1  0
 12  6  1  0
 13 20  1  0
 14 13  2  0
 16 15  1  0
 17 18  1  6
 17 16  1  0
 19 21  1  0
 19 17  1  0
 19 20  1  6
 21 22  1  0
 23 21  2  0
M  END
$$$$
