PTI.pdb
     RDKit          3D

 23 23  0  0  1  0  0  0  0  0999 V2000
    8.9664  -14.9181   18.6712 N   0  0  0  0  0  0  0  0  0  0  0  0
    8.9577  -14.2983   17.3442 C   0  0  0  0  0  0  0  0  0  0  0  0
    7.7642  -13.3681   17.4602 C   0  0  0  0  0  0  0  0  0  0  0  0
    7.9378  -12.8015   18.8478 C   0  0  0  0  0  0  0  0  0  0  0  0
    8.8410  -13.7839   19.5304 C   0  0  1  0  0  0  0  0  0  0  0  0
    8.2823  -14.1274   20.8632 C   0  0  0  0  0  0  0  0  0  0  0  0
    8.0040  -13.2378   21.7112 O   0  0  0  0  0  0  0  0  0  0  0  0
    6.4570  -17.8548   21.2816 C   0  0  0  0  0  0  0  0  0  0  0  0
    7.3395  -17.4626   22.4626 C   0  0  1  0  0  0  0  0  0  0  0  0
    8.5510  -18.1092   22.4338 O   0  0  0  0  0  0  0  0  0  0  0  0
    7.4941  -15.9370   22.4283 C   0  0  2  0  0  0  0  0  0  0  0  0
    8.0530  -15.4744   21.2005 N   0  0  0  0  0  0  0  0  0  0  0  0
    8.2432  -15.4854   23.6261 C   0  0  0  0  0  0  0  0  0  0  0  0
    9.4588  -15.2087   23.4739 O   0  0  0  0  0  0  0  0  0  0  0  0
    5.9808  -11.7193   26.4769 C   0  0  0  0  0  0  0  0  0  0  0  0
    7.0793  -12.5261   25.8441 C   0  0  0  0  0  0  0  0  0  0  0  0
    7.6387  -13.6154   26.6556 C   0  0  2  0  0  0  0  0  0  0  0  0
    8.4621  -12.9844   27.8106 C   0  0  0  0  0  0  0  0  0  0  0  0
    8.3758  -14.7166   26.0252 C   0  0  2  0  0  0  0  0  0  0  0  0
    7.6836  -15.3480   24.9128 N   0  0  0  0  0  0  0  0  0  0  0  0
    8.8253  -15.7432   26.9590 C   0  0  0  0  0  0  0  0  0  0  0  0
    9.9459  -15.4947   27.7532 O   0  0  0  0  0  0  0  0  0  0  0  0
    8.2064  -16.8535   27.0490 O   0  0  0  0  0  0  0  0  0  0  0  0
  1  2  1  0
  2  3  1  0
  4  3  1  0
  5  4  1  0
  5  1  1  0
  6  7  2  0
  5  6  1  1
  9  8  1  6
  9 11  1  0
 10  9  1  0
 11 12  1  6
 11 13  1  0
 12  6  1  0
 13 20  1  0
 14 13  2  0
 16 15  1  0
 17 18  1  1
 17 16  1  0
 19 21  1  0
 19 17  1  0
 19 20  1  6
 21 22  1  0
 23 21  2  0
M  END
$$$$
