PTI.pdb
     RDKit          3D

 23 23  0  0  1  0  0  0  0  0999 V2000
    8.7837  -14.9839   18.5488 N   0  0  0  0  0  0  0  0  0  0  0  0
    8.7459  -14.3961   17.2078 C   0  0  0  0  0  0  0  0  0  0  0  0
    7.5765  -13.4376   17.3379 C   0  0  0  0  0  0  0  0  0  0  0  0
    7.8059  -12.8418   18.7049 C   0  0  0  0  0  0  0  0  0  0  0  0
    8.7095  -13.8268   19.3831 C   0  0  1  0  0  0  0  0  0  0  0  0
    8.1862  -14.1259   20.7408 C   0  0  0  0  0  0  0  0  0  0  0  0
    7.9535  -13.2103   21.5747 O   0  0  0  0  0  0  0  0  0  0  0  0
    6.1399  -17.7015   21.2072 C   0  0  0  0  0  0  0  0  0  0  0  0
    7.0655  -17.3839   22.3776 C   0  0  1  0  0  0  0  0  0  0  0  0
    8.2213  -18.1248   22.3324 O   0  0  0  0  0  0  0  0  0  0  0  0
    7.3406  -15.8753   22.3438 C   0  0  2  0  0  0  0  0  0  0  0  0
    7.9398  -15.4591   21.1184 N   0  0  0  0  0  0  0  0  0  0  0  0
    8.1180  -15.4840   23.5449 C   0  0  0  0  0  0  0  0  0  0  0  0
    9.3421  -15.2508   23.3870 O   0  0  0  0  0  0  0  0  0  0  0  0
    5.8542  -11.9874   26.8281 C   0  0  0  0  0  0  0  0  0  0  0  0
    6.9870  -12.6507   26.0965 C   0  0  0  0  0  0  0  0  0  0  0  0
    7.5944  -13.8156   26.7539 C   0  0  2  0  0  0  0  0  0  0  0  0
    8.4577  -13.3064   27.9394 C   0  0  0  0  0  0  0  0  0  0  0  0
    8.3183  -14.8241   25.9715 C   0  0  2  0  0  0  0  0  0  0  0  0
    7.5763  -15.3580   24.8403 N   0  0  0  0  0  0  0  0  0  0  0  0
    8.8463  -15.9275   26.7663 C   0  0  0  0  0  0  0  0  0  0  0  0
   10.1150  -15.8077   27.3357 O   0  0  0  0  0  0  0  0  0  0  0  0
    8.1615  -16.9883   26.9384 O   0  0  0  0  0  0  0  0  0  0  0  0
  1  2  1  0
  2  3  1  0
  4  3  1  0
  5  4  1  0
  5  1  1  0
  6  7  2  0
  5  6  1  1
  9  8  1  6
  9 11  1  0
 10  9  1  0
 11 12  1  6
 11 13  1  0
 12  6  1  0
 13 20  1  0
 14 13  2  0
 16 15  1  0
 17 18  1  1
 17 16  1  0
 19 21  1  0
 19 17  1  0
 19 20  1  6
 21 22  1  0
 23 21  2  0
M  END
$$$$
