PTI.pdb
     RDKit          3D

 23 23  0  0  1  0  0  0  0  0999 V2000
    8.7914  -14.9978   18.7959 N   0  0  0  0  0  0  0  0  0  0  0  0
    8.7542  -14.4027   17.4581 C   0  0  0  0  0  0  0  0  0  0  0  0
    7.5459  -13.4915   17.5734 C   0  0  0  0  0  0  0  0  0  0  0  0
    7.7278  -12.8966   18.9479 C   0  0  0  0  0  0  0  0  0  0  0  0
    8.6573  -13.8503   19.6360 C   0  0  1  0  0  0  0  0  0  0  0  0
    8.1224  -14.1790   20.9822 C   0  0  0  0  0  0  0  0  0  0  0  0
    7.8783  -13.2814   21.8324 O   0  0  0  0  0  0  0  0  0  0  0  0
    6.1543  -17.8148   21.4744 C   0  0  0  0  0  0  0  0  0  0  0  0
    7.1247  -17.4861   22.6048 C   0  0  1  0  0  0  0  0  0  0  0  0
    8.2969  -18.1936   22.4957 O   0  0  0  0  0  0  0  0  0  0  0  0
    7.3563  -15.9701   22.5793 C   0  0  2  0  0  0  0  0  0  0  0  0
    7.8775  -15.5205   21.3302 N   0  0  0  0  0  0  0  0  0  0  0  0
    8.1858  -15.5735   23.7431 C   0  0  0  0  0  0  0  0  0  0  0  0
    9.3829  -15.2665   23.5185 O   0  0  0  0  0  0  0  0  0  0  0  0
    5.9619  -11.9839   26.7596 C   0  0  0  0  0  0  0  0  0  0  0  0
    7.0813  -12.7182   26.0769 C   0  0  0  0  0  0  0  0  0  0  0  0
    7.7055  -13.8087   26.8379 C   0  0  2  0  0  0  0  0  0  0  0  0
    8.5542  -13.1804   27.9758 C   0  0  0  0  0  0  0  0  0  0  0  0
    8.4503  -14.8704   26.1514 C   0  0  2  0  0  0  0  0  0  0  0  0
    7.7214  -15.5193   25.0731 N   0  0  0  0  0  0  0  0  0  0  0  0
    8.9971  -15.8864   27.0440 C   0  0  0  0  0  0  0  0  0  0  0  0
   10.1495  -15.5973   27.7765 O   0  0  0  0  0  0  0  0  0  0  0  0
    8.4335  -17.0240   27.1539 O   0  0  0  0  0  0  0  0  0  0  0  0
  1  2  1  0
  2  3  1  0
  4  3  1  0
  5  4  1  0
  5  1  1  0
  6  7  2  0
  5  6  1  1
  9  8  1  6
  9 11  1  0
 10  9  1  0
 11 12  1  6
 11 13  1  0
 12  6  1  0
 13 20  1  0
 14 13  2  0
 16 15  1  0
 17 18  1  1
 17 16  1  0
 19 21  1  0
 19 17  1  0
 19 20  1  6
 21 22  1  0
 23 21  2  0
M  END
$$$$
