PTI.pdb
     RDKit          3D

 23 23  0  0  1  0  0  0  0  0999 V2000
    8.9165  -14.9005   18.8005 N   0  0  0  0  0  0  0  0  0  0  0  0
    8.7856  -14.2911   17.4751 C   0  0  0  0  0  0  0  0  0  0  0  0
    7.4929  -13.5122   17.6342 C   0  0  0  0  0  0  0  0  0  0  0  0
    7.6454  -12.9238   19.0151 C   0  0  0  0  0  0  0  0  0  0  0  0
    8.6848  -13.7868   19.6645 C   0  0  1  0  0  0  0  0  0  0  0  0
    8.2195  -14.1908   21.0160 C   0  0  0  0  0  0  0  0  0  0  0  0
    7.8344  -13.3406   21.8628 O   0  0  0  0  0  0  0  0  0  0  0  0
    6.9528  -18.1320   21.4750 C   0  0  0  0  0  0  0  0  0  0  0  0
    7.7739  -17.6109   22.6505 C   0  0  1  0  0  0  0  0  0  0  0  0
    9.0639  -18.0816   22.6229 O   0  0  0  0  0  0  0  0  0  0  0  0
    7.7131  -16.0790   22.6046 C   0  0  2  0  0  0  0  0  0  0  0  0
    8.2028  -15.5520   21.3732 N   0  0  0  0  0  0  0  0  0  0  0  0
    8.3904  -15.5178   23.7988 C   0  0  0  0  0  0  0  0  0  0  0  0
    9.5768  -15.1303   23.6583 O   0  0  0  0  0  0  0  0  0  0  0  0
    5.8752  -11.8183   26.5090 C   0  0  0  0  0  0  0  0  0  0  0  0
    7.0229  -12.5889   25.9197 C   0  0  0  0  0  0  0  0  0  0  0  0
    7.6165  -13.6280   26.7718 C   0  0  2  0  0  0  0  0  0  0  0  0
    8.3793  -12.9277   27.9283 C   0  0  0  0  0  0  0  0  0  0  0  0
    8.4226  -14.7058   26.1871 C   0  0  2  0  0  0  0  0  0  0  0  0
    7.7936  -15.3925   25.0699 N   0  0  0  0  0  0  0  0  0  0  0  0
    8.8922  -15.6901   27.1558 C   0  0  0  0  0  0  0  0  0  0  0  0
    8.4071  -16.9970   27.0853 O   0  0  0  0  0  0  0  0  0  0  0  0
    9.7324  -15.3636   28.0565 O   0  0  0  0  0  0  0  0  0  0  0  0
  1  2  1  0
  2  3  1  0
  4  3  1  0
  5  4  1  0
  5  1  1  0
  6  7  2  0
  5  6  1  1
  9  8  1  6
  9 11  1  0
 10  9  1  0
 11 12  1  6
 11 13  1  0
 12  6  1  0
 13 20  1  0
 14 13  2  0
 16 15  1  0
 17 18  1  1
 17 16  1  0
 19 21  1  0
 19 17  1  0
 19 20  1  6
 21 22  1  0
 23 21  2  0
M  END
$$$$
