PTI.pdb
     RDKit          3D

 23 23  0  0  1  0  0  0  0  0999 V2000
    7.8804  -14.8957   18.2329 N   0  0  0  0  0  0  0  0  0  0  0  0
    8.0755  -13.7791   17.3053 C   0  0  0  0  0  0  0  0  0  0  0  0
    7.5605  -12.6149   18.1315 C   0  0  0  0  0  0  0  0  0  0  0  0
    8.1307  -12.9175   19.4952 C   0  0  0  0  0  0  0  0  0  0  0  0
    8.4455  -14.3820   19.4401 C   0  0  1  0  0  0  0  0  0  0  0  0
    7.9143  -15.0490   20.6564 C   0  0  0  0  0  0  0  0  0  0  0  0
    6.6758  -15.1712   20.8543 O   0  0  0  0  0  0  0  0  0  0  0  0
    8.0669  -18.3621   21.8401 C   0  0  0  0  0  0  0  0  0  0  0  0
    8.8174  -17.6315   22.9495 C   0  0  1  0  0  0  0  0  0  0  0  0
   10.1750  -17.8194   22.8593 O   0  0  0  0  0  0  0  0  0  0  0  0
    8.4287  -16.1503   22.8628 C   0  0  2  0  0  0  0  0  0  0  0  0
    8.8038  -15.5615   21.6192 N   0  0  0  0  0  0  0  0  0  0  0  0
    8.9593  -15.4264   24.0436 C   0  0  0  0  0  0  0  0  0  0  0  0
    9.9745  -14.7076   23.8693 O   0  0  0  0  0  0  0  0  0  0  0  0
    6.2987  -11.8702   26.6394 C   0  0  0  0  0  0  0  0  0  0  0  0
    7.4159  -12.7046   26.0792 C   0  0  0  0  0  0  0  0  0  0  0  0
    7.9931  -13.7111   26.9802 C   0  0  2  0  0  0  0  0  0  0  0  0
    8.6061  -12.9730   28.2006 C   0  0  0  0  0  0  0  0  0  0  0  0
    8.9119  -14.7349   26.4692 C   0  0  2  0  0  0  0  0  0  0  0  0
    8.4026  -15.4926   25.3371 N   0  0  0  0  0  0  0  0  0  0  0  0
    9.3997  -15.6583   27.4876 C   0  0  0  0  0  0  0  0  0  0  0  0
    8.9161  -16.9675   27.5045 O   0  0  0  0  0  0  0  0  0  0  0  0
   10.2542  -15.2770   28.3526 O   0  0  0  0  0  0  0  0  0  0  0  0
  1  2  1  0
  2  3  1  0
  4  3  1  0
  5  4  1  0
  5  1  1  0
  6  7  2  0
  5  6  1  1
  9  8  1  6
  9 11  1  0
 10  9  1  0
 11 12  1  6
 11 13  1  0
 12  6  1  0
 13 20  1  0
 14 13  2  0
 16 15  1  0
 17 18  1  1
 17 16  1  0
 19 21  1  0
 19 17  1  0
 19 20  1  6
 21 22  1  0
 23 21  2  0
M  END
$$$$
