PTI.pdb
     RDKit          3D

 23 23  0  0  1  0  0  0  0  0999 V2000
    7.0035  -20.4900   22.8926 N   0  0  0  0  0  0  0  0  0  0  0  0
    5.6105  -20.7204   23.2819 C   0  0  0  0  0  0  0  0  0  0  0  0
    5.1655  -19.3131   23.6350 C   0  0  0  0  0  0  0  0  0  0  0  0
    5.7930  -18.4964   22.5325 C   0  0  0  0  0  0  0  0  0  0  0  0
    6.8842  -19.3779   22.0040 C   0  0  1  0  0  0  0  0  0  0  0  0
    8.1408  -18.5944   21.8867 C   0  0  0  0  0  0  0  0  0  0  0  0
    8.9884  -18.8377   20.9865 O   0  0  0  0  0  0  0  0  0  0  0  0
    9.3741  -16.7666   20.2313 C   0  0  0  0  0  0  0  0  0  0  0  0
    9.3889  -15.7833   21.3978 C   0  0  1  0  0  0  0  0  0  0  0  0
    8.2971  -14.9501   21.3792 O   0  0  0  0  0  0  0  0  0  0  0  0
    9.4680  -16.6090   22.6880 C   0  0  2  0  0  0  0  0  0  0  0  0
    8.4042  -17.5528   22.7957 N   0  0  0  0  0  0  0  0  0  0  0  0
    9.5723  -15.6999   23.8553 C   0  0  0  0  0  0  0  0  0  0  0  0
   10.5594  -14.9243   23.8939 O   0  0  0  0  0  0  0  0  0  0  0  0
    5.8932  -12.4378   25.9109 C   0  0  0  0  0  0  0  0  0  0  0  0
    7.1699  -13.1209   25.5087 C   0  0  0  0  0  0  0  0  0  0  0  0
    7.7875  -13.9942   26.5157 C   0  0  2  0  0  0  0  0  0  0  0  0
    8.1909  -13.1190   27.7328 C   0  0  0  0  0  0  0  0  0  0  0  0
    8.8705  -14.9132   26.1471 C   0  0  2  0  0  0  0  0  0  0  0  0
    8.6433  -15.6509   24.9145 N   0  0  0  0  0  0  0  0  0  0  0  0
    9.2459  -15.8449   27.2048 C   0  0  0  0  0  0  0  0  0  0  0  0
   10.1465  -15.4297   28.1871 O   0  0  0  0  0  0  0  0  0  0  0  0
    8.7615  -17.0233   27.2330 O   0  0  0  0  0  0  0  0  0  0  0  0
  1  2  1  0
  2  3  1  0
  4  3  1  0
  5  4  1  0
  5  1  1  0
  6  7  2  0
  5  6  1  1
  9  8  1  6
  9 11  1  0
 10  9  1  0
 11 12  1  1
 11 13  1  0
 12  6  1  0
 13 20  1  0
 14 13  2  0
 16 15  1  0
 17 18  1  1
 17 16  1  0
 19 21  1  0
 19 17  1  0
 19 20  1  6
 21 22  1  0
 23 21  2  0
M  END
$$$$
