PTI.pdb
     RDKit          3D

 23 23  0  0  1  0  0  0  0  0999 V2000
    7.9912  -15.0432   18.5883 N   0  0  0  0  0  0  0  0  0  0  0  0
    8.1543  -13.9521   17.6250 C   0  0  0  0  0  0  0  0  0  0  0  0
    7.6036  -12.7775   18.4127 C   0  0  0  0  0  0  0  0  0  0  0  0
    8.1806  -13.0186   19.7857 C   0  0  0  0  0  0  0  0  0  0  0  0
    8.5390  -14.4740   19.7784 C   0  0  1  0  0  0  0  0  0  0  0  0
    8.0262  -15.1167   21.0155 C   0  0  0  0  0  0  0  0  0  0  0  0
    6.7968  -15.1283   21.2921 O   0  0  0  0  0  0  0  0  0  0  0  0
    7.9717  -18.4665   22.2663 C   0  0  0  0  0  0  0  0  0  0  0  0
    8.8662  -17.7693   23.2868 C   0  0  1  0  0  0  0  0  0  0  0  0
   10.1934  -18.0635   23.0903 O   0  0  0  0  0  0  0  0  0  0  0  0
    8.5834  -16.2650   23.1872 C   0  0  2  0  0  0  0  0  0  0  0  0
    8.9232  -15.7313   21.9091 N   0  0  0  0  0  0  0  0  0  0  0  0
    9.2383  -15.5595   24.3156 C   0  0  0  0  0  0  0  0  0  0  0  0
   10.3444  -15.0103   24.0864 O   0  0  0  0  0  0  0  0  0  0  0  0
    6.6609  -11.9045   26.6556 C   0  0  0  0  0  0  0  0  0  0  0  0
    7.9252  -12.5918   26.2227 C   0  0  0  0  0  0  0  0  0  0  0  0
    8.4917  -13.5679   27.1631 C   0  0  2  0  0  0  0  0  0  0  0  0
    9.2205  -12.7873   28.2899 C   0  0  0  0  0  0  0  0  0  0  0  0
    9.3136  -14.6835   26.6801 C   0  0  2  0  0  0  0  0  0  0  0  0
    8.7041  -15.4666   25.6169 N   0  0  0  0  0  0  0  0  0  0  0  0
    9.7788  -15.5792   27.7332 C   0  0  0  0  0  0  0  0  0  0  0  0
    9.1069  -16.7841   27.9455 O   0  0  0  0  0  0  0  0  0  0  0  0
   10.7836  -15.2676   28.4524 O   0  0  0  0  0  0  0  0  0  0  0  0
  1  2  1  0
  2  3  1  0
  4  3  1  0
  5  4  1  0
  5  1  1  0
  6  7  2  0
  5  6  1  1
  9  8  1  6
  9 11  1  0
 10  9  1  0
 11 12  1  6
 11 13  1  0
 12  6  1  0
 13 20  1  0
 14 13  2  0
 16 15  1  0
 17 18  1  1
 17 16  1  0
 19 21  1  0
 19 17  1  0
 19 20  1  6
 21 22  1  0
 23 21  2  0
M  END
$$$$
