PTI.pdb
     RDKit          3D

 23 23  0  0  1  0  0  0  0  0999 V2000
    8.9041  -15.1147   18.7160 N   0  0  0  0  0  0  0  0  0  0  0  0
    9.0157  -14.5586   17.3656 C   0  0  0  0  0  0  0  0  0  0  0  0
    7.8448  -13.5933   17.3456 C   0  0  0  0  0  0  0  0  0  0  0  0
    7.9279  -12.9661   18.7153 C   0  0  0  0  0  0  0  0  0  0  0  0
    8.7466  -13.9380   19.5104 C   0  0  1  0  0  0  0  0  0  0  0  0
    8.0771  -14.2032   20.8096 C   0  0  0  0  0  0  0  0  0  0  0  0
    7.8048  -13.2719   21.6137 O   0  0  0  0  0  0  0  0  0  0  0  0
    5.9644  -17.7964   21.3724 C   0  0  0  0  0  0  0  0  0  0  0  0
    6.9408  -17.4376   22.4884 C   0  0  1  0  0  0  0  0  0  0  0  0
    8.1092  -18.1539   22.3967 O   0  0  0  0  0  0  0  0  0  0  0  0
    7.1796  -15.9243   22.4151 C   0  0  2  0  0  0  0  0  0  0  0  0
    7.7330  -15.5210   21.1641 N   0  0  0  0  0  0  0  0  0  0  0  0
    7.9823  -15.4897   23.5842 C   0  0  0  0  0  0  0  0  0  0  0  0
    9.1930  -15.2223   23.3833 O   0  0  0  0  0  0  0  0  0  0  0  0
    5.8362  -11.7482   26.6194 C   0  0  0  0  0  0  0  0  0  0  0  0
    6.8845  -12.5540   25.9052 C   0  0  0  0  0  0  0  0  0  0  0  0
    7.4912  -13.6548   26.6656 C   0  0  2  0  0  0  0  0  0  0  0  0
    8.3529  -13.0407   27.8016 C   0  0  0  0  0  0  0  0  0  0  0  0
    8.2163  -14.7296   25.9782 C   0  0  2  0  0  0  0  0  0  0  0  0
    7.4785  -15.3587   24.8943 N   0  0  0  0  0  0  0  0  0  0  0  0
    8.7374  -15.7603   26.8692 C   0  0  0  0  0  0  0  0  0  0  0  0
    9.9397  -15.5327   27.5406 O   0  0  0  0  0  0  0  0  0  0  0  0
    8.1066  -16.8554   27.0328 O   0  0  0  0  0  0  0  0  0  0  0  0
  1  2  1  0
  2  3  1  0
  4  3  1  0
  5  4  1  0
  5  1  1  0
  6  7  2  0
  5  6  1  1
  9  8  1  6
  9 11  1  0
 10  9  1  0
 11 12  1  6
 11 13  1  0
 12  6  1  0
 13 20  1  0
 14 13  2  0
 16 15  1  0
 17 18  1  1
 17 16  1  0
 19 21  1  0
 19 17  1  0
 19 20  1  6
 21 22  1  0
 23 21  2  0
M  END
$$$$
