PTI.pdb
     RDKit          3D

 23 23  0  0  1  0  0  0  0  0999 V2000
    8.8264  -15.0940   18.5267 N   0  0  0  0  0  0  0  0  0  0  0  0
    8.8969  -14.5296   17.1770 C   0  0  0  0  0  0  0  0  0  0  0  0
    7.7627  -13.5220   17.2182 C   0  0  0  0  0  0  0  0  0  0  0  0
    7.9312  -12.9113   18.5875 C   0  0  0  0  0  0  0  0  0  0  0  0
    8.7487  -13.9198   19.3367 C   0  0  1  0  0  0  0  0  0  0  0  0
    8.1298  -14.1727   20.6631 C   0  0  0  0  0  0  0  0  0  0  0  0
    7.8308  -13.2286   21.4424 O   0  0  0  0  0  0  0  0  0  0  0  0
    6.0313  -17.7266   21.2235 C   0  0  0  0  0  0  0  0  0  0  0  0
    6.9688  -17.3780   22.3755 C   0  0  1  0  0  0  0  0  0  0  0  0
    8.1242  -18.1198   22.3382 O   0  0  0  0  0  0  0  0  0  0  0  0
    7.2431  -15.8708   22.2988 C   0  0  2  0  0  0  0  0  0  0  0  0
    7.8653  -15.4930   21.0724 N   0  0  0  0  0  0  0  0  0  0  0  0
    7.9968  -15.4401   23.5014 C   0  0  0  0  0  0  0  0  0  0  0  0
    9.2382  -15.2924   23.3799 O   0  0  0  0  0  0  0  0  0  0  0  0
    5.8917  -12.1003   27.7045 C   0  0  0  0  0  0  0  0  0  0  0  0
    6.2584  -13.3485   26.9523 C   0  0  0  0  0  0  0  0  0  0  0  0
    7.6427  -13.4352   26.4682 C   0  0  2  0  0  0  0  0  0  0  0  0
    7.8938  -12.2437   25.5053 C   0  0  0  0  0  0  0  0  0  0  0  0
    8.1616  -14.6861   25.9031 C   0  0  2  0  0  0  0  0  0  0  0  0
    7.4149  -15.1882   24.7605 N   0  0  0  0  0  0  0  0  0  0  0  0
    8.3265  -15.7568   26.8799 C   0  0  0  0  0  0  0  0  0  0  0  0
    9.2584  -15.6008   27.9073 O   0  0  0  0  0  0  0  0  0  0  0  0
    7.6322  -16.8221   26.7977 O   0  0  0  0  0  0  0  0  0  0  0  0
  1  2  1  0
  2  3  1  0
  4  3  1  0
  5  4  1  0
  5  1  1  0
  6  7  2  0
  5  6  1  1
  9  8  1  6
  9 11  1  0
 10  9  1  0
 11 12  1  6
 11 13  1  0
 12  6  1  0
 13 20  1  0
 14 13  2  0
 16 15  1  0
 17 18  1  6
 17 16  1  0
 19 21  1  0
 19 17  1  0
 19 20  1  6
 21 22  1  0
 23 21  2  0
M  END
$$$$
