TYR.pdb
     RDKit          3D

 31 31  0  0  1  0  0  0  0  0999 V2000
    7.5571  -18.1157   18.1407 C   0  0  0  0  0  0  0  0  0  0  0  0
    7.9413  -17.6649   19.5160 C   0  0  1  0  0  0  0  0  0  0  0  0
    8.7938  -18.5831   20.1314 O   0  0  0  0  0  0  0  0  0  0  0  0
    8.6534  -16.3338   19.4463 C   0  0  2  0  0  0  0  0  0  0  0  0
    9.9228  -16.4778   18.7400 N   0  0  0  0  0  0  0  0  0  0  0  0
    8.9136  -15.8342   20.8091 C   0  0  0  0  0  0  0  0  0  0  0  0
    9.9901  -16.1361   21.3909 O   0  0  0  0  0  0  0  0  0  0  0  0
    7.1780  -11.6797   28.5465 O   0  0  0  0  0  0  0  0  0  0  0  0
    7.1800  -12.1366   27.2298 C   0  0  0  0  0  0  0  0  0  0  0  0
    8.3136  -12.0135   26.4538 C   0  0  0  0  0  0  0  0  0  0  0  0
    8.3288  -12.4615   25.1506 C   0  0  0  0  0  0  0  0  0  0  0  0
    7.2095  -13.0565   24.5559 C   0  0  0  0  0  0  0  0  0  0  0  0
    7.2743  -13.5186   23.1622 C   0  0  0  0  0  0  0  0  0  0  0  0
    8.2671  -14.6029   22.8762 C   0  0  2  0  0  0  0  0  0  0  0  0
    7.9754  -15.0178   21.4839 N   0  0  0  0  0  0  0  0  0  0  0  0
    8.1056  -15.8239   23.6970 C   0  0  0  0  0  0  0  0  0  0  0  0
    7.1857  -16.6329   23.4579 O   0  0  0  0  0  0  0  0  0  0  0  0
    6.0885  -13.1685   25.3510 C   0  0  0  0  0  0  0  0  0  0  0  0
    6.0680  -12.7197   26.6609 C   0  0  0  0  0  0  0  0  0  0  0  0
   11.5381  -19.4413   20.5903 N   0  0  0  0  0  0  0  0  0  0  0  0
   12.7035  -19.6455   21.4068 C   0  0  0  0  0  0  0  0  0  0  0  0
   13.8603  -19.6854   20.8716 N   0  0  0  0  0  0  0  0  0  0  0  0
   12.4885  -19.8018   22.8344 N   0  0  0  0  0  0  0  0  0  0  0  0
   11.1704  -19.6762   23.3334 C   0  0  0  0  0  0  0  0  0  0  0  0
   10.8138  -18.5501   24.2095 C   0  0  0  0  0  0  0  0  0  0  0  0
    9.4014  -18.4464   24.6470 C   0  0  0  0  0  0  0  0  0  0  0  0
    9.0037  -17.3457   25.5300 C   0  0  2  0  0  0  0  0  0  0  0  0
    8.9959  -16.0870   24.7579 N   0  0  0  0  0  0  0  0  0  0  0  0
    9.8383  -17.2008   26.7332 C   0  0  0  0  0  0  0  0  0  0  0  0
    9.8825  -18.2356   27.6840 O   0  0  0  0  0  0  0  0  0  0  0  0
   10.5352  -16.2068   26.9898 O   0  0  0  0  0  0  0  0  0  0  0  0
  2  4  1  0
  2  1  1  6
  3  2  1  0
  4  5  1  1
  4  6  1  0
  6 15  1  0
  6  7  2  0
  8  9  1  0
  9 10  2  0
 10 11  1  0
 12 13  1  0
 12 11  2  0
 14 13  1  1
 14 16  1  0
 15 14  1  0
 16 17  2  0
 18 12  1  0
 19  9  1  0
 19 18  2  0
 20 21  1  0
 21 22  2  0
 21 23  1  0
 23 24  1  0
 24 25  1  0
 25 26  1  0
 27 26  1  6
 27 29  1  0
 28 27  1  0
 28 16  1  0
 29 30  1  0
 31 29  2  0
M  END
$$$$
