TYR.pdb
     RDKit          3D

 31 31  0  0  1  0  0  0  0  0999 V2000
    7.8663  -17.5690   19.5983 C   0  0  0  0  0  0  0  0  0  0  0  0
    8.0363  -18.0238   18.1819 C   0  0  1  0  0  0  0  0  0  0  0  0
    6.8034  -18.1649   17.5426 O   0  0  0  0  0  0  0  0  0  0  0  0
    8.8561  -17.0173   17.4080 C   0  0  2  0  0  0  0  0  0  0  0  0
    8.9897  -17.4391   16.0169 N   0  0  0  0  0  0  0  0  0  0  0  0
   10.1983  -16.8993   18.0073 C   0  0  0  0  0  0  0  0  0  0  0  0
   11.1041  -17.7113   17.6772 O   0  0  0  0  0  0  0  0  0  0  0  0
   17.7997  -13.1913   19.7520 O   0  0  0  0  0  0  0  0  0  0  0  0
   16.4409  -13.4753   19.6280 C   0  0  0  0  0  0  0  0  0  0  0  0
   15.6765  -13.7161   20.7506 C   0  0  0  0  0  0  0  0  0  0  0  0
   14.3319  -13.9977   20.6417 C   0  0  0  0  0  0  0  0  0  0  0  0
   13.6818  -14.0531   19.4027 C   0  0  0  0  0  0  0  0  0  0  0  0
   12.2455  -14.3576   19.3377 C   0  0  0  0  0  0  0  0  0  0  0  0
   11.8734  -15.8006   19.4884 C   0  0  2  0  0  0  0  0  0  0  0  0
   10.4950  -15.8883   18.9516 N   0  0  0  0  0  0  0  0  0  0  0  0
   11.7860  -16.2756   20.8875 C   0  0  0  0  0  0  0  0  0  0  0  0
   10.9445  -15.7909   21.6716 O   0  0  0  0  0  0  0  0  0  0  0  0
   14.4664  -13.8091   18.2954 C   0  0  0  0  0  0  0  0  0  0  0  0
   15.8179  -13.5259   18.3993 C   0  0  0  0  0  0  0  0  0  0  0  0
   11.4791  -23.4827   24.7726 N   0  0  0  0  0  0  0  0  0  0  0  0
   10.4804  -23.2880   23.7571 C   0  0  0  0  0  0  0  0  0  0  0  0
    9.8052  -24.2800   23.3257 N   0  0  0  0  0  0  0  0  0  0  0  0
   10.2957  -21.9341   23.2658 N   0  0  0  0  0  0  0  0  0  0  0  0
   11.3140  -20.9838   23.5150 C   0  0  0  0  0  0  0  0  0  0  0  0
   11.8340  -20.1504   22.4204 C   0  0  0  0  0  0  0  0  0  0  0  0
   12.9399  -19.2166   22.7397 C   0  0  0  0  0  0  0  0  0  0  0  0
   12.6814  -17.7736   22.7414 C   0  0  2  0  0  0  0  0  0  0  0  0
   12.6536  -17.2871   21.3475 N   0  0  0  0  0  0  0  0  0  0  0  0
   13.6366  -16.9867   23.5373 C   0  0  0  0  0  0  0  0  0  0  0  0
   14.5441  -16.1271   22.8938 O   0  0  0  0  0  0  0  0  0  0  0  0
   13.7116  -17.0158   24.7756 O   0  0  0  0  0  0  0  0  0  0  0  0
  2  4  1  0
  2  1  1  1
  3  2  1  0
  4  5  1  6
  4  6  1  0
  6 15  1  0
  6  7  2  0
  8  9  1  0
  9 10  2  0
 10 11  1  0
 12 13  1  0
 12 11  2  0
 14 13  1  1
 14 16  1  0
 15 14  1  0
 16 17  2  0
 18 12  1  0
 19  9  1  0
 19 18  2  0
 20 21  1  0
 21 22  2  0
 21 23  1  0
 23 24  1  0
 24 25  1  0
 25 26  1  0
 27 26  1  6
 27 29  1  0
 28 27  1  0
 28 16  1  0
 29 30  1  0
 31 29  2  0
M  END
$$$$
