TYR.pdb
     RDKit          3D

 31 31  0  0  1  0  0  0  0  0999 V2000
    7.2223  -17.9777   21.4369 C   0  0  0  0  0  0  0  0  0  0  0  0
    7.9788  -17.2622   20.3608 C   0  0  1  0  0  0  0  0  0  0  0  0
    7.3446  -17.3901   19.1238 O   0  0  0  0  0  0  0  0  0  0  0  0
    8.0809  -15.7904   20.6883 C   0  0  2  0  0  0  0  0  0  0  0  0
    8.6614  -15.0630   19.5637 N   0  0  0  0  0  0  0  0  0  0  0  0
    8.9329  -15.6008   21.8768 C   0  0  0  0  0  0  0  0  0  0  0  0
   10.1866  -15.6646   21.7641 O   0  0  0  0  0  0  0  0  0  0  0  0
   10.7396  -14.3993   30.5864 O   0  0  0  0  0  0  0  0  0  0  0  0
   10.1741  -14.4612   29.3140 C   0  0  0  0  0  0  0  0  0  0  0  0
   10.3149  -13.4040   28.4395 C   0  0  0  0  0  0  0  0  0  0  0  0
    9.7610  -13.4527   27.1784 C   0  0  0  0  0  0  0  0  0  0  0  0
    9.0369  -14.5629   26.7268 C   0  0  0  0  0  0  0  0  0  0  0  0
    8.4648  -14.5679   25.3731 C   0  0  0  0  0  0  0  0  0  0  0  0
    9.2763  -15.2584   24.3205 C   0  0  2  0  0  0  0  0  0  0  0  0
    8.3713  -15.3474   23.1506 N   0  0  0  0  0  0  0  0  0  0  0  0
    9.6495  -16.6542   24.6415 C   0  0  0  0  0  0  0  0  0  0  0  0
    8.7853  -17.5547   24.6597 O   0  0  0  0  0  0  0  0  0  0  0  0
    8.9096  -15.6068   27.6186 C   0  0  0  0  0  0  0  0  0  0  0  0
    9.4641  -15.5628   28.8868 C   0  0  0  0  0  0  0  0  0  0  0  0
   16.3477  -18.2759   21.0582 N   0  0  0  0  0  0  0  0  0  0  0  0
   15.3026  -18.9613   20.3479 C   0  0  0  0  0  0  0  0  0  0  0  0
   15.4935  -19.3508   19.1488 N   0  0  0  0  0  0  0  0  0  0  0  0
   14.0535  -19.1737   21.0574 N   0  0  0  0  0  0  0  0  0  0  0  0
   13.9786  -18.7882   22.4168 C   0  0  0  0  0  0  0  0  0  0  0  0
   12.7540  -19.0384   23.1917 C   0  0  0  0  0  0  0  0  0  0  0  0
   12.7369  -18.5907   24.6046 C   0  0  0  0  0  0  0  0  0  0  0  0
   11.4502  -18.3436   25.2625 C   0  0  2  0  0  0  0  0  0  0  0  0
   10.9908  -16.9810   24.9267 N   0  0  0  0  0  0  0  0  0  0  0  0
   11.4690  -18.5305   26.7219 C   0  0  0  0  0  0  0  0  0  0  0  0
   11.5705  -19.8248   27.2613 O   0  0  0  0  0  0  0  0  0  0  0  0
   11.4026  -17.6083   27.5495 O   0  0  0  0  0  0  0  0  0  0  0  0
  2  4  1  0
  2  1  1  1
  3  2  1  0
  4  5  1  6
  4  6  1  0
  6 15  1  0
  6  7  2  0
  8  9  1  0
  9 10  2  0
 10 11  1  0
 12 13  1  0
 12 11  2  0
 14 13  1  1
 14 16  1  0
 15 14  1  0
 16 17  2  0
 18 12  1  0
 19  9  1  0
 19 18  2  0
 20 21  1  0
 21 22  2  0
 21 23  1  0
 23 24  1  0
 24 25  1  0
 25 26  1  0
 27 26  1  1
 27 29  1  0
 28 27  1  0
 28 16  1  0
 29 30  1  0
 31 29  2  0
M  END
$$$$
