TYR.pdb
     RDKit          3D

 31 31  0  0  1  0  0  0  0  0999 V2000
    9.7674  -20.5707   18.1629 C   0  0  0  0  0  0  0  0  0  0  0  0
   10.1684  -19.5947   19.2252 C   0  0  1  0  0  0  0  0  0  0  0  0
   11.5534  -19.5727   19.3976 O   0  0  0  0  0  0  0  0  0  0  0  0
    9.7181  -18.2023   18.8480 C   0  0  2  0  0  0  0  0  0  0  0  0
   10.4085  -17.7593   17.6404 N   0  0  0  0  0  0  0  0  0  0  0  0
   10.0182  -17.2652   19.9463 C   0  0  0  0  0  0  0  0  0  0  0  0
   11.1314  -16.6750   19.9782 O   0  0  0  0  0  0  0  0  0  0  0  0
    6.1810  -11.8801   18.2369 O   0  0  0  0  0  0  0  0  0  0  0  0
    6.6803  -12.7075   19.2411 C   0  0  0  0  0  0  0  0  0  0  0  0
    6.0217  -13.8735   19.5716 C   0  0  0  0  0  0  0  0  0  0  0  0
    6.5052  -14.7006   20.5623 C   0  0  0  0  0  0  0  0  0  0  0  0
    7.6737  -14.4035   21.2744 C   0  0  0  0  0  0  0  0  0  0  0  0
    8.1495  -15.3170   22.3228 C   0  0  0  0  0  0  0  0  0  0  0  0
    9.4301  -16.0377   22.0330 C   0  0  2  0  0  0  0  0  0  0  0  0
    9.0783  -17.0117   20.9731 N   0  0  0  0  0  0  0  0  0  0  0  0
    9.9550  -16.8455   23.1567 C   0  0  0  0  0  0  0  0  0  0  0  0
    9.2906  -17.7941   23.6220 O   0  0  0  0  0  0  0  0  0  0  0  0
    8.3141  -13.2330   20.9265 C   0  0  0  0  0  0  0  0  0  0  0  0
    7.8325  -12.3984   19.9319 C   0  0  0  0  0  0  0  0  0  0  0  0
   18.1607  -17.2084   26.0435 N   0  0  0  0  0  0  0  0  0  0  0  0
   17.6603  -17.0954   24.7006 C   0  0  0  0  0  0  0  0  0  0  0  0
   18.0321  -16.1269   23.9591 N   0  0  0  0  0  0  0  0  0  0  0  0
   16.7316  -18.1190   24.2554 N   0  0  0  0  0  0  0  0  0  0  0  0
   15.5638  -18.3462   25.0213 C   0  0  0  0  0  0  0  0  0  0  0  0
   14.4830  -17.3491   25.0386 C   0  0  0  0  0  0  0  0  0  0  0  0
   13.3827  -17.5180   24.0598 C   0  0  0  0  0  0  0  0  0  0  0  0
   11.9948  -17.5016   24.5319 C   0  0  2  0  0  0  0  0  0  0  0  0
   11.2175  -16.5517   23.7110 N   0  0  0  0  0  0  0  0  0  0  0  0
   11.8434  -17.1838   25.9606 C   0  0  0  0  0  0  0  0  0  0  0  0
   12.1394  -18.1578   26.9303 O   0  0  0  0  0  0  0  0  0  0  0  0
   11.4644  -16.0872   26.4005 O   0  0  0  0  0  0  0  0  0  0  0  0
  2  4  1  0
  2  1  1  6
  3  2  1  0
  4  5  1  6
  4  6  1  0
  6 15  1  0
  6  7  2  0
  8  9  1  0
  9 10  2  0
 10 11  1  0
 12 13  1  0
 12 11  2  0
 14 13  1  1
 14 16  1  0
 15 14  1  0
 16 17  2  0
 18 12  1  0
 19  9  1  0
 19 18  2  0
 20 21  1  0
 21 22  2  0
 21 23  1  0
 23 24  1  0
 24 25  1  0
 25 26  1  0
 27 26  1  6
 27 29  1  0
 28 27  1  0
 28 16  1  0
 29 30  1  0
 31 29  2  0
M  END
$$$$
