TYR.pdb
     RDKit          3D

 31 31  0  0  1  0  0  0  0  0999 V2000
    8.6368  -20.1985   20.1575 C   0  0  0  0  0  0  0  0  0  0  0  0
    9.2059  -19.7078   18.8623 C   0  0  1  0  0  0  0  0  0  0  0  0
    8.7383  -20.4616   17.7845 O   0  0  0  0  0  0  0  0  0  0  0  0
    8.8129  -18.2664   18.6353 C   0  0  2  0  0  0  0  0  0  0  0  0
    9.2750  -17.8185   17.3249 N   0  0  0  0  0  0  0  0  0  0  0  0
    9.4160  -17.4139   19.6765 C   0  0  0  0  0  0  0  0  0  0  0  0
   10.5748  -16.9473   19.5090 O   0  0  0  0  0  0  0  0  0  0  0  0
    6.8083  -11.4064   18.4717 O   0  0  0  0  0  0  0  0  0  0  0  0
    7.1605  -12.3681   19.4169 C   0  0  0  0  0  0  0  0  0  0  0  0
    8.4503  -12.4250   19.9023 C   0  0  0  0  0  0  0  0  0  0  0  0
    8.8113  -13.3708   20.8374 C   0  0  0  0  0  0  0  0  0  0  0  0
    7.8996  -14.3095   21.3357 C   0  0  0  0  0  0  0  0  0  0  0  0
    8.3323  -15.2991   22.3324 C   0  0  0  0  0  0  0  0  0  0  0  0
    9.3891  -16.2617   21.8852 C   0  0  2  0  0  0  0  0  0  0  0  0
    8.7186  -17.1056   20.8684 N   0  0  0  0  0  0  0  0  0  0  0  0
    9.8585  -17.1974   22.9316 C   0  0  0  0  0  0  0  0  0  0  0  0
    9.0443  -17.8893   23.5766 O   0  0  0  0  0  0  0  0  0  0  0  0
    6.6169  -14.2329   20.8357 C   0  0  0  0  0  0  0  0  0  0  0  0
    6.2491  -13.2847   19.8959 C   0  0  0  0  0  0  0  0  0  0  0  0
   16.0473  -21.3469   20.2744 N   0  0  0  0  0  0  0  0  0  0  0  0
   15.1269  -22.2200   20.9505 C   0  0  0  0  0  0  0  0  0  0  0  0
   15.2771  -23.4845   20.8817 N   0  0  0  0  0  0  0  0  0  0  0  0
   14.0469  -21.5926   21.6912 N   0  0  0  0  0  0  0  0  0  0  0  0
   13.9557  -20.1807   21.6801 C   0  0  0  0  0  0  0  0  0  0  0  0
   12.7821  -19.5092   22.2586 C   0  0  0  0  0  0  0  0  0  0  0  0
   12.9094  -18.9793   23.6370 C   0  0  0  0  0  0  0  0  0  0  0  0
   11.7921  -18.2334   24.2240 C   0  0  2  0  0  0  0  0  0  0  0  0
   11.2358  -17.3188   23.2069 N   0  0  0  0  0  0  0  0  0  0  0  0
   12.1346  -17.4894   25.4464 C   0  0  0  0  0  0  0  0  0  0  0  0
   12.3934  -18.1848   26.6405 O   0  0  0  0  0  0  0  0  0  0  0  0
   12.2201  -16.2534   25.5163 O   0  0  0  0  0  0  0  0  0  0  0  0
  2  4  1  0
  2  1  1  1
  3  2  1  0
  4  5  1  6
  4  6  1  0
  6 15  1  0
  6  7  2  0
  8  9  1  0
  9 10  2  0
 10 11  1  0
 12 13  1  0
 12 11  2  0
 14 13  1  1
 14 16  1  0
 15 14  1  0
 16 17  2  0
 18 12  1  0
 19  9  1  0
 19 18  2  0
 20 21  1  0
 21 22  2  0
 21 23  1  0
 23 24  1  0
 24 25  1  0
 25 26  1  0
 27 26  1  6
 27 29  1  0
 28 27  1  0
 28 16  1  0
 29 30  1  0
 31 29  2  0
M  END
$$$$
