TYR.pdb
     RDKit          3D

 31 31  0  0  1  0  0  0  0  0999 V2000
    7.8878  -20.6627   22.8522 C   0  0  0  0  0  0  0  0  0  0  0  0
    6.4580  -21.0307   22.6028 C   0  0  1  0  0  0  0  0  0  0  0  0
    6.2978  -22.4147   22.5162 O   0  0  0  0  0  0  0  0  0  0  0  0
    5.5873  -20.5250   23.7298 C   0  0  2  0  0  0  0  0  0  0  0  0
    4.2064  -20.9548   23.5315 N   0  0  0  0  0  0  0  0  0  0  0  0
    5.6323  -19.0517   23.7736 C   0  0  0  0  0  0  0  0  0  0  0  0
    4.8962  -18.3803   23.0016 O   0  0  0  0  0  0  0  0  0  0  0  0
    7.5708  -10.8973   26.8957 O   0  0  0  0  0  0  0  0  0  0  0  0
    7.3666  -12.2594   26.6827 C   0  0  0  0  0  0  0  0  0  0  0  0
    8.4438  -13.1112   26.5537 C   0  0  0  0  0  0  0  0  0  0  0  0
    8.2556  -14.4601   26.3433 C   0  0  0  0  0  0  0  0  0  0  0  0
    6.9786  -15.0272   26.2509 C   0  0  0  0  0  0  0  0  0  0  0  0
    6.8288  -16.4717   26.0255 C   0  0  0  0  0  0  0  0  0  0  0  0
    6.5370  -16.8890   24.6170 C   0  0  2  0  0  0  0  0  0  0  0  0
    6.4894  -18.3692   24.6689 N   0  0  0  0  0  0  0  0  0  0  0  0
    7.5989  -16.5595   23.6400 C   0  0  0  0  0  0  0  0  0  0  0  0
    8.6283  -17.2608   23.5599 O   0  0  0  0  0  0  0  0  0  0  0  0
    5.9179  -14.1561   26.3829 C   0  0  0  0  0  0  0  0  0  0  0  0
    6.1016  -12.7999   26.5942 C   0  0  0  0  0  0  0  0  0  0  0  0
    7.2897  -13.1759   16.1036 N   0  0  0  0  0  0  0  0  0  0  0  0
    8.3699  -14.0892   16.3592 C   0  0  0  0  0  0  0  0  0  0  0  0
    8.8154  -14.8311   15.4225 N   0  0  0  0  0  0  0  0  0  0  0  0
    8.9042  -14.1163   17.7092 N   0  0  0  0  0  0  0  0  0  0  0  0
    8.3488  -13.2382   18.6697 C   0  0  0  0  0  0  0  0  0  0  0  0
    8.8579  -13.2309   20.0494 C   0  0  0  0  0  0  0  0  0  0  0  0
    8.0021  -13.8384   21.0960 C   0  0  0  0  0  0  0  0  0  0  0  0
    8.4341  -15.0811   21.7428 C   0  0  2  0  0  0  0  0  0  0  0  0
    7.4542  -15.4482   22.7847 N   0  0  0  0  0  0  0  0  0  0  0  0
    9.7895  -15.0292   22.3130 C   0  0  0  0  0  0  0  0  0  0  0  0
   10.8985  -15.3614   21.5152 O   0  0  0  0  0  0  0  0  0  0  0  0
   10.0485  -14.7027   23.4818 O   0  0  0  0  0  0  0  0  0  0  0  0
  2  4  1  0
  2  1  1  1
  3  2  1  0
  4  5  1  6
  4  6  1  0
  6 15  1  0
  6  7  2  0
  8  9  1  0
  9 10  2  0
 10 11  1  0
 12 13  1  0
 12 11  2  0
 14 13  1  1
 14 16  1  0
 15 14  1  0
 16 17  2  0
 18 12  1  0
 19  9  1  0
 19 18  2  0
 20 21  1  0
 21 22  2  0
 21 23  1  0
 23 24  1  0
 24 25  1  0
 25 26  1  0
 27 26  1  1
 27 29  1  0
 28 27  1  0
 28 16  1  0
 29 30  1  0
 31 29  2  0
M  END
$$$$
