TYR.pdb
     RDKit          3D

 31 31  0  0  1  0  0  0  0  0999 V2000
    7.1293  -20.8801   19.4628 C   0  0  0  0  0  0  0  0  0  0  0  0
    7.9568  -19.9995   20.3470 C   0  0  1  0  0  0  0  0  0  0  0  0
    9.2353  -20.5272   20.5355 O   0  0  0  0  0  0  0  0  0  0  0  0
    8.0994  -18.6284   19.7277 C   0  0  2  0  0  0  0  0  0  0  0  0
    8.8344  -18.7176   18.4696 N   0  0  0  0  0  0  0  0  0  0  0  0
    8.8275  -17.7368   20.6494 C   0  0  0  0  0  0  0  0  0  0  0  0
   10.0663  -17.5594   20.4997 O   0  0  0  0  0  0  0  0  0  0  0  0
    7.3684  -11.5553   18.1930 O   0  0  0  0  0  0  0  0  0  0  0  0
    7.5015  -12.3948   19.2975 C   0  0  0  0  0  0  0  0  0  0  0  0
    8.6634  -12.3857   20.0406 C   0  0  0  0  0  0  0  0  0  0  0  0
    8.8076  -13.2105   21.1352 C   0  0  0  0  0  0  0  0  0  0  0  0
    7.7956  -14.0880   21.5433 C   0  0  0  0  0  0  0  0  0  0  0  0
    7.9964  -14.9486   22.7177 C   0  0  0  0  0  0  0  0  0  0  0  0
    8.9277  -16.1066   22.5308 C   0  0  2  0  0  0  0  0  0  0  0  0
    8.1625  -17.0712   21.7062 N   0  0  0  0  0  0  0  0  0  0  0  0
    9.2724  -16.8322   23.7739 C   0  0  0  0  0  0  0  0  0  0  0  0
    8.3867  -17.4037   24.4422 O   0  0  0  0  0  0  0  0  0  0  0  0
    6.6439  -14.0793   20.7851 C   0  0  0  0  0  0  0  0  0  0  0  0
    6.4941  -13.2527   19.6843 C   0  0  0  0  0  0  0  0  0  0  0  0
   15.6868  -22.1765   23.9465 N   0  0  0  0  0  0  0  0  0  0  0  0
   15.2466  -22.5124   25.2732 C   0  0  0  0  0  0  0  0  0  0  0  0
   15.7024  -23.5521   25.8541 N   0  0  0  0  0  0  0  0  0  0  0  0
   14.2784  -21.6237   25.8907 N   0  0  0  0  0  0  0  0  0  0  0  0
   13.6973  -20.6068   25.0969 C   0  0  0  0  0  0  0  0  0  0  0  0
   12.6912  -19.7013   25.6721 C   0  0  0  0  0  0  0  0  0  0  0  0
   12.0786  -18.6991   24.7682 C   0  0  0  0  0  0  0  0  0  0  0  0
   11.0811  -17.7670   25.3026 C   0  0  2  0  0  0  0  0  0  0  0  0
   10.6107  -16.8877   24.2136 N   0  0  0  0  0  0  0  0  0  0  0  0
   11.5511  -16.9621   26.4412 C   0  0  0  0  0  0  0  0  0  0  0  0
   11.6279  -17.5373   27.7217 O   0  0  0  0  0  0  0  0  0  0  0  0
   11.9013  -15.7741   26.3652 O   0  0  0  0  0  0  0  0  0  0  0  0
  2  4  1  0
  2  1  1  6
  3  2  1  0
  4  5  1  6
  4  6  1  0
  6 15  1  0
  6  7  2  0
  8  9  1  0
  9 10  2  0
 10 11  1  0
 12 13  1  0
 12 11  2  0
 14 13  1  1
 14 16  1  0
 15 14  1  0
 16 17  2  0
 18 12  1  0
 19  9  1  0
 19 18  2  0
 20 21  1  0
 21 22  2  0
 21 23  1  0
 23 24  1  0
 24 25  1  0
 25 26  1  0
 27 26  1  6
 27 29  1  0
 28 27  1  0
 28 16  1  0
 29 30  1  0
 31 29  2  0
M  END
$$$$
