TYR.pdb
     RDKit          3D

 31 31  0  0  1  0  0  0  0  0999 V2000
    6.7763  -14.5132   17.2780 C   0  0  0  0  0  0  0  0  0  0  0  0
    7.5541  -14.5282   18.5574 C   0  0  1  0  0  0  0  0  0  0  0  0
    8.9155  -14.7270   18.3214 O   0  0  0  0  0  0  0  0  0  0  0  0
    7.3884  -13.2121   19.2815 C   0  0  2  0  0  0  0  0  0  0  0  0
    7.9859  -12.1305   18.5041 N   0  0  0  0  0  0  0  0  0  0  0  0
    8.0474  -13.2801   20.5990 C   0  0  0  0  0  0  0  0  0  0  0  0
    9.2448  -12.9056   20.7193 O   0  0  0  0  0  0  0  0  0  0  0  0
    8.8551  -14.8402   29.3912 O   0  0  0  0  0  0  0  0  0  0  0  0
    8.4121  -14.6587   28.0823 C   0  0  0  0  0  0  0  0  0  0  0  0
    8.1214  -13.3933   27.6168 C   0  0  0  0  0  0  0  0  0  0  0  0
    7.6830  -13.2002   26.3246 C   0  0  0  0  0  0  0  0  0  0  0  0
    7.5125  -14.2643   25.4304 C   0  0  0  0  0  0  0  0  0  0  0  0
    7.0422  -14.0080   24.0618 C   0  0  0  0  0  0  0  0  0  0  0  0
    8.1059  -13.8879   23.0143 C   0  0  2  0  0  0  0  0  0  0  0  0
    7.3613  -13.7600   21.7396 N   0  0  0  0  0  0  0  0  0  0  0  0
    8.9598  -15.0866   22.8573 C   0  0  0  0  0  0  0  0  0  0  0  0
    8.5073  -16.1246   22.3322 O   0  0  0  0  0  0  0  0  0  0  0  0
    7.8093  -15.5193   25.9185 C   0  0  0  0  0  0  0  0  0  0  0  0
    8.2499  -15.7187   27.2161 C   0  0  0  0  0  0  0  0  0  0  0  0
   14.1610  -15.4672   17.4601 N   0  0  0  0  0  0  0  0  0  0  0  0
   14.8828  -14.6899   18.4304 C   0  0  0  0  0  0  0  0  0  0  0  0
   16.0633  -14.2822   18.1730 N   0  0  0  0  0  0  0  0  0  0  0  0
   14.2065  -14.4090   19.6843 N   0  0  0  0  0  0  0  0  0  0  0  0
   14.5301  -15.1973   20.8139 C   0  0  0  0  0  0  0  0  0  0  0  0
   13.4923  -15.9978   21.4810 C   0  0  0  0  0  0  0  0  0  0  0  0
   12.3127  -15.2770   22.0158 C   0  0  0  0  0  0  0  0  0  0  0  0
   11.3334  -16.0073   22.8263 C   0  0  2  0  0  0  0  0  0  0  0  0
   10.2989  -15.0649   23.2976 N   0  0  0  0  0  0  0  0  0  0  0  0
   11.9123  -16.7399   23.9635 C   0  0  0  0  0  0  0  0  0  0  0  0
   11.5275  -16.4140   25.2759 O   0  0  0  0  0  0  0  0  0  0  0  0
   12.7410  -17.6576   23.8600 O   0  0  0  0  0  0  0  0  0  0  0  0
  2  4  1  0
  2  1  1  6
  3  2  1  0
  4  5  1  6
  4  6  1  0
  6 15  1  0
  6  7  2  0
  8  9  1  0
  9 10  2  0
 10 11  1  0
 12 13  1  0
 12 11  2  0
 14 13  1  1
 14 16  1  0
 15 14  1  0
 16 17  2  0
 18 12  1  0
 19  9  1  0
 19 18  2  0
 20 21  1  0
 21 22  2  0
 21 23  1  0
 23 24  1  0
 24 25  1  0
 25 26  1  0
 27 26  1  1
 27 29  1  0
 28 27  1  0
 28 16  1  0
 29 30  1  0
 31 29  2  0
M  END
$$$$
