TYR.pdb
     RDKit          3D

 31 31  0  0  1  0  0  0  0  0999 V2000
    7.7753  -16.1343   19.0661 C   0  0  0  0  0  0  0  0  0  0  0  0
    8.4560  -14.9683   18.4187 C   0  0  1  0  0  0  0  0  0  0  0  0
    8.2490  -14.9621   17.0383 O   0  0  0  0  0  0  0  0  0  0  0  0
    7.9168  -13.6737   18.9820 C   0  0  2  0  0  0  0  0  0  0  0  0
    8.4423  -12.5389   18.2289 N   0  0  0  0  0  0  0  0  0  0  0  0
    8.3142  -13.5399   20.3958 C   0  0  0  0  0  0  0  0  0  0  0  0
    9.5216  -13.3279   20.6886 O   0  0  0  0  0  0  0  0  0  0  0  0
    7.5733  -12.4978   29.2156 O   0  0  0  0  0  0  0  0  0  0  0  0
    7.3705  -12.5993   27.8405 C   0  0  0  0  0  0  0  0  0  0  0  0
    8.1023  -11.8175   26.9711 C   0  0  0  0  0  0  0  0  0  0  0  0
    7.9118  -11.9085   25.6092 C   0  0  0  0  0  0  0  0  0  0  0  0
    6.9782  -12.7873   25.0462 C   0  0  0  0  0  0  0  0  0  0  0  0
    6.8109  -12.8483   23.5873 C   0  0  0  0  0  0  0  0  0  0  0  0
    7.8448  -13.6338   22.8407 C   0  0  2  0  0  0  0  0  0  0  0  0
    7.3642  -13.6451   21.4391 N   0  0  0  0  0  0  0  0  0  0  0  0
    7.9487  -15.0561   23.2369 C   0  0  0  0  0  0  0  0  0  0  0  0
    7.2661  -15.9276   22.6603 O   0  0  0  0  0  0  0  0  0  0  0  0
    6.2589  -13.5580   25.9349 C   0  0  0  0  0  0  0  0  0  0  0  0
    6.4464  -13.4703   27.3042 C   0  0  0  0  0  0  0  0  0  0  0  0
   12.1717  -19.7428   19.6070 N   0  0  0  0  0  0  0  0  0  0  0  0
   12.7958  -20.0879   20.8551 C   0  0  0  0  0  0  0  0  0  0  0  0
   12.9364  -21.3123   21.1828 N   0  0  0  0  0  0  0  0  0  0  0  0
   13.2397  -18.9900   21.6954 N   0  0  0  0  0  0  0  0  0  0  0  0
   12.3581  -17.9028   21.9024 C   0  0  0  0  0  0  0  0  0  0  0  0
   11.4409  -17.9007   23.0519 C   0  0  0  0  0  0  0  0  0  0  0  0
   10.5405  -16.7333   23.2046 C   0  0  0  0  0  0  0  0  0  0  0  0
    9.5571  -16.7242   24.2919 C   0  0  2  0  0  0  0  0  0  0  0  0
    8.8266  -15.4410   24.2705 N   0  0  0  0  0  0  0  0  0  0  0  0
   10.1263  -16.9649   25.6272 C   0  0  0  0  0  0  0  0  0  0  0  0
   10.0837  -15.9510   26.6003 O   0  0  0  0  0  0  0  0  0  0  0  0
   10.6593  -18.0275   25.9831 O   0  0  0  0  0  0  0  0  0  0  0  0
  2  4  1  0
  2  1  1  1
  3  2  1  0
  4  5  1  6
  4  6  1  0
  6 15  1  0
  6  7  2  0
  8  9  1  0
  9 10  2  0
 10 11  1  0
 12 13  1  0
 12 11  2  0
 14 13  1  1
 14 16  1  0
 15 14  1  0
 16 17  2  0
 18 12  1  0
 19  9  1  0
 19 18  2  0
 20 21  1  0
 21 22  2  0
 21 23  1  0
 23 24  1  0
 24 25  1  0
 25 26  1  0
 27 26  1  6
 27 29  1  0
 28 27  1  0
 28 16  1  0
 29 30  1  0
 31 29  2  0
M  END
$$$$
