TYR.pdb
     RDKit          3D

 31 31  0  0  1  0  0  0  0  0999 V2000
    7.0290  -15.8172   18.5986 C   0  0  0  0  0  0  0  0  0  0  0  0
    7.6922  -14.6240   17.9834 C   0  0  1  0  0  0  0  0  0  0  0  0
    7.2677  -14.4293   16.6679 O   0  0  0  0  0  0  0  0  0  0  0  0
    7.3606  -13.3799   18.7748 C   0  0  2  0  0  0  0  0  0  0  0  0
    7.8711  -12.1961   18.0900 N   0  0  0  0  0  0  0  0  0  0  0  0
    7.9706  -13.4625   20.1148 C   0  0  0  0  0  0  0  0  0  0  0  0
    9.2256  -13.4684   20.2313 O   0  0  0  0  0  0  0  0  0  0  0  0
    8.2930  -13.3874   29.0622 O   0  0  0  0  0  0  0  0  0  0  0  0
    7.9209  -13.3362   27.7201 C   0  0  0  0  0  0  0  0  0  0  0  0
    8.3821  -12.3196   26.9100 C   0  0  0  0  0  0  0  0  0  0  0  0
    8.0219  -12.2577   25.5811 C   0  0  0  0  0  0  0  0  0  0  0  0
    7.1808  -13.2106   24.9936 C   0  0  0  0  0  0  0  0  0  0  0  0
    6.8247  -13.1019   23.5719 C   0  0  0  0  0  0  0  0  0  0  0  0
    7.8481  -13.6018   22.5992 C   0  0  2  0  0  0  0  0  0  0  0  0
    7.1735  -13.5363   21.2815 N   0  0  0  0  0  0  0  0  0  0  0  0
    8.2336  -15.0195   22.7785 C   0  0  0  0  0  0  0  0  0  0  0  0
    7.4470  -15.9363   22.4642 O   0  0  0  0  0  0  0  0  0  0  0  0
    6.7326  -14.2167   25.8231 C   0  0  0  0  0  0  0  0  0  0  0  0
    7.0913  -14.2834   27.1590 C   0  0  0  0  0  0  0  0  0  0  0  0
   14.7124  -19.2048   19.8761 N   0  0  0  0  0  0  0  0  0  0  0  0
   14.3261  -20.2619   20.7704 C   0  0  0  0  0  0  0  0  0  0  0  0
   14.7325  -21.4532   20.5657 N   0  0  0  0  0  0  0  0  0  0  0  0
   13.4685  -19.9012   21.8853 N   0  0  0  0  0  0  0  0  0  0  0  0
   12.8451  -18.6310   21.8703 C   0  0  0  0  0  0  0  0  0  0  0  0
   11.9066  -18.2534   22.9377 C   0  0  0  0  0  0  0  0  0  0  0  0
   11.2076  -16.9532   22.8036 C   0  0  0  0  0  0  0  0  0  0  0  0
    9.9576  -16.7326   23.5372 C   0  0  2  0  0  0  0  0  0  0  0  0
    9.4997  -15.3482   23.3041 N   0  0  0  0  0  0  0  0  0  0  0  0
   10.0447  -17.0049   24.9805 C   0  0  0  0  0  0  0  0  0  0  0  0
    9.7202  -18.2809   25.4737 O   0  0  0  0  0  0  0  0  0  0  0  0
   10.3956  -16.1740   25.8327 O   0  0  0  0  0  0  0  0  0  0  0  0
  2  4  1  0
  2  1  1  1
  3  2  1  0
  4  5  1  6
  4  6  1  0
  6 15  1  0
  6  7  2  0
  8  9  1  0
  9 10  2  0
 10 11  1  0
 12 13  1  0
 12 11  2  0
 14 13  1  1
 14 16  1  0
 15 14  1  0
 16 17  2  0
 18 12  1  0
 19  9  1  0
 19 18  2  0
 20 21  1  0
 21 22  2  0
 21 23  1  0
 23 24  1  0
 24 25  1  0
 25 26  1  0
 27 26  1  1
 27 29  1  0
 28 27  1  0
 28 16  1  0
 29 30  1  0
 31 29  2  0
M  END
$$$$
