TYR.pdb
     RDKit          3D

 31 31  0  0  1  0  0  0  0  0999 V2000
    6.6635  -14.8718   18.1829 C   0  0  0  0  0  0  0  0  0  0  0  0
    7.4803  -15.1145   19.4141 C   0  0  1  0  0  0  0  0  0  0  0  0
    8.8189  -15.3513   19.0967 O   0  0  0  0  0  0  0  0  0  0  0  0
    7.4177  -13.9101   20.3248 C   0  0  2  0  0  0  0  0  0  0  0  0
    7.9983  -12.7463   19.6618 N   0  0  0  0  0  0  0  0  0  0  0  0
    8.1670  -14.1821   21.5654 C   0  0  0  0  0  0  0  0  0  0  0  0
    9.3472  -13.7573   21.6891 O   0  0  0  0  0  0  0  0  0  0  0  0
    6.3182   -9.9714   27.4094 O   0  0  0  0  0  0  0  0  0  0  0  0
    6.5335  -11.2058   26.7991 C   0  0  0  0  0  0  0  0  0  0  0  0
    7.6875  -11.9159   27.0567 C   0  0  0  0  0  0  0  0  0  0  0  0
    7.9123  -13.1378   26.4601 C   0  0  0  0  0  0  0  0  0  0  0  0
    6.9931  -13.7129   25.5741 C   0  0  0  0  0  0  0  0  0  0  0  0
    7.2777  -15.0186   24.9625 C   0  0  0  0  0  0  0  0  0  0  0  0
    8.3354  -15.0297   23.9021 C   0  0  2  0  0  0  0  0  0  0  0  0
    7.5874  -14.9147   22.6281 N   0  0  0  0  0  0  0  0  0  0  0  0
    9.0996  -16.2932   23.8017 C   0  0  0  0  0  0  0  0  0  0  0  0
    8.5316  -17.3547   23.4721 O   0  0  0  0  0  0  0  0  0  0  0  0
    5.8475  -12.9845   25.3323 C   0  0  0  0  0  0  0  0  0  0  0  0
    5.6169  -11.7563   25.9290 C   0  0  0  0  0  0  0  0  0  0  0  0
   14.7570  -14.6184   19.9942 N   0  0  0  0  0  0  0  0  0  0  0  0
   15.3216  -14.7336   21.3111 C   0  0  0  0  0  0  0  0  0  0  0  0
   16.1405  -13.8527   21.7351 N   0  0  0  0  0  0  0  0  0  0  0  0
   14.9168  -15.8812   22.1034 N   0  0  0  0  0  0  0  0  0  0  0  0
   13.9862  -16.7891   21.5448 C   0  0  0  0  0  0  0  0  0  0  0  0
   12.6529  -16.9468   22.1450 C   0  0  0  0  0  0  0  0  0  0  0  0
   12.5891  -17.3353   23.5739 C   0  0  0  0  0  0  0  0  0  0  0  0
   11.2810  -17.5436   24.2022 C   0  0  2  0  0  0  0  0  0  0  0  0
   10.4826  -16.3080   24.0746 N   0  0  0  0  0  0  0  0  0  0  0  0
   11.3443  -17.9670   25.6100 C   0  0  0  0  0  0  0  0  0  0  0  0
   11.2660  -19.3325   25.9352 O   0  0  0  0  0  0  0  0  0  0  0  0
   11.4679  -17.1929   26.5719 O   0  0  0  0  0  0  0  0  0  0  0  0
  2  4  1  0
  2  1  1  6
  3  2  1  0
  4  5  1  6
  4  6  1  0
  6 15  1  0
  6  7  2  0
  8  9  1  0
  9 10  2  0
 10 11  1  0
 12 13  1  0
 12 11  2  0
 14 13  1  1
 14 16  1  0
 15 14  1  0
 16 17  2  0
 18 12  1  0
 19  9  1  0
 19 18  2  0
 20 21  1  0
 21 22  2  0
 21 23  1  0
 23 24  1  0
 24 25  1  0
 25 26  1  0
 27 26  1  1
 27 29  1  0
 28 27  1  0
 28 16  1  0
 29 30  1  0
 31 29  2  0
M  END
$$$$
