TYR.pdb
     RDKit          3D

 31 31  0  0  1  0  0  0  0  0999 V2000
    7.3738  -15.5772   19.4297 C   0  0  0  0  0  0  0  0  0  0  0  0
    8.0524  -14.3533   18.8972 C   0  0  1  0  0  0  0  0  0  0  0  0
    7.6615  -14.0869   17.5839 O   0  0  0  0  0  0  0  0  0  0  0  0
    7.7008  -13.1536   19.7462 C   0  0  2  0  0  0  0  0  0  0  0  0
    8.1503  -11.9266   19.0955 N   0  0  0  0  0  0  0  0  0  0  0  0
    8.3514  -13.2664   21.0648 C   0  0  0  0  0  0  0  0  0  0  0  0
    9.5902  -13.0597   21.1706 O   0  0  0  0  0  0  0  0  0  0  0  0
    8.9317  -14.6357   29.9064 O   0  0  0  0  0  0  0  0  0  0  0  0
    8.5333  -14.3825   28.5951 C   0  0  0  0  0  0  0  0  0  0  0  0
    8.6822  -13.1220   28.0552 C   0  0  0  0  0  0  0  0  0  0  0  0
    8.2927  -12.8585   26.7598 C   0  0  0  0  0  0  0  0  0  0  0  0
    7.7334  -13.8436   25.9367 C   0  0  0  0  0  0  0  0  0  0  0  0
    7.3331  -13.5141   24.5615 C   0  0  0  0  0  0  0  0  0  0  0  0
    8.3411  -13.8144   23.4951 C   0  0  2  0  0  0  0  0  0  0  0  0
    7.6116  -13.6042   22.2225 N   0  0  0  0  0  0  0  0  0  0  0  0
    8.8063  -15.2190   23.4593 C   0  0  0  0  0  0  0  0  0  0  0  0
    8.0600  -16.1247   23.0344 O   0  0  0  0  0  0  0  0  0  0  0  0
    7.5945  -15.0953   26.4983 C   0  0  0  0  0  0  0  0  0  0  0  0
    7.9841  -15.3651   27.7994 C   0  0  0  0  0  0  0  0  0  0  0  0
   14.4994  -14.1497   19.9601 N   0  0  0  0  0  0  0  0  0  0  0  0
   13.5760  -14.6973   19.0039 C   0  0  0  0  0  0  0  0  0  0  0  0
   13.4247  -14.1376   17.8682 N   0  0  0  0  0  0  0  0  0  0  0  0
   12.8465  -15.8886   19.4003 N   0  0  0  0  0  0  0  0  0  0  0  0
   12.9241  -16.3065   20.7499 C   0  0  0  0  0  0  0  0  0  0  0  0
   11.6980  -16.4864   21.5417 C   0  0  0  0  0  0  0  0  0  0  0  0
   11.8541  -16.8854   22.9607 C   0  0  0  0  0  0  0  0  0  0  0  0
   10.6760  -16.9063   23.8330 C   0  0  2  0  0  0  0  0  0  0  0  0
   10.1037  -15.5469   23.9029 N   0  0  0  0  0  0  0  0  0  0  0  0
   10.9325  -17.4220   25.1870 C   0  0  0  0  0  0  0  0  0  0  0  0
   10.5334  -18.7264   25.5272 O   0  0  0  0  0  0  0  0  0  0  0  0
   11.4943  -16.7808   26.0887 O   0  0  0  0  0  0  0  0  0  0  0  0
  2  4  1  0
  2  1  1  1
  3  2  1  0
  4  5  1  6
  4  6  1  0
  6 15  1  0
  6  7  2  0
  8  9  1  0
  9 10  2  0
 10 11  1  0
 12 13  1  0
 12 11  2  0
 14 13  1  1
 14 16  1  0
 15 14  1  0
 16 17  2  0
 18 12  1  0
 19  9  1  0
 19 18  2  0
 20 21  1  0
 21 22  2  0
 21 23  1  0
 23 24  1  0
 24 25  1  0
 25 26  1  0
 27 26  1  6
 27 29  1  0
 28 27  1  0
 28 16  1  0
 29 30  1  0
 31 29  2  0
M  END
$$$$
