TYR.pdb
     RDKit          3D

 31 31  0  0  1  0  0  0  0  0999 V2000
    6.9699  -14.4054   18.0421 C   0  0  0  0  0  0  0  0  0  0  0  0
    7.6419  -14.6120   19.3641 C   0  0  1  0  0  0  0  0  0  0  0  0
    8.9124  -15.1683   19.2063 O   0  0  0  0  0  0  0  0  0  0  0  0
    7.7916  -13.2910   20.0828 C   0  0  2  0  0  0  0  0  0  0  0  0
    8.5392  -12.3491   19.2553 N   0  0  0  0  0  0  0  0  0  0  0  0
    8.5110  -13.4924   21.3542 C   0  0  0  0  0  0  0  0  0  0  0  0
    9.7664  -13.3857   21.3861 O   0  0  0  0  0  0  0  0  0  0  0  0
    9.5220  -14.9271   30.1481 O   0  0  0  0  0  0  0  0  0  0  0  0
    9.0758  -14.6247   28.8629 C   0  0  0  0  0  0  0  0  0  0  0  0
    8.2483  -15.5003   28.1912 C   0  0  0  0  0  0  0  0  0  0  0  0
    7.7997  -15.2130   26.9202 C   0  0  0  0  0  0  0  0  0  0  0  0
    8.1562  -14.0337   26.2547 C   0  0  0  0  0  0  0  0  0  0  0  0
    7.6525  -13.7719   24.8991 C   0  0  0  0  0  0  0  0  0  0  0  0
    8.6050  -14.0568   23.7790 C   0  0  2  0  0  0  0  0  0  0  0  0
    7.8191  -13.8054   22.5481 N   0  0  0  0  0  0  0  0  0  0  0  0
    9.0494  -15.4656   23.6860 C   0  0  0  0  0  0  0  0  0  0  0  0
    8.2762  -16.3489   23.2619 O   0  0  0  0  0  0  0  0  0  0  0  0
    8.9839  -13.1744   26.9461 C   0  0  0  0  0  0  0  0  0  0  0  0
    9.4376  -13.4584   28.2232 C   0  0  0  0  0  0  0  0  0  0  0  0
   14.6486  -14.6288   19.6524 N   0  0  0  0  0  0  0  0  0  0  0  0
   13.3341  -14.7541   19.0842 C   0  0  0  0  0  0  0  0  0  0  0  0
   12.9839  -14.0072   18.1118 N   0  0  0  0  0  0  0  0  0  0  0  0
   12.4555  -15.7510   19.6699 N   0  0  0  0  0  0  0  0  0  0  0  0
   12.6010  -16.0504   21.0451 C   0  0  0  0  0  0  0  0  0  0  0  0
   11.6978  -17.0129   21.6937 C   0  0  0  0  0  0  0  0  0  0  0  0
   11.9521  -17.3347   23.1180 C   0  0  0  0  0  0  0  0  0  0  0  0
   10.8586  -17.2115   24.0868 C   0  0  2  0  0  0  0  0  0  0  0  0
   10.3569  -15.8228   24.0734 N   0  0  0  0  0  0  0  0  0  0  0  0
   11.2139  -17.6124   25.4572 C   0  0  0  0  0  0  0  0  0  0  0  0
   11.6309  -18.9299   25.7160 O   0  0  0  0  0  0  0  0  0  0  0  0
   11.1779  -16.8582   26.4419 O   0  0  0  0  0  0  0  0  0  0  0  0
  2  4  1  0
  2  1  1  6
  3  2  1  0
  4  5  1  6
  4  6  1  0
  6 15  1  0
  6  7  2  0
  8  9  1  0
  9 10  2  0
 10 11  1  0
 12 13  1  0
 12 11  2  0
 14 13  1  1
 14 16  1  0
 15 14  1  0
 16 17  2  0
 18 12  1  0
 19  9  1  0
 19 18  2  0
 20 21  1  0
 21 22  2  0
 21 23  1  0
 23 24  1  0
 24 25  1  0
 25 26  1  0
 27 26  1  6
 27 29  1  0
 28 27  1  0
 28 16  1  0
 29 30  1  0
 31 29  2  0
M  END
$$$$
