PPP.pdb
     RDKit          3D

 22 24  0  0  1  0  0  0  0  0999 V2000
    8.7173  -14.8915   21.0026 N   0  0  0  0  0  0  0  0  0  0  0  0
    7.8242  -15.4423   19.9535 C   0  0  0  0  0  0  0  0  0  0  0  0
    6.7739  -16.2408   20.6862 C   0  0  0  0  0  0  0  0  0  0  0  0
    7.1596  -16.0790   22.1409 C   0  0  0  0  0  0  0  0  0  0  0  0
    7.8154  -14.7081   22.1157 C   0  0  1  0  0  0  0  0  0  0  0  0
    8.3314  -14.2173   23.3573 C   0  0  0  0  0  0  0  0  0  0  0  0
    9.6145  -13.9904   23.4332 O   0  0  0  0  0  0  0  0  0  0  0  0
    7.5735  -13.9596   24.5084 N   0  0  0  0  0  0  0  0  0  0  0  0
    6.1562  -13.9288   24.7466 C   0  0  0  0  0  0  0  0  0  0  0  0
    6.0682  -12.6517   25.6047 C   0  0  0  0  0  0  0  0  0  0  0  0
    7.1648  -12.9348   26.6025 C   0  0  0  0  0  0  0  0  0  0  0  0
    8.2185  -13.6300   25.8140 C   0  0  1  0  0  0  0  0  0  0  0  0
    8.6804  -14.8904   26.4291 C   0  0  0  0  0  0  0  0  0  0  0  0
    8.4181  -15.9727   25.8574 O   0  0  0  0  0  0  0  0  0  0  0  0
    9.4059  -14.9275   27.6355 N   0  0  0  0  0  0  0  0  0  0  0  0
    9.1759  -14.0311   28.7504 C   0  0  0  0  0  0  0  0  0  0  0  0
   10.3271  -14.2050   29.7008 C   0  0  0  0  0  0  0  0  0  0  0  0
   11.3714  -14.8737   28.8093 C   0  0  0  0  0  0  0  0  0  0  0  0
   10.4839  -15.8154   28.0184 C   0  0  1  0  0  0  0  0  0  0  0  0
    9.9984  -16.8573   28.9691 C   0  0  0  0  0  0  0  0  0  0  0  0
   10.7200  -17.7462   29.4578 O   0  0  0  0  0  0  0  0  0  0  0  0
    8.6605  -16.8424   29.3371 O   0  0  0  0  0  0  0  0  0  0  0  0
  1  2  1  0
  3  2  1  0
  4  3  1  0
  4  5  1  0
  5  1  1  0
  6  8  1  0
  5  6  1  1
  7  6  2  0
  8  9  1  0
 10  9  1  0
 11 10  1  0
 11 12  1  0
 12  8  1  0
 12 13  1  1
 13 15  1  0
 14 13  2  0
 15 19  1  0
 15 16  1  0
 16 17  1  0
 18 17  1  0
 19 20  1  1
 19 18  1  0
 20 22  1  0
 21 20  2  0
M  END
$$$$
