PPP.pdb
     RDKit          3D

 22 24  0  0  1  0  0  0  0  0999 V2000
    8.9886  -15.0617   20.9638 N   0  0  0  0  0  0  0  0  0  0  0  0
    8.1288  -15.7098   19.9429 C   0  0  0  0  0  0  0  0  0  0  0  0
    7.1074  -16.5094   20.7141 C   0  0  0  0  0  0  0  0  0  0  0  0
    7.4734  -16.2478   22.1594 C   0  0  0  0  0  0  0  0  0  0  0  0
    8.0703  -14.8536   22.0590 C   0  0  1  0  0  0  0  0  0  0  0  0
    8.5543  -14.2705   23.2732 C   0  0  0  0  0  0  0  0  0  0  0  0
    9.8210  -13.9622   23.3349 O   0  0  0  0  0  0  0  0  0  0  0  0
    7.7810  -14.0020   24.4116 N   0  0  0  0  0  0  0  0  0  0  0  0
    6.3610  -13.9867   24.6349 C   0  0  0  0  0  0  0  0  0  0  0  0
    6.2465  -12.6952   25.4679 C   0  0  0  0  0  0  0  0  0  0  0  0
    7.3365  -12.9441   26.4818 C   0  0  0  0  0  0  0  0  0  0  0  0
    8.4078  -13.6391   25.7172 C   0  0  1  0  0  0  0  0  0  0  0  0
    8.8807  -14.8811   26.3605 C   0  0  0  0  0  0  0  0  0  0  0  0
    8.7070  -15.9709   25.7696 O   0  0  0  0  0  0  0  0  0  0  0  0
    9.5211  -14.8926   27.6147 N   0  0  0  0  0  0  0  0  0  0  0  0
    9.2313  -13.9589   28.6841 C   0  0  0  0  0  0  0  0  0  0  0  0
   10.3115  -14.1216   29.7164 C   0  0  0  0  0  0  0  0  0  0  0  0
   11.4023  -14.8335   28.9192 C   0  0  0  0  0  0  0  0  0  0  0  0
   10.5545  -15.7850   28.0970 C   0  0  1  0  0  0  0  0  0  0  0  0
    9.9867  -16.7896   29.0423 C   0  0  0  0  0  0  0  0  0  0  0  0
   10.6624  -17.6544   29.6298 O   0  0  0  0  0  0  0  0  0  0  0  0
    8.6212  -16.7659   29.2879 O   0  0  0  0  0  0  0  0  0  0  0  0
  1  2  1  0
  3  2  1  0
  4  3  1  0
  4  5  1  0
  5  1  1  0
  6  8  1  0
  5  6  1  1
  7  6  2  0
  8  9  1  0
 10  9  1  0
 11 10  1  0
 11 12  1  0
 12  8  1  0
 12 13  1  1
 13 15  1  0
 14 13  2  0
 15 19  1  0
 15 16  1  0
 16 17  1  0
 18 17  1  0
 19 20  1  1
 19 18  1  0
 20 22  1  0
 21 20  2  0
M  END
$$$$
