PPP.pdb
     RDKit          3D

 22 24  0  0  1  0  0  0  0  0999 V2000
    8.6713  -14.8444   20.9656 N   0  0  0  0  0  0  0  0  0  0  0  0
    7.7893  -15.4345   19.9285 C   0  0  0  0  0  0  0  0  0  0  0  0
    6.7969  -16.2931   20.6736 C   0  0  0  0  0  0  0  0  0  0  0  0
    7.2005  -16.1215   22.1223 C   0  0  0  0  0  0  0  0  0  0  0  0
    7.7818  -14.7174   22.0964 C   0  0  1  0  0  0  0  0  0  0  0  0
    8.2941  -14.2087   23.3323 C   0  0  0  0  0  0  0  0  0  0  0  0
    9.5648  -13.9161   23.3873 O   0  0  0  0  0  0  0  0  0  0  0  0
    7.5446  -13.9983   24.4985 N   0  0  0  0  0  0  0  0  0  0  0  0
    6.1303  -14.0116   24.7551 C   0  0  0  0  0  0  0  0  0  0  0  0
    6.0191  -12.7575   25.6438 C   0  0  0  0  0  0  0  0  0  0  0  0
    7.1360  -13.0332   26.6209 C   0  0  0  0  0  0  0  0  0  0  0  0
    8.1976  -13.6812   25.8033 C   0  0  1  0  0  0  0  0  0  0  0  0
    8.7015  -14.9422   26.3830 C   0  0  0  0  0  0  0  0  0  0  0  0
    8.4645  -16.0175   25.7875 O   0  0  0  0  0  0  0  0  0  0  0  0
    9.4398  -14.9876   27.5814 N   0  0  0  0  0  0  0  0  0  0  0  0
    9.2523  -14.0701   28.6871 C   0  0  0  0  0  0  0  0  0  0  0  0
   10.4086  -14.2692   29.6263 C   0  0  0  0  0  0  0  0  0  0  0  0
   11.4200  -14.9826   28.7316 C   0  0  0  0  0  0  0  0  0  0  0  0
   10.4932  -15.9050   27.9633 C   0  0  1  0  0  0  0  0  0  0  0  0
    9.9857  -16.9185   28.9330 C   0  0  0  0  0  0  0  0  0  0  0  0
   10.6831  -17.8265   29.4218 O   0  0  0  0  0  0  0  0  0  0  0  0
    8.6547  -16.8527   29.3199 O   0  0  0  0  0  0  0  0  0  0  0  0
  1  2  1  0
  3  2  1  0
  4  3  1  0
  4  5  1  0
  5  1  1  0
  6  8  1  0
  5  6  1  1
  7  6  2  0
  8  9  1  0
 10  9  1  0
 11 10  1  0
 11 12  1  0
 12  8  1  0
 12 13  1  1
 13 15  1  0
 14 13  2  0
 15 19  1  0
 15 16  1  0
 16 17  1  0
 18 17  1  0
 19 20  1  1
 19 18  1  0
 20 22  1  0
 21 20  2  0
M  END
$$$$
