PPP.pdb
     RDKit          3D

 22 24  0  0  1  0  0  0  0  0999 V2000
    8.6697  -14.8940   20.9370 N   0  0  0  0  0  0  0  0  0  0  0  0
    7.7646  -15.5092   19.9351 C   0  0  0  0  0  0  0  0  0  0  0  0
    6.8181  -16.3845   20.7196 C   0  0  0  0  0  0  0  0  0  0  0  0
    7.2689  -16.1954   22.1521 C   0  0  0  0  0  0  0  0  0  0  0  0
    7.8183  -14.7793   22.0981 C   0  0  1  0  0  0  0  0  0  0  0  0
    8.3629  -14.2523   23.3123 C   0  0  0  0  0  0  0  0  0  0  0  0
    9.6387  -13.9783   23.3358 O   0  0  0  0  0  0  0  0  0  0  0  0
    7.6402  -14.0052   24.4881 N   0  0  0  0  0  0  0  0  0  0  0  0
    6.2314  -13.9942   24.7736 C   0  0  0  0  0  0  0  0  0  0  0  0
    6.1543  -12.7185   25.6348 C   0  0  0  0  0  0  0  0  0  0  0  0
    7.2874  -12.9862   26.5953 C   0  0  0  0  0  0  0  0  0  0  0  0
    8.3238  -13.6666   25.7717 C   0  0  1  0  0  0  0  0  0  0  0  0
    8.8236  -14.9204   26.3704 C   0  0  0  0  0  0  0  0  0  0  0  0
    8.6257  -15.9987   25.7661 O   0  0  0  0  0  0  0  0  0  0  0  0
    9.5157  -14.9556   27.5963 N   0  0  0  0  0  0  0  0  0  0  0  0
    9.3223  -13.9985   28.6668 C   0  0  0  0  0  0  0  0  0  0  0  0
   10.4356  -14.2102   29.6541 C   0  0  0  0  0  0  0  0  0  0  0  0
   11.4516  -14.9868   28.8192 C   0  0  0  0  0  0  0  0  0  0  0  0
   10.5196  -15.8982   28.0441 C   0  0  1  0  0  0  0  0  0  0  0  0
    9.9400  -16.8626   29.0235 C   0  0  0  0  0  0  0  0  0  0  0  0
    8.7795  -16.7921   29.4683 O   0  0  0  0  0  0  0  0  0  0  0  0
   10.7370  -17.9062   29.4722 O   0  0  0  0  0  0  0  0  0  0  0  0
  1  2  1  0
  3  2  1  0
  4  3  1  0
  4  5  1  0
  5  1  1  0
  6  8  1  0
  5  6  1  1
  7  6  2  0
  8  9  1  0
 10  9  1  0
 11 10  1  0
 11 12  1  0
 12  8  1  0
 12 13  1  1
 13 15  1  0
 14 13  2  0
 15 19  1  0
 15 16  1  0
 16 17  1  0
 18 17  1  0
 19 20  1  1
 19 18  1  0
 20 22  1  0
 21 20  2  0
M  END
$$$$
