PPP.pdb
     RDKit          3D

 22 24  0  0  1  0  0  0  0  0999 V2000
    8.7185  -14.8319   20.9738 N   0  0  0  0  0  0  0  0  0  0  0  0
    7.8258  -15.4585   19.9679 C   0  0  0  0  0  0  0  0  0  0  0  0
    6.8758  -16.3325   20.7497 C   0  0  0  0  0  0  0  0  0  0  0  0
    7.3122  -16.1310   22.1850 C   0  0  0  0  0  0  0  0  0  0  0  0
    7.8556  -14.7127   22.1259 C   0  0  1  0  0  0  0  0  0  0  0  0
    8.3862  -14.1744   23.3414 C   0  0  0  0  0  0  0  0  0  0  0  0
    9.6558  -13.8730   23.3676 O   0  0  0  0  0  0  0  0  0  0  0  0
    7.6560  -13.9433   24.5158 N   0  0  0  0  0  0  0  0  0  0  0  0
    6.2451  -13.9297   24.7909 C   0  0  0  0  0  0  0  0  0  0  0  0
    6.1680  -12.6682   25.6728 C   0  0  0  0  0  0  0  0  0  0  0  0
    7.2925  -12.9579   26.6370 C   0  0  0  0  0  0  0  0  0  0  0  0
    8.3316  -13.6299   25.8099 C   0  0  1  0  0  0  0  0  0  0  0  0
    8.8203  -14.8961   26.3911 C   0  0  0  0  0  0  0  0  0  0  0  0
    8.6042  -15.9654   25.7771 O   0  0  0  0  0  0  0  0  0  0  0  0
    9.5217  -14.9530   27.6110 N   0  0  0  0  0  0  0  0  0  0  0  0
    9.3292  -14.0212   28.7038 C   0  0  0  0  0  0  0  0  0  0  0  0
   10.4512  -14.2463   29.6781 C   0  0  0  0  0  0  0  0  0  0  0  0
   11.4667  -14.9966   28.8189 C   0  0  0  0  0  0  0  0  0  0  0  0
   10.5359  -15.8977   28.0307 C   0  0  1  0  0  0  0  0  0  0  0  0
    9.9706  -16.8878   28.9927 C   0  0  0  0  0  0  0  0  0  0  0  0
    8.7979  -16.8639   29.4097 O   0  0  0  0  0  0  0  0  0  0  0  0
   10.7962  -17.9019   29.4569 O   0  0  0  0  0  0  0  0  0  0  0  0
  1  2  1  0
  3  2  1  0
  4  3  1  0
  4  5  1  0
  5  1  1  0
  6  8  1  0
  5  6  1  1
  7  6  2  0
  8  9  1  0
 10  9  1  0
 11 10  1  0
 11 12  1  0
 12  8  1  0
 12 13  1  1
 13 15  1  0
 14 13  2  0
 15 19  1  0
 15 16  1  0
 16 17  1  0
 18 17  1  0
 19 20  1  1
 19 18  1  0
 20 22  1  0
 21 20  2  0
M  END
$$$$
