PPP.pdb
     RDKit          3D

 22 24  0  0  1  0  0  0  0  0999 V2000
    8.7954  -14.9642   21.0708 N   0  0  0  0  0  0  0  0  0  0  0  0
    7.9014  -15.5031   20.0163 C   0  0  0  0  0  0  0  0  0  0  0  0
    6.8048  -16.2405   20.7452 C   0  0  0  0  0  0  0  0  0  0  0  0
    7.1678  -16.0598   22.2035 C   0  0  0  0  0  0  0  0  0  0  0  0
    7.8798  -14.7177   22.1604 C   0  0  1  0  0  0  0  0  0  0  0  0
    8.3908  -14.2187   23.4007 C   0  0  0  0  0  0  0  0  0  0  0  0
    9.6762  -14.0099   23.4868 O   0  0  0  0  0  0  0  0  0  0  0  0
    7.6253  -13.9351   24.5407 N   0  0  0  0  0  0  0  0  0  0  0  0
    6.2064  -13.8863   24.7657 C   0  0  0  0  0  0  0  0  0  0  0  0
    6.1237  -12.5949   25.6025 C   0  0  0  0  0  0  0  0  0  0  0  0
    7.2086  -12.8727   26.6145 C   0  0  0  0  0  0  0  0  0  0  0  0
    8.2621  -13.5910   25.8467 C   0  0  1  0  0  0  0  0  0  0  0  0
    8.7059  -14.8458   26.4859 C   0  0  0  0  0  0  0  0  0  0  0  0
    8.4162  -15.9355   25.9422 O   0  0  0  0  0  0  0  0  0  0  0  0
    9.4436  -14.8696   27.6852 N   0  0  0  0  0  0  0  0  0  0  0  0
    9.2632  -13.9256   28.7696 C   0  0  0  0  0  0  0  0  0  0  0  0
   10.4178  -14.1124   29.7135 C   0  0  0  0  0  0  0  0  0  0  0  0
   11.4236  -14.8542   28.8357 C   0  0  0  0  0  0  0  0  0  0  0  0
   10.4896  -15.7864   28.0884 C   0  0  1  0  0  0  0  0  0  0  0  0
    9.9739  -16.7734   29.0809 C   0  0  0  0  0  0  0  0  0  0  0  0
   10.6557  -17.6941   29.5678 O   0  0  0  0  0  0  0  0  0  0  0  0
    8.6531  -16.6662   29.4926 O   0  0  0  0  0  0  0  0  0  0  0  0
  1  2  1  0
  3  2  1  0
  4  3  1  0
  4  5  1  0
  5  1  1  0
  6  8  1  0
  5  6  1  1
  7  6  2  0
  8  9  1  0
 10  9  1  0
 11 10  1  0
 11 12  1  0
 12  8  1  0
 12 13  1  1
 13 15  1  0
 14 13  2  0
 15 19  1  0
 15 16  1  0
 16 17  1  0
 18 17  1  0
 19 20  1  1
 19 18  1  0
 20 22  1  0
 21 20  2  0
M  END
$$$$
