PPP.pdb
     RDKit          3D

 22 24  0  0  1  0  0  0  0  0999 V2000
    8.6519  -14.7661   21.0470 N   0  0  0  0  0  0  0  0  0  0  0  0
    7.7441  -15.2663   19.9853 C   0  0  0  0  0  0  0  0  0  0  0  0
    6.6674  -16.0460   20.6996 C   0  0  0  0  0  0  0  0  0  0  0  0
    7.0548  -15.9268   22.1580 C   0  0  0  0  0  0  0  0  0  0  0  0
    7.7539  -14.5772   22.1623 C   0  0  1  0  0  0  0  0  0  0  0  0
    8.2825  -14.1289   23.4146 C   0  0  0  0  0  0  0  0  0  0  0  0
    9.5702  -13.9315   23.4933 O   0  0  0  0  0  0  0  0  0  0  0  0
    7.5322  -13.8840   24.5735 N   0  0  0  0  0  0  0  0  0  0  0  0
    6.1164  -13.8343   24.8169 C   0  0  0  0  0  0  0  0  0  0  0  0
    6.0526  -12.5754   25.7034 C   0  0  0  0  0  0  0  0  0  0  0  0
    7.1470  -12.8993   26.6912 C   0  0  0  0  0  0  0  0  0  0  0  0
    8.1864  -13.5947   25.8841 C   0  0  1  0  0  0  0  0  0  0  0  0
    8.6283  -14.8761   26.4695 C   0  0  0  0  0  0  0  0  0  0  0  0
    8.2645  -15.9445   25.9281 O   0  0  0  0  0  0  0  0  0  0  0  0
    9.4445  -14.9485   27.6149 N   0  0  0  0  0  0  0  0  0  0  0  0
    9.4103  -13.9883   28.6995 C   0  0  0  0  0  0  0  0  0  0  0  0
   10.6113  -14.2554   29.5629 C   0  0  0  0  0  0  0  0  0  0  0  0
   11.4959  -15.0740   28.6249 C   0  0  0  0  0  0  0  0  0  0  0  0
   10.4458  -15.9382   27.9538 C   0  0  1  0  0  0  0  0  0  0  0  0
    9.9297  -16.8793   28.9898 C   0  0  0  0  0  0  0  0  0  0  0  0
    8.8122  -16.7785   29.5288 O   0  0  0  0  0  0  0  0  0  0  0  0
   10.7390  -17.9358   29.3830 O   0  0  0  0  0  0  0  0  0  0  0  0
  1  2  1  0
  3  2  1  0
  4  3  1  0
  4  5  1  0
  5  1  1  0
  6  8  1  0
  5  6  1  1
  7  6  2  0
  8  9  1  0
 10  9  1  0
 11 10  1  0
 11 12  1  0
 12  8  1  0
 12 13  1  1
 13 15  1  0
 14 13  2  0
 15 19  1  0
 15 16  1  0
 16 17  1  0
 18 17  1  0
 19 20  1  1
 19 18  1  0
 20 22  1  0
 21 20  2  0
M  END
$$$$
