PPP.pdb
     RDKit          3D

 22 24  0  0  1  0  0  0  0  0999 V2000
    8.7158  -14.9068   20.9984 N   0  0  0  0  0  0  0  0  0  0  0  0
    7.8220  -15.4405   19.9411 C   0  0  0  0  0  0  0  0  0  0  0  0
    6.7355  -16.1971   20.6653 C   0  0  0  0  0  0  0  0  0  0  0  0
    7.1034  -16.0316   22.1242 C   0  0  0  0  0  0  0  0  0  0  0  0
    7.8030  -14.6826   22.0951 C   0  0  1  0  0  0  0  0  0  0  0  0
    8.3149  -14.1949   23.3395 C   0  0  0  0  0  0  0  0  0  0  0  0
    9.5899  -13.9240   23.4060 O   0  0  0  0  0  0  0  0  0  0  0  0
    7.5610  -13.9835   24.5026 N   0  0  0  0  0  0  0  0  0  0  0  0
    6.1454  -13.9907   24.7525 C   0  0  0  0  0  0  0  0  0  0  0  0
    6.0360  -12.7381   25.6435 C   0  0  0  0  0  0  0  0  0  0  0  0
    7.1469  -13.0215   26.6253 C   0  0  0  0  0  0  0  0  0  0  0  0
    8.2093  -13.6726   25.8112 C   0  0  1  0  0  0  0  0  0  0  0  0
    8.7043  -14.9374   26.3903 C   0  0  0  0  0  0  0  0  0  0  0  0
    8.4522  -16.0116   25.7990 O   0  0  0  0  0  0  0  0  0  0  0  0
    9.4505  -14.9876   27.5836 N   0  0  0  0  0  0  0  0  0  0  0  0
    9.2845  -14.0619   28.6859 C   0  0  0  0  0  0  0  0  0  0  0  0
   10.4445  -14.2733   29.6178 C   0  0  0  0  0  0  0  0  0  0  0  0
   11.4388  -15.0060   28.7196 C   0  0  0  0  0  0  0  0  0  0  0  0
   10.4931  -15.9184   27.9627 C   0  0  1  0  0  0  0  0  0  0  0  0
    9.9778  -16.9195   28.9412 C   0  0  0  0  0  0  0  0  0  0  0  0
   10.6651  -17.8358   29.4289 O   0  0  0  0  0  0  0  0  0  0  0  0
    8.6511  -16.8315   29.3381 O   0  0  0  0  0  0  0  0  0  0  0  0
  1  2  1  0
  3  2  1  0
  4  3  1  0
  4  5  1  0
  5  1  1  0
  6  8  1  0
  5  6  1  1
  7  6  2  0
  8  9  1  0
 10  9  1  0
 11 10  1  0
 11 12  1  0
 12  8  1  0
 12 13  1  1
 13 15  1  0
 14 13  2  0
 15 19  1  0
 15 16  1  0
 16 17  1  0
 18 17  1  0
 19 20  1  1
 19 18  1  0
 20 22  1  0
 21 20  2  0
M  END
$$$$
