PPP.pdb
     RDKit          3D

 22 24  0  0  1  0  0  0  0  0999 V2000
    8.5927  -14.8627   21.0621 N   0  0  0  0  0  0  0  0  0  0  0  0
    7.6540  -15.3610   20.0266 C   0  0  0  0  0  0  0  0  0  0  0  0
    6.5814  -16.1153   20.7736 C   0  0  0  0  0  0  0  0  0  0  0  0
    7.0026  -15.9851   22.2216 C   0  0  0  0  0  0  0  0  0  0  0  0
    7.7225  -14.6467   22.1944 C   0  0  1  0  0  0  0  0  0  0  0  0
    8.2854  -14.1921   23.4293 C   0  0  0  0  0  0  0  0  0  0  0  0
    9.5689  -13.9577   23.4606 O   0  0  0  0  0  0  0  0  0  0  0  0
    7.5732  -13.9776   24.6179 N   0  0  0  0  0  0  0  0  0  0  0  0
    6.1671  -13.9767   24.9165 C   0  0  0  0  0  0  0  0  0  0  0  0
    6.0959  -12.7244   25.8119 C   0  0  0  0  0  0  0  0  0  0  0  0
    7.2383  -13.0155   26.7545 C   0  0  0  0  0  0  0  0  0  0  0  0
    8.2681  -13.6720   25.9037 C   0  0  1  0  0  0  0  0  0  0  0  0
    8.7753  -14.9403   26.4643 C   0  0  0  0  0  0  0  0  0  0  0  0
    8.5060  -16.0113   25.8747 O   0  0  0  0  0  0  0  0  0  0  0  0
    9.5516  -14.9973   27.6379 N   0  0  0  0  0  0  0  0  0  0  0  0
    9.4534  -14.0441   28.7247 C   0  0  0  0  0  0  0  0  0  0  0  0
   10.6294  -14.2841   29.6293 C   0  0  0  0  0  0  0  0  0  0  0  0
   11.5682  -15.0743   28.7201 C   0  0  0  0  0  0  0  0  0  0  0  0
   10.5660  -15.9622   28.0081 C   0  0  1  0  0  0  0  0  0  0  0  0
   10.0382  -16.9220   29.0208 C   0  0  0  0  0  0  0  0  0  0  0  0
   10.6926  -17.8718   29.4890 O   0  0  0  0  0  0  0  0  0  0  0  0
    8.7378  -16.7530   29.4747 O   0  0  0  0  0  0  0  0  0  0  0  0
  1  2  1  0
  3  2  1  0
  4  3  1  0
  4  5  1  0
  5  1  1  0
  6  8  1  0
  5  6  1  1
  7  6  2  0
  8  9  1  0
 10  9  1  0
 11 10  1  0
 11 12  1  0
 12  8  1  0
 12 13  1  1
 13 15  1  0
 14 13  2  0
 15 19  1  0
 15 16  1  0
 16 17  1  0
 18 17  1  0
 19 20  1  1
 19 18  1  0
 20 22  1  0
 21 20  2  0
M  END
$$$$
