PPP.pdb
     RDKit          3D

 22 24  0  0  1  0  0  0  0  0999 V2000
    8.7241  -14.9591   20.9418 N   0  0  0  0  0  0  0  0  0  0  0  0
    7.8202  -15.5778   19.9410 C   0  0  0  0  0  0  0  0  0  0  0  0
    6.8534  -16.4265   20.7301 C   0  0  0  0  0  0  0  0  0  0  0  0
    7.2927  -16.2202   22.1638 C   0  0  0  0  0  0  0  0  0  0  0  0
    7.8630  -14.8131   22.0922 C   0  0  1  0  0  0  0  0  0  0  0  0
    8.4030  -14.2739   23.3031 C   0  0  0  0  0  0  0  0  0  0  0  0
    9.6759  -13.9862   23.3239 O   0  0  0  0  0  0  0  0  0  0  0  0
    7.6789  -14.0284   24.4784 N   0  0  0  0  0  0  0  0  0  0  0  0
    6.2695  -14.0101   24.7603 C   0  0  0  0  0  0  0  0  0  0  0  0
    6.1980  -12.7384   25.6278 C   0  0  0  0  0  0  0  0  0  0  0  0
    7.3270  -13.0181   26.5898 C   0  0  0  0  0  0  0  0  0  0  0  0
    8.3613  -13.7007   25.7654 C   0  0  1  0  0  0  0  0  0  0  0  0
    8.8517  -14.9606   26.3589 C   0  0  0  0  0  0  0  0  0  0  0  0
    8.6248  -16.0374   25.7622 O   0  0  0  0  0  0  0  0  0  0  0  0
    9.5662  -15.0033   27.5717 N   0  0  0  0  0  0  0  0  0  0  0  0
    9.4207  -14.0305   28.6357 C   0  0  0  0  0  0  0  0  0  0  0  0
   10.5466  -14.2640   29.6036 C   0  0  0  0  0  0  0  0  0  0  0  0
   11.5239  -15.0772   28.7575 C   0  0  0  0  0  0  0  0  0  0  0  0
   10.5518  -15.9695   28.0100 C   0  0  1  0  0  0  0  0  0  0  0  0
    9.9644  -16.9073   29.0103 C   0  0  0  0  0  0  0  0  0  0  0  0
    8.8284  -16.7796   29.5031 O   0  0  0  0  0  0  0  0  0  0  0  0
   10.7246  -17.9925   29.4228 O   0  0  0  0  0  0  0  0  0  0  0  0
  1  2  1  0
  3  2  1  0
  4  3  1  0
  4  5  1  0
  5  1  1  0
  6  8  1  0
  5  6  1  1
  7  6  2  0
  8  9  1  0
 10  9  1  0
 11 10  1  0
 11 12  1  0
 12  8  1  0
 12 13  1  1
 13 15  1  0
 14 13  2  0
 15 19  1  0
 15 16  1  0
 16 17  1  0
 18 17  1  0
 19 20  1  1
 19 18  1  0
 20 22  1  0
 21 20  2  0
M  END
$$$$
