PPP.pdb
     RDKit          3D

 22 24  0  0  1  0  0  0  0  0999 V2000
    8.8339  -15.1440   20.9033 N   0  0  0  0  0  0  0  0  0  0  0  0
    7.9547  -15.8262   19.9220 C   0  0  0  0  0  0  0  0  0  0  0  0
    7.0036  -16.6670   20.7379 C   0  0  0  0  0  0  0  0  0  0  0  0
    7.4254  -16.3914   22.1652 C   0  0  0  0  0  0  0  0  0  0  0  0
    7.9598  -14.9740   22.0405 C   0  0  1  0  0  0  0  0  0  0  0  0
    8.4756  -14.3723   23.2323 C   0  0  0  0  0  0  0  0  0  0  0  0
    9.7359  -14.0334   23.2438 O   0  0  0  0  0  0  0  0  0  0  0  0
    7.7400  -14.1155   24.3980 N   0  0  0  0  0  0  0  0  0  0  0  0
    6.3292  -14.1254   24.6736 C   0  0  0  0  0  0  0  0  0  0  0  0
    6.2221  -12.8346   25.5086 C   0  0  0  0  0  0  0  0  0  0  0  0
    7.3531  -13.0617   26.4819 C   0  0  0  0  0  0  0  0  0  0  0  0
    8.4080  -13.7387   25.6791 C   0  0  1  0  0  0  0  0  0  0  0  0
    8.9268  -14.9707   26.3062 C   0  0  0  0  0  0  0  0  0  0  0  0
    8.7795  -16.0606   25.7082 O   0  0  0  0  0  0  0  0  0  0  0  0
    9.5825  -14.9725   27.5525 N   0  0  0  0  0  0  0  0  0  0  0  0
    9.2818  -14.0526   28.6307 C   0  0  0  0  0  0  0  0  0  0  0  0
   10.3784  -14.1930   29.6489 C   0  0  0  0  0  0  0  0  0  0  0  0
   11.4773  -14.8722   28.8345 C   0  0  0  0  0  0  0  0  0  0  0  0
   10.6444  -15.8407   28.0171 C   0  0  1  0  0  0  0  0  0  0  0  0
   10.1142  -16.8648   28.9633 C   0  0  0  0  0  0  0  0  0  0  0  0
   10.8050  -17.7642   29.4765 O   0  0  0  0  0  0  0  0  0  0  0  0
    8.7682  -16.8195   29.2978 O   0  0  0  0  0  0  0  0  0  0  0  0
  1  2  1  0
  3  2  1  0
  4  3  1  0
  4  5  1  0
  5  1  1  0
  6  8  1  0
  5  6  1  1
  7  6  2  0
  8  9  1  0
 10  9  1  0
 11 10  1  0
 11 12  1  0
 12  8  1  0
 12 13  1  1
 13 15  1  0
 14 13  2  0
 15 19  1  0
 15 16  1  0
 16 17  1  0
 18 17  1  0
 19 20  1  1
 19 18  1  0
 20 22  1  0
 21 20  2  0
M  END
$$$$
