PPP.pdb
     RDKit          3D

 22 24  0  0  1  0  0  0  0  0999 V2000
    8.6590  -14.9006   20.9885 N   0  0  0  0  0  0  0  0  0  0  0  0
    7.7503  -15.4966   19.9783 C   0  0  0  0  0  0  0  0  0  0  0  0
    6.7794  -16.3529   20.7539 C   0  0  0  0  0  0  0  0  0  0  0  0
    7.2215  -16.1741   22.1904 C   0  0  0  0  0  0  0  0  0  0  0  0
    7.8002  -14.7694   22.1423 C   0  0  1  0  0  0  0  0  0  0  0  0
    8.3448  -14.2544   23.3617 C   0  0  0  0  0  0  0  0  0  0  0  0
    9.6169  -13.9635   23.3822 O   0  0  0  0  0  0  0  0  0  0  0  0
    7.6260  -14.0360   24.5455 N   0  0  0  0  0  0  0  0  0  0  0  0
    6.2184  -14.0400   24.8374 C   0  0  0  0  0  0  0  0  0  0  0  0
    6.1370  -12.7826   25.7246 C   0  0  0  0  0  0  0  0  0  0  0  0
    7.2762  -13.0623   26.6744 C   0  0  0  0  0  0  0  0  0  0  0  0
    8.3132  -13.7191   25.8326 C   0  0  1  0  0  0  0  0  0  0  0  0
    8.8238  -14.9814   26.4035 C   0  0  0  0  0  0  0  0  0  0  0  0
    8.6133  -16.0510   25.7880 O   0  0  0  0  0  0  0  0  0  0  0  0
    9.5399  -15.0343   27.6149 N   0  0  0  0  0  0  0  0  0  0  0  0
    9.3467  -14.1108   28.7145 C   0  0  0  0  0  0  0  0  0  0  0  0
   10.4830  -14.3244   29.6747 C   0  0  0  0  0  0  0  0  0  0  0  0
   11.4992  -15.0557   28.8002 C   0  0  0  0  0  0  0  0  0  0  0  0
   10.5723  -15.9663   28.0180 C   0  0  1  0  0  0  0  0  0  0  0  0
   10.0325  -16.9691   28.9814 C   0  0  0  0  0  0  0  0  0  0  0  0
   10.6995  -17.9036   29.4624 O   0  0  0  0  0  0  0  0  0  0  0  0
    8.7051  -16.8612   29.3711 O   0  0  0  0  0  0  0  0  0  0  0  0
  1  2  1  0
  3  2  1  0
  4  3  1  0
  4  5  1  0
  5  1  1  0
  6  8  1  0
  5  6  1  1
  7  6  2  0
  8  9  1  0
 10  9  1  0
 11 10  1  0
 11 12  1  0
 12  8  1  0
 12 13  1  1
 13 15  1  0
 14 13  2  0
 15 19  1  0
 15 16  1  0
 16 17  1  0
 18 17  1  0
 19 20  1  1
 19 18  1  0
 20 22  1  0
 21 20  2  0
M  END
$$$$
