PPP.pdb
     RDKit          3D

 22 24  0  0  1  0  0  0  0  0999 V2000
    8.6270  -14.9363   21.0412 N   0  0  0  0  0  0  0  0  0  0  0  0
    7.7359  -15.4910   19.9925 C   0  0  0  0  0  0  0  0  0  0  0  0
    6.6793  -16.2797   20.7266 C   0  0  0  0  0  0  0  0  0  0  0  0
    7.0596  -16.1088   22.1817 C   0  0  0  0  0  0  0  0  0  0  0  0
    7.7213  -14.7409   22.1492 C   0  0  1  0  0  0  0  0  0  0  0  0
    8.2342  -14.2431   23.3892 C   0  0  0  0  0  0  0  0  0  0  0  0
    9.5104  -13.9776   23.4545 O   0  0  0  0  0  0  0  0  0  0  0  0
    7.4800  -14.0167   24.5494 N   0  0  0  0  0  0  0  0  0  0  0  0
    6.0657  -14.0453   24.8047 C   0  0  0  0  0  0  0  0  0  0  0  0
    5.9345  -12.7725   25.6636 C   0  0  0  0  0  0  0  0  0  0  0  0
    7.0539  -13.0085   26.6481 C   0  0  0  0  0  0  0  0  0  0  0  0
    8.1263  -13.6595   25.8470 C   0  0  1  0  0  0  0  0  0  0  0  0
    8.6481  -14.8989   26.4567 C   0  0  0  0  0  0  0  0  0  0  0  0
    8.4089  -15.9934   25.8983 O   0  0  0  0  0  0  0  0  0  0  0  0
    9.4061  -14.9028   27.6436 N   0  0  0  0  0  0  0  0  0  0  0  0
    9.2590  -13.9280   28.7054 C   0  0  0  0  0  0  0  0  0  0  0  0
   10.4267  -14.1081   29.6343 C   0  0  0  0  0  0  0  0  0  0  0  0
   11.4057  -14.8884   28.7596 C   0  0  0  0  0  0  0  0  0  0  0  0
   10.4447  -15.8251   28.0532 C   0  0  1  0  0  0  0  0  0  0  0  0
    9.9313  -16.7775   29.0801 C   0  0  0  0  0  0  0  0  0  0  0  0
   10.6101  -17.6898   29.5865 O   0  0  0  0  0  0  0  0  0  0  0  0
    8.6162  -16.6455   29.5030 O   0  0  0  0  0  0  0  0  0  0  0  0
  1  2  1  0
  3  2  1  0
  4  3  1  0
  4  5  1  0
  5  1  1  0
  6  8  1  0
  5  6  1  1
  7  6  2  0
  8  9  1  0
 10  9  1  0
 11 10  1  0
 11 12  1  0
 12  8  1  0
 12 13  1  1
 13 15  1  0
 14 13  2  0
 15 19  1  0
 15 16  1  0
 16 17  1  0
 18 17  1  0
 19 20  1  1
 19 18  1  0
 20 22  1  0
 21 20  2  0
M  END
$$$$
