PPP.pdb
     RDKit          3D

 22 24  0  0  1  0  0  0  0  0999 V2000
    8.7424  -14.7048   21.0499 N   0  0  0  0  0  0  0  0  0  0  0  0
    7.8284  -15.2337   20.0075 C   0  0  0  0  0  0  0  0  0  0  0  0
    6.7889  -16.0420   20.7447 C   0  0  0  0  0  0  0  0  0  0  0  0
    7.2015  -15.9078   22.1948 C   0  0  0  0  0  0  0  0  0  0  0  0
    7.8615  -14.5387   22.1824 C   0  0  1  0  0  0  0  0  0  0  0  0
    8.4018  -14.0722   23.4230 C   0  0  0  0  0  0  0  0  0  0  0  0
    9.6877  -13.8567   23.4814 O   0  0  0  0  0  0  0  0  0  0  0  0
    7.6649  -13.8271   24.5904 N   0  0  0  0  0  0  0  0  0  0  0  0
    6.2521  -13.7503   24.8444 C   0  0  0  0  0  0  0  0  0  0  0  0
    6.2216  -12.5026   25.7484 C   0  0  0  0  0  0  0  0  0  0  0  0
    7.3153  -12.8634   26.7239 C   0  0  0  0  0  0  0  0  0  0  0  0
    8.3340  -13.5699   25.9001 C   0  0  1  0  0  0  0  0  0  0  0  0
    8.7521  -14.8685   26.4650 C   0  0  0  0  0  0  0  0  0  0  0  0
    8.4108  -15.9201   25.8779 O   0  0  0  0  0  0  0  0  0  0  0  0
    9.5210  -14.9753   27.6400 N   0  0  0  0  0  0  0  0  0  0  0  0
    9.4444  -14.0461   28.7491 C   0  0  0  0  0  0  0  0  0  0  0  0
   10.6089  -14.3406   29.6524 C   0  0  0  0  0  0  0  0  0  0  0  0
   11.5295  -15.1348   28.7283 C   0  0  0  0  0  0  0  0  0  0  0  0
   10.5063  -15.9769   27.9910 C   0  0  1  0  0  0  0  0  0  0  0  0
    9.9471  -16.9455   28.9781 C   0  0  0  0  0  0  0  0  0  0  0  0
    8.7902  -16.8874   29.4338 O   0  0  0  0  0  0  0  0  0  0  0  0
   10.7603  -17.9789   29.4213 O   0  0  0  0  0  0  0  0  0  0  0  0
  1  2  1  0
  3  2  1  0
  4  3  1  0
  4  5  1  0
  5  1  1  0
  6  8  1  0
  5  6  1  1
  7  6  2  0
  8  9  1  0
 10  9  1  0
 11 10  1  0
 11 12  1  0
 12  8  1  0
 12 13  1  1
 13 15  1  0
 14 13  2  0
 15 19  1  0
 15 16  1  0
 16 17  1  0
 18 17  1  0
 19 20  1  1
 19 18  1  0
 20 22  1  0
 21 20  2  0
M  END
$$$$
