IQL.pdb
     RDKit          3D

 26 25  0  0  1  0  0  0  0  0999 V2000
   29.1361  -17.1891  -15.8297 C   0  0  0  0  0  0  0  0  0  0  0  0
   28.0804  -18.2222  -15.5939 C   0  0  0  0  0  0  0  0  0  0  0  0
   28.6781  -19.5734  -15.1703 C   0  0  2  0  0  0  0  0  0  0  0  0
   29.5236  -20.0913  -16.2832 C   0  0  0  0  0  0  0  0  0  0  0  0
   27.4916  -20.4443  -14.8209 C   0  0  2  0  0  0  0  0  0  0  0  0
   26.6433  -20.4291  -16.0274 N   0  0  0  0  0  0  0  0  0  0  0  0
   26.6902  -19.9498  -13.7043 C   0  0  0  0  0  0  0  0  0  0  0  0
   25.9888  -18.8971  -13.8428 O   0  0  0  0  0  0  0  0  0  0  0  0
   21.7579  -21.1366  -13.1047 N   0  0  0  0  0  0  0  0  0  0  0  0
   21.7935  -20.3647  -11.9155 C   0  0  0  0  0  0  0  0  0  0  0  0
   20.7144  -19.9618  -11.4424 O   0  0  0  0  0  0  0  0  0  0  0  0
   23.1180  -20.0877  -11.3119 C   0  0  0  0  0  0  0  0  0  0  0  0
   24.2461  -20.6372  -12.1669 C   0  0  0  0  0  0  0  0  0  0  0  0
   25.5355  -20.2816  -11.4867 C   0  0  2  0  0  0  0  0  0  0  0  0
   26.6100  -20.5486  -12.4259 N   0  0  0  0  0  0  0  0  0  0  0  0
   25.7361  -20.9417  -10.1968 C   0  0  0  0  0  0  0  0  0  0  0  0
   25.8196  -22.1966  -10.1866 O   0  0  0  0  0  0  0  0  0  0  0  0
   28.8909  -20.2279   -7.0380 C   0  0  0  0  0  0  0  0  0  0  0  0
   27.7053  -19.2452   -7.0301 C   0  0  2  0  0  0  0  0  0  0  0  0
   28.0703  -18.2162   -5.9720 C   0  0  0  0  0  0  0  0  0  0  0  0
   26.5046  -20.0486   -6.6506 C   0  0  0  0  0  0  0  0  0  0  0  0
   26.0066  -20.9854   -7.6929 C   0  0  2  0  0  0  0  0  0  0  0  0
   25.8435  -20.2660   -8.9551 N   0  0  0  0  0  0  0  0  0  0  0  0
   24.8109  -21.7481   -7.3375 C   0  0  0  0  0  0  0  0  0  0  0  0
   24.7537  -22.6983   -6.3359 O   0  0  0  0  0  0  0  0  0  0  0  0
   23.7268  -21.5428   -7.9823 O   0  0  0  0  0  0  0  0  0  0  0  0
  1  2  1  0
  2  3  1  0
  3  5  1  0
  3  4  1  6
  5  6  1  6
  7  5  1  0
  7  8  2  0
  9 10  1  0
 10 12  1  0
 10 11  2  0
 12 13  1  0
 14 13  1  6
 14 15  1  0
 15  7  1  0
 16 14  1  0
 17 16  2  0
 19 21  1  0
 19 18  1  1
 20 19  1  0
 22 21  1  1
 22 23  1  0
 23 16  1  0
 24 22  1  0
 25 24  1  0
 26 24  2  0
M  END
$$$$
