IQL.pdb
     RDKit          3D

 26 25  0  0  1  0  0  0  0  0999 V2000
   25.1838  -12.3459  -15.9757 C   0  0  0  0  0  0  0  0  0  0  0  0
   23.7076  -12.5854  -16.0060 C   0  0  0  0  0  0  0  0  0  0  0  0
   22.9126  -11.2778  -16.1493 C   0  0  2  0  0  0  0  0  0  0  0  0
   23.2557  -10.3829  -15.0077 C   0  0  0  0  0  0  0  0  0  0  0  0
   21.4602  -11.6966  -16.2088 C   0  0  2  0  0  0  0  0  0  0  0  0
   21.3732  -12.5944  -17.3758 N   0  0  0  0  0  0  0  0  0  0  0  0
   20.5245  -10.5953  -16.4209 C   0  0  0  0  0  0  0  0  0  0  0  0
   20.4708  -10.0163  -17.5527 O   0  0  0  0  0  0  0  0  0  0  0  0
   15.9483  -11.3702  -14.4207 N   0  0  0  0  0  0  0  0  0  0  0  0
   16.0547  -11.2563  -15.8303 C   0  0  0  0  0  0  0  0  0  0  0  0
   15.5046  -12.1236  -16.5344 O   0  0  0  0  0  0  0  0  0  0  0  0
   16.8163  -10.1078  -16.3744 C   0  0  0  0  0  0  0  0  0  0  0  0
   17.4072   -9.2552  -15.2654 C   0  0  0  0  0  0  0  0  0  0  0  0
   18.8092   -8.9055  -15.6702 C   0  0  2  0  0  0  0  0  0  0  0  0
   19.6305  -10.0828  -15.4527 N   0  0  0  0  0  0  0  0  0  0  0  0
   19.3448   -7.7139  -15.0122 C   0  0  0  0  0  0  0  0  0  0  0  0
   20.1871   -7.8798  -14.0931 O   0  0  0  0  0  0  0  0  0  0  0  0
   21.8339   -4.2230  -13.0456 C   0  0  0  0  0  0  0  0  0  0  0  0
   22.0087   -4.2536  -14.5752 C   0  0  2  0  0  0  0  0  0  0  0  0
   21.5128   -2.8946  -15.0429 C   0  0  0  0  0  0  0  0  0  0  0  0
   21.1494   -5.3719  -15.0676 C   0  0  0  0  0  0  0  0  0  0  0  0
   19.6948   -5.2292  -14.7923 C   0  0  2  0  0  0  0  0  0  0  0  0
   18.9814   -6.3828  -15.3378 N   0  0  0  0  0  0  0  0  0  0  0  0
   19.0936   -3.9639  -15.2114 C   0  0  0  0  0  0  0  0  0  0  0  0
   18.9623   -2.8506  -14.4036 O   0  0  0  0  0  0  0  0  0  0  0  0
   18.6491   -3.8507  -16.4041 O   0  0  0  0  0  0  0  0  0  0  0  0
  1  2  1  0
  2  3  1  0
  3  5  1  0
  3  4  1  1
  5  6  1  6
  7  5  1  0
  7  8  2  0
  9 10  1  0
 10 12  1  0
 10 11  2  0
 12 13  1  0
 14 13  1  1
 14 15  1  0
 15  7  1  0
 16 14  1  0
 17 16  2  0
 19 21  1  0
 19 18  1  1
 20 19  1  0
 22 21  1  6
 22 23  1  0
 23 16  1  0
 24 22  1  0
 25 24  1  0
 26 24  2  0
M  END
$$$$
