IQL.pdb
     RDKit          3D

 26 25  0  0  1  0  0  0  0  0999 V2000
   21.1602  -28.0920   -0.9259 C   0  0  0  0  0  0  0  0  0  0  0  0
   19.9064  -27.4221   -1.3912 C   0  0  0  0  0  0  0  0  0  0  0  0
   18.8000  -28.4350   -1.7265 C   0  0  2  0  0  0  0  0  0  0  0  0
   19.2603  -29.2872   -2.8595 C   0  0  0  0  0  0  0  0  0  0  0  0
   17.5713  -27.6031   -2.0209 C   0  0  2  0  0  0  0  0  0  0  0  0
   18.0274  -26.5825   -2.9831 N   0  0  0  0  0  0  0  0  0  0  0  0
   17.0221  -26.9089   -0.8591 C   0  0  0  0  0  0  0  0  0  0  0  0
   17.2628  -25.6714   -0.6860 O   0  0  0  0  0  0  0  0  0  0  0  0
   12.2184  -28.5542    2.8378 N   0  0  0  0  0  0  0  0  0  0  0  0
   12.6764  -27.3690    3.4678 C   0  0  0  0  0  0  0  0  0  0  0  0
   12.0533  -26.9520    4.4620 O   0  0  0  0  0  0  0  0  0  0  0  0
   13.8714  -26.7027    2.8992 C   0  0  0  0  0  0  0  0  0  0  0  0
   14.4660  -27.5055    1.7556 C   0  0  0  0  0  0  0  0  0  0  0  0
   15.6720  -26.7589    1.2660 C   0  0  2  0  0  0  0  0  0  0  0  0
   16.2125  -27.4980    0.1394 N   0  0  0  0  0  0  0  0  0  0  0  0
   16.6731  -26.4917    2.2987 C   0  0  0  0  0  0  0  0  0  0  0  0
   17.3367  -27.4654    2.7383 O   0  0  0  0  0  0  0  0  0  0  0  0
   20.5310  -26.2716    3.2295 C   0  0  0  0  0  0  0  0  0  0  0  0
   19.8888  -25.0809    2.4938 C   0  0  2  0  0  0  0  0  0  0  0  0
   21.0676  -24.2669    1.9846 C   0  0  0  0  0  0  0  0  0  0  0  0
   19.0899  -24.3437    3.5183 C   0  0  0  0  0  0  0  0  0  0  0  0
   17.8507  -25.0272    3.9759 C   0  0  2  0  0  0  0  0  0  0  0  0
   16.9491  -25.2107    2.8397 N   0  0  0  0  0  0  0  0  0  0  0  0
   17.1757  -24.4131    5.1183 C   0  0  0  0  0  0  0  0  0  0  0  0
   15.8786  -23.9369    5.1017 O   0  0  0  0  0  0  0  0  0  0  0  0
   17.8056  -24.2948    6.2238 O   0  0  0  0  0  0  0  0  0  0  0  0
  1  2  1  0
  2  3  1  0
  3  5  1  0
  3  4  1  6
  5  6  1  6
  7  5  1  0
  7  8  2  0
  9 10  1  0
 10 12  1  0
 10 11  2  0
 12 13  1  0
 14 13  1  1
 14 15  1  0
 15  7  1  0
 16 14  1  0
 17 16  2  0
 19 21  1  0
 19 18  1  1
 20 19  1  0
 22 21  1  6
 22 23  1  0
 23 16  1  0
 24 22  1  0
 25 24  1  0
 26 24  2  0
M  END
$$$$
