IQL.pdb
     RDKit          3D

 26 25  0  0  1  0  0  0  0  0999 V2000
   27.6648  -15.9449  -18.0630 C   0  0  0  0  0  0  0  0  0  0  0  0
   28.0870  -17.0880  -17.1956 C   0  0  0  0  0  0  0  0  0  0  0  0
   26.9132  -17.6658  -16.3889 C   0  0  2  0  0  0  0  0  0  0  0  0
   26.3225  -16.5775  -15.5592 C   0  0  0  0  0  0  0  0  0  0  0  0
   27.4980  -18.8156  -15.5986 C   0  0  2  0  0  0  0  0  0  0  0  0
   28.0624  -19.7240  -16.6144 N   0  0  0  0  0  0  0  0  0  0  0  0
   26.5195  -19.5691  -14.8189 C   0  0  0  0  0  0  0  0  0  0  0  0
   25.7028  -20.3482  -15.4065 O   0  0  0  0  0  0  0  0  0  0  0  0
   26.0024  -20.2352   -8.5451 N   0  0  0  0  0  0  0  0  0  0  0  0
   24.8442  -20.9041   -9.0167 C   0  0  0  0  0  0  0  0  0  0  0  0
   24.1163  -21.4784   -8.1855 O   0  0  0  0  0  0  0  0  0  0  0  0
   24.5757  -20.8753  -10.4735 C   0  0  0  0  0  0  0  0  0  0  0  0
   25.6789  -20.1563  -11.2296 C   0  0  0  0  0  0  0  0  0  0  0  0
   25.3392  -20.2276  -12.6894 C   0  0  2  0  0  0  0  0  0  0  0  0
   26.3801  -19.5196  -13.4126 N   0  0  0  0  0  0  0  0  0  0  0  0
   23.9969  -19.7477  -13.0179 C   0  0  0  0  0  0  0  0  0  0  0  0
   23.8555  -18.5221  -13.2621 O   0  0  0  0  0  0  0  0  0  0  0  0
   20.2270  -20.5509  -16.6625 C   0  0  0  0  0  0  0  0  0  0  0  0
   20.9355  -19.3095  -16.0897 C   0  0  2  0  0  0  0  0  0  0  0  0
   21.4555  -18.5696  -17.3119 C   0  0  0  0  0  0  0  0  0  0  0  0
   22.0396  -19.8251  -15.2257 C   0  0  0  0  0  0  0  0  0  0  0  0
   21.6518  -20.1734  -13.8328 C   0  0  2  0  0  0  0  0  0  0  0  0
   22.8421  -20.5676  -13.0810 N   0  0  0  0  0  0  0  0  0  0  0  0
   20.5723  -21.1510  -13.7032 C   0  0  0  0  0  0  0  0  0  0  0  0
   20.7114  -22.5086  -13.9200 O   0  0  0  0  0  0  0  0  0  0  0  0
   19.4063  -20.7503  -13.3672 O   0  0  0  0  0  0  0  0  0  0  0  0
  1  2  1  0
  2  3  1  0
  3  5  1  0
  3  4  1  1
  5  6  1  6
  7  5  1  0
  7  8  2  0
  9 10  1  0
 10 12  1  0
 10 11  2  0
 12 13  1  0
 14 13  1  1
 14 15  1  0
 15  7  1  0
 16 14  1  0
 17 16  2  0
 19 21  1  0
 19 18  1  6
 20 19  1  0
 22 21  1  6
 22 23  1  0
 23 16  1  0
 24 22  1  0
 25 24  1  0
 26 24  2  0
M  END
$$$$
