IQL.pdb
     RDKit          3D

 26 25  0  0  1  0  0  0  0  0999 V2000
   20.0106  -17.0989  -17.1839 C   0  0  0  0  0  0  0  0  0  0  0  0
   18.9620  -16.1305  -17.6312 C   0  0  0  0  0  0  0  0  0  0  0  0
   19.4431  -14.6737  -17.5387 C   0  0  2  0  0  0  0  0  0  0  0  0
   19.8079  -14.3803  -16.1235 C   0  0  0  0  0  0  0  0  0  0  0  0
   18.3038  -13.8404  -18.0828 C   0  0  2  0  0  0  0  0  0  0  0  0
   18.0705  -14.3613  -19.4429 N   0  0  0  0  0  0  0  0  0  0  0  0
   18.6010  -12.4148  -18.1947 C   0  0  0  0  0  0  0  0  0  0  0  0
   19.4375  -12.0062  -19.0622 O   0  0  0  0  0  0  0  0  0  0  0  0
   15.0340   -7.6007  -17.7651 N   0  0  0  0  0  0  0  0  0  0  0  0
   15.0048   -8.6415  -16.8022 C   0  0  0  0  0  0  0  0  0  0  0  0
   14.0050   -8.7346  -16.0657 O   0  0  0  0  0  0  0  0  0  0  0  0
   16.1708   -9.5534  -16.7360 C   0  0  0  0  0  0  0  0  0  0  0  0
   17.2272   -9.1827  -17.7618 C   0  0  0  0  0  0  0  0  0  0  0  0
   18.4462  -10.0056  -17.4643 C   0  0  2  0  0  0  0  0  0  0  0  0
   18.0278  -11.3944  -17.4011 N   0  0  0  0  0  0  0  0  0  0  0  0
   19.1804   -9.5822  -16.2721 C   0  0  0  0  0  0  0  0  0  0  0  0
   19.3297  -10.4204  -15.3465 O   0  0  0  0  0  0  0  0  0  0  0  0
   22.1779   -9.6633  -13.2115 C   0  0  0  0  0  0  0  0  0  0  0  0
   22.1213  -10.1715  -14.6640 C   0  0  2  0  0  0  0  0  0  0  0  0
   23.4520  -10.8764  -14.8734 C   0  0  0  0  0  0  0  0  0  0  0  0
   21.9808   -8.9569  -15.5221 C   0  0  0  0  0  0  0  0  0  0  0  0
   20.8526   -8.0534  -15.1715 C   0  0  2  0  0  0  0  0  0  0  0  0
   19.7370   -8.2917  -16.0857 N   0  0  0  0  0  0  0  0  0  0  0  0
   21.1876   -6.6336  -15.0729 C   0  0  0  0  0  0  0  0  0  0  0  0
   21.6843   -6.0203  -13.9386 O   0  0  0  0  0  0  0  0  0  0  0  0
   21.0189   -5.8817  -16.0923 O   0  0  0  0  0  0  0  0  0  0  0  0
  1  2  1  0
  2  3  1  0
  3  5  1  0
  3  4  1  1
  5  6  1  6
  7  5  1  0
  7  8  2  0
  9 10  1  0
 10 12  1  0
 10 11  2  0
 12 13  1  0
 14 13  1  1
 14 15  1  0
 15  7  1  0
 16 14  1  0
 17 16  2  0
 19 21  1  0
 19 18  1  1
 20 19  1  0
 22 21  1  6
 22 23  1  0
 23 16  1  0
 24 22  1  0
 25 24  1  0
 26 24  2  0
M  END
$$$$
