IQL.pdb
     RDKit          3D

 26 25  0  0  1  0  0  0  0  0999 V2000
   16.0442  -20.7696    0.2406 C   0  0  0  0  0  0  0  0  0  0  0  0
   15.6405  -20.1266    1.5294 C   0  0  0  0  0  0  0  0  0  0  0  0
   16.8007  -19.3562    2.1795 C   0  0  2  0  0  0  0  0  0  0  0  0
   17.9380  -20.2959    2.3922 C   0  0  0  0  0  0  0  0  0  0  0  0
   16.2268  -18.7625    3.4470 C   0  0  2  0  0  0  0  0  0  0  0  0
   15.0677  -17.9670    3.0007 N   0  0  0  0  0  0  0  0  0  0  0  0
   17.1363  -17.8679    4.1580 C   0  0  0  0  0  0  0  0  0  0  0  0
   18.2806  -18.2860    4.5256 O   0  0  0  0  0  0  0  0  0  0  0  0
   18.6057  -12.8063    4.0699 N   0  0  0  0  0  0  0  0  0  0  0  0
   18.8550  -12.7248    5.4637 C   0  0  0  0  0  0  0  0  0  0  0  0
   19.7736  -11.9807    5.8551 O   0  0  0  0  0  0  0  0  0  0  0  0
   18.0023  -13.5336    6.3658 C   0  0  0  0  0  0  0  0  0  0  0  0
   17.0428  -14.4140    5.5848 C   0  0  0  0  0  0  0  0  0  0  0  0
   17.7491  -15.7089    5.3090 C   0  0  2  0  0  0  0  0  0  0  0  0
   16.8633  -16.5221    4.4954 N   0  0  0  0  0  0  0  0  0  0  0  0
   18.2142  -16.4066    6.5077 C   0  0  0  0  0  0  0  0  0  0  0  0
   17.4580  -17.2765    7.0107 O   0  0  0  0  0  0  0  0  0  0  0  0
   22.9406  -18.7761    8.9613 C   0  0  0  0  0  0  0  0  0  0  0  0
   21.4021  -18.8162    9.0155 C   0  0  2  0  0  0  0  0  0  0  0  0
   21.0493  -20.2719    8.7552 C   0  0  0  0  0  0  0  0  0  0  0  0
   20.9262  -17.9129    7.9252 C   0  0  0  0  0  0  0  0  0  0  0  0
   19.8837  -16.9283    8.3201 C   0  0  2  0  0  0  0  0  0  0  0  0
   19.4593  -16.1714    7.1435 N   0  0  0  0  0  0  0  0  0  0  0  0
   20.2324  -16.0536    9.4387 C   0  0  0  0  0  0  0  0  0  0  0  0
   20.2787  -16.4501   10.7616 O   0  0  0  0  0  0  0  0  0  0  0  0
   20.5191  -14.8301    9.2066 O   0  0  0  0  0  0  0  0  0  0  0  0
  1  2  1  0
  2  3  1  0
  3  5  1  0
  3  4  1  1
  5  6  1  6
  7  5  1  0
  7  8  2  0
  9 10  1  0
 10 12  1  0
 10 11  2  0
 12 13  1  0
 14 13  1  1
 14 15  1  0
 15  7  1  0
 16 14  1  0
 17 16  2  0
 19 21  1  0
 19 18  1  6
 20 19  1  0
 22 21  1  6
 22 23  1  0
 23 16  1  0
 24 22  1  0
 25 24  1  0
 26 24  2  0
M  END
$$$$
