IQL.pdb
     RDKit          3D

 26 25  0  0  1  0  0  0  0  0999 V2000
   18.2433  -13.3036  -17.7621 C   0  0  0  0  0  0  0  0  0  0  0  0
   17.6396  -12.9381  -16.4433 C   0  0  0  0  0  0  0  0  0  0  0  0
   17.8384  -11.4513  -16.1086 C   0  0  2  0  0  0  0  0  0  0  0  0
   19.2999  -11.1590  -16.0829 C   0  0  0  0  0  0  0  0  0  0  0  0
   17.1290  -11.2393  -14.7894 C   0  0  2  0  0  0  0  0  0  0  0  0
   15.7357  -11.6544  -15.0386 N   0  0  0  0  0  0  0  0  0  0  0  0
   17.1077   -9.8518  -14.3337 C   0  0  0  0  0  0  0  0  0  0  0  0
   16.9415   -8.9099  -15.1729 O   0  0  0  0  0  0  0  0  0  0  0  0
   16.1733   -7.4258   -8.6158 N   0  0  0  0  0  0  0  0  0  0  0  0
   16.3805   -6.2689   -9.4095 C   0  0  0  0  0  0  0  0  0  0  0  0
   16.2127   -5.1541   -8.8807 O   0  0  0  0  0  0  0  0  0  0  0  0
   16.7847   -6.4640  -10.8215 C   0  0  0  0  0  0  0  0  0  0  0  0
   16.7850   -7.9337  -11.2033 C   0  0  0  0  0  0  0  0  0  0  0  0
   17.3221   -8.0317  -12.6010 C   0  0  2  0  0  0  0  0  0  0  0  0
   17.2598   -9.4281  -12.9933 N   0  0  0  0  0  0  0  0  0  0  0  0
   18.6556   -7.4555  -12.7737 C   0  0  0  0  0  0  0  0  0  0  0  0
   19.6343   -8.0904  -12.3040 O   0  0  0  0  0  0  0  0  0  0  0  0
   22.1965   -5.5436  -16.8992 C   0  0  0  0  0  0  0  0  0  0  0  0
   22.0696   -5.4303  -15.3687 C   0  0  2  0  0  0  0  0  0  0  0  0
   23.1572   -6.3444  -14.8274 C   0  0  0  0  0  0  0  0  0  0  0  0
   20.6985   -5.9169  -15.0302 C   0  0  0  0  0  0  0  0  0  0  0  0
   20.2845   -5.7279  -13.6142 C   0  0  2  0  0  0  0  0  0  0  0  0
   18.9234   -6.2302  -13.4345 N   0  0  0  0  0  0  0  0  0  0  0  0
   20.4443   -4.3745  -13.0846 C   0  0  0  0  0  0  0  0  0  0  0  0
   21.6201   -3.8677  -12.5649 O   0  0  0  0  0  0  0  0  0  0  0  0
   19.4422   -3.5815  -13.0895 O   0  0  0  0  0  0  0  0  0  0  0  0
  1  2  1  0
  2  3  1  0
  3  5  1  0
  3  4  1  1
  5  6  1  6
  7  5  1  0
  7  8  2  0
  9 10  1  0
 10 12  1  0
 10 11  2  0
 12 13  1  0
 14 13  1  1
 14 15  1  0
 15  7  1  0
 16 14  1  0
 17 16  2  0
 19 21  1  0
 19 18  1  6
 20 19  1  0
 22 21  1  6
 22 23  1  0
 23 16  1  0
 24 22  1  0
 25 24  1  0
 26 24  2  0
M  END
$$$$
