IQL.pdb
     RDKit          3D

 26 25  0  0  1  0  0  0  0  0999 V2000
   26.5670  -15.7166  -17.7923 C   0  0  0  0  0  0  0  0  0  0  0  0
   27.3254  -16.5600  -16.8171 C   0  0  0  0  0  0  0  0  0  0  0  0
   26.4450  -17.0214  -15.6447 C   0  0  2  0  0  0  0  0  0  0  0  0
   25.8473  -15.8204  -14.9949 C   0  0  0  0  0  0  0  0  0  0  0  0
   27.3587  -17.8328  -14.7529 C   0  0  2  0  0  0  0  0  0  0  0  0
   28.0550  -18.7578  -15.6667 N   0  0  0  0  0  0  0  0  0  0  0  0
   26.6635  -18.6344  -13.7492 C   0  0  0  0  0  0  0  0  0  0  0  0
   26.0472  -18.0619  -12.7944 O   0  0  0  0  0  0  0  0  0  0  0  0
   24.1338  -24.4091  -13.0235 N   0  0  0  0  0  0  0  0  0  0  0  0
   23.5108  -23.3567  -13.7417 C   0  0  0  0  0  0  0  0  0  0  0  0
   22.3466  -23.5297  -14.1483 O   0  0  0  0  0  0  0  0  0  0  0  0
   24.2896  -22.1156  -13.9615 C   0  0  0  0  0  0  0  0  0  0  0  0
   25.6333  -22.1685  -13.2562 C   0  0  0  0  0  0  0  0  0  0  0  0
   25.9014  -20.7994  -12.7036 C   0  0  2  0  0  0  0  0  0  0  0  0
   26.6020  -20.0469  -13.7286 N   0  0  0  0  0  0  0  0  0  0  0  0
   26.6048  -20.7965  -11.4209 C   0  0  0  0  0  0  0  0  0  0  0  0
   27.7585  -21.2956  -11.3834 O   0  0  0  0  0  0  0  0  0  0  0  0
   26.7894  -19.7333   -5.9922 C   0  0  0  0  0  0  0  0  0  0  0  0
   27.9652  -19.9837   -6.9546 C   0  0  2  0  0  0  0  0  0  0  0  0
   29.0351  -18.9975   -6.5140 C   0  0  0  0  0  0  0  0  0  0  0  0
   27.4489  -19.6870   -8.3245 C   0  0  0  0  0  0  0  0  0  0  0  0
   26.5453  -20.7164   -8.9041 C   0  0  2  0  0  0  0  0  0  0  0  0
   26.0772  -20.2698  -10.2151 N   0  0  0  0  0  0  0  0  0  0  0  0
   25.4429  -21.1453   -8.0447 C   0  0  0  0  0  0  0  0  0  0  0  0
   24.1134  -20.8354   -8.2586 O   0  0  0  0  0  0  0  0  0  0  0  0
   25.6969  -21.8583   -7.0151 O   0  0  0  0  0  0  0  0  0  0  0  0
  1  2  1  0
  2  3  1  0
  3  5  1  0
  3  4  1  1
  5  6  1  6
  7  5  1  0
  7  8  2  0
  9 10  1  0
 10 12  1  0
 10 11  2  0
 12 13  1  0
 14 13  1  6
 14 15  1  0
 15  7  1  0
 16 14  1  0
 17 16  2  0
 19 21  1  0
 19 18  1  1
 20 19  1  0
 22 21  1  1
 22 23  1  0
 23 16  1  0
 24 22  1  0
 25 24  1  0
 26 24  2  0
M  END
$$$$
