NKT.pdb
     RDKit          3D

 25 24  0  0  1  0  0  0  0  0999 V2000
    9.2788  -17.1966   15.5919 N   0  0  0  0  0  0  0  0  0  0  0  0
    7.9608  -17.6439   15.8292 C   0  0  0  0  0  0  0  0  0  0  0  0
    7.3497  -18.3105   14.9768 O   0  0  0  0  0  0  0  0  0  0  0  0
    7.2826  -17.3170   17.1169 C   0  0  0  0  0  0  0  0  0  0  0  0
    7.6522  -18.3284   18.1969 C   0  0  2  0  0  0  0  0  0  0  0  0
    7.0175  -19.5967   17.9214 N   0  0  0  0  0  0  0  0  0  0  0  0
    7.0884  -17.7884   19.4812 C   0  0  0  0  0  0  0  0  0  0  0  0
    7.2903  -16.5772   19.7373 O   0  0  0  0  0  0  0  0  0  0  0  0
    6.3550  -18.5757   20.3877 N   0  0  0  0  0  0  0  0  0  0  0  0
    5.7342  -17.9930   21.6161 C   0  0  1  0  0  0  0  0  0  0  0  0
    4.5418  -18.8366   21.9491 C   0  0  0  0  0  0  0  0  0  0  0  0
    3.4666  -18.8378   20.9252 C   0  0  0  0  0  0  0  0  0  0  0  0
    2.3035  -19.7443   21.3242 C   0  0  0  0  0  0  0  0  0  0  0  0
    1.1469  -19.6161   20.3761 C   0  0  0  0  0  0  0  0  0  0  0  0
    0.1057  -20.5759   20.7631 N   0  0  0  0  0  0  0  0  0  0  0  0
    6.7808  -17.9363   22.6799 C   0  0  0  0  0  0  0  0  0  0  0  0
    7.4521  -18.9741   22.8845 O   0  0  0  0  0  0  0  0  0  0  0  0
    8.9950  -14.8682   23.2429 C   0  0  0  0  0  0  0  0  0  0  0  0
    8.4138  -15.1694   24.6164 C   0  0  1  0  0  0  0  0  0  0  0  0
    7.3914  -14.1861   24.7729 O   0  0  0  0  0  0  0  0  0  0  0  0
    7.7690  -16.5181   24.5903 C   0  0  2  0  0  0  0  0  0  0  0  0
    7.0109  -16.7736   23.4194 N   0  0  0  0  0  0  0  0  0  0  0  0
    7.2259  -16.9789   25.8903 C   0  0  0  0  0  0  0  0  0  0  0  0
    7.9298  -17.0725   27.0762 O   0  0  0  0  0  0  0  0  0  0  0  0
    6.0028  -17.3268   25.9873 O   0  0  0  0  0  0  0  0  0  0  0  0
  1  2  1  0
  2  3  2  0
  4  2  1  0
  4  5  1  0
  5  7  1  0
  5  6  1  6
  7  8  2  0
  9 10  1  0
  9  7  1  0
 10 11  1  1
 11 12  1  0
 13 12  1  0
 13 14  1  0
 14 15  1  0
 16 17  2  0
 16 10  1  0
 19 18  1  6
 19 21  1  0
 20 19  1  0
 21 22  1  6
 21 23  1  0
 22 16  1  0
 23 24  1  0
 25 23  2  0
M  END
$$$$
