NKT.pdb
     RDKit          3D

 25 24  0  0  1  0  0  0  0  0999 V2000
    7.5337  -12.1246   19.0567 N   0  0  0  0  0  0  0  0  0  0  0  0
    8.2399  -13.3184   19.3206 C   0  0  0  0  0  0  0  0  0  0  0  0
    8.8395  -13.9194   18.4130 O   0  0  0  0  0  0  0  0  0  0  0  0
    8.2727  -13.8755   20.7039 C   0  0  0  0  0  0  0  0  0  0  0  0
    7.7418  -15.3051   20.7258 C   0  0  2  0  0  0  0  0  0  0  0  0
    6.3264  -15.3091   20.4360 N   0  0  0  0  0  0  0  0  0  0  0  0
    7.9362  -15.7982   22.1323 C   0  0  0  0  0  0  0  0  0  0  0  0
    7.1199  -15.4067   23.0003 O   0  0  0  0  0  0  0  0  0  0  0  0
    8.9786  -16.6673   22.5029 N   0  0  0  0  0  0  0  0  0  0  0  0
    9.0761  -17.2405   23.8798 C   0  0  1  0  0  0  0  0  0  0  0  0
    9.8355  -18.5270   23.7683 C   0  0  0  0  0  0  0  0  0  0  0  0
   10.0909  -19.2203   25.0562 C   0  0  0  0  0  0  0  0  0  0  0  0
   10.9397  -20.4761   24.8665 C   0  0  0  0  0  0  0  0  0  0  0  0
   11.1138  -21.2300   26.1527 C   0  0  0  0  0  0  0  0  0  0  0  0
   11.7406  -22.5257   25.8638 N   0  0  0  0  0  0  0  0  0  0  0  0
    9.7049  -16.2141   24.7637 C   0  0  0  0  0  0  0  0  0  0  0  0
   10.6806  -15.5768   24.3041 O   0  0  0  0  0  0  0  0  0  0  0  0
    9.2433  -12.9412   28.2461 C   0  0  0  0  0  0  0  0  0  0  0  0
    8.5929  -14.0550   27.4390 C   0  0  1  0  0  0  0  0  0  0  0  0
    8.1578  -13.3988   26.2487 O   0  0  0  0  0  0  0  0  0  0  0  0
    9.6334  -15.0621   27.0671 C   0  0  2  0  0  0  0  0  0  0  0  0
    9.2266  -15.9656   26.0527 N   0  0  0  0  0  0  0  0  0  0  0  0
   10.4254  -15.5939   28.2017 C   0  0  0  0  0  0  0  0  0  0  0  0
   11.2511  -14.8576   29.0303 O   0  0  0  0  0  0  0  0  0  0  0  0
   10.3754  -16.8345   28.4931 O   0  0  0  0  0  0  0  0  0  0  0  0
  1  2  1  0
  2  3  2  0
  4  2  1  0
  4  5  1  0
  5  7  1  0
  5  6  1  1
  7  8  2  0
  9 10  1  0
  9  7  1  0
 10 11  1  6
 11 12  1  0
 13 12  1  0
 13 14  1  0
 14 15  1  0
 16 17  2  0
 16 10  1  0
 19 18  1  1
 19 21  1  0
 20 19  1  0
 21 22  1  1
 21 23  1  0
 22 16  1  0
 23 24  1  0
 25 23  2  0
M  END
$$$$
