NKT.pdb
     RDKit          3D

 25 24  0  0  1  0  0  0  0  0999 V2000
    8.7005  -17.5665   15.6512 N   0  0  0  0  0  0  0  0  0  0  0  0
    7.2986  -17.4036   15.6931 C   0  0  0  0  0  0  0  0  0  0  0  0
    6.6874  -16.8860   14.7428 O   0  0  0  0  0  0  0  0  0  0  0  0
    6.5307  -17.8544   16.8897 C   0  0  0  0  0  0  0  0  0  0  0  0
    7.4662  -18.4203   17.9531 C   0  0  2  0  0  0  0  0  0  0  0  0
    7.8360  -19.7749   17.6130 N   0  0  0  0  0  0  0  0  0  0  0  0
    6.6717  -18.4548   19.2285 C   0  0  0  0  0  0  0  0  0  0  0  0
    6.3260  -17.3557   19.7243 O   0  0  0  0  0  0  0  0  0  0  0  0
    6.3069  -19.6512   19.8727 N   0  0  0  0  0  0  0  0  0  0  0  0
    5.6567  -19.6563   21.2183 C   0  0  1  0  0  0  0  0  0  0  0  0
    5.0908  -21.0274   21.4285 C   0  0  0  0  0  0  0  0  0  0  0  0
    4.4703  -21.2547   22.7581 C   0  0  0  0  0  0  0  0  0  0  0  0
    3.8325  -22.6392   22.8580 C   0  0  0  0  0  0  0  0  0  0  0  0
    3.1701  -22.8525   24.1879 C   0  0  0  0  0  0  0  0  0  0  0  0
    2.5696  -24.1919   24.2111 N   0  0  0  0  0  0  0  0  0  0  0  0
    6.6761  -19.2360   22.2254 C   0  0  0  0  0  0  0  0  0  0  0  0
    7.8321  -19.7039   22.1059 O   0  0  0  0  0  0  0  0  0  0  0  0
    7.9739  -15.8680   25.5621 C   0  0  0  0  0  0  0  0  0  0  0  0
    7.0288  -16.3317   24.4635 C   0  0  1  0  0  0  0  0  0  0  0  0
    7.5667  -15.7373   23.2828 O   0  0  0  0  0  0  0  0  0  0  0  0
    7.1266  -17.8175   24.3284 C   0  0  2  0  0  0  0  0  0  0  0  0
    6.3616  -18.3522   23.2608 N   0  0  0  0  0  0  0  0  0  0  0  0
    7.1579  -18.5631   25.6092 C   0  0  0  0  0  0  0  0  0  0  0  0
    6.0740  -19.1551   26.2300 O   0  0  0  0  0  0  0  0  0  0  0  0
    8.2573  -18.7115   26.2382 O   0  0  0  0  0  0  0  0  0  0  0  0
  1  2  1  0
  2  3  2  0
  4  2  1  0
  4  5  1  0
  5  7  1  0
  5  6  1  6
  7  8  2  0
  9 10  1  0
  9  7  1  0
 10 11  1  1
 11 12  1  0
 13 12  1  0
 13 14  1  0
 14 15  1  0
 16 17  2  0
 16 10  1  0
 19 18  1  1
 19 21  1  0
 20 19  1  0
 21 22  1  6
 21 23  1  0
 22 16  1  0
 23 24  1  0
 25 23  2  0
M  END
$$$$
