NKT.pdb
     RDKit          3D

 25 24  0  0  1  0  0  0  0  0999 V2000
   13.3064  -17.4591   14.1638 N   0  0  0  0  0  0  0  0  0  0  0  0
   12.4475  -16.4282   13.7241 C   0  0  0  0  0  0  0  0  0  0  0  0
   12.6209  -15.8791   12.6228 O   0  0  0  0  0  0  0  0  0  0  0  0
   11.3140  -15.9835   14.5856 C   0  0  0  0  0  0  0  0  0  0  0  0
   10.2129  -17.0383   14.6206 C   0  0  2  0  0  0  0  0  0  0  0  0
    9.3216  -16.8570   13.4981 N   0  0  0  0  0  0  0  0  0  0  0  0
    9.4376  -16.7867   15.8834 C   0  0  0  0  0  0  0  0  0  0  0  0
    8.6303  -15.8267   15.8848 O   0  0  0  0  0  0  0  0  0  0  0  0
    9.5799  -17.5743   17.0405 N   0  0  0  0  0  0  0  0  0  0  0  0
    8.6670  -17.4242   18.2143 C   0  0  1  0  0  0  0  0  0  0  0  0
    8.4995  -18.7848   18.8184 C   0  0  0  0  0  0  0  0  0  0  0  0
    7.6186  -18.8387   20.0124 C   0  0  0  0  0  0  0  0  0  0  0  0
    7.5218  -20.2523   20.5834 C   0  0  0  0  0  0  0  0  0  0  0  0
    6.5920  -20.3152   21.7600 C   0  0  0  0  0  0  0  0  0  0  0  0
    6.5368  -21.6981   22.2496 N   0  0  0  0  0  0  0  0  0  0  0  0
    9.2542  -16.3990   19.1278 C   0  0  0  0  0  0  0  0  0  0  0  0
   10.4980  -16.4048   19.2777 O   0  0  0  0  0  0  0  0  0  0  0  0
    8.1921  -12.7800   19.0251 C   0  0  0  0  0  0  0  0  0  0  0  0
    8.0408  -13.1593   20.4908 C   0  0  1  0  0  0  0  0  0  0  0  0
    6.6388  -13.3814   20.6385 O   0  0  0  0  0  0  0  0  0  0  0  0
    8.7502  -14.4519   20.7379 C   0  0  2  0  0  0  0  0  0  0  0  0
    8.4545  -15.4639   19.7895 N   0  0  0  0  0  0  0  0  0  0  0  0
    8.8664  -14.8411   22.1636 C   0  0  0  0  0  0  0  0  0  0  0  0
    9.2655  -14.0174   23.1994 O   0  0  0  0  0  0  0  0  0  0  0  0
    8.5783  -16.0282   22.5299 O   0  0  0  0  0  0  0  0  0  0  0  0
  1  2  1  0
  2  3  2  0
  4  2  1  0
  4  5  1  0
  5  7  1  0
  5  6  1  6
  7  8  2  0
  9 10  1  0
  9  7  1  0
 10 11  1  1
 11 12  1  0
 13 12  1  0
 13 14  1  0
 14 15  1  0
 16 17  2  0
 16 10  1  0
 19 18  1  6
 19 21  1  0
 20 19  1  0
 21 22  1  6
 21 23  1  0
 22 16  1  0
 23 24  1  0
 25 23  2  0
M  END
$$$$
