NKT.pdb
     RDKit          3D

 25 24  0  0  1  0  0  0  0  0999 V2000
   11.6200  -20.9636   18.7423 N   0  0  0  0  0  0  0  0  0  0  0  0
   12.4077  -19.8994   18.2519 C   0  0  0  0  0  0  0  0  0  0  0  0
   12.9947  -19.9900   17.1602 O   0  0  0  0  0  0  0  0  0  0  0  0
   12.5451  -18.6450   19.0471 C   0  0  0  0  0  0  0  0  0  0  0  0
   12.0979  -17.4350   18.2333 C   0  0  2  0  0  0  0  0  0  0  0  0
   13.1665  -17.0067   17.3604 N   0  0  0  0  0  0  0  0  0  0  0  0
   11.8350  -16.3400   19.2288 C   0  0  0  0  0  0  0  0  0  0  0  0
   12.8250  -15.7059   19.6659 O   0  0  0  0  0  0  0  0  0  0  0  0
   10.5443  -16.0054   19.6777 N   0  0  0  0  0  0  0  0  0  0  0  0
   10.3088  -14.8853   20.6388 C   0  0  1  0  0  0  0  0  0  0  0  0
    8.9675  -14.3021   20.3149 C   0  0  0  0  0  0  0  0  0  0  0  0
    8.8511  -13.7071   18.9596 C   0  0  0  0  0  0  0  0  0  0  0  0
    7.4225  -13.2585   18.6572 C   0  0  0  0  0  0  0  0  0  0  0  0
    7.3177  -12.6037   17.3106 C   0  0  0  0  0  0  0  0  0  0  0  0
    5.9081  -12.2968   17.0389 N   0  0  0  0  0  0  0  0  0  0  0  0
   10.4397  -15.4297   22.0233 C   0  0  0  0  0  0  0  0  0  0  0  0
   10.2197  -14.6450   22.9748 O   0  0  0  0  0  0  0  0  0  0  0  0
    8.7865  -18.4273   23.3947 C   0  0  0  0  0  0  0  0  0  0  0  0
   10.2623  -18.7467   23.5820 C   0  0  1  0  0  0  0  0  0  0  0  0
   10.5673  -19.5932   22.4742 O   0  0  0  0  0  0  0  0  0  0  0  0
   11.0571  -17.4879   23.4447 C   0  0  2  0  0  0  0  0  0  0  0  0
   10.7893  -16.7622   22.2562 N   0  0  0  0  0  0  0  0  0  0  0  0
   12.4625  -17.5798   23.9071 C   0  0  0  0  0  0  0  0  0  0  0  0
   12.8877  -18.1130   25.1094 O   0  0  0  0  0  0  0  0  0  0  0  0
   13.4099  -17.1515   23.1687 O   0  0  0  0  0  0  0  0  0  0  0  0
  1  2  1  0
  2  3  2  0
  4  2  1  0
  4  5  1  0
  5  7  1  0
  5  6  1  6
  7  8  2  0
  9 10  1  0
  9  7  1  0
 10 11  1  1
 11 12  1  0
 13 12  1  0
 13 14  1  0
 14 15  1  0
 16 17  2  0
 16 10  1  0
 19 18  1  6
 19 21  1  0
 20 19  1  0
 21 22  1  6
 21 23  1  0
 22 16  1  0
 23 24  1  0
 25 23  2  0
M  END
$$$$
