NKT.pdb
     RDKit          3D

 25 24  0  0  1  0  0  0  0  0999 V2000
    9.6281  -16.9411   17.8259 N   0  0  0  0  0  0  0  0  0  0  0  0
    8.2235  -16.9205   17.9681 C   0  0  0  0  0  0  0  0  0  0  0  0
    7.4829  -17.3051   17.0472 O   0  0  0  0  0  0  0  0  0  0  0  0
    7.6093  -16.4315   19.2364 C   0  0  0  0  0  0  0  0  0  0  0  0
    8.6843  -16.0809   20.2599 C   0  0  2  0  0  0  0  0  0  0  0  0
    9.7191  -17.0891   20.2518 N   0  0  0  0  0  0  0  0  0  0  0  0
    8.0061  -16.1124   21.6009 C   0  0  0  0  0  0  0  0  0  0  0  0
    6.9909  -15.3916   21.7526 O   0  0  0  0  0  0  0  0  0  0  0  0
    8.4583  -16.9068   22.6704 N   0  0  0  0  0  0  0  0  0  0  0  0
    7.8294  -16.8392   24.0245 C   0  0  1  0  0  0  0  0  0  0  0  0
    8.0249  -18.1778   24.6680 C   0  0  0  0  0  0  0  0  0  0  0  0
    7.5856  -18.2653   26.0836 C   0  0  0  0  0  0  0  0  0  0  0  0
    7.9720  -19.6008   26.7166 C   0  0  0  0  0  0  0  0  0  0  0  0
    7.3656  -19.7673   28.0795 C   0  0  0  0  0  0  0  0  0  0  0  0
    7.7598  -21.0743   28.6194 N   0  0  0  0  0  0  0  0  0  0  0  0
    8.4407  -15.6927   24.7608 C   0  0  0  0  0  0  0  0  0  0  0  0
    9.6840  -15.5577   24.6882 O   0  0  0  0  0  0  0  0  0  0  0  0
    6.8581  -12.1114   24.7540 C   0  0  0  0  0  0  0  0  0  0  0  0
    6.9924  -12.5556   26.2030 C   0  0  1  0  0  0  0  0  0  0  0  0
    5.7051  -13.0883   26.5131 O   0  0  0  0  0  0  0  0  0  0  0  0
    7.9921  -13.6643   26.2846 C   0  0  2  0  0  0  0  0  0  0  0  0
    7.6623  -14.7987   25.5002 N   0  0  0  0  0  0  0  0  0  0  0  0
    8.5718  -13.8884   27.6304 C   0  0  0  0  0  0  0  0  0  0  0  0
    9.0150  -12.9066   28.4965 O   0  0  0  0  0  0  0  0  0  0  0  0
    8.6908  -15.0727   28.0884 O   0  0  0  0  0  0  0  0  0  0  0  0
  1  2  1  0
  2  3  2  0
  4  2  1  0
  4  5  1  0
  5  7  1  0
  5  6  1  1
  7  8  2  0
  9 10  1  0
  9  7  1  0
 10 11  1  1
 11 12  1  0
 13 12  1  0
 13 14  1  0
 14 15  1  0
 16 17  2  0
 16 10  1  0
 19 18  1  6
 19 21  1  0
 20 19  1  0
 21 22  1  1
 21 23  1  0
 22 16  1  0
 23 24  1  0
 25 23  2  0
M  END
$$$$
