NKT.pdb
     RDKit          3D

 25 24  0  0  1  0  0  0  0  0999 V2000
    9.6647  -16.5213   14.3907 N   0  0  0  0  0  0  0  0  0  0  0  0
    9.2922  -15.4228   15.1957 C   0  0  0  0  0  0  0  0  0  0  0  0
    9.2596  -14.2714   14.7291 O   0  0  0  0  0  0  0  0  0  0  0  0
    8.9318  -15.6355   16.6274 C   0  0  0  0  0  0  0  0  0  0  0  0
    9.1881  -17.0805   17.0425 C   0  0  2  0  0  0  0  0  0  0  0  0
    8.1528  -17.9364   16.5107 N   0  0  0  0  0  0  0  0  0  0  0  0
    9.0945  -17.1038   18.5424 C   0  0  0  0  0  0  0  0  0  0  0  0
    7.9498  -17.0434   19.0515 O   0  0  0  0  0  0  0  0  0  0  0  0
   10.2217  -17.1914   19.3798 N   0  0  0  0  0  0  0  0  0  0  0  0
   10.0962  -17.4334   20.8493 C   0  0  1  0  0  0  0  0  0  0  0  0
   11.3370  -18.1510   21.2847 C   0  0  0  0  0  0  0  0  0  0  0  0
   11.3714  -18.5343   22.7188 C   0  0  0  0  0  0  0  0  0  0  0  0
   12.7029  -19.1769   23.1031 C   0  0  0  0  0  0  0  0  0  0  0  0
   12.6929  -19.6746   24.5191 C   0  0  0  0  0  0  0  0  0  0  0  0
   13.9835  -20.3113   24.8090 N   0  0  0  0  0  0  0  0  0  0  0  0
    9.8647  -16.1172   21.5158 C   0  0  0  0  0  0  0  0  0  0  0  0
   10.7858  -15.2703   21.4556 O   0  0  0  0  0  0  0  0  0  0  0  0
    7.4797  -13.5263   21.0043 C   0  0  0  0  0  0  0  0  0  0  0  0
    7.1273  -13.9512   22.4222 C   0  0  1  0  0  0  0  0  0  0  0  0
    6.0120  -14.8239   22.2453 O   0  0  0  0  0  0  0  0  0  0  0  0
    8.2595  -14.7446   22.9913 C   0  0  2  0  0  0  0  0  0  0  0  0
    8.6684  -15.8327   22.1790 N   0  0  0  0  0  0  0  0  0  0  0  0
    8.2083  -14.9471   24.4588 C   0  0  0  0  0  0  0  0  0  0  0  0
    8.4285  -16.1401   25.1213 O   0  0  0  0  0  0  0  0  0  0  0  0
    7.9496  -13.9671   25.2328 O   0  0  0  0  0  0  0  0  0  0  0  0
  1  2  1  0
  2  3  2  0
  4  2  1  0
  4  5  1  0
  5  7  1  0
  5  6  1  6
  7  8  2  0
  9 10  1  0
  9  7  1  0
 10 11  1  1
 11 12  1  0
 13 12  1  0
 13 14  1  0
 14 15  1  0
 16 17  2  0
 16 10  1  0
 19 18  1  6
 19 21  1  0
 20 19  1  0
 21 22  1  6
 21 23  1  0
 22 16  1  0
 23 24  1  0
 25 23  2  0
M  END
$$$$
