NKT.pdb
     RDKit          3D

 25 24  0  0  1  0  0  0  0  0999 V2000
    7.0943  -17.6184   15.4204 N   0  0  0  0  0  0  0  0  0  0  0  0
    6.1861  -18.2455   16.3010 C   0  0  0  0  0  0  0  0  0  0  0  0
    5.1560  -18.7928   15.8724 O   0  0  0  0  0  0  0  0  0  0  0  0
    6.4562  -18.2563   17.7679 C   0  0  0  0  0  0  0  0  0  0  0  0
    7.7109  -17.4530   18.0945 C   0  0  2  0  0  0  0  0  0  0  0  0
    8.8613  -18.0595   17.4653 N   0  0  0  0  0  0  0  0  0  0  0  0
    7.8857  -17.5445   19.5845 C   0  0  0  0  0  0  0  0  0  0  0  0
    6.9231  -17.1833   20.3030 O   0  0  0  0  0  0  0  0  0  0  0  0
    9.0655  -18.0133   20.1908 N   0  0  0  0  0  0  0  0  0  0  0  0
    9.2507  -17.9973   21.6738 C   0  0  1  0  0  0  0  0  0  0  0  0
   10.4784  -18.8021   21.9727 C   0  0  0  0  0  0  0  0  0  0  0  0
   10.3115  -20.2725   21.8518 C   0  0  0  0  0  0  0  0  0  0  0  0
   11.6358  -21.0113   22.0359 C   0  0  0  0  0  0  0  0  0  0  0  0
   11.4702  -22.4960   21.8890 C   0  0  0  0  0  0  0  0  0  0  0  0
   12.7784  -23.1400   22.0596 N   0  0  0  0  0  0  0  0  0  0  0  0
    9.3102  -16.5723   22.1163 C   0  0  0  0  0  0  0  0  0  0  0  0
    9.4242  -15.6966   21.2277 O   0  0  0  0  0  0  0  0  0  0  0  0
    8.1254  -14.2199   21.9787 C   0  0  0  0  0  0  0  0  0  0  0  0
    8.0207  -14.1018   23.4920 C   0  0  1  0  0  0  0  0  0  0  0  0
    6.7330  -14.6433   23.7841 O   0  0  0  0  0  0  0  0  0  0  0  0
    9.0537  -14.9784   24.1242 C   0  0  2  0  0  0  0  0  0  0  0  0
    9.2379  -16.2213   23.4667 N   0  0  0  0  0  0  0  0  0  0  0  0
    9.0687  -14.9616   25.6064 C   0  0  0  0  0  0  0  0  0  0  0  0
    9.1342  -13.8349   26.4043 O   0  0  0  0  0  0  0  0  0  0  0  0
    9.0105  -16.0547   26.2608 O   0  0  0  0  0  0  0  0  0  0  0  0
  1  2  1  0
  2  3  2  0
  4  2  1  0
  4  5  1  0
  5  7  1  0
  5  6  1  6
  7  8  2  0
  9 10  1  0
  9  7  1  0
 10 11  1  6
 11 12  1  0
 13 12  1  0
 13 14  1  0
 14 15  1  0
 16 17  2  0
 16 10  1  0
 19 18  1  6
 19 21  1  0
 20 19  1  0
 21 22  1  1
 21 23  1  0
 22 16  1  0
 23 24  1  0
 25 23  2  0
M  END
$$$$
