NKT.pdb
     RDKit          3D

 25 24  0  0  1  0  0  0  0  0999 V2000
    8.6844  -11.7569   18.8258 N   0  0  0  0  0  0  0  0  0  0  0  0
    8.5307  -13.1600   18.7897 C   0  0  0  0  0  0  0  0  0  0  0  0
    8.9581  -13.8246   17.8304 O   0  0  0  0  0  0  0  0  0  0  0  0
    7.8467  -13.8646   19.9124 C   0  0  0  0  0  0  0  0  0  0  0  0
    8.3603  -15.2942   20.0489 C   0  0  2  0  0  0  0  0  0  0  0  0
    7.6043  -16.1733   19.1870 N   0  0  0  0  0  0  0  0  0  0  0  0
    8.1004  -15.6939   21.4744 C   0  0  0  0  0  0  0  0  0  0  0  0
    6.9112  -15.9180   21.8045 O   0  0  0  0  0  0  0  0  0  0  0  0
    9.1222  -15.8252   22.4325 N   0  0  0  0  0  0  0  0  0  0  0  0
    8.8411  -16.2776   23.8289 C   0  0  1  0  0  0  0  0  0  0  0  0
    9.6923  -17.4845   24.0803 C   0  0  0  0  0  0  0  0  0  0  0  0
    9.6208  -18.0281   25.4601 C   0  0  0  0  0  0  0  0  0  0  0  0
   10.5908  -19.1906   25.6634 C   0  0  0  0  0  0  0  0  0  0  0  0
   10.5607  -19.7007   27.0748 C   0  0  0  0  0  0  0  0  0  0  0  0
   11.5978  -20.7278   27.2319 N   0  0  0  0  0  0  0  0  0  0  0  0
    9.0950  -15.1273   24.7469 C   0  0  0  0  0  0  0  0  0  0  0  0
   10.2545  -14.6536   24.7710 O   0  0  0  0  0  0  0  0  0  0  0  0
    7.0135  -11.9234   25.1292 C   0  0  0  0  0  0  0  0  0  0  0  0
    6.9569  -12.6309   26.4751 C   0  0  1  0  0  0  0  0  0  0  0  0
    5.7354  -13.3668   26.4181 O   0  0  0  0  0  0  0  0  0  0  0  0
    8.0883  -13.6041   26.5646 C   0  0  2  0  0  0  0  0  0  0  0  0
    8.0827  -14.5920   25.5473 N   0  0  0  0  0  0  0  0  0  0  0  0
    8.4520  -14.0184   27.9407 C   0  0  0  0  0  0  0  0  0  0  0  0
    8.6655  -15.3156   28.3676 O   0  0  0  0  0  0  0  0  0  0  0  0
    8.6030  -13.1426   28.8553 O   0  0  0  0  0  0  0  0  0  0  0  0
  1  2  1  0
  2  3  2  0
  4  2  1  0
  4  5  1  0
  5  7  1  0
  5  6  1  6
  7  8  2  0
  9 10  1  0
  9  7  1  0
 10 11  1  1
 11 12  1  0
 13 12  1  0
 13 14  1  0
 14 15  1  0
 16 17  2  0
 16 10  1  0
 19 18  1  6
 19 21  1  0
 20 19  1  0
 21 22  1  6
 21 23  1  0
 22 16  1  0
 23 24  1  0
 25 23  2  0
M  END
$$$$
