NKT.pdb
     RDKit          3D

 25 24  0  0  1  0  0  0  0  0999 V2000
    8.1218  -12.1724   18.0472 N   0  0  0  0  0  0  0  0  0  0  0  0
    8.2865  -13.4855   18.5393 C   0  0  0  0  0  0  0  0  0  0  0  0
    9.0335  -14.2943   17.9628 O   0  0  0  0  0  0  0  0  0  0  0  0
    7.5581  -13.9190   19.7666 C   0  0  0  0  0  0  0  0  0  0  0  0
    7.8831  -15.3699   20.1065 C   0  0  2  0  0  0  0  0  0  0  0  0
    7.1163  -16.2568   19.2624 N   0  0  0  0  0  0  0  0  0  0  0  0
    7.4398  -15.5721   21.5283 C   0  0  0  0  0  0  0  0  0  0  0  0
    6.2842  -15.1915   21.8334 O   0  0  0  0  0  0  0  0  0  0  0  0
    8.2567  -16.1629   22.5096 N   0  0  0  0  0  0  0  0  0  0  0  0
    7.7565  -16.4398   23.8905 C   0  0  1  0  0  0  0  0  0  0  0  0
    7.9777  -17.8977   24.1546 C   0  0  0  0  0  0  0  0  0  0  0  0
    7.5799  -18.3591   25.5087 C   0  0  0  0  0  0  0  0  0  0  0  0
    7.7921  -19.8619   25.6817 C   0  0  0  0  0  0  0  0  0  0  0  0
    7.4310  -20.3197   27.0648 C   0  0  0  0  0  0  0  0  0  0  0  0
    7.7733  -21.7408   27.2004 N   0  0  0  0  0  0  0  0  0  0  0  0
    8.4604  -15.5170   24.8303 C   0  0  0  0  0  0  0  0  0  0  0  0
    9.7029  -15.4104   24.7115 O   0  0  0  0  0  0  0  0  0  0  0  0
    7.0438  -12.0343   25.6824 C   0  0  0  0  0  0  0  0  0  0  0  0
    7.2736  -12.7297   27.0161 C   0  0  1  0  0  0  0  0  0  0  0  0
    5.9835  -13.2335   27.3603 O   0  0  0  0  0  0  0  0  0  0  0  0
    8.1924  -13.8911   26.8108 C   0  0  2  0  0  0  0  0  0  0  0  0
    7.7664  -14.7941   25.8038 N   0  0  0  0  0  0  0  0  0  0  0  0
    8.7812  -14.4518   28.0503 C   0  0  0  0  0  0  0  0  0  0  0  0
    9.3543  -13.7252   29.0770 O   0  0  0  0  0  0  0  0  0  0  0  0
    8.7814  -15.7118   28.2472 O   0  0  0  0  0  0  0  0  0  0  0  0
  1  2  1  0
  2  3  2  0
  4  2  1  0
  4  5  1  0
  5  7  1  0
  5  6  1  6
  7  8  2  0
  9 10  1  0
  9  7  1  0
 10 11  1  1
 11 12  1  0
 13 12  1  0
 13 14  1  0
 14 15  1  0
 16 17  2  0
 16 10  1  0
 19 18  1  6
 19 21  1  0
 20 19  1  0
 21 22  1  1
 21 23  1  0
 22 16  1  0
 23 24  1  0
 25 23  2  0
M  END
$$$$
