NKT.pdb
     RDKit          3D

 25 24  0  0  1  0  0  0  0  0999 V2000
    8.1502  -12.4182   17.8749 N   0  0  0  0  0  0  0  0  0  0  0  0
    7.6893  -13.7288   18.1267 C   0  0  0  0  0  0  0  0  0  0  0  0
    7.6694  -14.5830   17.2242 O   0  0  0  0  0  0  0  0  0  0  0  0
    7.2166  -14.1041   19.4908 C   0  0  0  0  0  0  0  0  0  0  0  0
    8.3739  -14.6091   20.3462 C   0  0  2  0  0  0  0  0  0  0  0  0
    8.9123  -15.8236   19.7783 N   0  0  0  0  0  0  0  0  0  0  0  0
    7.7842  -14.9379   21.6891 C   0  0  0  0  0  0  0  0  0  0  0  0
    6.9451  -14.1358   22.1643 O   0  0  0  0  0  0  0  0  0  0  0  0
    8.1307  -16.0907   22.4173 N   0  0  0  0  0  0  0  0  0  0  0  0
    7.6012  -16.3447   23.7917 C   0  0  1  0  0  0  0  0  0  0  0  0
    7.7254  -17.8157   24.0463 C   0  0  0  0  0  0  0  0  0  0  0  0
    7.3754  -18.2474   25.4231 C   0  0  0  0  0  0  0  0  0  0  0  0
    7.4592  -19.7645   25.5812 C   0  0  0  0  0  0  0  0  0  0  0  0
    7.0534  -20.2043   26.9578 C   0  0  0  0  0  0  0  0  0  0  0  0
    7.2719  -21.6509   27.0791 N   0  0  0  0  0  0  0  0  0  0  0  0
    8.3548  -15.4761   24.7445 C   0  0  0  0  0  0  0  0  0  0  0  0
    9.6023  -15.4448   24.6334 O   0  0  0  0  0  0  0  0  0  0  0  0
    6.7082  -12.0613   25.8296 C   0  0  0  0  0  0  0  0  0  0  0  0
    7.1919  -12.7617   27.0907 C   0  0  1  0  0  0  0  0  0  0  0  0
    6.0167  -13.3935   27.5973 O   0  0  0  0  0  0  0  0  0  0  0  0
    8.1726  -13.8256   26.7144 C   0  0  2  0  0  0  0  0  0  0  0  0
    7.7008  -14.7216   25.7217 N   0  0  0  0  0  0  0  0  0  0  0  0
    8.9590  -14.3809   27.8417 C   0  0  0  0  0  0  0  0  0  0  0  0
    9.5899  -13.6480   28.8293 O   0  0  0  0  0  0  0  0  0  0  0  0
    9.0947  -15.6426   27.9689 O   0  0  0  0  0  0  0  0  0  0  0  0
  1  2  1  0
  2  3  2  0
  4  2  1  0
  4  5  1  0
  5  7  1  0
  5  6  1  6
  7  8  2  0
  9 10  1  0
  9  7  1  0
 10 11  1  1
 11 12  1  0
 13 12  1  0
 13 14  1  0
 14 15  1  0
 16 17  2  0
 16 10  1  0
 19 18  1  6
 19 21  1  0
 20 19  1  0
 21 22  1  1
 21 23  1  0
 22 16  1  0
 23 24  1  0
 25 23  2  0
M  END
$$$$
