NKT.pdb
     RDKit          3D

 25 24  0  0  1  0  0  0  0  0999 V2000
    8.0374  -12.4584   16.7482 N   0  0  0  0  0  0  0  0  0  0  0  0
    7.8662  -13.7780   17.2204 C   0  0  0  0  0  0  0  0  0  0  0  0
    8.0547  -14.7530   16.4732 O   0  0  0  0  0  0  0  0  0  0  0  0
    7.4527  -14.0167   18.6335 C   0  0  0  0  0  0  0  0  0  0  0  0
    8.6689  -14.0775   19.5519 C   0  0  2  0  0  0  0  0  0  0  0  0
    9.7110  -14.8670   18.9369 N   0  0  0  0  0  0  0  0  0  0  0  0
    8.2135  -14.7859   20.7968 C   0  0  0  0  0  0  0  0  0  0  0  0
    7.2253  -14.3093   21.4047 O   0  0  0  0  0  0  0  0  0  0  0  0
    8.8414  -15.9425   21.2942 N   0  0  0  0  0  0  0  0  0  0  0  0
    8.5319  -16.4867   22.6513 C   0  0  1  0  0  0  0  0  0  0  0  0
    9.0785  -17.8806   22.7017 C   0  0  0  0  0  0  0  0  0  0  0  0
    8.9426  -18.5625   24.0136 C   0  0  0  0  0  0  0  0  0  0  0  0
    9.5841  -19.9488   24.0023 C   0  0  0  0  0  0  0  0  0  0  0  0
    9.5291  -20.5989   25.3540 C   0  0  0  0  0  0  0  0  0  0  0  0
   10.1292  -21.9357   25.2641 N   0  0  0  0  0  0  0  0  0  0  0  0
    9.1029  -15.5508   23.6654 C   0  0  0  0  0  0  0  0  0  0  0  0
   10.2796  -15.1583   23.4900 O   0  0  0  0  0  0  0  0  0  0  0  0
    6.4274  -13.2191   26.1168 C   0  0  0  0  0  0  0  0  0  0  0  0
    7.8847  -12.9462   25.7751 C   0  0  1  0  0  0  0  0  0  0  0  0
    8.3309  -12.1118   26.8435 O   0  0  0  0  0  0  0  0  0  0  0  0
    8.6493  -14.2298   25.8303 C   0  0  2  0  0  0  0  0  0  0  0  0
    8.3584  -15.1218   24.7670 N   0  0  0  0  0  0  0  0  0  0  0  0
    8.8290  -14.7949   27.1888 C   0  0  0  0  0  0  0  0  0  0  0  0
    9.4412  -14.1640   28.2555 O   0  0  0  0  0  0  0  0  0  0  0  0
    8.3934  -15.9623   27.4606 O   0  0  0  0  0  0  0  0  0  0  0  0
  1  2  1  0
  2  3  2  0
  4  2  1  0
  4  5  1  0
  5  7  1  0
  5  6  1  6
  7  8  2  0
  9 10  1  0
  9  7  1  0
 10 11  1  6
 11 12  1  0
 13 12  1  0
 13 14  1  0
 14 15  1  0
 16 17  2  0
 16 10  1  0
 19 18  1  1
 19 21  1  0
 20 19  1  0
 21 22  1  6
 21 23  1  0
 22 16  1  0
 23 24  1  0
 25 23  2  0
M  END
$$$$
