NKT.pdb
     RDKit          3D

 25 24  0  0  1  0  0  0  0  0999 V2000
   15.1856  -18.2835   13.9268 N   0  0  0  0  0  0  0  0  0  0  0  0
   16.0148  -17.6032   14.8449 C   0  0  0  0  0  0  0  0  0  0  0  0
   17.2452  -17.5516   14.6773 O   0  0  0  0  0  0  0  0  0  0  0  0
   15.4168  -16.9343   16.0365 C   0  0  0  0  0  0  0  0  0  0  0  0
   13.9096  -17.1621   16.0870 C   0  0  2  0  0  0  0  0  0  0  0  0
   13.2790  -16.5383   14.9466 N   0  0  0  0  0  0  0  0  0  0  0  0
   13.4268  -16.4688   17.3302 C   0  0  0  0  0  0  0  0  0  0  0  0
   14.2746  -16.2227   18.2212 O   0  0  0  0  0  0  0  0  0  0  0  0
   12.0857  -16.0915   17.5262 N   0  0  0  0  0  0  0  0  0  0  0  0
   11.6480  -15.3350   18.7385 C   0  0  1  0  0  0  0  0  0  0  0  0
   10.4028  -14.5898   18.3665 C   0  0  0  0  0  0  0  0  0  0  0  0
    9.7506  -13.8584   19.4819 C   0  0  0  0  0  0  0  0  0  0  0  0
    8.5355  -13.0640   19.0065 C   0  0  0  0  0  0  0  0  0  0  0  0
    7.8200  -12.4037   20.1489 C   0  0  0  0  0  0  0  0  0  0  0  0
    6.6642  -11.6663   19.6242 N   0  0  0  0  0  0  0  0  0  0  0  0
   11.4860  -16.3103   19.8578 C   0  0  0  0  0  0  0  0  0  0  0  0
   10.7518  -17.3048   19.6546 O   0  0  0  0  0  0  0  0  0  0  0  0
   13.8968  -18.1958   21.5016 C   0  0  0  0  0  0  0  0  0  0  0  0
   13.2937  -17.5195   22.7238 C   0  0  1  0  0  0  0  0  0  0  0  0
   14.2657  -16.5369   23.0794 O   0  0  0  0  0  0  0  0  0  0  0  0
   12.0374  -16.8147   22.3234 C   0  0  2  0  0  0  0  0  0  0  0  0
   12.1286  -16.1297   21.0851 N   0  0  0  0  0  0  0  0  0  0  0  0
   11.3045  -16.1601   23.4332 C   0  0  0  0  0  0  0  0  0  0  0  0
   10.8417  -14.8577   23.4429 O   0  0  0  0  0  0  0  0  0  0  0  0
   11.0410  -16.8093   24.4988 O   0  0  0  0  0  0  0  0  0  0  0  0
  1  2  1  0
  2  3  2  0
  4  2  1  0
  4  5  1  0
  5  7  1  0
  5  6  1  6
  7  8  2  0
  9 10  1  0
  9  7  1  0
 10 11  1  6
 11 12  1  0
 13 12  1  0
 13 14  1  0
 14 15  1  0
 16 17  2  0
 16 10  1  0
 19 18  1  6
 19 21  1  0
 20 19  1  0
 21 22  1  6
 21 23  1  0
 22 16  1  0
 23 24  1  0
 25 23  2  0
M  END
$$$$
