NKT.pdb
     RDKit          3D

 25 24  0  0  1  0  0  0  0  0999 V2000
    7.8868  -11.9126   18.8147 N   0  0  0  0  0  0  0  0  0  0  0  0
    8.0007  -13.2583   19.2264 C   0  0  0  0  0  0  0  0  0  0  0  0
    8.3474  -14.1436   18.4260 O   0  0  0  0  0  0  0  0  0  0  0  0
    7.7024  -13.6341   20.6387 C   0  0  0  0  0  0  0  0  0  0  0  0
    8.5163  -14.8536   21.0591 C   0  0  2  0  0  0  0  0  0  0  0  0
    8.1794  -15.9824   20.2227 N   0  0  0  0  0  0  0  0  0  0  0  0
    8.0949  -15.1680   22.4672 C   0  0  0  0  0  0  0  0  0  0  0  0
    7.4688  -14.2809   23.0952 O   0  0  0  0  0  0  0  0  0  0  0  0
    8.3699  -16.3974   23.0935 N   0  0  0  0  0  0  0  0  0  0  0  0
    7.9678  -16.6703   24.5069 C   0  0  1  0  0  0  0  0  0  0  0  0
    7.5301  -18.1015   24.5714 C   0  0  0  0  0  0  0  0  0  0  0  0
    6.4039  -18.4561   23.6711 C   0  0  0  0  0  0  0  0  0  0  0  0
    6.1587  -19.9634   23.6348 C   0  0  0  0  0  0  0  0  0  0  0  0
    5.0454  -20.3240   22.6948 C   0  0  0  0  0  0  0  0  0  0  0  0
    4.8637  -21.7807   22.7089 N   0  0  0  0  0  0  0  0  0  0  0  0
    9.1217  -16.3256   25.3900 C   0  0  0  0  0  0  0  0  0  0  0  0
   10.2723  -16.4490   24.9100 O   0  0  0  0  0  0  0  0  0  0  0  0
    9.3510  -13.1768   27.2968 C   0  0  0  0  0  0  0  0  0  0  0  0
    9.5713  -14.2220   28.3804 C   0  0  1  0  0  0  0  0  0  0  0  0
    8.3086  -14.2931   29.0419 O   0  0  0  0  0  0  0  0  0  0  0  0
    9.8404  -15.5447   27.7376 C   0  0  2  0  0  0  0  0  0  0  0  0
    8.9332  -15.8782   26.7000 N   0  0  0  0  0  0  0  0  0  0  0  0
   10.2669  -16.6183   28.6664 C   0  0  0  0  0  0  0  0  0  0  0  0
   11.2244  -16.5015   29.6564 O   0  0  0  0  0  0  0  0  0  0  0  0
    9.7324  -17.7743   28.5992 O   0  0  0  0  0  0  0  0  0  0  0  0
  1  2  1  0
  2  3  2  0
  4  2  1  0
  4  5  1  0
  5  7  1  0
  5  6  1  6
  7  8  2  0
  9 10  1  0
  9  7  1  0
 10 11  1  6
 11 12  1  0
 13 12  1  0
 13 14  1  0
 14 15  1  0
 16 17  2  0
 16 10  1  0
 19 18  1  6
 19 21  1  0
 20 19  1  0
 21 22  1  1
 21 23  1  0
 22 16  1  0
 23 24  1  0
 25 23  2  0
M  END
$$$$
