NKT.pdb
     RDKit          3D

 25 24  0  0  1  0  0  0  0  0999 V2000
    8.8526  -17.6585   17.7809 N   0  0  0  0  0  0  0  0  0  0  0  0
    9.8032  -16.6312   17.9664 C   0  0  0  0  0  0  0  0  0  0  0  0
   10.5103  -16.2378   17.0232 O   0  0  0  0  0  0  0  0  0  0  0  0
    9.9702  -16.0029   19.3089 C   0  0  0  0  0  0  0  0  0  0  0  0
    9.1126  -16.7136   20.3509 C   0  0  2  0  0  0  0  0  0  0  0  0
    7.7138  -16.5650   20.0216 N   0  0  0  0  0  0  0  0  0  0  0  0
    9.3685  -16.0052   21.6516 C   0  0  0  0  0  0  0  0  0  0  0  0
   10.5633  -15.8482   21.9994 O   0  0  0  0  0  0  0  0  0  0  0  0
    8.3371  -15.5193   22.4759 N   0  0  0  0  0  0  0  0  0  0  0  0
    8.6081  -14.9765   23.8418 C   0  0  1  0  0  0  0  0  0  0  0  0
    7.5002  -14.0210   24.1636 C   0  0  0  0  0  0  0  0  0  0  0  0
    7.5411  -13.4485   25.5329 C   0  0  0  0  0  0  0  0  0  0  0  0
    6.4128  -12.4447   25.7628 C   0  0  0  0  0  0  0  0  0  0  0  0
    6.4207  -11.9094   27.1651 C   0  0  0  0  0  0  0  0  0  0  0  0
    5.2880  -10.9903   27.3301 N   0  0  0  0  0  0  0  0  0  0  0  0
    8.7348  -16.1310   24.7807 C   0  0  0  0  0  0  0  0  0  0  0  0
    7.7626  -16.9169   24.8629 O   0  0  0  0  0  0  0  0  0  0  0  0
   10.6481  -18.7766   24.4937 C   0  0  0  0  0  0  0  0  0  0  0  0
   11.1588  -18.3978   25.8759 C   0  0  1  0  0  0  0  0  0  0  0  0
   12.4328  -17.8098   25.6152 O   0  0  0  0  0  0  0  0  0  0  0  0
   10.2666  -17.3481   26.4569 C   0  0  2  0  0  0  0  0  0  0  0  0
    9.8909  -16.3357   25.5378 N   0  0  0  0  0  0  0  0  0  0  0  0
   10.5925  -16.9466   27.8461 C   0  0  0  0  0  0  0  0  0  0  0  0
   10.7760  -17.8022   28.9160 O   0  0  0  0  0  0  0  0  0  0  0  0
   10.7366  -15.7141   28.1404 O   0  0  0  0  0  0  0  0  0  0  0  0
  1  2  1  0
  2  3  2  0
  4  2  1  0
  4  5  1  0
  5  7  1  0
  5  6  1  6
  7  8  2  0
  9 10  1  0
  9  7  1  0
 10 11  1  1
 11 12  1  0
 13 12  1  0
 13 14  1  0
 14 15  1  0
 16 17  2  0
 16 10  1  0
 19 18  1  6
 19 21  1  0
 20 19  1  0
 21 22  1  6
 21 23  1  0
 22 16  1  0
 23 24  1  0
 25 23  2  0
M  END
$$$$
