NKT.pdb
     RDKit          3D

 25 24  0  0  1  0  0  0  0  0999 V2000
   13.7699  -15.0206   19.9712 N   0  0  0  0  0  0  0  0  0  0  0  0
   12.4349  -14.7390   19.6080 C   0  0  0  0  0  0  0  0  0  0  0  0
   12.1345  -14.4817   18.4299 O   0  0  0  0  0  0  0  0  0  0  0  0
   11.3624  -14.7466   20.6447 C   0  0  0  0  0  0  0  0  0  0  0  0
   10.8120  -16.1548   20.8456 C   0  0  2  0  0  0  0  0  0  0  0  0
    9.9090  -16.4886   19.7684 N   0  0  0  0  0  0  0  0  0  0  0  0
   10.0245  -16.1135   22.1251 C   0  0  0  0  0  0  0  0  0  0  0  0
    8.9469  -15.4716   22.1204 O   0  0  0  0  0  0  0  0  0  0  0  0
   10.4425  -16.7577   23.3039 N   0  0  0  0  0  0  0  0  0  0  0  0
    9.5238  -16.9479   24.4674 C   0  0  1  0  0  0  0  0  0  0  0  0
    8.9493  -18.3268   24.3538 C   0  0  0  0  0  0  0  0  0  0  0  0
    8.1003  -18.7505   25.4958 C   0  0  0  0  0  0  0  0  0  0  0  0
    7.6782  -20.2138   25.3773 C   0  0  0  0  0  0  0  0  0  0  0  0
    6.6979  -20.5989   26.4468 C   0  0  0  0  0  0  0  0  0  0  0  0
    6.2076  -21.9560   26.1768 N   0  0  0  0  0  0  0  0  0  0  0  0
   10.3016  -16.6921   25.7164 C   0  0  0  0  0  0  0  0  0  0  0  0
   11.4479  -17.1915   25.7945 O   0  0  0  0  0  0  0  0  0  0  0  0
    9.9369  -13.2183   27.6392 C   0  0  0  0  0  0  0  0  0  0  0  0
    9.7113  -14.3510   28.6297 C   0  0  1  0  0  0  0  0  0  0  0  0
    8.2902  -14.4663   28.6920 O   0  0  0  0  0  0  0  0  0  0  0  0
   10.2613  -15.6182   28.0579 C   0  0  2  0  0  0  0  0  0  0  0  0
    9.7795  -15.9233   26.7595 N   0  0  0  0  0  0  0  0  0  0  0  0
   10.4133  -16.7295   29.0271 C   0  0  0  0  0  0  0  0  0  0  0  0
   10.9961  -16.6415   30.2774 O   0  0  0  0  0  0  0  0  0  0  0  0
    9.9797  -17.8942   28.7407 O   0  0  0  0  0  0  0  0  0  0  0  0
  1  2  1  0
  2  3  2  0
  4  2  1  0
  4  5  1  0
  5  7  1  0
  5  6  1  6
  7  8  2  0
  9 10  1  0
  9  7  1  0
 10 11  1  1
 11 12  1  0
 13 12  1  0
 13 14  1  0
 14 15  1  0
 16 17  2  0
 16 10  1  0
 19 18  1  6
 19 21  1  0
 20 19  1  0
 21 22  1  6
 21 23  1  0
 22 16  1  0
 23 24  1  0
 25 23  2  0
M  END
$$$$
