NKT.pdb
     RDKit          3D

 25 24  0  0  1  0  0  0  0  0999 V2000
    8.9285  -12.4361   18.1041 N   0  0  0  0  0  0  0  0  0  0  0  0
    7.9338  -13.4372   18.1508 C   0  0  0  0  0  0  0  0  0  0  0  0
    7.5074  -13.9625   17.1083 O   0  0  0  0  0  0  0  0  0  0  0  0
    7.3795  -13.8773   19.4637 C   0  0  0  0  0  0  0  0  0  0  0  0
    8.1939  -15.0325   20.0367 C   0  0  2  0  0  0  0  0  0  0  0  0
    7.9512  -16.2333   19.2710 N   0  0  0  0  0  0  0  0  0  0  0  0
    7.6789  -15.2511   21.4318 C   0  0  0  0  0  0  0  0  0  0  0  0
    6.5639  -14.7546   21.7210 O   0  0  0  0  0  0  0  0  0  0  0  0
    8.3868  -15.9795   22.4052 N   0  0  0  0  0  0  0  0  0  0  0  0
    7.8154  -16.2486   23.7598 C   0  0  1  0  0  0  0  0  0  0  0  0
    8.0520  -17.6977   24.0573 C   0  0  0  0  0  0  0  0  0  0  0  0
    7.7047  -18.1212   25.4373 C   0  0  0  0  0  0  0  0  0  0  0  0
    8.0961  -19.5741   25.7009 C   0  0  0  0  0  0  0  0  0  0  0  0
    7.6425  -20.0362   27.0551 C   0  0  0  0  0  0  0  0  0  0  0  0
    8.1226  -21.4057   27.2762 N   0  0  0  0  0  0  0  0  0  0  0  0
    8.4456  -15.2981   24.7239 C   0  0  0  0  0  0  0  0  0  0  0  0
    9.6821  -15.1191   24.6326 O   0  0  0  0  0  0  0  0  0  0  0  0
    7.1690  -11.7692   25.6041 C   0  0  0  0  0  0  0  0  0  0  0  0
    7.1503  -12.5719   26.8965 C   0  0  1  0  0  0  0  0  0  0  0  0
    5.8044  -13.0386   26.9841 O   0  0  0  0  0  0  0  0  0  0  0  0
    8.0502  -13.7568   26.7502 C   0  0  2  0  0  0  0  0  0  0  0  0
    7.6913  -14.6275   25.6900 N   0  0  0  0  0  0  0  0  0  0  0  0
    8.5079  -14.3581   28.0254 C   0  0  0  0  0  0  0  0  0  0  0  0
    8.9820  -13.6666   29.1243 O   0  0  0  0  0  0  0  0  0  0  0  0
    8.4781  -15.6230   28.1852 O   0  0  0  0  0  0  0  0  0  0  0  0
  1  2  1  0
  2  3  2  0
  4  2  1  0
  4  5  1  0
  5  7  1  0
  5  6  1  6
  7  8  2  0
  9 10  1  0
  9  7  1  0
 10 11  1  1
 11 12  1  0
 13 12  1  0
 13 14  1  0
 14 15  1  0
 16 17  2  0
 16 10  1  0
 19 18  1  6
 19 21  1  0
 20 19  1  0
 21 22  1  1
 21 23  1  0
 22 16  1  0
 23 24  1  0
 25 23  2  0
M  END
$$$$
