NKT.pdb
     RDKit          3D

 25 24  0  0  1  0  0  0  0  0999 V2000
    8.5696  -12.8590   16.8751 N   0  0  0  0  0  0  0  0  0  0  0  0
    8.1079  -13.7824   17.8383 C   0  0  0  0  0  0  0  0  0  0  0  0
    7.4688  -14.7928   17.4990 O   0  0  0  0  0  0  0  0  0  0  0  0
    8.3845  -13.5515   19.2857 C   0  0  0  0  0  0  0  0  0  0  0  0
    8.7654  -14.8550   19.9799 C   0  0  2  0  0  0  0  0  0  0  0  0
    7.6530  -15.7761   19.9422 N   0  0  0  0  0  0  0  0  0  0  0  0
    9.0329  -14.4977   21.4151 C   0  0  0  0  0  0  0  0  0  0  0  0
   10.1289  -13.9480   21.6796 O   0  0  0  0  0  0  0  0  0  0  0  0
    8.1161  -14.7503   22.4520 N   0  0  0  0  0  0  0  0  0  0  0  0
    8.3723  -14.3088   23.8567 C   0  0  1  0  0  0  0  0  0  0  0  0
    7.1367  -13.6059   24.3293 C   0  0  0  0  0  0  0  0  0  0  0  0
    7.2205  -13.0391   25.6991 C   0  0  0  0  0  0  0  0  0  0  0  0
    5.9893  -12.2033   26.0442 C   0  0  0  0  0  0  0  0  0  0  0  0
    6.1046  -11.5767   27.4033 C   0  0  0  0  0  0  0  0  0  0  0  0
    4.9022  -10.7751   27.6614 N   0  0  0  0  0  0  0  0  0  0  0  0
    8.7561  -15.5106   24.6557 C   0  0  0  0  0  0  0  0  0  0  0  0
    8.3021  -15.5983   25.8200 O   0  0  0  0  0  0  0  0  0  0  0  0
    8.9346  -19.0135   22.9333 C   0  0  0  0  0  0  0  0  0  0  0  0
   10.2524  -18.8099   23.6662 C   0  0  1  0  0  0  0  0  0  0  0  0
   11.1391  -18.3540   22.6451 O   0  0  0  0  0  0  0  0  0  0  0  0
   10.0898  -17.7148   24.6710 C   0  0  2  0  0  0  0  0  0  0  0  0
    9.5854  -16.5048   24.1305 N   0  0  0  0  0  0  0  0  0  0  0  0
   11.1647  -17.6326   25.6885 C   0  0  0  0  0  0  0  0  0  0  0  0
   11.6483  -18.6838   26.4445 O   0  0  0  0  0  0  0  0  0  0  0  0
   11.7384  -16.5188   25.9267 O   0  0  0  0  0  0  0  0  0  0  0  0
  1  2  1  0
  2  3  2  0
  4  2  1  0
  4  5  1  0
  5  7  1  0
  5  6  1  1
  7  8  2  0
  9 10  1  0
  9  7  1  0
 10 11  1  1
 11 12  1  0
 13 12  1  0
 13 14  1  0
 14 15  1  0
 16 17  2  0
 16 10  1  0
 19 18  1  6
 19 21  1  0
 20 19  1  0
 21 22  1  6
 21 23  1  0
 22 16  1  0
 23 24  1  0
 25 23  2  0
M  END
$$$$
