PSR.pdb
     RDKit          3D

 25 25  0  0  1  0  0  0  0  0999 V2000
   26.4162  -19.2842  -16.0911 N   0  0  0  0  0  0  0  0  0  0  0  0
   27.6978  -18.8324  -16.6497 C   0  0  0  0  0  0  0  0  0  0  0  0
   28.7157  -19.3304  -15.6281 C   0  0  0  0  0  0  0  0  0  0  0  0
   28.0039  -20.3833  -14.8247 C   0  0  0  0  0  0  0  0  0  0  0  0
   26.7344  -20.6037  -15.6405 C   0  0  1  0  0  0  0  0  0  0  0  0
   25.7371  -21.1830  -14.7058 C   0  0  0  0  0  0  0  0  0  0  0  0
   26.0056  -22.2927  -14.2029 O   0  0  0  0  0  0  0  0  0  0  0  0
   22.4331  -20.6279  -11.3451 O   0  0  0  0  0  0  0  0  0  0  0  0
   23.3746  -20.1253  -12.2351 C   0  0  0  0  0  0  0  0  0  0  0  0
   23.5868  -21.0379  -13.4202 C   0  0  2  0  0  0  0  0  0  0  0  0
   24.5216  -20.5198  -14.3825 N   0  0  0  0  0  0  0  0  0  0  0  0
   22.2912  -21.3344  -14.1132 C   0  0  0  0  0  0  0  0  0  0  0  0
   21.7293  -20.4903  -14.8658 O   0  0  0  0  0  0  0  0  0  0  0  0
   16.4765  -25.3037  -16.9076 N   0  0  0  0  0  0  0  0  0  0  0  0
   17.2272  -26.5289  -17.0486 C   0  0  0  0  0  0  0  0  0  0  0  0
   17.1342  -27.2517  -18.1053 N   0  0  0  0  0  0  0  0  0  0  0  0
   18.0964  -26.9688  -16.0067 N   0  0  0  0  0  0  0  0  0  0  0  0
   18.3224  -26.2144  -14.8084 C   0  0  0  0  0  0  0  0  0  0  0  0
   18.7178  -24.8012  -14.9656 C   0  0  0  0  0  0  0  0  0  0  0  0
   19.9734  -24.3242  -14.3649 C   0  0  0  0  0  0  0  0  0  0  0  0
   20.3396  -22.8959  -14.5174 C   0  0  2  0  0  0  0  0  0  0  0  0
   21.6489  -22.6000  -13.9368 N   0  0  0  0  0  0  0  0  0  0  0  0
   19.3283  -21.9269  -14.0628 C   0  0  0  0  0  0  0  0  0  0  0  0
   19.2123  -21.4975  -12.8930 O   0  0  0  0  0  0  0  0  0  0  0  0
   18.4115  -21.4350  -15.0072 O   0  0  0  0  0  0  0  0  0  0  0  0
  1  2  1  0
  2  3  1  0
  4  3  1  0
  5  4  1  0
  5  1  1  0
  5  6  1  1
  6 11  1  0
  6  7  2  0
 10  9  1  1
  9  8  1  0
 10 12  1  0
 11 10  1  0
 12 13  2  0
 15 16  2  0
 15 14  1  0
 17 15  1  0
 18 17  1  0
 19 18  1  0
 20 19  1  0
 21 20  1  1
 21 23  1  0
 22 12  1  0
 22 21  1  0
 23 25  1  0
 24 23  2  0
M  END
$$$$
