PSR.pdb
     RDKit          3D

 25 25  0  0  1  0  0  0  0  0999 V2000
   20.9739  -20.3260   -9.6155 N   0  0  0  0  0  0  0  0  0  0  0  0
   21.0874  -20.3429   -8.1508 C   0  0  0  0  0  0  0  0  0  0  0  0
   22.2823  -21.2595   -7.9065 C   0  0  0  0  0  0  0  0  0  0  0  0
   23.0141  -21.3322   -9.2179 C   0  0  0  0  0  0  0  0  0  0  0  0
   22.3415  -20.2235  -10.0207 C   0  0  1  0  0  0  0  0  0  0  0  0
   22.5770  -20.5467  -11.4504 C   0  0  0  0  0  0  0  0  0  0  0  0
   23.7613  -20.5655  -11.8423 O   0  0  0  0  0  0  0  0  0  0  0  0
   19.4713  -20.8281  -14.4089 O   0  0  0  0  0  0  0  0  0  0  0  0
   20.4948  -21.7680  -14.3916 C   0  0  0  0  0  0  0  0  0  0  0  0
   21.7384  -21.2480  -13.7093 C   0  0  2  0  0  0  0  0  0  0  0  0
   21.5142  -20.8263  -12.3528 N   0  0  0  0  0  0  0  0  0  0  0  0
   22.3413  -20.1109  -14.4776 C   0  0  0  0  0  0  0  0  0  0  0  0
   21.8943  -18.9334  -14.3864 O   0  0  0  0  0  0  0  0  0  0  0  0
   28.5349  -20.7776  -15.2087 N   0  0  0  0  0  0  0  0  0  0  0  0
   28.8609  -20.5524  -16.5970 C   0  0  0  0  0  0  0  0  0  0  0  0
   29.4461  -21.4527  -17.3005 N   0  0  0  0  0  0  0  0  0  0  0  0
   28.5384  -19.3124  -17.2240 N   0  0  0  0  0  0  0  0  0  0  0  0
   27.8291  -18.2609  -16.5551 C   0  0  0  0  0  0  0  0  0  0  0  0
   26.3582  -18.2578  -16.6741 C   0  0  0  0  0  0  0  0  0  0  0  0
   25.5682  -19.2857  -15.9782 C   0  0  0  0  0  0  0  0  0  0  0  0
   24.0907  -19.2484  -16.0921 C   0  0  2  0  0  0  0  0  0  0  0  0
   23.4551  -20.3343  -15.3466 N   0  0  0  0  0  0  0  0  0  0  0  0
   23.5592  -19.1661  -17.4629 C   0  0  0  0  0  0  0  0  0  0  0  0
   22.8319  -20.0255  -18.0095 O   0  0  0  0  0  0  0  0  0  0  0  0
   23.8864  -18.0373  -18.2329 O   0  0  0  0  0  0  0  0  0  0  0  0
  1  2  1  0
  2  3  1  0
  4  3  1  0
  5  4  1  0
  5  1  1  0
  5  6  1  6
  6 11  1  0
  6  7  2  0
 10  9  1  6
  9  8  1  0
 10 12  1  0
 11 10  1  0
 12 13  2  0
 15 16  2  0
 15 14  1  0
 17 15  1  0
 18 17  1  0
 19 18  1  0
 20 19  1  0
 21 20  1  6
 21 23  1  0
 22 12  1  0
 22 21  1  0
 23 25  1  0
 24 23  2  0
M  END
$$$$
