PSR.pdb
     RDKit          3D

 25 25  0  0  1  0  0  0  0  0999 V2000
   20.3593   -8.8270  -16.6966 N   0  0  0  0  0  0  0  0  0  0  0  0
   20.7459   -9.7422  -17.7790 C   0  0  0  0  0  0  0  0  0  0  0  0
   21.6003  -10.7840  -17.0632 C   0  0  0  0  0  0  0  0  0  0  0  0
   21.2749  -10.6427  -15.6021 C   0  0  0  0  0  0  0  0  0  0  0  0
   20.0511   -9.7331  -15.6340 C   0  0  1  0  0  0  0  0  0  0  0  0
   19.9743   -9.0956  -14.2955 C   0  0  0  0  0  0  0  0  0  0  0  0
   19.6828   -9.8308  -13.3306 O   0  0  0  0  0  0  0  0  0  0  0  0
   20.6309   -4.8761  -13.6352 O   0  0  0  0  0  0  0  0  0  0  0  0
   20.9913   -5.8335  -12.6946 C   0  0  0  0  0  0  0  0  0  0  0  0
   20.1541   -7.0864  -12.8028 C   0  0  2  0  0  0  0  0  0  0  0  0
   20.2186   -7.7088  -14.0976 N   0  0  0  0  0  0  0  0  0  0  0  0
   18.7194   -6.8084  -12.4690 C   0  0  0  0  0  0  0  0  0  0  0  0
   17.8661   -6.5448  -13.3617 O   0  0  0  0  0  0  0  0  0  0  0  0
   13.0369  -10.0473   -8.6214 N   0  0  0  0  0  0  0  0  0  0  0  0
   12.4686   -8.9212   -7.9190 C   0  0  0  0  0  0  0  0  0  0  0  0
   11.2135   -8.8618   -7.6563 N   0  0  0  0  0  0  0  0  0  0  0  0
   13.2962   -7.8383   -7.4982 N   0  0  0  0  0  0  0  0  0  0  0  0
   14.7000   -7.7725   -7.7832 C   0  0  0  0  0  0  0  0  0  0  0  0
   15.0973   -7.2139   -9.0901 C   0  0  0  0  0  0  0  0  0  0  0  0
   16.5244   -7.0866   -9.4252 C   0  0  0  0  0  0  0  0  0  0  0  0
   16.9003   -6.5025  -10.7347 C   0  0  2  0  0  0  0  0  0  0  0  0
   18.2740   -6.8353  -11.1101 N   0  0  0  0  0  0  0  0  0  0  0  0
   16.6456   -5.0599  -10.8855 C   0  0  0  0  0  0  0  0  0  0  0  0
   17.5045   -4.1575  -10.7670 O   0  0  0  0  0  0  0  0  0  0  0  0
   15.3368   -4.6470  -11.1867 O   0  0  0  0  0  0  0  0  0  0  0  0
  1  2  1  0
  2  3  1  0
  4  3  1  0
  5  4  1  0
  5  1  1  0
  5  6  1  1
  6 11  1  0
  6  7  2  0
 10  9  1  6
  9  8  1  0
 10 12  1  0
 11 10  1  0
 12 13  2  0
 15 16  2  0
 15 14  1  0
 17 15  1  0
 18 17  1  0
 19 18  1  0
 20 19  1  0
 21 20  1  1
 21 23  1  0
 22 12  1  0
 22 21  1  0
 23 25  1  0
 24 23  2  0
M  END
$$$$
