PSR.pdb
     RDKit          3D

 25 25  0  0  1  0  0  0  0  0999 V2000
   27.4261  -18.1327  -19.4001 N   0  0  0  0  0  0  0  0  0  0  0  0
   28.3660  -17.8473  -20.4927 C   0  0  0  0  0  0  0  0  0  0  0  0
   29.6727  -18.4565  -19.9936 C   0  0  0  0  0  0  0  0  0  0  0  0
   29.2849  -19.4061  -18.8942 C   0  0  0  0  0  0  0  0  0  0  0  0
   27.7698  -19.4767  -19.0529 C   0  0  1  0  0  0  0  0  0  0  0  0
   27.2365  -19.9200  -17.7402 C   0  0  0  0  0  0  0  0  0  0  0  0
   27.4970  -21.0870  -17.3845 O   0  0  0  0  0  0  0  0  0  0  0  0
   25.8993  -17.2343  -14.7785 O   0  0  0  0  0  0  0  0  0  0  0  0
   26.2898  -18.5394  -14.5043 C   0  0  0  0  0  0  0  0  0  0  0  0
   25.9491  -19.4878  -15.6299 C   0  0  2  0  0  0  0  0  0  0  0  0
   26.4600  -19.0685  -16.9071 N   0  0  0  0  0  0  0  0  0  0  0  0
   24.4673  -19.6849  -15.7409 C   0  0  0  0  0  0  0  0  0  0  0  0
   23.7418  -18.9134  -16.4287 O   0  0  0  0  0  0  0  0  0  0  0  0
   18.2707  -23.1272  -12.7039 N   0  0  0  0  0  0  0  0  0  0  0  0
   17.8384  -23.9462  -13.8116 C   0  0  0  0  0  0  0  0  0  0  0  0
   16.6008  -24.2421  -13.9807 N   0  0  0  0  0  0  0  0  0  0  0  0
   18.7855  -24.4508  -14.7513 N   0  0  0  0  0  0  0  0  0  0  0  0
   20.1853  -24.1462  -14.6885 C   0  0  0  0  0  0  0  0  0  0  0  0
   20.5730  -22.7275  -14.8110 C   0  0  0  0  0  0  0  0  0  0  0  0
   21.9948  -22.3530  -14.7581 C   0  0  0  0  0  0  0  0  0  0  0  0
   22.3787  -20.9608  -15.0926 C   0  0  2  0  0  0  0  0  0  0  0  0
   23.8281  -20.7683  -15.0603 N   0  0  0  0  0  0  0  0  0  0  0  0
   21.6883  -19.9084  -14.3282 C   0  0  0  0  0  0  0  0  0  0  0  0
   20.5728  -19.4192  -14.6156 O   0  0  0  0  0  0  0  0  0  0  0  0
   22.3204  -19.4015  -13.1803 O   0  0  0  0  0  0  0  0  0  0  0  0
  1  2  1  0
  2  3  1  0
  4  3  1  0
  5  4  1  0
  5  1  1  0
  5  6  1  1
  6 11  1  0
  6  7  2  0
 10  9  1  1
  9  8  1  0
 10 12  1  0
 11 10  1  0
 12 13  2  0
 15 16  2  0
 15 14  1  0
 17 15  1  0
 18 17  1  0
 19 18  1  0
 20 19  1  0
 21 20  1  1
 21 23  1  0
 22 12  1  0
 22 21  1  0
 23 25  1  0
 24 23  2  0
M  END
$$$$
