PSR.pdb
     RDKit          3D

 25 25  0  0  1  0  0  0  0  0999 V2000
   23.6050  -14.0661  -19.6388 N   0  0  0  0  0  0  0  0  0  0  0  0
   23.8430  -15.2520  -20.4729 C   0  0  0  0  0  0  0  0  0  0  0  0
   22.9323  -16.3040  -19.8471 C   0  0  0  0  0  0  0  0  0  0  0  0
   21.9406  -15.5400  -19.0143 C   0  0  0  0  0  0  0  0  0  0  0  0
   22.1862  -14.1033  -19.4632 C   0  0  1  0  0  0  0  0  0  0  0  0
   21.6873  -13.2361  -18.3665 C   0  0  0  0  0  0  0  0  0  0  0  0
   20.4570  -13.2311  -18.1594 O   0  0  0  0  0  0  0  0  0  0  0  0
   22.3266  -10.9937  -14.1867 O   0  0  0  0  0  0  0  0  0  0  0  0
   22.7888  -11.8334  -15.1929 C   0  0  0  0  0  0  0  0  0  0  0  0
   22.0795  -11.5983  -16.5059 C   0  0  2  0  0  0  0  0  0  0  0  0
   22.5554  -12.4370  -17.5728 N   0  0  0  0  0  0  0  0  0  0  0  0
   22.1884  -10.1648  -16.9302 C   0  0  0  0  0  0  0  0  0  0  0  0
   23.2920   -9.6508  -17.2655 O   0  0  0  0  0  0  0  0  0  0  0  0
   16.0296   -4.3824  -16.0307 N   0  0  0  0  0  0  0  0  0  0  0  0
   15.7104   -5.6970  -15.5265 C   0  0  0  0  0  0  0  0  0  0  0  0
   14.8465   -5.8624  -14.5915 N   0  0  0  0  0  0  0  0  0  0  0  0
   16.3544   -6.8526  -16.0598 N   0  0  0  0  0  0  0  0  0  0  0  0
   17.3810   -6.7829  -17.0585 C   0  0  0  0  0  0  0  0  0  0  0  0
   18.7105   -7.3118  -16.6972 C   0  0  0  0  0  0  0  0  0  0  0  0
   19.7716   -7.3740  -17.7145 C   0  0  0  0  0  0  0  0  0  0  0  0
   21.0970   -7.9155  -17.3306 C   0  0  2  0  0  0  0  0  0  0  0  0
   21.0274   -9.3303  -16.9666 N   0  0  0  0  0  0  0  0  0  0  0  0
   21.8305   -7.1433  -16.3137 C   0  0  0  0  0  0  0  0  0  0  0  0
   22.1035   -7.5430  -15.1596 O   0  0  0  0  0  0  0  0  0  0  0  0
   22.2657   -5.8506  -16.6510 O   0  0  0  0  0  0  0  0  0  0  0  0
  1  2  1  0
  2  3  1  0
  4  3  1  0
  5  4  1  0
  5  1  1  0
  5  6  1  1
  6 11  1  0
  6  7  2  0
 10  9  1  1
  9  8  1  0
 10 12  1  0
 11 10  1  0
 12 13  2  0
 15 16  2  0
 15 14  1  0
 17 15  1  0
 18 17  1  0
 19 18  1  0
 20 19  1  0
 21 20  1  1
 21 23  1  0
 22 12  1  0
 22 21  1  0
 23 25  1  0
 24 23  2  0
M  END
$$$$
