PSR.pdb
     RDKit          3D

 25 25  0  0  1  0  0  0  0  0999 V2000
   29.6673  -21.5384  -12.2324 N   0  0  0  0  0  0  0  0  0  0  0  0
   30.5702  -22.1126  -11.2255 C   0  0  0  0  0  0  0  0  0  0  0  0
   30.3468  -21.2182  -10.0098 C   0  0  0  0  0  0  0  0  0  0  0  0
   29.0469  -20.5060  -10.2621 C   0  0  0  0  0  0  0  0  0  0  0  0
   28.4933  -21.2673  -11.4620 C   0  0  1  0  0  0  0  0  0  0  0  0
   27.5304  -20.3520  -12.1245 C   0  0  0  0  0  0  0  0  0  0  0  0
   26.4995  -20.0530  -11.4889 O   0  0  0  0  0  0  0  0  0  0  0  0
   28.0661  -18.8598  -16.1351 O   0  0  0  0  0  0  0  0  0  0  0  0
   27.4803  -18.0789  -15.1461 C   0  0  0  0  0  0  0  0  0  0  0  0
   26.8403  -18.9133  -14.0614 C   0  0  2  0  0  0  0  0  0  0  0  0
   27.7527  -19.8260  -13.4269 N   0  0  0  0  0  0  0  0  0  0  0  0
   25.6715  -19.6868  -14.5930 C   0  0  0  0  0  0  0  0  0  0  0  0
   25.6388  -20.9488  -14.5651 O   0  0  0  0  0  0  0  0  0  0  0  0
   18.3429  -23.9788  -12.6791 N   0  0  0  0  0  0  0  0  0  0  0  0
   18.9199  -22.6671  -12.8550 C   0  0  0  0  0  0  0  0  0  0  0  0
   18.2395  -21.6992  -13.3530 N   0  0  0  0  0  0  0  0  0  0  0  0
   20.2720  -22.4148  -12.4771 N   0  0  0  0  0  0  0  0  0  0  0  0
   20.8661  -21.1107  -12.5280 C   0  0  0  0  0  0  0  0  0  0  0  0
   21.3801  -20.6544  -13.8340 C   0  0  0  0  0  0  0  0  0  0  0  0
   22.7363  -20.0914  -13.9273 C   0  0  0  0  0  0  0  0  0  0  0  0
   23.2262  -19.6263  -15.2469 C   0  0  2  0  0  0  0  0  0  0  0  0
   24.5466  -19.0043  -15.1539 N   0  0  0  0  0  0  0  0  0  0  0  0
   22.2947  -18.7783  -16.0096 C   0  0  0  0  0  0  0  0  0  0  0  0
   22.3323  -17.5285  -16.0625 O   0  0  0  0  0  0  0  0  0  0  0  0
   21.2751  -19.4086  -16.7427 O   0  0  0  0  0  0  0  0  0  0  0  0
  1  2  1  0
  2  3  1  0
  4  3  1  0
  5  4  1  0
  5  1  1  0
  5  6  1  6
  6 11  1  0
  6  7  2  0
 10  9  1  6
  9  8  1  0
 10 12  1  0
 11 10  1  0
 12 13  2  0
 15 16  2  0
 15 14  1  0
 17 15  1  0
 18 17  1  0
 19 18  1  0
 20 19  1  0
 21 20  1  1
 21 23  1  0
 22 12  1  0
 22 21  1  0
 23 25  1  0
 24 23  2  0
M  END
$$$$
