PSR.pdb
     RDKit          3D

 25 25  0  0  1  0  0  0  0  0999 V2000
   18.9565  -18.3658    1.2953 N   0  0  0  0  0  0  0  0  0  0  0  0
   18.3560  -19.1795    0.2294 C   0  0  0  0  0  0  0  0  0  0  0  0
   16.9494  -19.4530    0.7531 C   0  0  0  0  0  0  0  0  0  0  0  0
   16.7113  -18.4325    1.8314 C   0  0  0  0  0  0  0  0  0  0  0  0
   17.8861  -17.4802    1.6349 C   0  0  1  0  0  0  0  0  0  0  0  0
   18.0685  -16.7755    2.9288 C   0  0  0  0  0  0  0  0  0  0  0  0
   18.9196  -17.2390    3.7145 O   0  0  0  0  0  0  0  0  0  0  0  0
   15.9047  -13.2131    3.9386 O   0  0  0  0  0  0  0  0  0  0  0  0
   17.1883  -13.4381    4.4212 C   0  0  0  0  0  0  0  0  0  0  0  0
   17.5156  -14.9101    4.5138 C   0  0  2  0  0  0  0  0  0  0  0  0
   17.3172  -15.6202    3.2790 N   0  0  0  0  0  0  0  0  0  0  0  0
   16.7130  -15.5757    5.5906 C   0  0  0  0  0  0  0  0  0  0  0  0
   15.6556  -16.2167    5.3344 O   0  0  0  0  0  0  0  0  0  0  0  0
   18.0728  -18.7663   13.6251 N   0  0  0  0  0  0  0  0  0  0  0  0
   18.7058  -19.4871   12.5462 C   0  0  0  0  0  0  0  0  0  0  0  0
   19.0571  -20.7147   12.6783 N   0  0  0  0  0  0  0  0  0  0  0  0
   18.9586  -18.8453   11.2976 N   0  0  0  0  0  0  0  0  0  0  0  0
   18.4338  -17.5533   10.9639 C   0  0  0  0  0  0  0  0  0  0  0  0
   17.6086  -17.4551    9.7443 C   0  0  0  0  0  0  0  0  0  0  0  0
   17.0997  -16.1441    9.3119 C   0  0  0  0  0  0  0  0  0  0  0  0
   16.3320  -16.0588    8.0467 C   0  0  2  0  0  0  0  0  0  0  0  0
   17.1310  -15.5005    6.9564 N   0  0  0  0  0  0  0  0  0  0  0  0
   15.0232  -15.3902    8.1394 C   0  0  0  0  0  0  0  0  0  0  0  0
   14.7942  -14.2014    7.8223 O   0  0  0  0  0  0  0  0  0  0  0  0
   13.9329  -16.1338    8.6215 O   0  0  0  0  0  0  0  0  0  0  0  0
  1  2  1  0
  2  3  1  0
  4  3  1  0
  5  4  1  0
  5  1  1  0
  5  6  1  1
  6 11  1  0
  6  7  2  0
 10  9  1  6
  9  8  1  0
 10 12  1  0
 11 10  1  0
 12 13  2  0
 15 16  2  0
 15 14  1  0
 17 15  1  0
 18 17  1  0
 19 18  1  0
 20 19  1  0
 21 20  1  1
 21 23  1  0
 22 12  1  0
 22 21  1  0
 23 25  1  0
 24 23  2  0
M  END
$$$$
