PSR.pdb
     RDKit          3D

 25 25  0  0  1  0  0  0  0  0999 V2000
   29.6408  -19.8368  -11.7501 N   0  0  0  0  0  0  0  0  0  0  0  0
   31.0964  -19.8592  -11.9487 C   0  0  0  0  0  0  0  0  0  0  0  0
   31.4563  -21.3223  -11.7090 C   0  0  0  0  0  0  0  0  0  0  0  0
   30.1659  -22.0841  -11.8327 C   0  0  0  0  0  0  0  0  0  0  0  0
   29.2291  -21.0325  -12.4179 C   0  0  1  0  0  0  0  0  0  0  0  0
   27.8516  -21.4723  -12.0814 C   0  0  0  0  0  0  0  0  0  0  0  0
   27.4148  -22.4794  -12.6740 O   0  0  0  0  0  0  0  0  0  0  0  0
   25.3609  -19.4034   -9.2472 O   0  0  0  0  0  0  0  0  0  0  0  0
   25.3353  -20.7889   -9.3518 C   0  0  0  0  0  0  0  0  0  0  0  0
   25.7516  -21.2676  -10.7229 C   0  0  2  0  0  0  0  0  0  0  0  0
   27.0464  -20.7907  -11.1280 N   0  0  0  0  0  0  0  0  0  0  0  0
   24.7437  -20.8764  -11.7612 C   0  0  0  0  0  0  0  0  0  0  0  0
   24.8354  -19.7938  -12.4048 O   0  0  0  0  0  0  0  0  0  0  0  0
   18.3754  -25.6081  -16.1839 N   0  0  0  0  0  0  0  0  0  0  0  0
   18.2242  -24.2337  -16.5994 C   0  0  0  0  0  0  0  0  0  0  0  0
   17.3790  -23.8988  -17.5058 N   0  0  0  0  0  0  0  0  0  0  0  0
   19.0185  -23.2073  -16.0078 N   0  0  0  0  0  0  0  0  0  0  0  0
   19.9924  -23.4648  -14.9872 C   0  0  0  0  0  0  0  0  0  0  0  0
   20.7634  -22.3113  -14.4844 C   0  0  0  0  0  0  0  0  0  0  0  0
   21.8109  -22.5198  -13.4724 C   0  0  0  0  0  0  0  0  0  0  0  0
   22.5822  -21.3484  -12.9923 C   0  0  2  0  0  0  0  0  0  0  0  0
   23.6359  -21.7325  -12.0536 N   0  0  0  0  0  0  0  0  0  0  0  0
   21.7815  -20.2326  -12.4611 C   0  0  0  0  0  0  0  0  0  0  0  0
   21.5168  -20.0434  -11.2527 O   0  0  0  0  0  0  0  0  0  0  0  0
   21.2655  -19.2958  -13.3722 O   0  0  0  0  0  0  0  0  0  0  0  0
  1  2  1  0
  2  3  1  0
  4  3  1  0
  5  4  1  0
  5  1  1  0
  5  6  1  1
  6 11  1  0
  6  7  2  0
 10  9  1  1
  9  8  1  0
 10 12  1  0
 11 10  1  0
 12 13  2  0
 15 16  2  0
 15 14  1  0
 17 15  1  0
 18 17  1  0
 19 18  1  0
 20 19  1  0
 21 20  1  1
 21 23  1  0
 22 12  1  0
 22 21  1  0
 23 25  1  0
 24 23  2  0
M  END
$$$$
