PSR.pdb
     RDKit          3D

 25 25  0  0  1  0  0  0  0  0999 V2000
   18.6936  -10.0850  -16.2134 N   0  0  0  0  0  0  0  0  0  0  0  0
   18.6365  -11.1279  -17.2467 C   0  0  0  0  0  0  0  0  0  0  0  0
   19.1129  -12.3745  -16.5073 C   0  0  0  0  0  0  0  0  0  0  0  0
   18.9784  -12.0558  -15.0440 C   0  0  0  0  0  0  0  0  0  0  0  0
   18.1660  -10.7655  -15.0716 C   0  0  1  0  0  0  0  0  0  0  0  0
   18.4314  -10.0817  -13.7809 C   0  0  0  0  0  0  0  0  0  0  0  0
   17.9942  -10.6266  -12.7474 O   0  0  0  0  0  0  0  0  0  0  0  0
   20.9129   -6.7260  -11.2619 O   0  0  0  0  0  0  0  0  0  0  0  0
   20.6804   -7.3607  -12.4760 C   0  0  0  0  0  0  0  0  0  0  0  0
   19.4216   -8.1958  -12.4540 C   0  0  2  0  0  0  0  0  0  0  0  0
   19.1510   -8.8577  -13.7017 N   0  0  0  0  0  0  0  0  0  0  0  0
   18.2305   -7.3683  -12.0753 C   0  0  0  0  0  0  0  0  0  0  0  0
   17.7151   -6.5369  -12.8740 O   0  0  0  0  0  0  0  0  0  0  0  0
   10.9170   -9.2919   -8.0498 N   0  0  0  0  0  0  0  0  0  0  0  0
   12.0567   -8.9320   -7.2400 C   0  0  0  0  0  0  0  0  0  0  0  0
   12.1425   -9.2903   -6.0103 N   0  0  0  0  0  0  0  0  0  0  0  0
   13.1227   -8.1619   -7.7925 N   0  0  0  0  0  0  0  0  0  0  0  0
   12.9928   -7.4058   -9.0039 C   0  0  0  0  0  0  0  0  0  0  0  0
   14.1780   -6.6540   -9.4601 C   0  0  0  0  0  0  0  0  0  0  0  0
   15.4313   -7.3708   -9.7435 C   0  0  0  0  0  0  0  0  0  0  0  0
   16.5706   -6.6159  -10.3176 C   0  0  2  0  0  0  0  0  0  0  0  0
   17.6386   -7.5016  -10.7801 N   0  0  0  0  0  0  0  0  0  0  0  0
   17.1082   -5.5348   -9.4745 C   0  0  0  0  0  0  0  0  0  0  0  0
   18.1958   -5.5723   -8.8566 O   0  0  0  0  0  0  0  0  0  0  0  0
   16.3500   -4.3593   -9.3427 O   0  0  0  0  0  0  0  0  0  0  0  0
  1  2  1  0
  2  3  1  0
  4  3  1  0
  5  4  1  0
  5  1  1  0
  5  6  1  1
  6 11  1  0
  6  7  2  0
 10  9  1  6
  9  8  1  0
 10 12  1  0
 11 10  1  0
 12 13  2  0
 15 16  2  0
 15 14  1  0
 17 15  1  0
 18 17  1  0
 19 18  1  0
 20 19  1  0
 21 20  1  1
 21 23  1  0
 22 12  1  0
 22 21  1  0
 23 25  1  0
 24 23  2  0
M  END
$$$$
