PSR.pdb
     RDKit          3D

 25 25  0  0  1  0  0  0  0  0999 V2000
   28.1214  -18.6318  -14.4902 N   0  0  0  0  0  0  0  0  0  0  0  0
   29.2959  -18.2244  -15.2734 C   0  0  0  0  0  0  0  0  0  0  0  0
   30.0954  -19.5179  -15.3973 C   0  0  0  0  0  0  0  0  0  0  0  0
   29.1303  -20.6250  -15.0753 C   0  0  0  0  0  0  0  0  0  0  0  0
   27.7923  -19.8932  -15.0783 C   0  0  1  0  0  0  0  0  0  0  0  0
   26.8666  -20.7198  -14.2635 C   0  0  0  0  0  0  0  0  0  0  0  0
   26.4841  -21.8000  -14.7567 O   0  0  0  0  0  0  0  0  0  0  0  0
   25.5560  -19.7001  -10.2302 O   0  0  0  0  0  0  0  0  0  0  0  0
   25.7495  -20.9937  -10.6993 C   0  0  0  0  0  0  0  0  0  0  0  0
   25.5112  -21.1052  -12.1870 C   0  0  2  0  0  0  0  0  0  0  0  0
   26.4220  -20.3182  -12.9739 N   0  0  0  0  0  0  0  0  0  0  0  0
   24.1065  -20.7192  -12.5399 C   0  0  0  0  0  0  0  0  0  0  0  0
   23.7703  -19.5148  -12.7160 O   0  0  0  0  0  0  0  0  0  0  0  0
   18.7268  -19.3298  -16.2778 N   0  0  0  0  0  0  0  0  0  0  0  0
   17.7920  -20.4161  -16.4523 C   0  0  0  0  0  0  0  0  0  0  0  0
   16.5926  -20.2068  -16.8589 N   0  0  0  0  0  0  0  0  0  0  0  0
   18.1832  -21.7592  -16.1733 N   0  0  0  0  0  0  0  0  0  0  0  0
   19.4942  -22.1099  -15.7100 C   0  0  0  0  0  0  0  0  0  0  0  0
   19.6734  -22.2744  -14.2544 C   0  0  0  0  0  0  0  0  0  0  0  0
   21.0196  -22.5044  -13.7069 C   0  0  0  0  0  0  0  0  0  0  0  0
   21.7123  -21.3861  -13.0234 C   0  0  2  0  0  0  0  0  0  0  0  0
   23.0962  -21.7206  -12.6886 N   0  0  0  0  0  0  0  0  0  0  0  0
   21.0098  -20.8167  -11.8613 C   0  0  0  0  0  0  0  0  0  0  0  0
   21.3108  -21.0192  -10.6635 O   0  0  0  0  0  0  0  0  0  0  0  0
   19.9098  -19.9757  -12.0998 O   0  0  0  0  0  0  0  0  0  0  0  0
  1  2  1  0
  2  3  1  0
  4  3  1  0
  5  4  1  0
  5  1  1  0
  5  6  1  1
  6 11  1  0
  6  7  2  0
 10  9  1  1
  9  8  1  0
 10 12  1  0
 11 10  1  0
 12 13  2  0
 15 16  2  0
 15 14  1  0
 17 15  1  0
 18 17  1  0
 19 18  1  0
 20 19  1  0
 21 20  1  1
 21 23  1  0
 22 12  1  0
 22 21  1  0
 23 25  1  0
 24 23  2  0
M  END
$$$$
