PSR.pdb
     RDKit          3D

 25 25  0  0  1  0  0  0  0  0999 V2000
   25.8491  -21.3415  -14.7483 N   0  0  0  0  0  0  0  0  0  0  0  0
   26.5276  -21.9662  -15.8920 C   0  0  0  0  0  0  0  0  0  0  0  0
   25.4025  -22.7232  -16.5910 C   0  0  0  0  0  0  0  0  0  0  0  0
   24.1250  -22.1262  -16.0691 C   0  0  0  0  0  0  0  0  0  0  0  0
   24.6277  -20.8865  -15.3367 C   0  0  1  0  0  0  0  0  0  0  0  0
   23.5746  -20.5320  -14.3523 C   0  0  0  0  0  0  0  0  0  0  0  0
   23.9030  -20.5138  -13.1489 O   0  0  0  0  0  0  0  0  0  0  0  0
   19.9634  -18.6903  -15.4478 O   0  0  0  0  0  0  0  0  0  0  0  0
   20.4169  -18.6788  -14.1343 C   0  0  0  0  0  0  0  0  0  0  0  0
   21.2067  -19.9198  -13.7901 C   0  0  2  0  0  0  0  0  0  0  0  0
   22.2422  -20.2224  -14.7410 N   0  0  0  0  0  0  0  0  0  0  0  0
   20.3084  -21.1122  -13.6550 C   0  0  0  0  0  0  0  0  0  0  0  0
   20.0984  -21.9012  -14.6183 O   0  0  0  0  0  0  0  0  0  0  0  0
   18.4291  -26.1486   -9.3384 N   0  0  0  0  0  0  0  0  0  0  0  0
   18.4004  -25.2986   -8.1717 C   0  0  0  0  0  0  0  0  0  0  0  0
   19.1828  -25.5052   -7.1752 N   0  0  0  0  0  0  0  0  0  0  0  0
   17.4929  -24.2006   -8.0986 N   0  0  0  0  0  0  0  0  0  0  0  0
   16.6795  -23.7854   -9.2041 C   0  0  0  0  0  0  0  0  0  0  0  0
   17.3227  -23.7304  -10.5312 C   0  0  0  0  0  0  0  0  0  0  0  0
   18.1701  -22.5804  -10.8836 C   0  0  0  0  0  0  0  0  0  0  0  0
   18.6744  -22.4650  -12.2728 C   0  0  2  0  0  0  0  0  0  0  0  0
   19.6566  -21.3905  -12.4127 N   0  0  0  0  0  0  0  0  0  0  0  0
   17.6427  -22.3780  -13.3200 C   0  0  0  0  0  0  0  0  0  0  0  0
   16.9870  -21.3511  -13.6058 O   0  0  0  0  0  0  0  0  0  0  0  0
   17.3596  -23.5334  -14.0677 O   0  0  0  0  0  0  0  0  0  0  0  0
  1  2  1  0
  2  3  1  0
  4  3  1  0
  5  4  1  0
  5  1  1  0
  5  6  1  1
  6 11  1  0
  6  7  2  0
 10  9  1  6
  9  8  1  0
 10 12  1  0
 11 10  1  0
 12 13  2  0
 15 16  2  0
 15 14  1  0
 17 15  1  0
 18 17  1  0
 19 18  1  0
 20 19  1  0
 21 20  1  1
 21 23  1  0
 22 12  1  0
 22 21  1  0
 23 25  1  0
 24 23  2  0
M  END
$$$$
