PSR.pdb
     RDKit          3D

 25 25  0  0  1  0  0  0  0  0999 V2000
   25.3699  -13.2320  -20.8166 N   0  0  0  0  0  0  0  0  0  0  0  0
   25.9001  -14.3254  -21.6424 C   0  0  0  0  0  0  0  0  0  0  0  0
   26.1963  -15.4189  -20.6206 C   0  0  0  0  0  0  0  0  0  0  0  0
   25.4181  -15.0466  -19.3892 C   0  0  0  0  0  0  0  0  0  0  0  0
   24.5163  -13.9308  -19.9065 C   0  0  1  0  0  0  0  0  0  0  0  0
   24.1168  -13.1368  -18.7175 C   0  0  0  0  0  0  0  0  0  0  0  0
   23.3150  -13.6668  -17.9221 O   0  0  0  0  0  0  0  0  0  0  0  0
   24.8212   -9.7700  -15.4206 O   0  0  0  0  0  0  0  0  0  0  0  0
   25.2829  -10.5527  -16.4720 C   0  0  0  0  0  0  0  0  0  0  0  0
   24.1640  -11.0175  -17.3743 C   0  0  2  0  0  0  0  0  0  0  0  0
   24.6137  -11.8268  -18.4748 N   0  0  0  0  0  0  0  0  0  0  0  0
   23.3856   -9.8553  -17.9130 C   0  0  0  0  0  0  0  0  0  0  0  0
   23.7628   -9.2164  -18.9348 O   0  0  0  0  0  0  0  0  0  0  0  0
   15.8925   -7.5305  -15.0487 N   0  0  0  0  0  0  0  0  0  0  0  0
   16.1891   -6.2950  -15.7342 C   0  0  0  0  0  0  0  0  0  0  0  0
   15.7412   -5.1701  -15.3078 N   0  0  0  0  0  0  0  0  0  0  0  0
   16.9929   -6.2963  -16.9125 N   0  0  0  0  0  0  0  0  0  0  0  0
   17.5965   -7.4834  -17.4442 C   0  0  0  0  0  0  0  0  0  0  0  0
   19.0152   -7.3986  -17.8417 C   0  0  0  0  0  0  0  0  0  0  0  0
   19.9847   -8.3598  -17.2931 C   0  0  0  0  0  0  0  0  0  0  0  0
   21.3885   -8.3059  -17.7664 C   0  0  2  0  0  0  0  0  0  0  0  0
   22.1775   -9.4343  -17.2734 N   0  0  0  0  0  0  0  0  0  0  0  0
   22.0892   -7.0309  -17.5385 C   0  0  0  0  0  0  0  0  0  0  0  0
   22.7951   -6.7618  -16.5408 O   0  0  0  0  0  0  0  0  0  0  0  0
   21.9647   -6.0244  -18.5109 O   0  0  0  0  0  0  0  0  0  0  0  0
  1  2  1  0
  2  3  1  0
  4  3  1  0
  5  4  1  0
  5  1  1  0
  5  6  1  1
  6 11  1  0
  6  7  2  0
 10  9  1  6
  9  8  1  0
 10 12  1  0
 11 10  1  0
 12 13  2  0
 15 16  2  0
 15 14  1  0
 17 15  1  0
 18 17  1  0
 19 18  1  0
 20 19  1  0
 21 20  1  1
 21 23  1  0
 22 12  1  0
 22 21  1  0
 23 25  1  0
 24 23  2  0
M  END
$$$$
