PSR.pdb
     RDKit          3D

 25 25  0  0  1  0  0  0  0  0999 V2000
   19.2069  -11.7629    8.4263 N   0  0  0  0  0  0  0  0  0  0  0  0
   19.6826  -10.3737    8.3772 C   0  0  0  0  0  0  0  0  0  0  0  0
   21.1274  -10.5187    7.9090 C   0  0  0  0  0  0  0  0  0  0  0  0
   21.2256  -11.8955    7.3127 C   0  0  0  0  0  0  0  0  0  0  0  0
   19.7609  -12.3118    7.2276 C   0  0  1  0  0  0  0  0  0  0  0  0
   19.7545  -13.7955    7.1796 C   0  0  0  0  0  0  0  0  0  0  0  0
   20.1828  -14.3334    6.1386 O   0  0  0  0  0  0  0  0  0  0  0  0
   18.4741  -16.3482   10.4793 O   0  0  0  0  0  0  0  0  0  0  0  0
   19.5747  -16.5956    9.6677 C   0  0  0  0  0  0  0  0  0  0  0  0
   19.4032  -16.0233    8.2801 C   0  0  2  0  0  0  0  0  0  0  0  0
   19.2854  -14.5902    8.2615 N   0  0  0  0  0  0  0  0  0  0  0  0
   18.2101  -16.6172    7.5940 C   0  0  0  0  0  0  0  0  0  0  0  0
   17.1000  -16.0170    7.5483 O   0  0  0  0  0  0  0  0  0  0  0  0
   15.9011  -21.9660    1.9117 N   0  0  0  0  0  0  0  0  0  0  0  0
   14.6378  -21.2702    1.9773 C   0  0  0  0  0  0  0  0  0  0  0  0
   13.5670  -21.7818    1.4880 N   0  0  0  0  0  0  0  0  0  0  0  0
   14.5501  -19.9860    2.5919 N   0  0  0  0  0  0  0  0  0  0  0  0
   15.6905  -19.2918    3.1152 C   0  0  0  0  0  0  0  0  0  0  0  0
   16.2820  -19.8115    4.3634 C   0  0  0  0  0  0  0  0  0  0  0  0
   17.3504  -19.0543    5.0343 C   0  0  0  0  0  0  0  0  0  0  0  0
   17.1274  -18.5831    6.4220 C   0  0  2  0  0  0  0  0  0  0  0  0
   18.3004  -17.8981    6.9642 N   0  0  0  0  0  0  0  0  0  0  0  0
   16.6231  -19.5953    7.3653 C   0  0  0  0  0  0  0  0  0  0  0  0
   17.2934  -20.1345    8.2742 O   0  0  0  0  0  0  0  0  0  0  0  0
   15.2825  -19.9993    7.2482 O   0  0  0  0  0  0  0  0  0  0  0  0
  1  2  1  0
  2  3  1  0
  4  3  1  0
  5  4  1  0
  5  1  1  0
  5  6  1  1
  6 11  1  0
  6  7  2  0
 10  9  1  1
  9  8  1  0
 10 12  1  0
 11 10  1  0
 12 13  2  0
 15 16  2  0
 15 14  1  0
 17 15  1  0
 18 17  1  0
 19 18  1  0
 20 19  1  0
 21 20  1  6
 21 23  1  0
 22 12  1  0
 22 21  1  0
 23 25  1  0
 24 23  2  0
M  END
$$$$
