NVF.pdb
     RDKit          3D

 27 27  0  0  1  0  0  0  0  0999 V2000
    9.8582  -20.8225   19.0887 N   0  0  0  0  0  0  0  0  0  0  0  0
   11.0410  -20.1648   19.4704 C   0  0  0  0  0  0  0  0  0  0  0  0
   12.1367  -20.5572   19.0171 O   0  0  0  0  0  0  0  0  0  0  0  0
   11.0014  -19.0113   20.4046 C   0  0  0  0  0  0  0  0  0  0  0  0
   10.7854  -17.7195   19.6409 C   0  0  2  0  0  0  0  0  0  0  0  0
   11.9815  -17.3224   18.9307 N   0  0  0  0  0  0  0  0  0  0  0  0
   10.3725  -16.6247   20.5592 C   0  0  0  0  0  0  0  0  0  0  0  0
   11.2723  -16.0431   21.2578 O   0  0  0  0  0  0  0  0  0  0  0  0
    6.7650  -13.7276   22.2156 C   0  0  0  0  0  0  0  0  0  0  0  0
    7.4728  -14.5061   21.1492 C   0  0  1  0  0  0  0  0  0  0  0  0
    7.7717  -13.6455   19.9691 C   0  0  0  0  0  0  0  0  0  0  0  0
    8.6702  -15.2538   21.7084 C   0  0  2  0  0  0  0  0  0  0  0  0
    9.0179  -16.2237   20.6688 N   0  0  0  0  0  0  0  0  0  0  0  0
    8.3557  -15.9641   22.9820 C   0  0  0  0  0  0  0  0  0  0  0  0
    7.9011  -17.1485   22.8935 O   0  0  0  0  0  0  0  0  0  0  0  0
    8.5710  -15.3099   24.2180 N   0  0  0  0  0  0  0  0  0  0  0  0
    8.2937  -16.0607   25.4559 C   0  0  1  0  0  0  0  0  0  0  0  0
    8.7347  -15.1887   26.5789 C   0  0  0  0  0  0  0  0  0  0  0  0
    8.0125  -13.9001   26.5408 C   0  0  0  0  0  0  0  0  0  0  0  0
    6.6883  -13.8007   26.9501 C   0  0  0  0  0  0  0  0  0  0  0  0
    6.0096  -12.6068   26.9212 C   0  0  0  0  0  0  0  0  0  0  0  0
    6.6785  -11.4960   26.4719 C   0  0  0  0  0  0  0  0  0  0  0  0
    7.9947  -11.5654   26.0589 C   0  0  0  0  0  0  0  0  0  0  0  0
    8.6669  -12.7773   26.0937 C   0  0  0  0  0  0  0  0  0  0  0  0
    6.8912  -16.4900   25.4823 C   0  0  0  0  0  0  0  0  0  0  0  0
    6.4372  -17.4827   26.3269 O   0  0  0  0  0  0  0  0  0  0  0  0
    6.0590  -15.9495   24.7177 O   0  0  0  0  0  0  0  0  0  0  0  0
  2  3  2  0
  2  1  1  0
  4  2  1  0
  5  4  1  0
  5  6  1  1
  7  8  2  0
  7  5  1  0
 10  9  1  1
 10 12  1  0
 11 10  1  0
 12 13  1  6
 13  7  1  0
 14 12  1  0
 14 15  2  0
 16 14  1  0
 17 16  1  0
 17 25  1  0
 17 18  1  1
 19 18  1  0
 20 19  2  0
 21 20  1  0
 22 21  2  0
 22 23  1  0
 23 24  2  0
 24 19  1  0
 25 26  1  0
 27 25  2  0
M  END
$$$$
