NVF.pdb
     RDKit          3D

 27 27  0  0  1  0  0  0  0  0999 V2000
    8.8043  -19.9842   17.6853 N   0  0  0  0  0  0  0  0  0  0  0  0
    9.9541  -19.7935   18.4720 C   0  0  0  0  0  0  0  0  0  0  0  0
   10.6884  -20.7691   18.7346 O   0  0  0  0  0  0  0  0  0  0  0  0
   10.3039  -18.4476   18.9927 C   0  0  0  0  0  0  0  0  0  0  0  0
    9.9483  -18.3405   20.4627 C   0  0  2  0  0  0  0  0  0  0  0  0
    8.6403  -18.8980   20.7290 N   0  0  0  0  0  0  0  0  0  0  0  0
    9.9795  -16.9232   20.9127 C   0  0  0  0  0  0  0  0  0  0  0  0
   11.0734  -16.2706   20.7965 O   0  0  0  0  0  0  0  0  0  0  0  0
    7.6712  -14.2292   19.8083 C   0  0  0  0  0  0  0  0  0  0  0  0
    7.6770  -14.2444   21.3064 C   0  0  1  0  0  0  0  0  0  0  0  0
    6.4065  -14.8133   21.8396 C   0  0  0  0  0  0  0  0  0  0  0  0
    8.9389  -14.8898   21.8511 C   0  0  2  0  0  0  0  0  0  0  0  0
    8.8325  -16.2962   21.4595 N   0  0  0  0  0  0  0  0  0  0  0  0
    9.0405  -14.7814   23.3354 C   0  0  0  0  0  0  0  0  0  0  0  0
    8.9137  -13.6240   23.8467 O   0  0  0  0  0  0  0  0  0  0  0  0
    9.2682  -15.9457   24.1067 N   0  0  0  0  0  0  0  0  0  0  0  0
    9.0964  -15.8525   25.5678 C   0  0  1  0  0  0  0  0  0  0  0  0
    7.6617  -15.5290   25.7981 C   0  0  0  0  0  0  0  0  0  0  0  0
    7.5115  -14.1091   26.1787 C   0  0  0  0  0  0  0  0  0  0  0  0
    6.2885  -13.4578   26.0743 C   0  0  0  0  0  0  0  0  0  0  0  0
    6.1384  -12.1392   26.4285 C   0  0  0  0  0  0  0  0  0  0  0  0
    7.2405  -11.4677   26.8952 C   0  0  0  0  0  0  0  0  0  0  0  0
    8.4684  -12.0898   27.0093 C   0  0  0  0  0  0  0  0  0  0  0  0
    8.6048  -13.4212   26.6481 C   0  0  0  0  0  0  0  0  0  0  0  0
    9.5967  -17.0711   26.2134 C   0  0  0  0  0  0  0  0  0  0  0  0
    9.8050  -17.1546   27.5752 O   0  0  0  0  0  0  0  0  0  0  0  0
    9.8513  -18.0840   25.5216 O   0  0  0  0  0  0  0  0  0  0  0  0
  2  3  2  0
  2  1  1  0
  4  2  1  0
  5  4  1  0
  5  6  1  6
  7  8  2  0
  7  5  1  0
 10  9  1  6
 10 12  1  0
 11 10  1  0
 12 13  1  1
 13  7  1  0
 14 12  1  0
 14 15  2  0
 16 14  1  0
 17 16  1  0
 17 25  1  0
 17 18  1  6
 19 18  1  0
 20 19  2  0
 21 20  1  0
 22 21  2  0
 22 23  1  0
 23 24  2  0
 24 19  1  0
 25 26  1  0
 27 25  2  0
M  END
$$$$
