NVF.pdb
     RDKit          3D

 27 27  0  0  1  0  0  0  0  0999 V2000
    9.6036  -19.8580   17.6965 N   0  0  0  0  0  0  0  0  0  0  0  0
   10.8745  -19.7367   18.2858 C   0  0  0  0  0  0  0  0  0  0  0  0
   11.8127  -20.4531   17.8775 O   0  0  0  0  0  0  0  0  0  0  0  0
   11.1128  -18.7683   19.3858 C   0  0  0  0  0  0  0  0  0  0  0  0
   10.4065  -17.4577   19.0988 C   0  0  2  0  0  0  0  0  0  0  0  0
   11.0834  -16.7123   18.0601 N   0  0  0  0  0  0  0  0  0  0  0  0
   10.3207  -16.6229   20.3268 C   0  0  0  0  0  0  0  0  0  0  0  0
   11.3388  -15.9249   20.6619 O   0  0  0  0  0  0  0  0  0  0  0  0
    7.4581  -14.2485   21.3590 C   0  0  0  0  0  0  0  0  0  0  0  0
    7.7505  -15.2320   22.4506 C   0  0  1  0  0  0  0  0  0  0  0  0
    6.6816  -16.2676   22.5368 C   0  0  0  0  0  0  0  0  0  0  0  0
    9.1607  -15.7839   22.3389 C   0  0  2  0  0  0  0  0  0  0  0  0
    9.1455  -16.5908   21.1177 N   0  0  0  0  0  0  0  0  0  0  0  0
    9.5349  -16.6345   23.5059 C   0  0  0  0  0  0  0  0  0  0  0  0
    9.4276  -17.8942   23.3689 O   0  0  0  0  0  0  0  0  0  0  0  0
    9.9880  -16.0233   24.6989 N   0  0  0  0  0  0  0  0  0  0  0  0
   10.5982  -16.8835   25.7287 C   0  0  1  0  0  0  0  0  0  0  0  0
   11.6294  -16.0519   26.4078 C   0  0  0  0  0  0  0  0  0  0  0  0
   10.9853  -15.0554   27.2884 C   0  0  0  0  0  0  0  0  0  0  0  0
   10.3264  -13.9484   26.7675 C   0  0  0  0  0  0  0  0  0  0  0  0
    9.7221  -13.0185   27.5779 C   0  0  0  0  0  0  0  0  0  0  0  0
    9.7841  -13.2092   28.9355 C   0  0  0  0  0  0  0  0  0  0  0  0
   10.4323  -14.3002   29.4809 C   0  0  0  0  0  0  0  0  0  0  0  0
   11.0376  -15.2306   28.6505 C   0  0  0  0  0  0  0  0  0  0  0  0
    9.5574  -17.4548   26.5904 C   0  0  0  0  0  0  0  0  0  0  0  0
    9.8155  -18.4712   27.4877 O   0  0  0  0  0  0  0  0  0  0  0  0
    8.3846  -17.0192   26.5245 O   0  0  0  0  0  0  0  0  0  0  0  0
  2  3  2  0
  2  1  1  0
  4  2  1  0
  5  4  1  0
  5  6  1  6
  7  8  2  0
  7  5  1  0
 10  9  1  6
 10 12  1  0
 11 10  1  0
 12 13  1  6
 13  7  1  0
 14 12  1  0
 14 15  2  0
 16 14  1  0
 17 16  1  0
 17 25  1  0
 17 18  1  1
 19 18  1  0
 20 19  2  0
 21 20  1  0
 22 21  2  0
 22 23  1  0
 23 24  2  0
 24 19  1  0
 25 26  1  0
 27 25  2  0
M  END
$$$$
