NVF.pdb
     RDKit          3D

 27 27  0  0  1  0  0  0  0  0999 V2000
   12.2637  -20.3104   19.3827 N   0  0  0  0  0  0  0  0  0  0  0  0
   13.1858  -19.3879   19.9079 C   0  0  0  0  0  0  0  0  0  0  0  0
   14.4098  -19.6006   19.7792 O   0  0  0  0  0  0  0  0  0  0  0  0
   12.7210  -18.1662   20.6125 C   0  0  0  0  0  0  0  0  0  0  0  0
   11.4929  -17.5969   19.9296 C   0  0  2  0  0  0  0  0  0  0  0  0
   11.8339  -16.9711   18.6708 N   0  0  0  0  0  0  0  0  0  0  0  0
   10.8137  -16.6039   20.8042 C   0  0  0  0  0  0  0  0  0  0  0  0
   11.5125  -15.6617   21.3139 O   0  0  0  0  0  0  0  0  0  0  0  0
    6.5660  -14.8249   22.5201 C   0  0  0  0  0  0  0  0  0  0  0  0
    7.3970  -15.5639   21.5162 C   0  0  1  0  0  0  0  0  0  0  0  0
    7.2217  -14.9898   20.1516 C   0  0  0  0  0  0  0  0  0  0  0  0
    8.8401  -15.6874   21.9718 C   0  0  2  0  0  0  0  0  0  0  0  0
    9.4255  -16.6863   21.0762 N   0  0  0  0  0  0  0  0  0  0  0  0
    8.9549  -16.1441   23.3873 C   0  0  0  0  0  0  0  0  0  0  0  0
    8.9191  -17.3971   23.6017 O   0  0  0  0  0  0  0  0  0  0  0  0
    9.0979  -15.1877   24.4203 N   0  0  0  0  0  0  0  0  0  0  0  0
    9.2308  -15.6781   25.8040 C   0  0  1  0  0  0  0  0  0  0  0  0
    9.5565  -14.4885   26.6375 C   0  0  0  0  0  0  0  0  0  0  0  0
    8.4438  -13.5168   26.6002 C   0  0  0  0  0  0  0  0  0  0  0  0
    8.2525  -12.6779   25.5090 C   0  0  0  0  0  0  0  0  0  0  0  0
    7.2195  -11.7737   25.4639 C   0  0  0  0  0  0  0  0  0  0  0  0
    6.3664  -11.7157   26.5372 C   0  0  0  0  0  0  0  0  0  0  0  0
    6.5326  -12.5373   27.6349 C   0  0  0  0  0  0  0  0  0  0  0  0
    7.5798  -13.4451   27.6665 C   0  0  0  0  0  0  0  0  0  0  0  0
    8.0318  -16.4301   26.1901 C   0  0  0  0  0  0  0  0  0  0  0  0
    6.8802  -16.4278   25.4294 O   0  0  0  0  0  0  0  0  0  0  0  0
    8.0317  -17.1047   27.2458 O   0  0  0  0  0  0  0  0  0  0  0  0
  2  3  2  0
  2  1  1  0
  4  2  1  0
  5  4  1  0
  5  6  1  6
  7  8  2  0
  7  5  1  0
 10  9  1  1
 10 12  1  0
 11 10  1  0
 12 13  1  6
 13  7  1  0
 14 12  1  0
 14 15  2  0
 16 14  1  0
 17 16  1  0
 17 25  1  0
 17 18  1  1
 19 18  1  0
 20 19  2  0
 21 20  1  0
 22 21  2  0
 22 23  1  0
 23 24  2  0
 24 19  1  0
 25 26  1  0
 27 25  2  0
M  END
$$$$
