NVF.pdb
     RDKit          3D

 27 27  0  0  1  0  0  0  0  0999 V2000
   11.4501  -20.3176   17.0644 N   0  0  0  0  0  0  0  0  0  0  0  0
   10.3011  -19.9972   17.8089 C   0  0  0  0  0  0  0  0  0  0  0  0
    9.4454  -20.8798   18.0299 O   0  0  0  0  0  0  0  0  0  0  0  0
   10.0947  -18.6238   18.3342 C   0  0  0  0  0  0  0  0  0  0  0  0
    9.8135  -18.6639   19.8235 C   0  0  2  0  0  0  0  0  0  0  0  0
    8.4998  -19.2047   20.0961 N   0  0  0  0  0  0  0  0  0  0  0  0
    9.9189  -17.3049   20.4187 C   0  0  0  0  0  0  0  0  0  0  0  0
   11.0510  -16.7106   20.3847 O   0  0  0  0  0  0  0  0  0  0  0  0
    7.6073  -13.3476   22.1845 C   0  0  0  0  0  0  0  0  0  0  0  0
    7.5943  -14.7325   21.6132 C   0  0  1  0  0  0  0  0  0  0  0  0
    6.8676  -14.7667   20.3120 C   0  0  0  0  0  0  0  0  0  0  0  0
    8.9887  -15.3322   21.5769 C   0  0  2  0  0  0  0  0  0  0  0  0
    8.8005  -16.6699   21.0133 N   0  0  0  0  0  0  0  0  0  0  0  0
    9.6022  -15.4334   22.9329 C   0  0  0  0  0  0  0  0  0  0  0  0
   10.8087  -15.0515   23.0583 O   0  0  0  0  0  0  0  0  0  0  0  0
    8.8362  -15.9387   24.0100 N   0  0  0  0  0  0  0  0  0  0  0  0
    9.4208  -15.8811   25.3620 C   0  0  1  0  0  0  0  0  0  0  0  0
    9.6963  -14.4439   25.6352 C   0  0  0  0  0  0  0  0  0  0  0  0
    8.4439  -13.7386   25.9781 C   0  0  0  0  0  0  0  0  0  0  0  0
    7.3315  -13.7944   25.1473 C   0  0  0  0  0  0  0  0  0  0  0  0
    6.1621  -13.1448   25.4591 C   0  0  0  0  0  0  0  0  0  0  0  0
    6.1153  -12.4274   26.6280 C   0  0  0  0  0  0  0  0  0  0  0  0
    7.2056  -12.3544   27.4727 C   0  0  0  0  0  0  0  0  0  0  0  0
    8.3792  -13.0153   27.1450 C   0  0  0  0  0  0  0  0  0  0  0  0
    8.5456  -16.5656   26.3198 C   0  0  0  0  0  0  0  0  0  0  0  0
    7.3550  -17.1542   25.9443 O   0  0  0  0  0  0  0  0  0  0  0  0
    8.8715  -16.6287   27.5278 O   0  0  0  0  0  0  0  0  0  0  0  0
  2  3  2  0
  2  1  1  0
  4  2  1  0
  5  4  1  0
  5  6  1  6
  7  8  2  0
  7  5  1  0
 10  9  1  6
 10 12  1  0
 11 10  1  0
 12 13  1  1
 13  7  1  0
 14 12  1  0
 14 15  2  0
 16 14  1  0
 17 16  1  0
 17 25  1  0
 17 18  1  1
 19 18  1  0
 20 19  2  0
 21 20  1  0
 22 21  2  0
 22 23  1  0
 23 24  2  0
 24 19  1  0
 25 26  1  0
 27 25  2  0
M  END
$$$$
