NVF.pdb
     RDKit          3D

 27 27  0  0  1  0  0  0  0  0999 V2000
    7.4257  -20.7664   19.9509 N   0  0  0  0  0  0  0  0  0  0  0  0
    8.7854  -20.4092   19.9811 C   0  0  0  0  0  0  0  0  0  0  0  0
    9.6352  -21.1806   19.4885 O   0  0  0  0  0  0  0  0  0  0  0  0
    9.2208  -19.1273   20.5912 C   0  0  0  0  0  0  0  0  0  0  0  0
    8.8809  -17.9651   19.6787 C   0  0  2  0  0  0  0  0  0  0  0  0
    9.5365  -18.0949   18.3957 N   0  0  0  0  0  0  0  0  0  0  0  0
    9.2709  -16.6719   20.3015 C   0  0  0  0  0  0  0  0  0  0  0  0
   10.5143  -16.3815   20.3760 O   0  0  0  0  0  0  0  0  0  0  0  0
    7.8536  -13.2934   19.4339 C   0  0  0  0  0  0  0  0  0  0  0  0
    7.7793  -13.4729   20.9194 C   0  0  1  0  0  0  0  0  0  0  0  0
    6.3725  -13.6923   21.3612 C   0  0  0  0  0  0  0  0  0  0  0  0
    8.7667  -14.5201   21.4032 C   0  0  2  0  0  0  0  0  0  0  0  0
    8.2994  -15.7718   20.8052 N   0  0  0  0  0  0  0  0  0  0  0  0
    8.7862  -14.6428   22.8898 C   0  0  0  0  0  0  0  0  0  0  0  0
    8.8495  -13.5664   23.5640 O   0  0  0  0  0  0  0  0  0  0  0  0
    8.7332  -15.9252   23.4855 N   0  0  0  0  0  0  0  0  0  0  0  0
    8.3004  -16.0178   24.8915 C   0  0  1  0  0  0  0  0  0  0  0  0
    6.9612  -15.3712   24.9580 C   0  0  0  0  0  0  0  0  0  0  0  0
    7.0097  -14.1816   25.8331 C   0  0  0  0  0  0  0  0  0  0  0  0
    8.2046  -13.7409   26.3891 C   0  0  0  0  0  0  0  0  0  0  0  0
    8.2601  -12.6345   27.2011 C   0  0  0  0  0  0  0  0  0  0  0  0
    7.0910  -11.9626   27.4560 C   0  0  0  0  0  0  0  0  0  0  0  0
    5.8891  -12.3781   26.9170 C   0  0  0  0  0  0  0  0  0  0  0  0
    5.8483  -13.4966   26.0991 C   0  0  0  0  0  0  0  0  0  0  0  0
    8.3705  -17.4094   25.3504 C   0  0  0  0  0  0  0  0  0  0  0  0
    8.7494  -17.7470   26.6339 O   0  0  0  0  0  0  0  0  0  0  0  0
    8.0810  -18.3408   24.5642 O   0  0  0  0  0  0  0  0  0  0  0  0
  2  3  2  0
  2  1  1  0
  4  2  1  0
  5  4  1  0
  5  6  1  6
  7  8  2  0
  7  5  1  0
 10  9  1  6
 10 12  1  0
 11 10  1  0
 12 13  1  6
 13  7  1  0
 14 12  1  0
 14 15  2  0
 16 14  1  0
 17 16  1  0
 17 25  1  0
 17 18  1  6
 19 18  1  0
 20 19  2  0
 21 20  1  0
 22 21  2  0
 22 23  1  0
 23 24  2  0
 24 19  1  0
 25 26  1  0
 27 25  2  0
M  END
$$$$
