NVF.pdb
     RDKit          3D

 27 27  0  0  1  0  0  0  0  0999 V2000
    8.3206  -11.4971   18.6114 N   0  0  0  0  0  0  0  0  0  0  0  0
    8.8643  -12.7382   18.9874 C   0  0  0  0  0  0  0  0  0  0  0  0
    9.8123  -13.2185   18.3312 O   0  0  0  0  0  0  0  0  0  0  0  0
    8.3247  -13.4821   20.1536 C   0  0  0  0  0  0  0  0  0  0  0  0
    8.1923  -14.9563   19.8252 C   0  0  2  0  0  0  0  0  0  0  0  0
    7.1599  -15.1843   18.8378 N   0  0  0  0  0  0  0  0  0  0  0  0
    7.8857  -15.7455   21.0482 C   0  0  0  0  0  0  0  0  0  0  0  0
    6.7038  -15.6839   21.5331 O   0  0  0  0  0  0  0  0  0  0  0  0
    8.8755  -19.7024   23.6395 C   0  0  0  0  0  0  0  0  0  0  0  0
    9.0445  -18.7591   22.4880 C   0  0  1  0  0  0  0  0  0  0  0  0
    8.5612  -19.3737   21.2187 C   0  0  0  0  0  0  0  0  0  0  0  0
    8.4553  -17.3940   22.7962 C   0  0  2  0  0  0  0  0  0  0  0  0
    8.8693  -16.5514   21.6733 N   0  0  0  0  0  0  0  0  0  0  0  0
    8.9705  -16.8255   24.0756 C   0  0  0  0  0  0  0  0  0  0  0  0
   10.1530  -16.3575   24.0727 O   0  0  0  0  0  0  0  0  0  0  0  0
    8.1428  -16.8255   25.2233 N   0  0  0  0  0  0  0  0  0  0  0  0
    8.6869  -16.2554   26.4690 C   0  0  1  0  0  0  0  0  0  0  0  0
    7.5432  -15.6002   27.1609 C   0  0  0  0  0  0  0  0  0  0  0  0
    7.2383  -14.3003   26.5278 C   0  0  0  0  0  0  0  0  0  0  0  0
    8.1154  -13.2266   26.6217 C   0  0  0  0  0  0  0  0  0  0  0  0
    7.8421  -12.0155   26.0341 C   0  0  0  0  0  0  0  0  0  0  0  0
    6.6648  -11.8864   25.3410 C   0  0  0  0  0  0  0  0  0  0  0  0
    5.7743  -12.9366   25.2315 C   0  0  0  0  0  0  0  0  0  0  0  0
    6.0636  -14.1532   25.8298 C   0  0  0  0  0  0  0  0  0  0  0  0
    9.3966  -17.2898   27.2295 C   0  0  0  0  0  0  0  0  0  0  0  0
    9.2156  -18.6374   26.9925 O   0  0  0  0  0  0  0  0  0  0  0  0
   10.2000  -16.9594   28.1321 O   0  0  0  0  0  0  0  0  0  0  0  0
  2  3  2  0
  2  1  1  0
  4  2  1  0
  5  4  1  0
  5  6  1  6
  7  8  2  0
  7  5  1  0
 10  9  1  1
 10 12  1  0
 11 10  1  0
 12 13  1  6
 13  7  1  0
 14 12  1  0
 14 15  2  0
 16 14  1  0
 17 16  1  0
 17 25  1  0
 17 18  1  1
 19 18  1  0
 20 19  2  0
 21 20  1  0
 22 21  2  0
 22 23  1  0
 23 24  2  0
 24 19  1  0
 25 26  1  0
 27 25  2  0
M  END
$$$$
