NVF.pdb
     RDKit          3D

 27 27  0  0  1  0  0  0  0  0999 V2000
   13.3998  -20.5289   20.0554 N   0  0  0  0  0  0  0  0  0  0  0  0
   12.2988  -19.7293   19.7007 C   0  0  0  0  0  0  0  0  0  0  0  0
   11.7386  -19.9079   18.5988 O   0  0  0  0  0  0  0  0  0  0  0  0
   11.7962  -18.6772   20.6201 C   0  0  0  0  0  0  0  0  0  0  0  0
   11.1216  -17.5684   19.8364 C   0  0  2  0  0  0  0  0  0  0  0  0
   12.0408  -16.9459   18.9089 N   0  0  0  0  0  0  0  0  0  0  0  0
   10.5706  -16.5334   20.7516 C   0  0  0  0  0  0  0  0  0  0  0  0
   11.3858  -15.8569   21.4684 O   0  0  0  0  0  0  0  0  0  0  0  0
    6.6520  -14.0136   22.3170 C   0  0  0  0  0  0  0  0  0  0  0  0
    7.4209  -14.7787   21.2836 C   0  0  1  0  0  0  0  0  0  0  0  0
    7.5970  -13.9715   20.0427 C   0  0  0  0  0  0  0  0  0  0  0  0
    8.7059  -15.3499   21.8563 C   0  0  2  0  0  0  0  0  0  0  0  0
    9.1773  -16.2906   20.8388 N   0  0  0  0  0  0  0  0  0  0  0  0
    8.4874  -16.0645   23.1474 C   0  0  0  0  0  0  0  0  0  0  0  0
    8.2248  -17.3075   23.0900 O   0  0  0  0  0  0  0  0  0  0  0  0
    8.5794  -15.3502   24.3654 N   0  0  0  0  0  0  0  0  0  0  0  0
    8.4098  -16.1009   25.6226 C   0  0  1  0  0  0  0  0  0  0  0  0
    8.8733  -15.1983   26.7118 C   0  0  0  0  0  0  0  0  0  0  0  0
    8.0542  -13.9687   26.7414 C   0  0  0  0  0  0  0  0  0  0  0  0
    6.6718  -14.0235   26.8708 C   0  0  0  0  0  0  0  0  0  0  0  0
    5.9024  -12.8860   26.9024 C   0  0  0  0  0  0  0  0  0  0  0  0
    6.5388  -11.6744   26.8016 C   0  0  0  0  0  0  0  0  0  0  0  0
    7.9113  -11.5901   26.6719 C   0  0  0  0  0  0  0  0  0  0  0  0
    8.6750  -12.7466   26.6416 C   0  0  0  0  0  0  0  0  0  0  0  0
    7.0330  -16.5949   25.7335 C   0  0  0  0  0  0  0  0  0  0  0  0
    6.6773  -17.6051   26.6041 O   0  0  0  0  0  0  0  0  0  0  0  0
    6.1319  -16.0960   25.0203 O   0  0  0  0  0  0  0  0  0  0  0  0
  2  3  2  0
  2  1  1  0
  4  2  1  0
  5  4  1  0
  5  6  1  6
  7  8  2  0
  7  5  1  0
 10  9  1  1
 10 12  1  0
 11 10  1  0
 12 13  1  6
 13  7  1  0
 14 12  1  0
 14 15  2  0
 16 14  1  0
 17 16  1  0
 17 25  1  0
 17 18  1  1
 19 18  1  0
 20 19  2  0
 21 20  1  0
 22 21  2  0
 22 23  1  0
 23 24  2  0
 24 19  1  0
 25 26  1  0
 27 25  2  0
M  END
$$$$
