NVF.pdb
     RDKit          3D

 27 27  0  0  1  0  0  0  0  0999 V2000
    7.7969  -12.1266   17.4416 N   0  0  0  0  0  0  0  0  0  0  0  0
    7.9548  -13.5233   17.4046 C   0  0  0  0  0  0  0  0  0  0  0  0
    8.5075  -14.0539   16.4182 O   0  0  0  0  0  0  0  0  0  0  0  0
    7.4727  -14.3724   18.5233 C   0  0  0  0  0  0  0  0  0  0  0  0
    8.4132  -14.2703   19.7080 C   0  0  2  0  0  0  0  0  0  0  0  0
    9.7464  -14.7111   19.3604 N   0  0  0  0  0  0  0  0  0  0  0  0
    7.9116  -15.0768   20.8528 C   0  0  0  0  0  0  0  0  0  0  0  0
    6.7146  -14.8806   21.2586 O   0  0  0  0  0  0  0  0  0  0  0  0
    7.6573  -18.7638   21.0962 C   0  0  0  0  0  0  0  0  0  0  0  0
    8.4794  -18.2653   22.2450 C   0  0  1  0  0  0  0  0  0  0  0  0
    9.9287  -18.5332   22.0206 C   0  0  0  0  0  0  0  0  0  0  0  0
    8.1460  -16.8230   22.5830 C   0  0  2  0  0  0  0  0  0  0  0  0
    8.7286  -16.0437   21.4895 N   0  0  0  0  0  0  0  0  0  0  0  0
    8.7334  -16.3912   23.8845 C   0  0  0  0  0  0  0  0  0  0  0  0
    9.8811  -15.8444   23.8547 O   0  0  0  0  0  0  0  0  0  0  0  0
    8.0079  -16.5992   25.0814 N   0  0  0  0  0  0  0  0  0  0  0  0
    8.6457  -16.2137   26.3532 C   0  0  1  0  0  0  0  0  0  0  0  0
    7.5927  -15.5360   27.1581 C   0  0  0  0  0  0  0  0  0  0  0  0
    7.3767  -14.1601   26.6643 C   0  0  0  0  0  0  0  0  0  0  0  0
    8.3249  -13.1636   26.8617 C   0  0  0  0  0  0  0  0  0  0  0  0
    8.1344  -11.8827   26.4037 C   0  0  0  0  0  0  0  0  0  0  0  0
    6.9684  -11.6035   25.7362 C   0  0  0  0  0  0  0  0  0  0  0  0
    6.0085  -12.5742   25.5258 C   0  0  0  0  0  0  0  0  0  0  0  0
    6.2145  -13.8627   25.9937 C   0  0  0  0  0  0  0  0  0  0  0  0
    9.2825  -17.3811   26.9726 C   0  0  0  0  0  0  0  0  0  0  0  0
   10.2627  -17.2643   27.9372 O   0  0  0  0  0  0  0  0  0  0  0  0
    8.9394  -18.5354   26.6270 O   0  0  0  0  0  0  0  0  0  0  0  0
  2  3  2  0
  2  1  1  0
  4  2  1  0
  5  4  1  0
  5  6  1  6
  7  8  2  0
  7  5  1  0
 10  9  1  6
 10 12  1  0
 11 10  1  0
 12 13  1  6
 13  7  1  0
 14 12  1  0
 14 15  2  0
 16 14  1  0
 17 16  1  0
 17 25  1  0
 17 18  1  1
 19 18  1  0
 20 19  2  0
 21 20  1  0
 22 21  2  0
 22 23  1  0
 23 24  2  0
 24 19  1  0
 25 26  1  0
 27 25  2  0
M  END
$$$$
