NVF.pdb
     RDKit          3D

 27 27  0  0  1  0  0  0  0  0999 V2000
    7.9645  -20.0813   17.6687 N   0  0  0  0  0  0  0  0  0  0  0  0
    9.3268  -19.9812   18.0024 C   0  0  0  0  0  0  0  0  0  0  0  0
   10.1658  -20.6580   17.3716 O   0  0  0  0  0  0  0  0  0  0  0  0
    9.7775  -19.0816   19.0943 C   0  0  0  0  0  0  0  0  0  0  0  0
    9.7952  -17.6417   18.6197 C   0  0  2  0  0  0  0  0  0  0  0  0
   10.9670  -17.3671   17.8172 N   0  0  0  0  0  0  0  0  0  0  0  0
    9.7587  -16.7038   19.7736 C   0  0  0  0  0  0  0  0  0  0  0  0
   10.8569  -16.4232   20.3661 O   0  0  0  0  0  0  0  0  0  0  0  0
    7.0894  -13.5790   22.4836 C   0  0  0  0  0  0  0  0  0  0  0  0
    7.3682  -14.3463   21.2275 C   0  0  1  0  0  0  0  0  0  0  0  0
    7.3995  -13.4403   20.0440 C   0  0  0  0  0  0  0  0  0  0  0  0
    8.5901  -15.2351   21.3783 C   0  0  2  0  0  0  0  0  0  0  0  0
    8.5436  -16.1262   20.2181 N   0  0  0  0  0  0  0  0  0  0  0  0
    8.5616  -16.0361   22.6364 C   0  0  0  0  0  0  0  0  0  0  0  0
    7.7928  -17.0487   22.6669 O   0  0  0  0  0  0  0  0  0  0  0  0
    9.3747  -15.6506   23.7284 N   0  0  0  0  0  0  0  0  0  0  0  0
    9.4602  -16.5625   24.8834 C   0  0  1  0  0  0  0  0  0  0  0  0
   10.6167  -16.0965   25.6966 C   0  0  0  0  0  0  0  0  0  0  0  0
   10.2068  -14.9857   26.5807 C   0  0  0  0  0  0  0  0  0  0  0  0
    9.5338  -13.8763   26.0836 C   0  0  0  0  0  0  0  0  0  0  0  0
    9.1459  -12.8404   26.8981 C   0  0  0  0  0  0  0  0  0  0  0  0
    9.4423  -12.9261   28.2352 C   0  0  0  0  0  0  0  0  0  0  0  0
   10.1103  -14.0168   28.7567 C   0  0  0  0  0  0  0  0  0  0  0  0
   10.4955  -15.0549   27.9226 C   0  0  0  0  0  0  0  0  0  0  0  0
    8.1673  -16.6252   25.5737 C   0  0  0  0  0  0  0  0  0  0  0  0
    7.0942  -15.8384   25.2073 O   0  0  0  0  0  0  0  0  0  0  0  0
    8.0106  -17.4143   26.5340 O   0  0  0  0  0  0  0  0  0  0  0  0
  2  3  2  0
  2  1  1  0
  4  2  1  0
  5  4  1  0
  5  6  1  1
  7  8  2  0
  7  5  1  0
 10  9  1  1
 10 12  1  0
 11 10  1  0
 12 13  1  6
 13  7  1  0
 14 12  1  0
 14 15  2  0
 16 14  1  0
 17 16  1  0
 17 25  1  0
 17 18  1  1
 19 18  1  0
 20 19  2  0
 21 20  1  0
 22 21  2  0
 22 23  1  0
 23 24  2  0
 24 19  1  0
 25 26  1  0
 27 25  2  0
M  END
$$$$
