NVF.pdb
     RDKit          3D

 27 27  0  0  1  0  0  0  0  0999 V2000
    4.8241  -18.8746   22.2509 N   0  0  0  0  0  0  0  0  0  0  0  0
    5.7226  -19.7134   21.5679 C   0  0  0  0  0  0  0  0  0  0  0  0
    5.3506  -20.8502   21.2084 O   0  0  0  0  0  0  0  0  0  0  0  0
    7.1058  -19.2631   21.2701 C   0  0  0  0  0  0  0  0  0  0  0  0
    7.1072  -18.2961   20.1023 C   0  0  2  0  0  0  0  0  0  0  0  0
    7.5496  -18.9417   18.8857 N   0  0  0  0  0  0  0  0  0  0  0  0
    7.9822  -17.1269   20.3846 C   0  0  0  0  0  0  0  0  0  0  0  0
    9.2467  -17.2652   20.2505 O   0  0  0  0  0  0  0  0  0  0  0  0
    6.3586  -13.3347   20.8588 C   0  0  0  0  0  0  0  0  0  0  0  0
    7.7589  -13.5794   20.3859 C   0  0  1  0  0  0  0  0  0  0  0  0
    8.5753  -12.3347   20.4673 C   0  0  0  0  0  0  0  0  0  0  0  0
    8.3740  -14.7872   21.0703 C   0  0  2  0  0  0  0  0  0  0  0  0
    7.4429  -15.8821   20.7936 N   0  0  0  0  0  0  0  0  0  0  0  0
    8.5140  -14.5987   22.5435 C   0  0  0  0  0  0  0  0  0  0  0  0
    7.9970  -13.5534   23.0505 O   0  0  0  0  0  0  0  0  0  0  0  0
    9.2014  -15.5697   23.3096 N   0  0  0  0  0  0  0  0  0  0  0  0
    9.1600  -15.4490   24.7781 C   0  0  1  0  0  0  0  0  0  0  0  0
    7.7239  -15.5293   25.1618 C   0  0  0  0  0  0  0  0  0  0  0  0
    7.2793  -14.2498   25.7524 C   0  0  0  0  0  0  0  0  0  0  0  0
    5.9436  -13.8674   25.7279 C   0  0  0  0  0  0  0  0  0  0  0  0
    5.5203  -12.6816   26.2770 C   0  0  0  0  0  0  0  0  0  0  0  0
    6.4603  -11.8692   26.8596 C   0  0  0  0  0  0  0  0  0  0  0  0
    7.7947  -12.2239   26.8982 C   0  0  0  0  0  0  0  0  0  0  0  0
    8.2072  -13.4238   26.3401 C   0  0  0  0  0  0  0  0  0  0  0  0
   10.0500  -16.4410   25.3913 C   0  0  0  0  0  0  0  0  0  0  0  0
   10.7072  -16.2090   26.5825 O   0  0  0  0  0  0  0  0  0  0  0  0
   10.2348  -17.5451   24.8290 O   0  0  0  0  0  0  0  0  0  0  0  0
  2  3  2  0
  2  1  1  0
  4  2  1  0
  5  4  1  0
  5  6  1  6
  7  8  2  0
  7  5  1  0
 10  9  1  1
 10 12  1  0
 11 10  1  0
 12 13  1  1
 13  7  1  0
 14 12  1  0
 14 15  2  0
 16 14  1  0
 17 16  1  0
 17 25  1  0
 17 18  1  1
 19 18  1  0
 20 19  2  0
 21 20  1  0
 22 21  2  0
 22 23  1  0
 23 24  2  0
 24 19  1  0
 25 26  1  0
 27 25  2  0
M  END
$$$$
