NVF.pdb
     RDKit          3D

 27 27  0  0  1  0  0  0  0  0999 V2000
    7.2818  -12.9769   16.7923 N   0  0  0  0  0  0  0  0  0  0  0  0
    8.0112  -12.9899   17.9944 C   0  0  0  0  0  0  0  0  0  0  0  0
    9.0690  -12.3312   18.0793 O   0  0  0  0  0  0  0  0  0  0  0  0
    7.5384  -13.7768   19.1615 C   0  0  0  0  0  0  0  0  0  0  0  0
    8.7026  -14.1349   20.0645 C   0  0  2  0  0  0  0  0  0  0  0  0
    9.8022  -14.6929   19.3081 N   0  0  0  0  0  0  0  0  0  0  0  0
    8.2822  -15.1058   21.1099 C   0  0  0  0  0  0  0  0  0  0  0  0
    7.1569  -14.9268   21.6911 O   0  0  0  0  0  0  0  0  0  0  0  0
    9.0065  -19.4970   23.1712 C   0  0  0  0  0  0  0  0  0  0  0  0
    9.1640  -18.4868   22.0761 C   0  0  1  0  0  0  0  0  0  0  0  0
    8.6510  -19.0184   20.7813 C   0  0  0  0  0  0  0  0  0  0  0  0
    8.5949  -17.1377   22.4780 C   0  0  2  0  0  0  0  0  0  0  0  0
    9.0980  -16.2086   21.4650 N   0  0  0  0  0  0  0  0  0  0  0  0
    9.0481  -16.7075   23.8326 C   0  0  0  0  0  0  0  0  0  0  0  0
   10.2511  -16.3115   23.9477 O   0  0  0  0  0  0  0  0  0  0  0  0
    8.1426  -16.7525   24.9189 N   0  0  0  0  0  0  0  0  0  0  0  0
    8.6081  -16.2619   26.2287 C   0  0  1  0  0  0  0  0  0  0  0  0
    7.4330  -15.6119   26.8710 C   0  0  0  0  0  0  0  0  0  0  0  0
    7.3166  -14.2081   26.4245 C   0  0  0  0  0  0  0  0  0  0  0  0
    6.0843  -13.6496   26.1077 C   0  0  0  0  0  0  0  0  0  0  0  0
    5.9658  -12.3449   25.6948 C   0  0  0  0  0  0  0  0  0  0  0  0
    7.1094  -11.5924   25.6001 C   0  0  0  0  0  0  0  0  0  0  0  0
    8.3475  -12.1215   25.9085 C   0  0  0  0  0  0  0  0  0  0  0  0
    8.4517  -13.4398   26.3239 C   0  0  0  0  0  0  0  0  0  0  0  0
    9.2361  -17.3528   26.9821 C   0  0  0  0  0  0  0  0  0  0  0  0
   10.1437  -17.1245   27.9966 O   0  0  0  0  0  0  0  0  0  0  0  0
    8.9530  -18.5424   26.7100 O   0  0  0  0  0  0  0  0  0  0  0  0
  2  3  2  0
  2  1  1  0
  4  2  1  0
  5  4  1  0
  5  6  1  6
  7  8  2  0
  7  5  1  0
 10  9  1  1
 10 12  1  0
 11 10  1  0
 12 13  1  6
 13  7  1  0
 14 12  1  0
 14 15  2  0
 16 14  1  0
 17 16  1  0
 17 25  1  0
 17 18  1  1
 19 18  1  0
 20 19  2  0
 21 20  1  0
 22 21  2  0
 22 23  1  0
 23 24  2  0
 24 19  1  0
 25 26  1  0
 27 25  2  0
M  END
$$$$
