ETH.pdb
     RDKit          3D

 27 27  0  0  1  0  0  0  0  0999 V2000
   20.7961  -16.2605  -15.9897 N   0  0  0  0  0  0  0  0  0  0  0  0
   20.1929  -15.1312  -16.6572 C   0  0  1  0  0  0  0  0  0  0  0  0
   18.6993  -15.0872  -16.4917 C   0  0  0  0  0  0  0  0  0  0  0  0
   17.9439  -16.2435  -17.0154 C   0  0  0  0  0  0  0  0  0  0  0  0
   16.4955  -16.0907  -16.8258 C   0  0  0  0  0  0  0  0  0  0  0  0
   15.8848  -15.0828  -17.2202 O   0  0  0  0  0  0  0  0  0  0  0  0
   20.7298  -13.8945  -16.0566 C   0  0  0  0  0  0  0  0  0  0  0  0
   20.6888  -13.7355  -14.8210 O   0  0  0  0  0  0  0  0  0  0  0  0
   15.8093  -17.1212  -16.1817 O   0  0  0  0  0  0  0  0  0  0  0  0
   23.9967  -12.6462  -15.7843 C   0  0  0  0  0  0  0  0  0  0  0  0
   23.2866  -11.5599  -16.5454 C   0  0  1  0  0  0  0  0  0  0  0  0
   23.4522  -11.7353  -17.9170 O   0  0  0  0  0  0  0  0  0  0  0  0
   21.8090  -11.6883  -16.2552 C   0  0  2  0  0  0  0  0  0  0  0  0
   21.2874  -12.8949  -16.8756 N   0  0  0  0  0  0  0  0  0  0  0  0
   21.0364  -10.5348  -16.8347 C   0  0  0  0  0  0  0  0  0  0  0  0
   20.6958  -10.5006  -18.0475 O   0  0  0  0  0  0  0  0  0  0  0  0
   20.6617   -9.4376  -16.0306 N   0  0  0  0  0  0  0  0  0  0  0  0
   20.0134   -8.2492  -16.5695 C   0  0  1  0  0  0  0  0  0  0  0  0
   18.9469   -7.7979  -15.6211 C   0  0  0  0  0  0  0  0  0  0  0  0
   18.2072   -6.6628  -16.1591 C   0  0  0  0  0  0  0  0  0  0  0  0
   18.4023   -6.1530  -17.4403 C   0  0  0  0  0  0  0  0  0  0  0  0
   17.5555   -5.1192  -17.5908 N   0  0  0  0  0  0  0  0  0  0  0  0
   16.8545   -4.9838  -16.4476 C   0  0  0  0  0  0  0  0  0  0  0  0
   17.2624   -5.9243  -15.5964 N   0  0  0  0  0  0  0  0  0  0  0  0
   20.9915   -7.1772  -16.8276 C   0  0  0  0  0  0  0  0  0  0  0  0
   20.7001   -6.2116  -17.7680 O   0  0  0  0  0  0  0  0  0  0  0  0
   22.1097   -7.0843  -16.2289 O   0  0  0  0  0  0  0  0  0  0  0  0
  2  1  1  1
  2  3  1  0
  4  5  1  0
  4  3  1  0
  5  6  2  0
  7 14  1  0
  7  2  1  0
  8  7  2  0
  9  5  1  0
 11 10  1  1
 11 12  1  0
 13 14  1  6
 13 11  1  0
 15 13  1  0
 16 15  2  0
 17 15  1  0
 18 19  1  1
 18 17  1  0
 19 20  1  0
 20 21  2  0
 21 22  1  0
 23 22  1  0
 24 20  1  0
 24 23  2  0
 25 26  1  0
 25 18  1  0
 27 25  2  0
M  END
$$$$
