ETH.pdb
     RDKit          3D

 27 27  0  0  1  0  0  0  0  0999 V2000
   18.3587  -14.4371  -18.4584 N   0  0  0  0  0  0  0  0  0  0  0  0
   19.0631  -13.7280  -17.4164 C   0  0  1  0  0  0  0  0  0  0  0  0
   20.5530  -13.7275  -17.6176 C   0  0  0  0  0  0  0  0  0  0  0  0
   21.0317  -13.5037  -18.9969 C   0  0  0  0  0  0  0  0  0  0  0  0
   22.4980  -13.4905  -19.0791 C   0  0  0  0  0  0  0  0  0  0  0  0
   23.1151  -12.5730  -19.6463 O   0  0  0  0  0  0  0  0  0  0  0  0
   18.6252  -12.3186  -17.4347 C   0  0  0  0  0  0  0  0  0  0  0  0
   18.6423  -11.6768  -18.5031 O   0  0  0  0  0  0  0  0  0  0  0  0
   23.1940  -14.5501  -18.4956 O   0  0  0  0  0  0  0  0  0  0  0  0
   15.3422  -11.0272  -16.1708 C   0  0  0  0  0  0  0  0  0  0  0  0
   16.4162  -10.2286  -15.4837 C   0  0  1  0  0  0  0  0  0  0  0  0
   16.7023  -10.7687  -14.2324 O   0  0  0  0  0  0  0  0  0  0  0  0
   17.6732  -10.3408  -16.3152 C   0  0  2  0  0  0  0  0  0  0  0  0
   18.1888  -11.6982  -16.2492 N   0  0  0  0  0  0  0  0  0  0  0  0
   18.7575   -9.4397  -15.7902 C   0  0  0  0  0  0  0  0  0  0  0  0
   19.6563   -9.8586  -15.0126 O   0  0  0  0  0  0  0  0  0  0  0  0
   18.8064   -8.0776  -16.1547 N   0  0  0  0  0  0  0  0  0  0  0  0
   19.7347   -7.1316  -15.5495 C   0  0  1  0  0  0  0  0  0  0  0  0
   20.0560   -6.0559  -16.5396 C   0  0  0  0  0  0  0  0  0  0  0  0
   20.9632   -5.0671  -15.9699 C   0  0  0  0  0  0  0  0  0  0  0  0
   22.1289   -5.3962  -15.2827 C   0  0  0  0  0  0  0  0  0  0  0  0
   22.7078   -4.2426  -14.9052 N   0  0  0  0  0  0  0  0  0  0  0  0
   21.9354   -3.2265  -15.3385 C   0  0  0  0  0  0  0  0  0  0  0  0
   20.8878   -3.7447  -15.9784 N   0  0  0  0  0  0  0  0  0  0  0  0
   19.1867   -6.5679  -14.3027 C   0  0  0  0  0  0  0  0  0  0  0  0
   20.0379   -6.3100  -13.2489 O   0  0  0  0  0  0  0  0  0  0  0  0
   17.9552   -6.3006  -14.1318 O   0  0  0  0  0  0  0  0  0  0  0  0
  2  1  1  6
  2  3  1  0
  4  5  1  0
  4  3  1  0
  5  6  2  0
  7 14  1  0
  7  2  1  0
  8  7  2  0
  9  5  1  0
 11 10  1  6
 11 12  1  0
 13 14  1  1
 13 11  1  0
 15 13  1  0
 16 15  2  0
 17 15  1  0
 18 19  1  6
 18 17  1  0
 19 20  1  0
 20 21  2  0
 21 22  1  0
 23 22  1  0
 24 20  1  0
 24 23  2  0
 25 26  1  0
 25 18  1  0
 27 25  2  0
M  END
$$$$
