ETH.pdb
     RDKit          3D

 27 27  0  0  1  0  0  0  0  0999 V2000
   44.8760  -13.4971   -7.7492 N   0  0  0  0  0  0  0  0  0  0  0  0
   44.8548  -12.2980   -8.5532 C   0  0  1  0  0  0  0  0  0  0  0  0
   44.5425  -12.5717   -9.9982 C   0  0  0  0  0  0  0  0  0  0  0  0
   43.2723  -13.2723  -10.2766 C   0  0  0  0  0  0  0  0  0  0  0  0
   43.0703  -13.5032  -11.7129 C   0  0  0  0  0  0  0  0  0  0  0  0
   43.8952  -14.1302  -12.3990 O   0  0  0  0  0  0  0  0  0  0  0  0
   43.7895  -11.4136   -8.0420 C   0  0  0  0  0  0  0  0  0  0  0  0
   42.6642  -11.8827   -7.7824 O   0  0  0  0  0  0  0  0  0  0  0  0
   41.9110  -12.9936  -12.2992 O   0  0  0  0  0  0  0  0  0  0  0  0
   44.3176   -8.5934   -5.4174 C   0  0  0  0  0  0  0  0  0  0  0  0
   43.5495   -8.0311   -6.5825 C   0  0  1  0  0  0  0  0  0  0  0  0
   44.4024   -7.3505   -7.4477 O   0  0  0  0  0  0  0  0  0  0  0  0
   42.9693   -9.1947   -7.3529 C   0  0  2  0  0  0  0  0  0  0  0  0
   44.0413  -10.0427   -7.8473 N   0  0  0  0  0  0  0  0  0  0  0  0
   42.1999   -8.7233   -8.5567 C   0  0  0  0  0  0  0  0  0  0  0  0
   42.4300   -9.1680   -9.7131 O   0  0  0  0  0  0  0  0  0  0  0  0
   41.1816   -7.7548   -8.4313 N   0  0  0  0  0  0  0  0  0  0  0  0
   40.3199   -7.3675   -9.5406 C   0  0  1  0  0  0  0  0  0  0  0  0
   39.5292   -8.5571   -9.9879 C   0  0  0  0  0  0  0  0  0  0  0  0
   38.6240   -8.2109  -11.0769 C   0  0  0  0  0  0  0  0  0  0  0  0
   38.5682   -6.9477  -11.6607 C   0  0  0  0  0  0  0  0  0  0  0  0
   37.6293   -6.9946  -12.6224 N   0  0  0  0  0  0  0  0  0  0  0  0
   37.1141   -8.2400  -12.6426 C   0  0  0  0  0  0  0  0  0  0  0  0
   37.7273   -8.9584  -11.7028 N   0  0  0  0  0  0  0  0  0  0  0  0
   39.4390   -6.2463   -9.1672 C   0  0  0  0  0  0  0  0  0  0  0  0
   39.2820   -5.1925  -10.0426 O   0  0  0  0  0  0  0  0  0  0  0  0
   38.8033   -6.1858   -8.0674 O   0  0  0  0  0  0  0  0  0  0  0  0
  2  1  1  1
  2  3  1  0
  4  5  1  0
  4  3  1  0
  5  6  2  0
  7 14  1  0
  7  2  1  0
  8  7  2  0
  9  5  1  0
 11 10  1  1
 11 12  1  0
 13 14  1  6
 13 11  1  0
 15 13  1  0
 16 15  2  0
 17 15  1  0
 18 19  1  1
 18 17  1  0
 19 20  1  0
 20 21  2  0
 21 22  1  0
 23 22  1  0
 24 20  1  0
 24 23  2  0
 25 26  1  0
 25 18  1  0
 27 25  2  0
M  END
$$$$
