ETH.pdb
     RDKit          3D

 27 27  0  0  1  0  0  0  0  0999 V2000
   28.3600  -20.1037  -15.0337 N   0  0  0  0  0  0  0  0  0  0  0  0
   27.2134  -20.2561  -15.8980 C   0  0  1  0  0  0  0  0  0  0  0  0
   27.5135  -21.0727  -17.1242 C   0  0  0  0  0  0  0  0  0  0  0  0
   28.6960  -21.9552  -17.0551 C   0  0  0  0  0  0  0  0  0  0  0  0
   28.3406  -23.3291  -16.6768 C   0  0  0  0  0  0  0  0  0  0  0  0
   27.1613  -23.6739  -16.4902 O   0  0  0  0  0  0  0  0  0  0  0  0
   26.1596  -20.9707  -15.1515 C   0  0  0  0  0  0  0  0  0  0  0  0
   26.4711  -21.8561  -14.3313 O   0  0  0  0  0  0  0  0  0  0  0  0
   29.3752  -24.2538  -16.5292 O   0  0  0  0  0  0  0  0  0  0  0  0
   25.3474  -21.3198  -12.6596 C   0  0  0  0  0  0  0  0  0  0  0  0
   23.9766  -20.8772  -13.0938 C   0  0  1  0  0  0  0  0  0  0  0  0
   23.8751  -19.4889  -13.0524 O   0  0  0  0  0  0  0  0  0  0  0  0
   23.7959  -21.2941  -14.5352 C   0  0  2  0  0  0  0  0  0  0  0  0
   24.8046  -20.6548  -15.3638 N   0  0  0  0  0  0  0  0  0  0  0  0
   22.4582  -20.8567  -15.0666 C   0  0  0  0  0  0  0  0  0  0  0  0
   22.3495  -20.1564  -16.1086 O   0  0  0  0  0  0  0  0  0  0  0  0
   21.2640  -21.2197  -14.4086 N   0  0  0  0  0  0  0  0  0  0  0  0
   19.9438  -20.9233  -14.9490 C   0  0  1  0  0  0  0  0  0  0  0  0
   19.8145  -21.5492  -16.3026 C   0  0  0  0  0  0  0  0  0  0  0  0
   18.5252  -21.2380  -16.9078 C   0  0  0  0  0  0  0  0  0  0  0  0
   17.3273  -21.2102  -16.1980 C   0  0  0  0  0  0  0  0  0  0  0  0
   16.3552  -20.8895  -17.0701 N   0  0  0  0  0  0  0  0  0  0  0  0
   16.9201  -20.7220  -18.2823 C   0  0  0  0  0  0  0  0  0  0  0  0
   18.2298  -20.9367  -18.1633 N   0  0  0  0  0  0  0  0  0  0  0  0
   18.8784  -21.3837  -14.0404 C   0  0  0  0  0  0  0  0  0  0  0  0
   17.7809  -20.5768  -13.8257 O   0  0  0  0  0  0  0  0  0  0  0  0
   18.9073  -22.4978  -13.4279 O   0  0  0  0  0  0  0  0  0  0  0  0
  2  1  1  1
  2  3  1  0
  4  5  1  0
  4  3  1  0
  5  6  2  0
  7 14  1  0
  7  2  1  0
  8  7  2  0
  9  5  1  0
 11 10  1  6
 11 12  1  0
 13 14  1  6
 13 11  1  0
 15 13  1  0
 16 15  2  0
 17 15  1  0
 18 19  1  6
 18 17  1  0
 19 20  1  0
 20 21  2  0
 21 22  1  0
 23 22  1  0
 24 20  1  0
 24 23  2  0
 25 26  1  0
 25 18  1  0
 27 25  2  0
M  END
$$$$
