ETH.pdb
     RDKit          3D

 27 27  0  0  1  0  0  0  0  0999 V2000
   24.9861  -21.4126  -13.7774 N   0  0  0  0  0  0  0  0  0  0  0  0
   24.2334  -20.8205  -14.8581 C   0  0  1  0  0  0  0  0  0  0  0  0
   22.9011  -21.4837  -15.0710 C   0  0  0  0  0  0  0  0  0  0  0  0
   22.0200  -21.5868  -13.8900 C   0  0  0  0  0  0  0  0  0  0  0  0
   20.7362  -22.2242  -14.2105 C   0  0  0  0  0  0  0  0  0  0  0  0
   19.7099  -22.0034  -13.5454 O   0  0  0  0  0  0  0  0  0  0  0  0
   23.9634  -19.4097  -14.5188 C   0  0  0  0  0  0  0  0  0  0  0  0
   23.6800  -19.0962  -13.3461 O   0  0  0  0  0  0  0  0  0  0  0  0
   20.6949  -23.0981  -15.2977 O   0  0  0  0  0  0  0  0  0  0  0  0
   26.0426  -16.2840  -15.5498 C   0  0  0  0  0  0  0  0  0  0  0  0
   24.6140  -16.1125  -15.9896 C   0  0  1  0  0  0  0  0  0  0  0  0
   24.4604  -16.5057  -17.3166 O   0  0  0  0  0  0  0  0  0  0  0  0
   23.7623  -17.0364  -15.1498 C   0  0  2  0  0  0  0  0  0  0  0  0
   24.0251  -18.4183  -15.5159 N   0  0  0  0  0  0  0  0  0  0  0  0
   22.2966  -16.7962  -15.3894 C   0  0  0  0  0  0  0  0  0  0  0  0
   21.4663  -17.7419  -15.4542 O   0  0  0  0  0  0  0  0  0  0  0  0
   21.7946  -15.4877  -15.5519 N   0  0  0  0  0  0  0  0  0  0  0  0
   20.3781  -15.1660  -15.4376 C   0  0  1  0  0  0  0  0  0  0  0  0
   19.8919  -15.5619  -14.0783 C   0  0  0  0  0  0  0  0  0  0  0  0
   18.4598  -15.3274  -13.9403 C   0  0  0  0  0  0  0  0  0  0  0  0
   17.5202  -15.7131  -14.8932 C   0  0  0  0  0  0  0  0  0  0  0  0
   16.3122  -15.3394  -14.4354 N   0  0  0  0  0  0  0  0  0  0  0  0
   16.4854  -14.7412  -13.2400 C   0  0  0  0  0  0  0  0  0  0  0  0
   17.7880  -14.7439  -12.9591 N   0  0  0  0  0  0  0  0  0  0  0  0
   20.1313  -13.7370  -15.7012 C   0  0  0  0  0  0  0  0  0  0  0  0
   21.1993  -12.8656  -15.7431 O   0  0  0  0  0  0  0  0  0  0  0  0
   18.9744  -13.2456  -15.8943 O   0  0  0  0  0  0  0  0  0  0  0  0
  2  1  1  1
  2  3  1  0
  4  5  1  0
  4  3  1  0
  5  6  2  0
  7 14  1  0
  7  2  1  0
  8  7  2  0
  9  5  1  0
 11 10  1  1
 11 12  1  0
 13 14  1  6
 13 11  1  0
 15 13  1  0
 16 15  2  0
 17 15  1  0
 18 19  1  1
 18 17  1  0
 19 20  1  0
 20 21  2  0
 21 22  1  0
 23 22  1  0
 24 20  1  0
 24 23  2  0
 25 26  1  0
 25 18  1  0
 27 25  2  0
M  END
$$$$
