ETH.pdb
     RDKit          3D

 27 27  0  0  1  0  0  0  0  0999 V2000
   28.6832  -38.2968   -4.1156 N   0  0  0  0  0  0  0  0  0  0  0  0
   29.4925  -37.3549   -3.3790 C   0  0  1  0  0  0  0  0  0  0  0  0
   29.1529  -35.9246   -3.6942 C   0  0  0  0  0  0  0  0  0  0  0  0
   29.3816  -35.4841   -5.0854 C   0  0  0  0  0  0  0  0  0  0  0  0
   28.9607  -34.0939   -5.3027 C   0  0  0  0  0  0  0  0  0  0  0  0
   28.4822  -33.4027   -4.3875 O   0  0  0  0  0  0  0  0  0  0  0  0
   29.2391  -37.5506   -1.9382 C   0  0  0  0  0  0  0  0  0  0  0  0
   28.0696  -37.6708   -1.5239 O   0  0  0  0  0  0  0  0  0  0  0  0
   29.1133  -33.5581   -6.5822 O   0  0  0  0  0  0  0  0  0  0  0  0
   30.1160  -40.2953    0.0597 C   0  0  0  0  0  0  0  0  0  0  0  0
   30.7564  -39.1450    0.7879 C   0  0  1  0  0  0  0  0  0  0  0  0
   32.0891  -39.0070    0.4084 O   0  0  0  0  0  0  0  0  0  0  0  0
   30.0406  -37.8818    0.3682 C   0  0  2  0  0  0  0  0  0  0  0  0
   30.3145  -37.6017   -1.0316 N   0  0  0  0  0  0  0  0  0  0  0  0
   30.5271  -36.6927    1.1509 C   0  0  0  0  0  0  0  0  0  0  0  0
   30.8853  -35.6234    0.5884 O   0  0  0  0  0  0  0  0  0  0  0  0
   30.6002  -36.7338    2.5593 N   0  0  0  0  0  0  0  0  0  0  0  0
   31.1150  -35.6275    3.3555 C   0  0  1  0  0  0  0  0  0  0  0  0
   30.2478  -34.4255    3.1462 C   0  0  0  0  0  0  0  0  0  0  0  0
   30.6915  -33.3045    3.9658 C   0  0  0  0  0  0  0  0  0  0  0  0
   31.7169  -32.4377    3.5960 C   0  0  0  0  0  0  0  0  0  0  0  0
   31.8507  -31.5349    4.5837 N   0  0  0  0  0  0  0  0  0  0  0  0
   30.9440  -31.8230    5.5385 C   0  0  0  0  0  0  0  0  0  0  0  0
   30.2546  -32.8939    5.1469 N   0  0  0  0  0  0  0  0  0  0  0  0
   31.1976  -35.9885    4.7822 C   0  0  0  0  0  0  0  0  0  0  0  0
   31.7882  -35.1101    5.6661 O   0  0  0  0  0  0  0  0  0  0  0  0
   30.7525  -37.0799    5.2598 O   0  0  0  0  0  0  0  0  0  0  0  0
  2  1  1  6
  2  3  1  0
  4  5  1  0
  4  3  1  0
  5  6  2  0
  7 14  1  0
  7  2  1  0
  8  7  2  0
  9  5  1  0
 11 10  1  6
 11 12  1  0
 13 14  1  6
 13 11  1  0
 15 13  1  0
 16 15  2  0
 17 15  1  0
 18 19  1  1
 18 17  1  0
 19 20  1  0
 20 21  2  0
 21 22  1  0
 23 22  1  0
 24 20  1  0
 24 23  2  0
 25 26  1  0
 25 18  1  0
 27 25  2  0
M  END
$$$$
