ETH.pdb
     RDKit          3D

 27 27  0  0  1  0  0  0  0  0999 V2000
   26.2828  -20.5863  -15.1585 N   0  0  0  0  0  0  0  0  0  0  0  0
   24.9331  -20.2559  -15.5508 C   0  0  1  0  0  0  0  0  0  0  0  0
   23.9194  -21.2373  -15.0314 C   0  0  0  0  0  0  0  0  0  0  0  0
   22.5095  -20.9798  -15.3888 C   0  0  0  0  0  0  0  0  0  0  0  0
   21.6022  -21.9879  -14.8253 C   0  0  0  0  0  0  0  0  0  0  0  0
   22.0146  -22.9108  -14.1024 O   0  0  0  0  0  0  0  0  0  0  0  0
   24.5911  -18.9393  -14.9782 C   0  0  0  0  0  0  0  0  0  0  0  0
   24.8322  -18.7022  -13.7785 O   0  0  0  0  0  0  0  0  0  0  0  0
   20.2433  -21.8836  -15.1254 O   0  0  0  0  0  0  0  0  0  0  0  0
   25.9521  -15.7456  -15.6502 C   0  0  0  0  0  0  0  0  0  0  0  0
   24.4925  -15.5849  -15.9779 C   0  0  1  0  0  0  0  0  0  0  0  0
   24.2667  -15.8187  -17.3320 O   0  0  0  0  0  0  0  0  0  0  0  0
   23.7319  -16.6417  -15.2105 C   0  0  2  0  0  0  0  0  0  0  0  0
   23.9936  -17.9516  -15.7835 N   0  0  0  0  0  0  0  0  0  0  0  0
   22.2467  -16.4188  -15.3002 C   0  0  0  0  0  0  0  0  0  0  0  0
   21.4977  -17.1717  -15.9784 O   0  0  0  0  0  0  0  0  0  0  0  0
   21.6334  -15.3458  -14.6197 N   0  0  0  0  0  0  0  0  0  0  0  0
   20.2001  -15.0905  -14.6779 C   0  0  1  0  0  0  0  0  0  0  0  0
   19.7215  -14.6611  -13.3261 C   0  0  0  0  0  0  0  0  0  0  0  0
   18.2843  -14.4174  -13.3271 C   0  0  0  0  0  0  0  0  0  0  0  0
   17.4639  -14.6499  -14.4282 C   0  0  0  0  0  0  0  0  0  0  0  0
   16.2115  -14.3166  -14.0691 N   0  0  0  0  0  0  0  0  0  0  0  0
   16.2430  -13.8906  -12.7907 C   0  0  0  0  0  0  0  0  0  0  0  0
   17.5025  -13.9590  -12.3611 N   0  0  0  0  0  0  0  0  0  0  0  0
   19.8774  -14.0851  -15.7063 C   0  0  0  0  0  0  0  0  0  0  0  0
   18.7440  -14.2475  -16.4749 O   0  0  0  0  0  0  0  0  0  0  0  0
   20.5917  -13.0584  -15.9366 O   0  0  0  0  0  0  0  0  0  0  0  0
  2  1  1  1
  2  3  1  0
  4  5  1  0
  4  3  1  0
  5  6  2  0
  7 14  1  0
  7  2  1  0
  8  7  2  0
  9  5  1  0
 11 10  1  6
 11 12  1  0
 13 14  1  6
 13 11  1  0
 15 13  1  0
 16 15  2  0
 17 15  1  0
 18 19  1  1
 18 17  1  0
 19 20  1  0
 20 21  2  0
 21 22  1  0
 23 22  1  0
 24 20  1  0
 24 23  2  0
 25 26  1  0
 25 18  1  0
 27 25  2  0
M  END
$$$$
