ETH.pdb
     RDKit          3D

 27 27  0  0  1  0  0  0  0  0999 V2000
   19.5691  -11.3629  -18.6761 N   0  0  0  0  0  0  0  0  0  0  0  0
   19.8430  -11.8115  -17.3312 C   0  0  1  0  0  0  0  0  0  0  0  0
   20.5309  -13.1478  -17.2923 C   0  0  0  0  0  0  0  0  0  0  0  0
   19.9492  -14.2133  -18.1339 C   0  0  0  0  0  0  0  0  0  0  0  0
   20.7933  -15.4147  -18.1686 C   0  0  0  0  0  0  0  0  0  0  0  0
   21.8887  -15.4640  -17.5838 O   0  0  0  0  0  0  0  0  0  0  0  0
   20.7521  -10.8399  -16.6926 C   0  0  0  0  0  0  0  0  0  0  0  0
   21.3537  -11.1477  -15.6452 O   0  0  0  0  0  0  0  0  0  0  0  0
   20.3289  -16.5181  -18.8856 O   0  0  0  0  0  0  0  0  0  0  0  0
   23.3320   -8.6802  -18.5316 C   0  0  0  0  0  0  0  0  0  0  0  0
   22.5260   -7.7702  -17.6452 C   0  0  1  0  0  0  0  0  0  0  0  0
   21.5272   -7.1333  -18.3773 O   0  0  0  0  0  0  0  0  0  0  0  0
   21.8393   -8.6303  -16.6094 C   0  0  2  0  0  0  0  0  0  0  0  0
   20.9409   -9.5673  -17.2633 N   0  0  0  0  0  0  0  0  0  0  0  0
   20.9968   -7.7989  -15.6808 C   0  0  0  0  0  0  0  0  0  0  0  0
   19.7426   -7.7399  -15.7888 O   0  0  0  0  0  0  0  0  0  0  0  0
   21.5888   -7.0470  -14.6441 N   0  0  0  0  0  0  0  0  0  0  0  0
   20.8088   -6.2903  -13.6734 C   0  0  1  0  0  0  0  0  0  0  0  0
   20.3160   -7.2185  -12.6075 C   0  0  0  0  0  0  0  0  0  0  0  0
   19.5442   -6.5028  -11.5989 C   0  0  0  0  0  0  0  0  0  0  0  0
   19.2565   -5.1420  -11.6708 C   0  0  0  0  0  0  0  0  0  0  0  0
   18.5336   -4.8298  -10.5806 N   0  0  0  0  0  0  0  0  0  0  0  0
   18.3727   -5.9515   -9.8509 C   0  0  0  0  0  0  0  0  0  0  0  0
   18.9898   -6.9497  -10.4821 N   0  0  0  0  0  0  0  0  0  0  0  0
   21.5963   -5.1840  -13.1004 C   0  0  0  0  0  0  0  0  0  0  0  0
   22.9067   -5.4089  -12.7345 O   0  0  0  0  0  0  0  0  0  0  0  0
   21.1359   -4.0129  -12.9162 O   0  0  0  0  0  0  0  0  0  0  0  0
  2  1  1  6
  2  3  1  0
  4  5  1  0
  4  3  1  0
  5  6  2  0
  7 14  1  0
  7  2  1  0
  8  7  2  0
  9  5  1  0
 11 10  1  6
 11 12  1  0
 13 14  1  6
 13 11  1  0
 15 13  1  0
 16 15  2  0
 17 15  1  0
 18 19  1  1
 18 17  1  0
 19 20  1  0
 20 21  2  0
 21 22  1  0
 23 22  1  0
 24 20  1  0
 24 23  2  0
 25 26  1  0
 25 18  1  0
 27 25  2  0
M  END
$$$$
