ETH.pdb
     RDKit          3D

 27 27  0  0  1  0  0  0  0  0999 V2000
   19.0808  -13.8162  -17.6989 N   0  0  0  0  0  0  0  0  0  0  0  0
   18.1309  -12.7398  -17.8540 C   0  0  1  0  0  0  0  0  0  0  0  0
   17.2103  -12.6016  -16.6735 C   0  0  0  0  0  0  0  0  0  0  0  0
   17.5908  -13.3385  -15.4511 C   0  0  0  0  0  0  0  0  0  0  0  0
   16.6096  -13.1655  -14.3720 C   0  0  0  0  0  0  0  0  0  0  0  0
   15.7182  -14.0038  -14.1553 O   0  0  0  0  0  0  0  0  0  0  0  0
   18.8785  -11.4723  -17.9684 C   0  0  0  0  0  0  0  0  0  0  0  0
   20.0927  -11.4400  -17.6885 O   0  0  0  0  0  0  0  0  0  0  0  0
   16.7033  -12.0188  -13.5823 O   0  0  0  0  0  0  0  0  0  0  0  0
   16.9893   -7.8607  -19.1757 C   0  0  0  0  0  0  0  0  0  0  0  0
   18.3529   -8.2481  -19.6797 C   0  0  1  0  0  0  0  0  0  0  0  0
   19.1497   -7.1189  -19.8515 O   0  0  0  0  0  0  0  0  0  0  0  0
   19.0093   -9.0988  -18.6168 C   0  0  2  0  0  0  0  0  0  0  0  0
   18.2236  -10.3009  -18.3924 N   0  0  0  0  0  0  0  0  0  0  0  0
   19.0760   -8.3731  -17.3007 C   0  0  0  0  0  0  0  0  0  0  0  0
   18.2141   -8.5460  -16.3978 O   0  0  0  0  0  0  0  0  0  0  0  0
   20.1187   -7.4625  -17.0281 N   0  0  0  0  0  0  0  0  0  0  0  0
   20.2055   -6.7120  -15.7822 C   0  0  1  0  0  0  0  0  0  0  0  0
   21.5887   -6.8424  -15.2248 C   0  0  0  0  0  0  0  0  0  0  0  0
   21.8443   -8.1995  -14.7576 C   0  0  0  0  0  0  0  0  0  0  0  0
   20.8484   -9.1595  -14.5962 C   0  0  0  0  0  0  0  0  0  0  0  0
   21.4445  -10.2814  -14.1553 N   0  0  0  0  0  0  0  0  0  0  0  0
   22.7652  -10.0363  -14.0435 C   0  0  0  0  0  0  0  0  0  0  0  0
   22.9861   -8.7748  -14.4114 N   0  0  0  0  0  0  0  0  0  0  0  0
   19.8382   -5.2987  -15.9826 C   0  0  0  0  0  0  0  0  0  0  0  0
   19.7492   -4.4642  -14.8884 O   0  0  0  0  0  0  0  0  0  0  0  0
   19.5911   -4.7895  -17.1215 O   0  0  0  0  0  0  0  0  0  0  0  0
  2  1  1  1
  2  3  1  0
  4  5  1  0
  4  3  1  0
  5  6  2  0
  7 14  1  0
  7  2  1  0
  8  7  2  0
  9  5  1  0
 11 10  1  1
 11 12  1  0
 13 14  1  1
 13 11  1  0
 15 13  1  0
 16 15  2  0
 17 15  1  0
 18 19  1  6
 18 17  1  0
 19 20  1  0
 20 21  2  0
 21 22  1  0
 23 22  1  0
 24 20  1  0
 24 23  2  0
 25 26  1  0
 25 18  1  0
 27 25  2  0
M  END
$$$$
