ETH.pdb
     RDKit          3D

 27 27  0  0  1  0  0  0  0  0999 V2000
   20.3431  -13.4966  -19.1002 N   0  0  0  0  0  0  0  0  0  0  0  0
   19.8140  -12.1538  -19.1446 C   0  0  1  0  0  0  0  0  0  0  0  0
   18.3392  -12.0997  -18.8576 C   0  0  0  0  0  0  0  0  0  0  0  0
   17.8607  -12.9017  -17.7131 C   0  0  0  0  0  0  0  0  0  0  0  0
   17.3926  -12.0602  -16.6042 C   0  0  0  0  0  0  0  0  0  0  0  0
   16.6060  -11.1152  -16.7844 O   0  0  0  0  0  0  0  0  0  0  0  0
   20.4857  -11.3543  -18.1016 C   0  0  0  0  0  0  0  0  0  0  0  0
   21.0752  -11.9261  -17.1639 O   0  0  0  0  0  0  0  0  0  0  0  0
   17.8596  -12.3514  -15.3217 O   0  0  0  0  0  0  0  0  0  0  0  0
   21.1503   -7.1664  -18.5432 C   0  0  0  0  0  0  0  0  0  0  0  0
   22.0802   -8.1595  -17.9010 C   0  0  1  0  0  0  0  0  0  0  0  0
   22.8663   -7.5386  -16.9336 O   0  0  0  0  0  0  0  0  0  0  0  0
   21.2315   -9.1893  -17.1916 C   0  0  2  0  0  0  0  0  0  0  0  0
   20.4619   -9.9484  -18.1633 N   0  0  0  0  0  0  0  0  0  0  0  0
   20.2394   -8.5367  -16.2680 C   0  0  0  0  0  0  0  0  0  0  0  0
   19.1446   -8.0714  -16.6841 O   0  0  0  0  0  0  0  0  0  0  0  0
   20.5033   -8.4214  -14.8868 N   0  0  0  0  0  0  0  0  0  0  0  0
   19.5759   -7.7917  -13.9560 C   0  0  1  0  0  0  0  0  0  0  0  0
   19.5725   -8.5587  -12.6705 C   0  0  0  0  0  0  0  0  0  0  0  0
   18.6229   -7.9930  -11.7201 C   0  0  0  0  0  0  0  0  0  0  0  0
   17.7747   -6.9295  -12.0184 C   0  0  0  0  0  0  0  0  0  0  0  0
   17.0470   -6.6790  -10.9156 N   0  0  0  0  0  0  0  0  0  0  0  0
   17.4233   -7.5518   -9.9599 C   0  0  0  0  0  0  0  0  0  0  0  0
   18.3750   -8.3358  -10.4649 N   0  0  0  0  0  0  0  0  0  0  0  0
   19.9188   -6.3753  -13.7355 C   0  0  0  0  0  0  0  0  0  0  0  0
   18.9057   -5.4564  -13.5602 O   0  0  0  0  0  0  0  0  0  0  0  0
   21.1120   -5.9368  -13.6977 O   0  0  0  0  0  0  0  0  0  0  0  0
  2  1  1  1
  2  3  1  0
  4  5  1  0
  4  3  1  0
  5  6  2  0
  7 14  1  0
  7  2  1  0
  8  7  2  0
  9  5  1  0
 11 10  1  1
 11 12  1  0
 13 14  1  6
 13 11  1  0
 15 13  1  0
 16 15  2  0
 17 15  1  0
 18 19  1  1
 18 17  1  0
 19 20  1  0
 20 21  2  0
 21 22  1  0
 23 22  1  0
 24 20  1  0
 24 23  2  0
 25 26  1  0
 25 18  1  0
 27 25  2  0
M  END
$$$$
