ETH.pdb
     RDKit          3D

 27 27  0  0  1  0  0  0  0  0999 V2000
   14.9628  -14.0992  -18.5637 N   0  0  0  0  0  0  0  0  0  0  0  0
   14.6713  -12.9240  -17.7770 C   0  0  1  0  0  0  0  0  0  0  0  0
   14.6044  -13.2124  -16.3030 C   0  0  0  0  0  0  0  0  0  0  0  0
   13.6239  -14.2308  -15.8746 C   0  0  0  0  0  0  0  0  0  0  0  0
   13.5374  -14.3359  -14.4122 C   0  0  0  0  0  0  0  0  0  0  0  0
   13.6039  -15.4307  -13.8281 O   0  0  0  0  0  0  0  0  0  0  0  0
   15.7609  -11.9486  -17.9763 C   0  0  0  0  0  0  0  0  0  0  0  0
   16.9026  -12.3462  -18.2799 O   0  0  0  0  0  0  0  0  0  0  0  0
   13.3764  -13.1579  -13.6816 O   0  0  0  0  0  0  0  0  0  0  0  0
   15.1058   -8.6745  -19.8783 C   0  0  0  0  0  0  0  0  0  0  0  0
   15.9452   -8.3404  -18.6753 C   0  0  1  0  0  0  0  0  0  0  0  0
   15.1497   -7.8396  -17.6478 O   0  0  0  0  0  0  0  0  0  0  0  0
   16.5611   -9.6266  -18.1751 C   0  0  2  0  0  0  0  0  0  0  0  0
   15.5137  -10.5714  -17.8243 N   0  0  0  0  0  0  0  0  0  0  0  0
   17.3711   -9.3956  -16.9286 C   0  0  0  0  0  0  0  0  0  0  0  0
   17.2671  -10.1394  -15.9166 O   0  0  0  0  0  0  0  0  0  0  0  0
   18.2865   -8.3251  -16.8481 N   0  0  0  0  0  0  0  0  0  0  0  0
   19.2738   -8.2093  -15.7828 C   0  0  1  0  0  0  0  0  0  0  0  0
   20.1739   -9.4050  -15.8143 C   0  0  0  0  0  0  0  0  0  0  0  0
   21.2180   -9.3072  -14.8016 C   0  0  0  0  0  0  0  0  0  0  0  0
   21.2969   -8.2720  -13.8734 C   0  0  0  0  0  0  0  0  0  0  0  0
   22.3753   -8.5073  -13.1051 N   0  0  0  0  0  0  0  0  0  0  0  0
   22.9527   -9.6472  -13.5339 C   0  0  0  0  0  0  0  0  0  0  0  0
   22.2396  -10.1143  -14.5580 N   0  0  0  0  0  0  0  0  0  0  0  0
   20.0411   -6.9561  -15.8988 C   0  0  0  0  0  0  0  0  0  0  0  0
   19.7737   -6.0969  -16.9437 O   0  0  0  0  0  0  0  0  0  0  0  0
   20.9530   -6.6101  -15.0827 O   0  0  0  0  0  0  0  0  0  0  0  0
  2  1  1  6
  2  3  1  0
  4  5  1  0
  4  3  1  0
  5  6  2  0
  7 14  1  0
  7  2  1  0
  8  7  2  0
  9  5  1  0
 11 10  1  6
 11 12  1  0
 13 14  1  1
 13 11  1  0
 15 13  1  0
 16 15  2  0
 17 15  1  0
 18 19  1  6
 18 17  1  0
 19 20  1  0
 20 21  2  0
 21 22  1  0
 23 22  1  0
 24 20  1  0
 24 23  2  0
 25 26  1  0
 25 18  1  0
 27 25  2  0
M  END
$$$$
