ETH.pdb
     RDKit          3D

 27 27  0  0  1  0  0  0  0  0999 V2000
   20.7550  -14.3956  -16.7118 N   0  0  0  0  0  0  0  0  0  0  0  0
   20.5464  -13.0970  -17.3076 C   0  0  1  0  0  0  0  0  0  0  0  0
   19.0908  -12.7451  -17.4410 C   0  0  0  0  0  0  0  0  0  0  0  0
   18.1550  -13.8722  -17.6308 C   0  0  0  0  0  0  0  0  0  0  0  0
   17.7725  -14.4950  -16.3569 C   0  0  0  0  0  0  0  0  0  0  0  0
   18.3569  -15.4992  -15.9160 O   0  0  0  0  0  0  0  0  0  0  0  0
   21.1573  -12.0791  -16.4308 C   0  0  0  0  0  0  0  0  0  0  0  0
   21.1243  -12.2247  -15.1932 O   0  0  0  0  0  0  0  0  0  0  0  0
   16.7198  -13.9233  -15.6410 O   0  0  0  0  0  0  0  0  0  0  0  0
   24.5497  -11.3461  -16.1748 C   0  0  0  0  0  0  0  0  0  0  0  0
   23.9586  -10.0018  -16.5019 C   0  0  1  0  0  0  0  0  0  0  0  0
   24.0127   -9.7643  -17.8730 O   0  0  0  0  0  0  0  0  0  0  0  0
   22.4986  -10.0367  -16.1131 C   0  0  2  0  0  0  0  0  0  0  0  0
   21.7766  -10.9450  -16.9886 N   0  0  0  0  0  0  0  0  0  0  0  0
   21.8592   -8.6840  -16.2703 C   0  0  0  0  0  0  0  0  0  0  0  0
   21.4340   -8.2709  -17.3823 O   0  0  0  0  0  0  0  0  0  0  0  0
   21.7115   -7.8202  -15.1646 N   0  0  0  0  0  0  0  0  0  0  0  0
   21.1112   -6.4969  -15.2715 C   0  0  1  0  0  0  0  0  0  0  0  0
   19.9589   -6.4012  -14.3208 C   0  0  0  0  0  0  0  0  0  0  0  0
   18.8585   -7.2625  -14.7358 C   0  0  0  0  0  0  0  0  0  0  0  0
   18.2643   -7.2018  -15.9939 C   0  0  0  0  0  0  0  0  0  0  0  0
   17.2948   -8.1333  -16.0217 N   0  0  0  0  0  0  0  0  0  0  0  0
   17.2797   -8.7562  -14.8266 C   0  0  0  0  0  0  0  0  0  0  0  0
   18.2304   -8.2164  -14.0648 N   0  0  0  0  0  0  0  0  0  0  0  0
   22.1044   -5.4372  -15.0203 C   0  0  0  0  0  0  0  0  0  0  0  0
   21.7195   -4.1166  -15.1171 O   0  0  0  0  0  0  0  0  0  0  0  0
   23.3177   -5.6665  -14.7159 O   0  0  0  0  0  0  0  0  0  0  0  0
  2  1  1  1
  2  3  1  0
  4  5  1  0
  4  3  1  0
  5  6  2  0
  7 14  1  0
  7  2  1  0
  8  7  2  0
  9  5  1  0
 11 10  1  6
 11 12  1  0
 13 14  1  6
 13 11  1  0
 15 13  1  0
 16 15  2  0
 17 15  1  0
 18 19  1  1
 18 17  1  0
 19 20  1  0
 20 21  2  0
 21 22  1  0
 23 22  1  0
 24 20  1  0
 24 23  2  0
 25 26  1  0
 25 18  1  0
 27 25  2  0
M  END
$$$$
