ETH.pdb
     RDKit          3D

 27 27  0  0  1  0  0  0  0  0999 V2000
   28.4414  -20.9349  -15.8825 N   0  0  0  0  0  0  0  0  0  0  0  0
   27.7134  -20.0281  -15.0266 C   0  0  1  0  0  0  0  0  0  0  0  0
   27.2304  -18.8037  -15.7531 C   0  0  0  0  0  0  0  0  0  0  0  0
   28.2678  -17.9466  -16.3621 C   0  0  0  0  0  0  0  0  0  0  0  0
   28.6154  -18.3789  -17.7220 C   0  0  0  0  0  0  0  0  0  0  0  0
   27.7706  -18.4234  -18.6323 O   0  0  0  0  0  0  0  0  0  0  0  0
   26.5173  -20.7275  -14.5181 C   0  0  0  0  0  0  0  0  0  0  0  0
   26.0024  -21.6444  -15.1874 O   0  0  0  0  0  0  0  0  0  0  0  0
   29.9387  -18.7445  -17.9725 O   0  0  0  0  0  0  0  0  0  0  0  0
   26.2775  -21.8612  -10.9069 C   0  0  0  0  0  0  0  0  0  0  0  0
   24.9582  -21.2203  -11.2421 C   0  0  1  0  0  0  0  0  0  0  0  0
   24.9135  -19.9137  -10.7625 O   0  0  0  0  0  0  0  0  0  0  0  0
   24.8549  -21.1458  -12.7481 C   0  0  2  0  0  0  0  0  0  0  0  0
   25.9571  -20.3615  -13.2799 N   0  0  0  0  0  0  0  0  0  0  0  0
   23.5876  -20.4567  -13.1750 C   0  0  0  0  0  0  0  0  0  0  0  0
   23.5240  -19.2070  -13.3244 O   0  0  0  0  0  0  0  0  0  0  0  0
   22.4116  -21.1947  -13.4262 N   0  0  0  0  0  0  0  0  0  0  0  0
   21.1592  -20.5699  -13.8313 C   0  0  1  0  0  0  0  0  0  0  0  0
   20.7196  -21.1515  -15.1387 C   0  0  0  0  0  0  0  0  0  0  0  0
   19.4996  -20.5132  -15.6175 C   0  0  0  0  0  0  0  0  0  0  0  0
   18.8526  -19.4821  -14.9409 C   0  0  0  0  0  0  0  0  0  0  0  0
   17.7738  -19.1436  -15.6690 N   0  0  0  0  0  0  0  0  0  0  0  0
   17.7435  -19.9318  -16.7620 C   0  0  0  0  0  0  0  0  0  0  0  0
   18.7930  -20.7512  -16.7123 N   0  0  0  0  0  0  0  0  0  0  0  0
   20.1222  -20.7305  -12.7962 C   0  0  0  0  0  0  0  0  0  0  0  0
   19.1045  -19.8036  -12.7127 O   0  0  0  0  0  0  0  0  0  0  0  0
   20.1060  -21.6861  -11.9572 O   0  0  0  0  0  0  0  0  0  0  0  0
  2  1  1  6
  2  3  1  0
  4  5  1  0
  4  3  1  0
  5  6  2  0
  7 14  1  0
  7  2  1  0
  8  7  2  0
  9  5  1  0
 11 10  1  6
 11 12  1  0
 13 14  1  1
 13 11  1  0
 15 13  1  0
 16 15  2  0
 17 15  1  0
 18 19  1  6
 18 17  1  0
 19 20  1  0
 20 21  2  0
 21 22  1  0
 23 22  1  0
 24 20  1  0
 24 23  2  0
 25 26  1  0
 25 18  1  0
 27 25  2  0
M  END
$$$$
