ETH.pdb
     RDKit          3D

 27 27  0  0  1  0  0  0  0  0999 V2000
   25.8804  -21.1882  -11.0708 N   0  0  0  0  0  0  0  0  0  0  0  0
   25.7678  -21.5209  -12.4714 C   0  0  1  0  0  0  0  0  0  0  0  0
   24.6202  -22.4487  -12.7586 C   0  0  0  0  0  0  0  0  0  0  0  0
   23.4202  -22.2945  -11.9111 C   0  0  0  0  0  0  0  0  0  0  0  0
   22.3155  -21.6443  -12.6281 C   0  0  0  0  0  0  0  0  0  0  0  0
   21.9923  -20.4653  -12.4049 O   0  0  0  0  0  0  0  0  0  0  0  0
   25.5165  -20.2778  -13.2262 C   0  0  0  0  0  0  0  0  0  0  0  0
   24.9589  -19.3134  -12.6669 O   0  0  0  0  0  0  0  0  0  0  0  0
   21.6256  -22.3939  -13.5819 O   0  0  0  0  0  0  0  0  0  0  0  0
   26.4797  -17.5730  -17.1720 C   0  0  0  0  0  0  0  0  0  0  0  0
   26.4528  -18.9661  -16.6043 C   0  0  1  0  0  0  0  0  0  0  0  0
   27.7478  -19.4387  -16.4069 O   0  0  0  0  0  0  0  0  0  0  0  0
   25.7930  -18.8945  -15.2465 C   0  0  2  0  0  0  0  0  0  0  0  0
   25.9048  -20.1790  -14.5755 N   0  0  0  0  0  0  0  0  0  0  0  0
   24.3235  -18.5961  -15.3685 C   0  0  0  0  0  0  0  0  0  0  0  0
   23.5130  -18.8359  -14.4338 O   0  0  0  0  0  0  0  0  0  0  0  0
   23.7952  -18.0306  -16.5482 N   0  0  0  0  0  0  0  0  0  0  0  0
   22.5121  -17.3413  -16.5869 C   0  0  1  0  0  0  0  0  0  0  0  0
   22.5434  -16.1894  -15.6314 C   0  0  0  0  0  0  0  0  0  0  0  0
   21.2673  -15.4850  -15.6110 C   0  0  0  0  0  0  0  0  0  0  0  0
   20.1425  -15.9071  -16.3155 C   0  0  0  0  0  0  0  0  0  0  0  0
   19.1600  -15.0241  -16.0632 N   0  0  0  0  0  0  0  0  0  0  0  0
   19.6483  -14.0825  -15.2315 C   0  0  0  0  0  0  0  0  0  0  0  0
   20.9211  -14.3783  -14.9707 N   0  0  0  0  0  0  0  0  0  0  0  0
   22.1849  -16.8968  -17.9537 C   0  0  0  0  0  0  0  0  0  0  0  0
   20.9709  -17.2498  -18.5042 O   0  0  0  0  0  0  0  0  0  0  0  0
   22.9660  -16.1969  -18.6729 O   0  0  0  0  0  0  0  0  0  0  0  0
  2  1  1  1
  2  3  1  0
  4  5  1  0
  4  3  1  0
  5  6  2  0
  7 14  1  0
  7  2  1  0
  8  7  2  0
  9  5  1  0
 11 10  1  1
 11 12  1  0
 13 14  1  6
 13 11  1  0
 15 13  1  0
 16 15  2  0
 17 15  1  0
 18 19  1  1
 18 17  1  0
 19 20  1  0
 20 21  2  0
 21 22  1  0
 23 22  1  0
 24 20  1  0
 24 23  2  0
 25 26  1  0
 25 18  1  0
 27 25  2  0
M  END
$$$$
