HPK.pdb
     RDKit          3D

 27 28  0  0  1  0  0  0  0  0999 V2000
    7.9488  -14.1898   16.6826 N   0  0  0  0  0  0  0  0  0  0  0  0
    8.5777  -15.2126   17.4119 C   0  0  1  0  0  0  0  0  0  0  0  0
   10.0702  -15.1426   17.1209 C   0  0  0  0  0  0  0  0  0  0  0  0
   10.3093  -15.7197   15.7707 C   0  0  0  0  0  0  0  0  0  0  0  0
   10.7395  -15.0617   14.6249 C   0  0  0  0  0  0  0  0  0  0  0  0
   10.8183  -15.9641   13.6393 N   0  0  0  0  0  0  0  0  0  0  0  0
   10.4624  -17.1617   14.0920 C   0  0  0  0  0  0  0  0  0  0  0  0
   10.1538  -17.0133   15.3843 N   0  0  0  0  0  0  0  0  0  0  0  0
    8.2968  -15.3536   18.8397 C   0  0  0  0  0  0  0  0  0  0  0  0
    8.3586  -14.2593   19.5379 O   0  0  0  0  0  0  0  0  0  0  0  0
    7.9690  -16.4911   19.5744 N   0  0  0  0  0  0  0  0  0  0  0  0
    7.2498  -17.6477   19.0075 C   0  0  0  0  0  0  0  0  0  0  0  0
    8.2030  -18.7781   19.4485 C   0  0  0  0  0  0  0  0  0  0  0  0
    8.9812  -18.2318   20.6267 C   0  0  0  0  0  0  0  0  0  0  0  0
    8.1802  -16.9343   20.9111 C   0  0  1  0  0  0  0  0  0  0  0  0
    8.8282  -16.1078   21.8902 C   0  0  0  0  0  0  0  0  0  0  0  0
    9.9627  -15.6323   21.9617 O   0  0  0  0  0  0  0  0  0  0  0  0
    7.9739  -15.7600   23.0305 N   0  0  0  0  0  0  0  0  0  0  0  0
    8.4237  -14.8789   24.0701 C   0  0  1  0  0  0  0  0  0  0  0  0
    7.2845  -14.0927   24.6321 C   0  0  0  0  0  0  0  0  0  0  0  0
    7.6296  -13.1535   25.7345 C   0  0  0  0  0  0  0  0  0  0  0  0
    6.4856  -12.3788   26.2985 C   0  0  0  0  0  0  0  0  0  0  0  0
    7.0279  -11.4928   27.4092 C   0  0  0  0  0  0  0  0  0  0  0  0
    5.9638  -10.7268   28.0380 N   0  0  0  0  0  0  0  0  0  0  0  0
    9.0886  -15.6187   25.1784 C   0  0  0  0  0  0  0  0  0  0  0  0
   10.1111  -15.0058   25.8766 O   0  0  0  0  0  0  0  0  0  0  0  0
    8.7351  -16.7801   25.4828 O   0  0  0  0  0  0  0  0  0  0  0  0
  2  9  1  0
  2  1  1  1
  3  2  1  0
  4  3  1  0
  4  8  1  0
  5  4  2  0
  6  5  1  0
  6  7  1  0
  7  8  2  0
  9 11  1  0
 10  9  2  0
 11 15  1  0
 11 12  1  0
 12 13  1  0
 14 13  1  0
 15 14  1  0
 15 16  1  1
 17 16  2  0
 18 16  1  0
 19 20  1  1
 19 18  1  0
 21 20  1  0
 22 23  1  0
 22 21  1  0
 24 23  1  0
 25 19  1  0
 25 26  1  0
 27 25  2  0
M  END
$$$$
