HPK.pdb
     RDKit          3D

 27 28  0  0  1  0  0  0  0  0999 V2000
   10.9652  -15.9662   16.5971 N   0  0  0  0  0  0  0  0  0  0  0  0
    9.8635  -15.3818   17.2438 C   0  0  1  0  0  0  0  0  0  0  0  0
    8.6283  -16.1978   16.8896 C   0  0  0  0  0  0  0  0  0  0  0  0
    8.4341  -16.1335   15.4160 C   0  0  0  0  0  0  0  0  0  0  0  0
    8.6713  -17.1319   14.4791 C   0  0  0  0  0  0  0  0  0  0  0  0
    8.3614  -16.6432   13.2720 N   0  0  0  0  0  0  0  0  0  0  0  0
    7.9395  -15.3882   13.3860 C   0  0  0  0  0  0  0  0  0  0  0  0
    7.9836  -15.0794   14.6860 N   0  0  0  0  0  0  0  0  0  0  0  0
    9.9431  -15.0882   18.6738 C   0  0  0  0  0  0  0  0  0  0  0  0
   10.6421  -15.9227   19.3834 O   0  0  0  0  0  0  0  0  0  0  0  0
    9.3803  -14.0409   19.4001 N   0  0  0  0  0  0  0  0  0  0  0  0
    9.2549  -12.6652   18.8820 C   0  0  0  0  0  0  0  0  0  0  0  0
    7.7565  -12.4260   19.1623 C   0  0  0  0  0  0  0  0  0  0  0  0
    7.3760  -13.4001   20.2571 C   0  0  0  0  0  0  0  0  0  0  0  0
    8.7808  -13.9005   20.6842 C   0  0  1  0  0  0  0  0  0  0  0  0
    8.7015  -14.9972   21.6076 C   0  0  0  0  0  0  0  0  0  0  0  0
    7.8033  -15.7957   21.8797 O   0  0  0  0  0  0  0  0  0  0  0  0
    9.9297  -15.2108   22.3802 N   0  0  0  0  0  0  0  0  0  0  0  0
   10.0939  -16.3494   23.2380 C   0  0  1  0  0  0  0  0  0  0  0  0
   10.0898  -17.6171   22.4476 C   0  0  0  0  0  0  0  0  0  0  0  0
   10.2474  -18.8702   23.2359 C   0  0  0  0  0  0  0  0  0  0  0  0
   10.1833  -20.1358   22.4477 C   0  0  0  0  0  0  0  0  0  0  0  0
   10.2774  -21.2967   23.4257 C   0  0  0  0  0  0  0  0  0  0  0  0
   10.1285  -22.5724   22.7438 N   0  0  0  0  0  0  0  0  0  0  0  0
   11.3574  -16.2779   24.0230 C   0  0  0  0  0  0  0  0  0  0  0  0
   12.2817  -15.2969   23.7201 O   0  0  0  0  0  0  0  0  0  0  0  0
   11.5903  -17.0896   24.9469 O   0  0  0  0  0  0  0  0  0  0  0  0
  2  9  1  0
  2  1  1  1
  3  2  1  0
  4  3  1  0
  4  8  1  0
  5  4  2  0
  6  5  1  0
  6  7  1  0
  7  8  2  0
  9 11  1  0
 10  9  2  0
 11 15  1  0
 11 12  1  0
 12 13  1  0
 14 13  1  0
 15 14  1  0
 15 16  1  6
 17 16  2  0
 18 16  1  0
 19 20  1  6
 19 18  1  0
 21 20  1  0
 22 23  1  0
 22 21  1  0
 24 23  1  0
 25 19  1  0
 25 26  1  0
 27 25  2  0
M  END
$$$$
