HPK.pdb
     RDKit          3D

 27 28  0  0  1  0  0  0  0  0999 V2000
   10.3162  -16.3854   16.2919 N   0  0  0  0  0  0  0  0  0  0  0  0
    9.2836  -15.9368   17.1323 C   0  0  1  0  0  0  0  0  0  0  0  0
    8.1540  -16.9551   17.0671 C   0  0  0  0  0  0  0  0  0  0  0  0
    7.7894  -17.1559   15.6388 C   0  0  0  0  0  0  0  0  0  0  0  0
    8.1925  -18.1800   14.7906 C   0  0  0  0  0  0  0  0  0  0  0  0
    7.6280  -17.9683   13.5954 N   0  0  0  0  0  0  0  0  0  0  0  0
    6.8868  -16.8660   13.6333 C   0  0  0  0  0  0  0  0  0  0  0  0
    6.9848  -16.3736   14.8723 N   0  0  0  0  0  0  0  0  0  0  0  0
    9.5955  -15.5412   18.5047 C   0  0  0  0  0  0  0  0  0  0  0  0
   10.3598  -16.3569   19.1675 O   0  0  0  0  0  0  0  0  0  0  0  0
    9.1966  -14.4132   19.2184 N   0  0  0  0  0  0  0  0  0  0  0  0
    9.1115  -13.0637   18.6283 C   0  0  0  0  0  0  0  0  0  0  0  0
    7.6763  -12.6917   19.0558 C   0  0  0  0  0  0  0  0  0  0  0  0
    7.3552  -13.5688   20.2474 C   0  0  0  0  0  0  0  0  0  0  0  0
    8.7602  -14.1530   20.5488 C   0  0  1  0  0  0  0  0  0  0  0  0
    8.7091  -15.1856   21.5452 C   0  0  0  0  0  0  0  0  0  0  0  0
    7.7960  -15.9029   21.9576 O   0  0  0  0  0  0  0  0  0  0  0  0
    9.9953  -15.4378   22.2032 N   0  0  0  0  0  0  0  0  0  0  0  0
   10.1317  -16.4146   23.2457 C   0  0  1  0  0  0  0  0  0  0  0  0
   10.7721  -17.6609   22.7277 C   0  0  0  0  0  0  0  0  0  0  0  0
   10.9673  -18.7491   23.7248 C   0  0  0  0  0  0  0  0  0  0  0  0
   11.7212  -19.9401   23.2346 C   0  0  0  0  0  0  0  0  0  0  0  0
   11.7503  -20.9652   24.3576 C   0  0  0  0  0  0  0  0  0  0  0  0
   12.4466  -22.1744   23.9482 N   0  0  0  0  0  0  0  0  0  0  0  0
   10.9369  -15.9011   24.3884 C   0  0  0  0  0  0  0  0  0  0  0  0
   10.6846  -16.3830   25.6582 O   0  0  0  0  0  0  0  0  0  0  0  0
   11.8328  -15.0446   24.2136 O   0  0  0  0  0  0  0  0  0  0  0  0
  2  9  1  0
  2  1  1  1
  3  2  1  0
  4  3  1  0
  4  8  1  0
  5  4  2  0
  6  5  1  0
  6  7  1  0
  7  8  2  0
  9 11  1  0
 10  9  2  0
 11 15  1  0
 11 12  1  0
 12 13  1  0
 14 13  1  0
 15 14  1  0
 15 16  1  1
 17 16  2  0
 18 16  1  0
 19 20  1  6
 19 18  1  0
 21 20  1  0
 22 23  1  0
 22 21  1  0
 24 23  1  0
 25 19  1  0
 25 26  1  0
 27 25  2  0
M  END
$$$$
