HPK.pdb
     RDKit          3D

 27 28  0  0  1  0  0  0  0  0999 V2000
    9.4490  -15.4289   21.2160 N   0  0  0  0  0  0  0  0  0  0  0  0
    8.5789  -14.6489   21.9958 C   0  0  1  0  0  0  0  0  0  0  0  0
    7.2925  -14.4543   21.2057 C   0  0  0  0  0  0  0  0  0  0  0  0
    7.6523  -14.0190   19.8293 C   0  0  0  0  0  0  0  0  0  0  0  0
    7.8973  -12.7275   19.3789 C   0  0  0  0  0  0  0  0  0  0  0  0
    8.1848  -12.7965   18.0733 N   0  0  0  0  0  0  0  0  0  0  0  0
    8.1371  -14.0601   17.6650 C   0  0  0  0  0  0  0  0  0  0  0  0
    7.8142  -14.8012   18.7299 N   0  0  0  0  0  0  0  0  0  0  0  0
    8.3249  -15.0277   23.3849 C   0  0  0  0  0  0  0  0  0  0  0  0
    8.4282  -16.2952   23.6522 O   0  0  0  0  0  0  0  0  0  0  0  0
    7.9867  -14.2316   24.4771 N   0  0  0  0  0  0  0  0  0  0  0  0
    8.2017  -12.7726   24.5194 C   0  0  0  0  0  0  0  0  0  0  0  0
    6.7874  -12.3216   24.9405 C   0  0  0  0  0  0  0  0  0  0  0  0
    6.1480  -13.5213   25.6069 C   0  0  0  0  0  0  0  0  0  0  0  0
    7.3814  -14.4513   25.7473 C   0  0  1  0  0  0  0  0  0  0  0  0
    7.0141  -15.7653   26.1946 C   0  0  0  0  0  0  0  0  0  0  0  0
    5.9657  -16.2309   26.6447 O   0  0  0  0  0  0  0  0  0  0  0  0
    8.0982  -16.7484   26.0981 N   0  0  0  0  0  0  0  0  0  0  0  0
    7.9823  -18.0591   26.6707 C   0  0  1  0  0  0  0  0  0  0  0  0
    8.2397  -19.1136   25.6442 C   0  0  0  0  0  0  0  0  0  0  0  0
    7.5884  -18.9010   24.3225 C   0  0  0  0  0  0  0  0  0  0  0  0
    7.9480  -19.8897   23.2641 C   0  0  0  0  0  0  0  0  0  0  0  0
    7.1606  -19.5361   22.0120 C   0  0  0  0  0  0  0  0  0  0  0  0
    7.4829  -20.4360   20.9162 N   0  0  0  0  0  0  0  0  0  0  0  0
    8.9245  -18.2560   27.8070 C   0  0  0  0  0  0  0  0  0  0  0  0
    9.8834  -17.2939   28.0589 O   0  0  0  0  0  0  0  0  0  0  0  0
    8.8588  -19.2747   28.5312 O   0  0  0  0  0  0  0  0  0  0  0  0
  2  9  1  0
  2  1  1  6
  3  2  1  0
  4  3  1  0
  4  8  1  0
  5  4  2  0
  6  5  1  0
  6  7  1  0
  7  8  2  0
  9 11  1  0
 10  9  2  0
 11 15  1  0
 11 12  1  0
 12 13  1  0
 14 13  1  0
 15 14  1  0
 15 16  1  6
 17 16  2  0
 18 16  1  0
 19 20  1  6
 19 18  1  0
 21 20  1  0
 22 23  1  0
 22 21  1  0
 24 23  1  0
 25 19  1  0
 25 26  1  0
 27 25  2  0
M  END
$$$$
