HPK.pdb
     RDKit          3D

 27 28  0  0  1  0  0  0  0  0999 V2000
    9.4842  -17.6210   17.7287 N   0  0  0  0  0  0  0  0  0  0  0  0
    8.5630  -16.8945   18.5015 C   0  0  1  0  0  0  0  0  0  0  0  0
    7.3330  -17.7681   18.7040 C   0  0  0  0  0  0  0  0  0  0  0  0
    6.9040  -18.2839   17.3761 C   0  0  0  0  0  0  0  0  0  0  0  0
    7.5090  -18.0748   16.1428 C   0  0  0  0  0  0  0  0  0  0  0  0
    6.7893  -18.7221   15.2182 N   0  0  0  0  0  0  0  0  0  0  0  0
    5.7583  -19.3329   15.7925 C   0  0  0  0  0  0  0  0  0  0  0  0
    5.8280  -19.0671   17.1009 N   0  0  0  0  0  0  0  0  0  0  0  0
    9.0069  -16.2649   19.7440 C   0  0  0  0  0  0  0  0  0  0  0  0
    9.8101  -16.9731   20.4802 O   0  0  0  0  0  0  0  0  0  0  0  0
    8.6993  -15.0100   20.2654 N   0  0  0  0  0  0  0  0  0  0  0  0
    8.6139  -13.7861   19.4460 C   0  0  0  0  0  0  0  0  0  0  0  0
    7.2276  -13.2785   19.8950 C   0  0  0  0  0  0  0  0  0  0  0  0
    6.9687  -13.9118   21.2456 C   0  0  0  0  0  0  0  0  0  0  0  0
    8.3727  -14.4955   21.5525 C   0  0  1  0  0  0  0  0  0  0  0  0
    8.3630  -15.3289   22.7217 C   0  0  0  0  0  0  0  0  0  0  0  0
    7.4630  -15.9302   23.3105 O   0  0  0  0  0  0  0  0  0  0  0  0
    9.6827  -15.4992   23.3384 N   0  0  0  0  0  0  0  0  0  0  0  0
    9.8658  -16.2834   24.5262 C   0  0  1  0  0  0  0  0  0  0  0  0
   10.3831  -17.6444   24.1917 C   0  0  0  0  0  0  0  0  0  0  0  0
   10.5668  -18.5671   25.3456 C   0  0  0  0  0  0  0  0  0  0  0  0
   11.1156  -19.9133   25.0088 C   0  0  0  0  0  0  0  0  0  0  0  0
   11.1896  -20.7195   26.2962 C   0  0  0  0  0  0  0  0  0  0  0  0
   11.7362  -22.0454   26.0561 N   0  0  0  0  0  0  0  0  0  0  0  0
   10.8054  -15.6350   25.4825 C   0  0  0  0  0  0  0  0  0  0  0  0
   10.6593  -15.8754   26.8351 O   0  0  0  0  0  0  0  0  0  0  0  0
   11.7190  -14.8806   25.0789 O   0  0  0  0  0  0  0  0  0  0  0  0
  2  9  1  0
  2  1  1  1
  3  2  1  0
  4  3  1  0
  4  8  1  0
  5  4  2  0
  6  5  1  0
  6  7  1  0
  7  8  2  0
  9 11  1  0
 10  9  2  0
 11 15  1  0
 11 12  1  0
 12 13  1  0
 14 13  1  0
 15 14  1  0
 15 16  1  1
 17 16  2  0
 18 16  1  0
 19 20  1  6
 19 18  1  0
 21 20  1  0
 22 23  1  0
 22 21  1  0
 24 23  1  0
 25 19  1  0
 25 26  1  0
 27 25  2  0
M  END
$$$$
