HPK.pdb
     RDKit          3D

 27 28  0  0  1  0  0  0  0  0999 V2000
    9.4636  -17.0290   16.9797 N   0  0  0  0  0  0  0  0  0  0  0  0
    8.5967  -16.9137   18.0791 C   0  0  1  0  0  0  0  0  0  0  0  0
    7.9063  -18.2566   18.2712 C   0  0  0  0  0  0  0  0  0  0  0  0
    7.2077  -18.6067   17.0052 C   0  0  0  0  0  0  0  0  0  0  0  0
    5.8394  -18.7058   16.7842 C   0  0  0  0  0  0  0  0  0  0  0  0
    5.6547  -19.0448   15.5024 N   0  0  0  0  0  0  0  0  0  0  0  0
    6.8290  -19.1678   14.8927 C   0  0  0  0  0  0  0  0  0  0  0  0
    7.7705  -18.9021   15.8040 N   0  0  0  0  0  0  0  0  0  0  0  0
    9.1009  -16.3643   19.3366 C   0  0  0  0  0  0  0  0  0  0  0  0
   10.0379  -17.0520   19.9178 O   0  0  0  0  0  0  0  0  0  0  0  0
    8.7289  -15.2052   20.0143 N   0  0  0  0  0  0  0  0  0  0  0  0
    8.4837  -13.9134   19.3451 C   0  0  0  0  0  0  0  0  0  0  0  0
    7.0961  -13.5838   19.9340 C   0  0  0  0  0  0  0  0  0  0  0  0
    6.9883  -14.3787   21.2181 C   0  0  0  0  0  0  0  0  0  0  0  0
    8.4542  -14.8629   21.3690 C   0  0  1  0  0  0  0  0  0  0  0  0
    8.5977  -15.8139   22.4351 C   0  0  0  0  0  0  0  0  0  0  0  0
    7.8338  -16.6554   22.9113 O   0  0  0  0  0  0  0  0  0  0  0  0
    9.9108  -15.7786   23.0874 N   0  0  0  0  0  0  0  0  0  0  0  0
   10.2442  -16.6686   24.1627 C   0  0  1  0  0  0  0  0  0  0  0  0
   11.4935  -17.4287   23.8573 C   0  0  0  0  0  0  0  0  0  0  0  0
   11.9441  -18.3802   24.9100 C   0  0  0  0  0  0  0  0  0  0  0  0
   13.1945  -19.1337   24.6003 C   0  0  0  0  0  0  0  0  0  0  0  0
   13.4046  -20.1578   25.7048 C   0  0  0  0  0  0  0  0  0  0  0  0
   14.5278  -21.0315   25.4055 N   0  0  0  0  0  0  0  0  0  0  0  0
   10.4271  -15.9429   25.4502 C   0  0  0  0  0  0  0  0  0  0  0  0
   10.1855  -16.6083   26.6365 O   0  0  0  0  0  0  0  0  0  0  0  0
   10.7942  -14.7464   25.4705 O   0  0  0  0  0  0  0  0  0  0  0  0
  2  9  1  0
  2  1  1  6
  3  2  1  0
  4  3  1  0
  4  8  1  0
  5  4  2  0
  6  5  1  0
  6  7  1  0
  7  8  2  0
  9 11  1  0
 10  9  2  0
 11 15  1  0
 11 12  1  0
 12 13  1  0
 14 13  1  0
 15 14  1  0
 15 16  1  1
 17 16  2  0
 18 16  1  0
 19 20  1  6
 19 18  1  0
 21 20  1  0
 22 23  1  0
 22 21  1  0
 24 23  1  0
 25 19  1  0
 25 26  1  0
 27 25  2  0
M  END
$$$$
