HPK.pdb
     RDKit          3D

 27 28  0  0  1  0  0  0  0  0999 V2000
   11.2652  -15.1065   17.0431 N   0  0  0  0  0  0  0  0  0  0  0  0
   10.0876  -14.8563   17.7672 C   0  0  1  0  0  0  0  0  0  0  0  0
    8.9970  -15.7606   17.2107 C   0  0  0  0  0  0  0  0  0  0  0  0
    8.9641  -15.5957   15.7325 C   0  0  0  0  0  0  0  0  0  0  0  0
    8.4675  -14.5217   15.0040 C   0  0  0  0  0  0  0  0  0  0  0  0
    8.6397  -14.7932   13.7045 N   0  0  0  0  0  0  0  0  0  0  0  0
    9.2187  -15.9808   13.5627 C   0  0  0  0  0  0  0  0  0  0  0  0
    9.4153  -16.4672   14.7924 N   0  0  0  0  0  0  0  0  0  0  0  0
   10.1269  -14.8692   19.2286 C   0  0  0  0  0  0  0  0  0  0  0  0
   10.9251  -15.7437   19.7641 O   0  0  0  0  0  0  0  0  0  0  0  0
    9.4345  -14.0803   20.1447 N   0  0  0  0  0  0  0  0  0  0  0  0
    9.1576  -12.6459   19.9391 C   0  0  0  0  0  0  0  0  0  0  0  0
    7.6373  -12.6422   20.2030 C   0  0  0  0  0  0  0  0  0  0  0  0
    7.3559  -13.8732   21.0384 C   0  0  0  0  0  0  0  0  0  0  0  0
    8.8025  -14.2989   21.4020 C   0  0  1  0  0  0  0  0  0  0  0  0
    8.8371  -15.5768   22.0557 C   0  0  0  0  0  0  0  0  0  0  0  0
    8.2388  -16.6346   21.8524 O   0  0  0  0  0  0  0  0  0  0  0  0
    9.7664  -15.6374   23.1887 N   0  0  0  0  0  0  0  0  0  0  0  0
    9.9935  -16.8541   23.9150 C   0  0  1  0  0  0  0  0  0  0  0  0
   11.2474  -17.5232   23.4549 C   0  0  0  0  0  0  0  0  0  0  0  0
   11.5049  -18.8744   24.0246 C   0  0  0  0  0  0  0  0  0  0  0  0
   12.7459  -19.5479   23.5417 C   0  0  0  0  0  0  0  0  0  0  0  0
   12.7387  -20.9720   24.0754 C   0  0  0  0  0  0  0  0  0  0  0  0
   13.9970  -21.6451   23.7956 N   0  0  0  0  0  0  0  0  0  0  0  0
   10.0868  -16.6178   25.3824 C   0  0  0  0  0  0  0  0  0  0  0  0
    9.9201  -17.6830   26.2462 O   0  0  0  0  0  0  0  0  0  0  0  0
   10.3126  -15.4746   25.8392 O   0  0  0  0  0  0  0  0  0  0  0  0
  2  9  1  0
  2  1  1  6
  3  2  1  0
  4  3  1  0
  4  8  1  0
  5  4  2  0
  6  5  1  0
  6  7  1  0
  7  8  2  0
  9 11  1  0
 10  9  2  0
 11 15  1  0
 11 12  1  0
 12 13  1  0
 14 13  1  0
 15 14  1  0
 15 16  1  6
 17 16  2  0
 18 16  1  0
 19 20  1  6
 19 18  1  0
 21 20  1  0
 22 23  1  0
 22 21  1  0
 24 23  1  0
 25 19  1  0
 25 26  1  0
 27 25  2  0
M  END
$$$$
