HPK.pdb
     RDKit          3D

 27 28  0  0  1  0  0  0  0  0999 V2000
   10.9460  -15.3706   16.8577 N   0  0  0  0  0  0  0  0  0  0  0  0
    9.7482  -15.0604   17.5230 C   0  0  1  0  0  0  0  0  0  0  0  0
    8.6478  -15.9302   16.9318 C   0  0  0  0  0  0  0  0  0  0  0  0
    8.6293  -15.7212   15.4590 C   0  0  0  0  0  0  0  0  0  0  0  0
    7.9861  -14.7159   14.7473 C   0  0  0  0  0  0  0  0  0  0  0  0
    8.2353  -14.9108   13.4465 N   0  0  0  0  0  0  0  0  0  0  0  0
    9.0018  -15.9847   13.2881 C   0  0  0  0  0  0  0  0  0  0  0  0
    9.2406  -16.4759   14.5084 N   0  0  0  0  0  0  0  0  0  0  0  0
    9.7210  -15.0486   18.9847 C   0  0  0  0  0  0  0  0  0  0  0  0
   10.2562  -16.0793   19.5676 O   0  0  0  0  0  0  0  0  0  0  0  0
    9.2056  -14.0929   19.8577 N   0  0  0  0  0  0  0  0  0  0  0  0
    9.1130  -12.6571   19.5314 C   0  0  0  0  0  0  0  0  0  0  0  0
    7.6286  -12.4154   19.8766 C   0  0  0  0  0  0  0  0  0  0  0  0
    7.2396  -13.5167   20.8399 C   0  0  0  0  0  0  0  0  0  0  0  0
    8.6362  -14.1095   21.1629 C   0  0  1  0  0  0  0  0  0  0  0  0
    8.5408  -15.3177   21.9329 C   0  0  0  0  0  0  0  0  0  0  0  0
    7.7320  -16.2473   21.9303 O   0  0  0  0  0  0  0  0  0  0  0  0
    9.6164  -15.4792   22.9168 N   0  0  0  0  0  0  0  0  0  0  0  0
    9.7088  -16.6436   23.7505 C   0  0  1  0  0  0  0  0  0  0  0  0
   10.0598  -17.8506   22.9431 C   0  0  0  0  0  0  0  0  0  0  0  0
   11.4659  -17.9166   22.4581 C   0  0  0  0  0  0  0  0  0  0  0  0
   11.7905  -19.0866   21.5906 C   0  0  0  0  0  0  0  0  0  0  0  0
   13.2664  -19.0038   21.2331 C   0  0  0  0  0  0  0  0  0  0  0  0
   13.6904  -20.1700   20.4750 N   0  0  0  0  0  0  0  0  0  0  0  0
   10.7216  -16.4773   24.8295 C   0  0  0  0  0  0  0  0  0  0  0  0
   10.7794  -17.4108   25.8462 O   0  0  0  0  0  0  0  0  0  0  0  0
   11.5153  -15.5094   24.8264 O   0  0  0  0  0  0  0  0  0  0  0  0
  2  9  1  0
  2  1  1  1
  3  2  1  0
  4  3  1  0
  4  8  1  0
  5  4  2  0
  6  5  1  0
  6  7  1  0
  7  8  2  0
  9 11  1  0
 10  9  2  0
 11 15  1  0
 11 12  1  0
 12 13  1  0
 14 13  1  0
 15 14  1  0
 15 16  1  6
 17 16  2  0
 18 16  1  0
 19 20  1  6
 19 18  1  0
 21 20  1  0
 22 23  1  0
 22 21  1  0
 24 23  1  0
 25 19  1  0
 25 26  1  0
 27 25  2  0
M  END
$$$$
