HPK.pdb
     RDKit          3D

 27 28  0  0  1  0  0  0  0  0999 V2000
    6.7648  -18.0954   18.3392 N   0  0  0  0  0  0  0  0  0  0  0  0
    6.7277  -16.7607   18.7760 C   0  0  1  0  0  0  0  0  0  0  0  0
    5.2776  -16.4086   19.0763 C   0  0  0  0  0  0  0  0  0  0  0  0
    4.7826  -17.3329   20.1318 C   0  0  0  0  0  0  0  0  0  0  0  0
    5.3457  -17.5877   21.3763 C   0  0  0  0  0  0  0  0  0  0  0  0
    4.5723  -18.4848   22.0001 N   0  0  0  0  0  0  0  0  0  0  0  0
    3.5468  -18.8170   21.2232 C   0  0  0  0  0  0  0  0  0  0  0  0
    3.6744  -18.1185   20.0904 N   0  0  0  0  0  0  0  0  0  0  0  0
    7.6351  -16.3270   19.8370 C   0  0  0  0  0  0  0  0  0  0  0  0
    8.1424  -17.2740   20.5681 O   0  0  0  0  0  0  0  0  0  0  0  0
    8.0447  -15.0425   20.1882 N   0  0  0  0  0  0  0  0  0  0  0  0
    8.1343  -13.9252   19.2289 C   0  0  0  0  0  0  0  0  0  0  0  0
    7.3187  -12.8657   19.9991 C   0  0  0  0  0  0  0  0  0  0  0  0
    7.3586  -13.2845   21.4535 C   0  0  0  0  0  0  0  0  0  0  0  0
    8.4402  -14.3948   21.3933 C   0  0  1  0  0  0  0  0  0  0  0  0
    8.5481  -15.1062   22.6358 C   0  0  0  0  0  0  0  0  0  0  0  0
    7.7608  -15.2836   23.5669 O   0  0  0  0  0  0  0  0  0  0  0  0
    9.8508  -15.7486   22.8391 N   0  0  0  0  0  0  0  0  0  0  0  0
   10.1452  -16.5005   24.0255 C   0  0  1  0  0  0  0  0  0  0  0  0
   10.3077  -17.9516   23.7100 C   0  0  0  0  0  0  0  0  0  0  0  0
    9.2317  -18.8471   24.2168 C   0  0  0  0  0  0  0  0  0  0  0  0
    9.4492  -20.3052   23.9853 C   0  0  0  0  0  0  0  0  0  0  0  0
    8.2175  -21.0433   24.4862 C   0  0  0  0  0  0  0  0  0  0  0  0
    8.3602  -22.4805   24.3168 N   0  0  0  0  0  0  0  0  0  0  0  0
   11.3808  -16.0152   24.7004 C   0  0  0  0  0  0  0  0  0  0  0  0
   11.6151  -16.3760   26.0132 O   0  0  0  0  0  0  0  0  0  0  0  0
   12.2035  -15.2898   24.0972 O   0  0  0  0  0  0  0  0  0  0  0  0
  2  9  1  0
  2  1  1  1
  3  2  1  0
  4  3  1  0
  4  8  1  0
  5  4  2  0
  6  5  1  0
  6  7  1  0
  7  8  2  0
  9 11  1  0
 10  9  2  0
 11 15  1  0
 11 12  1  0
 12 13  1  0
 14 13  1  0
 15 14  1  0
 15 16  1  1
 17 16  2  0
 18 16  1  0
 19 20  1  6
 19 18  1  0
 21 20  1  0
 22 23  1  0
 22 21  1  0
 24 23  1  0
 25 19  1  0
 25 26  1  0
 27 25  2  0
M  END
$$$$
