HPK.pdb
     RDKit          3D

 27 28  0  0  1  0  0  0  0  0999 V2000
   10.5842  -15.6524   16.0496 N   0  0  0  0  0  0  0  0  0  0  0  0
    9.4985  -15.2814   16.8602 C   0  0  1  0  0  0  0  0  0  0  0  0
    8.3208  -16.1760   16.5003 C   0  0  0  0  0  0  0  0  0  0  0  0
    8.0681  -16.0488   15.0398 C   0  0  0  0  0  0  0  0  0  0  0  0
    8.5203  -16.8769   14.0197 C   0  0  0  0  0  0  0  0  0  0  0  0
    8.0568  -16.3913   12.8616 N   0  0  0  0  0  0  0  0  0  0  0  0
    7.3337  -15.2991   13.0854 C   0  0  0  0  0  0  0  0  0  0  0  0
    7.3407  -15.0916   14.4061 N   0  0  0  0  0  0  0  0  0  0  0  0
    9.6874  -15.1675   18.3055 C   0  0  0  0  0  0  0  0  0  0  0  0
   10.3674  -16.1242   18.8630 O   0  0  0  0  0  0  0  0  0  0  0  0
    9.2473  -14.1814   19.1858 N   0  0  0  0  0  0  0  0  0  0  0  0
    9.1436  -12.7546   18.8250 C   0  0  0  0  0  0  0  0  0  0  0  0
    7.6914  -12.4864   19.2723 C   0  0  0  0  0  0  0  0  0  0  0  0
    7.3653  -13.5551   20.2940 C   0  0  0  0  0  0  0  0  0  0  0  0
    8.7767  -14.1540   20.5296 C   0  0  1  0  0  0  0  0  0  0  0  0
    8.7282  -15.3384   21.3399 C   0  0  0  0  0  0  0  0  0  0  0  0
    7.8930  -16.2371   21.4550 O   0  0  0  0  0  0  0  0  0  0  0  0
    9.9022  -15.5154   22.2008 N   0  0  0  0  0  0  0  0  0  0  0  0
   10.0163  -16.6249   23.1038 C   0  0  1  0  0  0  0  0  0  0  0  0
   10.9764  -17.6422   22.5794 C   0  0  0  0  0  0  0  0  0  0  0  0
   11.1868  -18.8369   23.4425 C   0  0  0  0  0  0  0  0  0  0  0  0
   12.1275  -19.8611   22.9012 C   0  0  0  0  0  0  0  0  0  0  0  0
   12.1337  -21.0396   23.8625 C   0  0  0  0  0  0  0  0  0  0  0  0
   13.1159  -22.0361   23.4669 N   0  0  0  0  0  0  0  0  0  0  0  0
   10.4634  -16.1971   24.4584 C   0  0  0  0  0  0  0  0  0  0  0  0
   10.1485  -16.9840   25.5493 O   0  0  0  0  0  0  0  0  0  0  0  0
   11.1160  -15.1413   24.6193 O   0  0  0  0  0  0  0  0  0  0  0  0
  2  9  1  0
  2  1  1  6
  3  2  1  0
  4  3  1  0
  4  8  1  0
  5  4  2  0
  6  5  1  0
  6  7  1  0
  7  8  2  0
  9 11  1  0
 10  9  2  0
 11 15  1  0
 11 12  1  0
 12 13  1  0
 14 13  1  0
 15 14  1  0
 15 16  1  6
 17 16  2  0
 18 16  1  0
 19 20  1  6
 19 18  1  0
 21 20  1  0
 22 23  1  0
 22 21  1  0
 24 23  1  0
 25 19  1  0
 25 26  1  0
 27 25  2  0
M  END
$$$$
