HPK.pdb
     RDKit          3D

 27 28  0  0  1  0  0  0  0  0999 V2000
    9.4766  -15.1225   21.2956 N   0  0  0  0  0  0  0  0  0  0  0  0
    8.4403  -14.5339   22.0394 C   0  0  1  0  0  0  0  0  0  0  0  0
    7.1593  -14.6479   21.2252 C   0  0  0  0  0  0  0  0  0  0  0  0
    7.4269  -14.1223   19.8594 C   0  0  0  0  0  0  0  0  0  0  0  0
    7.4195  -14.8218   18.6587 C   0  0  0  0  0  0  0  0  0  0  0  0
    7.7136  -13.9579   17.6793 N   0  0  0  0  0  0  0  0  0  0  0  0
    7.9084  -12.7458   18.1878 C   0  0  0  0  0  0  0  0  0  0  0  0
    7.7345  -12.8456   19.5096 N   0  0  0  0  0  0  0  0  0  0  0  0
    8.2471  -14.9239   23.4351 C   0  0  0  0  0  0  0  0  0  0  0  0
    8.5685  -16.1483   23.7287 O   0  0  0  0  0  0  0  0  0  0  0  0
    7.7678  -14.1779   24.5097 N   0  0  0  0  0  0  0  0  0  0  0  0
    7.8582  -12.7072   24.5852 C   0  0  0  0  0  0  0  0  0  0  0  0
    6.3853  -12.3804   24.9086 C   0  0  0  0  0  0  0  0  0  0  0  0
    5.8013  -13.6401   25.5124 C   0  0  0  0  0  0  0  0  0  0  0  0
    7.0941  -14.4691   25.7301 C   0  0  1  0  0  0  0  0  0  0  0  0
    6.8056  -15.8165   26.1336 C   0  0  0  0  0  0  0  0  0  0  0  0
    5.7849  -16.5045   26.0758 O   0  0  0  0  0  0  0  0  0  0  0  0
    7.9487  -16.5128   26.7331 N   0  0  0  0  0  0  0  0  0  0  0  0
    7.9429  -17.9324   26.9430 C   0  0  1  0  0  0  0  0  0  0  0  0
    7.8410  -18.6628   25.6438 C   0  0  0  0  0  0  0  0  0  0  0  0
    7.8069  -20.1482   25.7390 C   0  0  0  0  0  0  0  0  0  0  0  0
    7.8187  -20.8745   24.4354 C   0  0  0  0  0  0  0  0  0  0  0  0
    7.8844  -22.3641   24.7348 C   0  0  0  0  0  0  0  0  0  0  0  0
    7.9251  -23.1458   23.5093 N   0  0  0  0  0  0  0  0  0  0  0  0
    9.1643  -18.3948   27.6585 C   0  0  0  0  0  0  0  0  0  0  0  0
    9.0400  -19.3407   28.6576 O   0  0  0  0  0  0  0  0  0  0  0  0
   10.2938  -17.9402   27.3679 O   0  0  0  0  0  0  0  0  0  0  0  0
  2  9  1  0
  2  1  1  6
  3  2  1  0
  4  3  1  0
  4  8  1  0
  5  4  2  0
  6  5  1  0
  6  7  1  0
  7  8  2  0
  9 11  1  0
 10  9  2  0
 11 15  1  0
 11 12  1  0
 12 13  1  0
 14 13  1  0
 15 14  1  0
 15 16  1  6
 17 16  2  0
 18 16  1  0
 19 20  1  6
 19 18  1  0
 21 20  1  0
 22 23  1  0
 22 21  1  0
 24 23  1  0
 25 19  1  0
 25 26  1  0
 27 25  2  0
M  END
$$$$
