HPK.pdb
     RDKit          3D

 27 28  0  0  1  0  0  0  0  0999 V2000
   10.8333  -16.0390   16.8479 N   0  0  0  0  0  0  0  0  0  0  0  0
    9.7300  -15.4210   17.4600 C   0  0  1  0  0  0  0  0  0  0  0  0
    8.4672  -16.0539   16.8928 C   0  0  0  0  0  0  0  0  0  0  0  0
    8.2625  -15.5315   15.5149 C   0  0  0  0  0  0  0  0  0  0  0  0
    8.5922  -14.2755   15.0203 C   0  0  0  0  0  0  0  0  0  0  0  0
    8.2313  -14.2348   13.7318 N   0  0  0  0  0  0  0  0  0  0  0  0
    7.6895  -15.3949   13.3763 C   0  0  0  0  0  0  0  0  0  0  0  0
    7.7085  -16.1809   14.4575 N   0  0  0  0  0  0  0  0  0  0  0  0
    9.6875  -15.3076   18.9170 C   0  0  0  0  0  0  0  0  0  0  0  0
   10.2223  -16.2919   19.5756 O   0  0  0  0  0  0  0  0  0  0  0  0
    9.1577  -14.2968   19.7160 N   0  0  0  0  0  0  0  0  0  0  0  0
    9.2986  -12.8599   19.4122 C   0  0  0  0  0  0  0  0  0  0  0  0
    7.8191  -12.4341   19.5161 C   0  0  0  0  0  0  0  0  0  0  0  0
    7.1434  -13.4800   20.3774 C   0  0  0  0  0  0  0  0  0  0  0  0
    8.3834  -14.2447   20.9101 C   0  0  1  0  0  0  0  0  0  0  0  0
    8.0137  -15.4330   21.6261 C   0  0  0  0  0  0  0  0  0  0  0  0
    7.2372  -16.3547   21.3690 O   0  0  0  0  0  0  0  0  0  0  0  0
    8.6921  -15.5813   22.9179 N   0  0  0  0  0  0  0  0  0  0  0  0
    8.4534  -16.7100   23.7713 C   0  0  1  0  0  0  0  0  0  0  0  0
    9.5448  -16.8550   24.7810 C   0  0  0  0  0  0  0  0  0  0  0  0
    9.4358  -18.0327   25.6852 C   0  0  0  0  0  0  0  0  0  0  0  0
   10.5226  -18.1650   26.6993 C   0  0  0  0  0  0  0  0  0  0  0  0
   10.2338  -19.4059   27.5297 C   0  0  0  0  0  0  0  0  0  0  0  0
   11.2538  -19.6080   28.5462 N   0  0  0  0  0  0  0  0  0  0  0  0
    7.1509  -16.6031   24.4852 C   0  0  0  0  0  0  0  0  0  0  0  0
    6.5354  -17.7548   24.9361 O   0  0  0  0  0  0  0  0  0  0  0  0
    6.6109  -15.4908   24.6802 O   0  0  0  0  0  0  0  0  0  0  0  0
  2  9  1  0
  2  1  1  1
  3  2  1  0
  4  3  1  0
  4  8  1  0
  5  4  2  0
  6  5  1  0
  6  7  1  0
  7  8  2  0
  9 11  1  0
 10  9  2  0
 11 15  1  0
 11 12  1  0
 12 13  1  0
 14 13  1  0
 15 14  1  0
 15 16  1  6
 17 16  2  0
 18 16  1  0
 19 20  1  1
 19 18  1  0
 21 20  1  0
 22 23  1  0
 22 21  1  0
 24 23  1  0
 25 19  1  0
 25 26  1  0
 27 25  2  0
M  END
$$$$
