HPK.pdb
     RDKit          3D

 27 28  0  0  1  0  0  0  0  0999 V2000
   10.2919  -15.4560   18.6908 N   0  0  0  0  0  0  0  0  0  0  0  0
    9.2716  -15.0293   19.5572 C   0  0  1  0  0  0  0  0  0  0  0  0
    7.9379  -15.4081   18.9291 C   0  0  0  0  0  0  0  0  0  0  0  0
    7.9278  -14.9168   17.5249 C   0  0  0  0  0  0  0  0  0  0  0  0
    7.8583  -13.6020   17.0807 C   0  0  0  0  0  0  0  0  0  0  0  0
    7.8761  -13.6200   15.7423 N   0  0  0  0  0  0  0  0  0  0  0  0
    7.9531  -14.8732   15.3071 C   0  0  0  0  0  0  0  0  0  0  0  0
    7.9845  -15.6593   16.3880 N   0  0  0  0  0  0  0  0  0  0  0  0
    9.3381  -15.3834   20.9741 C   0  0  0  0  0  0  0  0  0  0  0  0
    9.7436  -16.5899   21.2361 O   0  0  0  0  0  0  0  0  0  0  0  0
    9.0316  -14.6192   22.0980 N   0  0  0  0  0  0  0  0  0  0  0  0
    8.9620  -13.1455   22.0868 C   0  0  0  0  0  0  0  0  0  0  0  0
    7.5735  -12.9538   22.7321 C   0  0  0  0  0  0  0  0  0  0  0  0
    7.2960  -14.2230   23.5097 C   0  0  0  0  0  0  0  0  0  0  0  0
    8.6933  -14.8942   23.4537 C   0  0  1  0  0  0  0  0  0  0  0  0
    8.6661  -16.2332   23.9713 C   0  0  0  0  0  0  0  0  0  0  0  0
    7.7601  -17.0575   24.1062 O   0  0  0  0  0  0  0  0  0  0  0  0
    9.9721  -16.7173   24.4306 N   0  0  0  0  0  0  0  0  0  0  0  0
   10.1423  -18.0374   24.9670 C   0  0  1  0  0  0  0  0  0  0  0  0
   11.1260  -18.8184   24.1582 C   0  0  0  0  0  0  0  0  0  0  0  0
   11.3411  -20.2276   24.5877 C   0  0  0  0  0  0  0  0  0  0  0  0
   12.4241  -20.9592   23.8674 C   0  0  0  0  0  0  0  0  0  0  0  0
   12.4723  -22.3761   24.4177 C   0  0  0  0  0  0  0  0  0  0  0  0
   13.6463  -23.0873   23.9376 N   0  0  0  0  0  0  0  0  0  0  0  0
   10.6018  -18.0082   26.3833 C   0  0  0  0  0  0  0  0  0  0  0  0
   11.1908  -16.8594   26.8749 O   0  0  0  0  0  0  0  0  0  0  0  0
   10.4619  -19.0044   27.1280 O   0  0  0  0  0  0  0  0  0  0  0  0
  2  9  1  0
  2  1  1  6
  3  2  1  0
  4  3  1  0
  4  8  1  0
  5  4  2  0
  6  5  1  0
  6  7  1  0
  7  8  2  0
  9 11  1  0
 10  9  2  0
 11 15  1  0
 11 12  1  0
 12 13  1  0
 14 13  1  0
 15 14  1  0
 15 16  1  6
 17 16  2  0
 18 16  1  0
 19 20  1  6
 19 18  1  0
 21 20  1  0
 22 23  1  0
 22 21  1  0
 24 23  1  0
 25 19  1  0
 25 26  1  0
 27 25  2  0
M  END
$$$$
