HPK.pdb
     RDKit          3D

 27 28  0  0  1  0  0  0  0  0999 V2000
    9.7339  -14.6897   21.8189 N   0  0  0  0  0  0  0  0  0  0  0  0
    8.5440  -14.3951   22.5052 C   0  0  1  0  0  0  0  0  0  0  0  0
    7.3791  -14.7484   21.5913 C   0  0  0  0  0  0  0  0  0  0  0  0
    7.6414  -14.1565   20.2519 C   0  0  0  0  0  0  0  0  0  0  0  0
    8.7416  -13.4094   19.8492 C   0  0  0  0  0  0  0  0  0  0  0  0
    8.5648  -13.0795   18.5639 N   0  0  0  0  0  0  0  0  0  0  0  0
    7.4129  -13.5745   18.1235 C   0  0  0  0  0  0  0  0  0  0  0  0
    6.8532  -14.2274   19.1471 N   0  0  0  0  0  0  0  0  0  0  0  0
    8.3554  -14.8993   23.8645 C   0  0  0  0  0  0  0  0  0  0  0  0
    8.8072  -16.0966   24.0902 O   0  0  0  0  0  0  0  0  0  0  0  0
    7.7612  -14.2877   24.9663 N   0  0  0  0  0  0  0  0  0  0  0  0
    7.5478  -12.8318   25.0732 C   0  0  0  0  0  0  0  0  0  0  0  0
    6.0483  -12.8229   25.4370 C   0  0  0  0  0  0  0  0  0  0  0  0
    5.7534  -14.1866   26.0249 C   0  0  0  0  0  0  0  0  0  0  0  0
    7.1950  -14.7336   26.1945 C   0  0  1  0  0  0  0  0  0  0  0  0
    7.2019  -16.1184   26.5737 C   0  0  0  0  0  0  0  0  0  0  0  0
    6.2994  -16.9318   26.7794 O   0  0  0  0  0  0  0  0  0  0  0  0
    8.5462  -16.6769   26.7520 N   0  0  0  0  0  0  0  0  0  0  0  0
    8.7546  -17.9753   27.3267 C   0  0  1  0  0  0  0  0  0  0  0  0
    9.5146  -18.8568   26.3901 C   0  0  0  0  0  0  0  0  0  0  0  0
    9.1031  -18.7877   24.9610 C   0  0  0  0  0  0  0  0  0  0  0  0
    9.8696  -19.6668   24.0300 C   0  0  0  0  0  0  0  0  0  0  0  0
    9.3213  -19.4481   22.6284 C   0  0  0  0  0  0  0  0  0  0  0  0
   10.2392  -18.6604   21.8213 N   0  0  0  0  0  0  0  0  0  0  0  0
    9.4909  -17.9009   28.6190 C   0  0  0  0  0  0  0  0  0  0  0  0
   10.0160  -16.6890   29.0241 O   0  0  0  0  0  0  0  0  0  0  0  0
    9.6387  -18.9153   29.3372 O   0  0  0  0  0  0  0  0  0  0  0  0
  2  9  1  0
  2  1  1  6
  3  2  1  0
  4  3  1  0
  4  8  1  0
  5  4  2  0
  6  5  1  0
  6  7  1  0
  7  8  2  0
  9 11  1  0
 10  9  2  0
 11 15  1  0
 11 12  1  0
 12 13  1  0
 14 13  1  0
 15 14  1  0
 15 16  1  6
 17 16  2  0
 18 16  1  0
 19 20  1  6
 19 18  1  0
 21 20  1  0
 22 23  1  0
 22 21  1  0
 24 23  1  0
 25 19  1  0
 25 26  1  0
 27 25  2  0
M  END
$$$$
