HPK.pdb
     RDKit          3D

 27 28  0  0  1  0  0  0  0  0999 V2000
   10.7934  -15.8258   16.3724 N   0  0  0  0  0  0  0  0  0  0  0  0
    9.6960  -15.3388   17.1020 C   0  0  1  0  0  0  0  0  0  0  0  0
    8.4973  -16.2221   16.7863 C   0  0  0  0  0  0  0  0  0  0  0  0
    8.3016  -16.2324   15.3115 C   0  0  0  0  0  0  0  0  0  0  0  0
    9.0252  -15.5386   14.3493 C   0  0  0  0  0  0  0  0  0  0  0  0
    8.5090  -15.8404   13.1516 N   0  0  0  0  0  0  0  0  0  0  0  0
    7.4960  -16.6883   13.2956 C   0  0  0  0  0  0  0  0  0  0  0  0
    7.3704  -16.9259   14.6052 N   0  0  0  0  0  0  0  0  0  0  0  0
    9.8400  -15.0906   18.5356 C   0  0  0  0  0  0  0  0  0  0  0  0
   10.5550  -15.9566   19.1894 O   0  0  0  0  0  0  0  0  0  0  0  0
    9.3247  -14.0582   19.3164 N   0  0  0  0  0  0  0  0  0  0  0  0
    9.2820  -12.6497   18.8796 C   0  0  0  0  0  0  0  0  0  0  0  0
    7.7950  -12.3449   19.1566 C   0  0  0  0  0  0  0  0  0  0  0  0
    7.3461  -13.3591   20.1872 C   0  0  0  0  0  0  0  0  0  0  0  0
    8.7151  -13.9605   20.5997 C   0  0  1  0  0  0  0  0  0  0  0  0
    8.5627  -15.1034   21.4553 C   0  0  0  0  0  0  0  0  0  0  0  0
    7.6440  -15.9087   21.6165 O   0  0  0  0  0  0  0  0  0  0  0  0
    9.7282  -15.3660   22.3059 N   0  0  0  0  0  0  0  0  0  0  0  0
    9.7925  -16.5129   23.1661 C   0  0  1  0  0  0  0  0  0  0  0  0
    9.7600  -17.7775   22.3714 C   0  0  0  0  0  0  0  0  0  0  0  0
   10.9643  -18.0483   21.5390 C   0  0  0  0  0  0  0  0  0  0  0  0
   10.8888  -19.2657   20.6791 C   0  0  0  0  0  0  0  0  0  0  0  0
   12.1869  -19.3593   19.8924 C   0  0  0  0  0  0  0  0  0  0  0  0
   12.2287  -20.5703   19.0886 N   0  0  0  0  0  0  0  0  0  0  0  0
   11.0196  -16.5084   24.0099 C   0  0  0  0  0  0  0  0  0  0  0  0
   11.1437  -17.4425   25.0201 O   0  0  0  0  0  0  0  0  0  0  0  0
   11.9331  -15.6747   23.8165 O   0  0  0  0  0  0  0  0  0  0  0  0
  2  9  1  0
  2  1  1  1
  3  2  1  0
  4  3  1  0
  4  8  1  0
  5  4  2  0
  6  5  1  0
  6  7  1  0
  7  8  2  0
  9 11  1  0
 10  9  2  0
 11 15  1  0
 11 12  1  0
 12 13  1  0
 14 13  1  0
 15 14  1  0
 15 16  1  6
 17 16  2  0
 18 16  1  0
 19 20  1  6
 19 18  1  0
 21 20  1  0
 22 23  1  0
 22 21  1  0
 24 23  1  0
 25 19  1  0
 25 26  1  0
 27 25  2  0
M  END
$$$$
