CAF.pdb
     RDKit          3D

 23 23  0  0  1  0  0  0  0  0999 V2000
    6.4076  -18.3139   19.4717 N   0  0  0  0  0  0  0  0  0  0  0  0
    6.0636  -17.3938   20.5669 C   0  0  1  0  0  0  0  0  0  0  0  0
    5.7990  -18.2048   21.8099 C   0  0  0  0  0  0  0  0  0  0  0  0
    4.0288  -18.5824   21.8764 S   0  0  0  0  0  0  0  0  0  0  0  0
    7.2291  -16.4949   20.7667 C   0  0  0  0  0  0  0  0  0  0  0  0
    8.4218  -16.9066   20.6673 O   0  0  0  0  0  0  0  0  0  0  0  0
    7.7987  -12.7998   21.1394 C   0  0  0  0  0  0  0  0  0  0  0  0
    8.1532  -14.2605   21.2670 C   0  0  2  0  0  0  0  0  0  0  0  0
    7.0398  -15.1310   21.0788 N   0  0  0  0  0  0  0  0  0  0  0  0
    8.8127  -14.4891   22.5992 C   0  0  0  0  0  0  0  0  0  0  0  0
    9.8889  -13.8721   22.8225 O   0  0  0  0  0  0  0  0  0  0  0  0
    8.2691  -15.3473   23.5631 N   0  0  0  0  0  0  0  0  0  0  0  0
    8.9099  -15.4782   24.8610 C   0  0  1  0  0  0  0  0  0  0  0  0
    7.8541  -15.4007   25.9174 C   0  0  0  0  0  0  0  0  0  0  0  0
    7.3341  -14.0366   26.1197 C   0  0  0  0  0  0  0  0  0  0  0  0
    6.0515  -13.6640   25.7665 C   0  0  0  0  0  0  0  0  0  0  0  0
    5.6484  -12.3769   25.9967 C   0  0  0  0  0  0  0  0  0  0  0  0
    6.4895  -11.4420   26.5721 C   0  0  0  0  0  0  0  0  0  0  0  0
    7.7570  -11.8289   26.9158 C   0  0  0  0  0  0  0  0  0  0  0  0
    8.1724  -13.1053   26.6932 C   0  0  0  0  0  0  0  0  0  0  0  0
    9.7559  -16.6771   24.9338 C   0  0  0  0  0  0  0  0  0  0  0  0
   10.5137  -16.9325   26.0858 O   0  0  0  0  0  0  0  0  0  0  0  0
    9.8534  -17.5152   24.0131 O   0  0  0  0  0  0  0  0  0  0  0  0
  2  1  1  6
  3  4  1  0
  3  2  1  0
  5  2  1  0
  5  9  1  0
  6  5  2  0
  8  9  1  0
  8 10  1  0
  8  7  1  1
 10 12  1  0
 11 10  2  0
 12 13  1  0
 13 14  1  1
 14 15  1  0
 15 20  2  0
 15 16  1  0
 16 17  2  0
 17 18  1  0
 19 18  2  0
 20 19  1  0
 21 22  1  0
 21 13  1  0
 23 21  2  0
M  END
$$$$
