CAF.pdb
     RDKit          3D

 23 23  0  0  1  0  0  0  0  0999 V2000
    4.5184  -17.6724   23.0021 N   0  0  0  0  0  0  0  0  0  0  0  0
    5.0125  -18.1143   21.6888 C   0  0  1  0  0  0  0  0  0  0  0  0
    3.8912  -17.9932   20.6885 C   0  0  0  0  0  0  0  0  0  0  0  0
    2.3556  -18.5248   21.4884 S   0  0  0  0  0  0  0  0  0  0  0  0
    6.1405  -17.2203   21.3214 C   0  0  0  0  0  0  0  0  0  0  0  0
    6.8926  -17.4574   20.3314 O   0  0  0  0  0  0  0  0  0  0  0  0
    7.2523  -13.8441   21.4429 C   0  0  0  0  0  0  0  0  0  0  0  0
    7.5718  -15.2702   21.8165 C   0  0  2  0  0  0  0  0  0  0  0  0
    6.4133  -16.0595   22.0772 N   0  0  0  0  0  0  0  0  0  0  0  0
    8.5136  -15.2693   22.9892 C   0  0  0  0  0  0  0  0  0  0  0  0
    9.6306  -14.7075   22.8303 O   0  0  0  0  0  0  0  0  0  0  0  0
    8.1809  -15.8625   24.2134 N   0  0  0  0  0  0  0  0  0  0  0  0
    9.1384  -15.8541   25.3067 C   0  0  1  0  0  0  0  0  0  0  0  0
    8.4021  -15.5621   26.5752 C   0  0  0  0  0  0  0  0  0  0  0  0
    7.6663  -14.2856   26.5390 C   0  0  0  0  0  0  0  0  0  0  0  0
    6.3142  -14.2081   26.2665 C   0  0  0  0  0  0  0  0  0  0  0  0
    5.7089  -12.9811   26.2602 C   0  0  0  0  0  0  0  0  0  0  0  0
    6.4139  -11.8197   26.5187 C   0  0  0  0  0  0  0  0  0  0  0  0
    7.7530  -11.9155   26.7867 C   0  0  0  0  0  0  0  0  0  0  0  0
    8.3691  -13.1286   26.7967 C   0  0  0  0  0  0  0  0  0  0  0  0
    9.9412  -17.0841   25.3390 C   0  0  0  0  0  0  0  0  0  0  0  0
    9.7278  -18.0868   24.3821 O   0  0  0  0  0  0  0  0  0  0  0  0
   10.8308  -17.3108   26.1856 O   0  0  0  0  0  0  0  0  0  0  0  0
  2  1  1  1
  3  4  1  0
  3  2  1  0
  5  2  1  0
  5  9  1  0
  6  5  2  0
  8  9  1  0
  8 10  1  0
  8  7  1  1
 10 12  1  0
 11 10  2  0
 12 13  1  0
 13 14  1  1
 14 15  1  0
 15 20  2  0
 15 16  1  0
 16 17  2  0
 17 18  1  0
 19 18  2  0
 20 19  1  0
 21 22  1  0
 21 13  1  0
 23 21  2  0
M  END
$$$$
