CAF.pdb
     RDKit          3D

 23 23  0  0  1  0  0  0  0  0999 V2000
    7.0649  -13.1527   19.2781 N   0  0  0  0  0  0  0  0  0  0  0  0
    8.0996  -14.1834   19.4550 C   0  0  1  0  0  0  0  0  0  0  0  0
    9.4481  -13.5100   19.4828 C   0  0  0  0  0  0  0  0  0  0  0  0
    9.3232  -12.0294   20.5186 S   0  0  0  0  0  0  0  0  0  0  0  0
    7.8264  -14.8614   20.7481 C   0  0  0  0  0  0  0  0  0  0  0  0
    7.0917  -14.3424   21.6385 O   0  0  0  0  0  0  0  0  0  0  0  0
    8.1658  -18.3682   21.9983 C   0  0  0  0  0  0  0  0  0  0  0  0
    7.9605  -16.8826   22.1600 C   0  0  2  0  0  0  0  0  0  0  0  0
    8.3868  -16.1265   21.0289 N   0  0  0  0  0  0  0  0  0  0  0  0
    8.6481  -16.4279   23.4180 C   0  0  0  0  0  0  0  0  0  0  0  0
    9.8017  -15.9345   23.2977 O   0  0  0  0  0  0  0  0  0  0  0  0
    8.0479  -16.5401   24.6783 N   0  0  0  0  0  0  0  0  0  0  0  0
    8.7761  -16.1290   25.8670 C   0  0  1  0  0  0  0  0  0  0  0  0
    7.7951  -15.5835   26.8552 C   0  0  0  0  0  0  0  0  0  0  0  0
    7.3033  -14.2393   26.5039 C   0  0  0  0  0  0  0  0  0  0  0  0
    6.0185  -14.0060   26.0532 C   0  0  0  0  0  0  0  0  0  0  0  0
    5.6431  -12.7243   25.7562 C   0  0  0  0  0  0  0  0  0  0  0  0
    6.5143  -11.6593   25.8953 C   0  0  0  0  0  0  0  0  0  0  0  0
    7.7836  -11.9091   26.3433 C   0  0  0  0  0  0  0  0  0  0  0  0
    8.1717  -13.1783   26.6427 C   0  0  0  0  0  0  0  0  0  0  0  0
    9.6265  -17.2084   26.3870 C   0  0  0  0  0  0  0  0  0  0  0  0
   10.6997  -16.9082   27.2381 O   0  0  0  0  0  0  0  0  0  0  0  0
    9.4581  -18.4161   26.1173 O   0  0  0  0  0  0  0  0  0  0  0  0
  2  1  1  1
  3  4  1  0
  3  2  1  0
  5  2  1  0
  5  9  1  0
  6  5  2  0
  8  9  1  0
  8 10  1  0
  8  7  1  6
 10 12  1  0
 11 10  2  0
 12 13  1  0
 13 14  1  1
 14 15  1  0
 15 20  2  0
 15 16  1  0
 16 17  2  0
 17 18  1  0
 19 18  2  0
 20 19  1  0
 21 22  1  0
 21 13  1  0
 23 21  2  0
M  END
$$$$
