CAF.pdb
     RDKit          3D

 23 23  0  0  1  0  0  0  0  0999 V2000
    5.7573  -15.2049   19.3087 N   0  0  0  0  0  0  0  0  0  0  0  0
    6.7286  -16.2144   19.7579 C   0  0  1  0  0  0  0  0  0  0  0  0
    8.1105  -15.7607   19.3616 C   0  0  0  0  0  0  0  0  0  0  0  0
    8.4085  -14.1338   20.0998 S   0  0  0  0  0  0  0  0  0  0  0  0
    6.6121  -16.3076   21.2358 C   0  0  0  0  0  0  0  0  0  0  0  0
    6.0334  -15.4162   21.9232 O   0  0  0  0  0  0  0  0  0  0  0  0
    6.9131  -18.9603   23.8174 C   0  0  0  0  0  0  0  0  0  0  0  0
    7.0049  -17.5308   23.3444 C   0  0  2  0  0  0  0  0  0  0  0  0
    7.1521  -17.4112   21.9313 N   0  0  0  0  0  0  0  0  0  0  0  0
    8.1262  -16.8449   24.0755 C   0  0  0  0  0  0  0  0  0  0  0  0
    9.2250  -16.7317   23.4687 O   0  0  0  0  0  0  0  0  0  0  0  0
    7.9743  -16.3467   25.3755 N   0  0  0  0  0  0  0  0  0  0  0  0
    9.0996  -15.7181   26.0468 C   0  0  1  0  0  0  0  0  0  0  0  0
    8.5686  -14.8435   27.1375 C   0  0  0  0  0  0  0  0  0  0  0  0
    7.7495  -13.7247   26.6379 C   0  0  0  0  0  0  0  0  0  0  0  0
    6.5716  -13.3305   27.2427 C   0  0  0  0  0  0  0  0  0  0  0  0
    5.8771  -12.2758   26.7159 C   0  0  0  0  0  0  0  0  0  0  0  0
    6.3226  -11.5963   25.5968 C   0  0  0  0  0  0  0  0  0  0  0  0
    7.4918  -12.0008   25.0106 C   0  0  0  0  0  0  0  0  0  0  0  0
    8.1937  -13.0479   25.5228 C   0  0  0  0  0  0  0  0  0  0  0  0
   10.0929  -16.7061   26.4891 C   0  0  0  0  0  0  0  0  0  0  0  0
   11.4413  -16.3403   26.6095 O   0  0  0  0  0  0  0  0  0  0  0  0
    9.8153  -17.8895   26.7757 O   0  0  0  0  0  0  0  0  0  0  0  0
  2  1  1  1
  3  4  1  0
  3  2  1  0
  5  2  1  0
  5  9  1  0
  6  5  2  0
  8  9  1  0
  8 10  1  0
  8  7  1  6
 10 12  1  0
 11 10  2  0
 12 13  1  0
 13 14  1  1
 14 15  1  0
 15 20  2  0
 15 16  1  0
 16 17  2  0
 17 18  1  0
 19 18  2  0
 20 19  1  0
 21 22  1  0
 21 13  1  0
 23 21  2  0
M  END
$$$$
