CAF.pdb
     RDKit          3D

 23 23  0  0  1  0  0  0  0  0999 V2000
    6.3752  -19.8998   21.9113 N   0  0  0  0  0  0  0  0  0  0  0  0
    5.7809  -18.5721   22.1311 C   0  0  1  0  0  0  0  0  0  0  0  0
    5.3757  -18.4613   23.5790 C   0  0  0  0  0  0  0  0  0  0  0  0
    6.8624  -18.6289   24.6000 S   0  0  0  0  0  0  0  0  0  0  0  0
    6.8221  -17.5656   21.8005 C   0  0  0  0  0  0  0  0  0  0  0  0
    8.0345  -17.8837   21.6247 O   0  0  0  0  0  0  0  0  0  0  0  0
    6.9088  -13.8765   21.0105 C   0  0  0  0  0  0  0  0  0  0  0  0
    7.4817  -15.2268   21.3624 C   0  0  2  0  0  0  0  0  0  0  0  0
    6.4865  -16.2004   21.6700 N   0  0  0  0  0  0  0  0  0  0  0  0
    8.4607  -15.0633   22.4924 C   0  0  0  0  0  0  0  0  0  0  0  0
    9.4690  -14.3373   22.2803 O   0  0  0  0  0  0  0  0  0  0  0  0
    8.2766  -15.6835   23.7345 N   0  0  0  0  0  0  0  0  0  0  0  0
    9.1485  -15.3488   24.8480 C   0  0  1  0  0  0  0  0  0  0  0  0
    8.3301  -15.3365   26.0997 C   0  0  0  0  0  0  0  0  0  0  0  0
    9.0950  -14.9229   27.2896 C   0  0  0  0  0  0  0  0  0  0  0  0
    9.7819  -15.8180   28.0868 C   0  0  0  0  0  0  0  0  0  0  0  0
   10.4725  -15.3462   29.1696 C   0  0  0  0  0  0  0  0  0  0  0  0
   10.5006  -14.0001   29.4857 C   0  0  0  0  0  0  0  0  0  0  0  0
    9.8143  -13.1275   28.6846 C   0  0  0  0  0  0  0  0  0  0  0  0
    9.1228  -13.5815   27.6042 C   0  0  0  0  0  0  0  0  0  0  0  0
   10.3271  -16.2243   24.9009 C   0  0  0  0  0  0  0  0  0  0  0  0
   10.1882  -17.6024   24.6812 O   0  0  0  0  0  0  0  0  0  0  0  0
   11.4844  -15.8176   25.1352 O   0  0  0  0  0  0  0  0  0  0  0  0
  2  1  1  1
  3  4  1  0
  3  2  1  0
  5  2  1  0
  5  9  1  0
  6  5  2  0
  8  9  1  0
  8 10  1  0
  8  7  1  1
 10 12  1  0
 11 10  2  0
 12 13  1  0
 13 14  1  1
 14 15  1  0
 15 20  2  0
 15 16  1  0
 16 17  2  0
 17 18  1  0
 19 18  2  0
 20 19  1  0
 21 22  1  0
 21 13  1  0
 23 21  2  0
M  END
$$$$
