CAF.pdb
     RDKit          3D

 23 23  0  0  1  0  0  0  0  0999 V2000
    6.4173  -19.8150   21.7558 N   0  0  0  0  0  0  0  0  0  0  0  0
    5.8748  -18.4914   22.0993 C   0  0  1  0  0  0  0  0  0  0  0  0
    5.4183  -18.5179   23.5359 C   0  0  0  0  0  0  0  0  0  0  0  0
    6.8769  -18.7074   24.5927 S   0  0  0  0  0  0  0  0  0  0  0  0
    6.9721  -17.5070   21.9170 C   0  0  0  0  0  0  0  0  0  0  0  0
    8.1580  -17.8618   21.6527 O   0  0  0  0  0  0  0  0  0  0  0  0
    7.2769  -13.7945   21.4979 C   0  0  0  0  0  0  0  0  0  0  0  0
    7.7714  -15.1714   21.8655 C   0  0  2  0  0  0  0  0  0  0  0  0
    6.7226  -16.1224   22.0345 N   0  0  0  0  0  0  0  0  0  0  0  0
    8.6279  -15.0705   23.0978 C   0  0  0  0  0  0  0  0  0  0  0  0
    9.6758  -14.3750   23.0154 O   0  0  0  0  0  0  0  0  0  0  0  0
    8.2915  -15.7149   24.2947 N   0  0  0  0  0  0  0  0  0  0  0  0
    9.1492  -15.5742   25.4595 C   0  0  1  0  0  0  0  0  0  0  0  0
    8.2927  -15.2311   26.6364 C   0  0  0  0  0  0  0  0  0  0  0  0
    7.6876  -13.8905   26.5431 C   0  0  0  0  0  0  0  0  0  0  0  0
    8.4112  -12.7278   26.7251 C   0  0  0  0  0  0  0  0  0  0  0  0
    7.7702  -11.5242   26.6134 C   0  0  0  0  0  0  0  0  0  0  0  0
    6.4205  -11.4417   26.3238 C   0  0  0  0  0  0  0  0  0  0  0  0
    5.7192  -12.6041   26.1466 C   0  0  0  0  0  0  0  0  0  0  0  0
    6.3426  -13.8087   26.2544 C   0  0  0  0  0  0  0  0  0  0  0  0
   10.0047  -16.7529   25.6532 C   0  0  0  0  0  0  0  0  0  0  0  0
    9.9663  -17.8074   24.7296 O   0  0  0  0  0  0  0  0  0  0  0  0
   10.7912  -16.8899   26.6135 O   0  0  0  0  0  0  0  0  0  0  0  0
  2  1  1  1
  3  4  1  0
  3  2  1  0
  5  2  1  0
  5  9  1  0
  6  5  2  0
  8  9  1  0
  8 10  1  0
  8  7  1  1
 10 12  1  0
 11 10  2  0
 12 13  1  0
 13 14  1  1
 14 15  1  0
 15 20  2  0
 15 16  1  0
 16 17  2  0
 17 18  1  0
 19 18  2  0
 20 19  1  0
 21 22  1  0
 21 13  1  0
 23 21  2  0
M  END
$$$$
