CAF.pdb
     RDKit          3D

 23 23  0  0  1  0  0  0  0  0999 V2000
    7.2085  -14.3080   18.6660 N   0  0  0  0  0  0  0  0  0  0  0  0
    8.1902  -14.0993   19.7416 C   0  0  1  0  0  0  0  0  0  0  0  0
    8.0076  -12.7089   20.2950 C   0  0  0  0  0  0  0  0  0  0  0  0
    8.7689  -11.5347   19.1452 S   0  0  0  0  0  0  0  0  0  0  0  0
    7.9181  -15.1187   20.7872 C   0  0  0  0  0  0  0  0  0  0  0  0
    6.7416  -15.4233   21.1407 O   0  0  0  0  0  0  0  0  0  0  0  0
    9.3682  -18.1341   22.0398 C   0  0  0  0  0  0  0  0  0  0  0  0
    8.7272  -16.8141   22.3896 C   0  0  2  0  0  0  0  0  0  0  0  0
    8.9806  -15.7906   21.4298 N   0  0  0  0  0  0  0  0  0  0  0  0
    9.1744  -16.4027   23.7654 C   0  0  0  0  0  0  0  0  0  0  0  0
   10.2973  -15.8384   23.8613 O   0  0  0  0  0  0  0  0  0  0  0  0
    8.3899  -16.6287   24.9033 N   0  0  0  0  0  0  0  0  0  0  0  0
    8.9003  -16.2750   26.2173 C   0  0  1  0  0  0  0  0  0  0  0  0
    7.7798  -15.6883   27.0154 C   0  0  0  0  0  0  0  0  0  0  0  0
    7.4180  -14.3236   26.5926 C   0  0  0  0  0  0  0  0  0  0  0  0
    6.2498  -14.0347   25.9141 C   0  0  0  0  0  0  0  0  0  0  0  0
    5.9895  -12.7375   25.5656 C   0  0  0  0  0  0  0  0  0  0  0  0
    6.8634  -11.7110   25.8741 C   0  0  0  0  0  0  0  0  0  0  0  0
    8.0162  -12.0157   26.5468 C   0  0  0  0  0  0  0  0  0  0  0  0
    8.2890  -13.3010   26.9002 C   0  0  0  0  0  0  0  0  0  0  0  0
    9.5785  -17.4072   26.8626 C   0  0  0  0  0  0  0  0  0  0  0  0
    9.5741  -18.6691   26.2510 O   0  0  0  0  0  0  0  0  0  0  0  0
   10.1800  -17.3260   27.9541 O   0  0  0  0  0  0  0  0  0  0  0  0
  2  1  1  6
  3  4  1  0
  3  2  1  0
  5  2  1  0
  5  9  1  0
  6  5  2  0
  8  9  1  0
  8 10  1  0
  8  7  1  6
 10 12  1  0
 11 10  2  0
 12 13  1  0
 13 14  1  1
 14 15  1  0
 15 20  2  0
 15 16  1  0
 16 17  2  0
 17 18  1  0
 19 18  2  0
 20 19  1  0
 21 22  1  0
 21 13  1  0
 23 21  2  0
M  END
$$$$
