CAF.pdb
     RDKit          3D

 23 23  0  0  1  0  0  0  0  0999 V2000
    5.7425  -19.3802   21.5876 N   0  0  0  0  0  0  0  0  0  0  0  0
    5.7646  -18.3483   22.6359 C   0  0  1  0  0  0  0  0  0  0  0  0
    6.0257  -19.0166   23.9618 C   0  0  0  0  0  0  0  0  0  0  0  0
    6.4619  -17.7371   25.1673 S   0  0  0  0  0  0  0  0  0  0  0  0
    6.8620  -17.4054   22.2999 C   0  0  0  0  0  0  0  0  0  0  0  0
    7.9967  -17.8054   21.9070 O   0  0  0  0  0  0  0  0  0  0  0  0
    7.1700  -13.7363   21.6414 C   0  0  0  0  0  0  0  0  0  0  0  0
    7.6953  -15.0975   22.0247 C   0  0  2  0  0  0  0  0  0  0  0  0
    6.6707  -16.0109   22.4102 N   0  0  0  0  0  0  0  0  0  0  0  0
    8.7264  -14.9365   23.1079 C   0  0  0  0  0  0  0  0  0  0  0  0
    9.8125  -14.3811   22.7911 O   0  0  0  0  0  0  0  0  0  0  0  0
    8.5067  -15.3787   24.4184 N   0  0  0  0  0  0  0  0  0  0  0  0
    9.6231  -15.4909   25.3421 C   0  0  1  0  0  0  0  0  0  0  0  0
    9.6661  -14.2538   26.1813 C   0  0  0  0  0  0  0  0  0  0  0  0
    8.3986  -13.5018   26.1726 C   0  0  0  0  0  0  0  0  0  0  0  0
    8.2881  -12.2261   25.6541 C   0  0  0  0  0  0  0  0  0  0  0  0
    7.0701  -11.6034   25.6805 C   0  0  0  0  0  0  0  0  0  0  0  0
    5.9499  -12.2164   26.2115 C   0  0  0  0  0  0  0  0  0  0  0  0
    6.0779  -13.4806   26.7209 C   0  0  0  0  0  0  0  0  0  0  0  0
    7.2825  -14.1130   26.7018 C   0  0  0  0  0  0  0  0  0  0  0  0
    9.5742  -16.7437   26.1080 C   0  0  0  0  0  0  0  0  0  0  0  0
   10.5964  -17.0505   27.0177 O   0  0  0  0  0  0  0  0  0  0  0  0
    8.6573  -17.5853   26.0051 O   0  0  0  0  0  0  0  0  0  0  0  0
  2  1  1  6
  3  4  1  0
  3  2  1  0
  5  2  1  0
  5  9  1  0
  6  5  2  0
  8  9  1  0
  8 10  1  0
  8  7  1  1
 10 12  1  0
 11 10  2  0
 12 13  1  0
 13 14  1  1
 14 15  1  0
 15 20  2  0
 15 16  1  0
 16 17  2  0
 17 18  1  0
 19 18  2  0
 20 19  1  0
 21 22  1  0
 21 13  1  0
 23 21  2  0
M  END
$$$$
