CAF.pdb
     RDKit          3D

 23 23  0  0  1  0  0  0  0  0999 V2000
    5.9730  -19.4117   21.0535 N   0  0  0  0  0  0  0  0  0  0  0  0
    5.9568  -18.3804   22.1025 C   0  0  1  0  0  0  0  0  0  0  0  0
    6.2399  -19.0398   23.4283 C   0  0  0  0  0  0  0  0  0  0  0  0
    6.0893  -17.7887   24.7293 S   0  0  0  0  0  0  0  0  0  0  0  0
    7.0203  -17.3986   21.7686 C   0  0  0  0  0  0  0  0  0  0  0  0
    8.1590  -17.7565   21.3477 O   0  0  0  0  0  0  0  0  0  0  0  0
    7.3885  -13.6896   21.4048 C   0  0  0  0  0  0  0  0  0  0  0  0
    7.8556  -15.0750   21.7762 C   0  0  2  0  0  0  0  0  0  0  0  0
    6.7905  -16.0131   21.9126 N   0  0  0  0  0  0  0  0  0  0  0  0
    8.6817  -14.9927   23.0304 C   0  0  0  0  0  0  0  0  0  0  0  0
    9.7479  -14.3228   22.9747 O   0  0  0  0  0  0  0  0  0  0  0  0
    8.2987  -15.6269   24.2188 N   0  0  0  0  0  0  0  0  0  0  0  0
    9.1427  -15.5278   25.3977 C   0  0  1  0  0  0  0  0  0  0  0  0
    8.2703  -15.2458   26.5791 C   0  0  0  0  0  0  0  0  0  0  0  0
    7.5851  -13.9435   26.4975 C   0  0  0  0  0  0  0  0  0  0  0  0
    8.2390  -12.7405   26.6807 C   0  0  0  0  0  0  0  0  0  0  0  0
    7.5261  -11.5770   26.5802 C   0  0  0  0  0  0  0  0  0  0  0  0
    6.1717  -11.5743   26.3007 C   0  0  0  0  0  0  0  0  0  0  0  0
    5.5401  -12.7757   26.1222 C   0  0  0  0  0  0  0  0  0  0  0  0
    6.2355  -13.9413   26.2190 C   0  0  0  0  0  0  0  0  0  0  0  0
   10.0096  -16.7043   25.5491 C   0  0  0  0  0  0  0  0  0  0  0  0
   10.9284  -16.7678   26.6066 O   0  0  0  0  0  0  0  0  0  0  0  0
    9.9879  -17.6867   24.7783 O   0  0  0  0  0  0  0  0  0  0  0  0
  2  1  1  6
  3  4  1  0
  3  2  1  0
  5  2  1  0
  5  9  1  0
  6  5  2  0
  8  9  1  0
  8 10  1  0
  8  7  1  1
 10 12  1  0
 11 10  2  0
 12 13  1  0
 13 14  1  1
 14 15  1  0
 15 20  2  0
 15 16  1  0
 16 17  2  0
 17 18  1  0
 19 18  2  0
 20 19  1  0
 21 22  1  0
 21 13  1  0
 23 21  2  0
M  END
$$$$
