CAF.pdb
     RDKit          3D

 23 23  0  0  1  0  0  0  0  0999 V2000
    7.0937  -14.4309   17.6362 N   0  0  0  0  0  0  0  0  0  0  0  0
    8.2333  -14.1527   18.5240 C   0  0  1  0  0  0  0  0  0  0  0  0
    8.0887  -12.7536   19.0666 C   0  0  0  0  0  0  0  0  0  0  0  0
    9.4261  -12.4627   20.2528 S   0  0  0  0  0  0  0  0  0  0  0  0
    8.1847  -15.1487   19.6249 C   0  0  0  0  0  0  0  0  0  0  0  0
    7.1703  -15.2794   20.3704 O   0  0  0  0  0  0  0  0  0  0  0  0
   10.0156  -18.1815   20.7144 C   0  0  0  0  0  0  0  0  0  0  0  0
    9.2828  -16.8914   20.9866 C   0  0  2  0  0  0  0  0  0  0  0  0
    9.2865  -15.9944   19.8783 N   0  0  0  0  0  0  0  0  0  0  0  0
    9.8628  -16.2497   22.2171 C   0  0  0  0  0  0  0  0  0  0  0  0
   10.8640  -15.5009   22.0586 O   0  0  0  0  0  0  0  0  0  0  0  0
    9.3265  -16.4636   23.4930 N   0  0  0  0  0  0  0  0  0  0  0  0
    9.9367  -15.8317   24.6509 C   0  0  1  0  0  0  0  0  0  0  0  0
    8.8885  -15.6676   25.7048 C   0  0  0  0  0  0  0  0  0  0  0  0
    9.3905  -15.0131   26.9262 C   0  0  0  0  0  0  0  0  0  0  0  0
    9.2652  -13.6564   27.1543 C   0  0  0  0  0  0  0  0  0  0  0  0
    9.7541  -13.1326   28.3199 C   0  0  0  0  0  0  0  0  0  0  0  0
   10.3687  -13.9241   29.2729 C   0  0  0  0  0  0  0  0  0  0  0  0
   10.4841  -15.2665   29.0300 C   0  0  0  0  0  0  0  0  0  0  0  0
   10.0029  -15.8022   27.8756 C   0  0  0  0  0  0  0  0  0  0  0  0
   11.1384  -16.5508   25.0952 C   0  0  0  0  0  0  0  0  0  0  0  0
   11.1008  -17.9422   25.2659 O   0  0  0  0  0  0  0  0  0  0  0  0
   12.2293  -15.9948   25.3408 O   0  0  0  0  0  0  0  0  0  0  0  0
  2  1  1  6
  3  4  1  0
  3  2  1  0
  5  2  1  0
  5  9  1  0
  6  5  2  0
  8  9  1  0
  8 10  1  0
  8  7  1  6
 10 12  1  0
 11 10  2  0
 12 13  1  0
 13 14  1  1
 14 15  1  0
 15 20  2  0
 15 16  1  0
 16 17  2  0
 17 18  1  0
 19 18  2  0
 20 19  1  0
 21 22  1  0
 21 13  1  0
 23 21  2  0
M  END
$$$$
