CAF.pdb
     RDKit          3D

 23 23  0  0  1  0  0  0  0  0999 V2000
    7.0199  -14.4580   18.4186 N   0  0  0  0  0  0  0  0  0  0  0  0
    8.0311  -14.1625   19.4455 C   0  0  1  0  0  0  0  0  0  0  0  0
    7.9578  -12.6951   19.7831 C   0  0  0  0  0  0  0  0  0  0  0  0
    9.1518  -12.3546   21.1018 S   0  0  0  0  0  0  0  0  0  0  0  0
    7.7032  -14.9902   20.6346 C   0  0  0  0  0  0  0  0  0  0  0  0
    6.5149  -15.1400   21.0438 O   0  0  0  0  0  0  0  0  0  0  0  0
    8.8120  -17.9935   22.0623 C   0  0  0  0  0  0  0  0  0  0  0  0
    8.4079  -16.5775   22.3898 C   0  0  2  0  0  0  0  0  0  0  0  0
    8.7234  -15.6464   21.3571 N   0  0  0  0  0  0  0  0  0  0  0  0
    9.0325  -16.1810   23.6993 C   0  0  0  0  0  0  0  0  0  0  0  0
   10.2196  -15.7588   23.6666 O   0  0  0  0  0  0  0  0  0  0  0  0
    8.3401  -16.2704   24.9133 N   0  0  0  0  0  0  0  0  0  0  0  0
    8.9892  -15.8663   26.1493 C   0  0  1  0  0  0  0  0  0  0  0  0
    7.9485  -15.3088   27.0672 C   0  0  0  0  0  0  0  0  0  0  0  0
    7.4476  -13.9889   26.6438 C   0  0  0  0  0  0  0  0  0  0  0  0
    8.2412  -12.8584   26.6221 C   0  0  0  0  0  0  0  0  0  0  0  0
    7.6958  -11.6739   26.2079 C   0  0  0  0  0  0  0  0  0  0  0  0
    6.3743  -11.5796   25.8114 C   0  0  0  0  0  0  0  0  0  0  0  0
    5.6027  -12.7101   25.8393 C   0  0  0  0  0  0  0  0  0  0  0  0
    6.1307  -13.8954   26.2488 C   0  0  0  0  0  0  0  0  0  0  0  0
    9.7893  -16.9547   26.7269 C   0  0  0  0  0  0  0  0  0  0  0  0
   10.7624  -16.6723   27.6964 O   0  0  0  0  0  0  0  0  0  0  0  0
    9.6623  -18.1552   26.4071 O   0  0  0  0  0  0  0  0  0  0  0  0
  2  1  1  6
  3  4  1  0
  3  2  1  0
  5  2  1  0
  5  9  1  0
  6  5  2  0
  8  9  1  0
  8 10  1  0
  8  7  1  6
 10 12  1  0
 11 10  2  0
 12 13  1  0
 13 14  1  1
 14 15  1  0
 15 20  2  0
 15 16  1  0
 16 17  2  0
 17 18  1  0
 19 18  2  0
 20 19  1  0
 21 22  1  0
 21 13  1  0
 23 21  2  0
M  END
$$$$
