CAF.pdb
     RDKit          3D

 23 23  0  0  1  0  0  0  0  0999 V2000
    6.3885  -14.6490   21.0035 N   0  0  0  0  0  0  0  0  0  0  0  0
    7.8088  -15.0277   21.0628 C   0  0  1  0  0  0  0  0  0  0  0  0
    8.6437  -13.7756   20.9727 C   0  0  0  0  0  0  0  0  0  0  0  0
    8.0824  -12.6246   22.2535 S   0  0  0  0  0  0  0  0  0  0  0  0
    8.0267  -15.7096   22.3643 C   0  0  0  0  0  0  0  0  0  0  0  0
    7.1890  -15.6383   23.3104 O   0  0  0  0  0  0  0  0  0  0  0  0
   10.4027  -18.2700   23.7377 C   0  0  0  0  0  0  0  0  0  0  0  0
    9.4004  -17.1464   23.8289 C   0  0  2  0  0  0  0  0  0  0  0  0
    9.1940  -16.4710   22.5904 N   0  0  0  0  0  0  0  0  0  0  0  0
    9.8301  -16.1944   24.9112 C   0  0  0  0  0  0  0  0  0  0  0  0
   10.6623  -15.3018   24.5959 O   0  0  0  0  0  0  0  0  0  0  0  0
    9.3374  -16.2806   26.2192 N   0  0  0  0  0  0  0  0  0  0  0  0
    9.8512  -15.3910   27.2473 C   0  0  1  0  0  0  0  0  0  0  0  0
    8.6903  -14.7473   27.9361 C   0  0  0  0  0  0  0  0  0  0  0  0
    7.9069  -13.8654   27.0525 C   0  0  0  0  0  0  0  0  0  0  0  0
    6.7013  -14.2442   26.4942 C   0  0  0  0  0  0  0  0  0  0  0  0
    6.0364  -13.3591   25.6901 C   0  0  0  0  0  0  0  0  0  0  0  0
    6.5386  -12.0986   25.4227 C   0  0  0  0  0  0  0  0  0  0  0  0
    7.7346  -11.7403   25.9845 C   0  0  0  0  0  0  0  0  0  0  0  0
    8.4077  -12.6095   26.7862 C   0  0  0  0  0  0  0  0  0  0  0  0
   10.7867  -16.0792   28.1471 C   0  0  0  0  0  0  0  0  0  0  0  0
   10.9820  -17.4631   28.0316 O   0  0  0  0  0  0  0  0  0  0  0  0
   11.4440  -15.5025   29.0387 O   0  0  0  0  0  0  0  0  0  0  0  0
  2  1  1  1
  3  4  1  0
  3  2  1  0
  5  2  1  0
  5  9  1  0
  6  5  2  0
  8  9  1  0
  8 10  1  0
  8  7  1  6
 10 12  1  0
 11 10  2  0
 12 13  1  0
 13 14  1  1
 14 15  1  0
 15 20  2  0
 15 16  1  0
 16 17  2  0
 17 18  1  0
 19 18  2  0
 20 19  1  0
 21 22  1  0
 21 13  1  0
 23 21  2  0
M  END
$$$$
