CAF.pdb
     RDKit          3D

 23 23  0  0  1  0  0  0  0  0999 V2000
    6.6650  -13.8439   18.9842 N   0  0  0  0  0  0  0  0  0  0  0  0
    8.0104  -14.3401   19.3127 C   0  0  1  0  0  0  0  0  0  0  0  0
    8.9223  -13.1569   19.5154 C   0  0  0  0  0  0  0  0  0  0  0  0
    8.3028  -12.1956   20.9200 S   0  0  0  0  0  0  0  0  0  0  0  0
    7.8925  -15.1306   20.5648 C   0  0  0  0  0  0  0  0  0  0  0  0
    6.9397  -14.9616   21.3806 O   0  0  0  0  0  0  0  0  0  0  0  0
    9.3510  -18.2998   21.8780 C   0  0  0  0  0  0  0  0  0  0  0  0
    8.6898  -16.9524   22.0285 C   0  0  2  0  0  0  0  0  0  0  0  0
    8.8552  -16.1110   20.8893 N   0  0  0  0  0  0  0  0  0  0  0  0
    9.2020  -16.2933   23.2797 C   0  0  0  0  0  0  0  0  0  0  0  0
   10.3032  -15.6854   23.2009 O   0  0  0  0  0  0  0  0  0  0  0  0
    8.4989  -16.3423   24.4898 N   0  0  0  0  0  0  0  0  0  0  0  0
    9.0661  -15.7359   25.6826 C   0  0  1  0  0  0  0  0  0  0  0  0
    7.9432  -15.3038   26.5707 C   0  0  0  0  0  0  0  0  0  0  0  0
    7.4004  -13.9797   26.2182 C   0  0  0  0  0  0  0  0  0  0  0  0
    8.1480  -13.0099   25.5786 C   0  0  0  0  0  0  0  0  0  0  0  0
    7.5619  -11.8097   25.2823 C   0  0  0  0  0  0  0  0  0  0  0  0
    6.2439  -11.5431   25.6057 C   0  0  0  0  0  0  0  0  0  0  0  0
    5.5182  -12.5158   26.2392 C   0  0  0  0  0  0  0  0  0  0  0  0
    6.0871  -13.7144   26.5405 C   0  0  0  0  0  0  0  0  0  0  0  0
   10.0479  -16.6172   26.3290 C   0  0  0  0  0  0  0  0  0  0  0  0
   10.0782  -17.9837   26.0152 O   0  0  0  0  0  0  0  0  0  0  0  0
   10.8871  -16.2256   27.1669 O   0  0  0  0  0  0  0  0  0  0  0  0
  2  1  1  1
  3  4  1  0
  3  2  1  0
  5  2  1  0
  5  9  1  0
  6  5  2  0
  8  9  1  0
  8 10  1  0
  8  7  1  6
 10 12  1  0
 11 10  2  0
 12 13  1  0
 13 14  1  1
 14 15  1  0
 15 20  2  0
 15 16  1  0
 16 17  2  0
 17 18  1  0
 19 18  2  0
 20 19  1  0
 21 22  1  0
 21 13  1  0
 23 21  2  0
M  END
$$$$
