DSN.pdb
     RDKit          3D

 23 22  0  0  1  0  0  0  0  0999 V2000
    8.8933  -17.0451   15.6560 N   0  0  0  0  0  0  0  0  0  0  0  0
   10.3164  -16.8011   15.7772 C   0  0  1  0  0  0  0  0  0  0  0  0
   10.7665  -15.9676   14.6043 C   0  0  0  0  0  0  0  0  0  0  0  0
   10.4923  -16.6422   13.3200 C   0  0  0  0  0  0  0  0  0  0  0  0
   11.1598  -16.3414   12.3144 O   0  0  0  0  0  0  0  0  0  0  0  0
   10.5572  -15.9743   17.0132 C   0  0  0  0  0  0  0  0  0  0  0  0
   11.7004  -15.5246   17.2822 O   0  0  0  0  0  0  0  0  0  0  0  0
    9.5063  -17.5911   13.2506 O   0  0  0  0  0  0  0  0  0  0  0  0
    7.6958  -15.9126   19.9964 O   0  0  0  0  0  0  0  0  0  0  0  0
    8.3371  -14.6805   19.7320 C   0  0  0  0  0  0  0  0  0  0  0  0
    9.7115  -15.0310   19.1985 C   0  0  2  0  0  0  0  0  0  0  0  0
    9.5021  -15.6763   17.9137 N   0  0  0  0  0  0  0  0  0  0  0  0
   10.3432  -15.9444   20.1765 C   0  0  0  0  0  0  0  0  0  0  0  0
   10.4949  -17.1402   19.8647 O   0  0  0  0  0  0  0  0  0  0  0  0
   13.9948  -17.2973   23.5837 N   0  0  0  0  0  0  0  0  0  0  0  0
   14.2566  -16.1945   22.7445 C   0  0  0  0  0  0  0  0  0  0  0  0
   15.4384  -15.8264   22.6082 O   0  0  0  0  0  0  0  0  0  0  0  0
   13.1754  -15.5133   22.0628 C   0  0  0  0  0  0  0  0  0  0  0  0
   11.8302  -16.1788   22.1976 C   0  0  2  0  0  0  0  0  0  0  0  0
   10.7913  -15.5341   21.4628 N   0  0  0  0  0  0  0  0  0  0  0  0
   11.4681  -16.3894   23.6376 C   0  0  0  0  0  0  0  0  0  0  0  0
   12.0614  -17.3701   24.4093 O   0  0  0  0  0  0  0  0  0  0  0  0
   10.5983  -15.6725   24.2089 O   0  0  0  0  0  0  0  0  0  0  0  0
  2  1  1  6
  2  3  1  0
  3  4  1  0
  4  5  2  0
  4  8  1  0
  6 12  1  0
  6  2  1  0
  7  6  2  0
  9 10  1  0
 11 10  1  1
 11 13  1  0
 11 12  1  0
 13 20  1  0
 14 13  2  0
 16 15  1  0
 16 17  2  0
 18 16  1  0
 19 21  1  0
 19 18  1  1
 20 19  1  0
 21 22  1  0
 23 21  2  0
M  END
$$$$
