DSN.pdb
     RDKit          3D

 23 22  0  0  1  0  0  0  0  0999 V2000
    9.1529  -17.1547   17.7087 N   0  0  0  0  0  0  0  0  0  0  0  0
    8.3926  -17.1291   18.9420 C   0  0  1  0  0  0  0  0  0  0  0  0
    8.0577  -18.5459   19.3339 C   0  0  0  0  0  0  0  0  0  0  0  0
    7.8256  -19.3976   18.1506 C   0  0  0  0  0  0  0  0  0  0  0  0
    6.9222  -19.1007   17.3488 O   0  0  0  0  0  0  0  0  0  0  0  0
    9.2693  -16.5740   20.0340 C   0  0  0  0  0  0  0  0  0  0  0  0
   10.5127  -16.7615   20.0281 O   0  0  0  0  0  0  0  0  0  0  0  0
    8.6075  -20.5048   17.9493 O   0  0  0  0  0  0  0  0  0  0  0  0
    7.6140  -15.3712   23.5681 O   0  0  0  0  0  0  0  0  0  0  0  0
    8.5822  -14.4749   23.0594 C   0  0  0  0  0  0  0  0  0  0  0  0
    9.5165  -15.3091   22.2064 C   0  0  2  0  0  0  0  0  0  0  0  0
    8.7205  -15.8217   21.1044 N   0  0  0  0  0  0  0  0  0  0  0  0
   10.0380  -16.3983   23.0616 C   0  0  0  0  0  0  0  0  0  0  0  0
    9.7092  -17.5707   22.8016 O   0  0  0  0  0  0  0  0  0  0  0  0
   14.3593  -15.8863   24.4763 N   0  0  0  0  0  0  0  0  0  0  0  0
   13.7841  -16.7412   23.5134 C   0  0  0  0  0  0  0  0  0  0  0  0
   14.1502  -16.6239   22.3289 O   0  0  0  0  0  0  0  0  0  0  0  0
   12.7949  -17.7264   23.8987 C   0  0  0  0  0  0  0  0  0  0  0  0
   11.6950  -17.1989   24.7834 C   0  0  2  0  0  0  0  0  0  0  0  0
   10.9001  -16.1840   24.1727 N   0  0  0  0  0  0  0  0  0  0  0  0
   12.2254  -16.7832   26.1232 C   0  0  0  0  0  0  0  0  0  0  0  0
   11.9275  -15.5558   26.6834 O   0  0  0  0  0  0  0  0  0  0  0  0
   12.9727  -17.5450   26.8001 O   0  0  0  0  0  0  0  0  0  0  0  0
  2  1  1  6
  2  3  1  0
  3  4  1  0
  4  5  2  0
  4  8  1  0
  6 12  1  0
  6  2  1  0
  7  6  2  0
  9 10  1  0
 11 10  1  1
 11 13  1  0
 11 12  1  0
 13 20  1  0
 14 13  2  0
 16 15  1  0
 16 17  2  0
 18 16  1  0
 19 21  1  0
 19 18  1  6
 20 19  1  0
 21 22  1  0
 23 21  2  0
M  END
$$$$
