DSN.pdb
     RDKit          3D

 23 22  0  0  1  0  0  0  0  0999 V2000
    9.7152  -17.8879   20.2393 N   0  0  0  0  0  0  0  0  0  0  0  0
   11.0555  -17.5889   20.7017 C   0  0  1  0  0  0  0  0  0  0  0  0
   11.8519  -17.0305   19.5498 C   0  0  0  0  0  0  0  0  0  0  0  0
   12.3822  -18.1027   18.6843 C   0  0  0  0  0  0  0  0  0  0  0  0
   11.6141  -18.9836   18.2587 O   0  0  0  0  0  0  0  0  0  0  0  0
   10.9727  -16.4993   21.7387 C   0  0  0  0  0  0  0  0  0  0  0  0
   11.9853  -15.8240   22.0546 O   0  0  0  0  0  0  0  0  0  0  0  0
   13.7135  -18.1150   18.3601 O   0  0  0  0  0  0  0  0  0  0  0  0
    7.4827  -16.0182   23.9864 O   0  0  0  0  0  0  0  0  0  0  0  0
    8.1945  -14.8610   23.5943 C   0  0  0  0  0  0  0  0  0  0  0  0
    9.6498  -15.2750   23.5083 C   0  0  2  0  0  0  0  0  0  0  0  0
    9.7495  -16.1999   22.3923 N   0  0  0  0  0  0  0  0  0  0  0  0
    9.9995  -15.9222   24.7923 C   0  0  0  0  0  0  0  0  0  0  0  0
    9.3260  -16.8983   25.1715 O   0  0  0  0  0  0  0  0  0  0  0  0
   10.8715  -13.9047   29.7240 N   0  0  0  0  0  0  0  0  0  0  0  0
    9.7926  -13.9944   28.8202 C   0  0  0  0  0  0  0  0  0  0  0  0
    8.6356  -13.9440   29.2783 O   0  0  0  0  0  0  0  0  0  0  0  0
   10.0309  -14.1411   27.3992 C   0  0  0  0  0  0  0  0  0  0  0  0
   10.9562  -15.2722   27.0314 C   0  0  2  0  0  0  0  0  0  0  0  0
   11.0686  -15.4919   25.6264 N   0  0  0  0  0  0  0  0  0  0  0  0
   10.6117  -16.5241   27.7817 C   0  0  0  0  0  0  0  0  0  0  0  0
    9.6026  -17.3737   27.3707 O   0  0  0  0  0  0  0  0  0  0  0  0
   11.2356  -16.8559   28.8294 O   0  0  0  0  0  0  0  0  0  0  0  0
  2  1  1  6
  2  3  1  0
  3  4  1  0
  4  5  2  0
  4  8  1  0
  6 12  1  0
  6  2  1  0
  7  6  2  0
  9 10  1  0
 11 10  1  1
 11 13  1  0
 11 12  1  0
 13 20  1  0
 14 13  2  0
 16 15  1  0
 16 17  2  0
 18 16  1  0
 19 21  1  0
 19 18  1  6
 20 19  1  0
 21 22  1  0
 23 21  2  0
M  END
$$$$
