DSN.pdb
     RDKit          3D

 23 22  0  0  1  0  0  0  0  0999 V2000
   10.5433  -17.6069   18.9103 N   0  0  0  0  0  0  0  0  0  0  0  0
   11.8716  -17.6864   19.4838 C   0  0  1  0  0  0  0  0  0  0  0  0
   12.8691  -17.1966   18.4648 C   0  0  0  0  0  0  0  0  0  0  0  0
   13.9107  -18.2070   18.1933 C   0  0  0  0  0  0  0  0  0  0  0  0
   14.0098  -19.2004   18.9353 O   0  0  0  0  0  0  0  0  0  0  0  0
   11.9464  -16.7389   20.6525 C   0  0  0  0  0  0  0  0  0  0  0  0
   12.9980  -16.0960   20.9022 O   0  0  0  0  0  0  0  0  0  0  0  0
   14.7557  -18.0389   17.1278 O   0  0  0  0  0  0  0  0  0  0  0  0
    8.8906  -16.8220   23.2725 O   0  0  0  0  0  0  0  0  0  0  0  0
    9.4630  -15.5330   23.1711 C   0  0  0  0  0  0  0  0  0  0  0  0
   10.8951  -15.7459   22.7235 C   0  0  2  0  0  0  0  0  0  0  0  0
   10.8330  -16.5414   21.5093 N   0  0  0  0  0  0  0  0  0  0  0  0
   11.5951  -16.4603   23.8141 C   0  0  0  0  0  0  0  0  0  0  0  0
   11.6929  -17.6998   23.7492 O   0  0  0  0  0  0  0  0  0  0  0  0
   15.4409  -17.4274   24.5094 N   0  0  0  0  0  0  0  0  0  0  0  0
   15.0851  -16.1663   25.0306 C   0  0  0  0  0  0  0  0  0  0  0  0
   15.5026  -15.1490   24.4461 O   0  0  0  0  0  0  0  0  0  0  0  0
   14.2564  -16.0644   26.2141 C   0  0  0  0  0  0  0  0  0  0  0  0
   12.8230  -16.4843   26.0148 C   0  0  2  0  0  0  0  0  0  0  0  0
   12.1680  -15.8096   24.9420 N   0  0  0  0  0  0  0  0  0  0  0  0
   12.0494  -16.4082   27.2972 C   0  0  0  0  0  0  0  0  0  0  0  0
   10.8819  -15.6779   27.4096 O   0  0  0  0  0  0  0  0  0  0  0  0
   12.4371  -17.0141   28.3363 O   0  0  0  0  0  0  0  0  0  0  0  0
  2  1  1  6
  2  3  1  0
  3  4  1  0
  4  5  2  0
  4  8  1  0
  6 12  1  0
  6  2  1  0
  7  6  2  0
  9 10  1  0
 11 10  1  1
 11 13  1  0
 11 12  1  0
 13 20  1  0
 14 13  2  0
 16 15  1  0
 16 17  2  0
 18 16  1  0
 19 21  1  0
 19 18  1  1
 20 19  1  0
 21 22  1  0
 23 21  2  0
M  END
$$$$
