DSN.pdb
     RDKit          3D

 23 22  0  0  1  0  0  0  0  0999 V2000
    7.4433  -17.1353   17.4851 N   0  0  0  0  0  0  0  0  0  0  0  0
    8.8545  -17.4493   17.5828 C   0  0  1  0  0  0  0  0  0  0  0  0
    9.5189  -17.1052   16.2738 C   0  0  0  0  0  0  0  0  0  0  0  0
    8.8677  -17.7864   15.1373 C   0  0  0  0  0  0  0  0  0  0  0  0
    8.6278  -19.0048   15.2083 O   0  0  0  0  0  0  0  0  0  0  0  0
    9.4723  -16.5585   18.6287 C   0  0  0  0  0  0  0  0  0  0  0  0
   10.6854  -16.2322   18.5708 O   0  0  0  0  0  0  0  0  0  0  0  0
    8.5355  -17.0690   14.0181 O   0  0  0  0  0  0  0  0  0  0  0  0
    7.1662  -15.4188   21.8039 O   0  0  0  0  0  0  0  0  0  0  0  0
    8.1446  -14.4808   21.4011 C   0  0  0  0  0  0  0  0  0  0  0  0
    9.2785  -15.2901   20.8045 C   0  0  2  0  0  0  0  0  0  0  0  0
    8.7056  -16.0590   19.7130 N   0  0  0  0  0  0  0  0  0  0  0  0
    9.8060  -16.1642   21.8757 C   0  0  0  0  0  0  0  0  0  0  0  0
    9.3537  -17.3195   21.9802 O   0  0  0  0  0  0  0  0  0  0  0  0
   14.6558  -17.3590   23.1418 N   0  0  0  0  0  0  0  0  0  0  0  0
   13.7191  -16.3056   23.1845 C   0  0  0  0  0  0  0  0  0  0  0  0
   13.7605  -15.4446   22.2858 O   0  0  0  0  0  0  0  0  0  0  0  0
   12.7384  -16.2333   24.2479 C   0  0  0  0  0  0  0  0  0  0  0  0
   11.3349  -16.5921   23.8329 C   0  0  2  0  0  0  0  0  0  0  0  0
   10.8077  -15.7598   22.8013 N   0  0  0  0  0  0  0  0  0  0  0  0
   10.4221  -16.6826   25.0193 C   0  0  0  0  0  0  0  0  0  0  0  0
    9.6673  -15.6084   25.4500 O   0  0  0  0  0  0  0  0  0  0  0  0
   10.3049  -17.7540   25.6791 O   0  0  0  0  0  0  0  0  0  0  0  0
  2  1  1  6
  2  3  1  0
  3  4  1  0
  4  5  2  0
  4  8  1  0
  6 12  1  0
  6  2  1  0
  7  6  2  0
  9 10  1  0
 11 10  1  1
 11 13  1  0
 11 12  1  0
 13 20  1  0
 14 13  2  0
 16 15  1  0
 16 17  2  0
 18 16  1  0
 19 21  1  0
 19 18  1  1
 20 19  1  0
 21 22  1  0
 23 21  2  0
M  END
$$$$
