DSN.pdb
     RDKit          3D

 23 22  0  0  1  0  0  0  0  0999 V2000
    8.2356  -16.1783   16.2758 N   0  0  0  0  0  0  0  0  0  0  0  0
    8.2156  -17.0641   17.4223 C   0  0  1  0  0  0  0  0  0  0  0  0
    9.1828  -18.1945   17.1779 C   0  0  0  0  0  0  0  0  0  0  0  0
    8.7953  -18.9976   16.0013 C   0  0  0  0  0  0  0  0  0  0  0  0
    8.4750  -20.1902   16.1512 O   0  0  0  0  0  0  0  0  0  0  0  0
    8.7274  -16.3083   18.6207 C   0  0  0  0  0  0  0  0  0  0  0  0
    9.9274  -15.9391   18.6927 O   0  0  0  0  0  0  0  0  0  0  0  0
    8.7930  -18.4206   14.7585 O   0  0  0  0  0  0  0  0  0  0  0  0
    6.3255  -16.0135   21.8411 O   0  0  0  0  0  0  0  0  0  0  0  0
    7.0600  -14.8265   21.6159 C   0  0  0  0  0  0  0  0  0  0  0  0
    8.3136  -15.2452   20.8744 C   0  0  2  0  0  0  0  0  0  0  0  0
    7.8723  -15.9887   19.7067 N   0  0  0  0  0  0  0  0  0  0  0  0
    9.1084  -16.0880   21.7952 C   0  0  0  0  0  0  0  0  0  0  0  0
    9.0675  -17.3247   21.6577 O   0  0  0  0  0  0  0  0  0  0  0  0
   14.0378  -17.3520   24.3374 N   0  0  0  0  0  0  0  0  0  0  0  0
   12.9457  -16.5954   24.8105 C   0  0  0  0  0  0  0  0  0  0  0  0
   12.7074  -16.6069   26.0328 O   0  0  0  0  0  0  0  0  0  0  0  0
   12.1276  -15.8283   23.8940 C   0  0  0  0  0  0  0  0  0  0  0  0
   10.7300  -16.3591   23.7052 C   0  0  2  0  0  0  0  0  0  0  0  0
    9.9235  -15.5648   22.8371 N   0  0  0  0  0  0  0  0  0  0  0  0
   10.0648  -16.6238   25.0230 C   0  0  0  0  0  0  0  0  0  0  0  0
   10.3708  -17.7302   25.7921 O   0  0  0  0  0  0  0  0  0  0  0  0
    9.1899  -15.8392   25.4877 O   0  0  0  0  0  0  0  0  0  0  0  0
  2  1  1  6
  2  3  1  0
  3  4  1  0
  4  5  2  0
  4  8  1  0
  6 12  1  0
  6  2  1  0
  7  6  2  0
  9 10  1  0
 11 10  1  1
 11 13  1  0
 11 12  1  0
 13 20  1  0
 14 13  2  0
 16 15  1  0
 16 17  2  0
 18 16  1  0
 19 21  1  0
 19 18  1  1
 20 19  1  0
 21 22  1  0
 23 21  2  0
M  END
$$$$
