DSN.pdb
     RDKit          3D

 23 22  0  0  1  0  0  0  0  0999 V2000
    8.5919  -17.8710   19.0551 N   0  0  0  0  0  0  0  0  0  0  0  0
    9.9607  -17.5902   18.6715 C   0  0  1  0  0  0  0  0  0  0  0  0
    9.9520  -16.8171   17.3772 C   0  0  0  0  0  0  0  0  0  0  0  0
    9.3360  -17.5938   16.2832 C   0  0  0  0  0  0  0  0  0  0  0  0
    8.1062  -17.5350   16.1063 O   0  0  0  0  0  0  0  0  0  0  0  0
   10.5740  -16.6880   19.7102 C   0  0  0  0  0  0  0  0  0  0  0  0
   11.7180  -16.1920   19.5471 O   0  0  0  0  0  0  0  0  0  0  0  0
   10.1255  -18.3701   15.4760 O   0  0  0  0  0  0  0  0  0  0  0  0
    8.5995  -16.3221   23.2253 O   0  0  0  0  0  0  0  0  0  0  0  0
    9.3660  -15.1792   22.9001 C   0  0  0  0  0  0  0  0  0  0  0  0
   10.4983  -15.6718   22.0216 C   0  0  2  0  0  0  0  0  0  0  0  0
    9.8808  -16.3686   20.9062 N   0  0  0  0  0  0  0  0  0  0  0  0
   11.3305  -16.5781   22.8437 C   0  0  0  0  0  0  0  0  0  0  0  0
   11.0799  -17.7976   22.8273 O   0  0  0  0  0  0  0  0  0  0  0  0
   15.6811  -14.9667   22.8976 N   0  0  0  0  0  0  0  0  0  0  0  0
   15.3328  -16.2769   23.2861 C   0  0  0  0  0  0  0  0  0  0  0  0
   15.6124  -17.2134   22.5144 O   0  0  0  0  0  0  0  0  0  0  0  0
   14.6681  -16.5194   24.5498 C   0  0  0  0  0  0  0  0  0  0  0  0
   13.2444  -16.9983   24.4285 C   0  0  2  0  0  0  0  0  0  0  0  0
   12.4091  -16.1353   23.6586 N   0  0  0  0  0  0  0  0  0  0  0  0
   12.6590  -17.3135   25.7727 C   0  0  0  0  0  0  0  0  0  0  0  0
   13.2274  -18.2426   26.6229 O   0  0  0  0  0  0  0  0  0  0  0  0
   11.6130  -16.7374   26.1862 O   0  0  0  0  0  0  0  0  0  0  0  0
  2  1  1  1
  2  3  1  0
  3  4  1  0
  4  5  2  0
  4  8  1  0
  6 12  1  0
  6  2  1  0
  7  6  2  0
  9 10  1  0
 11 10  1  1
 11 13  1  0
 11 12  1  0
 13 20  1  0
 14 13  2  0
 16 15  1  0
 16 17  2  0
 18 16  1  0
 19 21  1  0
 19 18  1  1
 20 19  1  0
 21 22  1  0
 23 21  2  0
M  END
$$$$
