DSN.pdb
     RDKit          3D

 23 22  0  0  1  0  0  0  0  0999 V2000
   10.1741  -17.8120   20.5799 N   0  0  0  0  0  0  0  0  0  0  0  0
   11.0688  -17.0376   21.4162 C   0  0  1  0  0  0  0  0  0  0  0  0
   11.4385  -15.7710   20.6869 C   0  0  0  0  0  0  0  0  0  0  0  0
   12.3898  -16.0331   19.5887 C   0  0  0  0  0  0  0  0  0  0  0  0
   12.8330  -17.1834   19.4226 O   0  0  0  0  0  0  0  0  0  0  0  0
   10.3237  -16.6204   22.6572 C   0  0  0  0  0  0  0  0  0  0  0  0
   10.4977  -15.4852   23.1694 O   0  0  0  0  0  0  0  0  0  0  0  0
   12.7732  -15.0069   18.7656 O   0  0  0  0  0  0  0  0  0  0  0  0
    6.6912  -18.2503   23.7782 O   0  0  0  0  0  0  0  0  0  0  0  0
    7.7104  -18.2926   24.7574 C   0  0  0  0  0  0  0  0  0  0  0  0
    8.6256  -17.1222   24.4586 C   0  0  2  0  0  0  0  0  0  0  0  0
    9.4016  -17.4948   23.2882 N   0  0  0  0  0  0  0  0  0  0  0  0
    9.4843  -16.9209   25.6469 C   0  0  0  0  0  0  0  0  0  0  0  0
   10.6401  -17.3835   25.6332 O   0  0  0  0  0  0  0  0  0  0  0  0
    8.0499  -12.9576   28.0023 N   0  0  0  0  0  0  0  0  0  0  0  0
    9.2963  -13.6170   27.9748 C   0  0  0  0  0  0  0  0  0  0  0  0
   10.1939  -13.1483   27.2500 O   0  0  0  0  0  0  0  0  0  0  0  0
    9.5191  -14.8066   28.7703 C   0  0  0  0  0  0  0  0  0  0  0  0
    9.8719  -16.0368   27.9748 C   0  0  2  0  0  0  0  0  0  0  0  0
    9.0643  -16.2243   26.8139 N   0  0  0  0  0  0  0  0  0  0  0  0
    9.9143  -17.2561   28.8468 C   0  0  0  0  0  0  0  0  0  0  0  0
   10.7659  -17.3561   29.9303 O   0  0  0  0  0  0  0  0  0  0  0  0
    9.1667  -18.2504   28.6243 O   0  0  0  0  0  0  0  0  0  0  0  0
  2  1  1  6
  2  3  1  0
  3  4  1  0
  4  5  2  0
  4  8  1  0
  6 12  1  0
  6  2  1  0
  7  6  2  0
  9 10  1  0
 11 10  1  1
 11 13  1  0
 11 12  1  0
 13 20  1  0
 14 13  2  0
 16 15  1  0
 16 17  2  0
 18 16  1  0
 19 21  1  0
 19 18  1  1
 20 19  1  0
 21 22  1  0
 23 21  2  0
M  END
$$$$
