DSN.pdb
     RDKit          3D

 23 22  0  0  1  0  0  0  0  0999 V2000
   13.2173  -15.8649   14.8594 N   0  0  0  0  0  0  0  0  0  0  0  0
   14.2120  -16.2580   15.8371 C   0  0  1  0  0  0  0  0  0  0  0  0
   15.5407  -15.6659   15.4411 C   0  0  0  0  0  0  0  0  0  0  0  0
   16.2644  -16.5372   14.4941 C   0  0  0  0  0  0  0  0  0  0  0  0
   15.7559  -17.6166   14.1424 O   0  0  0  0  0  0  0  0  0  0  0  0
   13.8454  -15.6486   17.1651 C   0  0  0  0  0  0  0  0  0  0  0  0
   14.3024  -14.5308   17.5159 O   0  0  0  0  0  0  0  0  0  0  0  0
   17.4871  -16.1473   14.0140 O   0  0  0  0  0  0  0  0  0  0  0  0
   11.2844  -17.7105   19.4281 O   0  0  0  0  0  0  0  0  0  0  0  0
   11.2148  -16.3181   19.6643 C   0  0  0  0  0  0  0  0  0  0  0  0
   12.5948  -15.7727   19.3562 C   0  0  2  0  0  0  0  0  0  0  0  0
   12.9728  -16.3161   18.0629 N   0  0  0  0  0  0  0  0  0  0  0  0
   13.5000  -16.2332   20.4324 C   0  0  0  0  0  0  0  0  0  0  0  0
   14.0618  -17.3373   20.3080 O   0  0  0  0  0  0  0  0  0  0  0  0
   16.4011  -13.4356   21.2103 N   0  0  0  0  0  0  0  0  0  0  0  0
   16.5844  -14.6369   21.9259 C   0  0  0  0  0  0  0  0  0  0  0  0
   17.5136  -15.3911   21.5814 O   0  0  0  0  0  0  0  0  0  0  0  0
   15.7118  -14.9780   23.0303 C   0  0  0  0  0  0  0  0  0  0  0  0
   14.5996  -15.9325   22.6800 C   0  0  2  0  0  0  0  0  0  0  0  0
   13.7690  -15.4831   21.6108 N   0  0  0  0  0  0  0  0  0  0  0  0
   13.8105  -16.3196   23.8951 C   0  0  0  0  0  0  0  0  0  0  0  0
   14.3924  -16.9439   24.9817 O   0  0  0  0  0  0  0  0  0  0  0  0
   12.5707  -16.0886   23.9755 O   0  0  0  0  0  0  0  0  0  0  0  0
  2  1  1  6
  2  3  1  0
  3  4  1  0
  4  5  2  0
  4  8  1  0
  6 12  1  0
  6  2  1  0
  7  6  2  0
  9 10  1  0
 11 10  1  1
 11 13  1  0
 11 12  1  0
 13 20  1  0
 14 13  2  0
 16 15  1  0
 16 17  2  0
 18 16  1  0
 19 21  1  0
 19 18  1  1
 20 19  1  0
 21 22  1  0
 23 21  2  0
M  END
$$$$
