DSN.pdb
     RDKit          3D

 23 22  0  0  1  0  0  0  0  0999 V2000
   11.8274  -20.4587   20.1417 N   0  0  0  0  0  0  0  0  0  0  0  0
   12.1924  -19.0601   20.0411 C   0  0  1  0  0  0  0  0  0  0  0  0
   11.1307  -18.3382   19.2507 C   0  0  0  0  0  0  0  0  0  0  0  0
   11.1602  -18.7193   17.8247 C   0  0  0  0  0  0  0  0  0  0  0  0
   12.2190  -18.6073   17.1817 O   0  0  0  0  0  0  0  0  0  0  0  0
   12.1840  -18.4621   21.4237 C   0  0  0  0  0  0  0  0  0  0  0  0
   13.0138  -17.5770   21.7544 O   0  0  0  0  0  0  0  0  0  0  0  0
   10.0215  -19.1916   17.2263 O   0  0  0  0  0  0  0  0  0  0  0  0
    9.0064  -19.0176   23.5034 O   0  0  0  0  0  0  0  0  0  0  0  0
    9.8173  -18.0260   24.1021 C   0  0  0  0  0  0  0  0  0  0  0  0
   11.2478  -18.3990   23.7689 C   0  0  2  0  0  0  0  0  0  0  0  0
   11.2395  -18.8781   22.3973 N   0  0  0  0  0  0  0  0  0  0  0  0
   11.6592  -19.4566   24.7187 C   0  0  0  0  0  0  0  0  0  0  0  0
   11.2867  -20.6257   24.5079 O   0  0  0  0  0  0  0  0  0  0  0  0
   15.8561  -18.7191   25.9798 N   0  0  0  0  0  0  0  0  0  0  0  0
   15.2523  -19.9630   26.2572 C   0  0  0  0  0  0  0  0  0  0  0  0
   15.5973  -20.9487   25.5788 O   0  0  0  0  0  0  0  0  0  0  0  0
   14.2586  -20.0836   27.3039 C   0  0  0  0  0  0  0  0  0  0  0  0
   12.8407  -20.2160   26.8112 C   0  0  2  0  0  0  0  0  0  0  0  0
   12.4618  -19.2150   25.8681 N   0  0  0  0  0  0  0  0  0  0  0  0
   11.8746  -20.3228   27.9531 C   0  0  0  0  0  0  0  0  0  0  0  0
   11.9592  -21.3289   28.8964 O   0  0  0  0  0  0  0  0  0  0  0  0
   10.9357  -19.4899   28.1006 O   0  0  0  0  0  0  0  0  0  0  0  0
  2  1  1  1
  2  3  1  0
  3  4  1  0
  4  5  2  0
  4  8  1  0
  6 12  1  0
  6  2  1  0
  7  6  2  0
  9 10  1  0
 11 10  1  1
 11 13  1  0
 11 12  1  0
 13 20  1  0
 14 13  2  0
 16 15  1  0
 16 17  2  0
 18 16  1  0
 19 21  1  0
 19 18  1  1
 20 19  1  0
 21 22  1  0
 23 21  2  0
M  END
$$$$
