DSN.pdb
     RDKit          3D

 23 22  0  0  1  0  0  0  0  0999 V2000
   11.4640  -15.6148   18.5346 N   0  0  0  0  0  0  0  0  0  0  0  0
   12.1708  -15.4023   19.7816 C   0  0  1  0  0  0  0  0  0  0  0  0
   12.8676  -14.0667   19.7218 C   0  0  0  0  0  0  0  0  0  0  0  0
   14.0813  -14.1230   18.8832 C   0  0  0  0  0  0  0  0  0  0  0  0
   14.2349  -13.2926   17.9700 O   0  0  0  0  0  0  0  0  0  0  0  0
   11.1608  -15.3138   20.8958 C   0  0  0  0  0  0  0  0  0  0  0  0
   10.4700  -14.2770   21.0664 O   0  0  0  0  0  0  0  0  0  0  0  0
   15.0241  -15.0887   19.1204 O   0  0  0  0  0  0  0  0  0  0  0  0
    8.2030  -17.7283   23.6802 O   0  0  0  0  0  0  0  0  0  0  0  0
    9.2793  -17.7724   22.7642 C   0  0  0  0  0  0  0  0  0  0  0  0
    9.9239  -16.4016   22.8108 C   0  0  2  0  0  0  0  0  0  0  0  0
   10.9564  -16.3973   21.7886 N   0  0  0  0  0  0  0  0  0  0  0  0
   10.4911  -16.2282   24.1665 C   0  0  0  0  0  0  0  0  0  0  0  0
   11.6152  -16.7056   24.4087 O   0  0  0  0  0  0  0  0  0  0  0  0
    9.4674  -15.1149   29.7332 N   0  0  0  0  0  0  0  0  0  0  0  0
   10.0865  -14.3104   28.7543 C   0  0  0  0  0  0  0  0  0  0  0  0
   11.0081  -13.5530   29.1120 O   0  0  0  0  0  0  0  0  0  0  0  0
    9.6570  -14.3684   27.3723 C   0  0  0  0  0  0  0  0  0  0  0  0
   10.3026  -15.4608   26.5596 C   0  0  2  0  0  0  0  0  0  0  0  0
    9.8228  -15.5425   25.2186 N   0  0  0  0  0  0  0  0  0  0  0  0
   10.2408  -16.7790   27.2719 C   0  0  0  0  0  0  0  0  0  0  0  0
   11.1140  -17.1055   28.2918 O   0  0  0  0  0  0  0  0  0  0  0  0
    9.3804  -17.6525   26.9658 O   0  0  0  0  0  0  0  0  0  0  0  0
  2  1  1  6
  2  3  1  0
  3  4  1  0
  4  5  2  0
  4  8  1  0
  6 12  1  0
  6  2  1  0
  7  6  2  0
  9 10  1  0
 11 10  1  1
 11 13  1  0
 11 12  1  0
 13 20  1  0
 14 13  2  0
 16 15  1  0
 16 17  2  0
 18 16  1  0
 19 21  1  0
 19 18  1  1
 20 19  1  0
 21 22  1  0
 23 21  2  0
M  END
$$$$
