TVV.pdb
     RDKit          3D

 22 21  0  0  1  0  0  0  0  0999 V2000
   21.3157  -12.6821  -19.1467 C   0  0  0  0  0  0  0  0  0  0  0  0
   20.1374  -12.9088  -18.2220 C   0  0  1  0  0  0  0  0  0  0  0  0
   20.2154  -14.2613  -17.8237 O   0  0  0  0  0  0  0  0  0  0  0  0
   20.3159  -12.0933  -16.9602 C   0  0  2  0  0  0  0  0  0  0  0  0
   19.6786  -12.7392  -15.8413 N   0  0  0  0  0  0  0  0  0  0  0  0
   19.7922  -10.7257  -17.0947 C   0  0  0  0  0  0  0  0  0  0  0  0
   20.1320   -9.9496  -18.0337 O   0  0  0  0  0  0  0  0  0  0  0  0
   16.1154   -9.6330  -17.1085 C   0  0  0  0  0  0  0  0  0  0  0  0
   16.8290   -8.9847  -15.9790 C   0  0  2  0  0  0  0  0  0  0  0  0
   16.2743   -7.5936  -15.7603 C   0  0  0  0  0  0  0  0  0  0  0  0
   18.3257   -8.9175  -16.1505 C   0  0  2  0  0  0  0  0  0  0  0  0
   18.8639  -10.2459  -16.1336 N   0  0  0  0  0  0  0  0  0  0  0  0
   18.9788   -8.0565  -15.1495 C   0  0  0  0  0  0  0  0  0  0  0  0
   18.9479   -8.4121  -13.9387 O   0  0  0  0  0  0  0  0  0  0  0  0
   21.6451   -4.7763  -16.1002 C   0  0  0  0  0  0  0  0  0  0  0  0
   21.6783   -5.6157  -14.8406 C   0  0  1  0  0  0  0  0  0  0  0  0
   22.4065   -4.9321  -13.7373 C   0  0  0  0  0  0  0  0  0  0  0  0
   20.3107   -6.1148  -14.4618 C   0  0  2  0  0  0  0  0  0  0  0  0
   19.6428   -6.8437  -15.4800 N   0  0  0  0  0  0  0  0  0  0  0  0
   19.4761   -4.9576  -14.0021 C   0  0  0  0  0  0  0  0  0  0  0  0
   19.6314   -4.4648  -12.7262 O   0  0  0  0  0  0  0  0  0  0  0  0
   18.6524   -4.4599  -14.7875 O   0  0  0  0  0  0  0  0  0  0  0  0
  2  1  1  6
  2  4  1  0
  3  2  1  0
  4  5  1  1
  4  6  1  0
  6  7  2  0
  6 12  1  0
  9  8  1  6
  9 11  1  0
 10  9  1  0
 11 13  1  0
 11 12  1  1
 13 14  2  0
 13 19  1  0
 16 15  1  6
 17 16  1  0
 18 16  1  0
 18 20  1  0
 18 19  1  6
 20 21  1  0
 22 20  2  0
M  END
$$$$
