TVV.pdb
     RDKit          3D

 22 21  0  0  1  0  0  0  0  0999 V2000
   22.7231  -11.4532  -21.5044 C   0  0  0  0  0  0  0  0  0  0  0  0
   22.3608  -10.6617  -20.2646 C   0  0  1  0  0  0  0  0  0  0  0  0
   21.1983   -9.9332  -20.5992 O   0  0  0  0  0  0  0  0  0  0  0  0
   21.9533  -11.6083  -19.1570 C   0  0  2  0  0  0  0  0  0  0  0  0
   20.8868  -12.4734  -19.5922 N   0  0  0  0  0  0  0  0  0  0  0  0
   21.5378  -10.9012  -17.9361 C   0  0  0  0  0  0  0  0  0  0  0  0
   20.3254  -10.7485  -17.6101 O   0  0  0  0  0  0  0  0  0  0  0  0
   22.7160  -11.9622  -14.5920 C   0  0  0  0  0  0  0  0  0  0  0  0
   23.0591  -10.5254  -14.7442 C   0  0  2  0  0  0  0  0  0  0  0  0
   22.9150   -9.8256  -13.4100 C   0  0  0  0  0  0  0  0  0  0  0  0
   22.2479   -9.8037  -15.7907 C   0  0  2  0  0  0  0  0  0  0  0  0
   22.5336  -10.3628  -17.0793 N   0  0  0  0  0  0  0  0  0  0  0  0
   22.4593   -8.3460  -15.7746 C   0  0  0  0  0  0  0  0  0  0  0  0
   23.5733   -7.8957  -16.1616 O   0  0  0  0  0  0  0  0  0  0  0  0
   20.8453   -5.6679  -17.7527 C   0  0  0  0  0  0  0  0  0  0  0  0
   20.7542   -5.2657  -16.2960 C   0  0  1  0  0  0  0  0  0  0  0  0
   19.3517   -5.2951  -15.7989 C   0  0  0  0  0  0  0  0  0  0  0  0
   21.7287   -6.0283  -15.4405 C   0  0  2  0  0  0  0  0  0  0  0  0
   21.4698   -7.4204  -15.3445 N   0  0  0  0  0  0  0  0  0  0  0  0
   21.7810   -5.4024  -14.0795 C   0  0  0  0  0  0  0  0  0  0  0  0
   22.4542   -4.2158  -13.8964 O   0  0  0  0  0  0  0  0  0  0  0  0
   21.2110   -5.9707  -13.1332 O   0  0  0  0  0  0  0  0  0  0  0  0
  2  1  1  6
  2  4  1  0
  3  2  1  0
  4  5  1  6
  4  6  1  0
  6  7  2  0
  6 12  1  0
  9  8  1  1
  9 11  1  0
 10  9  1  0
 11 13  1  0
 11 12  1  6
 13 14  2  0
 13 19  1  0
 16 15  1  6
 17 16  1  0
 18 16  1  0
 18 20  1  0
 18 19  1  1
 20 21  1  0
 22 20  2  0
M  END
$$$$
