TVV.pdb
     RDKit          3D

 22 21  0  0  1  0  0  0  0  0999 V2000
   17.8382   -8.7962  -17.7216 C   0  0  0  0  0  0  0  0  0  0  0  0
   17.3255  -10.1103  -17.1694 C   0  0  1  0  0  0  0  0  0  0  0  0
   16.7357  -10.7830  -18.2620 O   0  0  0  0  0  0  0  0  0  0  0  0
   18.4920  -10.9695  -16.7335 C   0  0  2  0  0  0  0  0  0  0  0  0
   18.0416  -12.2809  -16.3431 N   0  0  0  0  0  0  0  0  0  0  0  0
   19.2525  -10.3678  -15.6278 C   0  0  0  0  0  0  0  0  0  0  0  0
   18.7818  -10.2388  -14.4610 O   0  0  0  0  0  0  0  0  0  0  0  0
   23.4547   -9.8951  -16.1406 C   0  0  0  0  0  0  0  0  0  0  0  0
   22.7398   -9.9023  -14.8389 C   0  0  2  0  0  0  0  0  0  0  0  0
   22.6200  -11.3240  -14.3341 C   0  0  0  0  0  0  0  0  0  0  0  0
   21.3776   -9.2569  -14.8783 C   0  0  2  0  0  0  0  0  0  0  0  0
   20.5738   -9.9085  -15.8703 N   0  0  0  0  0  0  0  0  0  0  0  0
   21.4392   -7.8023  -15.1022 C   0  0  0  0  0  0  0  0  0  0  0  0
   21.7364   -7.3835  -16.2553 O   0  0  0  0  0  0  0  0  0  0  0  0
   20.1448   -3.2271  -14.4809 C   0  0  0  0  0  0  0  0  0  0  0  0
   19.9607   -4.7173  -14.2870 C   0  0  1  0  0  0  0  0  0  0  0  0
   18.8783   -5.2598  -15.1525 C   0  0  0  0  0  0  0  0  0  0  0  0
   21.2637   -5.4623  -14.3876 C   0  0  2  0  0  0  0  0  0  0  0  0
   21.1803   -6.8458  -14.0828 N   0  0  0  0  0  0  0  0  0  0  0  0
   22.2828   -4.7874  -13.5198 C   0  0  0  0  0  0  0  0  0  0  0  0
   23.0196   -3.7370  -14.0183 O   0  0  0  0  0  0  0  0  0  0  0  0
   22.4455   -5.1918  -12.3564 O   0  0  0  0  0  0  0  0  0  0  0  0
  2  1  1  6
  2  4  1  0
  3  2  1  0
  4  5  1  1
  4  6  1  0
  6  7  2  0
  6 12  1  0
  9  8  1  6
  9 11  1  0
 10  9  1  0
 11 13  1  0
 11 12  1  6
 13 14  2  0
 13 19  1  0
 16 15  1  6
 17 16  1  0
 18 16  1  0
 18 20  1  0
 18 19  1  1
 20 21  1  0
 22 20  2  0
M  END
$$$$
