TVV.pdb
     RDKit          3D

 22 21  0  0  1  0  0  0  0  0999 V2000
   29.0000  -18.8795  -16.6109 C   0  0  0  0  0  0  0  0  0  0  0  0
   27.7990  -19.4162  -15.8595 C   0  0  1  0  0  0  0  0  0  0  0  0
   26.8880  -19.8481  -16.8482 O   0  0  0  0  0  0  0  0  0  0  0  0
   28.1934  -20.6564  -15.0879 C   0  0  2  0  0  0  0  0  0  0  0  0
   28.7173  -21.6635  -15.9747 N   0  0  0  0  0  0  0  0  0  0  0  0
   27.0743  -21.2208  -14.3186 C   0  0  0  0  0  0  0  0  0  0  0  0
   26.4712  -22.2790  -14.6598 O   0  0  0  0  0  0  0  0  0  0  0  0
   27.0835  -21.1647  -10.2868 C   0  0  0  0  0  0  0  0  0  0  0  0
   25.8411  -20.6080  -10.8799 C   0  0  2  0  0  0  0  0  0  0  0  0
   24.6565  -20.9746  -10.0121 C   0  0  0  0  0  0  0  0  0  0  0  0
   25.5871  -21.0410  -12.3019 C   0  0  2  0  0  0  0  0  0  0  0  0
   26.6444  -20.5566  -13.1398 N   0  0  0  0  0  0  0  0  0  0  0  0
   24.2661  -20.6217  -12.8009 C   0  0  0  0  0  0  0  0  0  0  0  0
   24.0373  -19.3873  -12.9330 O   0  0  0  0  0  0  0  0  0  0  0  0
   21.4715  -23.3003  -14.7032 C   0  0  0  0  0  0  0  0  0  0  0  0
   21.6231  -21.8197  -14.9808 C   0  0  1  0  0  0  0  0  0  0  0  0
   20.4259  -21.2577  -15.6634 C   0  0  0  0  0  0  0  0  0  0  0  0
   22.0489  -21.0590  -13.7548 C   0  0  2  0  0  0  0  0  0  0  0  0
   23.2352  -21.5394  -13.1416 N   0  0  0  0  0  0  0  0  0  0  0  0
   20.9157  -21.0354  -12.7738 C   0  0  0  0  0  0  0  0  0  0  0  0
   19.9023  -20.1154  -12.9196 O   0  0  0  0  0  0  0  0  0  0  0  0
   20.9115  -21.8536  -11.8391 O   0  0  0  0  0  0  0  0  0  0  0  0
  2  1  1  6
  2  4  1  0
  3  2  1  0
  4  5  1  6
  4  6  1  0
  6  7  2  0
  6 12  1  0
  9  8  1  1
  9 11  1  0
 10  9  1  0
 11 13  1  0
 11 12  1  6
 13 14  2  0
 13 19  1  0
 16 15  1  1
 17 16  1  0
 18 16  1  0
 18 20  1  0
 18 19  1  1
 20 21  1  0
 22 20  2  0
M  END
$$$$
