TVV.pdb
     RDKit          3D

 22 21  0  0  1  0  0  0  0  0999 V2000
   26.3096  -21.7578  -17.5469 C   0  0  0  0  0  0  0  0  0  0  0  0
   26.9216  -20.6179  -18.3349 C   0  0  1  0  0  0  0  0  0  0  0  0
   27.1722  -21.1332  -19.6255 O   0  0  0  0  0  0  0  0  0  0  0  0
   25.8986  -19.5184  -18.5182 C   0  0  2  0  0  0  0  0  0  0  0  0
   26.4241  -18.4666  -19.3505 N   0  0  0  0  0  0  0  0  0  0  0  0
   25.4497  -18.9477  -17.2392 C   0  0  0  0  0  0  0  0  0  0  0  0
   26.0963  -18.0527  -16.6223 O   0  0  0  0  0  0  0  0  0  0  0  0
   21.3775  -19.3117  -16.2410 C   0  0  0  0  0  0  0  0  0  0  0  0
   22.3446  -18.3601  -15.6372 C   0  0  2  0  0  0  0  0  0  0  0  0
   22.4385  -17.1183  -16.4973 C   0  0  0  0  0  0  0  0  0  0  0  0
   23.7212  -18.9347  -15.4162 C   0  0  2  0  0  0  0  0  0  0  0  0
   24.2391  -19.4151  -16.6635 N   0  0  0  0  0  0  0  0  0  0  0  0
   23.7451  -19.9824  -14.3811 C   0  0  0  0  0  0  0  0  0  0  0  0
   23.2860  -21.1225  -14.6689 O   0  0  0  0  0  0  0  0  0  0  0  0
   25.0294  -19.4084  -10.2401 C   0  0  0  0  0  0  0  0  0  0  0  0
   25.2075  -20.7053  -11.0007 C   0  0  1  0  0  0  0  0  0  0  0  0
   25.2490  -21.8815  -10.0899 C   0  0  0  0  0  0  0  0  0  0  0  0
   24.2228  -20.8337  -12.1307 C   0  0  2  0  0  0  0  0  0  0  0  0
   24.2602  -19.7729  -13.0727 N   0  0  0  0  0  0  0  0  0  0  0  0
   22.8441  -20.9931  -11.5643 C   0  0  0  0  0  0  0  0  0  0  0  0
   22.4138  -22.2323  -11.1471 O   0  0  0  0  0  0  0  0  0  0  0  0
   22.1085  -19.9956  -11.4810 O   0  0  0  0  0  0  0  0  0  0  0  0
  2  1  1  1
  2  4  1  0
  3  2  1  0
  4  5  1  6
  4  6  1  0
  6  7  2  0
  6 12  1  0
  9  8  1  6
  9 11  1  0
 10  9  1  0
 11 13  1  0
 11 12  1  6
 13 14  2  0
 13 19  1  0
 16 15  1  1
 17 16  1  0
 18 16  1  0
 18 20  1  0
 18 19  1  6
 20 21  1  0
 22 20  2  0
M  END
$$$$
