TVV.pdb
     RDKit          3D

 22 21  0  0  1  0  0  0  0  0999 V2000
   24.7999  -17.3222  -15.7140 C   0  0  0  0  0  0  0  0  0  0  0  0
   25.1716  -17.9826  -17.0256 C   0  0  1  0  0  0  0  0  0  0  0  0
   25.2431  -16.9397  -17.9750 O   0  0  0  0  0  0  0  0  0  0  0  0
   26.5693  -18.5539  -16.9302 C   0  0  2  0  0  0  0  0  0  0  0  0
   26.9549  -19.1685  -18.1747 N   0  0  0  0  0  0  0  0  0  0  0  0
   26.7042  -19.5338  -15.8419 C   0  0  0  0  0  0  0  0  0  0  0  0
   26.1466  -20.6688  -15.8670 O   0  0  0  0  0  0  0  0  0  0  0  0
   30.0931  -20.3384  -13.8314 C   0  0  0  0  0  0  0  0  0  0  0  0
   28.9862  -19.8746  -12.9567 C   0  0  2  0  0  0  0  0  0  0  0  0
   29.0575  -20.5912  -11.6256 C   0  0  0  0  0  0  0  0  0  0  0  0
   27.6127  -20.0436  -13.5558 C   0  0  2  0  0  0  0  0  0  0  0  0
   27.4927  -19.2010  -14.7092 N   0  0  0  0  0  0  0  0  0  0  0  0
   26.5309  -19.7931  -12.5880 C   0  0  0  0  0  0  0  0  0  0  0  0
   26.3757  -18.6194  -12.1503 O   0  0  0  0  0  0  0  0  0  0  0  0
   22.2693  -20.6782  -10.4236 C   0  0  0  0  0  0  0  0  0  0  0  0
   23.2962  -21.0791  -11.4613 C   0  0  1  0  0  0  0  0  0  0  0  0
   22.8051  -20.8463  -12.8468 C   0  0  0  0  0  0  0  0  0  0  0  0
   24.6466  -20.4806  -11.1760 C   0  0  2  0  0  0  0  0  0  0  0  0
   25.6521  -20.8089  -12.1221 N   0  0  0  0  0  0  0  0  0  0  0  0
   25.0724  -20.8681   -9.7919 C   0  0  0  0  0  0  0  0  0  0  0  0
   24.7556  -20.0575   -8.7255 O   0  0  0  0  0  0  0  0  0  0  0  0
   25.7088  -21.9228   -9.6310 O   0  0  0  0  0  0  0  0  0  0  0  0
  2  1  1  1
  2  4  1  0
  3  2  1  0
  4  5  1  6
  4  6  1  0
  6  7  2  0
  6 12  1  0
  9  8  1  6
  9 11  1  0
 10  9  1  0
 11 13  1  0
 11 12  1  6
 13 14  2  0
 13 19  1  0
 16 15  1  1
 17 16  1  0
 18 16  1  0
 18 20  1  0
 18 19  1  6
 20 21  1  0
 22 20  2  0
M  END
$$$$
