TVV.pdb
     RDKit          3D

 22 21  0  0  1  0  0  0  0  0999 V2000
   21.7566  -12.2855  -15.2309 C   0  0  0  0  0  0  0  0  0  0  0  0
   21.2672  -13.1876  -16.3451 C   0  0  1  0  0  0  0  0  0  0  0  0
   21.3105  -14.4997  -15.8252 O   0  0  0  0  0  0  0  0  0  0  0  0
   19.8089  -12.9013  -16.6290 C   0  0  2  0  0  0  0  0  0  0  0  0
   19.2891  -13.8234  -17.6061 N   0  0  0  0  0  0  0  0  0  0  0  0
   19.5853  -11.5239  -17.0934 C   0  0  0  0  0  0  0  0  0  0  0  0
   19.9731  -11.1089  -18.2235 O   0  0  0  0  0  0  0  0  0  0  0  0
   16.3745   -9.4311  -15.5246 C   0  0  0  0  0  0  0  0  0  0  0  0
   17.1494   -9.0527  -16.7337 C   0  0  2  0  0  0  0  0  0  0  0  0
   16.6343   -9.8256  -17.9286 C   0  0  0  0  0  0  0  0  0  0  0  0
   18.6385   -9.2497  -16.6001 C   0  0  2  0  0  0  0  0  0  0  0  0
   18.9053  -10.6122  -16.2437 N   0  0  0  0  0  0  0  0  0  0  0  0
   19.2574   -8.3106  -15.6490 C   0  0  0  0  0  0  0  0  0  0  0  0
   19.3010   -8.6319  -14.4290 O   0  0  0  0  0  0  0  0  0  0  0  0
   21.4968   -4.8025  -16.8325 C   0  0  0  0  0  0  0  0  0  0  0  0
   21.7429   -5.6084  -15.5747 C   0  0  1  0  0  0  0  0  0  0  0  0
   22.4714   -4.8196  -14.5441 C   0  0  0  0  0  0  0  0  0  0  0  0
   20.4864   -6.2669  -15.0744 C   0  0  2  0  0  0  0  0  0  0  0  0
   19.8087   -7.0591  -16.0374 N   0  0  0  0  0  0  0  0  0  0  0  0
   19.5742   -5.2191  -14.5113 C   0  0  0  0  0  0  0  0  0  0  0  0
   19.8214   -4.6944  -13.2630 O   0  0  0  0  0  0  0  0  0  0  0  0
   18.6032   -4.8400  -15.1872 O   0  0  0  0  0  0  0  0  0  0  0  0
  2  1  1  1
  2  4  1  0
  3  2  1  0
  4  5  1  6
  4  6  1  0
  6  7  2  0
  6 12  1  0
  9  8  1  1
  9 11  1  0
 10  9  1  0
 11 13  1  0
 11 12  1  1
 13 14  2  0
 13 19  1  0
 16 15  1  6
 17 16  1  0
 18 16  1  0
 18 20  1  0
 18 19  1  6
 20 21  1  0
 22 20  2  0
M  END
$$$$
