TVV.pdb
     RDKit          3D

 22 21  0  0  1  0  0  0  0  0999 V2000
   28.7949  -18.1938  -15.1890 C   0  0  0  0  0  0  0  0  0  0  0  0
   27.6723  -18.9291  -14.4864 C   0  0  1  0  0  0  0  0  0  0  0  0
   26.8652  -19.4693  -15.5115 O   0  0  0  0  0  0  0  0  0  0  0  0
   28.2335  -20.1142  -13.7317 C   0  0  2  0  0  0  0  0  0  0  0  0
   28.8743  -21.0364  -14.6341 N   0  0  0  0  0  0  0  0  0  0  0  0
   27.2062  -20.8268  -12.9573 C   0  0  0  0  0  0  0  0  0  0  0  0
   26.7158  -21.9339  -13.3227 O   0  0  0  0  0  0  0  0  0  0  0  0
   26.8771  -20.6802   -8.8743 C   0  0  0  0  0  0  0  0  0  0  0  0
   25.6533  -20.2633   -9.6050 C   0  0  2  0  0  0  0  0  0  0  0  0
   24.4279  -20.7351   -8.8525 C   0  0  0  0  0  0  0  0  0  0  0  0
   25.5927  -20.7429  -11.0334 C   0  0  2  0  0  0  0  0  0  0  0  0
   26.7375  -20.2554  -11.7451 N   0  0  0  0  0  0  0  0  0  0  0  0
   24.3375  -20.3722  -11.7093 C   0  0  0  0  0  0  0  0  0  0  0  0
   24.1332  -19.1546  -11.9723 O   0  0  0  0  0  0  0  0  0  0  0  0
   23.1812  -21.3589  -15.0899 C   0  0  0  0  0  0  0  0  0  0  0  0
   22.0271  -21.6025  -14.1408 C   0  0  1  0  0  0  0  0  0  0  0  0
   21.7138  -23.0515  -14.0086 C   0  0  0  0  0  0  0  0  0  0  0  0
   22.2177  -20.8898  -12.8298 C   0  0  2  0  0  0  0  0  0  0  0  0
   23.3439  -21.3188  -12.0803 N   0  0  0  0  0  0  0  0  0  0  0  0
   20.9626  -21.0103  -12.0189 C   0  0  0  0  0  0  0  0  0  0  0  0
   19.8233  -20.3486  -12.4175 O   0  0  0  0  0  0  0  0  0  0  0  0
   20.9735  -21.7110  -10.9932 O   0  0  0  0  0  0  0  0  0  0  0  0
  2  1  1  6
  2  4  1  0
  3  2  1  0
  4  5  1  6
  4  6  1  0
  6  7  2  0
  6 12  1  0
  9  8  1  1
  9 11  1  0
 10  9  1  0
 11 13  1  0
 11 12  1  6
 13 14  2  0
 13 19  1  0
 16 15  1  6
 17 16  1  0
 18 16  1  0
 18 20  1  0
 18 19  1  1
 20 21  1  0
 22 20  2  0
M  END
$$$$
