TVV.pdb
     RDKit          3D

 22 21  0  0  1  0  0  0  0  0999 V2000
   18.1383  -10.7357  -19.5389 C   0  0  0  0  0  0  0  0  0  0  0  0
   17.6807  -12.0994  -19.0638 C   0  0  1  0  0  0  0  0  0  0  0  0
   17.3260  -12.8139  -20.2290 O   0  0  0  0  0  0  0  0  0  0  0  0
   18.8489  -12.8463  -18.4582 C   0  0  2  0  0  0  0  0  0  0  0  0
   18.4646  -14.1865  -18.0960 N   0  0  0  0  0  0  0  0  0  0  0  0
   19.4032  -12.1642  -17.2791 C   0  0  0  0  0  0  0  0  0  0  0  0
   18.8272  -12.1623  -16.1531 O   0  0  0  0  0  0  0  0  0  0  0  0
   22.8748  -12.6600  -15.8272 C   0  0  0  0  0  0  0  0  0  0  0  0
   22.7057  -11.2341  -16.2060 C   0  0  2  0  0  0  0  0  0  0  0  0
   23.4453  -10.3562  -15.2198 C   0  0  0  0  0  0  0  0  0  0  0  0
   21.2688  -10.7885  -16.3103 C   0  0  2  0  0  0  0  0  0  0  0  0
   20.6385  -11.4748  -17.3995 N   0  0  0  0  0  0  0  0  0  0  0  0
   21.1301   -9.3276  -16.4387 C   0  0  0  0  0  0  0  0  0  0  0  0
   21.7093   -8.7510  -17.4007 O   0  0  0  0  0  0  0  0  0  0  0  0
   18.3964   -7.2825  -17.4710 C   0  0  0  0  0  0  0  0  0  0  0  0
   18.8362   -6.7118  -16.1395 C   0  0  1  0  0  0  0  0  0  0  0  0
   17.8256   -6.9490  -15.0731 C   0  0  0  0  0  0  0  0  0  0  0  0
   20.2306   -7.1439  -15.7761 C   0  0  2  0  0  0  0  0  0  0  0  0
   20.3754   -8.5344  -15.5320 N   0  0  0  0  0  0  0  0  0  0  0  0
   20.6999   -6.3457  -14.5972 C   0  0  0  0  0  0  0  0  0  0  0  0
   21.0732   -5.0314  -14.7644 O   0  0  0  0  0  0  0  0  0  0  0  0
   20.7437   -6.8894  -13.4811 O   0  0  0  0  0  0  0  0  0  0  0  0
  2  1  1  6
  2  4  1  0
  3  2  1  0
  4  5  1  1
  4  6  1  0
  6  7  2  0
  6 12  1  0
  9  8  1  1
  9 11  1  0
 10  9  1  0
 11 13  1  0
 11 12  1  6
 13 14  2  0
 13 19  1  0
 16 15  1  6
 17 16  1  0
 18 16  1  0
 18 20  1  0
 18 19  1  1
 20 21  1  0
 22 20  2  0
M  END
$$$$
