TVV.pdb
     RDKit          3D

 22 21  0  0  1  0  0  0  0  0999 V2000
   35.7619  -39.3063   -6.4665 C   0  0  0  0  0  0  0  0  0  0  0  0
   34.7222  -38.5900   -5.6295 C   0  0  1  0  0  0  0  0  0  0  0  0
   34.7147  -39.2472   -4.3797 O   0  0  0  0  0  0  0  0  0  0  0  0
   35.1787  -37.1746   -5.3517 C   0  0  2  0  0  0  0  0  0  0  0  0
   36.4590  -37.1722   -4.6914 N   0  0  0  0  0  0  0  0  0  0  0  0
   34.2119  -36.4199   -4.5402 C   0  0  0  0  0  0  0  0  0  0  0  0
   34.4568  -36.0380   -3.3595 O   0  0  0  0  0  0  0  0  0  0  0  0
   32.1281  -33.5475   -6.3068 C   0  0  0  0  0  0  0  0  0  0  0  0
   31.2591  -34.4436   -5.5023 C   0  0  2  0  0  0  0  0  0  0  0  0
   30.1592  -33.6330   -4.8513 C   0  0  0  0  0  0  0  0  0  0  0  0
   31.9949  -35.2414   -4.4553 C   0  0  2  0  0  0  0  0  0  0  0  0
   32.9455  -36.1011   -5.0970 N   0  0  0  0  0  0  0  0  0  0  0  0
   31.0911  -35.9982   -3.5719 C   0  0  0  0  0  0  0  0  0  0  0  0
   30.3726  -36.9033   -4.0799 O   0  0  0  0  0  0  0  0  0  0  0  0
   32.0172  -38.0085   -0.4288 C   0  0  0  0  0  0  0  0  0  0  0  0
   30.8329  -37.1154   -0.1255 C   0  0  1  0  0  0  0  0  0  0  0  0
   31.1776  -36.0509    0.8557 C   0  0  0  0  0  0  0  0  0  0  0  0
   30.1749  -36.6093   -1.3801 C   0  0  2  0  0  0  0  0  0  0  0  0
   30.9881  -35.7595   -2.1743 N   0  0  0  0  0  0  0  0  0  0  0  0
   28.8888  -35.9290   -1.0194 C   0  0  0  0  0  0  0  0  0  0  0  0
   27.8154  -36.6761   -0.5901 O   0  0  0  0  0  0  0  0  0  0  0  0
   28.8143  -34.6926   -1.1151 O   0  0  0  0  0  0  0  0  0  0  0  0
  2  1  1  6
  2  4  1  0
  3  2  1  0
  4  5  1  1
  4  6  1  0
  6  7  2  0
  6 12  1  0
  9  8  1  1
  9 11  1  0
 10  9  1  0
 11 13  1  0
 11 12  1  6
 13 14  2  0
 13 19  1  0
 16 15  1  6
 17 16  1  0
 18 16  1  0
 18 20  1  0
 18 19  1  1
 20 21  1  0
 22 20  2  0
M  END
$$$$
