TVV.pdb
     RDKit          3D

 22 21  0  0  1  0  0  0  0  0999 V2000
   19.2274   -8.5958  -19.1521 C   0  0  0  0  0  0  0  0  0  0  0  0
   18.5830   -9.9661  -19.1096 C   0  0  1  0  0  0  0  0  0  0  0  0
   18.3103  -10.3050  -20.4530 O   0  0  0  0  0  0  0  0  0  0  0  0
   19.5870  -10.9862  -18.6195 C   0  0  2  0  0  0  0  0  0  0  0  0
   19.0217  -12.3110  -18.6448 N   0  0  0  0  0  0  0  0  0  0  0  0
   20.0735  -10.6913  -17.2633 C   0  0  0  0  0  0  0  0  0  0  0  0
   19.3568  -10.8333  -16.2308 O   0  0  0  0  0  0  0  0  0  0  0  0
   23.2347  -11.9070  -15.4402 C   0  0  0  0  0  0  0  0  0  0  0  0
   23.2829  -10.4333  -15.6171 C   0  0  2  0  0  0  0  0  0  0  0  0
   23.9641   -9.8012  -14.4226 C   0  0  0  0  0  0  0  0  0  0  0  0
   21.9355   -9.7927  -15.8360 C   0  0  2  0  0  0  0  0  0  0  0  0
   21.4043  -10.2264  -17.0947 N   0  0  0  0  0  0  0  0  0  0  0  0
   21.9783   -8.3231  -15.7445 C   0  0  0  0  0  0  0  0  0  0  0  0
   22.6904   -7.6897  -16.5723 O   0  0  0  0  0  0  0  0  0  0  0  0
   20.2024   -3.9476  -14.9119 C   0  0  0  0  0  0  0  0  0  0  0  0
   20.0444   -5.4513  -14.9907 C   0  0  1  0  0  0  0  0  0  0  0  0
   19.3272   -5.8698  -16.2258 C   0  0  0  0  0  0  0  0  0  0  0  0
   21.3480   -6.1660  -14.7614 C   0  0  2  0  0  0  0  0  0  0  0  0
   21.2567   -7.5823  -14.7691 N   0  0  0  0  0  0  0  0  0  0  0  0
   21.9552   -5.6797  -13.4800 C   0  0  0  0  0  0  0  0  0  0  0  0
   22.7228   -4.5372  -13.4758 O   0  0  0  0  0  0  0  0  0  0  0  0
   21.7531   -6.3221  -12.4361 O   0  0  0  0  0  0  0  0  0  0  0  0
  2  1  1  6
  2  4  1  0
  3  2  1  0
  4  5  1  1
  4  6  1  0
  6  7  2  0
  6 12  1  0
  9  8  1  1
  9 11  1  0
 10  9  1  0
 11 13  1  0
 11 12  1  6
 13 14  2  0
 13 19  1  0
 16 15  1  6
 17 16  1  0
 18 16  1  0
 18 20  1  0
 18 19  1  1
 20 21  1  0
 22 20  2  0
M  END
$$$$
