TVV.pdb
     RDKit          3D

 22 21  0  0  1  0  0  0  0  0999 V2000
   19.7595  -11.6582  -20.1511 C   0  0  0  0  0  0  0  0  0  0  0  0
   19.3601  -13.0790  -19.8097 C   0  0  1  0  0  0  0  0  0  0  0  0
   19.3632  -13.7842  -21.0331 O   0  0  0  0  0  0  0  0  0  0  0  0
   20.4343  -13.7196  -18.9584 C   0  0  2  0  0  0  0  0  0  0  0  0
   20.1372  -15.1094  -18.7229 N   0  0  0  0  0  0  0  0  0  0  0  0
   20.6136  -13.0357  -17.6688 C   0  0  0  0  0  0  0  0  0  0  0  0
   19.7302  -13.0349  -16.7635 O   0  0  0  0  0  0  0  0  0  0  0  0
   23.8980  -11.1089  -14.5508 C   0  0  0  0  0  0  0  0  0  0  0  0
   23.5172  -11.8167  -15.7995 C   0  0  2  0  0  0  0  0  0  0  0  0
   24.4441  -11.4005  -16.9212 C   0  0  0  0  0  0  0  0  0  0  0  0
   22.0832  -11.6068  -16.2163 C   0  0  2  0  0  0  0  0  0  0  0  0
   21.8275  -12.3432  -17.4192 N   0  0  0  0  0  0  0  0  0  0  0  0
   21.7334  -10.1840  -16.3684 C   0  0  0  0  0  0  0  0  0  0  0  0
   22.1532   -9.5672  -17.3866 O   0  0  0  0  0  0  0  0  0  0  0  0
   18.7795   -6.4312  -16.0627 C   0  0  0  0  0  0  0  0  0  0  0  0
   19.1061   -7.8972  -15.8722 C   0  0  1  0  0  0  0  0  0  0  0  0
   18.4786   -8.7462  -16.9212 C   0  0  0  0  0  0  0  0  0  0  0  0
   20.5823   -8.1255  -15.6942 C   0  0  2  0  0  0  0  0  0  0  0  0
   20.9456   -9.4706  -15.4243 N   0  0  0  0  0  0  0  0  0  0  0  0
   21.0943   -7.2114  -14.6221 C   0  0  0  0  0  0  0  0  0  0  0  0
   21.4205   -5.9099  -14.9295 O   0  0  0  0  0  0  0  0  0  0  0  0
   21.2159   -7.6486  -13.4657 O   0  0  0  0  0  0  0  0  0  0  0  0
  2  1  1  6
  2  4  1  0
  3  2  1  0
  4  5  1  1
  4  6  1  0
  6  7  2  0
  6 12  1  0
  9  8  1  1
  9 11  1  0
 10  9  1  0
 11 13  1  0
 11 12  1  6
 13 14  2  0
 13 19  1  0
 16 15  1  6
 17 16  1  0
 18 16  1  0
 18 20  1  0
 18 19  1  1
 20 21  1  0
 22 20  2  0
M  END
$$$$
