TVV.pdb
     RDKit          3D

 22 21  0  0  1  0  0  0  0  0999 V2000
   18.2125   -9.4056  -18.6553 C   0  0  0  0  0  0  0  0  0  0  0  0
   17.4756  -10.5298  -17.9569 C   0  0  1  0  0  0  0  0  0  0  0  0
   16.8295  -11.2596  -18.9786 O   0  0  0  0  0  0  0  0  0  0  0  0
   18.4723  -11.4820  -17.3331 C   0  0  2  0  0  0  0  0  0  0  0  0
   17.8074  -12.6533  -16.8219 N   0  0  0  0  0  0  0  0  0  0  0  0
   19.2509  -10.8553  -16.2543 C   0  0  0  0  0  0  0  0  0  0  0  0
   18.7546  -10.5689  -15.1267 O   0  0  0  0  0  0  0  0  0  0  0  0
   22.5928  -12.0428  -14.7691 C   0  0  0  0  0  0  0  0  0  0  0  0
   22.7475  -10.6973  -15.3783 C   0  0  2  0  0  0  0  0  0  0  0  0
   23.7548   -9.8939  -14.5842 C   0  0  0  0  0  0  0  0  0  0  0  0
   21.4594   -9.9232  -15.5026 C   0  0  2  0  0  0  0  0  0  0  0  0
   20.6202  -10.5548  -16.4780 N   0  0  0  0  0  0  0  0  0  0  0  0
   21.6744   -8.4997  -15.8143 C   0  0  0  0  0  0  0  0  0  0  0  0
   22.2864   -8.2029  -16.8777 O   0  0  0  0  0  0  0  0  0  0  0  0
   19.1376   -5.4251  -14.9992 C   0  0  0  0  0  0  0  0  0  0  0  0
   20.3612   -5.3249  -15.8851 C   0  0  1  0  0  0  0  0  0  0  0  0
   20.6794   -3.9136  -16.2343 C   0  0  0  0  0  0  0  0  0  0  0  0
   21.5236   -6.1002  -15.3276 C   0  0  2  0  0  0  0  0  0  0  0  0
   21.2263   -7.4427  -14.9759 N   0  0  0  0  0  0  0  0  0  0  0  0
   22.0920   -5.3575  -14.1562 C   0  0  0  0  0  0  0  0  0  0  0  0
   22.9789   -4.3255  -14.3641 O   0  0  0  0  0  0  0  0  0  0  0  0
   21.7497   -5.6895  -13.0091 O   0  0  0  0  0  0  0  0  0  0  0  0
  2  1  1  6
  2  4  1  0
  3  2  1  0
  4  5  1  1
  4  6  1  0
  6  7  2  0
  6 12  1  0
  9  8  1  1
  9 11  1  0
 10  9  1  0
 11 13  1  0
 11 12  1  6
 13 14  2  0
 13 19  1  0
 16 15  1  1
 17 16  1  0
 18 16  1  0
 18 20  1  0
 18 19  1  1
 20 21  1  0
 22 20  2  0
M  END
$$$$
