TVV.pdb
     RDKit          3D

 22 21  0  0  1  0  0  0  0  0999 V2000
   17.8954   -8.3615  -17.9069 C   0  0  0  0  0  0  0  0  0  0  0  0
   17.1598   -9.5845  -17.3989 C   0  0  1  0  0  0  0  0  0  0  0  0
   16.4420  -10.0891  -18.5052 O   0  0  0  0  0  0  0  0  0  0  0  0
   18.1566  -10.6596  -17.0251 C   0  0  2  0  0  0  0  0  0  0  0  0
   17.4799  -11.8795  -16.6657 N   0  0  0  0  0  0  0  0  0  0  0  0
   19.0394  -10.2505  -15.9223 C   0  0  0  0  0  0  0  0  0  0  0  0
   18.6470  -10.1695  -14.7226 O   0  0  0  0  0  0  0  0  0  0  0  0
   22.3671  -11.7733  -14.9564 C   0  0  0  0  0  0  0  0  0  0  0  0
   22.5747  -10.3429  -15.2974 C   0  0  2  0  0  0  0  0  0  0  0  0
   23.6528   -9.7611  -14.4088 C   0  0  0  0  0  0  0  0  0  0  0  0
   21.3280   -9.4991  -15.2088 C   0  0  2  0  0  0  0  0  0  0  0  0
   20.3931   -9.9303  -16.2061 N   0  0  0  0  0  0  0  0  0  0  0  0
   21.6044   -8.0561  -15.3143 C   0  0  0  0  0  0  0  0  0  0  0  0
   22.2433   -7.6383  -16.3196 O   0  0  0  0  0  0  0  0  0  0  0  0
   19.7123   -5.1611  -16.1262 C   0  0  0  0  0  0  0  0  0  0  0  0
   20.3609   -4.8366  -14.7972 C   0  0  1  0  0  0  0  0  0  0  0  0
   19.3614   -4.7527  -13.6977 C   0  0  0  0  0  0  0  0  0  0  0  0
   21.5262   -5.7419  -14.5048 C   0  0  2  0  0  0  0  0  0  0  0  0
   21.1867   -7.1099  -14.3390 N   0  0  0  0  0  0  0  0  0  0  0  0
   22.2581   -5.2266  -13.3024 C   0  0  0  0  0  0  0  0  0  0  0  0
   22.1704   -5.9012  -12.1057 O   0  0  0  0  0  0  0  0  0  0  0  0
   22.9364   -4.1913  -13.4084 O   0  0  0  0  0  0  0  0  0  0  0  0
  2  1  1  6
  2  4  1  0
  3  2  1  0
  4  5  1  1
  4  6  1  0
  6  7  2  0
  6 12  1  0
  9  8  1  1
  9 11  1  0
 10  9  1  0
 11 13  1  0
 11 12  1  6
 13 14  2  0
 13 19  1  0
 16 15  1  6
 17 16  1  0
 18 16  1  0
 18 20  1  0
 18 19  1  1
 20 21  1  0
 22 20  2  0
M  END
$$$$
