TVV.pdb
     RDKit          3D

 22 21  0  0  1  0  0  0  0  0999 V2000
   22.4773  -20.7764  -10.3215 C   0  0  0  0  0  0  0  0  0  0  0  0
   23.7637  -20.3481   -9.6459 C   0  0  1  0  0  0  0  0  0  0  0  0
   23.7974  -21.0340   -8.4121 O   0  0  0  0  0  0  0  0  0  0  0  0
   24.9486  -20.8576  -10.4369 C   0  0  2  0  0  0  0  0  0  0  0  0
   26.1842  -20.5280   -9.7736 N   0  0  0  0  0  0  0  0  0  0  0  0
   24.9783  -20.3305  -11.8095 C   0  0  0  0  0  0  0  0  0  0  0  0
   25.4408  -19.1889  -12.0967 O   0  0  0  0  0  0  0  0  0  0  0  0
   26.6965  -21.7993  -14.6438 C   0  0  0  0  0  0  0  0  0  0  0  0
   25.2730  -21.6946  -15.0540 C   0  0  2  0  0  0  0  0  0  0  0  0
   25.1935  -21.3288  -16.5204 C   0  0  0  0  0  0  0  0  0  0  0  0
   24.4650  -20.7170  -14.2382 C   0  0  2  0  0  0  0  0  0  0  0  0
   24.4679  -21.1302  -12.8657 N   0  0  0  0  0  0  0  0  0  0  0  0
   23.0940  -20.5418  -14.7475 C   0  0  0  0  0  0  0  0  0  0  0  0
   22.2709  -21.4867  -14.5956 O   0  0  0  0  0  0  0  0  0  0  0  0
   20.5206  -17.7397  -13.9142 C   0  0  0  0  0  0  0  0  0  0  0  0
   20.6587  -17.9149  -15.4117 C   0  0  1  0  0  0  0  0  0  0  0  0
   21.3082  -16.7380  -16.0505 C   0  0  0  0  0  0  0  0  0  0  0  0
   21.2859  -19.2351  -15.7675 C   0  0  2  0  0  0  0  0  0  0  0  0
   22.6516  -19.3600  -15.4022 N   0  0  0  0  0  0  0  0  0  0  0  0
   21.1031  -19.4857  -17.2341 C   0  0  0  0  0  0  0  0  0  0  0  0
   22.1939  -19.4676  -18.0735 O   0  0  0  0  0  0  0  0  0  0  0  0
   19.9607  -19.7069  -17.6693 O   0  0  0  0  0  0  0  0  0  0  0  0
  2  1  1  6
  2  4  1  0
  3  2  1  0
  4  5  1  1
  4  6  1  0
  6  7  2  0
  6 12  1  0
  9  8  1  1
  9 11  1  0
 10  9  1  0
 11 13  1  0
 11 12  1  1
 13 14  2  0
 13 19  1  0
 16 15  1  1
 17 16  1  0
 18 16  1  0
 18 20  1  0
 18 19  1  6
 20 21  1  0
 22 20  2  0
M  END
$$$$
