RDM.pdb
     RDKit          3D

 28 27  0  0  1  0  0  0  0  0999 V2000
   27.9149  -20.6457   -9.1109 N   0  0  0  0  0  0  0  0  0  0  0  0
   28.4358  -21.5328  -10.0913 C   0  0  0  0  0  0  0  0  0  0  0  0
   29.4333  -22.2673   -9.7305 N   0  0  0  0  0  0  0  0  0  0  0  0
   27.9015  -21.6203  -11.4028 N   0  0  0  0  0  0  0  0  0  0  0  0
   26.8852  -20.6323  -11.8188 C   0  0  0  0  0  0  0  0  0  0  0  0
   25.6109  -21.3789  -12.1000 C   0  0  0  0  0  0  0  0  0  0  0  0
   25.7309  -22.4222  -13.1549 C   0  0  0  0  0  0  0  0  0  0  0  0
   25.2795  -22.0058  -14.5251 C   0  0  2  0  0  0  0  0  0  0  0  0
   25.4586  -20.5989  -14.7758 N   0  0  0  0  0  0  0  0  0  0  0  0
   23.8511  -22.3371  -14.7591 C   0  0  0  0  0  0  0  0  0  0  0  0
   23.0421  -21.4441  -15.0192 O   0  0  0  0  0  0  0  0  0  0  0  0
   29.9555  -22.9196  -10.3443 N   0  0  0  0  0  0  0  0  0  0  0  0
   23.3503  -23.6693  -14.6981 C   0  0  2  0  0  0  0  0  0  0  0  0
   21.9839  -24.0094  -14.8852 C   0  0  0  0  0  0  0  0  0  0  0  0
   21.6895  -25.4419  -15.1542 C   0  0  0  0  0  0  0  0  0  0  0  0
   20.3743  -25.5866  -15.7774 O   0  0  0  0  0  0  0  0  0  0  0  0
   19.6357  -24.5676  -15.9927 C   0  0  0  0  0  0  0  0  0  0  0  0
   21.2201  -23.5263  -13.7073 O   0  0  0  0  0  0  0  0  0  0  0  0
   21.7146  -23.5204  -12.5486 O   0  0  0  0  0  0  0  0  0  0  0  0
   19.8348  -26.8009  -16.1738 C   0  0  0  0  0  0  0  0  0  0  0  0
   22.3056  -19.7348   -9.9010 S   0  0  0  0  0  0  0  0  0  0  0  0
   21.3199  -18.8968  -11.2013 C   0  0  0  0  0  0  0  0  0  0  0  0
   19.9472  -19.9795  -11.6372 C   0  0  0  0  0  0  0  0  0  0  0  0
   20.3878  -21.0805  -12.5401 C   0  0  1  0  0  0  0  0  0  0  0  0
   19.3163  -22.0537  -12.9096 N   0  0  0  0  0  0  0  0  0  0  0  0
   19.8870  -23.0427  -13.8210 C   0  0  0  0  0  0  0  0  0  0  0  0
   18.1500  -21.4470  -13.5806 O   0  0  0  0  0  0  0  0  0  0  0  0
   17.9628  -21.5487  -14.8127 O   0  0  0  0  0  0  0  0  0  0  0  0
  2  1  1  0
  3  2  2  0
  4  5  1  0
  4  2  1  0
  6  5  1  0
  7  6  1  0
  8  9  1  1
  8  7  1  0
 10  8  1  0
 11 10  2  0
 12 10  1  0
 13 12  1  0
 13 14  1  6
 15 14  1  0
 16 15  2  0
 17 13  1  0
 17 25  1  0
 18 17  2  0
 19 15  1  0
 21 20  1  0
 22 21  1  0
 24 23  1  1
 23 22  1  0
 24 25  1  0
 24 26  1  0
 26 28  1  0
 27 26  2  0
M  END
$$$$
