RDM.pdb
     RDKit          3D

 28 27  0  0  1  0  0  0  0  0999 V2000
   22.4351  -16.0024  -18.9055 N   0  0  0  0  0  0  0  0  0  0  0  0
   21.0840  -16.4417  -18.8719 C   0  0  0  0  0  0  0  0  0  0  0  0
   20.8951  -17.7130  -18.7599 N   0  0  0  0  0  0  0  0  0  0  0  0
   19.9874  -15.5453  -18.9564 N   0  0  0  0  0  0  0  0  0  0  0  0
   20.2644  -14.0981  -19.0612 C   0  0  0  0  0  0  0  0  0  0  0  0
   19.2764  -13.3795  -18.1849 C   0  0  0  0  0  0  0  0  0  0  0  0
   19.8605  -12.8115  -16.9393 C   0  0  0  0  0  0  0  0  0  0  0  0
   18.8782  -12.1666  -16.0045 C   0  0  2  0  0  0  0  0  0  0  0  0
   17.5399  -12.6784  -16.1503 N   0  0  0  0  0  0  0  0  0  0  0  0
   18.8302  -10.6936  -16.1859 C   0  0  0  0  0  0  0  0  0  0  0  0
   18.6852  -10.2119  -17.3112 O   0  0  0  0  0  0  0  0  0  0  0  0
   19.9738  -18.1886  -18.7615 N   0  0  0  0  0  0  0  0  0  0  0  0
   18.9454   -9.7804  -15.0986 C   0  0  1  0  0  0  0  0  0  0  0  0
   18.8910   -8.3684  -15.2431 C   0  0  0  0  0  0  0  0  0  0  0  0
   17.7227   -7.6848  -14.6275 C   0  0  0  0  0  0  0  0  0  0  0  0
   17.8085   -6.2392  -14.8321 O   0  0  0  0  0  0  0  0  0  0  0  0
   17.7932   -5.4351  -13.8404 C   0  0  0  0  0  0  0  0  0  0  0  0
   20.1638   -7.8004  -14.7319 O   0  0  0  0  0  0  0  0  0  0  0  0
   20.5643   -8.0126  -13.5564 O   0  0  0  0  0  0  0  0  0  0  0  0
   17.9097   -5.6383  -16.0777 C   0  0  0  0  0  0  0  0  0  0  0  0
   26.2205   -5.7551  -17.7787 S   0  0  0  0  0  0  0  0  0  0  0  0
   24.7940   -6.8331  -18.1883 C   0  0  0  0  0  0  0  0  0  0  0  0
   23.9259   -7.2065  -16.6541 C   0  0  0  0  0  0  0  0  0  0  0  0
   23.1091   -6.0475  -16.1948 C   0  0  2  0  0  0  0  0  0  0  0  0
   22.2104   -6.3348  -15.0367 N   0  0  0  0  0  0  0  0  0  0  0  0
   21.0029   -6.9845  -15.5409 C   0  0  0  0  0  0  0  0  0  0  0  0
   21.7924   -5.1379  -14.2809 O   0  0  0  0  0  0  0  0  0  0  0  0
   22.2816   -4.8486  -13.1672 O   0  0  0  0  0  0  0  0  0  0  0  0
  2  1  1  0
  3  2  2  0
  4  5  1  0
  4  2  1  0
  6  5  1  0
  7  6  1  0
  8  9  1  6
  8  7  1  0
 10  8  1  0
 11 10  2  0
 12 10  1  0
 13 12  1  0
 13 14  1  6
 15 14  1  0
 16 15  2  0
 17 13  1  0
 17 25  1  0
 18 17  2  0
 19 15  1  0
 21 20  1  0
 22 21  1  0
 24 23  1  1
 23 22  1  0
 24 25  1  0
 24 26  1  0
 26 28  1  0
 27 26  2  0
M  END
$$$$
