RDM.pdb
     RDKit          3D

 28 27  0  0  1  0  0  0  0  0999 V2000
   12.3525  -14.4479  -17.8431 N   0  0  0  0  0  0  0  0  0  0  0  0
   12.6898  -15.0199  -16.5867 C   0  0  0  0  0  0  0  0  0  0  0  0
   12.2745  -16.2224  -16.3720 N   0  0  0  0  0  0  0  0  0  0  0  0
   13.4419  -14.3215  -15.6070 N   0  0  0  0  0  0  0  0  0  0  0  0
   13.8665  -12.9367  -15.8972 C   0  0  0  0  0  0  0  0  0  0  0  0
   15.3200  -12.9754  -16.2795 C   0  0  0  0  0  0  0  0  0  0  0  0
   16.1573  -11.9399  -15.6143 C   0  0  0  0  0  0  0  0  0  0  0  0
   17.6149  -11.9634  -15.9740 C   0  0  2  0  0  0  0  0  0  0  0  0
   18.3014  -13.1269  -15.4747 N   0  0  0  0  0  0  0  0  0  0  0  0
   18.3255  -10.7594  -15.4737 C   0  0  0  0  0  0  0  0  0  0  0  0
   18.2895  -10.4714  -14.2757 O   0  0  0  0  0  0  0  0  0  0  0  0
   12.4636  -16.7831  -15.5206 N   0  0  0  0  0  0  0  0  0  0  0  0
   19.0685   -9.8943  -16.3275 C   0  0  1  0  0  0  0  0  0  0  0  0
   19.7939   -8.7626  -15.8684 C   0  0  0  0  0  0  0  0  0  0  0  0
   21.2763   -8.8789  -15.8769 C   0  0  0  0  0  0  0  0  0  0  0  0
   21.8878   -7.6770  -15.3107 O   0  0  0  0  0  0  0  0  0  0  0  0
   21.4019   -7.1239  -14.2676 C   0  0  0  0  0  0  0  0  0  0  0  0
   19.3532   -7.5804  -16.6509 O   0  0  0  0  0  0  0  0  0  0  0  0
   19.3948   -7.5609  -17.9099 O   0  0  0  0  0  0  0  0  0  0  0  0
   23.0089   -7.0560  -15.8403 C   0  0  0  0  0  0  0  0  0  0  0  0
   13.7402   -2.7746  -18.2302 S   0  0  0  0  0  0  0  0  0  0  0  0
   14.4318   -4.2715  -17.4267 C   0  0  0  0  0  0  0  0  0  0  0  0
   16.2154   -4.0530  -17.2947 C   0  0  0  0  0  0  0  0  0  0  0  0
   16.8702   -5.2599  -16.7147 C   0  0  1  0  0  0  0  0  0  0  0  0
   18.3630   -5.2491  -16.7688 N   0  0  0  0  0  0  0  0  0  0  0  0
   18.8591   -6.4033  -16.0230 C   0  0  0  0  0  0  0  0  0  0  0  0
   18.9830   -4.0415  -16.1894 O   0  0  0  0  0  0  0  0  0  0  0  0
   19.4833   -4.0339  -15.0435 O   0  0  0  0  0  0  0  0  0  0  0  0
  2  1  1  0
  3  2  2  0
  4  5  1  0
  4  2  1  0
  6  5  1  0
  7  6  1  0
  8  9  1  1
  8  7  1  0
 10  8  1  0
 11 10  2  0
 12 10  1  0
 13 12  1  0
 13 14  1  6
 15 14  1  0
 16 15  2  0
 17 13  1  0
 17 25  1  0
 18 17  2  0
 19 15  1  0
 21 20  1  0
 22 21  1  0
 24 23  1  6
 23 22  1  0
 24 25  1  0
 24 26  1  0
 26 28  1  0
 27 26  2  0
M  END
$$$$
