RDM.pdb
     RDKit          3D

 28 27  0  0  1  0  0  0  0  0999 V2000
   31.6482  -23.4845  -17.3291 N   0  0  0  0  0  0  0  0  0  0  0  0
   30.6882  -24.1997  -16.5633 C   0  0  0  0  0  0  0  0  0  0  0  0
   31.1190  -25.2315  -15.9196 N   0  0  0  0  0  0  0  0  0  0  0  0
   29.3239  -23.8157  -16.4981 N   0  0  0  0  0  0  0  0  0  0  0  0
   28.9805  -22.3925  -16.6950 C   0  0  0  0  0  0  0  0  0  0  0  0
   29.5596  -21.6194  -15.5430 C   0  0  0  0  0  0  0  0  0  0  0  0
   28.7116  -20.4897  -15.0739 C   0  0  0  0  0  0  0  0  0  0  0  0
   27.2796  -20.5308  -15.5238 C   0  0  2  0  0  0  0  0  0  0  0  0
   27.0363  -19.7463  -16.7068 N   0  0  0  0  0  0  0  0  0  0  0  0
   26.3545  -20.0613  -14.4615 C   0  0  0  0  0  0  0  0  0  0  0  0
   26.1050  -18.8599  -14.3432 O   0  0  0  0  0  0  0  0  0  0  0  0
   32.0786  -25.6201  -15.9752 N   0  0  0  0  0  0  0  0  0  0  0  0
   25.7207  -20.9493  -13.5455 C   0  0  2  0  0  0  0  0  0  0  0  0
   24.8056  -20.5303  -12.5432 C   0  0  0  0  0  0  0  0  0  0  0  0
   23.3665  -20.7937  -12.8092 C   0  0  0  0  0  0  0  0  0  0  0  0
   22.5442  -20.3162  -11.6980 O   0  0  0  0  0  0  0  0  0  0  0  0
   22.5875  -19.0948  -11.3285 C   0  0  0  0  0  0  0  0  0  0  0  0
   25.2224  -21.1345  -11.2527 O   0  0  0  0  0  0  0  0  0  0  0  0
   25.0770  -22.3628  -11.0136 O   0  0  0  0  0  0  0  0  0  0  0  0
   21.6771  -21.1213  -10.9748 C   0  0  0  0  0  0  0  0  0  0  0  0
   28.8492  -19.7237   -4.3320 S   0  0  0  0  0  0  0  0  0  0  0  0
   28.3780  -19.0835   -5.9851 C   0  0  0  0  0  0  0  0  0  0  0  0
   27.2777  -20.2878   -6.7505 C   0  0  0  0  0  0  0  0  0  0  0  0
   26.9495  -19.9101   -8.1545 C   0  0  1  0  0  0  0  0  0  0  0  0
   26.0948  -20.8944   -8.8840 N   0  0  0  0  0  0  0  0  0  0  0  0
   25.8096  -20.3602  -10.2136 C   0  0  0  0  0  0  0  0  0  0  0  0
   24.8029  -21.1793   -8.2295 O   0  0  0  0  0  0  0  0  0  0  0  0
   24.7105  -21.9375   -7.2395 O   0  0  0  0  0  0  0  0  0  0  0  0
  2  1  1  0
  3  2  2  0
  4  5  1  0
  4  2  1  0
  6  5  1  0
  7  6  1  0
  8  9  1  6
  8  7  1  0
 10  8  1  0
 11 10  2  0
 12 10  1  0
 13 12  1  0
 13 14  1  6
 15 14  1  0
 16 15  2  0
 17 13  1  0
 17 25  1  0
 18 17  2  0
 19 15  1  0
 21 20  1  0
 22 21  1  0
 24 23  1  6
 23 22  1  0
 24 25  1  0
 24 26  1  0
 26 28  1  0
 27 26  2  0
M  END
$$$$
