RDM.pdb
     RDKit          3D

 28 27  0  0  1  0  0  0  0  0999 V2000
   26.8782  -22.0048  -15.0377 N   0  0  0  0  0  0  0  0  0  0  0  0
   26.7586  -21.8189  -16.4415 C   0  0  0  0  0  0  0  0  0  0  0  0
   27.1797  -22.7838  -17.1874 N   0  0  0  0  0  0  0  0  0  0  0  0
   26.2089  -20.6418  -17.0118 N   0  0  0  0  0  0  0  0  0  0  0  0
   25.7756  -19.5555  -16.1093 C   0  0  0  0  0  0  0  0  0  0  0  0
   24.4254  -19.9274  -15.5625 C   0  0  0  0  0  0  0  0  0  0  0  0
   23.3433  -18.9587  -15.8884 C   0  0  0  0  0  0  0  0  0  0  0  0
   22.5675  -19.2582  -17.1386 C   0  0  2  0  0  0  0  0  0  0  0  0
   22.0726  -18.0749  -17.7936 N   0  0  0  0  0  0  0  0  0  0  0  0
   21.4131  -20.1527  -16.8699 C   0  0  0  0  0  0  0  0  0  0  0  0
   20.3883  -19.7039  -16.3524 O   0  0  0  0  0  0  0  0  0  0  0  0
   27.1639  -22.7961  -18.2241 N   0  0  0  0  0  0  0  0  0  0  0  0
   21.4256  -21.5414  -17.1871 C   0  0  2  0  0  0  0  0  0  0  0  0
   20.3947  -22.4460  -16.8177 C   0  0  0  0  0  0  0  0  0  0  0  0
   20.4286  -23.7863  -17.4607 C   0  0  0  0  0  0  0  0  0  0  0  0
   19.1759  -24.5018  -17.2206 O   0  0  0  0  0  0  0  0  0  0  0  0
   19.0935  -25.7613  -17.4132 C   0  0  0  0  0  0  0  0  0  0  0  0
   20.3951  -22.5707  -15.3383 O   0  0  0  0  0  0  0  0  0  0  0  0
   21.4600  -22.7210  -14.6821 O   0  0  0  0  0  0  0  0  0  0  0  0
   18.0100  -23.8947  -16.7790 C   0  0  0  0  0  0  0  0  0  0  0  0
   21.2339  -18.5747  -12.4899 S   0  0  0  0  0  0  0  0  0  0  0  0
   20.5626  -19.2409  -10.9182 C   0  0  0  0  0  0  0  0  0  0  0  0
   19.7895  -20.8284  -11.2770 C   0  0  0  0  0  0  0  0  0  0  0  0
   19.8341  -21.1387  -12.7342 C   0  0  1  0  0  0  0  0  0  0  0  0
   19.1731  -22.4210  -13.1217 N   0  0  0  0  0  0  0  0  0  0  0  0
   19.1930  -22.5274  -14.5786 C   0  0  0  0  0  0  0  0  0  0  0  0
   17.7684  -22.5366  -12.6835 O   0  0  0  0  0  0  0  0  0  0  0  0
   16.8125  -22.1949  -13.4136 O   0  0  0  0  0  0  0  0  0  0  0  0
  2  1  1  0
  3  2  2  0
  4  5  1  0
  4  2  1  0
  6  5  1  0
  7  6  1  0
  8  9  1  1
  8  7  1  0
 10  8  1  0
 11 10  2  0
 12 10  1  0
 13 12  1  0
 13 14  1  6
 15 14  1  0
 16 15  2  0
 17 13  1  0
 17 25  1  0
 18 17  2  0
 19 15  1  0
 21 20  1  0
 22 21  1  0
 24 23  1  1
 23 22  1  0
 24 25  1  0
 24 26  1  0
 26 28  1  0
 27 26  2  0
M  END
$$$$
