RDM.pdb
     RDKit          3D

 28 27  0  0  1  0  0  0  0  0999 V2000
   18.2104  -16.7876  -16.3253 N   0  0  0  0  0  0  0  0  0  0  0  0
   19.1884  -17.7935  -16.0995 C   0  0  0  0  0  0  0  0  0  0  0  0
   18.7873  -19.0164  -16.1900 N   0  0  0  0  0  0  0  0  0  0  0  0
   20.5391  -17.4893  -15.7893 N   0  0  0  0  0  0  0  0  0  0  0  0
   21.0522  -16.1424  -16.1133 C   0  0  0  0  0  0  0  0  0  0  0  0
   22.4850  -16.0791  -15.6623 C   0  0  0  0  0  0  0  0  0  0  0  0
   23.1417  -14.7625  -15.8880 C   0  0  0  0  0  0  0  0  0  0  0  0
   22.2082  -13.5966  -16.0426 C   0  0  2  0  0  0  0  0  0  0  0  0
   21.3715  -13.6938  -17.2109 N   0  0  0  0  0  0  0  0  0  0  0  0
   22.9424  -12.3076  -16.1080 C   0  0  0  0  0  0  0  0  0  0  0  0
   23.8155  -12.0486  -15.2773 O   0  0  0  0  0  0  0  0  0  0  0  0
   19.3962  -19.8550  -16.1589 N   0  0  0  0  0  0  0  0  0  0  0  0
   22.6856  -11.3257  -17.1077 C   0  0  1  0  0  0  0  0  0  0  0  0
   23.4002  -10.1031  -17.2168 C   0  0  0  0  0  0  0  0  0  0  0  0
   24.0479   -9.8298  -18.5271 C   0  0  0  0  0  0  0  0  0  0  0  0
   25.0623  -10.8423  -18.8184 O   0  0  0  0  0  0  0  0  0  0  0  0
   26.0781  -10.9894  -18.0590 C   0  0  0  0  0  0  0  0  0  0  0  0
   22.4857   -8.9960  -16.8397 O   0  0  0  0  0  0  0  0  0  0  0  0
   21.2680   -8.9974  -17.1629 O   0  0  0  0  0  0  0  0  0  0  0  0
   25.0102  -11.6995  -19.9072 C   0  0  0  0  0  0  0  0  0  0  0  0
   18.8967   -5.8589  -19.1187 S   0  0  0  0  0  0  0  0  0  0  0  0
   19.8750   -4.4875  -18.3929 C   0  0  0  0  0  0  0  0  0  0  0  0
   20.5432   -5.0583  -16.8198 C   0  0  0  0  0  0  0  0  0  0  0  0
   21.4923   -6.1916  -17.0106 C   0  0  1  0  0  0  0  0  0  0  0  0
   22.0673   -6.7458  -15.7482 N   0  0  0  0  0  0  0  0  0  0  0  0
   22.9331   -7.8713  -16.0919 C   0  0  0  0  0  0  0  0  0  0  0  0
   21.0607   -7.2332  -14.7851 O   0  0  0  0  0  0  0  0  0  0  0  0
   20.8670   -6.6741  -13.6836 O   0  0  0  0  0  0  0  0  0  0  0  0
  2  1  1  0
  3  2  2  0
  4  5  1  0
  4  2  1  0
  6  5  1  0
  7  6  1  0
  8  9  1  6
  8  7  1  0
 10  8  1  0
 11 10  2  0
 12 10  1  0
 13 12  1  0
 13 14  1  1
 15 14  1  0
 16 15  2  0
 17 13  1  0
 17 25  1  0
 18 17  2  0
 19 15  1  0
 21 20  1  0
 22 21  1  0
 24 23  1  6
 23 22  1  0
 24 25  1  0
 24 26  1  0
 26 28  1  0
 27 26  2  0
M  END
$$$$
