RDM.pdb
     RDKit          3D

 28 27  0  0  1  0  0  0  0  0999 V2000
   28.8874  -21.7867  -18.1040 N   0  0  0  0  0  0  0  0  0  0  0  0
   27.8971  -22.1762  -17.1621 C   0  0  0  0  0  0  0  0  0  0  0  0
   28.1900  -23.1745  -16.3992 N   0  0  0  0  0  0  0  0  0  0  0  0
   26.6464  -21.5153  -17.0518 N   0  0  0  0  0  0  0  0  0  0  0  0
   26.1547  -20.7365  -18.2067 C   0  0  0  0  0  0  0  0  0  0  0  0
   26.2067  -19.2815  -17.8316 C   0  0  0  0  0  0  0  0  0  0  0  0
   25.6038  -18.9672  -16.5075 C   0  0  0  0  0  0  0  0  0  0  0  0
   24.1098  -18.8168  -16.5008 C   0  0  2  0  0  0  0  0  0  0  0  0
   23.6664  -17.5563  -17.0381 N   0  0  0  0  0  0  0  0  0  0  0  0
   23.5478  -18.9578  -15.1336 C   0  0  0  0  0  0  0  0  0  0  0  0
   23.5511  -17.9982  -14.3599 O   0  0  0  0  0  0  0  0  0  0  0  0
   27.5429  -23.6346  -15.7325 N   0  0  0  0  0  0  0  0  0  0  0  0
   22.9884  -20.1769  -14.6536 C   0  0  2  0  0  0  0  0  0  0  0  0
   22.5980  -20.3904  -13.3047 C   0  0  0  0  0  0  0  0  0  0  0  0
   21.5656  -21.4349  -13.0721 C   0  0  0  0  0  0  0  0  0  0  0  0
   20.9601  -21.2717  -11.7508 O   0  0  0  0  0  0  0  0  0  0  0  0
   21.2511  -20.2689  -11.0161 C   0  0  0  0  0  0  0  0  0  0  0  0
   23.8188  -20.6687  -12.5070 O   0  0  0  0  0  0  0  0  0  0  0  0
   24.6425  -21.5625  -12.8382 O   0  0  0  0  0  0  0  0  0  0  0  0
   20.0497  -22.1617  -11.2012 C   0  0  0  0  0  0  0  0  0  0  0  0
   28.1004  -19.7279   -6.5459 S   0  0  0  0  0  0  0  0  0  0  0  0
   26.8037  -19.3365   -7.7828 C   0  0  0  0  0  0  0  0  0  0  0  0
   25.9001  -20.8552   -8.1348 C   0  0  0  0  0  0  0  0  0  0  0  0
   24.8178  -20.6256   -9.1335 C   0  0  2  0  0  0  0  0  0  0  0  0
   25.2939  -20.2275  -10.4923 N   0  0  0  0  0  0  0  0  0  0  0  0
   24.1271  -19.9415  -11.3236 C   0  0  0  0  0  0  0  0  0  0  0  0
   26.0929  -21.2592  -11.1821 O   0  0  0  0  0  0  0  0  0  0  0  0
   25.6102  -22.3634  -11.5154 O   0  0  0  0  0  0  0  0  0  0  0  0
  2  1  1  0
  3  2  2  0
  4  5  1  0
  4  2  1  0
  6  5  1  0
  7  6  1  0
  8  9  1  1
  8  7  1  0
 10  8  1  0
 11 10  2  0
 12 10  1  0
 13 12  1  0
 13 14  1  6
 15 14  1  0
 16 15  2  0
 17 13  1  0
 17 25  1  0
 18 17  2  0
 19 15  1  0
 21 20  1  0
 22 21  1  0
 24 23  1  1
 23 22  1  0
 24 25  1  0
 24 26  1  0
 26 28  1  0
 27 26  2  0
M  END
$$$$
