RDM.pdb
     RDKit          3D

 28 27  0  0  1  0  0  0  0  0999 V2000
   32.0607  -22.7283   -9.5717 N   0  0  0  0  0  0  0  0  0  0  0  0
   32.4291  -22.1648  -10.8232 C   0  0  0  0  0  0  0  0  0  0  0  0
   33.5607  -22.5435  -11.3138 N   0  0  0  0  0  0  0  0  0  0  0  0
   31.6099  -21.2332  -11.5118 N   0  0  0  0  0  0  0  0  0  0  0  0
   30.1592  -21.4978  -11.5995 C   0  0  0  0  0  0  0  0  0  0  0  0
   29.6660  -20.9132  -12.8939 C   0  0  0  0  0  0  0  0  0  0  0  0
   28.4544  -20.0590  -12.7591 C   0  0  0  0  0  0  0  0  0  0  0  0
   27.1493  -20.7991  -12.7006 C   0  0  2  0  0  0  0  0  0  0  0  0
   27.2142  -22.1071  -13.2999 N   0  0  0  0  0  0  0  0  0  0  0  0
   26.0566  -20.0427  -13.3629 C   0  0  0  0  0  0  0  0  0  0  0  0
   25.7704  -18.9058  -12.9822 O   0  0  0  0  0  0  0  0  0  0  0  0
   34.0033  -22.1653  -12.1717 N   0  0  0  0  0  0  0  0  0  0  0  0
   25.2994  -20.5746  -14.4461 C   0  0  1  0  0  0  0  0  0  0  0  0
   24.0667  -20.0280  -14.8924 C   0  0  0  0  0  0  0  0  0  0  0  0
   23.8553  -19.9868  -16.3637 C   0  0  0  0  0  0  0  0  0  0  0  0
   24.7947  -19.0576  -16.9906 O   0  0  0  0  0  0  0  0  0  0  0  0
   25.1497  -17.9846  -16.3967 C   0  0  0  0  0  0  0  0  0  0  0  0
   22.9640  -20.7616  -14.2216 O   0  0  0  0  0  0  0  0  0  0  0  0
   23.1485  -21.8729  -13.6577 O   0  0  0  0  0  0  0  0  0  0  0  0
   25.3604  -19.2549  -18.2412 C   0  0  0  0  0  0  0  0  0  0  0  0
   19.8846  -21.0100   -7.8032 S   0  0  0  0  0  0  0  0  0  0  0  0
   21.0503  -20.4555   -9.1064 C   0  0  0  0  0  0  0  0  0  0  0  0
   20.2975  -20.8056  -10.7056 C   0  0  0  0  0  0  0  0  0  0  0  0
   21.2014  -20.4244  -11.8279 C   0  0  1  0  0  0  0  0  0  0  0  0
   20.6484  -20.6806  -13.1917 N   0  0  0  0  0  0  0  0  0  0  0  0
   21.6369  -20.2505  -14.1777 C   0  0  0  0  0  0  0  0  0  0  0  0
   19.3888  -19.9673  -13.4801 O   0  0  0  0  0  0  0  0  0  0  0  0
   18.2687  -20.4783  -13.2616 O   0  0  0  0  0  0  0  0  0  0  0  0
  2  1  1  0
  3  2  2  0
  4  5  1  0
  4  2  1  0
  6  5  1  0
  7  6  1  0
  8  9  1  6
  8  7  1  0
 10  8  1  0
 11 10  2  0
 12 10  1  0
 13 12  1  0
 13 14  1  1
 15 14  1  0
 16 15  2  0
 17 13  1  0
 17 25  1  0
 18 17  2  0
 19 15  1  0
 21 20  1  0
 22 21  1  0
 24 23  1  1
 23 22  1  0
 24 25  1  0
 24 26  1  0
 26 28  1  0
 27 26  2  0
M  END
$$$$
