RDM.pdb
     RDKit          3D

 28 27  0  0  1  0  0  0  0  0999 V2000
   26.9719  -23.2869  -15.9566 N   0  0  0  0  0  0  0  0  0  0  0  0
   26.1357  -24.3766  -15.5923 C   0  0  0  0  0  0  0  0  0  0  0  0
   26.7067  -25.5284  -15.4827 N   0  0  0  0  0  0  0  0  0  0  0  0
   24.7444  -24.2264  -15.3579 N   0  0  0  0  0  0  0  0  0  0  0  0
   24.1220  -22.9122  -15.6182 C   0  0  0  0  0  0  0  0  0  0  0  0
   24.4456  -22.0155  -14.4557 C   0  0  0  0  0  0  0  0  0  0  0  0
   23.2534  -21.4716  -13.7498 C   0  0  0  0  0  0  0  0  0  0  0  0
   22.0346  -21.2746  -14.6045 C   0  0  2  0  0  0  0  0  0  0  0  0
   22.0828  -20.0668  -15.3875 N   0  0  0  0  0  0  0  0  0  0  0  0
   20.7911  -21.2483  -13.7934 C   0  0  0  0  0  0  0  0  0  0  0  0
   20.5572  -20.2949  -13.0479 O   0  0  0  0  0  0  0  0  0  0  0  0
   26.2220  -26.4279  -15.3074 N   0  0  0  0  0  0  0  0  0  0  0  0
   19.8254  -22.2949  -13.8314 C   0  0  2  0  0  0  0  0  0  0  0  0
   18.6981  -22.3620  -12.9699 C   0  0  0  0  0  0  0  0  0  0  0  0
   17.3675  -22.1701  -13.6052 C   0  0  0  0  0  0  0  0  0  0  0  0
   16.3285  -22.0284  -12.5857 O   0  0  0  0  0  0  0  0  0  0  0  0
   15.0928  -22.1277  -12.8914 C   0  0  0  0  0  0  0  0  0  0  0  0
   18.7510  -23.6516  -12.2362 O   0  0  0  0  0  0  0  0  0  0  0  0
   19.0970  -24.7248  -12.7981 O   0  0  0  0  0  0  0  0  0  0  0  0
   16.5871  -21.7818  -11.2458 C   0  0  0  0  0  0  0  0  0  0  0  0
   17.1694  -25.0108   -5.7484 S   0  0  0  0  0  0  0  0  0  0  0  0
   18.9658  -25.1433   -6.0951 C   0  0  0  0  0  0  0  0  0  0  0  0
   19.1636  -25.5287   -7.8441 C   0  0  0  0  0  0  0  0  0  0  0  0
   18.2185  -24.7409   -8.6854 C   0  0  2  0  0  0  0  0  0  0  0  0
   18.3015  -25.0214  -10.1503 N   0  0  0  0  0  0  0  0  0  0  0  0
   18.4142  -23.7478  -10.8573 C   0  0  0  0  0  0  0  0  0  0  0  0
   17.1324  -25.7360  -10.6989 O   0  0  0  0  0  0  0  0  0  0  0  0
   16.1985  -25.1394  -11.2781 O   0  0  0  0  0  0  0  0  0  0  0  0
  2  1  1  0
  3  2  2  0
  4  5  1  0
  4  2  1  0
  6  5  1  0
  7  6  1  0
  8  9  1  1
  8  7  1  0
 10  8  1  0
 11 10  2  0
 12 10  1  0
 13 12  1  0
 13 14  1  6
 15 14  1  0
 16 15  2  0
 17 13  1  0
 17 25  1  0
 18 17  2  0
 19 15  1  0
 21 20  1  0
 22 21  1  0
 24 23  1  1
 23 22  1  0
 24 25  1  0
 24 26  1  0
 26 28  1  0
 27 26  2  0
M  END
$$$$
