RDM.pdb
     RDKit          3D

 28 27  0  0  1  0  0  0  0  0999 V2000
   19.1293  -27.6910  -12.7589 N   0  0  0  0  0  0  0  0  0  0  0  0
   20.4607  -28.1434  -12.5531 C   0  0  0  0  0  0  0  0  0  0  0  0
   20.7837  -28.4486  -11.3419 N   0  0  0  0  0  0  0  0  0  0  0  0
   21.3996  -28.2595  -13.6105 N   0  0  0  0  0  0  0  0  0  0  0  0
   22.0204  -27.0290  -14.1423 C   0  0  0  0  0  0  0  0  0  0  0  0
   22.2489  -27.2323  -15.6143 C   0  0  0  0  0  0  0  0  0  0  0  0
   21.0291  -27.6130  -16.3778 C   0  0  0  0  0  0  0  0  0  0  0  0
   20.5639  -26.6062  -17.3899 C   0  0  2  0  0  0  0  0  0  0  0  0
   21.6019  -26.2015  -18.3026 N   0  0  0  0  0  0  0  0  0  0  0  0
   20.0181  -25.3862  -16.7430 C   0  0  0  0  0  0  0  0  0  0  0  0
   20.4508  -24.2741  -17.0520 O   0  0  0  0  0  0  0  0  0  0  0  0
   21.7078  -28.8052  -11.0355 N   0  0  0  0  0  0  0  0  0  0  0  0
   18.9914  -25.4322  -15.7565 C   0  0  2  0  0  0  0  0  0  0  0  0
   18.3059  -24.2851  -15.2749 C   0  0  0  0  0  0  0  0  0  0  0  0
   16.9456  -24.5121  -14.7190 C   0  0  0  0  0  0  0  0  0  0  0  0
   16.3192  -23.2397  -14.3616 O   0  0  0  0  0  0  0  0  0  0  0  0
   16.7187  -22.1440  -14.8812 C   0  0  0  0  0  0  0  0  0  0  0  0
   19.1759  -23.6084  -14.2802 O   0  0  0  0  0  0  0  0  0  0  0  0
   19.7362  -24.2401  -13.3452 O   0  0  0  0  0  0  0  0  0  0  0  0
   15.2741  -23.1181  -13.4584 C   0  0  0  0  0  0  0  0  0  0  0  0
   25.9852  -21.6064  -13.4095 S   0  0  0  0  0  0  0  0  0  0  0  0
   24.5257  -22.4356  -14.1489 C   0  0  0  0  0  0  0  0  0  0  0  0
   23.0476  -21.6653  -13.4645 C   0  0  0  0  0  0  0  0  0  0  0  0
   21.8093  -22.2189  -14.0825 C   0  0  1  0  0  0  0  0  0  0  0  0
   20.5409  -21.5731  -13.6292 N   0  0  0  0  0  0  0  0  0  0  0  0
   19.4257  -22.2086  -14.3271 C   0  0  0  0  0  0  0  0  0  0  0  0
   20.4684  -20.1234  -13.8963 O   0  0  0  0  0  0  0  0  0  0  0  0
   19.9496  -19.6627  -14.9366 O   0  0  0  0  0  0  0  0  0  0  0  0
  2  1  1  0
  3  2  2  0
  4  5  1  0
  4  2  1  0
  6  5  1  0
  7  6  1  0
  8  9  1  6
  8  7  1  0
 10  8  1  0
 11 10  2  0
 12 10  1  0
 13 12  1  0
 13 14  1  1
 15 14  1  0
 16 15  2  0
 17 13  1  0
 17 25  1  0
 18 17  2  0
 19 15  1  0
 21 20  1  0
 22 21  1  0
 24 23  1  1
 23 22  1  0
 24 25  1  0
 24 26  1  0
 26 28  1  0
 27 26  2  0
M  END
$$$$
