KMP.pdb
     RDKit          3D

 25 25  0  0  1  0  0  0  0  0999 V2000
    8.0655  -16.8804   21.0023 N   0  0  0  0  0  0  0  0  0  0  0  0
    9.3659  -16.2832   21.1299 C   0  0  1  0  0  0  0  0  0  0  0  0
    9.7010  -15.6197   19.8099 C   0  0  0  0  0  0  0  0  0  0  0  0
    9.3514  -16.5883   18.7216 C   0  0  0  0  0  0  0  0  0  0  0  0
    9.6116  -16.0465   17.3396 C   0  0  0  0  0  0  0  0  0  0  0  0
    9.1705  -17.1443   16.3610 C   0  0  0  0  0  0  0  0  0  0  0  0
    7.7597  -17.0003   16.0463 N   0  0  0  0  0  0  0  0  0  0  0  0
    9.4614  -15.3559   22.2738 C   0  0  0  0  0  0  0  0  0  0  0  0
   10.0251  -14.2548   22.0754 O   0  0  0  0  0  0  0  0  0  0  0  0
    5.8828  -12.8907   26.8546 C   0  0  0  0  0  0  0  0  0  0  0  0
    6.1632  -12.2095   25.2103 S   0  0  0  0  0  0  0  0  0  0  0  0
    7.1120  -13.4679   24.2494 C   0  0  0  0  0  0  0  0  0  0  0  0
    7.8170  -14.3769   25.1888 C   0  0  0  0  0  0  0  0  0  0  0  0
    9.1427  -14.9149   24.7600 C   0  0  2  0  0  0  0  0  0  0  0  0
    8.9308  -15.7218   23.5259 N   0  0  0  0  0  0  0  0  0  0  0  0
    9.8537  -15.7750   25.7043 C   0  0  0  0  0  0  0  0  0  0  0  0
   10.4032  -16.8625   25.2918 O   0  0  0  0  0  0  0  0  0  0  0  0
   10.0201  -15.5302   27.0883 N   0  0  0  0  0  0  0  0  0  0  0  0
    9.3429  -14.5763   27.9115 C   0  0  0  0  0  0  0  0  0  0  0  0
   10.4709  -13.9970   28.7755 C   0  0  0  0  0  0  0  0  0  0  0  0
   11.5547  -15.0410   28.7625 C   0  0  0  0  0  0  0  0  0  0  0  0
   10.9483  -16.2083   28.0066 C   0  0  1  0  0  0  0  0  0  0  0  0
   10.2440  -17.1401   28.9074 C   0  0  0  0  0  0  0  0  0  0  0  0
    9.0023  -17.1967   28.8634 O   0  0  0  0  0  0  0  0  0  0  0  0
   10.9219  -17.9514   29.7982 O   0  0  0  0  0  0  0  0  0  0  0  0
  2  1  1  6
  2  8  1  0
  2  3  1  0
  4  3  1  0
  4  5  1  0
  6  5  1  0
  6  7  1  0
  8  9  2  0
 10 11  1  0
 11 12  1  0
 13 12  1  0
 14 13  1  1
 15 14  1  0
 15  8  1  0
 16 14  1  0
 16 17  2  0
 18 16  1  0
 19 18  1  0
 20 19  1  0
 21 20  1  0
 21 22  1  0
 22 18  1  0
 22 23  1  1
 23 25  1  0
 24 23  2  0
M  END
$$$$
