KMP.pdb
     RDKit          3D

 25 25  0  0  1  0  0  0  0  0999 V2000
    5.2777  -19.8585   24.0866 N   0  0  0  0  0  0  0  0  0  0  0  0
    6.4344  -19.0117   24.1809 C   0  0  1  0  0  0  0  0  0  0  0  0
    7.5465  -19.6583   23.3808 C   0  0  0  0  0  0  0  0  0  0  0  0
    7.1293  -21.0686   23.0948 C   0  0  0  0  0  0  0  0  0  0  0  0
    8.1569  -21.8435   22.3107 C   0  0  0  0  0  0  0  0  0  0  0  0
    7.5540  -23.2358   22.0764 C   0  0  0  0  0  0  0  0  0  0  0  0
    8.4803  -24.0651   21.3251 N   0  0  0  0  0  0  0  0  0  0  0  0
    6.1643  -17.6230   23.7615 C   0  0  0  0  0  0  0  0  0  0  0  0
    5.3246  -17.4516   22.8477 O   0  0  0  0  0  0  0  0  0  0  0  0
    8.7413  -13.0022   27.2538 C   0  0  0  0  0  0  0  0  0  0  0  0
    6.9993  -12.6157   27.0039 S   0  0  0  0  0  0  0  0  0  0  0  0
    6.3144  -13.8874   25.8547 C   0  0  0  0  0  0  0  0  0  0  0  0
    7.3413  -14.2406   24.8415 C   0  0  0  0  0  0  0  0  0  0  0  0
    6.9460  -15.2010   23.7681 C   0  0  2  0  0  0  0  0  0  0  0  0
    6.8388  -16.5538   24.3822 N   0  0  0  0  0  0  0  0  0  0  0  0
    7.8448  -15.3324   22.6226 C   0  0  0  0  0  0  0  0  0  0  0  0
    8.4503  -16.4468   22.4080 O   0  0  0  0  0  0  0  0  0  0  0  0
    8.1324  -14.3240   21.6722 N   0  0  0  0  0  0  0  0  0  0  0  0
    7.7947  -12.9347   21.7181 C   0  0  0  0  0  0  0  0  0  0  0  0
    7.3308  -12.6402   20.2855 C   0  0  0  0  0  0  0  0  0  0  0  0
    7.9616  -13.7116   19.4376 C   0  0  0  0  0  0  0  0  0  0  0  0
    8.8496  -14.4813   20.3972 C   0  0  1  0  0  0  0  0  0  0  0  0
   10.2102  -13.9154   20.4610 C   0  0  0  0  0  0  0  0  0  0  0  0
   10.9509  -14.0155   19.4668 O   0  0  0  0  0  0  0  0  0  0  0  0
   10.6865  -13.2780   21.5915 O   0  0  0  0  0  0  0  0  0  0  0  0
  2  1  1  6
  2  8  1  0
  2  3  1  0
  4  3  1  0
  4  5  1  0
  6  5  1  0
  6  7  1  0
  8  9  2  0
 10 11  1  0
 11 12  1  0
 13 12  1  0
 14 13  1  1
 15 14  1  0
 15  8  1  0
 16 14  1  0
 16 17  2  0
 18 16  1  0
 19 18  1  0
 20 19  1  0
 21 20  1  0
 21 22  1  0
 22 18  1  0
 22 23  1  1
 23 25  1  0
 24 23  2  0
M  END
$$$$
