KMP.pdb
     RDKit          3D

 25 25  0  0  1  0  0  0  0  0999 V2000
    4.9062  -19.5318   23.7838 N   0  0  0  0  0  0  0  0  0  0  0  0
    6.2007  -18.9111   23.8382 C   0  0  1  0  0  0  0  0  0  0  0  0
    7.1428  -19.7319   22.9817 C   0  0  0  0  0  0  0  0  0  0  0  0
    7.3424  -21.0470   23.6712 C   0  0  0  0  0  0  0  0  0  0  0  0
    8.3398  -20.9799   24.7990 C   0  0  0  0  0  0  0  0  0  0  0  0
    8.4467  -22.4052   25.3595 C   0  0  0  0  0  0  0  0  0  0  0  0
    9.4631  -22.4632   26.3957 N   0  0  0  0  0  0  0  0  0  0  0  0
    6.1713  -17.4880   23.4493 C   0  0  0  0  0  0  0  0  0  0  0  0
    5.4543  -17.1743   22.4710 O   0  0  0  0  0  0  0  0  0  0  0  0
    6.0947  -11.5505   27.4905 C   0  0  0  0  0  0  0  0  0  0  0  0
    7.4285  -12.5301   26.7776 S   0  0  0  0  0  0  0  0  0  0  0  0
    6.6601  -13.7363   25.6107 C   0  0  0  0  0  0  0  0  0  0  0  0
    7.7172  -14.3434   24.7622 C   0  0  0  0  0  0  0  0  0  0  0  0
    7.2753  -15.2014   23.6224 C   0  0  2  0  0  0  0  0  0  0  0  0
    6.9292  -16.5435   24.1682 N   0  0  0  0  0  0  0  0  0  0  0  0
    8.2336  -15.4248   22.5412 C   0  0  0  0  0  0  0  0  0  0  0  0
    8.7660  -16.5855   22.3867 O   0  0  0  0  0  0  0  0  0  0  0  0
    8.6570  -14.4621   21.5942 N   0  0  0  0  0  0  0  0  0  0  0  0
    8.4283  -13.0500   21.5967 C   0  0  0  0  0  0  0  0  0  0  0  0
    8.0764  -12.7503   20.1335 C   0  0  0  0  0  0  0  0  0  0  0  0
    8.6702  -13.8853   19.3437 C   0  0  0  0  0  0  0  0  0  0  0  0
    9.4349  -14.7018   20.3685 C   0  0  1  0  0  0  0  0  0  0  0  0
   10.8298  -14.2427   20.5070 C   0  0  0  0  0  0  0  0  0  0  0  0
   11.1477  -13.5771   21.5086 O   0  0  0  0  0  0  0  0  0  0  0  0
   11.7934  -14.5295   19.5581 O   0  0  0  0  0  0  0  0  0  0  0  0
  2  1  1  6
  2  8  1  0
  2  3  1  0
  4  3  1  0
  4  5  1  0
  6  5  1  0
  6  7  1  0
  8  9  2  0
 10 11  1  0
 11 12  1  0
 13 12  1  0
 14 13  1  1
 15 14  1  0
 15  8  1  0
 16 14  1  0
 16 17  2  0
 18 16  1  0
 19 18  1  0
 20 19  1  0
 21 20  1  0
 21 22  1  0
 22 18  1  0
 22 23  1  1
 23 25  1  0
 24 23  2  0
M  END
$$$$
