KMP.pdb
     RDKit          3D

 25 25  0  0  1  0  0  0  0  0999 V2000
    5.6431  -19.9245   24.2171 N   0  0  0  0  0  0  0  0  0  0  0  0
    6.7742  -19.0432   24.3075 C   0  0  1  0  0  0  0  0  0  0  0  0
    7.9109  -19.6691   23.5257 C   0  0  0  0  0  0  0  0  0  0  0  0
    8.6004  -20.6373   24.4377 C   0  0  0  0  0  0  0  0  0  0  0  0
    8.7794  -22.0031   23.8264 C   0  0  0  0  0  0  0  0  0  0  0  0
    9.5462  -22.8372   24.8626 C   0  0  0  0  0  0  0  0  0  0  0  0
    9.6166  -24.2249   24.4387 N   0  0  0  0  0  0  0  0  0  0  0  0
    6.4675  -17.6692   23.8653 C   0  0  0  0  0  0  0  0  0  0  0  0
    5.6354  -17.5362   22.9382 O   0  0  0  0  0  0  0  0  0  0  0  0
    6.4477  -11.2223   26.8263 C   0  0  0  0  0  0  0  0  0  0  0  0
    7.2162  -12.8019   27.2274 S   0  0  0  0  0  0  0  0  0  0  0  0
    6.5502  -14.0523   26.0441 C   0  0  0  0  0  0  0  0  0  0  0  0
    7.5142  -14.2390   24.9297 C   0  0  0  0  0  0  0  0  0  0  0  0
    7.1489  -15.2171   23.8617 C   0  0  2  0  0  0  0  0  0  0  0  0
    7.1006  -16.5716   24.4797 N   0  0  0  0  0  0  0  0  0  0  0  0
    8.0431  -15.3156   22.7094 C   0  0  0  0  0  0  0  0  0  0  0  0
    8.6946  -16.4040   22.4952 O   0  0  0  0  0  0  0  0  0  0  0  0
    8.2791  -14.3007   21.7516 N   0  0  0  0  0  0  0  0  0  0  0  0
    7.9036  -12.9215   21.8049 C   0  0  0  0  0  0  0  0  0  0  0  0
    7.3968  -12.6419   20.3838 C   0  0  0  0  0  0  0  0  0  0  0  0
    8.0366  -13.6964   19.5215 C   0  0  0  0  0  0  0  0  0  0  0  0
    8.9691  -14.4396   20.4596 C   0  0  1  0  0  0  0  0  0  0  0  0
   10.3144  -13.8355   20.4898 C   0  0  0  0  0  0  0  0  0  0  0  0
   10.6330  -13.1241   21.4591 O   0  0  0  0  0  0  0  0  0  0  0  0
   11.2307  -14.0359   19.4742 O   0  0  0  0  0  0  0  0  0  0  0  0
  2  1  1  6
  2  8  1  0
  2  3  1  0
  4  3  1  0
  4  5  1  0
  6  5  1  0
  6  7  1  0
  8  9  2  0
 10 11  1  0
 11 12  1  0
 13 12  1  0
 14 13  1  1
 15 14  1  0
 15  8  1  0
 16 14  1  0
 16 17  2  0
 18 16  1  0
 19 18  1  0
 20 19  1  0
 21 20  1  0
 21 22  1  0
 22 18  1  0
 22 23  1  1
 23 25  1  0
 24 23  2  0
M  END
$$$$
