KMP.pdb
     RDKit          3D

 25 25  0  0  1  0  0  0  0  0999 V2000
    8.4240  -16.1815   19.1869 N   0  0  0  0  0  0  0  0  0  0  0  0
    7.7192  -16.3071   20.4324 C   0  0  1  0  0  0  0  0  0  0  0  0
    7.2387  -17.7391   20.5489 C   0  0  0  0  0  0  0  0  0  0  0  0
    6.3948  -18.0264   19.3447 C   0  0  0  0  0  0  0  0  0  0  0  0
    5.7784  -19.4015   19.3671 C   0  0  0  0  0  0  0  0  0  0  0  0
    5.0232  -19.5522   18.0388 C   0  0  0  0  0  0  0  0  0  0  0  0
    4.2864  -20.8040   18.0184 N   0  0  0  0  0  0  0  0  0  0  0  0
    8.5247  -15.8806   21.5929 C   0  0  0  0  0  0  0  0  0  0  0  0
    9.7486  -16.1473   21.5721 O   0  0  0  0  0  0  0  0  0  0  0  0
    5.5387  -12.5847   26.5726 C   0  0  0  0  0  0  0  0  0  0  0  0
    7.2367  -11.9820   26.5676 S   0  0  0  0  0  0  0  0  0  0  0  0
    8.3054  -13.3575   25.9568 C   0  0  0  0  0  0  0  0  0  0  0  0
    7.8591  -13.7633   24.5996 C   0  0  0  0  0  0  0  0  0  0  0  0
    8.6491  -14.8234   23.9046 C   0  0  2  0  0  0  0  0  0  0  0  0
    7.9142  -15.2025   22.6656 N   0  0  0  0  0  0  0  0  0  0  0  0
    8.8976  -16.0630   24.6386 C   0  0  0  0  0  0  0  0  0  0  0  0
    7.9959  -16.9798   24.6715 O   0  0  0  0  0  0  0  0  0  0  0  0
   10.0798  -16.3870   25.3460 N   0  0  0  0  0  0  0  0  0  0  0  0
   11.2553  -15.5922   25.5269 C   0  0  0  0  0  0  0  0  0  0  0  0
   12.3938  -16.5996   25.3189 C   0  0  0  0  0  0  0  0  0  0  0  0
   11.7831  -17.9480   25.5902 C   0  0  0  0  0  0  0  0  0  0  0  0
   10.3743  -17.6388   26.0608 C   0  0  1  0  0  0  0  0  0  0  0  0
   10.3098  -17.4619   27.5238 C   0  0  0  0  0  0  0  0  0  0  0  0
   10.4981  -18.4481   28.2581 O   0  0  0  0  0  0  0  0  0  0  0  0
   10.0466  -16.2344   28.1026 O   0  0  0  0  0  0  0  0  0  0  0  0
  2  1  1  6
  2  8  1  0
  2  3  1  0
  4  3  1  0
  4  5  1  0
  6  5  1  0
  6  7  1  0
  8  9  2  0
 10 11  1  0
 11 12  1  0
 13 12  1  0
 14 13  1  1
 15 14  1  0
 15  8  1  0
 16 14  1  0
 16 17  2  0
 18 16  1  0
 19 18  1  0
 20 19  1  0
 21 20  1  0
 21 22  1  0
 22 18  1  0
 22 23  1  1
 23 25  1  0
 24 23  2  0
M  END
$$$$
