KMP.pdb
     RDKit          3D

 25 25  0  0  1  0  0  0  0  0999 V2000
    7.8380  -12.7943   18.8679 N   0  0  0  0  0  0  0  0  0  0  0  0
    7.2187  -13.7034   19.7919 C   0  0  1  0  0  0  0  0  0  0  0  0
    7.0704  -15.0404   19.0951 C   0  0  0  0  0  0  0  0  0  0  0  0
    7.6044  -14.8810   17.7043 C   0  0  0  0  0  0  0  0  0  0  0  0
    8.5172  -16.0052   17.2872 C   0  0  0  0  0  0  0  0  0  0  0  0
    7.6273  -17.0374   16.5801 C   0  0  0  0  0  0  0  0  0  0  0  0
    8.4038  -18.2133   16.2274 N   0  0  0  0  0  0  0  0  0  0  0  0
    7.9469  -13.8057   21.0712 C   0  0  0  0  0  0  0  0  0  0  0  0
    9.1975  -13.7444   21.0271 O   0  0  0  0  0  0  0  0  0  0  0  0
    7.1210  -11.1998   27.6785 C   0  0  0  0  0  0  0  0  0  0  0  0
    6.2339  -12.6589   27.1037 S   0  0  0  0  0  0  0  0  0  0  0  0
    7.3970  -13.6275   26.0472 C   0  0  0  0  0  0  0  0  0  0  0  0
    7.0629  -13.4079   24.6167 C   0  0  0  0  0  0  0  0  0  0  0  0
    7.9108  -14.0981   23.5992 C   0  0  2  0  0  0  0  0  0  0  0  0
    7.2373  -13.9651   22.2772 N   0  0  0  0  0  0  0  0  0  0  0  0
    8.1663  -15.5239   23.7960 C   0  0  0  0  0  0  0  0  0  0  0  0
    7.3294  -16.3925   23.3490 O   0  0  0  0  0  0  0  0  0  0  0  0
    9.2899  -16.0843   24.4491 N   0  0  0  0  0  0  0  0  0  0  0  0
   10.4157  -15.4109   25.0196 C   0  0  0  0  0  0  0  0  0  0  0  0
   11.6028  -16.2739   24.5721 C   0  0  0  0  0  0  0  0  0  0  0  0
   11.0173  -17.6280   24.2748 C   0  0  0  0  0  0  0  0  0  0  0  0
    9.5617  -17.5108   24.6860 C   0  0  1  0  0  0  0  0  0  0  0  0
    9.3585  -17.8793   26.0997 C   0  0  0  0  0  0  0  0  0  0  0  0
    9.5212  -19.0639   26.4422 O   0  0  0  0  0  0  0  0  0  0  0  0
    8.9928  -16.9486   27.0543 O   0  0  0  0  0  0  0  0  0  0  0  0
  2  1  1  6
  2  8  1  0
  2  3  1  0
  4  3  1  0
  4  5  1  0
  6  5  1  0
  6  7  1  0
  8  9  2  0
 10 11  1  0
 11 12  1  0
 13 12  1  0
 14 13  1  1
 15 14  1  0
 15  8  1  0
 16 14  1  0
 16 17  2  0
 18 16  1  0
 19 18  1  0
 20 19  1  0
 21 20  1  0
 21 22  1  0
 22 18  1  0
 22 23  1  1
 23 25  1  0
 24 23  2  0
M  END
$$$$
