KMP.pdb
     RDKit          3D

 25 25  0  0  1  0  0  0  0  0999 V2000
    9.7135  -16.0146   20.4484 N   0  0  0  0  0  0  0  0  0  0  0  0
    8.9108  -16.3747   21.5842 C   0  0  1  0  0  0  0  0  0  0  0  0
    9.0252  -17.8732   21.7742 C   0  0  0  0  0  0  0  0  0  0  0  0
    9.3018  -18.4742   20.4299 C   0  0  0  0  0  0  0  0  0  0  0  0
    9.4322  -19.9751   20.4669 C   0  0  0  0  0  0  0  0  0  0  0  0
    8.0096  -20.5227   20.6499 C   0  0  0  0  0  0  0  0  0  0  0  0
    8.0162  -21.9736   20.5790 N   0  0  0  0  0  0  0  0  0  0  0  0
    9.2654  -15.6177   22.8003 C   0  0  0  0  0  0  0  0  0  0  0  0
   10.4573  -15.2514   22.9220 O   0  0  0  0  0  0  0  0  0  0  0  0
    6.1578  -11.8348   27.4877 C   0  0  0  0  0  0  0  0  0  0  0  0
    5.4990  -12.0670   25.8268 S   0  0  0  0  0  0  0  0  0  0  0  0
    6.8091  -12.8999   24.8283 C   0  0  0  0  0  0  0  0  0  0  0  0
    7.3459  -14.0582   25.5872 C   0  0  0  0  0  0  0  0  0  0  0  0
    8.5964  -14.6950   25.0758 C   0  0  2  0  0  0  0  0  0  0  0  0
    8.2819  -15.3335   23.7673 N   0  0  0  0  0  0  0  0  0  0  0  0
    9.2104  -15.7284   25.9078 C   0  0  0  0  0  0  0  0  0  0  0  0
    9.2834  -16.9382   25.4770 O   0  0  0  0  0  0  0  0  0  0  0  0
    9.7676  -15.5367   27.1946 N   0  0  0  0  0  0  0  0  0  0  0  0
    9.4440  -14.5369   28.1651 C   0  0  0  0  0  0  0  0  0  0  0  0
   10.8185  -14.1019   28.6905 C   0  0  0  0  0  0  0  0  0  0  0  0
   11.7389  -15.2543   28.3912 C   0  0  0  0  0  0  0  0  0  0  0  0
   10.8288  -16.3318   27.8323 C   0  0  1  0  0  0  0  0  0  0  0  0
   10.2950  -17.2055   28.8941 C   0  0  0  0  0  0  0  0  0  0  0  0
    9.0799  -17.1608   29.1561 O   0  0  0  0  0  0  0  0  0  0  0  0
   11.1038  -18.0715   29.6061 O   0  0  0  0  0  0  0  0  0  0  0  0
  2  1  1  6
  2  8  1  0
  2  3  1  0
  4  3  1  0
  4  5  1  0
  6  5  1  0
  6  7  1  0
  8  9  2  0
 10 11  1  0
 11 12  1  0
 13 12  1  0
 14 13  1  1
 15 14  1  0
 15  8  1  0
 16 14  1  0
 16 17  2  0
 18 16  1  0
 19 18  1  0
 20 19  1  0
 21 20  1  0
 21 22  1  0
 22 18  1  0
 22 23  1  1
 23 25  1  0
 24 23  2  0
M  END
$$$$
