KMP.pdb
     RDKit          3D

 25 25  0  0  1  0  0  0  0  0999 V2000
    4.8446  -19.8826   23.8610 N   0  0  0  0  0  0  0  0  0  0  0  0
    6.1210  -19.2772   23.5995 C   0  0  1  0  0  0  0  0  0  0  0  0
    6.7295  -19.9806   22.4038 C   0  0  0  0  0  0  0  0  0  0  0  0
    8.1865  -20.1749   22.6936 C   0  0  0  0  0  0  0  0  0  0  0  0
    8.9365  -20.8196   21.5564 C   0  0  0  0  0  0  0  0  0  0  0  0
   10.3988  -20.9212   22.0129 C   0  0  0  0  0  0  0  0  0  0  0  0
   11.1897  -21.6209   21.0153 N   0  0  0  0  0  0  0  0  0  0  0  0
    6.0359  -17.8153   23.4176 C   0  0  0  0  0  0  0  0  0  0  0  0
    5.2450  -17.3899   22.5440 O   0  0  0  0  0  0  0  0  0  0  0  0
    6.0053  -11.8074   27.0808 C   0  0  0  0  0  0  0  0  0  0  0  0
    7.5893  -12.6033   26.7586 S   0  0  0  0  0  0  0  0  0  0  0  0
    7.5078  -13.3200   25.0595 C   0  0  0  0  0  0  0  0  0  0  0  0
    7.2486  -14.7795   25.1519 C   0  0  0  0  0  0  0  0  0  0  0  0
    7.0449  -15.5236   23.8730 C   0  0  2  0  0  0  0  0  0  0  0  0
    6.8243  -16.9579   24.2091 N   0  0  0  0  0  0  0  0  0  0  0  0
    8.1315  -15.4861   22.8958 C   0  0  0  0  0  0  0  0  0  0  0  0
    8.9258  -16.4915   22.7820 O   0  0  0  0  0  0  0  0  0  0  0  0
    8.4178  -14.4183   22.0122 N   0  0  0  0  0  0  0  0  0  0  0  0
    7.9549  -13.0660   22.0702 C   0  0  0  0  0  0  0  0  0  0  0  0
    7.6058  -12.7530   20.6092 C   0  0  0  0  0  0  0  0  0  0  0  0
    8.4075  -13.7307   19.7930 C   0  0  0  0  0  0  0  0  0  0  0  0
    9.2647  -14.4609   20.8098 C   0  0  1  0  0  0  0  0  0  0  0  0
   10.5572  -13.7840   21.0264 C   0  0  0  0  0  0  0  0  0  0  0  0
   10.7291  -13.1362   22.0743 O   0  0  0  0  0  0  0  0  0  0  0  0
   11.5820  -13.8477   20.1008 O   0  0  0  0  0  0  0  0  0  0  0  0
  2  1  1  6
  2  8  1  0
  2  3  1  0
  4  3  1  0
  4  5  1  0
  6  5  1  0
  6  7  1  0
  8  9  2  0
 10 11  1  0
 11 12  1  0
 13 12  1  0
 14 13  1  1
 15 14  1  0
 15  8  1  0
 16 14  1  0
 16 17  2  0
 18 16  1  0
 19 18  1  0
 20 19  1  0
 21 20  1  0
 21 22  1  0
 22 18  1  0
 22 23  1  1
 23 25  1  0
 24 23  2  0
M  END
$$$$
