KMP.pdb
     RDKit          3D

 25 25  0  0  1  0  0  0  0  0999 V2000
    9.1806  -15.7201   20.2014 N   0  0  0  0  0  0  0  0  0  0  0  0
    8.9117  -16.3445   21.4670 C   0  0  1  0  0  0  0  0  0  0  0  0
    9.6139  -17.6868   21.4782 C   0  0  0  0  0  0  0  0  0  0  0  0
    9.4767  -18.2743   20.1067 C   0  0  0  0  0  0  0  0  0  0  0  0
   10.1184  -19.6316   19.9762 C   0  0  0  0  0  0  0  0  0  0  0  0
    9.9220  -20.0575   18.5142 C   0  0  0  0  0  0  0  0  0  0  0  0
   10.5838  -21.3268   18.2670 N   0  0  0  0  0  0  0  0  0  0  0  0
    9.2852  -15.4969   22.6157 C   0  0  0  0  0  0  0  0  0  0  0  0
   10.3441  -14.8341   22.5204 O   0  0  0  0  0  0  0  0  0  0  0  0
    6.3083  -11.2306   27.0034 C   0  0  0  0  0  0  0  0  0  0  0  0
    5.5083  -12.4224   25.9144 S   0  0  0  0  0  0  0  0  0  0  0  0
    6.8196  -13.1471   24.8363 C   0  0  0  0  0  0  0  0  0  0  0  0
    7.5712  -14.1768   25.5984 C   0  0  0  0  0  0  0  0  0  0  0  0
    8.8309  -14.6994   24.9894 C   0  0  2  0  0  0  0  0  0  0  0  0
    8.4643  -15.4550   23.7591 N   0  0  0  0  0  0  0  0  0  0  0  0
    9.6460  -15.5986   25.8044 C   0  0  0  0  0  0  0  0  0  0  0  0
   10.1487  -16.6601   25.2796 O   0  0  0  0  0  0  0  0  0  0  0  0
    9.9660  -15.4204   27.1714 N   0  0  0  0  0  0  0  0  0  0  0  0
    9.4583  -14.4435   28.0847 C   0  0  0  0  0  0  0  0  0  0  0  0
   10.7110  -13.9948   28.8487 C   0  0  0  0  0  0  0  0  0  0  0  0
   11.6920  -15.1260   28.6984 C   0  0  0  0  0  0  0  0  0  0  0  0
   10.9148  -16.2087   27.9734 C   0  0  1  0  0  0  0  0  0  0  0  0
   10.2211  -17.1099   28.9126 C   0  0  0  0  0  0  0  0  0  0  0  0
    9.6023  -18.0896   28.4606 O   0  0  0  0  0  0  0  0  0  0  0  0
   10.2379  -16.8985   30.2787 O   0  0  0  0  0  0  0  0  0  0  0  0
  2  1  1  6
  2  8  1  0
  2  3  1  0
  4  3  1  0
  4  5  1  0
  6  5  1  0
  6  7  1  0
  8  9  2  0
 10 11  1  0
 11 12  1  0
 13 12  1  0
 14 13  1  1
 15 14  1  0
 15  8  1  0
 16 14  1  0
 16 17  2  0
 18 16  1  0
 19 18  1  0
 20 19  1  0
 21 20  1  0
 21 22  1  0
 22 18  1  0
 22 23  1  1
 23 25  1  0
 24 23  2  0
M  END
$$$$
