KMP.pdb
     RDKit          3D

 25 25  0  0  1  0  0  0  0  0999 V2000
    4.7617  -20.0911   23.5504 N   0  0  0  0  0  0  0  0  0  0  0  0
    5.9475  -19.3945   23.9659 C   0  0  1  0  0  0  0  0  0  0  0  0
    7.1392  -20.1143   23.3687 C   0  0  0  0  0  0  0  0  0  0  0  0
    7.2064  -21.4698   24.0034 C   0  0  0  0  0  0  0  0  0  0  0  0
    8.3344  -22.3173   23.4737 C   0  0  0  0  0  0  0  0  0  0  0  0
    8.1974  -23.6853   24.1570 C   0  0  0  0  0  0  0  0  0  0  0  0
    9.2588  -24.5750   23.7185 N   0  0  0  0  0  0  0  0  0  0  0  0
    5.9191  -17.9593   23.6239 C   0  0  0  0  0  0  0  0  0  0  0  0
    5.4028  -17.6398   22.5280 O   0  0  0  0  0  0  0  0  0  0  0  0
    5.8375  -11.5081   26.9905 C   0  0  0  0  0  0  0  0  0  0  0  0
    7.2974  -12.5560   26.8591 S   0  0  0  0  0  0  0  0  0  0  0  0
    7.2489  -13.3590   25.1978 C   0  0  0  0  0  0  0  0  0  0  0  0
    6.9346  -14.8018   25.3565 C   0  0  0  0  0  0  0  0  0  0  0  0
    6.7668  -15.6097   24.1115 C   0  0  2  0  0  0  0  0  0  0  0  0
    6.4582  -17.0103   24.5139 N   0  0  0  0  0  0  0  0  0  0  0  0
    7.9070  -15.6789   23.1993 C   0  0  0  0  0  0  0  0  0  0  0  0
    8.6562  -16.7246   23.1884 O   0  0  0  0  0  0  0  0  0  0  0  0
    8.2945  -14.6786   22.2761 N   0  0  0  0  0  0  0  0  0  0  0  0
    7.9133  -13.3003   22.2446 C   0  0  0  0  0  0  0  0  0  0  0  0
    7.6446  -13.0458   20.7555 C   0  0  0  0  0  0  0  0  0  0  0  0
    8.4181  -14.1112   20.0266 C   0  0  0  0  0  0  0  0  0  0  0  0
    9.1862  -14.8353   21.1163 C   0  0  1  0  0  0  0  0  0  0  0  0
   10.5076  -14.2253   21.3555 C   0  0  0  0  0  0  0  0  0  0  0  0
   10.6913  -13.5783   22.4018 O   0  0  0  0  0  0  0  0  0  0  0  0
   11.5469  -14.3507   20.4525 O   0  0  0  0  0  0  0  0  0  0  0  0
  2  1  1  6
  2  8  1  0
  2  3  1  0
  4  3  1  0
  4  5  1  0
  6  5  1  0
  6  7  1  0
  8  9  2  0
 10 11  1  0
 11 12  1  0
 13 12  1  0
 14 13  1  1
 15 14  1  0
 15  8  1  0
 16 14  1  0
 16 17  2  0
 18 16  1  0
 19 18  1  0
 20 19  1  0
 21 20  1  0
 21 22  1  0
 22 18  1  0
 22 23  1  1
 23 25  1  0
 24 23  2  0
M  END
$$$$
