KMP.pdb
     RDKit          3D

 25 25  0  0  1  0  0  0  0  0999 V2000
    8.8499  -17.8919   21.4479 N   0  0  0  0  0  0  0  0  0  0  0  0
   10.0462  -17.0966   21.4655 C   0  0  1  0  0  0  0  0  0  0  0  0
   10.2232  -16.4980   20.0852 C   0  0  0  0  0  0  0  0  0  0  0  0
   10.5189  -17.6255   19.1438 C   0  0  0  0  0  0  0  0  0  0  0  0
   11.9920  -17.8127   18.8870 C   0  0  0  0  0  0  0  0  0  0  0  0
   12.1074  -18.9794   17.8956 C   0  0  0  0  0  0  0  0  0  0  0  0
   13.5024  -19.3294   17.6910 N   0  0  0  0  0  0  0  0  0  0  0  0
   10.0414  -16.0769   22.5321 C   0  0  0  0  0  0  0  0  0  0  0  0
   11.1065  -15.4476   22.7302 O   0  0  0  0  0  0  0  0  0  0  0  0
    6.0132  -11.6345   27.4525 C   0  0  0  0  0  0  0  0  0  0  0  0
    6.2337  -12.4062   25.8393 S   0  0  0  0  0  0  0  0  0  0  0  0
    7.1646  -13.9777   26.1053 C   0  0  0  0  0  0  0  0  0  0  0  0
    7.4573  -14.6058   24.7916 C   0  0  0  0  0  0  0  0  0  0  0  0
    8.8627  -15.0421   24.5363 C   0  0  2  0  0  0  0  0  0  0  0  0
    8.8715  -15.8427   23.2802 N   0  0  0  0  0  0  0  0  0  0  0  0
    9.5053  -15.8643   25.5601 C   0  0  0  0  0  0  0  0  0  0  0  0
    9.7613  -17.1019   25.3202 O   0  0  0  0  0  0  0  0  0  0  0  0
    9.9036  -15.4288   26.8464 N   0  0  0  0  0  0  0  0  0  0  0  0
    9.4874  -14.2606   27.5594 C   0  0  0  0  0  0  0  0  0  0  0  0
   10.7967  -13.7333   28.1611 C   0  0  0  0  0  0  0  0  0  0  0  0
   11.7182  -14.9221   28.2058 C   0  0  0  0  0  0  0  0  0  0  0  0
   10.8577  -16.0867   27.7528 C   0  0  1  0  0  0  0  0  0  0  0  0
   10.1753  -16.7393   28.8859 C   0  0  0  0  0  0  0  0  0  0  0  0
    8.9459  -16.5970   29.0109 O   0  0  0  0  0  0  0  0  0  0  0  0
   10.8602  -17.5034   29.8123 O   0  0  0  0  0  0  0  0  0  0  0  0
  2  1  1  6
  2  8  1  0
  2  3  1  0
  4  3  1  0
  4  5  1  0
  6  5  1  0
  6  7  1  0
  8  9  2  0
 10 11  1  0
 11 12  1  0
 13 12  1  0
 14 13  1  1
 15 14  1  0
 15  8  1  0
 16 14  1  0
 16 17  2  0
 18 16  1  0
 19 18  1  0
 20 19  1  0
 21 20  1  0
 21 22  1  0
 22 18  1  0
 22 23  1  1
 23 25  1  0
 24 23  2  0
M  END
$$$$
