MIM.pdb
     RDKit          3D

 25 24  0  0  1  0  0  0  0  0999 V2000
    6.9420  -11.5721   27.3289 C   0  0  0  0  0  0  0  0  0  0  0  0
    5.5550  -12.5081   27.9785 S   0  0  0  0  0  0  0  0  0  0  0  0
    5.2140  -13.9521   26.9385 C   0  0  0  0  0  0  0  0  0  0  0  0
    6.4643  -14.3637   26.2176 C   0  0  0  0  0  0  0  0  0  0  0  0
    6.1024  -15.3969   25.1862 C   0  0  2  0  0  0  0  0  0  0  0  0
    5.6156  -16.5722   25.8352 N   0  0  0  0  0  0  0  0  0  0  0  0
    7.2602  -15.6674   24.2923 C   0  0  0  0  0  0  0  0  0  0  0  0
    7.9028  -16.7426   24.4120 O   0  0  0  0  0  0  0  0  0  0  0  0
    7.7448  -12.5221   19.9737 C   0  0  0  0  0  0  0  0  0  0  0  0
    7.7126  -13.9404   20.5029 C   0  0  0  0  0  0  0  0  0  0  0  0
    8.9811  -14.1627   21.2824 C   0  0  2  0  0  0  0  0  0  0  0  0
   10.0346  -14.7385   20.3680 C   0  0  0  0  0  0  0  0  0  0  0  0
    8.7994  -15.1116   22.4426 C   0  0  2  0  0  0  0  0  0  0  0  0
    7.6875  -14.7594   23.2917 N   0  0  0  0  0  0  0  0  0  0  0  0
   10.0257  -15.1242   23.3154 C   0  0  0  0  0  0  0  0  0  0  0  0
   10.3613  -14.1291   24.0134 O   0  0  0  0  0  0  0  0  0  0  0  0
   11.2100  -12.5957   27.2439 C   0  0  0  0  0  0  0  0  0  0  0  0
   11.3657  -14.2752   27.8535 S   0  0  0  0  0  0  0  0  0  0  0  0
   12.2713  -15.2724   26.6731 C   0  0  0  0  0  0  0  0  0  0  0  0
   11.4298  -15.9049   25.6448 C   0  0  0  0  0  0  0  0  0  0  0  0
   12.0150  -16.3156   24.3484 C   0  0  2  0  0  0  0  0  0  0  0  0
   10.8641  -16.2632   23.3924 N   0  0  0  0  0  0  0  0  0  0  0  0
   12.6876  -17.5929   24.2477 C   0  0  0  0  0  0  0  0  0  0  0  0
   14.0355  -17.7423   24.4892 O   0  0  0  0  0  0  0  0  0  0  0  0
   12.0778  -18.6735   23.9216 O   0  0  0  0  0  0  0  0  0  0  0  0
  1  2  1  0
  3  2  1  0
  4  5  1  0
  4  3  1  0
  5  6  1  1
  7  8  2  0
  7  5  1  0
  9 10  1  0
 11 13  1  0
 11 10  1  0
 11 12  1  6
 13 14  1  1
 14  7  1  0
 15 22  1  0
 15 13  1  0
 16 15  2  0
 18 17  1  0
 19 20  1  0
 19 18  1  0
 21 20  1  1
 21 22  1  0
 23 21  1  0
 24 23  1  0
 25 23  2  0
M  END
$$$$
