MIM.pdb
     RDKit          3D

 25 24  0  0  1  0  0  0  0  0999 V2000
    6.7574  -10.9333   26.2091 C   0  0  0  0  0  0  0  0  0  0  0  0
    5.9581  -12.0223   27.3910 S   0  0  0  0  0  0  0  0  0  0  0  0
    5.4948  -13.5886   26.6066 C   0  0  0  0  0  0  0  0  0  0  0  0
    6.7057  -14.2219   25.9861 C   0  0  0  0  0  0  0  0  0  0  0  0
    6.2586  -15.3912   25.1526 C   0  0  2  0  0  0  0  0  0  0  0  0
    5.8348  -16.4546   26.0065 N   0  0  0  0  0  0  0  0  0  0  0  0
    7.3345  -15.8000   24.2103 C   0  0  0  0  0  0  0  0  0  0  0  0
    7.9244  -16.8991   24.3760 O   0  0  0  0  0  0  0  0  0  0  0  0
    7.4482  -13.2282   19.7011 C   0  0  0  0  0  0  0  0  0  0  0  0
    7.6324  -14.6384   20.2208 C   0  0  0  0  0  0  0  0  0  0  0  0
    8.9310  -14.6757   20.9813 C   0  0  2  0  0  0  0  0  0  0  0  0
    9.9894  -15.3336   20.1301 C   0  0  0  0  0  0  0  0  0  0  0  0
    8.8309  -15.4420   22.2784 C   0  0  2  0  0  0  0  0  0  0  0  0
    7.7395  -15.0008   23.1124 N   0  0  0  0  0  0  0  0  0  0  0  0
   10.0893  -15.2817   23.0885 C   0  0  0  0  0  0  0  0  0  0  0  0
   10.4970  -14.1532   23.4763 O   0  0  0  0  0  0  0  0  0  0  0  0
    9.9245  -13.7232   28.0107 C   0  0  0  0  0  0  0  0  0  0  0  0
   10.5574  -15.3584   28.3876 S   0  0  0  0  0  0  0  0  0  0  0  0
   11.6682  -15.8978   27.0903 C   0  0  0  0  0  0  0  0  0  0  0  0
   11.0597  -15.9368   25.7509 C   0  0  0  0  0  0  0  0  0  0  0  0
   11.8707  -16.3160   24.5719 C   0  0  2  0  0  0  0  0  0  0  0  0
   10.8780  -16.3998   23.4543 N   0  0  0  0  0  0  0  0  0  0  0  0
   12.6690  -17.5220   24.6195 C   0  0  0  0  0  0  0  0  0  0  0  0
   13.9797  -17.5274   25.0432 O   0  0  0  0  0  0  0  0  0  0  0  0
   12.2146  -18.6685   24.2659 O   0  0  0  0  0  0  0  0  0  0  0  0
  1  2  1  0
  3  2  1  0
  4  5  1  0
  4  3  1  0
  5  6  1  1
  7  8  2  0
  7  5  1  0
  9 10  1  0
 11 13  1  0
 11 10  1  0
 11 12  1  6
 13 14  1  1
 14  7  1  0
 15 22  1  0
 15 13  1  0
 16 15  2  0
 18 17  1  0
 19 20  1  0
 19 18  1  0
 21 20  1  1
 21 22  1  0
 23 21  1  0
 24 23  1  0
 25 23  2  0
M  END
$$$$
