MIM.pdb
     RDKit          3D

 25 24  0  0  1  0  0  0  0  0999 V2000
    7.6809  -22.0667   18.2743 C   0  0  0  0  0  0  0  0  0  0  0  0
    5.9361  -21.8483   18.6346 S   0  0  0  0  0  0  0  0  0  0  0  0
    5.7073  -20.7119   20.0271 C   0  0  0  0  0  0  0  0  0  0  0  0
    6.7690  -19.6515   19.9952 C   0  0  0  0  0  0  0  0  0  0  0  0
    6.7470  -18.9145   21.3060 C   0  0  2  0  0  0  0  0  0  0  0  0
    5.4109  -18.5092   21.6058 N   0  0  0  0  0  0  0  0  0  0  0  0
    7.7043  -17.7762   21.2788 C   0  0  0  0  0  0  0  0  0  0  0  0
    8.8634  -17.9468   20.8197 O   0  0  0  0  0  0  0  0  0  0  0  0
    6.4660  -12.7865   19.7584 C   0  0  0  0  0  0  0  0  0  0  0  0
    7.1468  -14.1239   19.9601 C   0  0  0  0  0  0  0  0  0  0  0  0
    7.8067  -14.0976   21.3129 C   0  0  2  0  0  0  0  0  0  0  0  0
    8.9397  -13.1008   21.2964 C   0  0  0  0  0  0  0  0  0  0  0  0
    8.3693  -15.4387   21.7186 C   0  0  2  0  0  0  0  0  0  0  0  0
    7.3736  -16.4822   21.7525 N   0  0  0  0  0  0  0  0  0  0  0  0
    8.9712  -15.3673   23.0964 C   0  0  0  0  0  0  0  0  0  0  0  0
    8.4445  -14.6938   24.0232 O   0  0  0  0  0  0  0  0  0  0  0  0
    9.7161  -13.1797   28.9430 C   0  0  0  0  0  0  0  0  0  0  0  0
    9.1400  -14.6505   28.0936 S   0  0  0  0  0  0  0  0  0  0  0  0
    9.4925  -14.5225   26.3423 C   0  0  0  0  0  0  0  0  0  0  0  0
   10.0283  -15.7546   25.7420 C   0  0  0  0  0  0  0  0  0  0  0  0
   10.9826  -15.6824   24.6125 C   0  0  2  0  0  0  0  0  0  0  0  0
   10.1653  -16.0587   23.4159 N   0  0  0  0  0  0  0  0  0  0  0  0
   12.1936  -16.4734   24.6565 C   0  0  0  0  0  0  0  0  0  0  0  0
   13.3269  -16.0581   25.3202 O   0  0  0  0  0  0  0  0  0  0  0  0
   12.2984  -17.6131   24.0768 O   0  0  0  0  0  0  0  0  0  0  0  0
  1  2  1  0
  3  2  1  0
  4  5  1  0
  4  3  1  0
  5  6  1  6
  7  8  2  0
  7  5  1  0
  9 10  1  0
 11 13  1  0
 11 10  1  0
 11 12  1  6
 13 14  1  1
 14  7  1  0
 15 22  1  0
 15 13  1  0
 16 15  2  0
 18 17  1  0
 19 20  1  0
 19 18  1  0
 21 20  1  1
 21 22  1  0
 23 21  1  0
 24 23  1  0
 25 23  2  0
M  END
$$$$
