MIM.pdb
     RDKit          3D

 25 24  0  0  1  0  0  0  0  0999 V2000
    5.2495  -22.7108   25.8377 C   0  0  0  0  0  0  0  0  0  0  0  0
    6.1503  -21.1823   26.1101 S   0  0  0  0  0  0  0  0  0  0  0  0
    5.7194  -19.9524   24.8513 C   0  0  0  0  0  0  0  0  0  0  0  0
    6.5714  -18.7292   25.0257 C   0  0  0  0  0  0  0  0  0  0  0  0
    6.0104  -17.6302   24.1659 C   0  0  2  0  0  0  0  0  0  0  0  0
    5.8696  -18.0962   22.8233 N   0  0  0  0  0  0  0  0  0  0  0  0
    6.8524  -16.4082   24.2685 C   0  0  0  0  0  0  0  0  0  0  0  0
    7.6433  -16.1155   23.3345 O   0  0  0  0  0  0  0  0  0  0  0  0
    5.1323  -12.0117   26.9787 C   0  0  0  0  0  0  0  0  0  0  0  0
    5.7679  -12.7436   25.8155 C   0  0  0  0  0  0  0  0  0  0  0  0
    7.1031  -13.2611   26.2800 C   0  0  2  0  0  0  0  0  0  0  0  0
    8.1025  -12.1304   26.2852 C   0  0  0  0  0  0  0  0  0  0  0  0
    7.6457  -14.3611   25.3995 C   0  0  2  0  0  0  0  0  0  0  0  0
    6.8107  -15.5375   25.3857 N   0  0  0  0  0  0  0  0  0  0  0  0
    9.0055  -14.7989   25.8738 C   0  0  0  0  0  0  0  0  0  0  0  0
    9.5015  -14.3871   26.9576 O   0  0  0  0  0  0  0  0  0  0  0  0
    9.7354  -19.7121   29.3803 C   0  0  0  0  0  0  0  0  0  0  0  0
   10.6300  -18.1948   29.0426 S   0  0  0  0  0  0  0  0  0  0  0  0
   10.4499  -17.7502   27.3170 C   0  0  0  0  0  0  0  0  0  0  0  0
   11.0424  -16.4506   26.9627 C   0  0  0  0  0  0  0  0  0  0  0  0
   11.1857  -16.0563   25.5430 C   0  0  2  0  0  0  0  0  0  0  0  0
    9.7950  -15.6999   25.1182 N   0  0  0  0  0  0  0  0  0  0  0  0
   11.7687  -16.9901   24.6038 C   0  0  0  0  0  0  0  0  0  0  0  0
   11.0503  -17.5468   23.5688 O   0  0  0  0  0  0  0  0  0  0  0  0
   12.9926  -17.3688   24.6721 O   0  0  0  0  0  0  0  0  0  0  0  0
  1  2  1  0
  3  2  1  0
  4  5  1  0
  4  3  1  0
  5  6  1  6
  7  8  2  0
  7  5  1  0
  9 10  1  0
 11 13  1  0
 11 10  1  0
 11 12  1  6
 13 14  1  1
 14  7  1  0
 15 22  1  0
 15 13  1  0
 16 15  2  0
 18 17  1  0
 19 20  1  0
 19 18  1  0
 21 20  1  1
 21 22  1  0
 23 21  1  0
 24 23  1  0
 25 23  2  0
M  END
$$$$
