MIM.pdb
     RDKit          3D

 25 24  0  0  1  0  0  0  0  0999 V2000
    7.2969  -17.4336   29.2385 C   0  0  0  0  0  0  0  0  0  0  0  0
    7.7747  -19.1073   28.8001 S   0  0  0  0  0  0  0  0  0  0  0  0
    7.3121  -19.4774   27.0878 C   0  0  0  0  0  0  0  0  0  0  0  0
    6.6910  -18.2651   26.4577 C   0  0  0  0  0  0  0  0  0  0  0  0
    6.2685  -18.6182   25.0581 C   0  0  2  0  0  0  0  0  0  0  0  0
    6.3604  -20.0310   24.8715 N   0  0  0  0  0  0  0  0  0  0  0  0
    7.0663  -17.8505   24.0646 C   0  0  0  0  0  0  0  0  0  0  0  0
    7.8567  -18.4576   23.2964 O   0  0  0  0  0  0  0  0  0  0  0  0
    7.0780  -12.5420   20.9925 C   0  0  0  0  0  0  0  0  0  0  0  0
    7.6772  -13.9203   21.1769 C   0  0  0  0  0  0  0  0  0  0  0  0
    6.9581  -14.5779   22.3244 C   0  0  2  0  0  0  0  0  0  0  0  0
    6.8038  -13.5860   23.4512 C   0  0  0  0  0  0  0  0  0  0  0  0
    7.6882  -15.7856   22.8609 C   0  0  2  0  0  0  0  0  0  0  0  0
    6.9821  -16.4420   23.9342 N   0  0  0  0  0  0  0  0  0  0  0  0
    9.0363  -15.3934   23.4036 C   0  0  0  0  0  0  0  0  0  0  0  0
    9.2581  -14.2484   23.8830 O   0  0  0  0  0  0  0  0  0  0  0  0
   10.6322  -12.0016   27.8379 C   0  0  0  0  0  0  0  0  0  0  0  0
   10.8983  -13.7546   27.5683 S   0  0  0  0  0  0  0  0  0  0  0  0
   10.8737  -14.1138   25.8138 C   0  0  0  0  0  0  0  0  0  0  0  0
   10.8916  -15.5493   25.4904 C   0  0  0  0  0  0  0  0  0  0  0  0
   11.3757  -16.0124   24.1703 C   0  0  2  0  0  0  0  0  0  0  0  0
   10.1246  -16.2999   23.3999 N   0  0  0  0  0  0  0  0  0  0  0  0
   12.2731  -17.1456   24.1025 C   0  0  0  0  0  0  0  0  0  0  0  0
   11.8562  -18.3994   23.7133 O   0  0  0  0  0  0  0  0  0  0  0  0
   13.5172  -17.0637   24.4050 O   0  0  0  0  0  0  0  0  0  0  0  0
  1  2  1  0
  3  2  1  0
  4  5  1  0
  4  3  1  0
  5  6  1  6
  7  8  2  0
  7  5  1  0
  9 10  1  0
 11 13  1  0
 11 10  1  0
 11 12  1  1
 13 14  1  1
 14  7  1  0
 15 22  1  0
 15 13  1  0
 16 15  2  0
 18 17  1  0
 19 20  1  0
 19 18  1  0
 21 20  1  1
 21 22  1  0
 23 21  1  0
 24 23  1  0
 25 23  2  0
M  END
$$$$
