MIM.pdb
     RDKit          3D

 25 24  0  0  1  0  0  0  0  0999 V2000
    6.6950  -17.3237   28.1625 C   0  0  0  0  0  0  0  0  0  0  0  0
    6.9819  -19.0777   27.9114 S   0  0  0  0  0  0  0  0  0  0  0  0
    6.7828  -19.5153   26.1645 C   0  0  0  0  0  0  0  0  0  0  0  0
    6.2122  -18.3488   25.4120 C   0  0  0  0  0  0  0  0  0  0  0  0
    6.0654  -18.7387   23.9669 C   0  0  2  0  0  0  0  0  0  0  0  0
    6.2783  -20.1437   23.8253 N   0  0  0  0  0  0  0  0  0  0  0  0
    6.9750  -17.9272   23.1142 C   0  0  0  0  0  0  0  0  0  0  0  0
    7.9961  -18.4604   22.6079 O   0  0  0  0  0  0  0  0  0  0  0  0
    7.4180  -12.5909   20.0406 C   0  0  0  0  0  0  0  0  0  0  0  0
    8.0784  -13.8763   20.4927 C   0  0  0  0  0  0  0  0  0  0  0  0
    7.1064  -14.5945   21.3902 C   0  0  2  0  0  0  0  0  0  0  0  0
    6.6676  -13.6656   22.4957 C   0  0  0  0  0  0  0  0  0  0  0  0
    7.6957  -15.8313   22.0247 C   0  0  2  0  0  0  0  0  0  0  0  0
    6.7481  -16.5564   22.8357 N   0  0  0  0  0  0  0  0  0  0  0  0
    8.8488  -15.4698   22.9221 C   0  0  0  0  0  0  0  0  0  0  0  0
    9.8750  -14.8789   22.4889 O   0  0  0  0  0  0  0  0  0  0  0  0
    5.6736  -13.0391   27.0451 C   0  0  0  0  0  0  0  0  0  0  0  0
    7.3512  -12.9079   27.6655 S   0  0  0  0  0  0  0  0  0  0  0  0
    8.5172  -13.2826   26.3586 C   0  0  0  0  0  0  0  0  0  0  0  0
    9.0099  -14.6692   26.3674 C   0  0  0  0  0  0  0  0  0  0  0  0
    9.8300  -15.1785   25.2451 C   0  0  2  0  0  0  0  0  0  0  0  0
    8.8327  -15.7797   24.3041 N   0  0  0  0  0  0  0  0  0  0  0  0
   10.8915  -16.1241   25.5154 C   0  0  0  0  0  0  0  0  0  0  0  0
   10.8943  -17.4024   25.0025 O   0  0  0  0  0  0  0  0  0  0  0  0
   11.9007  -15.8404   26.2551 O   0  0  0  0  0  0  0  0  0  0  0  0
  1  2  1  0
  3  2  1  0
  4  5  1  0
  4  3  1  0
  5  6  1  1
  7  8  2  0
  7  5  1  0
  9 10  1  0
 11 13  1  0
 11 10  1  0
 11 12  1  1
 13 14  1  1
 14  7  1  0
 15 22  1  0
 15 13  1  0
 16 15  2  0
 18 17  1  0
 19 20  1  0
 19 18  1  0
 21 20  1  1
 21 22  1  0
 23 21  1  0
 24 23  1  0
 25 23  2  0
M  END
$$$$
