MIM.pdb
     RDKit          3D

 25 24  0  0  1  0  0  0  0  0999 V2000
    5.9841  -12.7112   26.5504 C   0  0  0  0  0  0  0  0  0  0  0  0
    6.9612  -14.1842   26.2382 S   0  0  0  0  0  0  0  0  0  0  0  0
    5.9223  -15.6672   26.3032 C   0  0  0  0  0  0  0  0  0  0  0  0
    6.6170  -16.8030   25.6104 C   0  0  0  0  0  0  0  0  0  0  0  0
    6.0364  -16.9471   24.2305 C   0  0  2  0  0  0  0  0  0  0  0  0
    5.4217  -18.2296   24.1005 N   0  0  0  0  0  0  0  0  0  0  0  0
    7.0790  -16.6983   23.1990 C   0  0  0  0  0  0  0  0  0  0  0  0
    7.6751  -17.6707   22.6676 O   0  0  0  0  0  0  0  0  0  0  0  0
    7.3573  -12.1076   20.0994 C   0  0  0  0  0  0  0  0  0  0  0  0
    7.3489  -13.5839   20.4355 C   0  0  0  0  0  0  0  0  0  0  0  0
    8.6013  -13.8784   21.2172 C   0  0  2  0  0  0  0  0  0  0  0  0
    9.7898  -13.8438   20.2878 C   0  0  0  0  0  0  0  0  0  0  0  0
    8.5711  -15.2306   21.8881 C   0  0  2  0  0  0  0  0  0  0  0  0
    7.4444  -15.3970   22.7737 N   0  0  0  0  0  0  0  0  0  0  0  0
    9.8100  -15.4400   22.7169 C   0  0  0  0  0  0  0  0  0  0  0  0
   10.9645  -15.4313   22.2099 O   0  0  0  0  0  0  0  0  0  0  0  0
    9.6858  -13.6139   28.8835 C   0  0  0  0  0  0  0  0  0  0  0  0
   11.3825  -14.1252   28.6073 S   0  0  0  0  0  0  0  0  0  0  0  0
   11.4277  -15.4990   27.4591 C   0  0  0  0  0  0  0  0  0  0  0  0
   10.5254  -15.3529   26.3058 C   0  0  0  0  0  0  0  0  0  0  0  0
   10.9707  -15.7550   24.9524 C   0  0  2  0  0  0  0  0  0  0  0  0
    9.7339  -15.6580   24.1144 N   0  0  0  0  0  0  0  0  0  0  0  0
   11.5970  -17.0463   24.7672 C   0  0  0  0  0  0  0  0  0  0  0  0
   12.9239  -17.2754   25.0575 O   0  0  0  0  0  0  0  0  0  0  0  0
   10.9628  -18.0658   24.3152 O   0  0  0  0  0  0  0  0  0  0  0  0
  1  2  1  0
  3  2  1  0
  4  5  1  0
  4  3  1  0
  5  6  1  1
  7  8  2  0
  7  5  1  0
  9 10  1  0
 11 13  1  0
 11 10  1  0
 11 12  1  6
 13 14  1  1
 14  7  1  0
 15 22  1  0
 15 13  1  0
 16 15  2  0
 18 17  1  0
 19 20  1  0
 19 18  1  0
 21 20  1  1
 21 22  1  0
 23 21  1  0
 24 23  1  0
 25 23  2  0
M  END
$$$$
