MIM.pdb
     RDKit          3D

 25 24  0  0  1  0  0  0  0  0999 V2000
    7.4146  -18.0772   27.0052 C   0  0  0  0  0  0  0  0  0  0  0  0
    6.5328  -19.5028   26.3633 S   0  0  0  0  0  0  0  0  0  0  0  0
    6.6488  -19.5669   24.5563 C   0  0  0  0  0  0  0  0  0  0  0  0
    5.7021  -18.5712   23.9523 C   0  0  0  0  0  0  0  0  0  0  0  0
    5.8571  -18.6115   22.4569 C   0  0  2  0  0  0  0  0  0  0  0  0
    6.0459  -19.9614   22.0306 N   0  0  0  0  0  0  0  0  0  0  0  0
    6.9572  -17.7089   22.0234 C   0  0  0  0  0  0  0  0  0  0  0  0
    8.0617  -18.1971   21.6698 O   0  0  0  0  0  0  0  0  0  0  0  0
    6.4255  -12.8262   19.3646 C   0  0  0  0  0  0  0  0  0  0  0  0
    6.9664  -14.2014   19.6946 C   0  0  0  0  0  0  0  0  0  0  0  0
    7.5661  -14.1342   21.0738 C   0  0  2  0  0  0  0  0  0  0  0  0
    8.8020  -13.2689   21.0392 C   0  0  0  0  0  0  0  0  0  0  0  0
    7.9588  -15.4895   21.6108 C   0  0  2  0  0  0  0  0  0  0  0  0
    6.8249  -16.2985   21.9865 N   0  0  0  0  0  0  0  0  0  0  0  0
    8.8164  -15.3459   22.8394 C   0  0  0  0  0  0  0  0  0  0  0  0
   10.0250  -14.9922   22.7749 O   0  0  0  0  0  0  0  0  0  0  0  0
    7.1180  -11.0376   27.3052 C   0  0  0  0  0  0  0  0  0  0  0  0
    6.1958  -12.5248   26.9129 S   0  0  0  0  0  0  0  0  0  0  0  0
    7.0603  -13.4672   25.6589 C   0  0  0  0  0  0  0  0  0  0  0  0
    7.9196  -14.5365   26.1916 C   0  0  0  0  0  0  0  0  0  0  0  0
    9.0017  -15.1101   25.3601 C   0  0  2  0  0  0  0  0  0  0  0  0
    8.3003  -15.6037   24.1330 N   0  0  0  0  0  0  0  0  0  0  0  0
    9.8386  -16.1554   25.9089 C   0  0  0  0  0  0  0  0  0  0  0  0
   10.7738  -15.9171   26.8918 O   0  0  0  0  0  0  0  0  0  0  0  0
    9.7722  -17.3747   25.5156 O   0  0  0  0  0  0  0  0  0  0  0  0
  1  2  1  0
  3  2  1  0
  4  5  1  0
  4  3  1  0
  5  6  1  1
  7  8  2  0
  7  5  1  0
  9 10  1  0
 11 13  1  0
 11 10  1  0
 11 12  1  6
 13 14  1  1
 14  7  1  0
 15 22  1  0
 15 13  1  0
 16 15  2  0
 18 17  1  0
 19 20  1  0
 19 18  1  0
 21 20  1  1
 21 22  1  0
 23 21  1  0
 24 23  1  0
 25 23  2  0
M  END
$$$$
