MIM.pdb
     RDKit          3D

 25 24  0  0  1  0  0  0  0  0999 V2000
    5.1728  -12.5306   25.5367 C   0  0  0  0  0  0  0  0  0  0  0  0
    5.9580  -13.5298   26.8043 S   0  0  0  0  0  0  0  0  0  0  0  0
    6.5950  -15.0728   26.0999 C   0  0  0  0  0  0  0  0  0  0  0  0
    5.5215  -15.7419   25.2921 C   0  0  0  0  0  0  0  0  0  0  0  0
    6.0785  -17.0171   24.7213 C   0  0  2  0  0  0  0  0  0  0  0  0
    6.3054  -17.9548   25.7743 N   0  0  0  0  0  0  0  0  0  0  0  0
    7.3014  -16.7385   23.9215 C   0  0  0  0  0  0  0  0  0  0  0  0
    8.1194  -17.6660   23.6892 O   0  0  0  0  0  0  0  0  0  0  0  0
    7.3595  -12.1992   20.7106 C   0  0  0  0  0  0  0  0  0  0  0  0
    7.3960  -13.6848   21.0011 C   0  0  0  0  0  0  0  0  0  0  0  0
    8.6706  -13.9695   21.7498 C   0  0  2  0  0  0  0  0  0  0  0  0
    9.8327  -13.9376   20.7875 C   0  0  0  0  0  0  0  0  0  0  0  0
    8.6639  -15.3171   22.4307 C   0  0  2  0  0  0  0  0  0  0  0  0
    7.6009  -15.4570   23.3960 N   0  0  0  0  0  0  0  0  0  0  0  0
    9.9551  -15.5450   23.1700 C   0  0  0  0  0  0  0  0  0  0  0  0
   10.9222  -14.7397   23.0927 O   0  0  0  0  0  0  0  0  0  0  0  0
   10.7006  -12.7892   27.9355 C   0  0  0  0  0  0  0  0  0  0  0  0
   10.7135  -14.5286   28.3724 S   0  0  0  0  0  0  0  0  0  0  0  0
   11.6661  -15.4536   27.1704 C   0  0  0  0  0  0  0  0  0  0  0  0
   11.0381  -15.5456   25.8427 C   0  0  0  0  0  0  0  0  0  0  0  0
   11.2525  -16.7403   24.9953 C   0  0  2  0  0  0  0  0  0  0  0  0
   10.1429  -16.6833   23.9918 N   0  0  0  0  0  0  0  0  0  0  0  0
   11.2977  -18.0481   25.6130 C   0  0  0  0  0  0  0  0  0  0  0  0
   12.3668  -18.4742   26.3698 O   0  0  0  0  0  0  0  0  0  0  0  0
   10.3489  -18.9036   25.4950 O   0  0  0  0  0  0  0  0  0  0  0  0
  1  2  1  0
  3  2  1  0
  4  5  1  0
  4  3  1  0
  5  6  1  1
  7  8  2  0
  7  5  1  0
  9 10  1  0
 11 13  1  0
 11 10  1  0
 11 12  1  6
 13 14  1  1
 14  7  1  0
 15 22  1  0
 15 13  1  0
 16 15  2  0
 18 17  1  0
 19 20  1  0
 19 18  1  0
 21 20  1  1
 21 22  1  0
 23 21  1  0
 24 23  1  0
 25 23  2  0
M  END
$$$$
