MIM.pdb
     RDKit          3D

 25 24  0  0  1  0  0  0  0  0999 V2000
    7.4676  -20.4674   27.1957 C   0  0  0  0  0  0  0  0  0  0  0  0
    7.0542  -21.4756   25.7693 S   0  0  0  0  0  0  0  0  0  0  0  0
    6.8408  -20.4430   24.2958 C   0  0  0  0  0  0  0  0  0  0  0  0
    6.1352  -19.1713   24.6664 C   0  0  0  0  0  0  0  0  0  0  0  0
    6.0535  -18.2974   23.4450 C   0  0  2  0  0  0  0  0  0  0  0  0
    6.3548  -19.0695   22.2820 N   0  0  0  0  0  0  0  0  0  0  0  0
    6.9364  -17.1096   23.5953 C   0  0  0  0  0  0  0  0  0  0  0  0
    8.0021  -17.0365   22.9302 O   0  0  0  0  0  0  0  0  0  0  0  0
    7.1672  -11.4215   26.0295 C   0  0  0  0  0  0  0  0  0  0  0  0
    7.8381  -12.5083   25.2162 C   0  0  0  0  0  0  0  0  0  0  0  0
    6.9339  -13.7118   25.2338 C   0  0  2  0  0  0  0  0  0  0  0  0
    6.6357  -14.0913   26.6637 C   0  0  0  0  0  0  0  0  0  0  0  0
    7.5400  -14.9124   24.5478 C   0  0  2  0  0  0  0  0  0  0  0  0
    6.6350  -16.0330   24.4659 N   0  0  0  0  0  0  0  0  0  0  0  0
    8.7578  -15.3908   25.2920 C   0  0  0  0  0  0  0  0  0  0  0  0
    8.6845  -16.2426   26.2189 O   0  0  0  0  0  0  0  0  0  0  0  0
   10.3874  -15.1205   30.2310 C   0  0  0  0  0  0  0  0  0  0  0  0
   10.7803  -13.6013   29.3627 S   0  0  0  0  0  0  0  0  0  0  0  0
   10.5930  -13.8401   27.5975 C   0  0  0  0  0  0  0  0  0  0  0  0
   10.9727  -15.1811   27.1253 C   0  0  0  0  0  0  0  0  0  0  0  0
   11.2643  -15.4147   25.6928 C   0  0  2  0  0  0  0  0  0  0  0  0
   10.0504  -14.9018   24.9821 N   0  0  0  0  0  0  0  0  0  0  0  0
   11.5754  -16.7542   25.2425 C   0  0  0  0  0  0  0  0  0  0  0  0
   10.6506  -17.7749   25.2566 O   0  0  0  0  0  0  0  0  0  0  0  0
   12.7345  -17.0863   24.8040 O   0  0  0  0  0  0  0  0  0  0  0  0
  1  2  1  0
  3  2  1  0
  4  5  1  0
  4  3  1  0
  5  6  1  6
  7  8  2  0
  7  5  1  0
  9 10  1  0
 11 13  1  0
 11 10  1  0
 11 12  1  1
 13 14  1  1
 14  7  1  0
 15 22  1  0
 15 13  1  0
 16 15  2  0
 18 17  1  0
 19 20  1  0
 19 18  1  0
 21 20  1  1
 21 22  1  0
 23 21  1  0
 24 23  1  0
 25 23  2  0
M  END
$$$$
