MIM.pdb
     RDKit          3D

 25 24  0  0  1  0  0  0  0  0999 V2000
    9.6599  -19.8149   28.2944 C   0  0  0  0  0  0  0  0  0  0  0  0
    7.9653  -20.1930   28.7495 S   0  0  0  0  0  0  0  0  0  0  0  0
    6.8440  -19.8770   27.3617 C   0  0  0  0  0  0  0  0  0  0  0  0
    7.4838  -18.9164   26.4024 C   0  0  0  0  0  0  0  0  0  0  0  0
    6.4701  -18.5393   25.3573 C   0  0  2  0  0  0  0  0  0  0  0  0
    6.2572  -19.6425   24.4757 N   0  0  0  0  0  0  0  0  0  0  0  0
    6.8921  -17.3032   24.6453 C   0  0  0  0  0  0  0  0  0  0  0  0
    7.0465  -17.3245   23.3967 O   0  0  0  0  0  0  0  0  0  0  0  0
    5.6677  -12.3900   26.5785 C   0  0  0  0  0  0  0  0  0  0  0  0
    5.8439  -13.2840   25.3692 C   0  0  0  0  0  0  0  0  0  0  0  0
    7.3074  -13.6202   25.2628 C   0  0  2  0  0  0  0  0  0  0  0  0
    8.0165  -12.5279   24.5003 C   0  0  0  0  0  0  0  0  0  0  0  0
    7.5600  -14.9275   24.5510 C   0  0  2  0  0  0  0  0  0  0  0  0
    7.1348  -16.0768   25.3123 N   0  0  0  0  0  0  0  0  0  0  0  0
    9.0290  -15.1074   24.2763 C   0  0  0  0  0  0  0  0  0  0  0  0
    9.7340  -14.1898   23.7754 O   0  0  0  0  0  0  0  0  0  0  0  0
    9.4225  -13.4666   28.4852 C   0  0  0  0  0  0  0  0  0  0  0  0
   10.9944  -14.2205   28.9059 S   0  0  0  0  0  0  0  0  0  0  0  0
   11.6388  -15.1179   27.4961 C   0  0  0  0  0  0  0  0  0  0  0  0
   10.6063  -15.7435   26.6546 C   0  0  0  0  0  0  0  0  0  0  0  0
   10.9675  -16.3448   25.3509 C   0  0  2  0  0  0  0  0  0  0  0  0
    9.6902  -16.3251   24.5703 N   0  0  0  0  0  0  0  0  0  0  0  0
   11.5498  -17.6692   25.3185 C   0  0  0  0  0  0  0  0  0  0  0  0
   12.8924  -17.8943   25.5288 O   0  0  0  0  0  0  0  0  0  0  0  0
   10.8585  -18.7248   25.0868 O   0  0  0  0  0  0  0  0  0  0  0  0
  1  2  1  0
  3  2  1  0
  4  5  1  0
  4  3  1  0
  5  6  1  6
  7  8  2  0
  7  5  1  0
  9 10  1  0
 11 13  1  0
 11 10  1  0
 11 12  1  6
 13 14  1  1
 14  7  1  0
 15 22  1  0
 15 13  1  0
 16 15  2  0
 18 17  1  0
 19 20  1  0
 19 18  1  0
 21 20  1  1
 21 22  1  0
 23 21  1  0
 24 23  1  0
 25 23  2  0
M  END
$$$$
