MIM.pdb
     RDKit          3D

 25 24  0  0  1  0  0  0  0  0999 V2000
    8.6499  -11.3876   20.5819 C   0  0  0  0  0  0  0  0  0  0  0  0
    8.6276  -12.7523   19.4161 S   0  0  0  0  0  0  0  0  0  0  0  0
    7.0699  -13.6701   19.5348 C   0  0  0  0  0  0  0  0  0  0  0  0
    7.0152  -14.4084   20.8404 C   0  0  0  0  0  0  0  0  0  0  0  0
    7.8903  -15.6272   20.7365 C   0  0  2  0  0  0  0  0  0  0  0  0
    7.3234  -16.5462   19.8019 N   0  0  0  0  0  0  0  0  0  0  0  0
    8.1068  -16.2282   22.0799 C   0  0  0  0  0  0  0  0  0  0  0  0
    7.1219  -16.6463   22.7421 O   0  0  0  0  0  0  0  0  0  0  0  0
   10.9345  -20.4225   23.0936 C   0  0  0  0  0  0  0  0  0  0  0  0
    9.9201  -19.2992   23.0514 C   0  0  0  0  0  0  0  0  0  0  0  0
   10.4299  -18.1939   23.9372 C   0  0  2  0  0  0  0  0  0  0  0  0
   10.5583  -18.7061   25.3510 C   0  0  0  0  0  0  0  0  0  0  0  0
    9.5198  -16.9893   23.9570 C   0  0  2  0  0  0  0  0  0  0  0  0
    9.3903  -16.3579   22.6662 N   0  0  0  0  0  0  0  0  0  0  0  0
   10.0450  -15.9423   24.9022 C   0  0  0  0  0  0  0  0  0  0  0  0
   11.1031  -15.2980   24.6672 O   0  0  0  0  0  0  0  0  0  0  0  0
    5.5890  -12.7985   25.9979 C   0  0  0  0  0  0  0  0  0  0  0  0
    6.9122  -11.9441   26.8556 S   0  0  0  0  0  0  0  0  0  0  0  0
    8.4823  -12.7233   26.4876 C   0  0  0  0  0  0  0  0  0  0  0  0
    8.8801  -13.7648   27.4483 C   0  0  0  0  0  0  0  0  0  0  0  0
    9.9728  -14.7076   27.1190 C   0  0  2  0  0  0  0  0  0  0  0  0
    9.3690  -15.6316   26.1075 N   0  0  0  0  0  0  0  0  0  0  0  0
   10.5945  -15.4699   28.1804 C   0  0  0  0  0  0  0  0  0  0  0  0
   11.5721  -14.9445   28.9962 O   0  0  0  0  0  0  0  0  0  0  0  0
   10.2833  -16.6888   28.4323 O   0  0  0  0  0  0  0  0  0  0  0  0
  1  2  1  0
  3  2  1  0
  4  5  1  0
  4  3  1  0
  5  6  1  6
  7  8  2  0
  7  5  1  0
  9 10  1  0
 11 13  1  0
 11 10  1  0
 11 12  1  1
 13 14  1  6
 14  7  1  0
 15 22  1  0
 15 13  1  0
 16 15  2  0
 18 17  1  0
 19 20  1  0
 19 18  1  0
 21 20  1  1
 21 22  1  0
 23 21  1  0
 24 23  1  0
 25 23  2  0
M  END
$$$$
