MIM.pdb
     RDKit          3D

 25 24  0  0  1  0  0  0  0  0999 V2000
    7.8376  -11.6494   18.8812 C   0  0  0  0  0  0  0  0  0  0  0  0
    7.3785  -13.1032   17.9338 S   0  0  0  0  0  0  0  0  0  0  0  0
    7.5917  -14.6058   18.9236 C   0  0  0  0  0  0  0  0  0  0  0  0
    8.2160  -14.2585   20.2435 C   0  0  0  0  0  0  0  0  0  0  0  0
    8.4534  -15.5313   21.0088 C   0  0  2  0  0  0  0  0  0  0  0  0
    7.2404  -16.2816   21.0797 N   0  0  0  0  0  0  0  0  0  0  0  0
    9.0282  -15.2334   22.3481 C   0  0  0  0  0  0  0  0  0  0  0  0
   10.2551  -14.9758   22.4571 O   0  0  0  0  0  0  0  0  0  0  0  0
    6.1772  -12.1822   25.7142 C   0  0  0  0  0  0  0  0  0  0  0  0
    7.2202  -12.8142   24.8168 C   0  0  0  0  0  0  0  0  0  0  0  0
    7.8720  -13.9274   25.5928 C   0  0  2  0  0  0  0  0  0  0  0  0
    8.6361  -13.3443   26.7563 C   0  0  0  0  0  0  0  0  0  0  0  0
    8.8352  -14.7388   24.7601 C   0  0  2  0  0  0  0  0  0  0  0  0
    8.2514  -15.2241   23.5333 N   0  0  0  0  0  0  0  0  0  0  0  0
    9.3100  -15.9464   25.5229 C   0  0  0  0  0  0  0  0  0  0  0  0
    8.5155  -16.8379   25.9277 O   0  0  0  0  0  0  0  0  0  0  0  0
   10.0936  -13.3893   29.0578 C   0  0  0  0  0  0  0  0  0  0  0  0
   10.2068  -14.9948   29.8490 S   0  0  0  0  0  0  0  0  0  0  0  0
   11.2922  -16.0647   28.9083 C   0  0  0  0  0  0  0  0  0  0  0  0
   10.5924  -16.9953   28.0083 C   0  0  0  0  0  0  0  0  0  0  0  0
   11.1383  -17.2879   26.6638 C   0  0  2  0  0  0  0  0  0  0  0  0
   10.6812  -16.1368   25.8227 N   0  0  0  0  0  0  0  0  0  0  0  0
   10.8017  -18.5392   26.0195 C   0  0  0  0  0  0  0  0  0  0  0  0
   10.1513  -18.5973   24.8066 O   0  0  0  0  0  0  0  0  0  0  0  0
   11.0801  -19.6808   26.5343 O   0  0  0  0  0  0  0  0  0  0  0  0
  1  2  1  0
  3  2  1  0
  4  5  1  0
  4  3  1  0
  5  6  1  1
  7  8  2  0
  7  5  1  0
  9 10  1  0
 11 13  1  0
 11 10  1  0
 11 12  1  1
 13 14  1  6
 14  7  1  0
 15 22  1  0
 15 13  1  0
 16 15  2  0
 18 17  1  0
 19 20  1  0
 19 18  1  0
 21 20  1  1
 21 22  1  0
 23 21  1  0
 24 23  1  0
 25 23  2  0
M  END
$$$$
