MIM.pdb
     RDKit          3D

 25 24  0  0  1  0  0  0  0  0999 V2000
    6.1750  -20.3335   25.4812 C   0  0  0  0  0  0  0  0  0  0  0  0
    7.4763  -21.3191   24.7347 S   0  0  0  0  0  0  0  0  0  0  0  0
    7.8150  -20.7583   23.0455 C   0  0  0  0  0  0  0  0  0  0  0  0
    6.5947  -20.0940   22.4781 C   0  0  0  0  0  0  0  0  0  0  0  0
    6.9418  -19.5321   21.1269 C   0  0  2  0  0  0  0  0  0  0  0  0
    7.6141  -20.5261   20.3525 N   0  0  0  0  0  0  0  0  0  0  0  0
    7.7315  -18.2798   21.2715 C   0  0  0  0  0  0  0  0  0  0  0  0
    8.9840  -18.3153   21.1556 O   0  0  0  0  0  0  0  0  0  0  0  0
    7.7836  -12.3899   20.0900 C   0  0  0  0  0  0  0  0  0  0  0  0
    8.3847  -13.4819   20.9496 C   0  0  0  0  0  0  0  0  0  0  0  0
    7.4614  -14.6692   20.8863 C   0  0  2  0  0  0  0  0  0  0  0  0
    6.1144  -14.2846   21.4476 C   0  0  0  0  0  0  0  0  0  0  0  0
    7.9733  -15.8543   21.6691 C   0  0  2  0  0  0  0  0  0  0  0  0
    7.1360  -17.0220   21.5385 N   0  0  0  0  0  0  0  0  0  0  0  0
    8.0424  -15.5311   23.1376 C   0  0  0  0  0  0  0  0  0  0  0  0
    7.1279  -15.8624   23.9400 O   0  0  0  0  0  0  0  0  0  0  0  0
    6.3142  -10.9555   25.8854 C   0  0  0  0  0  0  0  0  0  0  0  0
    7.3230  -11.7315   27.1490 S   0  0  0  0  0  0  0  0  0  0  0  0
    7.5294  -13.4725   26.7825 C   0  0  0  0  0  0  0  0  0  0  0  0
    7.9591  -13.7531   25.4033 C   0  0  0  0  0  0  0  0  0  0  0  0
    9.2068  -14.5078   25.1478 C   0  0  2  0  0  0  0  0  0  0  0  0
    9.1462  -14.8349   23.6880 N   0  0  0  0  0  0  0  0  0  0  0  0
    9.4808  -15.7041   25.9146 C   0  0  0  0  0  0  0  0  0  0  0  0
   10.0064  -15.6650   27.1872 O   0  0  0  0  0  0  0  0  0  0  0  0
    9.2587  -16.8837   25.4617 O   0  0  0  0  0  0  0  0  0  0  0  0
  1  2  1  0
  3  2  1  0
  4  5  1  0
  4  3  1  0
  5  6  1  6
  7  8  2  0
  7  5  1  0
  9 10  1  0
 11 13  1  0
 11 10  1  0
 11 12  1  1
 13 14  1  1
 14  7  1  0
 15 22  1  0
 15 13  1  0
 16 15  2  0
 18 17  1  0
 19 20  1  0
 19 18  1  0
 21 20  1  1
 21 22  1  0
 23 21  1  0
 24 23  1  0
 25 23  2  0
M  END
$$$$
