WLG.pdb
     RDKit          3D

 27 28  0  0  1  0  0  0  0  0999 V2000
   24.5496  -20.1494  -10.8500 N   0  0  0  0  0  0  0  0  0  0  0  0
   25.8066  -20.8527  -10.9805 C   0  0  1  0  0  0  0  0  0  0  0  0
   26.4931  -20.2922  -12.2342 C   0  0  0  0  0  0  0  0  0  0  0  0
   25.5381  -20.4270  -13.3696 C   0  0  0  0  0  0  0  0  0  0  0  0
   24.9150  -19.4127  -14.0522 C   0  0  0  0  0  0  0  0  0  0  0  0
   24.1423  -20.0212  -14.9911 N   0  0  0  0  0  0  0  0  0  0  0  0
   24.2634  -21.3495  -14.9145 C   0  0  0  0  0  0  0  0  0  0  0  0
   23.7312  -22.4129  -15.5942 C   0  0  0  0  0  0  0  0  0  0  0  0
   24.0674  -23.6968  -15.2637 C   0  0  0  0  0  0  0  0  0  0  0  0
   24.9462  -24.0023  -14.2455 C   0  0  0  0  0  0  0  0  0  0  0  0
   25.4875  -22.9341  -13.5548 C   0  0  0  0  0  0  0  0  0  0  0  0
   25.1483  -21.6405  -13.8883 C   0  0  0  0  0  0  0  0  0  0  0  0
   26.7100  -20.6032   -9.8378 C   0  0  0  0  0  0  0  0  0  0  0  0
   27.9221  -20.8963   -9.9539 O   0  0  0  0  0  0  0  0  0  0  0  0
   28.4762  -18.0867   -5.0170 C   0  0  0  0  0  0  0  0  0  0  0  0
   28.1389  -19.4619   -5.5022 C   0  0  2  0  0  0  0  0  0  0  0  0
   29.4235  -20.3093   -5.4935 C   0  0  0  0  0  0  0  0  0  0  0  0
   27.5079  -19.4465   -6.8303 C   0  0  0  0  0  0  0  0  0  0  0  0
   26.6216  -20.5295   -7.2952 C   0  0  2  0  0  0  0  0  0  0  0  0
   26.1909  -20.0467   -8.6574 N   0  0  0  0  0  0  0  0  0  0  0  0
   25.3718  -20.8205   -6.6039 C   0  0  0  0  0  0  0  0  0  0  0  0
   25.3523  -21.0328   -5.3319 O   0  0  0  0  0  0  0  0  0  0  0  0
   24.0685  -20.8964   -7.1879 N   0  0  0  0  0  0  0  0  0  0  0  0
   22.8599  -21.1030   -6.4634 C   0  0  0  0  0  0  0  0  0  0  0  0
   22.3966  -22.4901   -6.3305 C   0  0  0  0  0  0  0  0  0  0  0  0
   23.0823  -23.4401   -6.7455 O   0  0  0  0  0  0  0  0  0  0  0  0
   21.1777  -22.7645   -5.7353 O   0  0  0  0  0  0  0  0  0  0  0  0
  2  1  1  1
  2 13  1  0
  2  3  1  0
  3  4  1  0
  4  5  2  0
  6  5  1  0
  7  6  1  0
  8  7  2  0
  9  8  1  0
 10  9  2  0
 10 11  1  0
 11 12  2  0
 12  7  1  0
 12  4  1  0
 13 20  1  0
 14 13  2  0
 16 18  1  0
 16 15  1  6
 17 16  1  0
 19 18  1  1
 20 19  1  0
 21 22  2  0
 21 19  1  0
 23 21  1  0
 24 25  1  0
 24 23  1  0
 25 27  1  0
 26 25  2  0
M  END
$$$$
