WLG.pdb
     RDKit          3D

 27 28  0  0  1  0  0  0  0  0999 V2000
   26.5955  -22.7099  -14.3024 N   0  0  0  0  0  0  0  0  0  0  0  0
   26.5394  -21.7595  -13.2138 C   0  0  1  0  0  0  0  0  0  0  0  0
   26.8389  -20.3813  -13.8206 C   0  0  0  0  0  0  0  0  0  0  0  0
   28.2868  -20.1009  -13.6100 C   0  0  0  0  0  0  0  0  0  0  0  0
   29.1040  -19.3304  -14.3984 C   0  0  0  0  0  0  0  0  0  0  0  0
   30.3297  -19.3739  -13.8110 N   0  0  0  0  0  0  0  0  0  0  0  0
   30.2994  -20.1291  -12.7094 C   0  0  0  0  0  0  0  0  0  0  0  0
   31.2174  -20.5032  -11.7642 C   0  0  0  0  0  0  0  0  0  0  0  0
   30.8609  -21.3123  -10.7207 C   0  0  0  0  0  0  0  0  0  0  0  0
   29.5805  -21.7966  -10.5521 C   0  0  0  0  0  0  0  0  0  0  0  0
   28.6483  -21.4233  -11.5023 C   0  0  0  0  0  0  0  0  0  0  0  0
   29.0081  -20.6080  -12.5536 C   0  0  0  0  0  0  0  0  0  0  0  0
   25.1961  -21.6862  -12.6020 C   0  0  0  0  0  0  0  0  0  0  0  0
   24.2769  -22.3881  -13.0825 O   0  0  0  0  0  0  0  0  0  0  0  0
   23.5312  -21.6991   -7.7808 C   0  0  0  0  0  0  0  0  0  0  0  0
   24.5261  -20.7882   -8.4298 C   0  0  2  0  0  0  0  0  0  0  0  0
   25.0825  -19.8337   -7.3586 C   0  0  0  0  0  0  0  0  0  0  0  0
   23.9518  -20.0530   -9.5663 C   0  0  0  0  0  0  0  0  0  0  0  0
   23.6322  -20.7072  -10.8487 C   0  0  2  0  0  0  0  0  0  0  0  0
   24.9845  -20.8373  -11.5033 N   0  0  0  0  0  0  0  0  0  0  0  0
   22.8116  -20.0331  -11.8470 C   0  0  0  0  0  0  0  0  0  0  0  0
   23.2323  -18.9685  -12.4411 O   0  0  0  0  0  0  0  0  0  0  0  0
   21.5129  -20.4295  -12.2965 N   0  0  0  0  0  0  0  0  0  0  0  0
   20.6822  -19.6673  -13.1666 C   0  0  0  0  0  0  0  0  0  0  0  0
   20.8486  -19.8944  -14.6078 C   0  0  0  0  0  0  0  0  0  0  0  0
   21.5746  -20.8079  -15.0357 O   0  0  0  0  0  0  0  0  0  0  0  0
   20.1934  -19.0873  -15.5214 O   0  0  0  0  0  0  0  0  0  0  0  0
  2  1  1  6
  2 13  1  0
  2  3  1  0
  3  4  1  0
  4  5  2  0
  6  5  1  0
  7  6  1  0
  8  7  2  0
  9  8  1  0
 10  9  2  0
 10 11  1  0
 11 12  2  0
 12  7  1  0
 12  4  1  0
 13 20  1  0
 14 13  2  0
 16 18  1  0
 16 15  1  1
 17 16  1  0
 19 18  1  1
 20 19  1  0
 21 22  2  0
 21 19  1  0
 23 21  1  0
 24 25  1  0
 24 23  1  0
 25 27  1  0
 26 25  2  0
M  END
$$$$
