WLG.pdb
     RDKit          3D

 27 28  0  0  1  0  0  0  0  0999 V2000
   26.9794  -20.3853  -16.3963 N   0  0  0  0  0  0  0  0  0  0  0  0
   26.4228  -19.7335  -15.2313 C   0  0  1  0  0  0  0  0  0  0  0  0
   25.0734  -19.1425  -15.6639 C   0  0  0  0  0  0  0  0  0  0  0  0
   25.3507  -18.0557  -16.6445 C   0  0  0  0  0  0  0  0  0  0  0  0
   24.9471  -18.0002  -17.9548 C   0  0  0  0  0  0  0  0  0  0  0  0
   25.4389  -16.8298  -18.4421 N   0  0  0  0  0  0  0  0  0  0  0  0
   26.1186  -16.1731  -17.4979 C   0  0  0  0  0  0  0  0  0  0  0  0
   26.7994  -14.9859  -17.4411 C   0  0  0  0  0  0  0  0  0  0  0  0
   27.4082  -14.5802  -16.2855 C   0  0  0  0  0  0  0  0  0  0  0  0
   27.3791  -15.3223  -15.1233 C   0  0  0  0  0  0  0  0  0  0  0  0
   26.6939  -16.5219  -15.1729 C   0  0  0  0  0  0  0  0  0  0  0  0
   26.0806  -16.9303  -16.3376 C   0  0  0  0  0  0  0  0  0  0  0  0
   26.1526  -20.6840  -14.1324 C   0  0  0  0  0  0  0  0  0  0  0  0
   25.8886  -21.8745  -14.4178 O   0  0  0  0  0  0  0  0  0  0  0  0
   29.2893  -20.9858   -9.6116 C   0  0  0  0  0  0  0  0  0  0  0  0
   28.3364  -21.5732  -10.6054 C   0  0  2  0  0  0  0  0  0  0  0  0
   29.0617  -21.7031  -11.9564 C   0  0  0  0  0  0  0  0  0  0  0  0
   27.1002  -20.7863  -10.7265 C   0  0  0  0  0  0  0  0  0  0  0  0
   26.0067  -21.1703  -11.6383 C   0  0  2  0  0  0  0  0  0  0  0  0
   26.1987  -20.2322  -12.8034 N   0  0  0  0  0  0  0  0  0  0  0  0
   24.6132  -20.9861  -11.2527 C   0  0  0  0  0  0  0  0  0  0  0  0
   24.1275  -21.5843  -10.2185 O   0  0  0  0  0  0  0  0  0  0  0  0
   23.6455  -20.1623  -11.9089 N   0  0  0  0  0  0  0  0  0  0  0  0
   22.2756  -20.0560  -11.5345 C   0  0  0  0  0  0  0  0  0  0  0  0
   21.3481  -21.0225  -12.1362 C   0  0  0  0  0  0  0  0  0  0  0  0
   21.7453  -21.8772  -12.9463 O   0  0  0  0  0  0  0  0  0  0  0  0
   20.0039  -20.9971  -11.8075 O   0  0  0  0  0  0  0  0  0  0  0  0
  2  1  1  6
  2 13  1  0
  2  3  1  0
  3  4  1  0
  4  5  2  0
  6  5  1  0
  7  6  1  0
  8  7  2  0
  9  8  1  0
 10  9  2  0
 10 11  1  0
 11 12  2  0
 12  7  1  0
 12  4  1  0
 13 20  1  0
 14 13  2  0
 16 18  1  0
 16 15  1  1
 17 16  1  0
 19 18  1  1
 20 19  1  0
 21 22  2  0
 21 19  1  0
 23 21  1  0
 24 25  1  0
 24 23  1  0
 25 27  1  0
 26 25  2  0
M  END
$$$$
