WLG.pdb
     RDKit          3D

 27 28  0  0  1  0  0  0  0  0999 V2000
   26.2296  -19.6110  -16.5334 N   0  0  0  0  0  0  0  0  0  0  0  0
   25.8489  -19.2024  -15.1993 C   0  0  1  0  0  0  0  0  0  0  0  0
   24.3224  -19.0381  -15.2111 C   0  0  0  0  0  0  0  0  0  0  0  0
   24.0133  -17.7440  -15.8814 C   0  0  0  0  0  0  0  0  0  0  0  0
   24.8411  -16.6564  -16.0034 C   0  0  0  0  0  0  0  0  0  0  0  0
   24.1238  -15.7224  -16.6831 N   0  0  0  0  0  0  0  0  0  0  0  0
   22.9062  -16.1851  -16.9798 C   0  0  0  0  0  0  0  0  0  0  0  0
   21.8103  -15.6845  -17.6314 C   0  0  0  0  0  0  0  0  0  0  0  0
   20.6757  -16.4345  -17.7753 C   0  0  0  0  0  0  0  0  0  0  0  0
   20.5593  -17.7183  -17.2849 C   0  0  0  0  0  0  0  0  0  0  0  0
   21.6614  -18.2305  -16.6258 C   0  0  0  0  0  0  0  0  0  0  0  0
   22.8045  -17.4743  -16.4811 C   0  0  0  0  0  0  0  0  0  0  0  0
   26.1713  -20.2279  -14.1852 C   0  0  0  0  0  0  0  0  0  0  0  0
   25.9064  -21.4260  -14.4357 O   0  0  0  0  0  0  0  0  0  0  0  0
   29.7327  -22.2098  -12.6009 C   0  0  0  0  0  0  0  0  0  0  0  0
   29.5573  -20.7533  -12.3038 C   0  0  2  0  0  0  0  0  0  0  0  0
   30.8583  -20.2255  -11.6737 C   0  0  0  0  0  0  0  0  0  0  0  0
   28.3936  -20.4952  -11.4427 C   0  0  0  0  0  0  0  0  0  0  0  0
   27.0167  -20.8204  -11.8588 C   0  0  2  0  0  0  0  0  0  0  0  0
   26.7636  -19.8366  -12.9733 N   0  0  0  0  0  0  0  0  0  0  0  0
   25.8959  -20.6287  -10.9469 C   0  0  0  0  0  0  0  0  0  0  0  0
   25.4579  -19.4465  -10.6751 O   0  0  0  0  0  0  0  0  0  0  0  0
   25.1564  -21.6509  -10.2732 N   0  0  0  0  0  0  0  0  0  0  0  0
   24.0667  -21.4200   -9.3859 C   0  0  0  0  0  0  0  0  0  0  0  0
   22.7371  -21.2789   -9.9931 C   0  0  0  0  0  0  0  0  0  0  0  0
   22.5818  -21.3443  -11.2244 O   0  0  0  0  0  0  0  0  0  0  0  0
   21.6251  -21.0690   -9.1963 O   0  0  0  0  0  0  0  0  0  0  0  0
  2  1  1  6
  2 13  1  0
  2  3  1  0
  3  4  1  0
  4  5  2  0
  6  5  1  0
  7  6  1  0
  8  7  2  0
  9  8  1  0
 10  9  2  0
 10 11  1  0
 11 12  2  0
 12  7  1  0
 12  4  1  0
 13 20  1  0
 14 13  2  0
 16 18  1  0
 16 15  1  1
 17 16  1  0
 19 18  1  1
 20 19  1  0
 21 22  2  0
 21 19  1  0
 23 21  1  0
 24 25  1  0
 24 23  1  0
 25 27  1  0
 26 25  2  0
M  END
$$$$
