WLG.pdb
     RDKit          3D

 27 28  0  0  1  0  0  0  0  0999 V2000
   23.5144  -17.7412  -18.0518 N   0  0  0  0  0  0  0  0  0  0  0  0
   23.4543  -17.9211  -16.6181 C   0  0  1  0  0  0  0  0  0  0  0  0
   21.9780  -18.1570  -16.2684 C   0  0  0  0  0  0  0  0  0  0  0  0
   21.3768  -16.8352  -15.9352 C   0  0  0  0  0  0  0  0  0  0  0  0
   21.3180  -15.7258  -16.7406 C   0  0  0  0  0  0  0  0  0  0  0  0
   20.6857  -14.7714  -16.0069 N   0  0  0  0  0  0  0  0  0  0  0  0
   20.3582  -15.2425  -14.8003 C   0  0  0  0  0  0  0  0  0  0  0  0
   19.7288  -14.7301  -13.6970 C   0  0  0  0  0  0  0  0  0  0  0  0
   19.5387  -15.4944  -12.5788 C   0  0  0  0  0  0  0  0  0  0  0  0
   19.9587  -16.8050  -12.4873 C   0  0  0  0  0  0  0  0  0  0  0  0
   20.5949  -17.3291  -13.5971 C   0  0  0  0  0  0  0  0  0  0  0  0
   20.7861  -16.5585  -14.7235 C   0  0  0  0  0  0  0  0  0  0  0  0
   24.2062  -19.1120  -16.1703 C   0  0  0  0  0  0  0  0  0  0  0  0
   24.3201  -20.0817  -16.9546 O   0  0  0  0  0  0  0  0  0  0  0  0
   28.7962  -19.7056  -12.4218 C   0  0  0  0  0  0  0  0  0  0  0  0
   27.8058  -20.5303  -13.1833 C   0  0  2  0  0  0  0  0  0  0  0  0
   28.5545  -21.2830  -14.2974 C   0  0  0  0  0  0  0  0  0  0  0  0
   26.7022  -19.7215  -13.7217 C   0  0  0  0  0  0  0  0  0  0  0  0
   25.5184  -20.3271  -14.3593 C   0  0  2  0  0  0  0  0  0  0  0  0
   24.7716  -19.1270  -14.8847 N   0  0  0  0  0  0  0  0  0  0  0  0
   24.5302  -21.0485  -13.5671 C   0  0  0  0  0  0  0  0  0  0  0  0
   24.8153  -22.1846  -13.0273 O   0  0  0  0  0  0  0  0  0  0  0  0
   23.1938  -20.6292  -13.2780 N   0  0  0  0  0  0  0  0  0  0  0  0
   22.2647  -21.3558  -12.4799 C   0  0  0  0  0  0  0  0  0  0  0  0
   21.2013  -22.0758  -13.1921 C   0  0  0  0  0  0  0  0  0  0  0  0
   21.2649  -22.2694  -14.4181 O   0  0  0  0  0  0  0  0  0  0  0  0
   20.1010  -22.5552  -12.5030 O   0  0  0  0  0  0  0  0  0  0  0  0
  2  1  1  6
  2 13  1  0
  2  3  1  0
  3  4  1  0
  4  5  2  0
  6  5  1  0
  7  6  1  0
  8  7  2  0
  9  8  1  0
 10  9  2  0
 10 11  1  0
 11 12  2  0
 12  7  1  0
 12  4  1  0
 13 20  1  0
 14 13  2  0
 16 18  1  0
 16 15  1  6
 17 16  1  0
 19 18  1  1
 20 19  1  0
 21 22  2  0
 21 19  1  0
 23 21  1  0
 24 25  1  0
 24 23  1  0
 25 27  1  0
 26 25  2  0
M  END
$$$$
