WLG.pdb
     RDKit          3D

 27 28  0  0  1  0  0  0  0  0999 V2000
   28.2533  -20.8299  -13.6241 N   0  0  0  0  0  0  0  0  0  0  0  0
   27.3497  -20.0050  -12.8529 C   0  0  1  0  0  0  0  0  0  0  0  0
   26.2157  -19.5929  -13.8025 C   0  0  0  0  0  0  0  0  0  0  0  0
   26.7365  -18.5104  -14.6837 C   0  0  0  0  0  0  0  0  0  0  0  0
   27.9517  -17.8799  -14.5907 C   0  0  0  0  0  0  0  0  0  0  0  0
   27.9729  -16.9705  -15.6014 N   0  0  0  0  0  0  0  0  0  0  0  0
   26.8362  -17.0159  -16.3020 C   0  0  0  0  0  0  0  0  0  0  0  0
   26.3385  -16.3454  -17.3877 C   0  0  0  0  0  0  0  0  0  0  0  0
   25.0971  -16.6352  -17.8833 C   0  0  0  0  0  0  0  0  0  0  0  0
   24.2789  -17.6013  -17.3359 C   0  0  0  0  0  0  0  0  0  0  0  0
   24.7745  -18.2822  -16.2396 C   0  0  0  0  0  0  0  0  0  0  0  0
   26.0255  -17.9898  -15.7406 C   0  0  0  0  0  0  0  0  0  0  0  0
   26.7345  -20.7444  -11.7309 C   0  0  0  0  0  0  0  0  0  0  0  0
   26.5766  -21.9820  -11.8405 O   0  0  0  0  0  0  0  0  0  0  0  0
   28.0888  -21.2843   -7.4269 C   0  0  0  0  0  0  0  0  0  0  0  0
   27.6022  -19.9238   -7.8181 C   0  0  2  0  0  0  0  0  0  0  0  0
   27.8208  -18.9693   -6.6309 C   0  0  0  0  0  0  0  0  0  0  0  0
   26.1975  -19.9368   -8.2526 C   0  0  0  0  0  0  0  0  0  0  0  0
   25.7315  -20.7492   -9.3917 C   0  0  2  0  0  0  0  0  0  0  0  0
   26.3450  -20.0460  -10.5763 N   0  0  0  0  0  0  0  0  0  0  0  0
   24.3134  -20.8346   -9.7175 C   0  0  0  0  0  0  0  0  0  0  0  0
   23.4850  -21.4203   -8.9214 O   0  0  0  0  0  0  0  0  0  0  0  0
   23.6696  -20.3078  -10.8809 N   0  0  0  0  0  0  0  0  0  0  0  0
   22.2643  -20.3193  -11.1121 C   0  0  0  0  0  0  0  0  0  0  0  0
   21.7176  -21.4908  -11.8084 C   0  0  0  0  0  0  0  0  0  0  0  0
   22.4455  -22.4449  -12.1318 O   0  0  0  0  0  0  0  0  0  0  0  0
   20.3702  -21.5522  -12.1184 O   0  0  0  0  0  0  0  0  0  0  0  0
  2  1  1  6
  2 13  1  0
  2  3  1  0
  3  4  1  0
  4  5  2  0
  6  5  1  0
  7  6  1  0
  8  7  2  0
  9  8  1  0
 10  9  2  0
 10 11  1  0
 11 12  2  0
 12  7  1  0
 12  4  1  0
 13 20  1  0
 14 13  2  0
 16 18  1  0
 16 15  1  1
 17 16  1  0
 19 18  1  1
 20 19  1  0
 21 22  2  0
 21 19  1  0
 23 21  1  0
 24 25  1  0
 24 23  1  0
 25 27  1  0
 26 25  2  0
M  END
$$$$
