WLG.pdb
     RDKit          3D

 27 28  0  0  1  0  0  0  0  0999 V2000
   28.1304  -19.1855  -15.6785 N   0  0  0  0  0  0  0  0  0  0  0  0
   26.9150  -19.2519  -14.8975 C   0  0  1  0  0  0  0  0  0  0  0  0
   25.7822  -19.5846  -15.8790 C   0  0  0  0  0  0  0  0  0  0  0  0
   25.4712  -18.3455  -16.6454 C   0  0  0  0  0  0  0  0  0  0  0  0
   26.3079  -17.6648  -17.4936 C   0  0  0  0  0  0  0  0  0  0  0  0
   25.5871  -16.6061  -17.9505 N   0  0  0  0  0  0  0  0  0  0  0  0
   24.3588  -16.6084  -17.4250 C   0  0  0  0  0  0  0  0  0  0  0  0
   23.2551  -15.8049  -17.5352 C   0  0  0  0  0  0  0  0  0  0  0  0
   22.1092  -16.0872  -16.8438 C   0  0  0  0  0  0  0  0  0  0  0  0
   21.9890  -17.1766  -16.0064 C   0  0  0  0  0  0  0  0  0  0  0  0
   23.0991  -17.9923  -15.8900 C   0  0  0  0  0  0  0  0  0  0  0  0
   24.2534  -17.7073  -16.5869 C   0  0  0  0  0  0  0  0  0  0  0  0
   26.9538  -20.3329  -13.8906 C   0  0  0  0  0  0  0  0  0  0  0  0
   27.5014  -21.4177  -14.1931 O   0  0  0  0  0  0  0  0  0  0  0  0
   29.1975  -21.2562  -10.2477 C   0  0  0  0  0  0  0  0  0  0  0  0
   28.2724  -20.0799  -10.2183 C   0  0  2  0  0  0  0  0  0  0  0  0
   28.5053  -19.3108   -8.9059 C   0  0  0  0  0  0  0  0  0  0  0  0
   26.8641  -20.4729  -10.3744 C   0  0  0  0  0  0  0  0  0  0  0  0
   26.3725  -21.1899  -11.5655 C   0  0  2  0  0  0  0  0  0  0  0  0
   26.3797  -20.1185  -12.6267 N   0  0  0  0  0  0  0  0  0  0  0  0
   25.0191  -21.7295  -11.6069 C   0  0  0  0  0  0  0  0  0  0  0  0
   24.5977  -22.5320  -10.6895 O   0  0  0  0  0  0  0  0  0  0  0  0
   24.0201  -21.4594  -12.5941 N   0  0  0  0  0  0  0  0  0  0  0  0
   22.7201  -22.0404  -12.6203 C   0  0  0  0  0  0  0  0  0  0  0  0
   21.7561  -21.5509  -11.6267 C   0  0  0  0  0  0  0  0  0  0  0  0
   22.0663  -20.6664  -10.8105 O   0  0  0  0  0  0  0  0  0  0  0  0
   20.4744  -22.0713  -11.5828 O   0  0  0  0  0  0  0  0  0  0  0  0
  2  1  1  6
  2 13  1  0
  2  3  1  0
  3  4  1  0
  4  5  2  0
  6  5  1  0
  7  6  1  0
  8  7  2  0
  9  8  1  0
 10  9  2  0
 10 11  1  0
 11 12  2  0
 12  7  1  0
 12  4  1  0
 13 20  1  0
 14 13  2  0
 16 18  1  0
 16 15  1  1
 17 16  1  0
 19 18  1  1
 20 19  1  0
 21 22  2  0
 21 19  1  0
 23 21  1  0
 24 25  1  0
 24 23  1  0
 25 27  1  0
 26 25  2  0
M  END
$$$$
