WLG.pdb
     RDKit          3D

 27 28  0  0  1  0  0  0  0  0999 V2000
   25.2758  -20.8729   -8.3600 N   0  0  0  0  0  0  0  0  0  0  0  0
   26.3080  -20.3472   -9.2260 C   0  0  1  0  0  0  0  0  0  0  0  0
   27.6498  -20.6722   -8.5542 C   0  0  0  0  0  0  0  0  0  0  0  0
   27.7773  -19.7972   -7.3551 C   0  0  0  0  0  0  0  0  0  0  0  0
   27.1732  -18.5825   -7.1486 C   0  0  0  0  0  0  0  0  0  0  0  0
   27.5906  -18.1675   -5.9229 N   0  0  0  0  0  0  0  0  0  0  0  0
   28.4150  -19.0649   -5.3754 C   0  0  0  0  0  0  0  0  0  0  0  0
   29.1047  -19.1556   -4.1955 C   0  0  0  0  0  0  0  0  0  0  0  0
   29.8905  -20.2414   -3.9231 C   0  0  0  0  0  0  0  0  0  0  0  0
   30.0392  -21.2967   -4.7987 C   0  0  0  0  0  0  0  0  0  0  0  0
   29.3461  -21.2123   -5.9919 C   0  0  0  0  0  0  0  0  0  0  0  0
   28.5544  -20.1179   -6.2657 C   0  0  0  0  0  0  0  0  0  0  0  0
   26.3130  -20.9990  -10.5523 C   0  0  0  0  0  0  0  0  0  0  0  0
   26.6842  -22.1922  -10.6350 O   0  0  0  0  0  0  0  0  0  0  0  0
   24.4985  -23.5450  -13.3961 C   0  0  0  0  0  0  0  0  0  0  0  0
   23.8318  -22.2792  -12.9559 C   0  0  2  0  0  0  0  0  0  0  0  0
   22.3816  -22.2891  -13.4709 C   0  0  0  0  0  0  0  0  0  0  0  0
   24.5580  -21.0811  -13.4021 C   0  0  0  0  0  0  0  0  0  0  0  0
   25.9761  -20.8490  -13.0707 C   0  0  2  0  0  0  0  0  0  0  0  0
   25.9035  -20.2694  -11.6804 N   0  0  0  0  0  0  0  0  0  0  0  0
   26.7708  -19.8855  -13.8222 C   0  0  0  0  0  0  0  0  0  0  0  0
   26.4830  -18.6286  -13.7998 O   0  0  0  0  0  0  0  0  0  0  0  0
   27.9168  -20.1667  -14.6304 N   0  0  0  0  0  0  0  0  0  0  0  0
   28.6963  -19.1879  -15.3104 C   0  0  0  0  0  0  0  0  0  0  0  0
   28.2569  -18.8126  -16.6603 C   0  0  0  0  0  0  0  0  0  0  0  0
   27.1893  -19.2401  -17.1317 O   0  0  0  0  0  0  0  0  0  0  0  0
   29.0317  -17.9686  -17.4367 O   0  0  0  0  0  0  0  0  0  0  0  0
  2  1  1  1
  2 13  1  0
  2  3  1  0
  3  4  1  0
  4  5  2  0
  6  5  1  0
  7  6  1  0
  8  7  2  0
  9  8  1  0
 10  9  2  0
 10 11  1  0
 11 12  2  0
 12  7  1  0
 12  4  1  0
 13 20  1  0
 14 13  2  0
 16 18  1  0
 16 15  1  6
 17 16  1  0
 19 18  1  6
 20 19  1  0
 21 22  2  0
 21 19  1  0
 23 21  1  0
 24 25  1  0
 24 23  1  0
 25 27  1  0
 26 25  2  0
M  END
$$$$
