WLG.pdb
     RDKit          3D

 27 28  0  0  1  0  0  0  0  0999 V2000
   25.1782  -21.7838   -9.1884 N   0  0  0  0  0  0  0  0  0  0  0  0
   25.8899  -20.5279   -9.2778 C   0  0  1  0  0  0  0  0  0  0  0  0
   27.2511  -20.7477   -8.6022 C   0  0  0  0  0  0  0  0  0  0  0  0
   27.1205  -20.3295   -7.1783 C   0  0  0  0  0  0  0  0  0  0  0  0
   25.9758  -19.9334   -6.5335 C   0  0  0  0  0  0  0  0  0  0  0  0
   26.3517  -19.6485   -5.2581 N   0  0  0  0  0  0  0  0  0  0  0  0
   27.6622  -19.8506   -5.0951 C   0  0  0  0  0  0  0  0  0  0  0  0
   28.5406  -19.7261   -4.0516 C   0  0  0  0  0  0  0  0  0  0  0  0
   29.8664  -20.0218   -4.2107 C   0  0  0  0  0  0  0  0  0  0  0  0
   30.3986  -20.4561   -5.4067 C   0  0  0  0  0  0  0  0  0  0  0  0
   29.5180  -20.5842   -6.4648 C   0  0  0  0  0  0  0  0  0  0  0  0
   28.1821  -20.2861   -6.3038 C   0  0  0  0  0  0  0  0  0  0  0  0
   26.1541  -20.1314  -10.6767 C   0  0  0  0  0  0  0  0  0  0  0  0
   26.5506  -18.9660  -10.9072 O   0  0  0  0  0  0  0  0  0  0  0  0
   28.9439  -19.1505  -13.5334 C   0  0  0  0  0  0  0  0  0  0  0  0
   28.8320  -20.4666  -12.8291 C   0  0  2  0  0  0  0  0  0  0  0  0
   30.1458  -21.2412  -13.0346 C   0  0  0  0  0  0  0  0  0  0  0  0
   27.6677  -21.2437  -13.2790 C   0  0  0  0  0  0  0  0  0  0  0  0
   26.2864  -20.7455  -13.1432 C   0  0  2  0  0  0  0  0  0  0  0  0
   25.9560  -21.0652  -11.7070 N   0  0  0  0  0  0  0  0  0  0  0  0
   25.1980  -21.3443  -13.9057 C   0  0  0  0  0  0  0  0  0  0  0  0
   25.2396  -21.3922  -15.1938 O   0  0  0  0  0  0  0  0  0  0  0  0
   24.0094  -21.9391  -13.3775 N   0  0  0  0  0  0  0  0  0  0  0  0
   22.7861  -21.2488  -13.1423 C   0  0  0  0  0  0  0  0  0  0  0  0
   22.0544  -20.7769  -14.3248 C   0  0  0  0  0  0  0  0  0  0  0  0
   20.8429  -21.0141  -14.4690 O   0  0  0  0  0  0  0  0  0  0  0  0
   22.7082  -20.0536  -15.3071 O   0  0  0  0  0  0  0  0  0  0  0  0
  2  1  1  6
  2 13  1  0
  2  3  1  0
  3  4  1  0
  4  5  2  0
  6  5  1  0
  7  6  1  0
  8  7  2  0
  9  8  1  0
 10  9  2  0
 10 11  1  0
 11 12  2  0
 12  7  1  0
 12  4  1  0
 13 20  1  0
 14 13  2  0
 16 18  1  0
 16 15  1  6
 17 16  1  0
 19 18  1  6
 20 19  1  0
 21 22  2  0
 21 19  1  0
 23 21  1  0
 24 25  1  0
 24 23  1  0
 25 27  1  0
 26 25  2  0
M  END
$$$$
