WLG.pdb
     RDKit          3D

 27 28  0  0  1  0  0  0  0  0999 V2000
   27.4152  -21.2602  -14.6541 N   0  0  0  0  0  0  0  0  0  0  0  0
   26.8338  -20.3191  -13.7225 C   0  0  1  0  0  0  0  0  0  0  0  0
   25.5251  -19.8272  -14.3574 C   0  0  0  0  0  0  0  0  0  0  0  0
   25.8826  -18.9985  -15.5427 C   0  0  0  0  0  0  0  0  0  0  0  0
   25.7678  -19.3505  -16.8639 C   0  0  0  0  0  0  0  0  0  0  0  0
   26.2174  -18.2793  -17.5707 N   0  0  0  0  0  0  0  0  0  0  0  0
   26.5983  -17.2971  -16.7491 C   0  0  0  0  0  0  0  0  0  0  0  0
   27.1117  -16.0382  -16.9148 C   0  0  0  0  0  0  0  0  0  0  0  0
   27.4067  -15.2524  -15.8349 C   0  0  0  0  0  0  0  0  0  0  0  0
   27.2117  -15.6646  -14.5332 C   0  0  0  0  0  0  0  0  0  0  0  0
   26.6937  -16.9344  -14.3580 C   0  0  0  0  0  0  0  0  0  0  0  0
   26.3967  -17.7257  -15.4465 C   0  0  0  0  0  0  0  0  0  0  0  0
   26.4847  -20.9500  -12.4325 C   0  0  0  0  0  0  0  0  0  0  0  0
   26.1596  -22.1594  -12.4225 O   0  0  0  0  0  0  0  0  0  0  0  0
   26.9997  -18.7784   -6.7565 C   0  0  0  0  0  0  0  0  0  0  0  0
   26.8431  -20.0573   -7.5183 C   0  0  2  0  0  0  0  0  0  0  0  0
   27.9562  -21.0247   -7.0783 C   0  0  0  0  0  0  0  0  0  0  0  0
   26.8520  -19.8454   -8.9733 C   0  0  0  0  0  0  0  0  0  0  0  0
   26.1938  -20.7750   -9.9100 C   0  0  2  0  0  0  0  0  0  0  0  0
   26.5263  -20.1831  -11.2566 N   0  0  0  0  0  0  0  0  0  0  0  0
   24.7432  -20.9164   -9.9263 C   0  0  0  0  0  0  0  0  0  0  0  0
   24.1425  -21.6791   -9.0775 O   0  0  0  0  0  0  0  0  0  0  0  0
   23.8302  -20.2665  -10.8149 N   0  0  0  0  0  0  0  0  0  0  0  0
   22.4108  -20.3381  -10.7228 C   0  0  0  0  0  0  0  0  0  0  0  0
   21.7527  -21.4179  -11.4692 C   0  0  0  0  0  0  0  0  0  0  0  0
   22.4114  -22.2310  -12.1397 O   0  0  0  0  0  0  0  0  0  0  0  0
   20.3753  -21.5490  -11.4375 O   0  0  0  0  0  0  0  0  0  0  0  0
  2  1  1  6
  2 13  1  0
  2  3  1  0
  3  4  1  0
  4  5  2  0
  6  5  1  0
  7  6  1  0
  8  7  2  0
  9  8  1  0
 10  9  2  0
 10 11  1  0
 11 12  2  0
 12  7  1  0
 12  4  1  0
 13 20  1  0
 14 13  2  0
 16 18  1  0
 16 15  1  1
 17 16  1  0
 19 18  1  1
 20 19  1  0
 21 22  2  0
 21 19  1  0
 23 21  1  0
 24 25  1  0
 24 23  1  0
 25 27  1  0
 26 25  2  0
M  END
$$$$
