GML.pdb
     RDKit          3D

 21 20  0  0  1  0  0  0  0  0999 V2000
   25.8750   -7.5010  -21.2237 N   0  0  0  0  0  0  0  0  0  0  0  0
   26.6304   -8.3809  -20.3922 C   0  0  0  0  0  0  0  0  0  0  0  0
   25.7970   -8.8017  -19.2146 C   0  0  0  0  0  0  0  0  0  0  0  0
   24.5754   -8.9094  -19.4604 O   0  0  0  0  0  0  0  0  0  0  0  0
   27.1602  -13.5612  -14.6318 C   0  0  0  0  0  0  0  0  0  0  0  0
   28.2916  -12.5061  -15.6143 S   0  0  0  0  0  0  0  0  0  0  0  0
   27.2628  -11.4425  -16.6889 C   0  0  0  0  0  0  0  0  0  0  0  0
   26.7058  -10.2792  -15.9095 C   0  0  0  0  0  0  0  0  0  0  0  0
   25.8020   -9.4305  -16.7841 C   0  0  2  0  0  0  0  0  0  0  0  0
   26.4194   -9.0311  -17.9887 N   0  0  0  0  0  0  0  0  0  0  0  0
   25.0753   -8.3828  -16.0600 C   0  0  0  0  0  0  0  0  0  0  0  0
   25.6251   -7.2734  -15.8799 O   0  0  0  0  0  0  0  0  0  0  0  0
   21.8161   -4.3003  -16.9117 C   0  0  0  0  0  0  0  0  0  0  0  0
   22.0588   -5.2319  -15.7211 C   0  0  2  0  0  0  0  0  0  0  0  0
   22.7281   -4.4309  -14.6411 C   0  0  0  0  0  0  0  0  0  0  0  0
   22.8838   -6.4055  -16.1666 C   0  0  0  0  0  0  0  0  0  0  0  0
   22.9026   -7.4704  -15.1215 C   0  0  2  0  0  0  0  0  0  0  0  0
   23.7713   -8.5890  -15.5593 N   0  0  0  0  0  0  0  0  0  0  0  0
   21.5902   -7.9925  -14.7532 C   0  0  0  0  0  0  0  0  0  0  0  0
   21.0026   -8.9031  -15.3417 O   0  0  0  0  0  0  0  0  0  0  0  0
   20.9208   -7.4368  -13.6505 O   0  0  0  0  0  0  0  0  0  0  0  0
  2  1  1  0
  2  3  1  0
  3  4  2  0
  5  6  1  0
  7  6  1  0
  8  7  1  0
  9  8  1  1
 10  3  1  0
 10  9  1  0
 11  9  1  0
 12 11  2  0
 14 13  1  6
 14 15  1  0
 17 16  1  6
 16 14  1  0
 17 18  1  0
 18 11  1  0
 19 17  1  0
 20 19  2  0
 21 19  1  0
M  END
$$$$
