GML.pdb
     RDKit          3D

 21 20  0  0  1  0  0  0  0  0999 V2000
   20.8740  -11.6384  -20.3381 N   0  0  0  0  0  0  0  0  0  0  0  0
   21.7114  -10.5522  -19.9440 C   0  0  0  0  0  0  0  0  0  0  0  0
   21.4254  -10.1877  -18.5144 C   0  0  0  0  0  0  0  0  0  0  0  0
   20.2766   -9.7336  -18.3186 O   0  0  0  0  0  0  0  0  0  0  0  0
   22.4600  -15.3009  -14.7834 C   0  0  0  0  0  0  0  0  0  0  0  0
   23.2115  -13.6707  -14.4140 S   0  0  0  0  0  0  0  0  0  0  0  0
   22.3880  -12.4289  -15.4742 C   0  0  0  0  0  0  0  0  0  0  0  0
   23.0180  -11.0721  -15.2917 C   0  0  0  0  0  0  0  0  0  0  0  0
   22.3467  -10.0442  -16.1834 C   0  0  2  0  0  0  0  0  0  0  0  0
   22.4178  -10.3745  -17.5537 N   0  0  0  0  0  0  0  0  0  0  0  0
   22.6645   -8.6537  -15.8435 C   0  0  0  0  0  0  0  0  0  0  0  0
   23.7535   -8.1677  -16.2224 O   0  0  0  0  0  0  0  0  0  0  0  0
   20.5578   -3.2035  -16.1182 C   0  0  0  0  0  0  0  0  0  0  0  0
   21.5608   -4.0894  -15.3743 C   0  0  2  0  0  0  0  0  0  0  0  0
   22.9393   -3.7018  -15.8275 C   0  0  0  0  0  0  0  0  0  0  0  0
   21.2474   -5.5333  -15.6453 C   0  0  0  0  0  0  0  0  0  0  0  0
   22.0712   -6.4283  -14.7810 C   0  0  2  0  0  0  0  0  0  0  0  0
   21.7768   -7.8456  -15.1002 N   0  0  0  0  0  0  0  0  0  0  0  0
   21.9124   -6.2124  -13.3461 C   0  0  0  0  0  0  0  0  0  0  0  0
   21.2630   -6.9395  -12.5909 O   0  0  0  0  0  0  0  0  0  0  0  0
   22.5337   -5.1020  -12.7513 O   0  0  0  0  0  0  0  0  0  0  0  0
  2  1  1  0
  2  3  1  0
  3  4  2  0
  5  6  1  0
  7  6  1  0
  8  7  1  0
  9  8  1  1
 10  3  1  0
 10  9  1  0
 11  9  1  0
 12 11  2  0
 14 13  1  6
 14 15  1  0
 17 16  1  6
 16 14  1  0
 17 18  1  0
 18 11  1  0
 19 17  1  0
 20 19  2  0
 21 19  1  0
M  END
$$$$
