GML.pdb
     RDKit          3D

 21 20  0  0  1  0  0  0  0  0999 V2000
   29.8731  -23.5659  -16.3358 N   0  0  0  0  0  0  0  0  0  0  0  0
   28.4762  -23.6720  -16.6076 C   0  0  0  0  0  0  0  0  0  0  0  0
   27.7582  -22.4851  -16.0296 C   0  0  0  0  0  0  0  0  0  0  0  0
   28.5126  -21.5692  -15.6343 O   0  0  0  0  0  0  0  0  0  0  0  0
   24.6598  -21.3864  -19.9584 C   0  0  0  0  0  0  0  0  0  0  0  0
   26.2376  -20.7536  -19.2734 S   0  0  0  0  0  0  0  0  0  0  0  0
   25.8663  -19.9667  -17.6649 C   0  0  0  0  0  0  0  0  0  0  0  0
   24.8703  -20.7885  -16.8881 C   0  0  0  0  0  0  0  0  0  0  0  0
   25.5214  -21.4053  -15.6642 C   0  0  2  0  0  0  0  0  0  0  0  0
   26.3653  -22.4918  -15.9788 N   0  0  0  0  0  0  0  0  0  0  0  0
   24.6078  -21.6110  -14.5359 C   0  0  0  0  0  0  0  0  0  0  0  0
   23.7609  -22.5299  -14.5977 O   0  0  0  0  0  0  0  0  0  0  0  0
   25.7702  -22.0973  -10.3380 C   0  0  0  0  0  0  0  0  0  0  0  0
   25.6969  -20.6120  -10.7025 C   0  0  2  0  0  0  0  0  0  0  0  0
   26.2330  -19.8274   -9.5394 C   0  0  0  0  0  0  0  0  0  0  0  0
   24.2782  -20.2508  -11.0393 C   0  0  0  0  0  0  0  0  0  0  0  0
   23.7882  -21.0462  -12.2029 C   0  0  2  0  0  0  0  0  0  0  0  0
   24.6556  -20.8017  -13.3799 N   0  0  0  0  0  0  0  0  0  0  0  0
   22.3961  -20.8045  -12.5693 C   0  0  0  0  0  0  0  0  0  0  0  0
   21.4194  -21.2587  -11.9687 O   0  0  0  0  0  0  0  0  0  0  0  0
   22.1151  -19.9983  -13.6847 O   0  0  0  0  0  0  0  0  0  0  0  0
  2  1  1  0
  2  3  1  0
  3  4  2  0
  5  6  1  0
  7  6  1  0
  8  7  1  0
  9  8  1  6
 10  3  1  0
 10  9  1  0
 11  9  1  0
 12 11  2  0
 14 13  1  1
 14 15  1  0
 17 16  1  1
 16 14  1  0
 17 18  1  0
 18 11  1  0
 19 17  1  0
 20 19  2  0
 21 19  1  0
M  END
$$$$
