GML.pdb
     RDKit          3D

 21 20  0  0  1  0  0  0  0  0999 V2000
   39.1480  -26.2669    3.7045 N   0  0  0  0  0  0  0  0  0  0  0  0
   37.7790  -26.3604    4.0963 C   0  0  0  0  0  0  0  0  0  0  0  0
   37.4126  -25.1703    4.9376 C   0  0  0  0  0  0  0  0  0  0  0  0
   38.3919  -24.5152    5.3573 O   0  0  0  0  0  0  0  0  0  0  0  0
   32.1102  -22.3725    3.4650 C   0  0  0  0  0  0  0  0  0  0  0  0
   32.3206  -21.3633    4.9803 S   0  0  0  0  0  0  0  0  0  0  0  0
   33.7286  -22.0590    5.9173 C   0  0  0  0  0  0  0  0  0  0  0  0
   34.1617  -23.3760    5.3267 C   0  0  0  0  0  0  0  0  0  0  0  0
   35.5351  -23.7682    5.8387 C   0  0  2  0  0  0  0  0  0  0  0  0
   36.0673  -24.8958    5.1776 N   0  0  0  0  0  0  0  0  0  0  0  0
   35.6549  -23.7682    7.3002 C   0  0  0  0  0  0  0  0  0  0  0  0
   35.1365  -24.7007    7.9538 O   0  0  0  0  0  0  0  0  0  0  0  0
   39.1906  -23.8010    9.8727 C   0  0  0  0  0  0  0  0  0  0  0  0
   38.9370  -22.3986    9.3128 C   0  0  2  0  0  0  0  0  0  0  0  0
   40.1107  -21.5378    9.6834 C   0  0  0  0  0  0  0  0  0  0  0  0
   37.6392  -21.8722    9.8559 C   0  0  0  0  0  0  0  0  0  0  0  0
   36.5015  -22.7558    9.4662 C   0  0  2  0  0  0  0  0  0  0  0  0
   36.3391  -22.7456    7.9928 N   0  0  0  0  0  0  0  0  0  0  0  0
   35.2261  -22.4282   10.0959 C   0  0  0  0  0  0  0  0  0  0  0  0
   34.3117  -21.8028    9.5540 O   0  0  0  0  0  0  0  0  0  0  0  0
   34.9923  -22.8425   11.4175 O   0  0  0  0  0  0  0  0  0  0  0  0
  2  1  1  0
  2  3  1  0
  3  4  2  0
  5  6  1  0
  7  6  1  0
  8  7  1  0
  9  8  1  1
 10  3  1  0
 10  9  1  0
 11  9  1  0
 12 11  2  0
 14 13  1  1
 14 15  1  0
 17 16  1  6
 16 14  1  0
 17 18  1  0
 18 11  1  0
 19 17  1  0
 20 19  2  0
 21 19  1  0
M  END
$$$$
