GML.pdb
     RDKit          3D

 21 20  0  0  1  0  0  0  0  0999 V2000
   19.7275  -11.9020  -14.9599 N   0  0  0  0  0  0  0  0  0  0  0  0
   19.1569  -11.6718  -13.6724 C   0  0  0  0  0  0  0  0  0  0  0  0
   18.0183  -10.6982  -13.7920 C   0  0  0  0  0  0  0  0  0  0  0  0
   17.7089  -10.4097  -14.9689 O   0  0  0  0  0  0  0  0  0  0  0  0
   13.3680  -10.8753   -9.5443 C   0  0  0  0  0  0  0  0  0  0  0  0
   13.0395   -9.1481  -10.0615 S   0  0  0  0  0  0  0  0  0  0  0  0
   14.1642   -8.7633  -11.4513 C   0  0  0  0  0  0  0  0  0  0  0  0
   15.4041   -9.6172  -11.3842 C   0  0  0  0  0  0  0  0  0  0  0  0
   16.3245   -9.3201  -12.5532 C   0  0  2  0  0  0  0  0  0  0  0  0
   17.4170  -10.2098  -12.6332 N   0  0  0  0  0  0  0  0  0  0  0  0
   16.6437   -7.8988  -12.7215 C   0  0  0  0  0  0  0  0  0  0  0  0
   17.4544   -7.3595  -11.9357 O   0  0  0  0  0  0  0  0  0  0  0  0
   16.4748   -3.5405  -17.0249 C   0  0  0  0  0  0  0  0  0  0  0  0
   16.9509   -3.9791  -15.6373 C   0  0  2  0  0  0  0  0  0  0  0  0
   18.4365   -3.7670  -15.5739 C   0  0  0  0  0  0  0  0  0  0  0  0
   16.5606   -5.4111  -15.4059 C   0  0  0  0  0  0  0  0  0  0  0  0
   16.4053   -5.6918  -13.9486 C   0  0  2  0  0  0  0  0  0  0  0  0
   16.0624   -7.1196  -13.7455 N   0  0  0  0  0  0  0  0  0  0  0  0
   15.4238   -4.8564  -13.2636 C   0  0  0  0  0  0  0  0  0  0  0  0
   14.2075   -5.0596  -13.2551 O   0  0  0  0  0  0  0  0  0  0  0  0
   15.8665   -3.7291  -12.5521 O   0  0  0  0  0  0  0  0  0  0  0  0
  2  1  1  0
  2  3  1  0
  3  4  2  0
  5  6  1  0
  7  6  1  0
  8  7  1  0
  9  8  1  1
 10  3  1  0
 10  9  1  0
 11  9  1  0
 12 11  2  0
 14 13  1  6
 14 15  1  0
 17 16  1  6
 16 14  1  0
 17 18  1  0
 18 11  1  0
 19 17  1  0
 20 19  2  0
 21 19  1  0
M  END
$$$$
