GML.pdb
     RDKit          3D

 21 20  0  0  1  0  0  0  0  0999 V2000
   28.2500  -21.6317  -15.8378 N   0  0  0  0  0  0  0  0  0  0  0  0
   28.0824  -20.7310  -14.7437 C   0  0  0  0  0  0  0  0  0  0  0  0
   27.0165  -21.2511  -13.8209 C   0  0  0  0  0  0  0  0  0  0  0  0
   26.2728  -22.1183  -14.3299 O   0  0  0  0  0  0  0  0  0  0  0  0
   26.5428  -19.1695   -7.2814 C   0  0  0  0  0  0  0  0  0  0  0  0
   25.7970  -20.8324   -7.4745 S   0  0  0  0  0  0  0  0  0  0  0  0
   25.2072  -20.9773   -9.1995 C   0  0  0  0  0  0  0  0  0  0  0  0
   26.3027  -20.6140  -10.1685 C   0  0  0  0  0  0  0  0  0  0  0  0
   25.9032  -20.9695  -11.5884 C   0  0  2  0  0  0  0  0  0  0  0  0
   26.9384  -20.7508  -12.5223 N   0  0  0  0  0  0  0  0  0  0  0  0
   24.5760  -20.4838  -11.9794 C   0  0  0  0  0  0  0  0  0  0  0  0
   24.4336  -19.2783  -12.2826 O   0  0  0  0  0  0  0  0  0  0  0  0
   19.9841  -21.9769  -14.5256 C   0  0  0  0  0  0  0  0  0  0  0  0
   21.1711  -21.1475  -15.0230 C   0  0  2  0  0  0  0  0  0  0  0  0
   21.3547  -21.4403  -16.4846 C   0  0  0  0  0  0  0  0  0  0  0  0
   22.3885  -21.4811  -14.2087 C   0  0  0  0  0  0  0  0  0  0  0  0
   22.2345  -21.0072  -12.8021 C   0  0  2  0  0  0  0  0  0  0  0  0
   23.4523  -21.3376  -12.0242 N   0  0  0  0  0  0  0  0  0  0  0  0
   21.0603  -21.5234  -12.1053 C   0  0  0  0  0  0  0  0  0  0  0  0
   21.0114  -22.6014  -11.5084 O   0  0  0  0  0  0  0  0  0  0  0  0
   19.8824  -20.7583  -12.0960 O   0  0  0  0  0  0  0  0  0  0  0  0
  2  1  1  0
  2  3  1  0
  3  4  2  0
  5  6  1  0
  7  6  1  0
  8  7  1  0
  9  8  1  1
 10  3  1  0
 10  9  1  0
 11  9  1  0
 12 11  2  0
 14 13  1  1
 14 15  1  0
 17 16  1  6
 16 14  1  0
 17 18  1  0
 18 11  1  0
 19 17  1  0
 20 19  2  0
 21 19  1  0
M  END
$$$$
