GML.pdb
     RDKit          3D

 21 20  0  0  1  0  0  0  0  0999 V2000
   16.3470  -14.2880  -16.2341 N   0  0  0  0  0  0  0  0  0  0  0  0
   15.8567  -13.3596  -15.2677 C   0  0  0  0  0  0  0  0  0  0  0  0
   16.4237  -11.9958  -15.5453 C   0  0  0  0  0  0  0  0  0  0  0  0
   17.2626  -11.9658  -16.4724 O   0  0  0  0  0  0  0  0  0  0  0  0
   11.1675   -8.2814  -15.5777 C   0  0  0  0  0  0  0  0  0  0  0  0
   12.7019   -7.7713  -14.7149 S   0  0  0  0  0  0  0  0  0  0  0  0
   14.0148   -8.9594  -15.1722 C   0  0  0  0  0  0  0  0  0  0  0  0
   15.3249   -8.5761  -14.5336 C   0  0  0  0  0  0  0  0  0  0  0  0
   16.4116   -9.5698  -14.8997 C   0  0  2  0  0  0  0  0  0  0  0  0
   15.9917  -10.9120  -14.7826 N   0  0  0  0  0  0  0  0  0  0  0  0
   17.7270   -9.2592  -14.3311 C   0  0  0  0  0  0  0  0  0  0  0  0
   18.0576   -9.7783  -13.2417 O   0  0  0  0  0  0  0  0  0  0  0  0
   23.1652  -10.2250  -15.0819 C   0  0  0  0  0  0  0  0  0  0  0  0
   22.2494   -9.2514  -14.3349 C   0  0  2  0  0  0  0  0  0  0  0  0
   22.3694   -9.5441  -12.8666 C   0  0  0  0  0  0  0  0  0  0  0  0
   20.8433   -9.4012  -14.8417 C   0  0  0  0  0  0  0  0  0  0  0  0
   20.0250   -8.1997  -14.5045 C   0  0  2  0  0  0  0  0  0  0  0  0
   18.6332   -8.3907  -14.9776 N   0  0  0  0  0  0  0  0  0  0  0  0
   20.5438   -6.9381  -15.0238 C   0  0  0  0  0  0  0  0  0  0  0  0
   20.1889   -6.4108  -16.0806 O   0  0  0  0  0  0  0  0  0  0  0  0
   21.5216   -6.2488  -14.2876 O   0  0  0  0  0  0  0  0  0  0  0  0
  2  1  1  0
  2  3  1  0
  3  4  2  0
  5  6  1  0
  7  6  1  0
  8  7  1  0
  9  8  1  1
 10  3  1  0
 10  9  1  0
 11  9  1  0
 12 11  2  0
 14 13  1  6
 14 15  1  0
 17 16  1  6
 16 14  1  0
 17 18  1  0
 18 11  1  0
 19 17  1  0
 20 19  2  0
 21 19  1  0
M  END
$$$$
