GML.pdb
     RDKit          3D

 21 20  0  0  1  0  0  0  0  0999 V2000
   16.8055  -14.4846  -15.9220 N   0  0  0  0  0  0  0  0  0  0  0  0
   16.5075  -13.1017  -15.7344 C   0  0  0  0  0  0  0  0  0  0  0  0
   17.7199  -12.2756  -16.0601 C   0  0  0  0  0  0  0  0  0  0  0  0
   18.7502  -12.6028  -15.4310 O   0  0  0  0  0  0  0  0  0  0  0  0
   16.0523  -10.6081  -21.4080 C   0  0  0  0  0  0  0  0  0  0  0  0
   17.8300  -10.1665  -21.4667 S   0  0  0  0  0  0  0  0  0  0  0  0
   18.5962  -10.7478  -19.9112 C   0  0  0  0  0  0  0  0  0  0  0  0
   18.3435   -9.7673  -18.7950 C   0  0  0  0  0  0  0  0  0  0  0  0
   18.6430  -10.3984  -17.4481 C   0  0  2  0  0  0  0  0  0  0  0  0
   17.6119  -11.2505  -16.9984 N   0  0  0  0  0  0  0  0  0  0  0  0
   19.1812   -9.4654  -16.4531 C   0  0  0  0  0  0  0  0  0  0  0  0
   18.4029   -8.9433  -15.6241 O   0  0  0  0  0  0  0  0  0  0  0  0
   22.0089   -9.9870  -13.1590 C   0  0  0  0  0  0  0  0  0  0  0  0
   22.7142   -9.9676  -14.5178 C   0  0  2  0  0  0  0  0  0  0  0  0
   24.1504  -10.3466  -14.2944 C   0  0  0  0  0  0  0  0  0  0  0  0
   22.5645   -8.6075  -15.1378 C   0  0  0  0  0  0  0  0  0  0  0  0
   21.1253   -8.2720  -15.3441 C   0  0  2  0  0  0  0  0  0  0  0  0
   20.5539   -9.1384  -16.4025 N   0  0  0  0  0  0  0  0  0  0  0  0
   20.8612   -6.8736  -15.6687 C   0  0  0  0  0  0  0  0  0  0  0  0
   20.9031   -5.9419  -14.8618 O   0  0  0  0  0  0  0  0  0  0  0  0
   20.5322   -6.5313  -16.9906 O   0  0  0  0  0  0  0  0  0  0  0  0
  2  1  1  0
  2  3  1  0
  3  4  2  0
  5  6  1  0
  7  6  1  0
  8  7  1  0
  9  8  1  6
 10  3  1  0
 10  9  1  0
 11  9  1  0
 12 11  2  0
 14 13  1  1
 14 15  1  0
 17 16  1  6
 16 14  1  0
 17 18  1  0
 18 11  1  0
 19 17  1  0
 20 19  2  0
 21 19  1  0
M  END
$$$$
