GML.pdb
     RDKit          3D

 21 20  0  0  1  0  0  0  0  0999 V2000
   27.9598  -16.8733  -16.2508 N   0  0  0  0  0  0  0  0  0  0  0  0
   26.7977  -16.7627  -15.4300 C   0  0  0  0  0  0  0  0  0  0  0  0
   26.3481  -18.1322  -15.0049 C   0  0  0  0  0  0  0  0  0  0  0  0
   25.8724  -18.8280  -15.9289 O   0  0  0  0  0  0  0  0  0  0  0  0
   29.4253  -21.7381  -10.9321 C   0  0  0  0  0  0  0  0  0  0  0  0
   27.7798  -22.0658  -10.1947 S   0  0  0  0  0  0  0  0  0  0  0  0
   26.5161  -21.4704  -11.3750 C   0  0  0  0  0  0  0  0  0  0  0  0
   26.8206  -20.0614  -11.8143 C   0  0  0  0  0  0  0  0  0  0  0  0
   26.0572  -19.7168  -13.0795 C   0  0  2  0  0  0  0  0  0  0  0  0
   26.4882  -18.5099  -13.6706 N   0  0  0  0  0  0  0  0  0  0  0  0
   24.6054  -19.8940  -12.9732 C   0  0  0  0  0  0  0  0  0  0  0  0
   23.9551  -19.1473  -12.2084 O   0  0  0  0  0  0  0  0  0  0  0  0
   20.8740  -18.6981  -14.8251 C   0  0  0  0  0  0  0  0  0  0  0  0
   21.9102  -19.4624  -15.6535 C   0  0  2  0  0  0  0  0  0  0  0  0
   21.5133  -19.3535  -17.0980 C   0  0  0  0  0  0  0  0  0  0  0  0
   21.9773  -20.8857  -15.1778 C   0  0  0  0  0  0  0  0  0  0  0  0
   22.4387  -20.9520  -13.7603 C   0  0  2  0  0  0  0  0  0  0  0  0
   23.9187  -20.8837  -13.7097 N   0  0  0  0  0  0  0  0  0  0  0  0
   21.9830  -22.1248  -13.0204 C   0  0  0  0  0  0  0  0  0  0  0  0
   20.8649  -22.2498  -12.5152 O   0  0  0  0  0  0  0  0  0  0  0  0
   22.8604  -23.2090  -12.8542 O   0  0  0  0  0  0  0  0  0  0  0  0
  2  1  1  0
  2  3  1  0
  3  4  2  0
  5  6  1  0
  7  6  1  0
  8  7  1  0
  9  8  1  1
 10  3  1  0
 10  9  1  0
 11  9  1  0
 12 11  2  0
 14 13  1  1
 14 15  1  0
 17 16  1  6
 16 14  1  0
 17 18  1  0
 18 11  1  0
 19 17  1  0
 20 19  2  0
 21 19  1  0
M  END
$$$$
