GML.pdb
     RDKit          3D

 21 20  0  0  1  0  0  0  0  0999 V2000
   21.4503  -14.3317  -20.5244 N   0  0  0  0  0  0  0  0  0  0  0  0
   21.7780  -12.9441  -20.4654 C   0  0  0  0  0  0  0  0  0  0  0  0
   21.7737  -12.4851  -19.0345 C   0  0  0  0  0  0  0  0  0  0  0  0
   20.6331  -12.3664  -18.5351 O   0  0  0  0  0  0  0  0  0  0  0  0
   26.4515  -13.5519  -14.5497 C   0  0  0  0  0  0  0  0  0  0  0  0
   25.6303  -14.7608  -15.6555 S   0  0  0  0  0  0  0  0  0  0  0  0
   24.1651  -13.9411  -16.3805 C   0  0  0  0  0  0  0  0  0  0  0  0
   24.3336  -12.4436  -16.3696 C   0  0  0  0  0  0  0  0  0  0  0  0
   23.1749  -11.7678  -17.0787 C   0  0  2  0  0  0  0  0  0  0  0  0
   22.9878  -12.2365  -18.3967 N   0  0  0  0  0  0  0  0  0  0  0  0
   23.1296  -10.3125  -16.9051 C   0  0  0  0  0  0  0  0  0  0  0  0
   23.7841   -9.5854  -17.6851 O   0  0  0  0  0  0  0  0  0  0  0  0
   20.3034   -5.9583  -15.8188 C   0  0  0  0  0  0  0  0  0  0  0  0
   21.3115   -6.2418  -16.9358 C   0  0  2  0  0  0  0  0  0  0  0  0
   20.7613   -5.6627  -18.2078 C   0  0  0  0  0  0  0  0  0  0  0  0
   21.5488   -7.7222  -17.0292 C   0  0  0  0  0  0  0  0  0  0  0  0
   22.1938   -8.2374  -15.7862 C   0  0  2  0  0  0  0  0  0  0  0  0
   22.3680   -9.7064  -15.8822 N   0  0  0  0  0  0  0  0  0  0  0  0
   21.4896   -7.9135  -14.5494 C   0  0  0  0  0  0  0  0  0  0  0  0
   21.6208   -6.8629  -13.9172 O   0  0  0  0  0  0  0  0  0  0  0  0
   20.5881   -8.8481  -14.0138 O   0  0  0  0  0  0  0  0  0  0  0  0
  2  1  1  0
  2  3  1  0
  3  4  2  0
  5  6  1  0
  7  6  1  0
  8  7  1  0
  9  8  1  6
 10  3  1  0
 10  9  1  0
 11  9  1  0
 12 11  2  0
 14 13  1  1
 14 15  1  0
 17 16  1  6
 16 14  1  0
 17 18  1  0
 18 11  1  0
 19 17  1  0
 20 19  2  0
 21 19  1  0
M  END
$$$$
