GML.pdb
     RDKit          3D

 21 20  0  0  1  0  0  0  0  0999 V2000
   27.5451  -21.0063  -16.8118 N   0  0  0  0  0  0  0  0  0  0  0  0
   27.9886  -20.1630  -15.7495 C   0  0  0  0  0  0  0  0  0  0  0  0
   27.8833  -20.8992  -14.4436 C   0  0  0  0  0  0  0  0  0  0  0  0
   27.0810  -21.8586  -14.4564 O   0  0  0  0  0  0  0  0  0  0  0  0
   32.1488  -21.4728   -9.4900 C   0  0  0  0  0  0  0  0  0  0  0  0
   32.3526  -22.2017  -11.1592 S   0  0  0  0  0  0  0  0  0  0  0  0
   30.7764  -21.9745  -12.0583 C   0  0  0  0  0  0  0  0  0  0  0  0
   29.8739  -21.0219  -11.3174 C   0  0  0  0  0  0  0  0  0  0  0  0
   28.5345  -20.8960  -12.0190 C   0  0  2  0  0  0  0  0  0  0  0  0
   28.6539  -20.4774  -13.3614 N   0  0  0  0  0  0  0  0  0  0  0  0
   27.5021  -20.2192  -11.2275 C   0  0  0  0  0  0  0  0  0  0  0  0
   27.4110  -18.9726  -11.2839 O   0  0  0  0  0  0  0  0  0  0  0  0
   21.9712  -20.9332   -9.9251 C   0  0  0  0  0  0  0  0  0  0  0  0
   23.2922  -20.1642  -10.0145 C   0  0  2  0  0  0  0  0  0  0  0  0
   23.5448  -19.8533  -11.4620 C   0  0  0  0  0  0  0  0  0  0  0  0
   24.3894  -20.9850   -9.3990 C   0  0  0  0  0  0  0  0  0  0  0  0
   25.6916  -20.2581   -9.4516 C   0  0  2  0  0  0  0  0  0  0  0  0
   26.6063  -20.9337  -10.4025 N   0  0  0  0  0  0  0  0  0  0  0  0
   26.3608  -20.1034   -8.1636 C   0  0  0  0  0  0  0  0  0  0  0  0
   27.2815  -20.8158   -7.7567 O   0  0  0  0  0  0  0  0  0  0  0  0
   25.9479  -19.0750   -7.3005 O   0  0  0  0  0  0  0  0  0  0  0  0
  2  1  1  0
  2  3  1  0
  3  4  2  0
  5  6  1  0
  7  6  1  0
  8  7  1  0
  9  8  1  1
 10  3  1  0
 10  9  1  0
 11  9  1  0
 12 11  2  0
 14 13  1  6
 14 15  1  0
 17 16  1  1
 16 14  1  0
 17 18  1  0
 18 11  1  0
 19 17  1  0
 20 19  2  0
 21 19  1  0
M  END
$$$$
