GML.pdb
     RDKit          3D

 21 20  0  0  1  0  0  0  0  0999 V2000
   26.0878  -22.2437  -15.3994 N   0  0  0  0  0  0  0  0  0  0  0  0
   24.8505  -21.6904  -15.8456 C   0  0  0  0  0  0  0  0  0  0  0  0
   23.8542  -21.7098  -14.7207 C   0  0  0  0  0  0  0  0  0  0  0  0
   24.2501  -22.3016  -13.6924 O   0  0  0  0  0  0  0  0  0  0  0  0
   19.4840  -17.2906  -12.3161 C   0  0  0  0  0  0  0  0  0  0  0  0
   20.8168  -17.0195  -13.5445 S   0  0  0  0  0  0  0  0  0  0  0  0
   21.7422  -18.5879  -13.7120 C   0  0  0  0  0  0  0  0  0  0  0  0
   20.8028  -19.7324  -13.9924 C   0  0  0  0  0  0  0  0  0  0  0  0
   21.5476  -21.0542  -13.9774 C   0  0  2  0  0  0  0  0  0  0  0  0
   22.6166  -21.0938  -14.8980 N   0  0  0  0  0  0  0  0  0  0  0  0
   20.6779  -22.2346  -13.9563 C   0  0  0  0  0  0  0  0  0  0  0  0
   20.1911  -22.6518  -15.0308 O   0  0  0  0  0  0  0  0  0  0  0  0
   18.7102  -26.5379   -9.9234 C   0  0  0  0  0  0  0  0  0  0  0  0
   18.9532  -26.1265  -11.3781 C   0  0  2  0  0  0  0  0  0  0  0  0
   19.6893  -27.2474  -12.0548 C   0  0  0  0  0  0  0  0  0  0  0  0
   19.7148  -24.8321  -11.4095 C   0  0  0  0  0  0  0  0  0  0  0  0
   19.5687  -24.1605  -12.7340 C   0  0  2  0  0  0  0  0  0  0  0  0
   20.3731  -22.9155  -12.7576 N   0  0  0  0  0  0  0  0  0  0  0  0
   18.1943  -23.8560  -13.1198 C   0  0  0  0  0  0  0  0  0  0  0  0
   17.5142  -22.9430  -12.6457 O   0  0  0  0  0  0  0  0  0  0  0  0
   17.5718  -24.6438  -14.1020 O   0  0  0  0  0  0  0  0  0  0  0  0
  2  1  1  0
  2  3  1  0
  3  4  2  0
  5  6  1  0
  7  6  1  0
  8  7  1  0
  9  8  1  6
 10  3  1  0
 10  9  1  0
 11  9  1  0
 12 11  2  0
 14 13  1  1
 14 15  1  0
 17 16  1  1
 16 14  1  0
 17 18  1  0
 18 11  1  0
 19 17  1  0
 20 19  2  0
 21 19  1  0
M  END
$$$$
