GML.pdb
     RDKit          3D

 21 20  0  0  1  0  0  0  0  0999 V2000
   28.3316  -22.2661  -15.6742 N   0  0  0  0  0  0  0  0  0  0  0  0
   27.8609  -21.1706  -14.8902 C   0  0  0  0  0  0  0  0  0  0  0  0
   26.5928  -21.5627  -14.1855 C   0  0  0  0  0  0  0  0  0  0  0  0
   25.9917  -22.5281  -14.7061 O   0  0  0  0  0  0  0  0  0  0  0  0
   24.6742  -20.7423   -7.7441 C   0  0  0  0  0  0  0  0  0  0  0  0
   26.3449  -20.5591   -8.4748 S   0  0  0  0  0  0  0  0  0  0  0  0
   26.2541  -21.1240  -10.2118 C   0  0  0  0  0  0  0  0  0  0  0  0
   25.0752  -20.5000  -10.9131 C   0  0  0  0  0  0  0  0  0  0  0  0
   24.9830  -20.9887  -12.3465 C   0  0  2  0  0  0  0  0  0  0  0  0
   26.1971  -20.8528  -13.0532 N   0  0  0  0  0  0  0  0  0  0  0  0
   23.7775  -20.5485  -13.0559 C   0  0  0  0  0  0  0  0  0  0  0  0
   23.7067  -19.3669  -13.4612 O   0  0  0  0  0  0  0  0  0  0  0  0
   22.0330  -20.2984  -16.8057 C   0  0  0  0  0  0  0  0  0  0  0  0
   22.1544  -21.7036  -16.2099 C   0  0  2  0  0  0  0  0  0  0  0  0
   21.9692  -22.6922  -17.3254 C   0  0  0  0  0  0  0  0  0  0  0  0
   21.1398  -21.8701  -15.1148 C   0  0  0  0  0  0  0  0  0  0  0  0
   21.4472  -20.9724  -13.9632 C   0  0  2  0  0  0  0  0  0  0  0  0
   22.6927  -21.4199  -13.2955 N   0  0  0  0  0  0  0  0  0  0  0  0
   20.3814  -20.8578  -12.9724 C   0  0  0  0  0  0  0  0  0  0  0  0
   20.3443  -21.4694  -11.9022 O   0  0  0  0  0  0  0  0  0  0  0  0
   19.3033  -19.9945  -13.2281 O   0  0  0  0  0  0  0  0  0  0  0  0
  2  1  1  0
  2  3  1  0
  3  4  2  0
  5  6  1  0
  7  6  1  0
  8  7  1  0
  9  8  1  1
 10  3  1  0
 10  9  1  0
 11  9  1  0
 12 11  2  0
 14 13  1  6
 14 15  1  0
 17 16  1  6
 16 14  1  0
 17 18  1  0
 18 11  1  0
 19 17  1  0
 20 19  2  0
 21 19  1  0
M  END
$$$$
