RYG.pdb
     RDKit          3D

 28 28  0  0  1  0  0  0  0  0999 V2000
    7.9422  -19.3534   15.1095 N   0  0  0  0  0  0  0  0  0  0  0  0
    8.7280  -18.8804   16.2173 C   0  0  0  0  0  0  0  0  0  0  0  0
    9.9662  -19.2012   16.3448 N   0  0  0  0  0  0  0  0  0  0  0  0
    8.1535  -18.0362   17.2127 N   0  0  0  0  0  0  0  0  0  0  0  0
    8.9485  -17.5355   18.3070 C   0  0  0  0  0  0  0  0  0  0  0  0
    8.0760  -16.6783   19.1794 C   0  0  0  0  0  0  0  0  0  0  0  0
    8.8556  -16.1276   20.3753 C   0  0  0  0  0  0  0  0  0  0  0  0
    7.8867  -15.3328   21.2022 C   0  0  2  0  0  0  0  0  0  0  0  0
    7.4145  -14.1552   20.5497 N   0  0  0  0  0  0  0  0  0  0  0  0
    8.4004  -14.9924   22.5395 C   0  0  0  0  0  0  0  0  0  0  0  0
    8.8869  -13.8125   22.6739 O   0  0  0  0  0  0  0  0  0  0  0  0
   10.5080  -18.8413   17.1530 O   0  0  0  0  0  0  0  0  0  0  0  0
    6.5295  -10.0251   27.0779 C   0  0  0  0  0  0  0  0  0  0  0  0
    6.9171  -11.3400   26.8103 C   0  0  0  0  0  0  0  0  0  0  0  0
    8.2255  -11.7548   26.8817 C   0  0  0  0  0  0  0  0  0  0  0  0
    8.5748  -13.0560   26.6124 C   0  0  0  0  0  0  0  0  0  0  0  0
    7.6089  -14.0075   26.2551 C   0  0  0  0  0  0  0  0  0  0  0  0
    7.9714  -15.3908   25.9670 C   0  0  2  0  0  0  0  0  0  0  0  0
    9.0198  -15.4765   24.8868 N   0  0  0  0  0  0  0  0  0  0  0  0
    8.3802  -15.8744   23.6343 C   0  0  0  0  0  0  0  0  0  0  0  0
   10.1546  -16.3459   25.1744 O   0  0  0  0  0  0  0  0  0  0  0  0
   10.4480  -16.5540   26.3913 C   0  0  0  0  0  0  0  0  0  0  0  0
    6.3091  -13.5694   26.1906 C   0  0  0  0  0  0  0  0  0  0  0  0
    5.9383  -12.2590   26.4593 N   0  0  0  0  0  0  0  0  0  0  0  0
   10.9502  -16.9799   24.2019 C   0  0  0  0  0  0  0  0  0  0  0  0
   12.0334  -17.8788   24.5544 C   0  0  0  0  0  0  0  0  0  0  0  0
   12.7136  -18.4663   23.4044 O   0  0  0  0  0  0  0  0  0  0  0  0
   12.4515  -18.0918   22.2406 O   0  0  0  0  0  0  0  0  0  0  0  0
  2  1  1  0
  3  2  2  0
  4  2  1  0
  5  4  1  0
  6  5  1  0
  7  6  1  0
  8 10  1  0
  8  7  1  0
  8  9  1  6
 10 11  2  0
 12 13  1  0
 13 23  2  0
 13 14  1  0
 14 15  2  0
 15 16  1  0
 16 17  1  0
 18 17  1  6
 19 18  1  0
 19 10  1  0
 20 21  2  0
 20 18  1  0
 22 16  2  0
 23 22  1  0
 24 20  1  0
 25 24  1  0
 26 28  1  0
 26 25  1  0
 27 26  2  0
M  END
$$$$
