RYG.pdb
     RDKit          3D

 28 28  0  0  1  0  0  0  0  0999 V2000
    9.9102  -16.3653   16.8815 N   0  0  0  0  0  0  0  0  0  0  0  0
    8.8718  -16.1238   15.9163 C   0  0  0  0  0  0  0  0  0  0  0  0
    9.1247  -16.0855   14.6566 N   0  0  0  0  0  0  0  0  0  0  0  0
    7.5227  -15.9187   16.3306 N   0  0  0  0  0  0  0  0  0  0  0  0
    7.1966  -15.7312   17.7229 C   0  0  0  0  0  0  0  0  0  0  0  0
    7.8738  -14.4813   18.2090 C   0  0  0  0  0  0  0  0  0  0  0  0
    8.6753  -14.7437   19.4857 C   0  0  0  0  0  0  0  0  0  0  0  0
    8.1776  -13.7785   20.5224 C   0  0  2  0  0  0  0  0  0  0  0  0
    8.3568  -12.4106   20.1585 N   0  0  0  0  0  0  0  0  0  0  0  0
    8.7392  -14.0178   21.8623 C   0  0  0  0  0  0  0  0  0  0  0  0
    9.7009  -13.2459   22.2175 O   0  0  0  0  0  0  0  0  0  0  0  0
    8.3441  -15.9882   13.9801 O   0  0  0  0  0  0  0  0  0  0  0  0
    5.8871  -10.2630   26.6312 C   0  0  0  0  0  0  0  0  0  0  0  0
    6.4153  -11.5043   26.2689 C   0  0  0  0  0  0  0  0  0  0  0  0
    7.7060  -11.8735   26.5635 C   0  0  0  0  0  0  0  0  0  0  0  0
    8.1964  -13.1023   26.1933 C   0  0  0  0  0  0  0  0  0  0  0  0
    7.3975  -14.0239   25.5014 C   0  0  0  0  0  0  0  0  0  0  0  0
    7.9106  -15.3303   25.1041 C   0  0  2  0  0  0  0  0  0  0  0  0
    8.9521  -15.2116   24.0204 N   0  0  0  0  0  0  0  0  0  0  0  0
    8.2816  -15.0199   22.7359 C   0  0  0  0  0  0  0  0  0  0  0  0
    9.9045  -16.3125   23.9352 O   0  0  0  0  0  0  0  0  0  0  0  0
   10.4867  -16.6762   25.0025 C   0  0  0  0  0  0  0  0  0  0  0  0
    6.1121  -13.6324   25.2187 C   0  0  0  0  0  0  0  0  0  0  0  0
    5.6003  -12.3951   25.5851 N   0  0  0  0  0  0  0  0  0  0  0  0
   10.2255  -17.0103   22.7559 C   0  0  0  0  0  0  0  0  0  0  0  0
   11.0778  -18.1846   22.7593 C   0  0  0  0  0  0  0  0  0  0  0  0
   12.5046  -17.8811   22.7107 O   0  0  0  0  0  0  0  0  0  0  0  0
   12.9249  -16.7242   22.9306 O   0  0  0  0  0  0  0  0  0  0  0  0
  2  1  1  0
  3  2  2  0
  4  2  1  0
  5  4  1  0
  6  5  1  0
  7  6  1  0
  8 10  1  0
  8  7  1  0
  8  9  1  6
 10 11  2  0
 12 13  1  0
 13 23  2  0
 13 14  1  0
 14 15  2  0
 15 16  1  0
 16 17  1  0
 18 17  1  1
 19 18  1  0
 19 10  1  0
 20 21  2  0
 20 18  1  0
 22 16  2  0
 23 22  1  0
 24 20  1  0
 25 24  1  0
 26 28  1  0
 26 25  1  0
 27 26  2  0
M  END
$$$$
