RYG.pdb
     RDKit          3D

 28 28  0  0  1  0  0  0  0  0999 V2000
    8.2950  -12.3872   16.8238 N   0  0  0  0  0  0  0  0  0  0  0  0
    8.1186  -13.8145   16.8266 C   0  0  0  0  0  0  0  0  0  0  0  0
    8.5005  -14.5381   15.8353 N   0  0  0  0  0  0  0  0  0  0  0  0
    7.5114  -14.4732   17.9362 N   0  0  0  0  0  0  0  0  0  0  0  0
    7.5219  -15.9118   18.0390 C   0  0  0  0  0  0  0  0  0  0  0  0
    6.8077  -16.3068   19.3003 C   0  0  0  0  0  0  0  0  0  0  0  0
    7.4211  -15.6231   20.5240 C   0  0  0  0  0  0  0  0  0  0  0  0
    6.6924  -16.1439   21.7289 C   0  0  2  0  0  0  0  0  0  0  0  0
    5.2840  -15.9202   21.6824 N   0  0  0  0  0  0  0  0  0  0  0  0
    7.2367  -15.6453   23.0029 C   0  0  0  0  0  0  0  0  0  0  0  0
    6.9738  -14.4223   23.2891 O   0  0  0  0  0  0  0  0  0  0  0  0
    8.3982  -15.5693   15.8843 O   0  0  0  0  0  0  0  0  0  0  0  0
   11.2141  -14.1505   30.6122 C   0  0  0  0  0  0  0  0  0  0  0  0
   10.5178  -14.7330   29.5507 C   0  0  0  0  0  0  0  0  0  0  0  0
   10.6575  -16.0578   29.2125 C   0  0  0  0  0  0  0  0  0  0  0  0
    9.9582  -16.6013   28.1622 C   0  0  0  0  0  0  0  0  0  0  0  0
    9.0768  -15.8237   27.3975 C   0  0  0  0  0  0  0  0  0  0  0  0
    8.3311  -16.3928   26.2804 C   0  0  1  0  0  0  0  0  0  0  0  0
    8.7368  -15.7714   24.9680 N   0  0  0  0  0  0  0  0  0  0  0  0
    8.0040  -16.4255   23.8858 C   0  0  0  0  0  0  0  0  0  0  0  0
   10.1670  -15.7716   24.6835 O   0  0  0  0  0  0  0  0  0  0  0  0
   10.9083  -15.0065   25.3729 C   0  0  0  0  0  0  0  0  0  0  0  0
    8.9541  -14.5036   27.7546 C   0  0  0  0  0  0  0  0  0  0  0  0
    9.6527  -13.9379   28.8124 N   0  0  0  0  0  0  0  0  0  0  0  0
   10.7928  -16.5629   23.7022 C   0  0  0  0  0  0  0  0  0  0  0  0
   12.2338  -16.5913   23.5344 C   0  0  0  0  0  0  0  0  0  0  0  0
   12.9330  -17.3739   24.5487 O   0  0  0  0  0  0  0  0  0  0  0  0
   12.3011  -18.0172   25.4148 O   0  0  0  0  0  0  0  0  0  0  0  0
  2  1  1  0
  3  2  2  0
  4  2  1  0
  5  4  1  0
  6  5  1  0
  7  6  1  0
  8 10  1  0
  8  7  1  0
  8  9  1  6
 10 11  2  0
 12 13  1  0
 13 23  2  0
 13 14  1  0
 14 15  2  0
 15 16  1  0
 16 17  1  0
 18 17  1  1
 19 18  1  0
 19 10  1  0
 20 21  2  0
 20 18  1  0
 22 16  2  0
 23 22  1  0
 24 20  1  0
 25 24  1  0
 26 28  1  0
 26 25  1  0
 27 26  2  0
M  END
$$$$
