RYG.pdb
     RDKit          3D

 28 28  0  0  1  0  0  0  0  0999 V2000
    9.4905  -14.9067   17.3988 N   0  0  0  0  0  0  0  0  0  0  0  0
    8.4898  -14.0159   16.8760 C   0  0  0  0  0  0  0  0  0  0  0  0
    8.1261  -14.0667   15.6442 N   0  0  0  0  0  0  0  0  0  0  0  0
    7.8675  -13.0441   17.7139 N   0  0  0  0  0  0  0  0  0  0  0  0
    8.2186  -12.9359   19.1086 C   0  0  0  0  0  0  0  0  0  0  0  0
    7.6045  -14.0907   19.8477 C   0  0  0  0  0  0  0  0  0  0  0  0
    7.8462  -13.9782   21.3544 C   0  0  0  0  0  0  0  0  0  0  0  0
    8.3606  -15.3107   21.8170 C   0  0  2  0  0  0  0  0  0  0  0  0
    7.3842  -16.3492   21.7571 N   0  0  0  0  0  0  0  0  0  0  0  0
    8.9670  -15.2704   23.1582 C   0  0  0  0  0  0  0  0  0  0  0  0
    9.8823  -14.3890   23.3377 O   0  0  0  0  0  0  0  0  0  0  0  0
    7.3311  -13.4843   15.3204 O   0  0  0  0  0  0  0  0  0  0  0  0
    5.8995  -10.7188   26.3979 C   0  0  0  0  0  0  0  0  0  0  0  0
    6.5200  -11.9689   26.4517 C   0  0  0  0  0  0  0  0  0  0  0  0
    7.8688  -12.1166   26.6704 C   0  0  0  0  0  0  0  0  0  0  0  0
    8.4496  -13.3608   26.7178 C   0  0  0  0  0  0  0  0  0  0  0  0
    7.6869  -14.5247   26.5447 C   0  0  0  0  0  0  0  0  0  0  0  0
    8.2958  -15.8493   26.5929 C   0  0  2  0  0  0  0  0  0  0  0  0
    9.3037  -16.0376   25.4875 N   0  0  0  0  0  0  0  0  0  0  0  0
    8.5978  -16.1263   24.2108 C   0  0  0  0  0  0  0  0  0  0  0  0
   10.2105  -17.1688   25.6444 O   0  0  0  0  0  0  0  0  0  0  0  0
   10.9496  -17.1970   26.6754 C   0  0  0  0  0  0  0  0  0  0  0  0
    6.3422  -14.3515   26.3278 C   0  0  0  0  0  0  0  0  0  0  0  0
    5.7388  -13.1024   26.2768 N   0  0  0  0  0  0  0  0  0  0  0  0
   10.3260  -18.2400   24.7388 C   0  0  0  0  0  0  0  0  0  0  0  0
   11.4561  -18.3736   23.8386 C   0  0  0  0  0  0  0  0  0  0  0  0
   12.6671  -18.8772   24.4787 O   0  0  0  0  0  0  0  0  0  0  0  0
   12.7006  -19.1001   25.7086 O   0  0  0  0  0  0  0  0  0  0  0  0
  2  1  1  0
  3  2  2  0
  4  2  1  0
  5  4  1  0
  6  5  1  0
  7  6  1  0
  8 10  1  0
  8  7  1  0
  8  9  1  1
 10 11  2  0
 12 13  1  0
 13 23  2  0
 13 14  1  0
 14 15  2  0
 15 16  1  0
 16 17  1  0
 18 17  1  6
 19 18  1  0
 19 10  1  0
 20 21  2  0
 20 18  1  0
 22 16  2  0
 23 22  1  0
 24 20  1  0
 25 24  1  0
 26 28  1  0
 26 25  1  0
 27 26  2  0
M  END
$$$$
