RYG.pdb
     RDKit          3D

 28 28  0  0  1  0  0  0  0  0999 V2000
    7.8396  -12.5854   19.0175 N   0  0  0  0  0  0  0  0  0  0  0  0
    7.7016  -13.6219   18.0302 C   0  0  0  0  0  0  0  0  0  0  0  0
    7.9942  -13.4140   16.7960 N   0  0  0  0  0  0  0  0  0  0  0  0
    7.2336  -14.9191   18.3936 N   0  0  0  0  0  0  0  0  0  0  0  0
    7.8683  -15.6650   19.4523 C   0  0  0  0  0  0  0  0  0  0  0  0
    9.3003  -15.9127   19.0714 C   0  0  0  0  0  0  0  0  0  0  0  0
   10.2454  -15.6134   20.2369 C   0  0  0  0  0  0  0  0  0  0  0  0
   10.0659  -16.7147   21.2413 C   0  0  2  0  0  0  0  0  0  0  0  0
    8.7461  -17.2564   21.2616 N   0  0  0  0  0  0  0  0  0  0  0  0
   10.4724  -16.3353   22.6047 C   0  0  0  0  0  0  0  0  0  0  0  0
   11.6552  -15.8530   22.7276 O   0  0  0  0  0  0  0  0  0  0  0  0
    7.8056  -14.1534   16.0932 O   0  0  0  0  0  0  0  0  0  0  0  0
   10.6407  -14.4009   31.1823 C   0  0  0  0  0  0  0  0  0  0  0  0
   10.2314  -14.7475   29.8926 C   0  0  0  0  0  0  0  0  0  0  0  0
   10.0173  -16.0499   29.5094 C   0  0  0  0  0  0  0  0  0  0  0  0
    9.6148  -16.3585   28.2325 C   0  0  0  0  0  0  0  0  0  0  0  0
    9.4082  -15.3557   27.2745 C   0  0  0  0  0  0  0  0  0  0  0  0
    8.9816  -15.6748   25.9166 C   0  0  1  0  0  0  0  0  0  0  0  0
   10.1495  -16.0578   25.0433 N   0  0  0  0  0  0  0  0  0  0  0  0
    9.6481  -16.4748   23.7352 C   0  0  0  0  0  0  0  0  0  0  0  0
   11.0422  -17.0727   25.5904 O   0  0  0  0  0  0  0  0  0  0  0  0
   11.7948  -16.7410   26.5567 C   0  0  0  0  0  0  0  0  0  0  0  0
    9.6284  -14.0628   27.6810 C   0  0  0  0  0  0  0  0  0  0  0  0
   10.0351  -13.7328   28.9666 N   0  0  0  0  0  0  0  0  0  0  0  0
   11.1303  -18.4000   25.1310 C   0  0  0  0  0  0  0  0  0  0  0  0
   12.0108  -19.3752   25.7468 C   0  0  0  0  0  0  0  0  0  0  0  0
   11.9895  -20.6838   25.1009 O   0  0  0  0  0  0  0  0  0  0  0  0
   11.2772  -20.8941   24.0951 O   0  0  0  0  0  0  0  0  0  0  0  0
  2  1  1  0
  3  2  2  0
  4  2  1  0
  5  4  1  0
  6  5  1  0
  7  6  1  0
  8 10  1  0
  8  7  1  0
  8  9  1  1
 10 11  2  0
 12 13  1  0
 13 23  2  0
 13 14  1  0
 14 15  2  0
 15 16  1  0
 16 17  1  0
 18 17  1  6
 19 18  1  0
 19 10  1  0
 20 21  2  0
 20 18  1  0
 22 16  2  0
 23 22  1  0
 24 20  1  0
 25 24  1  0
 26 28  1  0
 26 25  1  0
 27 26  2  0
M  END
$$$$
