RYG.pdb
     RDKit          3D

 28 28  0  0  1  0  0  0  0  0999 V2000
    8.7076  -13.6422   16.0285 N   0  0  0  0  0  0  0  0  0  0  0  0
    8.2688  -13.2357   17.3363 C   0  0  0  0  0  0  0  0  0  0  0  0
    8.8798  -12.3133   17.9906 N   0  0  0  0  0  0  0  0  0  0  0  0
    7.1359  -13.8474   17.9496 N   0  0  0  0  0  0  0  0  0  0  0  0
    6.9073  -13.7266   19.3685 C   0  0  0  0  0  0  0  0  0  0  0  0
    7.9717  -14.5013   20.0924 C   0  0  0  0  0  0  0  0  0  0  0  0
    7.7602  -14.4547   21.6071 C   0  0  0  0  0  0  0  0  0  0  0  0
    7.7949  -15.8729   22.0988 C   0  0  2  0  0  0  0  0  0  0  0  0
    6.7597  -16.6894   21.5533 N   0  0  0  0  0  0  0  0  0  0  0  0
    7.7984  -15.9833   23.5670 C   0  0  0  0  0  0  0  0  0  0  0  0
    6.7661  -15.5176   24.1707 O   0  0  0  0  0  0  0  0  0  0  0  0
    8.5384  -12.0407   18.9316 O   0  0  0  0  0  0  0  0  0  0  0  0
    5.9984  -10.5092   26.3061 C   0  0  0  0  0  0  0  0  0  0  0  0
    6.4867  -11.8174   26.3410 C   0  0  0  0  0  0  0  0  0  0  0  0
    5.6715  -12.9153   26.2030 C   0  0  0  0  0  0  0  0  0  0  0  0
    6.1826  -14.1900   26.2420 C   0  0  0  0  0  0  0  0  0  0  0  0
    7.5544  -14.4165   26.4240 C   0  0  0  0  0  0  0  0  0  0  0  0
    8.1050  -15.7666   26.4671 C   0  0  2  0  0  0  0  0  0  0  0  0
    9.2874  -15.9137   25.5433 N   0  0  0  0  0  0  0  0  0  0  0  0
    8.8473  -16.5570   24.3069 C   0  0  0  0  0  0  0  0  0  0  0  0
   10.4393  -16.6157   26.0972 O   0  0  0  0  0  0  0  0  0  0  0  0
   11.0122  -16.1079   27.1091 C   0  0  0  0  0  0  0  0  0  0  0  0
    8.3482  -13.3043   26.5593 C   0  0  0  0  0  0  0  0  0  0  0  0
    7.8489  -12.0096   26.5225 N   0  0  0  0  0  0  0  0  0  0  0  0
   10.9640  -17.8221   25.5972 C   0  0  0  0  0  0  0  0  0  0  0  0
   11.9436  -18.6024   26.3300 C   0  0  0  0  0  0  0  0  0  0  0  0
   11.4523  -19.1281   27.5998 O   0  0  0  0  0  0  0  0  0  0  0  0
   10.2862  -18.8944   27.9858 O   0  0  0  0  0  0  0  0  0  0  0  0
  2  1  1  0
  3  2  2  0
  4  2  1  0
  5  4  1  0
  6  5  1  0
  7  6  1  0
  8 10  1  0
  8  7  1  0
  8  9  1  1
 10 11  2  0
 12 13  1  0
 13 23  2  0
 13 14  1  0
 14 15  2  0
 15 16  1  0
 16 17  1  0
 18 17  1  6
 19 18  1  0
 19 10  1  0
 20 21  2  0
 20 18  1  0
 22 16  2  0
 23 22  1  0
 24 20  1  0
 25 24  1  0
 26 28  1  0
 26 25  1  0
 27 26  2  0
M  END
$$$$
