RYG.pdb
     RDKit          3D

 28 28  0  0  1  0  0  0  0  0999 V2000
    8.2170  -12.0933   17.4843 N   0  0  0  0  0  0  0  0  0  0  0  0
    8.1032  -13.4384   16.9884 C   0  0  0  0  0  0  0  0  0  0  0  0
    7.9785  -13.6802   15.7321 N   0  0  0  0  0  0  0  0  0  0  0  0
    8.1257  -14.5504   17.8810 N   0  0  0  0  0  0  0  0  0  0  0  0
    8.3824  -14.3647   19.2880 C   0  0  0  0  0  0  0  0  0  0  0  0
    7.1883  -14.8493   20.0603 C   0  0  0  0  0  0  0  0  0  0  0  0
    7.3691  -14.6237   21.5629 C   0  0  0  0  0  0  0  0  0  0  0  0
    8.0106  -15.8622   22.1185 C   0  0  2  0  0  0  0  0  0  0  0  0
    7.0828  -16.9131   22.3841 N   0  0  0  0  0  0  0  0  0  0  0  0
    8.8354  -15.6091   23.3116 C   0  0  0  0  0  0  0  0  0  0  0  0
    9.7356  -14.7022   23.1937 O   0  0  0  0  0  0  0  0  0  0  0  0
    7.8942  -14.6612   15.4052 O   0  0  0  0  0  0  0  0  0  0  0  0
    5.8197  -10.8386   26.0064 C   0  0  0  0  0  0  0  0  0  0  0  0
    6.5682  -11.9985   26.2192 C   0  0  0  0  0  0  0  0  0  0  0  0
    7.9141  -11.9701   26.4960 C   0  0  0  0  0  0  0  0  0  0  0  0
    8.6228  -13.1292   26.7004 C   0  0  0  0  0  0  0  0  0  0  0  0
    7.9982  -14.3829   26.6339 C   0  0  0  0  0  0  0  0  0  0  0  0
    8.7434  -15.6183   26.8491 C   0  0  2  0  0  0  0  0  0  0  0  0
    9.5741  -15.9824   25.6446 N   0  0  0  0  0  0  0  0  0  0  0  0
    8.6826  -16.2951   24.5295 C   0  0  0  0  0  0  0  0  0  0  0  0
   10.5355  -17.0609   25.8421 O   0  0  0  0  0  0  0  0  0  0  0  0
   11.3942  -16.9273   26.7667 C   0  0  0  0  0  0  0  0  0  0  0  0
    6.6535  -14.3855   26.3562 C   0  0  0  0  0  0  0  0  0  0  0  0
    5.9220  -13.2244   26.1469 N   0  0  0  0  0  0  0  0  0  0  0  0
   10.5814  -18.2472   25.0862 C   0  0  0  0  0  0  0  0  0  0  0  0
   11.4536  -18.3988   23.9365 C   0  0  0  0  0  0  0  0  0  0  0  0
   12.8754  -18.3279   24.2581 O   0  0  0  0  0  0  0  0  0  0  0  0
   13.3166  -17.4561   25.0384 O   0  0  0  0  0  0  0  0  0  0  0  0
  2  1  1  0
  3  2  2  0
  4  2  1  0
  5  4  1  0
  6  5  1  0
  7  6  1  0
  8 10  1  0
  8  7  1  0
  8  9  1  1
 10 11  2  0
 12 13  1  0
 13 23  2  0
 13 14  1  0
 14 15  2  0
 15 16  1  0
 16 17  1  0
 18 17  1  6
 19 18  1  0
 19 10  1  0
 20 21  2  0
 20 18  1  0
 22 16  2  0
 23 22  1  0
 24 20  1  0
 25 24  1  0
 26 28  1  0
 26 25  1  0
 27 26  2  0
M  END
$$$$
