RYG.pdb
     RDKit          3D

 28 28  0  0  1  0  0  0  0  0999 V2000
    8.8739  -12.7690   17.9373 N   0  0  0  0  0  0  0  0  0  0  0  0
    8.1869  -12.6236   19.1923 C   0  0  0  0  0  0  0  0  0  0  0  0
    8.2215  -11.5199   19.8504 N   0  0  0  0  0  0  0  0  0  0  0  0
    7.4422  -13.7059   19.7471 N   0  0  0  0  0  0  0  0  0  0  0  0
    7.4142  -14.9939   19.0988 C   0  0  0  0  0  0  0  0  0  0  0  0
    7.7660  -16.0470   20.1109 C   0  0  0  0  0  0  0  0  0  0  0  0
    9.2370  -16.4537   20.0017 C   0  0  0  0  0  0  0  0  0  0  0  0
    9.4860  -17.4883   21.0608 C   0  0  2  0  0  0  0  0  0  0  0  0
    8.3523  -18.3121   21.3287 N   0  0  0  0  0  0  0  0  0  0  0  0
   10.0042  -16.9252   22.3187 C   0  0  0  0  0  0  0  0  0  0  0  0
   11.1344  -16.3222   22.2440 O   0  0  0  0  0  0  0  0  0  0  0  0
    7.7093  -11.4432   20.7493 O   0  0  0  0  0  0  0  0  0  0  0  0
   10.8325  -13.9330   30.5507 C   0  0  0  0  0  0  0  0  0  0  0  0
   10.3277  -14.4328   29.3480 C   0  0  0  0  0  0  0  0  0  0  0  0
    9.8990  -13.6159   28.3292 C   0  0  0  0  0  0  0  0  0  0  0  0
    9.4073  -14.1385   27.1576 C   0  0  0  0  0  0  0  0  0  0  0  0
    9.3252  -15.5242   26.9593 C   0  0  0  0  0  0  0  0  0  0  0  0
    8.8038  -16.0872   25.7187 C   0  0  1  0  0  0  0  0  0  0  0  0
    9.9060  -16.3611   24.7271 N   0  0  0  0  0  0  0  0  0  0  0  0
    9.3359  -17.0178   23.5523 C   0  0  0  0  0  0  0  0  0  0  0  0
   11.0383  -17.1265   25.2355 O   0  0  0  0  0  0  0  0  0  0  0  0
   11.9473  -16.4970   25.8580 C   0  0  0  0  0  0  0  0  0  0  0  0
    9.7594  -16.3194   27.9910 C   0  0  0  0  0  0  0  0  0  0  0  0
   10.2589  -15.8086   29.1812 N   0  0  0  0  0  0  0  0  0  0  0  0
   11.1991  -18.5174   25.0932 C   0  0  0  0  0  0  0  0  0  0  0  0
   12.2799  -19.2412   25.7363 C   0  0  0  0  0  0  0  0  0  0  0  0
   12.2846  -20.6730   25.4536 O   0  0  0  0  0  0  0  0  0  0  0  0
   13.0306  -21.4520   26.0861 O   0  0  0  0  0  0  0  0  0  0  0  0
  2  1  1  0
  3  2  2  0
  4  2  1  0
  5  4  1  0
  6  5  1  0
  7  6  1  0
  8 10  1  0
  8  7  1  0
  8  9  1  1
 10 11  2  0
 12 13  1  0
 13 23  2  0
 13 14  1  0
 14 15  2  0
 15 16  1  0
 16 17  1  0
 18 17  1  6
 19 18  1  0
 19 10  1  0
 20 21  2  0
 20 18  1  0
 22 16  2  0
 23 22  1  0
 24 20  1  0
 25 24  1  0
 26 28  1  0
 26 25  1  0
 27 26  2  0
M  END
$$$$
