RYG.pdb
     RDKit          3D

 28 28  0  0  1  0  0  0  0  0999 V2000
    9.0964  -15.2374   16.6069 N   0  0  0  0  0  0  0  0  0  0  0  0
    8.4396  -14.0203   16.2126 C   0  0  0  0  0  0  0  0  0  0  0  0
    8.6909  -13.4596   15.0836 N   0  0  0  0  0  0  0  0  0  0  0  0
    7.4842  -13.3959   17.0675 N   0  0  0  0  0  0  0  0  0  0  0  0
    7.6735  -13.3736   18.4971 C   0  0  0  0  0  0  0  0  0  0  0  0
    6.6525  -14.2766   19.1292 C   0  0  0  0  0  0  0  0  0  0  0  0
    6.7815  -14.2803   20.6539 C   0  0  0  0  0  0  0  0  0  0  0  0
    7.7673  -15.3557   21.0082 C   0  0  2  0  0  0  0  0  0  0  0  0
    7.1862  -16.6564   21.0870 N   0  0  0  0  0  0  0  0  0  0  0  0
    8.5270  -15.0715   22.2372 C   0  0  0  0  0  0  0  0  0  0  0  0
    9.3569  -14.0947   22.1747 O   0  0  0  0  0  0  0  0  0  0  0  0
    8.2340  -12.5590   14.8459 O   0  0  0  0  0  0  0  0  0  0  0  0
   11.4702  -14.8420   30.5169 C   0  0  0  0  0  0  0  0  0  0  0  0
   10.7012  -14.9456   29.3555 C   0  0  0  0  0  0  0  0  0  0  0  0
   10.2349  -13.8455   28.6764 C   0  0  0  0  0  0  0  0  0  0  0  0
    9.4804  -13.9807   27.5362 C   0  0  0  0  0  0  0  0  0  0  0  0
    9.1589  -15.2461   27.0246 C   0  0  0  0  0  0  0  0  0  0  0  0
    8.3578  -15.3983   25.8151 C   0  0  1  0  0  0  0  0  0  0  0  0
    9.2219  -15.4603   24.5810 N   0  0  0  0  0  0  0  0  0  0  0  0
    8.3852  -15.7996   23.4317 C   0  0  0  0  0  0  0  0  0  0  0  0
   10.3679  -16.3589   24.6559 O   0  0  0  0  0  0  0  0  0  0  0  0
   10.1510  -17.5716   24.9599 C   0  0  0  0  0  0  0  0  0  0  0  0
    9.6360  -16.3295   27.7202 C   0  0  0  0  0  0  0  0  0  0  0  0
   10.3995  -16.2114   28.8736 N   0  0  0  0  0  0  0  0  0  0  0  0
   11.7022  -15.9845   24.4105 C   0  0  0  0  0  0  0  0  0  0  0  0
   12.7907  -16.9439   24.4281 C   0  0  0  0  0  0  0  0  0  0  0  0
   14.0648  -16.4028   23.9654 O   0  0  0  0  0  0  0  0  0  0  0  0
   14.1599  -15.2160   23.5834 O   0  0  0  0  0  0  0  0  0  0  0  0
  2  1  1  0
  3  2  2  0
  4  2  1  0
  5  4  1  0
  6  5  1  0
  7  6  1  0
  8 10  1  0
  8  7  1  0
  8  9  1  1
 10 11  2  0
 12 13  1  0
 13 23  2  0
 13 14  1  0
 14 15  2  0
 15 16  1  0
 16 17  1  0
 18 17  1  6
 19 18  1  0
 19 10  1  0
 20 21  2  0
 20 18  1  0
 22 16  2  0
 23 22  1  0
 24 20  1  0
 25 24  1  0
 26 28  1  0
 26 25  1  0
 27 26  2  0
M  END
$$$$
