RYG.pdb
     RDKit          3D

 28 28  0  0  1  0  0  0  0  0999 V2000
    8.3768  -13.3708   16.6994 N   0  0  0  0  0  0  0  0  0  0  0  0
    8.4941  -13.2061   18.1233 C   0  0  0  0  0  0  0  0  0  0  0  0
    9.4504  -12.5210   18.6413 N   0  0  0  0  0  0  0  0  0  0  0  0
    7.5470  -13.8012   19.0079 N   0  0  0  0  0  0  0  0  0  0  0  0
    7.2378  -15.2074   18.9238 C   0  0  0  0  0  0  0  0  0  0  0  0
    6.6838  -15.6555   20.2464 C   0  0  0  0  0  0  0  0  0  0  0  0
    7.5044  -15.0972   21.4109 C   0  0  0  0  0  0  0  0  0  0  0  0
    8.2011  -16.2609   22.0545 C   0  0  2  0  0  0  0  0  0  0  0  0
    7.3260  -17.3412   22.3751 N   0  0  0  0  0  0  0  0  0  0  0  0
    8.9908  -15.8877   23.2399 C   0  0  0  0  0  0  0  0  0  0  0  0
    9.9428  -15.0499   23.0431 O   0  0  0  0  0  0  0  0  0  0  0  0
    9.5559  -12.4870   19.6728 O   0  0  0  0  0  0  0  0  0  0  0  0
    5.4865  -10.9987   26.0091 C   0  0  0  0  0  0  0  0  0  0  0  0
    6.2365  -12.1609   26.2029 C   0  0  0  0  0  0  0  0  0  0  0  0
    5.6977  -13.4189   26.0762 C   0  0  0  0  0  0  0  0  0  0  0  0
    6.4622  -14.5433   26.2735 C   0  0  0  0  0  0  0  0  0  0  0  0
    7.8197  -14.4476   26.6113 C   0  0  0  0  0  0  0  0  0  0  0  0
    8.6383  -15.6363   26.8231 C   0  0  2  0  0  0  0  0  0  0  0  0
    9.5501  -15.8984   25.6513 N   0  0  0  0  0  0  0  0  0  0  0  0
    8.7531  -16.3928   24.5303 C   0  0  0  0  0  0  0  0  0  0  0  0
   10.6707  -16.7949   25.9101 O   0  0  0  0  0  0  0  0  0  0  0  0
   11.4573  -16.5006   26.8612 C   0  0  0  0  0  0  0  0  0  0  0  0
    8.3351  -13.1806   26.7320 C   0  0  0  0  0  0  0  0  0  0  0  0
    7.5775  -12.0339   26.5364 N   0  0  0  0  0  0  0  0  0  0  0  0
   10.9456  -17.9702   25.1864 C   0  0  0  0  0  0  0  0  0  0  0  0
   12.1121  -18.7899   25.4561 C   0  0  0  0  0  0  0  0  0  0  0  0
   11.9083  -19.7835   26.5055 O   0  0  0  0  0  0  0  0  0  0  0  0
   10.7917  -19.9254   27.0501 O   0  0  0  0  0  0  0  0  0  0  0  0
  2  1  1  0
  3  2  2  0
  4  2  1  0
  5  4  1  0
  6  5  1  0
  7  6  1  0
  8 10  1  0
  8  7  1  0
  8  9  1  1
 10 11  2  0
 12 13  1  0
 13 23  2  0
 13 14  1  0
 14 15  2  0
 15 16  1  0
 16 17  1  0
 18 17  1  6
 19 18  1  0
 19 10  1  0
 20 21  2  0
 20 18  1  0
 22 16  2  0
 23 22  1  0
 24 20  1  0
 25 24  1  0
 26 28  1  0
 26 25  1  0
 27 26  2  0
M  END
$$$$
