RYG.pdb
     RDKit          3D

 28 28  0  0  1  0  0  0  0  0999 V2000
    6.4495  -15.3965   14.4980 N   0  0  0  0  0  0  0  0  0  0  0  0
    7.6371  -14.5880   14.4326 C   0  0  0  0  0  0  0  0  0  0  0  0
    7.9408  -13.9294   13.3713 N   0  0  0  0  0  0  0  0  0  0  0  0
    8.5181  -14.4923   15.5499 N   0  0  0  0  0  0  0  0  0  0  0  0
    8.2316  -15.1889   16.7799 C   0  0  0  0  0  0  0  0  0  0  0  0
    8.2970  -14.2051   17.9134 C   0  0  0  0  0  0  0  0  0  0  0  0
    8.0583  -14.8916   19.2599 C   0  0  0  0  0  0  0  0  0  0  0  0
    7.9607  -13.8075   20.2939 C   0  0  2  0  0  0  0  0  0  0  0  0
    8.5000  -12.5593   19.8619 N   0  0  0  0  0  0  0  0  0  0  0  0
    8.5449  -14.1828   21.5923 C   0  0  0  0  0  0  0  0  0  0  0  0
    9.7244  -13.7368   21.8307 O   0  0  0  0  0  0  0  0  0  0  0  0
    8.7706  -13.3068   13.3747 O   0  0  0  0  0  0  0  0  0  0  0  0
    5.8237  -10.3838   26.5923 C   0  0  0  0  0  0  0  0  0  0  0  0
    6.2360  -11.6446   26.1551 C   0  0  0  0  0  0  0  0  0  0  0  0
    5.4831  -12.4142   25.3009 C   0  0  0  0  0  0  0  0  0  0  0  0
    5.9165  -13.6512   24.8889 C   0  0  0  0  0  0  0  0  0  0  0  0
    7.1427  -14.1728   25.3254 C   0  0  0  0  0  0  0  0  0  0  0  0
    7.6099  -15.4854   24.8933 C   0  0  2  0  0  0  0  0  0  0  0  0
    8.5983  -15.3774   23.7598 N   0  0  0  0  0  0  0  0  0  0  0  0
    7.8877  -14.9800   22.5460 C   0  0  0  0  0  0  0  0  0  0  0  0
    9.4045  -16.5661   23.5084 O   0  0  0  0  0  0  0  0  0  0  0  0
    8.8438  -17.6982   23.6269 C   0  0  0  0  0  0  0  0  0  0  0  0
    7.8768  -13.3856   26.1779 C   0  0  0  0  0  0  0  0  0  0  0  0
    7.4544  -12.1339   26.6043 N   0  0  0  0  0  0  0  0  0  0  0  0
   10.7620  -16.5548   23.1371 C   0  0  0  0  0  0  0  0  0  0  0  0
   11.7478  -17.4017   23.7826 C   0  0  0  0  0  0  0  0  0  0  0  0
   13.0823  -17.3077   23.1994 O   0  0  0  0  0  0  0  0  0  0  0  0
   13.7863  -18.3278   23.0340 O   0  0  0  0  0  0  0  0  0  0  0  0
  2  1  1  0
  3  2  2  0
  4  2  1  0
  5  4  1  0
  6  5  1  0
  7  6  1  0
  8 10  1  0
  8  7  1  0
  8  9  1  6
 10 11  2  0
 12 13  1  0
 13 23  2  0
 13 14  1  0
 14 15  2  0
 15 16  1  0
 16 17  1  0
 18 17  1  1
 19 18  1  0
 19 10  1  0
 20 21  2  0
 20 18  1  0
 22 16  2  0
 23 22  1  0
 24 20  1  0
 25 24  1  0
 26 28  1  0
 26 25  1  0
 27 26  2  0
M  END
$$$$
