RYG.pdb
     RDKit          3D

 28 28  0  0  1  0  0  0  0  0999 V2000
    7.6458  -13.0351   16.1106 N   0  0  0  0  0  0  0  0  0  0  0  0
    8.2234  -14.2820   15.6866 C   0  0  0  0  0  0  0  0  0  0  0  0
    8.4634  -14.5210   14.4466 N   0  0  0  0  0  0  0  0  0  0  0  0
    8.5492  -15.2961   16.6348 N   0  0  0  0  0  0  0  0  0  0  0  0
    7.7513  -15.4833   17.8216 C   0  0  0  0  0  0  0  0  0  0  0  0
    8.6330  -15.3026   19.0245 C   0  0  0  0  0  0  0  0  0  0  0  0
    7.9720  -15.8596   20.2871 C   0  0  0  0  0  0  0  0  0  0  0  0
    7.5906  -14.6832   21.1382 C   0  0  2  0  0  0  0  0  0  0  0  0
    7.6687  -13.4351   20.4513 N   0  0  0  0  0  0  0  0  0  0  0  0
    8.3422  -14.6069   22.4020 C   0  0  0  0  0  0  0  0  0  0  0  0
    9.3931  -13.8706   22.3903 O   0  0  0  0  0  0  0  0  0  0  0  0
    8.9292  -15.4079   14.1767 O   0  0  0  0  0  0  0  0  0  0  0  0
    5.4297  -10.0552   26.6139 C   0  0  0  0  0  0  0  0  0  0  0  0
    6.0081  -11.3174   26.4616 C   0  0  0  0  0  0  0  0  0  0  0  0
    5.2676  -12.4753   26.4610 C   0  0  0  0  0  0  0  0  0  0  0  0
    5.8665  -13.7024   26.3090 C   0  0  0  0  0  0  0  0  0  0  0  0
    7.2548  -13.8175   26.1490 C   0  0  0  0  0  0  0  0  0  0  0  0
    7.8985  -15.1165   25.9876 C   0  0  2  0  0  0  0  0  0  0  0  0
    8.7948  -15.1452   24.7755 N   0  0  0  0  0  0  0  0  0  0  0  0
    7.9692  -15.2826   23.5773 C   0  0  0  0  0  0  0  0  0  0  0  0
    9.8426  -16.1592   24.7876 O   0  0  0  0  0  0  0  0  0  0  0  0
   10.7171  -16.0966   25.7048 C   0  0  0  0  0  0  0  0  0  0  0  0
    7.9728  -12.6471   26.1528 C   0  0  0  0  0  0  0  0  0  0  0  0
    7.3845  -11.3991   26.3052 N   0  0  0  0  0  0  0  0  0  0  0  0
    9.9563  -17.2108   23.8591 C   0  0  0  0  0  0  0  0  0  0  0  0
   10.9840  -18.2296   23.9660 C   0  0  0  0  0  0  0  0  0  0  0  0
   10.7472  -19.2005   25.0297 O   0  0  0  0  0  0  0  0  0  0  0  0
    9.7149  -19.1463   25.7331 O   0  0  0  0  0  0  0  0  0  0  0  0
  2  1  1  0
  3  2  2  0
  4  2  1  0
  5  4  1  0
  6  5  1  0
  7  6  1  0
  8 10  1  0
  8  7  1  0
  8  9  1  6
 10 11  2  0
 12 13  1  0
 13 23  2  0
 13 14  1  0
 14 15  2  0
 15 16  1  0
 16 17  1  0
 18 17  1  6
 19 18  1  0
 19 10  1  0
 20 21  2  0
 20 18  1  0
 22 16  2  0
 23 22  1  0
 24 20  1  0
 25 24  1  0
 26 28  1  0
 26 25  1  0
 27 26  2  0
M  END
$$$$
