WSK.pdb
     RDKit          3D

 30 31  0  0  1  0  0  0  0  0999 V2000
    6.3225  -17.9338   24.5331 N   0  0  0  0  0  0  0  0  0  0  0  0
    6.8990  -16.7535   23.9299 C   0  0  1  0  0  0  0  0  0  0  0  0
    7.8611  -16.1402   24.9391 C   0  0  0  0  0  0  0  0  0  0  0  0
    7.1413  -15.1510   25.7761 C   0  0  0  0  0  0  0  0  0  0  0  0
    6.1523  -15.3980   26.7056 C   0  0  0  0  0  0  0  0  0  0  0  0
    5.7568  -14.2402   27.2585 N   0  0  0  0  0  0  0  0  0  0  0  0
    6.4537  -13.2092   26.7271 C   0  0  0  0  0  0  0  0  0  0  0  0
    6.4289  -11.8504   26.9459 C   0  0  0  0  0  0  0  0  0  0  0  0
    7.2844  -11.0521   26.2243 C   0  0  0  0  0  0  0  0  0  0  0  0
    8.1623  -11.5871   25.2899 C   0  0  0  0  0  0  0  0  0  0  0  0
    8.1654  -12.9496   25.0919 C   0  0  0  0  0  0  0  0  0  0  0  0
    7.3214  -13.7794   25.7978 C   0  0  0  0  0  0  0  0  0  0  0  0
    7.5942  -17.1366   22.6902 C   0  0  0  0  0  0  0  0  0  0  0  0
    8.0270  -18.3079   22.5658 O   0  0  0  0  0  0  0  0  0  0  0  0
    7.7775  -15.5407   18.8628 O   0  0  0  0  0  0  0  0  0  0  0  0
    8.8390  -15.2434   19.7045 C   0  0  0  0  0  0  0  0  0  0  0  0
    8.9267  -16.3940   20.7193 C   0  0  2  0  0  0  0  0  0  0  0  0
    7.8055  -16.2311   21.6063 N   0  0  0  0  0  0  0  0  0  0  0  0
   10.2264  -16.1756   21.4335 C   0  0  0  0  0  0  0  0  0  0  0  0
   10.1948  -15.4035   22.4185 O   0  0  0  0  0  0  0  0  0  0  0  0
   11.4199  -16.7746   21.0594 N   0  0  0  0  0  0  0  0  0  0  0  0
   12.5253  -17.1139   22.0013 C   0  0  1  0  0  0  0  0  0  0  0  0
   12.1602  -18.3391   22.7257 C   0  0  0  0  0  0  0  0  0  0  0  0
   12.9818  -19.0505   23.6630 C   0  0  0  0  0  0  0  0  0  0  0  0
   12.6094  -20.2767   24.3702 C   0  0  0  0  0  0  0  0  0  0  0  0
   13.8629  -20.6477   25.2374 C   0  0  0  0  0  0  0  0  0  0  0  0
   13.5218  -21.6831   26.1757 N   0  0  0  0  0  0  0  0  0  0  0  0
   13.7027  -17.1972   21.1196 C   0  0  0  0  0  0  0  0  0  0  0  0
   13.5805  -17.5776   19.7763 O   0  0  0  0  0  0  0  0  0  0  0  0
   14.8526  -16.9432   21.4971 O   0  0  0  0  0  0  0  0  0  0  0  0
  2  1  1  1
  2 13  1  0
  2  3  1  0
  3  4  1  0
  4  5  2  0
  6  5  1  0
  7  6  1  0
  8  7  2  0
  9  8  1  0
 10  9  2  0
 10 11  1  0
 11 12  2  0
 12  7  1  0
 12  4  1  0
 13 14  2  0
 17 16  1  6
 16 15  1  0
 18 17  1  0
 18 13  1  0
 19 20  2  0
 19 17  1  0
 21 19  1  0
 22 28  1  0
 22 21  1  0
 22 23  1  6
 24 23  1  0
 25 24  1  0
 26 27  1  0
 26 25  1  0
 28 29  1  0
 30 28  2  0
M  END
$$$$
