WSK.pdb
     RDKit          3D

 30 31  0  0  1  0  0  0  0  0999 V2000
    6.4175  -17.6512   24.3666 N   0  0  0  0  0  0  0  0  0  0  0  0
    7.0755  -16.5797   23.6535 C   0  0  1  0  0  0  0  0  0  0  0  0
    8.0173  -15.8844   24.6281 C   0  0  0  0  0  0  0  0  0  0  0  0
    7.2333  -15.0488   25.5684 C   0  0  0  0  0  0  0  0  0  0  0  0
    6.3474  -15.4773   26.5351 C   0  0  0  0  0  0  0  0  0  0  0  0
    5.8439  -14.4157   27.1848 N   0  0  0  0  0  0  0  0  0  0  0  0
    6.3664  -13.2728   26.6829 C   0  0  0  0  0  0  0  0  0  0  0  0
    6.1820  -11.9441   26.9916 C   0  0  0  0  0  0  0  0  0  0  0  0
    6.8788  -10.9995   26.2758 C   0  0  0  0  0  0  0  0  0  0  0  0
    7.7547  -11.3593   25.2592 C   0  0  0  0  0  0  0  0  0  0  0  0
    7.9194  -12.6957   24.9723 C   0  0  0  0  0  0  0  0  0  0  0  0
    7.2371  -13.6689   25.6697 C   0  0  0  0  0  0  0  0  0  0  0  0
    7.8087  -17.1425   22.5078 C   0  0  0  0  0  0  0  0  0  0  0  0
    8.4582  -18.2059   22.6570 O   0  0  0  0  0  0  0  0  0  0  0  0
    8.5216  -14.7931   19.3621 O   0  0  0  0  0  0  0  0  0  0  0  0
    8.4472  -16.1183   18.9596 C   0  0  0  0  0  0  0  0  0  0  0  0
    8.7435  -16.9697   20.2040 C   0  0  2  0  0  0  0  0  0  0  0  0
    7.8200  -16.5319   21.2170 N   0  0  0  0  0  0  0  0  0  0  0  0
   10.1576  -16.6331   20.5697 C   0  0  0  0  0  0  0  0  0  0  0  0
   10.3132  -15.6699   21.3543 O   0  0  0  0  0  0  0  0  0  0  0  0
   11.2613  -17.3228   20.0905 N   0  0  0  0  0  0  0  0  0  0  0  0
   12.5244  -17.5300   20.8558 C   0  0  1  0  0  0  0  0  0  0  0  0
   12.4715  -18.8534   21.4921 C   0  0  0  0  0  0  0  0  0  0  0  0
   13.5473  -19.5126   22.1760 C   0  0  0  0  0  0  0  0  0  0  0  0
   13.4725  -20.8189   22.8320 C   0  0  0  0  0  0  0  0  0  0  0  0
   14.9315  -21.1143   23.3270 C   0  0  0  0  0  0  0  0  0  0  0  0
   14.9571  -22.3427   24.0746 N   0  0  0  0  0  0  0  0  0  0  0  0
   13.5697  -17.3315   19.8366 C   0  0  0  0  0  0  0  0  0  0  0  0
   13.3752  -17.7308   18.5073 O   0  0  0  0  0  0  0  0  0  0  0  0
   14.6649  -16.8114   20.0801 O   0  0  0  0  0  0  0  0  0  0  0  0
  2  1  1  1
  2 13  1  0
  2  3  1  0
  3  4  1  0
  4  5  2  0
  6  5  1  0
  7  6  1  0
  8  7  2  0
  9  8  1  0
 10  9  2  0
 10 11  1  0
 11 12  2  0
 12  7  1  0
 12  4  1  0
 13 14  2  0
 17 16  1  6
 16 15  1  0
 18 17  1  0
 18 13  1  0
 19 20  2  0
 19 17  1  0
 21 19  1  0
 22 28  1  0
 22 21  1  0
 22 23  1  6
 24 23  1  0
 25 24  1  0
 26 27  1  0
 26 25  1  0
 28 29  1  0
 30 28  2  0
M  END
$$$$
