WSK.pdb
     RDKit          3D

 30 31  0  0  1  0  0  0  0  0999 V2000
    6.3814  -17.4700   24.8747 N   0  0  0  0  0  0  0  0  0  0  0  0
    6.9365  -16.3557   24.1402 C   0  0  1  0  0  0  0  0  0  0  0  0
    8.0063  -15.7123   25.0131 C   0  0  0  0  0  0  0  0  0  0  0  0
    7.3647  -14.8479   26.0320 C   0  0  0  0  0  0  0  0  0  0  0  0
    6.8756  -15.2245   27.2658 C   0  0  0  0  0  0  0  0  0  0  0  0
    6.3758  -14.1503   27.8973 N   0  0  0  0  0  0  0  0  0  0  0  0
    6.5129  -13.0497   27.1221 C   0  0  0  0  0  0  0  0  0  0  0  0
    6.1697  -11.7288   27.3020 C   0  0  0  0  0  0  0  0  0  0  0  0
    6.4504  -10.8335   26.2973 C   0  0  0  0  0  0  0  0  0  0  0  0
    7.0669  -11.2345   25.1187 C   0  0  0  0  0  0  0  0  0  0  0  0
    7.3991  -12.5619   24.9663 C   0  0  0  0  0  0  0  0  0  0  0  0
    7.1324  -13.4863   25.9529 C   0  0  0  0  0  0  0  0  0  0  0  0
    7.5021  -16.8476   22.8733 C   0  0  0  0  0  0  0  0  0  0  0  0
    7.9010  -18.0352   22.7991 O   0  0  0  0  0  0  0  0  0  0  0  0
    8.7531  -14.2271   20.0868 O   0  0  0  0  0  0  0  0  0  0  0  0
    8.2457  -15.3798   19.5059 C   0  0  0  0  0  0  0  0  0  0  0  0
    8.3640  -16.4894   20.5624 C   0  0  2  0  0  0  0  0  0  0  0  0
    7.6229  -16.0315   21.7077 N   0  0  0  0  0  0  0  0  0  0  0  0
    9.8304  -16.5798   20.8594 C   0  0  0  0  0  0  0  0  0  0  0  0
   10.2642  -15.8132   21.7491 O   0  0  0  0  0  0  0  0  0  0  0  0
   10.6947  -17.4489   20.2106 N   0  0  0  0  0  0  0  0  0  0  0  0
   12.1340  -17.6248   20.5597 C   0  0  1  0  0  0  0  0  0  0  0  0
   12.3895  -19.0558   20.7741 C   0  0  0  0  0  0  0  0  0  0  0  0
   12.6653  -19.6922   22.0306 C   0  0  0  0  0  0  0  0  0  0  0  0
   11.6680  -20.2491   22.9457 C   0  0  0  0  0  0  0  0  0  0  0  0
   12.4925  -20.8334   24.1457 C   0  0  0  0  0  0  0  0  0  0  0  0
   11.6008  -21.3610   25.1433 N   0  0  0  0  0  0  0  0  0  0  0  0
   12.8328  -16.9944   19.4262 C   0  0  0  0  0  0  0  0  0  0  0  0
   14.1406  -16.5078   19.5571 O   0  0  0  0  0  0  0  0  0  0  0  0
   12.3237  -16.8546   18.3079 O   0  0  0  0  0  0  0  0  0  0  0  0
  2  1  1  1
  2 13  1  0
  2  3  1  0
  3  4  1  0
  4  5  2  0
  6  5  1  0
  7  6  1  0
  8  7  2  0
  9  8  1  0
 10  9  2  0
 10 11  1  0
 11 12  2  0
 12  7  1  0
 12  4  1  0
 13 14  2  0
 17 16  1  6
 16 15  1  0
 18 17  1  0
 18 13  1  0
 19 20  2  0
 19 17  1  0
 21 19  1  0
 22 28  1  0
 22 21  1  0
 22 23  1  6
 24 23  1  0
 25 24  1  0
 26 27  1  0
 26 25  1  0
 28 29  1  0
 30 28  2  0
M  END
$$$$
