WSK.pdb
     RDKit          3D

 30 31  0  0  1  0  0  0  0  0999 V2000
    6.4070  -17.2288   24.6070 N   0  0  0  0  0  0  0  0  0  0  0  0
    6.9428  -16.1105   23.8643 C   0  0  1  0  0  0  0  0  0  0  0  0
    8.1436  -15.5758   24.6339 C   0  0  0  0  0  0  0  0  0  0  0  0
    7.6778  -14.7973   25.8061 C   0  0  0  0  0  0  0  0  0  0  0  0
    7.3964  -15.2705   27.0710 C   0  0  0  0  0  0  0  0  0  0  0  0
    7.0074  -14.2522   27.8548 N   0  0  0  0  0  0  0  0  0  0  0  0
    7.0171  -13.0953   27.1531 C   0  0  0  0  0  0  0  0  0  0  0  0
    6.7091  -11.7955   27.4856 C   0  0  0  0  0  0  0  0  0  0  0  0
    6.8229  -10.8245   26.5191 C   0  0  0  0  0  0  0  0  0  0  0  0
    7.2383  -11.1294   25.2290 C   0  0  0  0  0  0  0  0  0  0  0  0
    7.5399  -12.4378   24.9247 C   0  0  0  0  0  0  0  0  0  0  0  0
    7.4370  -13.4363   25.8689 C   0  0  0  0  0  0  0  0  0  0  0  0
    7.3277  -16.5662   22.5184 C   0  0  0  0  0  0  0  0  0  0  0  0
    7.7404  -17.7410   22.3626 O   0  0  0  0  0  0  0  0  0  0  0  0
    8.0106  -13.8411   19.6960 O   0  0  0  0  0  0  0  0  0  0  0  0
    7.5520  -15.0138   19.1145 C   0  0  0  0  0  0  0  0  0  0  0  0
    7.8430  -16.1410   20.1173 C   0  0  2  0  0  0  0  0  0  0  0  0
    7.2556  -15.7282   21.3644 N   0  0  0  0  0  0  0  0  0  0  0  0
    9.3382  -16.1958   20.2078 C   0  0  0  0  0  0  0  0  0  0  0  0
    9.8569  -15.6022   21.1804 O   0  0  0  0  0  0  0  0  0  0  0  0
   10.1409  -16.8554   19.2891 N   0  0  0  0  0  0  0  0  0  0  0  0
   11.3447  -17.6606   19.6452 C   0  0  1  0  0  0  0  0  0  0  0  0
   10.9206  -18.7800   20.4974 C   0  0  0  0  0  0  0  0  0  0  0  0
   11.7137  -19.9186   20.8639 C   0  0  0  0  0  0  0  0  0  0  0  0
   12.1932  -20.2305   22.2113 C   0  0  0  0  0  0  0  0  0  0  0  0
   12.9488  -21.5982   22.0721 C   0  0  0  0  0  0  0  0  0  0  0  0
   13.4967  -21.9880   23.3435 N   0  0  0  0  0  0  0  0  0  0  0  0
   11.9128  -18.0120   18.3321 C   0  0  0  0  0  0  0  0  0  0  0  0
   11.0886  -18.3334   17.2450 O   0  0  0  0  0  0  0  0  0  0  0  0
   13.1280  -18.0469   18.1057 O   0  0  0  0  0  0  0  0  0  0  0  0
  2  1  1  1
  2 13  1  0
  2  3  1  0
  3  4  1  0
  4  5  2  0
  6  5  1  0
  7  6  1  0
  8  7  2  0
  9  8  1  0
 10  9  2  0
 10 11  1  0
 11 12  2  0
 12  7  1  0
 12  4  1  0
 13 14  2  0
 17 16  1  6
 16 15  1  0
 18 17  1  0
 18 13  1  0
 19 20  2  0
 19 17  1  0
 21 19  1  0
 22 28  1  0
 22 21  1  0
 22 23  1  6
 24 23  1  0
 25 24  1  0
 26 27  1  0
 26 25  1  0
 28 29  1  0
 30 28  2  0
M  END
$$$$
