WSK.pdb
     RDKit          3D

 30 31  0  0  1  0  0  0  0  0999 V2000
    6.1330  -17.1869   24.6371 N   0  0  0  0  0  0  0  0  0  0  0  0
    6.8440  -16.1491   23.9251 C   0  0  1  0  0  0  0  0  0  0  0  0
    7.7820  -15.4683   24.9134 C   0  0  0  0  0  0  0  0  0  0  0  0
    7.0189  -14.5048   25.7420 C   0  0  0  0  0  0  0  0  0  0  0  0
    6.0038  -14.7830   26.6338 C   0  0  0  0  0  0  0  0  0  0  0  0
    5.5713  -13.6411   27.1920 N   0  0  0  0  0  0  0  0  0  0  0  0
    6.2684  -12.5904   26.7010 C   0  0  0  0  0  0  0  0  0  0  0  0
    6.2142  -11.2361   26.9410 C   0  0  0  0  0  0  0  0  0  0  0  0
    7.0800  -10.4123   26.2615 C   0  0  0  0  0  0  0  0  0  0  0  0
    7.9969  -10.9176   25.3483 C   0  0  0  0  0  0  0  0  0  0  0  0
    8.0289  -12.2763   25.1283 C   0  0  0  0  0  0  0  0  0  0  0  0
    7.1757  -13.1311   25.7920 C   0  0  0  0  0  0  0  0  0  0  0  0
    7.5883  -16.7542   22.8085 C   0  0  0  0  0  0  0  0  0  0  0  0
    8.0975  -17.8918   22.9549 O   0  0  0  0  0  0  0  0  0  0  0  0
    8.5684  -14.4101   19.8747 O   0  0  0  0  0  0  0  0  0  0  0  0
    8.5864  -15.6956   19.3543 C   0  0  0  0  0  0  0  0  0  0  0  0
    8.6491  -16.6519   20.5555 C   0  0  2  0  0  0  0  0  0  0  0  0
    7.7644  -16.1039   21.5493 N   0  0  0  0  0  0  0  0  0  0  0  0
   10.0774  -16.6044   21.0079 C   0  0  0  0  0  0  0  0  0  0  0  0
   10.3614  -15.7288   21.8565 O   0  0  0  0  0  0  0  0  0  0  0  0
   11.0615  -17.4623   20.5401 N   0  0  0  0  0  0  0  0  0  0  0  0
   12.4609  -17.5015   21.0543 C   0  0  1  0  0  0  0  0  0  0  0  0
   12.7477  -18.8654   21.5199 C   0  0  0  0  0  0  0  0  0  0  0  0
   13.1989  -19.2403   22.8297 C   0  0  0  0  0  0  0  0  0  0  0  0
   13.4212  -20.6085   23.3000 C   0  0  0  0  0  0  0  0  0  0  0  0
   13.7847  -20.4667   24.8194 C   0  0  0  0  0  0  0  0  0  0  0  0
   14.0142  -21.7657   25.3927 N   0  0  0  0  0  0  0  0  0  0  0  0
   13.2519  -17.0173   19.9097 C   0  0  0  0  0  0  0  0  0  0  0  0
   14.2975  -16.1003   20.0834 O   0  0  0  0  0  0  0  0  0  0  0  0
   13.0507  -17.3787   18.7443 O   0  0  0  0  0  0  0  0  0  0  0  0
  2  1  1  1
  2 13  1  0
  2  3  1  0
  3  4  1  0
  4  5  2  0
  6  5  1  0
  7  6  1  0
  8  7  2  0
  9  8  1  0
 10  9  2  0
 10 11  1  0
 11 12  2  0
 12  7  1  0
 12  4  1  0
 13 14  2  0
 17 16  1  6
 16 15  1  0
 18 17  1  0
 18 13  1  0
 19 20  2  0
 19 17  1  0
 21 19  1  0
 22 28  1  0
 22 21  1  0
 22 23  1  6
 24 23  1  0
 25 24  1  0
 26 27  1  0
 26 25  1  0
 28 29  1  0
 30 28  2  0
M  END
$$$$
