WSK.pdb
     RDKit          3D

 30 31  0  0  1  0  0  0  0  0999 V2000
    6.1111  -17.0438   21.8823 N   0  0  0  0  0  0  0  0  0  0  0  0
    7.0232  -16.4252   22.8176 C   0  0  1  0  0  0  0  0  0  0  0  0
    6.5567  -16.7801   24.2235 C   0  0  0  0  0  0  0  0  0  0  0  0
    6.4218  -15.5442   25.0306 C   0  0  0  0  0  0  0  0  0  0  0  0
    5.2770  -15.0430   25.6149 C   0  0  0  0  0  0  0  0  0  0  0  0
    5.5669  -13.9060   26.2673 N   0  0  0  0  0  0  0  0  0  0  0  0
    6.8836  -13.6203   26.1411 C   0  0  0  0  0  0  0  0  0  0  0  0
    7.6676  -12.5903   26.6093 C   0  0  0  0  0  0  0  0  0  0  0  0
    9.0063  -12.5880   26.2969 C   0  0  0  0  0  0  0  0  0  0  0  0
    9.5738  -13.5952   25.5263 C   0  0  0  0  0  0  0  0  0  0  0  0
    8.7657  -14.6129   25.0717 C   0  0  0  0  0  0  0  0  0  0  0  0
    7.4198  -14.6466   25.3660 C   0  0  0  0  0  0  0  0  0  0  0  0
    8.3852  -16.9222   22.5627 C   0  0  0  0  0  0  0  0  0  0  0  0
    8.5463  -18.1123   22.1985 O   0  0  0  0  0  0  0  0  0  0  0  0
   11.8102  -15.1734   24.0278 O   0  0  0  0  0  0  0  0  0  0  0  0
   11.8465  -15.4900   22.6780 C   0  0  0  0  0  0  0  0  0  0  0  0
   10.8612  -16.6516   22.4755 C   0  0  2  0  0  0  0  0  0  0  0  0
    9.5495  -16.1089   22.7113 N   0  0  0  0  0  0  0  0  0  0  0  0
   11.2345  -17.6566   23.5231 C   0  0  0  0  0  0  0  0  0  0  0  0
   10.5529  -17.6421   24.5732 O   0  0  0  0  0  0  0  0  0  0  0  0
   12.2683  -18.5699   23.3796 N   0  0  0  0  0  0  0  0  0  0  0  0
   12.5677  -19.6645   24.3472 C   0  0  1  0  0  0  0  0  0  0  0  0
   12.7758  -20.9084   23.5932 C   0  0  0  0  0  0  0  0  0  0  0  0
   12.9970  -22.2132   24.1483 C   0  0  0  0  0  0  0  0  0  0  0  0
   13.1188  -23.4581   23.3881 C   0  0  0  0  0  0  0  0  0  0  0  0
   13.3917  -24.5696   24.4609 C   0  0  0  0  0  0  0  0  0  0  0  0
   13.7183  -25.8102   23.8104 N   0  0  0  0  0  0  0  0  0  0  0  0
   13.7277  -19.1448   25.0920 C   0  0  0  0  0  0  0  0  0  0  0  0
   13.9648  -19.5172   26.4222 O   0  0  0  0  0  0  0  0  0  0  0  0
   14.5519  -18.3621   24.6048 O   0  0  0  0  0  0  0  0  0  0  0  0
  2  1  1  6
  2 13  1  0
  2  3  1  0
  3  4  1  0
  4  5  2  0
  6  5  1  0
  7  6  1  0
  8  7  2  0
  9  8  1  0
 10  9  2  0
 10 11  1  0
 11 12  2  0
 12  7  1  0
 12  4  1  0
 13 14  2  0
 17 16  1  1
 16 15  1  0
 18 17  1  0
 18 13  1  0
 19 20  2  0
 19 17  1  0
 21 19  1  0
 22 28  1  0
 22 21  1  0
 22 23  1  6
 24 23  1  0
 25 24  1  0
 26 27  1  0
 26 25  1  0
 28 29  1  0
 30 28  2  0
M  END
$$$$
