WSK.pdb
     RDKit          3D

 30 31  0  0  1  0  0  0  0  0999 V2000
    6.0996  -17.4363   24.1709 N   0  0  0  0  0  0  0  0  0  0  0  0
    6.8772  -16.3947   23.5387 C   0  0  1  0  0  0  0  0  0  0  0  0
    7.8230  -15.8220   24.5864 C   0  0  0  0  0  0  0  0  0  0  0  0
    7.0683  -14.9448   25.5127 C   0  0  0  0  0  0  0  0  0  0  0  0
    6.2035  -15.3290   26.5165 C   0  0  0  0  0  0  0  0  0  0  0  0
    5.7236  -14.2393   27.1369 N   0  0  0  0  0  0  0  0  0  0  0  0
    6.2416  -13.1207   26.5789 C   0  0  0  0  0  0  0  0  0  0  0  0
    6.0742  -11.7797   26.8407 C   0  0  0  0  0  0  0  0  0  0  0  0
    6.7598  -10.8688   26.0724 C   0  0  0  0  0  0  0  0  0  0  0  0
    7.6078  -11.2741   25.0493 C   0  0  0  0  0  0  0  0  0  0  0  0
    7.7561  -12.6218   24.8101 C   0  0  0  0  0  0  0  0  0  0  0  0
    7.0843  -13.5621   25.5608 C   0  0  0  0  0  0  0  0  0  0  0  0
    7.6180  -16.9684   22.4033 C   0  0  0  0  0  0  0  0  0  0  0  0
    8.0427  -18.1468   22.4798 O   0  0  0  0  0  0  0  0  0  0  0  0
    8.8064  -14.4448   19.6898 O   0  0  0  0  0  0  0  0  0  0  0  0
    8.8636  -15.7005   19.1036 C   0  0  0  0  0  0  0  0  0  0  0  0
    8.8539  -16.7198   20.2534 C   0  0  2  0  0  0  0  0  0  0  0  0
    7.8831  -16.2427   21.2024 N   0  0  0  0  0  0  0  0  0  0  0  0
   10.2414  -16.6722   20.8183 C   0  0  0  0  0  0  0  0  0  0  0  0
   10.4265  -15.8774   21.7678 O   0  0  0  0  0  0  0  0  0  0  0  0
   11.2909  -17.4470   20.3475 N   0  0  0  0  0  0  0  0  0  0  0  0
   12.5895  -17.6299   21.0577 C   0  0  1  0  0  0  0  0  0  0  0  0
   12.6469  -19.0034   21.5767 C   0  0  0  0  0  0  0  0  0  0  0  0
   13.6275  -19.5307   22.4823 C   0  0  0  0  0  0  0  0  0  0  0  0
   13.6640  -20.8977   23.0042 C   0  0  0  0  0  0  0  0  0  0  0  0
   14.9984  -20.9891   23.8239 C   0  0  0  0  0  0  0  0  0  0  0  0
   15.1203  -22.2923   24.4199 N   0  0  0  0  0  0  0  0  0  0  0  0
   13.5851  -17.2721   20.0323 C   0  0  0  0  0  0  0  0  0  0  0  0
   14.8170  -16.7022   20.3814 O   0  0  0  0  0  0  0  0  0  0  0  0
   13.4046  -17.4462   18.8213 O   0  0  0  0  0  0  0  0  0  0  0  0
  2  1  1  1
  2 13  1  0
  2  3  1  0
  3  4  1  0
  4  5  2  0
  6  5  1  0
  7  6  1  0
  8  7  2  0
  9  8  1  0
 10  9  2  0
 10 11  1  0
 11 12  2  0
 12  7  1  0
 12  4  1  0
 13 14  2  0
 17 16  1  6
 16 15  1  0
 18 17  1  0
 18 13  1  0
 19 20  2  0
 19 17  1  0
 21 19  1  0
 22 28  1  0
 22 21  1  0
 22 23  1  6
 24 23  1  0
 25 24  1  0
 26 27  1  0
 26 25  1  0
 28 29  1  0
 30 28  2  0
M  END
$$$$
