WSK.pdb
     RDKit          3D

 30 31  0  0  1  0  0  0  0  0999 V2000
    8.8959  -16.8097   23.7698 N   0  0  0  0  0  0  0  0  0  0  0  0
    7.6797  -17.1160   23.0511 C   0  0  1  0  0  0  0  0  0  0  0  0
    6.7803  -15.8885   23.1180 C   0  0  0  0  0  0  0  0  0  0  0  0
    6.7528  -15.3658   24.5047 C   0  0  0  0  0  0  0  0  0  0  0  0
    6.2729  -15.9995   25.6322 C   0  0  0  0  0  0  0  0  0  0  0  0
    6.4308  -15.1990   26.6985 N   0  0  0  0  0  0  0  0  0  0  0  0
    7.0074  -14.0337   26.3236 C   0  0  0  0  0  0  0  0  0  0  0  0
    7.3748  -12.9042   27.0194 C   0  0  0  0  0  0  0  0  0  0  0  0
    7.9518  -11.8648   26.3290 C   0  0  0  0  0  0  0  0  0  0  0  0
    8.1675  -11.9347   24.9584 C   0  0  0  0  0  0  0  0  0  0  0  0
    7.7903  -13.0767   24.2884 C   0  0  0  0  0  0  0  0  0  0  0  0
    7.2094  -14.1375   24.9489 C   0  0  0  0  0  0  0  0  0  0  0  0
    8.0159  -17.4598   21.6598 C   0  0  0  0  0  0  0  0  0  0  0  0
    7.1547  -17.2964   20.7617 O   0  0  0  0  0  0  0  0  0  0  0  0
   10.5487  -14.8256   20.9385 O   0  0  0  0  0  0  0  0  0  0  0  0
    9.6102  -15.7497   20.5039 C   0  0  0  0  0  0  0  0  0  0  0  0
   10.2654  -17.1331   20.6377 C   0  0  2  0  0  0  0  0  0  0  0  0
    9.2893  -17.9779   21.2735 N   0  0  0  0  0  0  0  0  0  0  0  0
   11.4548  -16.9090   21.5220 C   0  0  0  0  0  0  0  0  0  0  0  0
   12.3465  -16.1546   21.0712 O   0  0  0  0  0  0  0  0  0  0  0  0
   11.6007  -17.4837   22.7757 N   0  0  0  0  0  0  0  0  0  0  0  0
   12.8987  -17.6138   23.4984 C   0  0  1  0  0  0  0  0  0  0  0  0
   12.6922  -18.4680   24.6761 C   0  0  0  0  0  0  0  0  0  0  0  0
   11.5953  -18.3949   25.5987 C   0  0  0  0  0  0  0  0  0  0  0  0
   11.2898  -19.3716   26.6452 C   0  0  0  0  0  0  0  0  0  0  0  0
   10.0532  -18.7818   27.4093 C   0  0  0  0  0  0  0  0  0  0  0  0
    9.2872  -19.8465   27.9994 N   0  0  0  0  0  0  0  0  0  0  0  0
   13.8086  -18.1314   22.4618 C   0  0  0  0  0  0  0  0  0  0  0  0
   15.1756  -17.8219   22.4727 O   0  0  0  0  0  0  0  0  0  0  0  0
   13.4359  -18.8571   21.5325 O   0  0  0  0  0  0  0  0  0  0  0  0
  2  1  1  1
  2 13  1  0
  2  3  1  0
  3  4  1  0
  4  5  2  0
  6  5  1  0
  7  6  1  0
  8  7  2  0
  9  8  1  0
 10  9  2  0
 10 11  1  0
 11 12  2  0
 12  7  1  0
 12  4  1  0
 13 14  2  0
 17 16  1  1
 16 15  1  0
 18 17  1  0
 18 13  1  0
 19 20  2  0
 19 17  1  0
 21 19  1  0
 22 28  1  0
 22 21  1  0
 22 23  1  1
 24 23  1  0
 25 24  1  0
 26 27  1  0
 26 25  1  0
 28 29  1  0
 30 28  2  0
M  END
$$$$
