WSK.pdb
     RDKit          3D

 30 31  0  0  1  0  0  0  0  0999 V2000
    8.8123  -15.9034   25.1215 N   0  0  0  0  0  0  0  0  0  0  0  0
    7.5450  -16.5883   25.0024 C   0  0  1  0  0  0  0  0  0  0  0  0
    6.6982  -15.8239   23.9931 C   0  0  0  0  0  0  0  0  0  0  0  0
    7.1069  -14.3992   23.9772 C   0  0  0  0  0  0  0  0  0  0  0  0
    7.8902  -13.7601   23.0385 C   0  0  0  0  0  0  0  0  0  0  0  0
    8.0281  -12.4675   23.3741 N   0  0  0  0  0  0  0  0  0  0  0  0
    7.3566  -12.2105   24.5205 C   0  0  0  0  0  0  0  0  0  0  0  0
    7.1861  -11.0687   25.2702 C   0  0  0  0  0  0  0  0  0  0  0  0
    6.4273  -11.1402   26.4144 C   0  0  0  0  0  0  0  0  0  0  0  0
    5.8374  -12.3304   26.8212 C   0  0  0  0  0  0  0  0  0  0  0  0
    6.0248  -13.4565   26.0517 C   0  0  0  0  0  0  0  0  0  0  0  0
    6.7792  -13.4208   24.8990 C   0  0  0  0  0  0  0  0  0  0  0  0
    7.7850  -17.9725   24.5626 C   0  0  0  0  0  0  0  0  0  0  0  0
    6.8363  -18.6360   24.0782 O   0  0  0  0  0  0  0  0  0  0  0  0
    9.8818  -19.0100   22.0612 O   0  0  0  0  0  0  0  0  0  0  0  0
    8.9300  -19.8427   22.6307 C   0  0  0  0  0  0  0  0  0  0  0  0
    9.2657  -19.9295   24.1277 C   0  0  2  0  0  0  0  0  0  0  0  0
    9.0596  -18.6090   24.6609 N   0  0  0  0  0  0  0  0  0  0  0  0
   10.7125  -20.3188   24.1731 C   0  0  0  0  0  0  0  0  0  0  0  0
   11.0435  -21.3048   23.4762 O   0  0  0  0  0  0  0  0  0  0  0  0
   11.6650  -19.6529   24.9298 N   0  0  0  0  0  0  0  0  0  0  0  0
   12.6591  -20.3242   25.8159 C   0  0  1  0  0  0  0  0  0  0  0  0
   13.8718  -19.4961   25.8665 C   0  0  0  0  0  0  0  0  0  0  0  0
   15.2143  -19.9640   26.0624 C   0  0  0  0  0  0  0  0  0  0  0  0
   15.8835  -21.0007   25.2750 C   0  0  0  0  0  0  0  0  0  0  0  0
   17.3231  -21.1167   25.8875 C   0  0  0  0  0  0  0  0  0  0  0  0
   18.0712  -22.1311   25.1946 N   0  0  0  0  0  0  0  0  0  0  0  0
   11.9221  -20.4894   27.0809 C   0  0  0  0  0  0  0  0  0  0  0  0
   12.2174  -21.5370   27.9639 O   0  0  0  0  0  0  0  0  0  0  0  0
   11.0131  -19.7320   27.4406 O   0  0  0  0  0  0  0  0  0  0  0  0
  2  1  1  6
  2 13  1  0
  2  3  1  0
  3  4  1  0
  4  5  2  0
  6  5  1  0
  7  6  1  0
  8  7  2  0
  9  8  1  0
 10  9  2  0
 10 11  1  0
 11 12  2  0
 12  7  1  0
 12  4  1  0
 13 14  2  0
 17 16  1  6
 16 15  1  0
 18 17  1  0
 18 13  1  0
 19 20  2  0
 19 17  1  0
 21 19  1  0
 22 28  1  0
 22 21  1  0
 22 23  1  1
 24 23  1  0
 25 24  1  0
 26 27  1  0
 26 25  1  0
 28 29  1  0
 30 28  2  0
M  END
$$$$
