WSK.pdb
     RDKit          3D

 30 31  0  0  1  0  0  0  0  0999 V2000
    8.4730  -16.0531   21.4441 N   0  0  0  0  0  0  0  0  0  0  0  0
    8.9494  -15.7472   22.7740 C   0  0  1  0  0  0  0  0  0  0  0  0
    7.7445  -15.7332   23.7059 C   0  0  0  0  0  0  0  0  0  0  0  0
    7.1627  -14.3705   23.7478 C   0  0  0  0  0  0  0  0  0  0  0  0
    6.4781  -13.7180   22.7434 C   0  0  0  0  0  0  0  0  0  0  0  0
    6.1062  -12.5010   23.1712 N   0  0  0  0  0  0  0  0  0  0  0  0
    6.5217  -12.3087   24.4446 C   0  0  0  0  0  0  0  0  0  0  0  0
    6.3992  -11.2539   25.3206 C   0  0  0  0  0  0  0  0  0  0  0  0
    6.9477  -11.3738   26.5755 C   0  0  0  0  0  0  0  0  0  0  0  0
    7.6149  -12.5271   26.9691 C   0  0  0  0  0  0  0  0  0  0  0  0
    7.7220  -13.5661   26.0722 C   0  0  0  0  0  0  0  0  0  0  0  0
    7.1842  -13.4799   24.8064 C   0  0  0  0  0  0  0  0  0  0  0  0
    9.9304  -16.7666   23.1807 C   0  0  0  0  0  0  0  0  0  0  0  0
    9.6808  -17.9780   22.9686 O   0  0  0  0  0  0  0  0  0  0  0  0
   13.2868  -15.5792   24.8658 O   0  0  0  0  0  0  0  0  0  0  0  0
   13.4448  -16.8634   24.3665 C   0  0  0  0  0  0  0  0  0  0  0  0
   12.0396  -17.4816   24.2996 C   0  0  2  0  0  0  0  0  0  0  0  0
   11.1690  -16.4438   23.8139 N   0  0  0  0  0  0  0  0  0  0  0  0
   11.7159  -17.8496   25.7161 C   0  0  0  0  0  0  0  0  0  0  0  0
   11.2335  -16.9403   26.4288 O   0  0  0  0  0  0  0  0  0  0  0  0
   11.9220  -19.1133   26.2491 N   0  0  0  0  0  0  0  0  0  0  0  0
   11.6558  -19.4839   27.6689 C   0  0  1  0  0  0  0  0  0  0  0  0
   11.6463  -20.9496   27.7735 C   0  0  0  0  0  0  0  0  0  0  0  0
   10.8144  -21.8506   27.0280 C   0  0  0  0  0  0  0  0  0  0  0  0
   11.2148  -22.5967   25.8341 C   0  0  0  0  0  0  0  0  0  0  0  0
    9.9440  -23.4161   25.4163 C   0  0  0  0  0  0  0  0  0  0  0  0
   10.2527  -24.2636   24.2959 N   0  0  0  0  0  0  0  0  0  0  0  0
   12.7202  -18.7789   28.4041 C   0  0  0  0  0  0  0  0  0  0  0  0
   12.7054  -18.6945   29.8030 O   0  0  0  0  0  0  0  0  0  0  0  0
   13.6768  -18.2259   27.8488 O   0  0  0  0  0  0  0  0  0  0  0  0
  2  1  1  6
  2 13  1  0
  2  3  1  0
  3  4  1  0
  4  5  2  0
  6  5  1  0
  7  6  1  0
  8  7  2  0
  9  8  1  0
 10  9  2  0
 10 11  1  0
 11 12  2  0
 12  7  1  0
 12  4  1  0
 13 14  2  0
 17 16  1  1
 16 15  1  0
 18 17  1  0
 18 13  1  0
 19 20  2  0
 19 17  1  0
 21 19  1  0
 22 28  1  0
 22 21  1  0
 22 23  1  6
 24 23  1  0
 25 24  1  0
 26 27  1  0
 26 25  1  0
 28 29  1  0
 30 28  2  0
M  END
$$$$
