WSK.pdb
     RDKit          3D

 30 31  0  0  1  0  0  0  0  0999 V2000
    5.9530  -17.6233   24.4574 N   0  0  0  0  0  0  0  0  0  0  0  0
    6.6614  -16.4928   23.9011 C   0  0  1  0  0  0  0  0  0  0  0  0
    7.6620  -16.0137   24.9450 C   0  0  0  0  0  0  0  0  0  0  0  0
    7.0233  -15.0021   25.8201 C   0  0  0  0  0  0  0  0  0  0  0  0
    6.1487  -15.2256   26.8633 C   0  0  0  0  0  0  0  0  0  0  0  0
    5.7974  -14.0524   27.4136 N   0  0  0  0  0  0  0  0  0  0  0  0
    6.4126  -13.0339   26.7693 C   0  0  0  0  0  0  0  0  0  0  0  0
    6.3889  -11.6681   26.9388 C   0  0  0  0  0  0  0  0  0  0  0  0
    7.1444  -10.8873   26.0964 C   0  0  0  0  0  0  0  0  0  0  0  0
    7.9216  -11.4469   25.0899 C   0  0  0  0  0  0  0  0  0  0  0  0
    7.9262  -12.8159   24.9437 C   0  0  0  0  0  0  0  0  0  0  0  0
    7.1809  -13.6285   25.7703 C   0  0  0  0  0  0  0  0  0  0  0  0
    7.3373  -16.9102   22.6618 C   0  0  0  0  0  0  0  0  0  0  0  0
    7.8453  -18.0558   22.5953 O   0  0  0  0  0  0  0  0  0  0  0  0
    8.2232  -14.0749   20.1550 O   0  0  0  0  0  0  0  0  0  0  0  0
    8.2352  -15.2527   19.4227 C   0  0  0  0  0  0  0  0  0  0  0  0
    8.3454  -16.3984   20.4406 C   0  0  2  0  0  0  0  0  0  0  0  0
    7.4474  -16.0665   21.5149 N   0  0  0  0  0  0  0  0  0  0  0  0
    9.7741  -16.3719   20.8931 C   0  0  0  0  0  0  0  0  0  0  0  0
   10.0442  -15.5877   21.8309 O   0  0  0  0  0  0  0  0  0  0  0  0
   10.7730  -17.1547   20.3338 N   0  0  0  0  0  0  0  0  0  0  0  0
   12.1463  -17.2997   20.8969 C   0  0  1  0  0  0  0  0  0  0  0  0
   12.2173  -18.5717   21.6291 C   0  0  0  0  0  0  0  0  0  0  0  0
   12.0131  -18.7554   23.0377 C   0  0  0  0  0  0  0  0  0  0  0  0
   12.0172  -20.0375   23.7438 C   0  0  0  0  0  0  0  0  0  0  0  0
   11.6899  -19.6853   25.2370 C   0  0  0  0  0  0  0  0  0  0  0  0
   11.5576  -20.8920   26.0084 N   0  0  0  0  0  0  0  0  0  0  0  0
   13.0098  -17.1750   19.7098 C   0  0  0  0  0  0  0  0  0  0  0  0
   14.3069  -16.6526   19.8049 O   0  0  0  0  0  0  0  0  0  0  0  0
   12.6561  -17.5147   18.5745 O   0  0  0  0  0  0  0  0  0  0  0  0
  2  1  1  1
  2 13  1  0
  2  3  1  0
  3  4  1  0
  4  5  2  0
  6  5  1  0
  7  6  1  0
  8  7  2  0
  9  8  1  0
 10  9  2  0
 10 11  1  0
 11 12  2  0
 12  7  1  0
 12  4  1  0
 13 14  2  0
 17 16  1  6
 16 15  1  0
 18 17  1  0
 18 13  1  0
 19 20  2  0
 19 17  1  0
 21 19  1  0
 22 28  1  0
 22 21  1  0
 22 23  1  6
 24 23  1  0
 25 24  1  0
 26 27  1  0
 26 25  1  0
 28 29  1  0
 30 28  2  0
M  END
$$$$
