WSK.pdb
     RDKit          3D

 30 31  0  0  1  0  0  0  0  0999 V2000
    6.2478  -17.4290   24.5765 N   0  0  0  0  0  0  0  0  0  0  0  0
    7.0935  -16.4290   23.9651 C   0  0  1  0  0  0  0  0  0  0  0  0
    7.8861  -15.7508   25.0751 C   0  0  0  0  0  0  0  0  0  0  0  0
    7.0114  -14.8015   25.8036 C   0  0  0  0  0  0  0  0  0  0  0  0
    6.0659  -15.0974   26.7636 C   0  0  0  0  0  0  0  0  0  0  0  0
    5.4870  -13.9629   27.1881 N   0  0  0  0  0  0  0  0  0  0  0  0
    6.0162  -12.8999   26.5392 C   0  0  0  0  0  0  0  0  0  0  0  0
    5.7743  -11.5464   26.6061 C   0  0  0  0  0  0  0  0  0  0  0  0
    6.4986  -10.7077   25.7925 C   0  0  0  0  0  0  0  0  0  0  0  0
    7.4584  -11.1972   24.9154 C   0  0  0  0  0  0  0  0  0  0  0  0
    7.6793  -12.5554   24.8699 C   0  0  0  0  0  0  0  0  0  0  0  0
    6.9715  -13.4249   25.6712 C   0  0  0  0  0  0  0  0  0  0  0  0
    7.9841  -17.0812   22.9913 C   0  0  0  0  0  0  0  0  0  0  0  0
    8.4440  -18.2206   23.2469 O   0  0  0  0  0  0  0  0  0  0  0  0
    9.2089  -14.8647   20.0625 O   0  0  0  0  0  0  0  0  0  0  0  0
    9.4921  -16.1687   19.6844 C   0  0  0  0  0  0  0  0  0  0  0  0
    9.4330  -17.0169   20.9644 C   0  0  2  0  0  0  0  0  0  0  0  0
    8.3581  -16.4756   21.7533 N   0  0  0  0  0  0  0  0  0  0  0  0
   10.7603  -16.8025   21.6268 C   0  0  0  0  0  0  0  0  0  0  0  0
   10.9018  -15.7255   22.2494 O   0  0  0  0  0  0  0  0  0  0  0  0
   11.8009  -17.7181   21.5792 N   0  0  0  0  0  0  0  0  0  0  0  0
   13.0986  -17.5587   22.2965 C   0  0  1  0  0  0  0  0  0  0  0  0
   13.5460  -18.8831   22.7492 C   0  0  0  0  0  0  0  0  0  0  0  0
   13.1401  -19.5535   23.9515 C   0  0  0  0  0  0  0  0  0  0  0  0
   12.5383  -20.8856   24.0279 C   0  0  0  0  0  0  0  0  0  0  0  0
   12.3356  -21.1576   25.5595 C   0  0  0  0  0  0  0  0  0  0  0  0
   11.6971  -22.4320   25.7516 N   0  0  0  0  0  0  0  0  0  0  0  0
   13.9494  -16.8813   21.3026 C   0  0  0  0  0  0  0  0  0  0  0  0
   13.6972  -16.9971   19.9289 O   0  0  0  0  0  0  0  0  0  0  0  0
   14.9221  -16.1808   21.6067 O   0  0  0  0  0  0  0  0  0  0  0  0
  2  1  1  1
  2 13  1  0
  2  3  1  0
  3  4  1  0
  4  5  2  0
  6  5  1  0
  7  6  1  0
  8  7  2  0
  9  8  1  0
 10  9  2  0
 10 11  1  0
 11 12  2  0
 12  7  1  0
 12  4  1  0
 13 14  2  0
 17 16  1  6
 16 15  1  0
 18 17  1  0
 18 13  1  0
 19 20  2  0
 19 17  1  0
 21 19  1  0
 22 28  1  0
 22 21  1  0
 22 23  1  6
 24 23  1  0
 25 24  1  0
 26 27  1  0
 26 25  1  0
 28 29  1  0
 30 28  2  0
M  END
$$$$
