WSK.pdb
     RDKit          3D

 30 31  0  0  1  0  0  0  0  0999 V2000
    6.1934  -17.4881   24.4013 N   0  0  0  0  0  0  0  0  0  0  0  0
    6.9266  -16.4583   23.7003 C   0  0  1  0  0  0  0  0  0  0  0  0
    7.8203  -15.7547   24.7135 C   0  0  0  0  0  0  0  0  0  0  0  0
    7.0045  -14.8402   25.5473 C   0  0  0  0  0  0  0  0  0  0  0  0
    6.0217  -15.1812   26.4534 C   0  0  0  0  0  0  0  0  0  0  0  0
    5.5203  -14.0679   27.0118 N   0  0  0  0  0  0  0  0  0  0  0  0
    6.1389  -12.9754   26.5070 C   0  0  0  0  0  0  0  0  0  0  0  0
    5.9965  -11.6265   26.7413 C   0  0  0  0  0  0  0  0  0  0  0  0
    6.7962  -10.7501   26.0469 C   0  0  0  0  0  0  0  0  0  0  0  0
    7.7336  -11.1975   25.1243 C   0  0  0  0  0  0  0  0  0  0  0  0
    7.8543  -12.5522   24.9103 C   0  0  0  0  0  0  0  0  0  0  0  0
    7.0690  -13.4588   25.5889 C   0  0  0  0  0  0  0  0  0  0  0  0
    7.7185  -17.0778   22.6252 C   0  0  0  0  0  0  0  0  0  0  0  0
    8.1074  -18.2640   22.7544 O   0  0  0  0  0  0  0  0  0  0  0  0
    8.5508  -14.7256   19.8174 O   0  0  0  0  0  0  0  0  0  0  0  0
    9.2803  -15.8462   19.4487 C   0  0  0  0  0  0  0  0  0  0  0  0
    9.1738  -16.8398   20.6160 C   0  0  2  0  0  0  0  0  0  0  0  0
    8.0731  -16.3888   21.4257 N   0  0  0  0  0  0  0  0  0  0  0  0
   10.4775  -16.7144   21.3449 C   0  0  0  0  0  0  0  0  0  0  0  0
   10.5403  -15.8202   22.2190 O   0  0  0  0  0  0  0  0  0  0  0  0
   11.5777  -17.5219   21.0983 N   0  0  0  0  0  0  0  0  0  0  0  0
   12.7841  -17.5944   21.9721 C   0  0  1  0  0  0  0  0  0  0  0  0
   12.9512  -18.9837   22.4207 C   0  0  0  0  0  0  0  0  0  0  0  0
   13.7990  -19.4379   23.4859 C   0  0  0  0  0  0  0  0  0  0  0  0
   13.9958  -20.8311   23.8892 C   0  0  0  0  0  0  0  0  0  0  0  0
   15.0873  -20.7827   25.0148 C   0  0  0  0  0  0  0  0  0  0  0  0
   14.7380  -21.6878   26.0767 N   0  0  0  0  0  0  0  0  0  0  0  0
   13.8508  -17.0468   21.1160 C   0  0  0  0  0  0  0  0  0  0  0  0
   13.7674  -17.1109   19.7184 O   0  0  0  0  0  0  0  0  0  0  0  0
   14.8693  -16.5063   21.5630 O   0  0  0  0  0  0  0  0  0  0  0  0
  2  1  1  1
  2 13  1  0
  2  3  1  0
  3  4  1  0
  4  5  2  0
  6  5  1  0
  7  6  1  0
  8  7  2  0
  9  8  1  0
 10  9  2  0
 10 11  1  0
 11 12  2  0
 12  7  1  0
 12  4  1  0
 13 14  2  0
 17 16  1  6
 16 15  1  0
 18 17  1  0
 18 13  1  0
 19 20  2  0
 19 17  1  0
 21 19  1  0
 22 28  1  0
 22 21  1  0
 22 23  1  6
 24 23  1  0
 25 24  1  0
 26 27  1  0
 26 25  1  0
 28 29  1  0
 30 28  2  0
M  END
$$$$
