DMD.pdb
     RDKit          3D

 25 24  0  0  1  0  0  0  0  0999 V2000
   19.2795  -13.6519  -16.6284 N   0  0  0  0  0  0  0  0  0  0  0  0
   19.4805  -12.2380  -16.9236 C   0  0  1  0  0  0  0  0  0  0  0  0
   18.2536  -11.5003  -16.3649 C   0  0  0  0  0  0  0  0  0  0  0  0
   17.0833  -12.1244  -17.0179 C   0  0  0  0  0  0  0  0  0  0  0  0
   17.1096  -12.5110  -18.2199 O   0  0  0  0  0  0  0  0  0  0  0  0
   20.6895  -11.7402  -16.2285 C   0  0  0  0  0  0  0  0  0  0  0  0
   21.1243  -12.2799  -15.1834 O   0  0  0  0  0  0  0  0  0  0  0  0
   15.8807  -12.3152  -16.3159 O   0  0  0  0  0  0  0  0  0  0  0  0
   27.2871  -10.3774  -14.8783 C   0  0  0  0  0  0  0  0  0  0  0  0
   25.6289  -11.0042  -15.3486 S   0  0  0  0  0  0  0  0  0  0  0  0
   25.0733  -10.0527  -16.8320 C   0  0  0  0  0  0  0  0  0  0  0  0
   23.6865  -10.4885  -17.1624 C   0  0  0  0  0  0  0  0  0  0  0  0
   22.6251  -10.1294  -16.1780 C   0  0  2  0  0  0  0  0  0  0  0  0
   21.3625  -10.6310  -16.7611 N   0  0  0  0  0  0  0  0  0  0  0  0
   22.4342   -8.6799  -15.9590 C   0  0  0  0  0  0  0  0  0  0  0  0
   22.1230   -7.9004  -16.9339 O   0  0  0  0  0  0  0  0  0  0  0  0
   22.5695   -8.0392  -14.6898 N   0  0  0  0  0  0  0  0  0  0  0  0
   22.2598   -6.6280  -14.5602 C   0  0  1  0  0  0  0  0  0  0  0  0
   23.1843   -5.8060  -15.4664 C   0  0  0  0  0  0  0  0  0  0  0  0
   22.9448   -4.3640  -15.3875 C   0  0  0  0  0  0  0  0  0  0  0  0
   22.3857   -3.8191  -14.4232 O   0  0  0  0  0  0  0  0  0  0  0  0
   20.8724   -6.3089  -14.9077 C   0  0  0  0  0  0  0  0  0  0  0  0
   20.4662   -6.4931  -16.2266 O   0  0  0  0  0  0  0  0  0  0  0  0
   23.3574   -3.5574  -16.4404 O   0  0  0  0  0  0  0  0  0  0  0  0
   20.0024   -5.8748  -14.0987 O   0  0  0  0  0  0  0  0  0  0  0  0
  2  1  1  1
  2  3  1  0
  2  6  1  0
  3  4  1  0
  4  8  1  0
  4  5  2  0
  6  7  2  0
 10 11  1  0
 10  9  1  0
 11 12  1  0
 13 12  1  6
 14  6  1  0
 14 13  1  0
 15 13  1  0
 15 16  2  0
 17 15  1  0
 18 17  1  0
 18 19  1  6
 20 19  1  0
 20 24  1  0
 21 20  2  0
 22 23  1  0
 22 18  1  0
 25 22  2  0
M  END
$$$$
