DMD.pdb
     RDKit          3D

 25 24  0  0  1  0  0  0  0  0999 V2000
   19.2301  -12.6204  -16.8285 N   0  0  0  0  0  0  0  0  0  0  0  0
   19.3296  -11.2332  -16.3898 C   0  0  1  0  0  0  0  0  0  0  0  0
   18.6154  -11.1564  -15.0314 C   0  0  0  0  0  0  0  0  0  0  0  0
   17.1707  -11.2238  -15.3376 C   0  0  0  0  0  0  0  0  0  0  0  0
   16.3319  -11.7038  -14.5247 O   0  0  0  0  0  0  0  0  0  0  0  0
   20.7501  -10.8606  -16.1997 C   0  0  0  0  0  0  0  0  0  0  0  0
   21.4730  -11.4162  -15.3387 O   0  0  0  0  0  0  0  0  0  0  0  0
   16.6686  -10.7485  -16.5612 O   0  0  0  0  0  0  0  0  0  0  0  0
   23.6754  -10.7690  -21.1901 C   0  0  0  0  0  0  0  0  0  0  0  0
   23.5353   -8.9692  -20.8663 S   0  0  0  0  0  0  0  0  0  0  0  0
   22.5703   -8.7571  -19.3048 C   0  0  0  0  0  0  0  0  0  0  0  0
   23.2913   -9.4807  -18.2192 C   0  0  0  0  0  0  0  0  0  0  0  0
   22.6934   -9.3985  -16.8552 C   0  0  2  0  0  0  0  0  0  0  0  0
   21.2958   -9.8550  -17.0107 N   0  0  0  0  0  0  0  0  0  0  0  0
   22.6244   -8.0388  -16.2791 C   0  0  0  0  0  0  0  0  0  0  0  0
   23.6967   -7.3875  -15.9942 O   0  0  0  0  0  0  0  0  0  0  0  0
   21.4046   -7.3500  -16.0011 N   0  0  0  0  0  0  0  0  0  0  0  0
   21.4451   -6.0309  -15.3991 C   0  0  1  0  0  0  0  0  0  0  0  0
   20.2607   -5.1939  -15.8973 C   0  0  0  0  0  0  0  0  0  0  0  0
   20.1986   -3.8592  -15.2990 C   0  0  0  0  0  0  0  0  0  0  0  0
   21.1486   -3.0613  -15.3163 O   0  0  0  0  0  0  0  0  0  0  0  0
   21.4009   -6.0648  -13.9347 C   0  0  0  0  0  0  0  0  0  0  0  0
   21.9217   -4.9789  -13.2362 O   0  0  0  0  0  0  0  0  0  0  0  0
   19.0238   -3.4579  -14.6761 O   0  0  0  0  0  0  0  0  0  0  0  0
   20.9227   -7.0104  -13.2441 O   0  0  0  0  0  0  0  0  0  0  0  0
  2  1  1  1
  2  3  1  0
  2  6  1  0
  3  4  1  0
  4  8  1  0
  4  5  2  0
  6  7  2  0
 10 11  1  0
 10  9  1  0
 11 12  1  0
 13 12  1  6
 14  6  1  0
 14 13  1  0
 15 13  1  0
 15 16  2  0
 17 15  1  0
 18 17  1  0
 18 19  1  6
 20 19  1  0
 20 24  1  0
 21 20  2  0
 22 23  1  0
 22 18  1  0
 25 22  2  0
M  END
$$$$
