DMD.pdb
     RDKit          3D

 25 24  0  0  1  0  0  0  0  0999 V2000
   21.1525  -12.5293  -18.0090 N   0  0  0  0  0  0  0  0  0  0  0  0
   20.2363  -12.1075  -16.9558 C   0  0  1  0  0  0  0  0  0  0  0  0
   19.7382  -13.3920  -16.2750 C   0  0  0  0  0  0  0  0  0  0  0  0
   18.7705  -13.9919  -17.2179 C   0  0  0  0  0  0  0  0  0  0  0  0
   18.2914  -13.3469  -18.1922 O   0  0  0  0  0  0  0  0  0  0  0  0
   20.9559  -11.2888  -15.9535 C   0  0  0  0  0  0  0  0  0  0  0  0
   20.5732  -11.2100  -14.7619 O   0  0  0  0  0  0  0  0  0  0  0  0
   18.3420  -15.3217  -17.0648 O   0  0  0  0  0  0  0  0  0  0  0  0
   27.5595  -11.3604  -14.5589 C   0  0  0  0  0  0  0  0  0  0  0  0
   26.6390  -11.0803  -16.1203 S   0  0  0  0  0  0  0  0  0  0  0  0
   24.8359  -11.1953  -15.7329 C   0  0  0  0  0  0  0  0  0  0  0  0
   24.2645   -9.8201  -15.8009 C   0  0  0  0  0  0  0  0  0  0  0  0
   22.8245   -9.6806  -15.4381 C   0  0  2  0  0  0  0  0  0  0  0  0
   22.0985  -10.5829  -16.3571 N   0  0  0  0  0  0  0  0  0  0  0  0
   22.2520   -8.3328  -15.6412 C   0  0  0  0  0  0  0  0  0  0  0  0
   22.0270   -7.8828  -16.8253 O   0  0  0  0  0  0  0  0  0  0  0  0
   21.9061   -7.4435  -14.5786 N   0  0  0  0  0  0  0  0  0  0  0  0
   21.4564   -6.0987  -14.8845 C   0  0  1  0  0  0  0  0  0  0  0  0
   19.9244   -6.0408  -14.8499 C   0  0  0  0  0  0  0  0  0  0  0  0
   19.3855   -4.7107  -15.1392 C   0  0  0  0  0  0  0  0  0  0  0  0
   20.0652   -3.7918  -15.6220 O   0  0  0  0  0  0  0  0  0  0  0  0
   21.9759   -5.0925  -13.9544 C   0  0  0  0  0  0  0  0  0  0  0  0
   21.8161   -3.7490  -14.2831 O   0  0  0  0  0  0  0  0  0  0  0  0
   18.0493   -4.4537  -14.8603 O   0  0  0  0  0  0  0  0  0  0  0  0
   22.5647   -5.3463  -12.8642 O   0  0  0  0  0  0  0  0  0  0  0  0
  2  1  1  6
  2  3  1  0
  2  6  1  0
  3  4  1  0
  4  8  1  0
  4  5  2  0
  6  7  2  0
 10 11  1  0
 10  9  1  0
 11 12  1  0
 13 12  1  6
 14  6  1  0
 14 13  1  0
 15 13  1  0
 15 16  2  0
 17 15  1  0
 18 17  1  0
 18 19  1  1
 20 19  1  0
 20 24  1  0
 21 20  2  0
 22 23  1  0
 22 18  1  0
 25 22  2  0
M  END
$$$$
