DMD.pdb
     RDKit          3D

 25 24  0  0  1  0  0  0  0  0999 V2000
   22.6605  -12.5006  -18.3390 N   0  0  0  0  0  0  0  0  0  0  0  0
   21.7507  -12.4786  -17.1995 C   0  0  1  0  0  0  0  0  0  0  0  0
   21.6399  -13.9296  -16.7058 C   0  0  0  0  0  0  0  0  0  0  0  0
   20.9031  -14.6539  -17.7631 C   0  0  0  0  0  0  0  0  0  0  0  0
   19.9513  -14.1255  -18.4033 O   0  0  0  0  0  0  0  0  0  0  0  0
   22.3185  -11.6502  -16.1113 C   0  0  0  0  0  0  0  0  0  0  0  0
   21.7819  -11.5813  -14.9800 O   0  0  0  0  0  0  0  0  0  0  0  0
   21.2393  -15.9759  -18.1019 O   0  0  0  0  0  0  0  0  0  0  0  0
   28.7911  -12.8698  -15.3684 C   0  0  0  0  0  0  0  0  0  0  0  0
   27.9918  -11.2637  -15.7498 S   0  0  0  0  0  0  0  0  0  0  0  0
   26.2095  -11.4029  -15.2823 C   0  0  0  0  0  0  0  0  0  0  0  0
   25.5572  -10.0937  -15.5697 C   0  0  0  0  0  0  0  0  0  0  0  0
   24.0837  -10.0232  -15.3494 C   0  0  2  0  0  0  0  0  0  0  0  0
   23.4916  -10.9235  -16.3616 N   0  0  0  0  0  0  0  0  0  0  0  0
   23.4771   -8.6934  -15.5710 C   0  0  0  0  0  0  0  0  0  0  0  0
   23.7565   -7.7034  -14.7984 O   0  0  0  0  0  0  0  0  0  0  0  0
   22.5624   -8.3987  -16.6275 N   0  0  0  0  0  0  0  0  0  0  0  0
   22.0234   -7.0584  -16.7587 C   0  0  1  0  0  0  0  0  0  0  0  0
   21.6084   -6.8034  -18.2128 C   0  0  0  0  0  0  0  0  0  0  0  0
   21.0876   -5.4545  -18.4414 C   0  0  0  0  0  0  0  0  0  0  0  0
   19.8762   -5.1862  -18.4536 O   0  0  0  0  0  0  0  0  0  0  0  0
   20.8606   -6.8188  -15.8996 C   0  0  0  0  0  0  0  0  0  0  0  0
   20.6661   -5.5338  -15.4002 O   0  0  0  0  0  0  0  0  0  0  0  0
   21.9853   -4.4173  -18.6596 O   0  0  0  0  0  0  0  0  0  0  0  0
   20.0083   -7.6933  -15.5702 O   0  0  0  0  0  0  0  0  0  0  0  0
  2  1  1  6
  2  3  1  0
  2  6  1  0
  3  4  1  0
  4  8  1  0
  4  5  2  0
  6  7  2  0
 10 11  1  0
 10  9  1  0
 11 12  1  0
 13 12  1  6
 14  6  1  0
 14 13  1  0
 15 13  1  0
 15 16  2  0
 17 15  1  0
 18 17  1  0
 18 19  1  6
 20 19  1  0
 20 24  1  0
 21 20  2  0
 22 23  1  0
 22 18  1  0
 25 22  2  0
M  END
$$$$
