DMD.pdb
     RDKit          3D

 25 24  0  0  1  0  0  0  0  0999 V2000
   18.1812  -12.2784  -16.6167 N   0  0  0  0  0  0  0  0  0  0  0  0
   18.7871  -11.1495  -17.3132 C   0  0  1  0  0  0  0  0  0  0  0  0
   17.6397  -10.1874  -17.6587 C   0  0  0  0  0  0  0  0  0  0  0  0
   16.8136  -10.8970  -18.6585 C   0  0  0  0  0  0  0  0  0  0  0  0
   17.2790  -11.2762  -19.7695 O   0  0  0  0  0  0  0  0  0  0  0  0
   19.7378  -10.4508  -16.4185 C   0  0  0  0  0  0  0  0  0  0  0  0
   19.4875  -10.2564  -15.2051 O   0  0  0  0  0  0  0  0  0  0  0  0
   15.4606  -11.1819  -18.4065 O   0  0  0  0  0  0  0  0  0  0  0  0
   27.3054  -10.6495  -15.1792 C   0  0  0  0  0  0  0  0  0  0  0  0
   25.7585  -11.1604  -16.0218 S   0  0  0  0  0  0  0  0  0  0  0  0
   24.4742   -9.8846  -15.6512 C   0  0  0  0  0  0  0  0  0  0  0  0
   23.2216  -10.2772  -16.3576 C   0  0  0  0  0  0  0  0  0  0  0  0
   22.0195   -9.4339  -16.0964 C   0  0  2  0  0  0  0  0  0  0  0  0
   20.9523   -9.9953  -16.9518 N   0  0  0  0  0  0  0  0  0  0  0  0
   22.1530   -8.0120  -16.4786 C   0  0  0  0  0  0  0  0  0  0  0  0
   22.0180   -7.6423  -17.7033 O   0  0  0  0  0  0  0  0  0  0  0  0
   22.4299   -6.9591  -15.5543 N   0  0  0  0  0  0  0  0  0  0  0  0
   22.2742   -5.5781  -15.9701 C   0  0  1  0  0  0  0  0  0  0  0  0
   20.8599   -5.3554  -16.5194 C   0  0  0  0  0  0  0  0  0  0  0  0
   20.5994   -3.9691  -16.9113 C   0  0  0  0  0  0  0  0  0  0  0  0
   21.1302   -3.4290  -17.8942 O   0  0  0  0  0  0  0  0  0  0  0  0
   22.5022   -4.6208  -14.8843 C   0  0  0  0  0  0  0  0  0  0  0  0
   22.9005   -3.3295  -15.2194 O   0  0  0  0  0  0  0  0  0  0  0  0
   19.7184   -3.2116  -16.1502 O   0  0  0  0  0  0  0  0  0  0  0  0
   22.3652   -4.8733  -13.6525 O   0  0  0  0  0  0  0  0  0  0  0  0
  2  1  1  1
  2  3  1  0
  2  6  1  0
  3  4  1  0
  4  8  1  0
  4  5  2  0
  6  7  2  0
 10 11  1  0
 10  9  1  0
 11 12  1  0
 13 12  1  6
 14  6  1  0
 14 13  1  0
 15 13  1  0
 15 16  2  0
 17 15  1  0
 18 17  1  0
 18 19  1  1
 20 19  1  0
 20 24  1  0
 21 20  2  0
 22 23  1  0
 22 18  1  0
 25 22  2  0
M  END
$$$$
