DMD.pdb
     RDKit          3D

 25 24  0  0  1  0  0  0  0  0999 V2000
   23.1597  -20.7875  -14.5434 N   0  0  0  0  0  0  0  0  0  0  0  0
   22.4790  -19.8284  -15.4056 C   0  0  1  0  0  0  0  0  0  0  0  0
   20.9787  -20.1452  -15.3059 C   0  0  0  0  0  0  0  0  0  0  0  0
   20.8123  -21.4790  -15.9212 C   0  0  0  0  0  0  0  0  0  0  0  0
   21.3006  -21.7654  -17.0501 O   0  0  0  0  0  0  0  0  0  0  0  0
   22.7060  -18.4507  -14.9125 C   0  0  0  0  0  0  0  0  0  0  0  0
   22.7167  -18.1766  -13.6888 O   0  0  0  0  0  0  0  0  0  0  0  0
   20.0959  -22.4938  -15.2636 O   0  0  0  0  0  0  0  0  0  0  0  0
   27.8628  -13.0830  -15.1341 C   0  0  0  0  0  0  0  0  0  0  0  0
   27.1262  -14.6958  -15.6033 S   0  0  0  0  0  0  0  0  0  0  0  0
   25.3068  -14.5871  -15.2996 C   0  0  0  0  0  0  0  0  0  0  0  0
   24.7209  -15.9365  -15.5409 C   0  0  0  0  0  0  0  0  0  0  0  0
   23.2371  -16.0449  -15.4357 C   0  0  2  0  0  0  0  0  0  0  0  0
   22.9138  -17.4272  -15.8485 N   0  0  0  0  0  0  0  0  0  0  0  0
   22.4754  -15.1538  -16.3363 C   0  0  0  0  0  0  0  0  0  0  0  0
   22.3575  -15.4250  -17.5883 O   0  0  0  0  0  0  0  0  0  0  0  0
   21.8224  -13.9570  -15.9110 N   0  0  0  0  0  0  0  0  0  0  0  0
   21.1062  -13.1464  -16.8776 C   0  0  1  0  0  0  0  0  0  0  0  0
   19.9503  -12.4120  -16.1877 C   0  0  0  0  0  0  0  0  0  0  0  0
   18.9036  -13.3084  -15.6937 C   0  0  0  0  0  0  0  0  0  0  0  0
   18.8264  -14.5049  -16.0128 O   0  0  0  0  0  0  0  0  0  0  0  0
   21.9561  -12.1508  -17.5362 C   0  0  0  0  0  0  0  0  0  0  0  0
   21.4169  -11.4224  -18.5932 O   0  0  0  0  0  0  0  0  0  0  0  0
   17.9428  -12.8035  -14.8269 O   0  0  0  0  0  0  0  0  0  0  0  0
   23.1538  -11.8949  -17.2201 O   0  0  0  0  0  0  0  0  0  0  0  0
  2  1  1  1
  2  3  1  0
  2  6  1  0
  3  4  1  0
  4  8  1  0
  4  5  2  0
  6  7  2  0
 10 11  1  0
 10  9  1  0
 11 12  1  0
 13 12  1  6
 14  6  1  0
 14 13  1  0
 15 13  1  0
 15 16  2  0
 17 15  1  0
 18 17  1  0
 18 19  1  1
 20 19  1  0
 20 24  1  0
 21 20  2  0
 22 23  1  0
 22 18  1  0
 25 22  2  0
M  END
$$$$
