DMD.pdb
     RDKit          3D

 25 24  0  0  1  0  0  0  0  0999 V2000
   21.9260  -33.1917   -6.0000 N   0  0  0  0  0  0  0  0  0  0  0  0
   23.2350  -33.1749   -5.3573 C   0  0  1  0  0  0  0  0  0  0  0  0
   24.1539  -32.3456   -6.2679 C   0  0  0  0  0  0  0  0  0  0  0  0
   24.7408  -33.3089   -7.2235 C   0  0  0  0  0  0  0  0  0  0  0  0
   24.4608  -34.5400   -7.1962 O   0  0  0  0  0  0  0  0  0  0  0  0
   23.1458  -32.5062   -4.0391 C   0  0  0  0  0  0  0  0  0  0  0  0
   24.1046  -32.5009   -3.2309 O   0  0  0  0  0  0  0  0  0  0  0  0
   25.6442  -32.8852   -8.2134 O   0  0  0  0  0  0  0  0  0  0  0  0
   18.8271  -26.7735   -0.8351 C   0  0  0  0  0  0  0  0  0  0  0  0
   19.1595  -27.9588   -2.1948 S   0  0  0  0  0  0  0  0  0  0  0  0
   20.3772  -29.1991   -1.5680 C   0  0  0  0  0  0  0  0  0  0  0  0
   20.8464  -30.0075   -2.7293 C   0  0  0  0  0  0  0  0  0  0  0  0
   21.8070  -31.1079   -2.4279 C   0  0  2  0  0  0  0  0  0  0  0  0
   21.9495  -31.8621   -3.6915 N   0  0  0  0  0  0  0  0  0  0  0  0
   21.3510  -32.0810   -1.4127 C   0  0  0  0  0  0  0  0  0  0  0  0
   20.4181  -32.9255   -1.6801 O   0  0  0  0  0  0  0  0  0  0  0  0
   21.8893  -32.1698   -0.0929 N   0  0  0  0  0  0  0  0  0  0  0  0
   21.3622  -33.1536    0.8337 C   0  0  1  0  0  0  0  0  0  0  0  0
   22.4510  -33.5654    1.8320 C   0  0  0  0  0  0  0  0  0  0  0  0
   22.0151  -34.5952    2.7768 C   0  0  0  0  0  0  0  0  0  0  0  0
   22.3754  -34.6256    3.9637 O   0  0  0  0  0  0  0  0  0  0  0  0
   20.2040  -32.6697    1.5899 C   0  0  0  0  0  0  0  0  0  0  0  0
   20.0230  -31.2941    1.7059 O   0  0  0  0  0  0  0  0  0  0  0  0
   21.1581  -35.5936    2.3317 O   0  0  0  0  0  0  0  0  0  0  0  0
   19.3443  -33.4071    2.1527 O   0  0  0  0  0  0  0  0  0  0  0  0
  2  1  1  6
  2  3  1  0
  2  6  1  0
  3  4  1  0
  4  8  1  0
  4  5  2  0
  6  7  2  0
 10 11  1  0
 10  9  1  0
 11 12  1  0
 13 12  1  6
 14  6  1  0
 14 13  1  0
 15 13  1  0
 15 16  2  0
 17 15  1  0
 18 17  1  0
 18 19  1  1
 20 19  1  0
 20 24  1  0
 21 20  2  0
 22 23  1  0
 22 18  1  0
 25 22  2  0
M  END
$$$$
