DMD.pdb
     RDKit          3D

 25 24  0  0  1  0  0  0  0  0999 V2000
   24.7062  -14.4558  -20.1176 N   0  0  0  0  0  0  0  0  0  0  0  0
   24.8681  -13.0468  -19.7781 C   0  0  1  0  0  0  0  0  0  0  0  0
   25.5920  -12.3954  -20.9668 C   0  0  0  0  0  0  0  0  0  0  0  0
   26.9660  -12.9406  -20.9426 C   0  0  0  0  0  0  0  0  0  0  0  0
   27.4746  -13.5286  -21.9378 O   0  0  0  0  0  0  0  0  0  0  0  0
   23.5425  -12.4057  -19.6219 C   0  0  0  0  0  0  0  0  0  0  0  0
   22.7486  -12.2788  -20.5844 O   0  0  0  0  0  0  0  0  0  0  0  0
   27.7701  -12.8224  -19.7959 O   0  0  0  0  0  0  0  0  0  0  0  0
   19.4613  -14.9412  -16.5673 C   0  0  0  0  0  0  0  0  0  0  0  0
   19.2365  -13.4056  -15.5899 S   0  0  0  0  0  0  0  0  0  0  0  0
   19.8466  -11.9963  -16.6176 C   0  0  0  0  0  0  0  0  0  0  0  0
   21.1742  -12.3789  -17.1773 C   0  0  0  0  0  0  0  0  0  0  0  0
   21.8200  -11.3914  -18.0897 C   0  0  2  0  0  0  0  0  0  0  0  0
   23.1714  -11.9283  -18.3566 N   0  0  0  0  0  0  0  0  0  0  0  0
   22.0146  -10.0414  -17.5197 C   0  0  0  0  0  0  0  0  0  0  0  0
   22.9458   -9.8153  -16.6613 O   0  0  0  0  0  0  0  0  0  0  0  0
   21.2172   -8.9071  -17.8622 N   0  0  0  0  0  0  0  0  0  0  0  0
   21.4625   -7.6335  -17.2127 C   0  0  1  0  0  0  0  0  0  0  0  0
   20.6399   -6.5335  -17.8947 C   0  0  0  0  0  0  0  0  0  0  0  0
   20.7967   -5.2183  -17.2712 C   0  0  0  0  0  0  0  0  0  0  0  0
   20.0471   -4.7955  -16.3774 O   0  0  0  0  0  0  0  0  0  0  0  0
   21.1276   -7.6408  -15.7861 C   0  0  0  0  0  0  0  0  0  0  0  0
   21.7174   -6.6813  -14.9676 O   0  0  0  0  0  0  0  0  0  0  0  0
   21.8307   -4.3940  -17.6962 O   0  0  0  0  0  0  0  0  0  0  0  0
   20.3372   -8.4566  -15.2297 O   0  0  0  0  0  0  0  0  0  0  0  0
  2  1  1  6
  2  3  1  0
  2  6  1  0
  3  4  1  0
  4  8  1  0
  4  5  2  0
  6  7  2  0
 10 11  1  0
 10  9  1  0
 11 12  1  0
 13 12  1  1
 14  6  1  0
 14 13  1  0
 15 13  1  0
 15 16  2  0
 17 15  1  0
 18 17  1  0
 18 19  1  6
 20 19  1  0
 20 24  1  0
 21 20  2  0
 22 23  1  0
 22 18  1  0
 25 22  2  0
M  END
$$$$
