DMD.pdb
     RDKit          3D

 25 24  0  0  1  0  0  0  0  0999 V2000
   14.5236  -11.4269  -11.2910 N   0  0  0  0  0  0  0  0  0  0  0  0
   15.6092  -10.4641  -11.1451 C   0  0  1  0  0  0  0  0  0  0  0  0
   16.3155  -10.3979  -12.5083 C   0  0  0  0  0  0  0  0  0  0  0  0
   16.9297  -11.7285  -12.7026 C   0  0  0  0  0  0  0  0  0  0  0  0
   16.5508  -12.5187  -13.6120 O   0  0  0  0  0  0  0  0  0  0  0  0
   15.0621   -9.1247  -10.8298 C   0  0  0  0  0  0  0  0  0  0  0  0
   14.1555   -8.5986  -11.5183 O   0  0  0  0  0  0  0  0  0  0  0  0
   17.9740  -12.1704  -11.8722 O   0  0  0  0  0  0  0  0  0  0  0  0
   13.0296   -4.7029   -4.9766 C   0  0  0  0  0  0  0  0  0  0  0  0
   13.4581   -6.2662   -5.8349 S   0  0  0  0  0  0  0  0  0  0  0  0
   14.7248   -5.8677   -7.1197 C   0  0  0  0  0  0  0  0  0  0  0  0
   15.0919   -7.1370   -7.8099 C   0  0  0  0  0  0  0  0  0  0  0  0
   15.0328   -7.1239   -9.3002 C   0  0  2  0  0  0  0  0  0  0  0  0
   15.5789   -8.4299   -9.7266 N   0  0  0  0  0  0  0  0  0  0  0  0
   15.8655   -6.0922   -9.9541 C   0  0  0  0  0  0  0  0  0  0  0  0
   17.1495   -6.1678   -9.9304 O   0  0  0  0  0  0  0  0  0  0  0  0
   15.3373   -4.9620  -10.6493 N   0  0  0  0  0  0  0  0  0  0  0  0
   16.2417   -3.9777  -11.2129 C   0  0  1  0  0  0  0  0  0  0  0  0
   16.3116   -4.1457  -12.7356 C   0  0  0  0  0  0  0  0  0  0  0  0
   17.1276   -3.1258  -13.3968 C   0  0  0  0  0  0  0  0  0  0  0  0
   17.7535   -2.2501  -12.7795 O   0  0  0  0  0  0  0  0  0  0  0  0
   15.8457   -2.5976  -10.9199 C   0  0  0  0  0  0  0  0  0  0  0  0
   16.8493   -1.6617  -10.6849 O   0  0  0  0  0  0  0  0  0  0  0  0
   17.2096   -3.1281  -14.7833 O   0  0  0  0  0  0  0  0  0  0  0  0
   14.6529   -2.1808  -10.8623 O   0  0  0  0  0  0  0  0  0  0  0  0
  2  1  1  6
  2  3  1  0
  2  6  1  0
  3  4  1  0
  4  8  1  0
  4  5  2  0
  6  7  2  0
 10 11  1  0
 10  9  1  0
 11 12  1  0
 13 12  1  1
 14  6  1  0
 14 13  1  0
 15 13  1  0
 15 16  2  0
 17 15  1  0
 18 17  1  0
 18 19  1  6
 20 19  1  0
 20 24  1  0
 21 20  2  0
 22 23  1  0
 22 18  1  0
 25 22  2  0
M  END
$$$$
