NGC.pdb
     RDKit          3D

 19 18  0  0  1  0  0  0  0  0999 V2000
   16.7667  -12.8616  -15.7807 N   0  0  0  0  0  0  0  0  0  0  0  0
   17.9617  -13.3033  -15.1832 C   0  0  0  0  0  0  0  0  0  0  0  0
   17.8387  -14.2474  -14.3250 O   0  0  0  0  0  0  0  0  0  0  0  0
   19.2790  -12.7188  -15.5209 C   0  0  0  0  0  0  0  0  0  0  0  0
   19.1344  -11.5935  -16.5171 C   0  0  2  0  0  0  0  0  0  0  0  0
   18.8232  -12.0819  -17.8308 N   0  0  0  0  0  0  0  0  0  0  0  0
   20.3360  -10.7349  -16.4685 C   0  0  0  0  0  0  0  0  0  0  0  0
   21.4451  -11.1784  -16.7757 O   0  0  0  0  0  0  0  0  0  0  0  0
   20.2625   -9.3554  -16.0609 N   0  0  0  0  0  0  0  0  0  0  0  0
   21.4338   -8.5419  -15.9398 C   0  0  0  0  0  0  0  0  0  0  0  0
   21.2331   -7.1445  -15.5939 C   0  0  0  0  0  0  0  0  0  0  0  0
   20.0591   -6.6576  -15.6120 O   0  0  0  0  0  0  0  0  0  0  0  0
   22.2507   -6.2042  -15.2192 N   0  0  0  0  0  0  0  0  0  0  0  0
   21.9372   -4.8222  -14.9356 C   0  0  1  0  0  0  0  0  0  0  0  0
   22.4399   -4.4967  -13.5503 C   0  0  0  0  0  0  0  0  0  0  0  0
   21.7480   -5.6043  -12.2985 S   0  0  0  0  0  0  0  0  0  0  0  0
   22.3941   -3.8833  -15.9499 C   0  0  0  0  0  0  0  0  0  0  0  0
   23.3640   -4.2140  -16.7025 O   0  0  0  0  0  0  0  0  0  0  0  0
   21.8284   -2.6578  -16.1372 O   0  0  0  0  0  0  0  0  0  0  0  0
  1  2  1  0
  2  3  2  0
  4  2  1  0
  4  5  1  0
  5  6  1  6
  7  5  1  0
  7  8  2  0
  9  7  1  0
 10  9  1  0
 10 11  1  0
 11 13  1  0
 12 11  2  0
 13 14  1  0
 14 17  1  0
 14 15  1  1
 16 15  1  0
 17 18  2  0
 17 19  1  0
M  END
$$$$
