NGC.pdb
     RDKit          3D

 19 18  0  0  1  0  0  0  0  0999 V2000
   26.0666  -17.4368  -17.5653 N   0  0  0  0  0  0  0  0  0  0  0  0
   27.2032  -17.1273  -16.7958 C   0  0  0  0  0  0  0  0  0  0  0  0
   27.8762  -16.1074  -17.1828 O   0  0  0  0  0  0  0  0  0  0  0  0
   27.6006  -17.9248  -15.6139 C   0  0  0  0  0  0  0  0  0  0  0  0
   26.6189  -19.0432  -15.3586 C   0  0  2  0  0  0  0  0  0  0  0  0
   25.3617  -18.5482  -14.8735 N   0  0  0  0  0  0  0  0  0  0  0  0
   27.2418  -20.0544  -14.4793 C   0  0  0  0  0  0  0  0  0  0  0  0
   28.1877  -20.7408  -14.8730 O   0  0  0  0  0  0  0  0  0  0  0  0
   26.7715  -20.2802  -13.1367 N   0  0  0  0  0  0  0  0  0  0  0  0
   27.3861  -21.2434  -12.2749 C   0  0  0  0  0  0  0  0  0  0  0  0
   26.8984  -21.3106  -10.9073 C   0  0  0  0  0  0  0  0  0  0  0  0
   27.2929  -22.2501  -10.1475 O   0  0  0  0  0  0  0  0  0  0  0  0
   25.9792  -20.4013  -10.2842 N   0  0  0  0  0  0  0  0  0  0  0  0
   24.9836  -20.8585   -9.3417 C   0  0  1  0  0  0  0  0  0  0  0  0
   25.1688  -20.0990   -8.0507 C   0  0  0  0  0  0  0  0  0  0  0  0
   26.7760  -19.2723   -7.9732 S   0  0  0  0  0  0  0  0  0  0  0  0
   23.6180  -20.8164   -9.8441 C   0  0  0  0  0  0  0  0  0  0  0  0
   23.3979  -20.3036  -10.9866 O   0  0  0  0  0  0  0  0  0  0  0  0
   22.5540  -21.3054   -9.1472 O   0  0  0  0  0  0  0  0  0  0  0  0
  1  2  1  0
  2  3  2  0
  4  2  1  0
  4  5  1  0
  5  6  1  1
  7  5  1  0
  7  8  2  0
  9  7  1  0
 10  9  1  0
 10 11  1  0
 11 13  1  0
 12 11  2  0
 13 14  1  0
 14 17  1  0
 14 15  1  1
 16 15  1  0
 17 18  2  0
 17 19  1  0
M  END
$$$$
