NGC.pdb
     RDKit          3D

 19 18  0  0  1  0  0  0  0  0999 V2000
   20.8203  -10.1133  -16.3257 N   0  0  0  0  0  0  0  0  0  0  0  0
   19.7058  -10.2723  -15.4817 C   0  0  0  0  0  0  0  0  0  0  0  0
   18.7890  -11.0576  -15.9128 O   0  0  0  0  0  0  0  0  0  0  0  0
   19.5942   -9.5797  -14.1784 C   0  0  0  0  0  0  0  0  0  0  0  0
   18.1512   -9.4531  -13.7525 C   0  0  2  0  0  0  0  0  0  0  0  0
   17.4356   -8.5131  -14.5682 N   0  0  0  0  0  0  0  0  0  0  0  0
   18.0884   -9.1576  -12.3060 C   0  0  0  0  0  0  0  0  0  0  0  0
   18.5471   -9.9471  -11.4770 O   0  0  0  0  0  0  0  0  0  0  0  0
   17.4910   -7.9452  -11.8083 N   0  0  0  0  0  0  0  0  0  0  0  0
   17.4601   -7.6390  -10.4105 C   0  0  0  0  0  0  0  0  0  0  0  0
   16.2760   -6.9604   -9.9103 C   0  0  0  0  0  0  0  0  0  0  0  0
   15.4219   -6.5036  -10.7332 O   0  0  0  0  0  0  0  0  0  0  0  0
   15.9421   -6.7319   -8.5333 N   0  0  0  0  0  0  0  0  0  0  0  0
   14.7313   -6.0409   -8.1524 C   0  0  1  0  0  0  0  0  0  0  0  0
   14.3830   -6.4388   -6.7388 C   0  0  0  0  0  0  0  0  0  0  0  0
   14.2343   -8.2324   -6.5547 S   0  0  0  0  0  0  0  0  0  0  0  0
   14.7754   -4.5996   -8.3510 C   0  0  0  0  0  0  0  0  0  0  0  0
   13.6957   -3.9333   -8.2669 O   0  0  0  0  0  0  0  0  0  0  0  0
   15.9257   -3.9213   -8.6225 O   0  0  0  0  0  0  0  0  0  0  0  0
  1  2  1  0
  2  3  2  0
  4  2  1  0
  4  5  1  0
  5  6  1  6
  7  5  1  0
  7  8  2  0
  9  7  1  0
 10  9  1  0
 10 11  1  0
 11 13  1  0
 12 11  2  0
 13 14  1  0
 14 17  1  0
 14 15  1  1
 16 15  1  0
 17 18  2  0
 17 19  1  0
M  END
$$$$
