NGC.pdb
     RDKit          3D

 19 18  0  0  1  0  0  0  0  0999 V2000
   19.2727  -13.4548  -19.6820 N   0  0  0  0  0  0  0  0  0  0  0  0
   19.9564  -12.5834  -18.8142 C   0  0  0  0  0  0  0  0  0  0  0  0
   20.9042  -13.1098  -18.1304 O   0  0  0  0  0  0  0  0  0  0  0  0
   19.6078  -11.1499  -18.6950 C   0  0  0  0  0  0  0  0  0  0  0  0
   19.7980  -10.6608  -17.2792 C   0  0  2  0  0  0  0  0  0  0  0  0
   18.9202  -11.3307  -16.3618 N   0  0  0  0  0  0  0  0  0  0  0  0
   19.6837   -9.1878  -17.2472 C   0  0  0  0  0  0  0  0  0  0  0  0
   20.5023   -8.4755  -17.8332 O   0  0  0  0  0  0  0  0  0  0  0  0
   18.6208   -8.5282  -16.5333 N   0  0  0  0  0  0  0  0  0  0  0  0
   18.4901   -7.1030  -16.5244 C   0  0  0  0  0  0  0  0  0  0  0  0
   19.1349   -6.3886  -15.4351 C   0  0  0  0  0  0  0  0  0  0  0  0
   18.8259   -5.1760  -15.2123 O   0  0  0  0  0  0  0  0  0  0  0  0
   20.1275   -6.9132  -14.5409 N   0  0  0  0  0  0  0  0  0  0  0  0
   20.7526   -6.0860  -13.5341 C   0  0  1  0  0  0  0  0  0  0  0  0
   21.0675   -6.9511  -12.3382 C   0  0  0  0  0  0  0  0  0  0  0  0
   19.5987   -7.7966  -11.7054 S   0  0  0  0  0  0  0  0  0  0  0  0
   21.8969   -5.3228  -14.0107 C   0  0  0  0  0  0  0  0  0  0  0  0
   22.4487   -4.4869  -13.2274 O   0  0  0  0  0  0  0  0  0  0  0  0
   22.4134   -5.4617  -15.2640 O   0  0  0  0  0  0  0  0  0  0  0  0
  1  2  1  0
  2  3  2  0
  4  2  1  0
  4  5  1  0
  5  6  1  1
  7  5  1  0
  7  8  2  0
  9  7  1  0
 10  9  1  0
 10 11  1  0
 11 13  1  0
 12 11  2  0
 13 14  1  0
 14 17  1  0
 14 15  1  1
 16 15  1  0
 17 18  2  0
 17 19  1  0
M  END
$$$$
