NGC.pdb
     RDKit          3D

 19 18  0  0  1  0  0  0  0  0999 V2000
   20.2073  -11.4048  -17.4207 N   0  0  0  0  0  0  0  0  0  0  0  0
   19.1187  -10.9704  -16.6422 C   0  0  0  0  0  0  0  0  0  0  0  0
   17.9681  -11.4054  -17.0028 O   0  0  0  0  0  0  0  0  0  0  0  0
   19.2859  -10.0691  -15.4800 C   0  0  0  0  0  0  0  0  0  0  0  0
   18.2454  -10.3485  -14.4222 C   0  0  2  0  0  0  0  0  0  0  0  0
   16.9123  -10.1959  -14.9327 N   0  0  0  0  0  0  0  0  0  0  0  0
   18.5247   -9.5258  -13.2269 C   0  0  0  0  0  0  0  0  0  0  0  0
   19.6665   -9.4402  -12.7687 O   0  0  0  0  0  0  0  0  0  0  0  0
   17.4820   -8.7973  -12.5511 N   0  0  0  0  0  0  0  0  0  0  0  0
   17.7573   -7.9578  -11.4252 C   0  0  0  0  0  0  0  0  0  0  0  0
   16.6235   -7.2895  -10.8082 C   0  0  0  0  0  0  0  0  0  0  0  0
   15.6660   -6.8798  -11.5369 O   0  0  0  0  0  0  0  0  0  0  0  0
   16.4493   -7.0223   -9.4088 N   0  0  0  0  0  0  0  0  0  0  0  0
   15.3005   -6.2989   -8.9133 C   0  0  1  0  0  0  0  0  0  0  0  0
   15.0443   -6.7331   -7.4908 C   0  0  0  0  0  0  0  0  0  0  0  0
   14.9426   -8.5327   -7.3374 S   0  0  0  0  0  0  0  0  0  0  0  0
   15.3892   -4.8542   -9.0678 C   0  0  0  0  0  0  0  0  0  0  0  0
   14.3419   -4.1522   -8.9035 O   0  0  0  0  0  0  0  0  0  0  0  0
   16.5485   -4.2095   -9.3798 O   0  0  0  0  0  0  0  0  0  0  0  0
  1  2  1  0
  2  3  2  0
  4  2  1  0
  4  5  1  0
  5  6  1  6
  7  5  1  0
  7  8  2  0
  9  7  1  0
 10  9  1  0
 10 11  1  0
 11 13  1  0
 12 11  2  0
 13 14  1  0
 14 17  1  0
 14 15  1  1
 16 15  1  0
 17 18  2  0
 17 19  1  0
M  END
$$$$
