NGC.pdb
     RDKit          3D

 19 18  0  0  1  0  0  0  0  0999 V2000
   13.4132   -9.1302  -14.9921 N   0  0  0  0  0  0  0  0  0  0  0  0
   13.4508   -8.7191  -13.6470 C   0  0  0  0  0  0  0  0  0  0  0  0
   12.3118   -8.5793  -13.0759 O   0  0  0  0  0  0  0  0  0  0  0  0
   14.7216   -8.4635  -12.9323 C   0  0  0  0  0  0  0  0  0  0  0  0
   15.9069   -8.6504  -13.8487 C   0  0  2  0  0  0  0  0  0  0  0  0
   16.2551  -10.0357  -13.9934 N   0  0  0  0  0  0  0  0  0  0  0  0
   17.0239   -7.7989  -13.3894 C   0  0  0  0  0  0  0  0  0  0  0  0
   17.0358   -6.5881  -13.6232 O   0  0  0  0  0  0  0  0  0  0  0  0
   18.1379   -8.3446  -12.6574 N   0  0  0  0  0  0  0  0  0  0  0  0
   19.2936   -7.5592  -12.3480 C   0  0  0  0  0  0  0  0  0  0  0  0
   20.4334   -7.6830  -13.2414 C   0  0  0  0  0  0  0  0  0  0  0  0
   21.4636   -6.9650  -13.0449 O   0  0  0  0  0  0  0  0  0  0  0  0
   20.5381   -8.5587  -14.3737 N   0  0  0  0  0  0  0  0  0  0  0  0
   21.7376   -8.6171  -15.1775 C   0  0  1  0  0  0  0  0  0  0  0  0
   22.0276  -10.0644  -15.4922 C   0  0  0  0  0  0  0  0  0  0  0  0
   23.4479  -10.2483  -16.5974 S   0  0  0  0  0  0  0  0  0  0  0  0
   21.7111   -7.7650  -16.3575 C   0  0  0  0  0  0  0  0  0  0  0  0
   20.6382   -7.6853  -17.0351 O   0  0  0  0  0  0  0  0  0  0  0  0
   22.7865   -7.0398  -16.7752 O   0  0  0  0  0  0  0  0  0  0  0  0
  1  2  1  0
  2  3  2  0
  4  2  1  0
  4  5  1  0
  5  6  1  1
  7  5  1  0
  7  8  2  0
  9  7  1  0
 10  9  1  0
 10 11  1  0
 11 13  1  0
 12 11  2  0
 13 14  1  0
 14 17  1  0
 14 15  1  6
 16 15  1  0
 17 18  2  0
 17 19  1  0
M  END
$$$$
