NGC.pdb
     RDKit          3D

 19 18  0  0  1  0  0  0  0  0999 V2000
   38.8754  -11.5630   -5.4998 N   0  0  0  0  0  0  0  0  0  0  0  0
   39.5472  -10.4382   -6.0130 C   0  0  0  0  0  0  0  0  0  0  0  0
   40.6508  -10.1375   -5.4345 O   0  0  0  0  0  0  0  0  0  0  0  0
   39.0179   -9.6494   -7.1481 C   0  0  0  0  0  0  0  0  0  0  0  0
   39.7015  -10.0301   -8.4394 C   0  0  2  0  0  0  0  0  0  0  0  0
   41.1248   -9.8612   -8.3585 N   0  0  0  0  0  0  0  0  0  0  0  0
   39.0764   -9.2999   -9.5617 C   0  0  0  0  0  0  0  0  0  0  0  0
   37.8805   -9.4457   -9.8254 O   0  0  0  0  0  0  0  0  0  0  0  0
   39.8333   -8.3964  -10.3896 N   0  0  0  0  0  0  0  0  0  0  0  0
   39.2100   -7.6032  -11.4049 C   0  0  0  0  0  0  0  0  0  0  0  0
   38.4395   -6.4528  -10.9625 C   0  0  0  0  0  0  0  0  0  0  0  0
   37.9564   -5.6539  -11.8251 O   0  0  0  0  0  0  0  0  0  0  0  0
   38.1476   -6.0933   -9.6041 N   0  0  0  0  0  0  0  0  0  0  0  0
   37.4535   -4.8686   -9.2773 C   0  0  1  0  0  0  0  0  0  0  0  0
   36.6403   -5.1034   -8.0277 C   0  0  0  0  0  0  0  0  0  0  0  0
   35.8590   -3.5851   -7.4301 S   0  0  0  0  0  0  0  0  0  0  0  0
   38.3123   -3.6962   -9.1941 C   0  0  0  0  0  0  0  0  0  0  0  0
   39.5217   -3.8437   -8.8307 O   0  0  0  0  0  0  0  0  0  0  0  0
   37.8830   -2.4375   -9.4911 O   0  0  0  0  0  0  0  0  0  0  0  0
  1  2  1  0
  2  3  2  0
  4  2  1  0
  4  5  1  0
  5  6  1  1
  7  5  1  0
  7  8  2  0
  9  7  1  0
 10  9  1  0
 10 11  1  0
 11 13  1  0
 12 11  2  0
 13 14  1  0
 14 17  1  0
 14 15  1  1
 16 15  1  0
 17 18  2  0
 17 19  1  0
M  END
$$$$
