NGC.pdb
     RDKit          3D

 19 18  0  0  1  0  0  0  0  0999 V2000
   17.3256  -13.9749  -16.5629 N   0  0  0  0  0  0  0  0  0  0  0  0
   17.2869  -12.6230  -16.1746 C   0  0  0  0  0  0  0  0  0  0  0  0
   16.3023  -11.9410  -16.6312 O   0  0  0  0  0  0  0  0  0  0  0  0
   18.3146  -12.0219  -15.2952 C   0  0  0  0  0  0  0  0  0  0  0  0
   18.5969  -10.5918  -15.6887 C   0  0  2  0  0  0  0  0  0  0  0  0
   19.2481  -10.5092  -16.9655 N   0  0  0  0  0  0  0  0  0  0  0  0
   19.3319   -9.9169  -14.5988 C   0  0  0  0  0  0  0  0  0  0  0  0
   18.8046   -9.7287  -13.5000 O   0  0  0  0  0  0  0  0  0  0  0  0
   20.6838   -9.4519  -14.7747 N   0  0  0  0  0  0  0  0  0  0  0  0
   21.3909   -8.7778  -13.7288 C   0  0  0  0  0  0  0  0  0  0  0  0
   21.6155   -7.3517  -13.8976 C   0  0  0  0  0  0  0  0  0  0  0  0
   22.2540   -6.7088  -13.0062 O   0  0  0  0  0  0  0  0  0  0  0  0
   21.1797   -6.5447  -15.0016 N   0  0  0  0  0  0  0  0  0  0  0  0
   21.6458   -5.1883  -15.1785 C   0  0  1  0  0  0  0  0  0  0  0  0
   21.8754   -4.9541  -16.6517 C   0  0  0  0  0  0  0  0  0  0  0  0
   22.9268   -6.2296  -17.3867 S   0  0  0  0  0  0  0  0  0  0  0  0
   20.8002   -4.1780  -14.5594 C   0  0  0  0  0  0  0  0  0  0  0  0
   19.6116   -4.4873  -14.2305 O   0  0  0  0  0  0  0  0  0  0  0  0
   21.2222   -2.9065  -14.3097 O   0  0  0  0  0  0  0  0  0  0  0  0
  1  2  1  0
  2  3  2  0
  4  2  1  0
  4  5  1  0
  5  6  1  6
  7  5  1  0
  7  8  2  0
  9  7  1  0
 10  9  1  0
 10 11  1  0
 11 13  1  0
 12 11  2  0
 13 14  1  0
 14 17  1  0
 14 15  1  6
 16 15  1  0
 17 18  2  0
 17 19  1  0
M  END
$$$$
