NGC.pdb
     RDKit          3D

 19 18  0  0  1  0  0  0  0  0999 V2000
   27.1936  -18.4845  -18.7030 N   0  0  0  0  0  0  0  0  0  0  0  0
   27.3699  -17.7100  -17.5416 C   0  0  0  0  0  0  0  0  0  0  0  0
   28.5696  -17.3244  -17.3068 O   0  0  0  0  0  0  0  0  0  0  0  0
   26.2454  -17.3597  -16.6450 C   0  0  0  0  0  0  0  0  0  0  0  0
   24.9233  -17.7740  -17.2451 C   0  0  2  0  0  0  0  0  0  0  0  0
   24.4571  -16.8232  -18.2145 N   0  0  0  0  0  0  0  0  0  0  0  0
   23.9549  -18.0469  -16.1628 C   0  0  0  0  0  0  0  0  0  0  0  0
   24.1508  -18.9539  -15.3505 O   0  0  0  0  0  0  0  0  0  0  0  0
   22.7498  -17.2720  -16.0147 N   0  0  0  0  0  0  0  0  0  0  0  0
   21.7957  -17.5518  -14.9852 C   0  0  0  0  0  0  0  0  0  0  0  0
   21.1074  -18.8302  -15.0540 C   0  0  0  0  0  0  0  0  0  0  0  0
   21.0036  -19.4258  -16.1721 O   0  0  0  0  0  0  0  0  0  0  0  0
   20.5004  -19.5317  -13.9589 N   0  0  0  0  0  0  0  0  0  0  0  0
   19.8181  -20.7910  -14.1515 C   0  0  1  0  0  0  0  0  0  0  0  0
   20.7427  -21.9024  -13.7181 C   0  0  0  0  0  0  0  0  0  0  0  0
   21.0058  -21.9084  -11.9283 S   0  0  0  0  0  0  0  0  0  0  0  0
   18.5026  -20.8614  -13.5321 C   0  0  0  0  0  0  0  0  0  0  0  0
   17.7695  -21.8754  -13.7576 O   0  0  0  0  0  0  0  0  0  0  0  0
   18.0134  -19.8881  -12.7133 O   0  0  0  0  0  0  0  0  0  0  0  0
  1  2  1  0
  2  3  2  0
  4  2  1  0
  4  5  1  0
  5  6  1  6
  7  5  1  0
  7  8  2  0
  9  7  1  0
 10  9  1  0
 10 11  1  0
 11 13  1  0
 12 11  2  0
 13 14  1  0
 14 17  1  0
 14 15  1  1
 16 15  1  0
 17 18  2  0
 17 19  1  0
M  END
$$$$
