NGC.pdb
     RDKit          3D

 19 18  0  0  1  0  0  0  0  0999 V2000
   17.8264  -25.1498   -5.9143 N   0  0  0  0  0  0  0  0  0  0  0  0
   18.5694  -25.2518   -7.1048 C   0  0  0  0  0  0  0  0  0  0  0  0
   18.7358  -26.4398   -7.5567 O   0  0  0  0  0  0  0  0  0  0  0  0
   19.1252  -24.0665   -7.7955 C   0  0  0  0  0  0  0  0  0  0  0  0
   18.4010  -23.8057   -9.0943 C   0  0  2  0  0  0  0  0  0  0  0  0
   18.5633  -24.8896  -10.0217 N   0  0  0  0  0  0  0  0  0  0  0  0
   18.8124  -22.4926   -9.6329 C   0  0  0  0  0  0  0  0  0  0  0  0
   18.6422  -21.4589   -8.9822 O   0  0  0  0  0  0  0  0  0  0  0  0
   19.4224  -22.3666  -10.9316 N   0  0  0  0  0  0  0  0  0  0  0  0
   19.8439  -21.0994  -11.4465 C   0  0  0  0  0  0  0  0  0  0  0  0
   20.3712  -21.0805  -12.8008 C   0  0  0  0  0  0  0  0  0  0  0  0
   20.6637  -22.1766  -13.3740 O   0  0  0  0  0  0  0  0  0  0  0  0
   20.6147  -19.9167  -13.6048 N   0  0  0  0  0  0  0  0  0  0  0  0
   20.1931  -19.8485  -14.9854 C   0  0  1  0  0  0  0  0  0  0  0  0
   18.7179  -20.1614  -15.0467 C   0  0  0  0  0  0  0  0  0  0  0  0
   18.0574  -19.9968  -16.7228 S   0  0  0  0  0  0  0  0  0  0  0  0
   20.5475  -18.6083  -15.6602 C   0  0  0  0  0  0  0  0  0  0  0  0
   20.3090  -17.5022  -15.0804 O   0  0  0  0  0  0  0  0  0  0  0  0
   21.1296  -18.5721  -16.8918 O   0  0  0  0  0  0  0  0  0  0  0  0
  1  2  1  0
  2  3  2  0
  4  2  1  0
  4  5  1  0
  5  6  1  6
  7  5  1  0
  7  8  2  0
  9  7  1  0
 10  9  1  0
 10 11  1  0
 11 13  1  0
 12 11  2  0
 13 14  1  0
 14 17  1  0
 14 15  1  1
 16 15  1  0
 17 18  2  0
 17 19  1  0
M  END
$$$$
