NGC.pdb
     RDKit          3D

 19 18  0  0  1  0  0  0  0  0999 V2000
   18.3373  -13.9613  -16.1161 N   0  0  0  0  0  0  0  0  0  0  0  0
   18.7328  -13.7700  -17.4528 C   0  0  0  0  0  0  0  0  0  0  0  0
   18.6512  -14.8010  -18.2100 O   0  0  0  0  0  0  0  0  0  0  0  0
   19.2127  -12.4639  -17.9575 C   0  0  0  0  0  0  0  0  0  0  0  0
   19.0171  -11.3784  -16.9264 C   0  0  2  0  0  0  0  0  0  0  0  0
   17.6275  -11.0796  -16.7245 N   0  0  0  0  0  0  0  0  0  0  0  0
   19.8342  -10.2017  -17.2888 C   0  0  0  0  0  0  0  0  0  0  0  0
   21.0662  -10.2567  -17.2749 O   0  0  0  0  0  0  0  0  0  0  0  0
   19.2299   -8.9505  -17.6678 N   0  0  0  0  0  0  0  0  0  0  0  0
   20.0156   -7.7843  -17.9344 C   0  0  0  0  0  0  0  0  0  0  0  0
   20.2497   -6.8785  -16.8220 C   0  0  0  0  0  0  0  0  0  0  0  0
   19.2753   -6.2281  -16.3288 O   0  0  0  0  0  0  0  0  0  0  0  0
   21.5094   -6.6169  -16.1860 N   0  0  0  0  0  0  0  0  0  0  0  0
   21.6357   -5.6386  -15.1298 C   0  0  1  0  0  0  0  0  0  0  0  0
   22.0803   -6.3500  -13.8752 C   0  0  0  0  0  0  0  0  0  0  0  0
   22.4158   -5.1965  -12.5226 S   0  0  0  0  0  0  0  0  0  0  0  0
   22.4685   -4.4939  -15.4691 C   0  0  0  0  0  0  0  0  0  0  0  0
   22.0542   -3.3257  -15.1858 O   0  0  0  0  0  0  0  0  0  0  0  0
   23.6819   -4.6116  -16.0780 O   0  0  0  0  0  0  0  0  0  0  0  0
  1  2  1  0
  2  3  2  0
  4  2  1  0
  4  5  1  0
  5  6  1  6
  7  5  1  0
  7  8  2  0
  9  7  1  0
 10  9  1  0
 10 11  1  0
 11 13  1  0
 12 11  2  0
 13 14  1  0
 14 17  1  0
 14 15  1  1
 16 15  1  0
 17 18  2  0
 17 19  1  0
M  END
$$$$
