NGC.pdb
     RDKit          3D

 19 18  0  0  1  0  0  0  0  0999 V2000
    9.4271  -11.6954   -9.8776 N   0  0  0  0  0  0  0  0  0  0  0  0
   10.3782  -12.3160   -9.0467 C   0  0  0  0  0  0  0  0  0  0  0  0
    9.9533  -13.3136   -8.3633 O   0  0  0  0  0  0  0  0  0  0  0  0
   11.7809  -11.8507   -8.9638 C   0  0  0  0  0  0  0  0  0  0  0  0
   12.0195  -10.6787   -9.8852 C   0  0  2  0  0  0  0  0  0  0  0  0
   12.3306  -11.1053  -11.2202 N   0  0  0  0  0  0  0  0  0  0  0  0
   13.0357   -9.7846   -9.2922 C   0  0  0  0  0  0  0  0  0  0  0  0
   12.8930   -9.3283   -8.1554 O   0  0  0  0  0  0  0  0  0  0  0  0
   14.2249   -9.4098  -10.0133 N   0  0  0  0  0  0  0  0  0  0  0  0
   15.2777   -8.6634   -9.3945 C   0  0  0  0  0  0  0  0  0  0  0  0
   16.4242   -8.3294  -10.2231 C   0  0  0  0  0  0  0  0  0  0  0  0
   17.3709   -7.6377   -9.7323 O   0  0  0  0  0  0  0  0  0  0  0  0
   16.6229   -8.7030  -11.5946 N   0  0  0  0  0  0  0  0  0  0  0  0
   17.7330   -8.1914  -12.3655 C   0  0  1  0  0  0  0  0  0  0  0  0
   18.1931   -9.2746  -13.3105 C   0  0  0  0  0  0  0  0  0  0  0  0
   18.6292  -10.7979  -12.4375 S   0  0  0  0  0  0  0  0  0  0  0  0
   17.4689   -6.9226  -13.0283 C   0  0  0  0  0  0  0  0  0  0  0  0
   16.3050   -6.4171  -12.9486 O   0  0  0  0  0  0  0  0  0  0  0  0
   18.4148   -6.2413  -13.7340 O   0  0  0  0  0  0  0  0  0  0  0  0
  1  2  1  0
  2  3  2  0
  4  2  1  0
  4  5  1  0
  5  6  1  6
  7  5  1  0
  7  8  2  0
  9  7  1  0
 10  9  1  0
 10 11  1  0
 11 13  1  0
 12 11  2  0
 13 14  1  0
 14 17  1  0
 14 15  1  6
 16 15  1  0
 17 18  2  0
 17 19  1  0
M  END
$$$$
