NGC.pdb
     RDKit          3D

 19 18  0  0  1  0  0  0  0  0999 V2000
   19.1898  -15.3168  -16.6963 N   0  0  0  0  0  0  0  0  0  0  0  0
   19.0811  -14.0142  -17.2172 C   0  0  0  0  0  0  0  0  0  0  0  0
   18.9533  -13.9329  -18.4900 O   0  0  0  0  0  0  0  0  0  0  0  0
   19.1113  -12.8115  -16.3550 C   0  0  0  0  0  0  0  0  0  0  0  0
   18.8327  -11.5622  -17.1559 C   0  0  2  0  0  0  0  0  0  0  0  0
   20.0353  -11.0021  -17.7047 N   0  0  0  0  0  0  0  0  0  0  0  0
   18.0534  -10.6134  -16.3337 C   0  0  0  0  0  0  0  0  0  0  0  0
   16.8960  -10.8707  -15.9942 O   0  0  0  0  0  0  0  0  0  0  0  0
   18.6084   -9.3569  -15.9003 N   0  0  0  0  0  0  0  0  0  0  0  0
   17.8613   -8.4416  -15.0926 C   0  0  0  0  0  0  0  0  0  0  0  0
   18.5883   -7.3181  -14.5251 C   0  0  0  0  0  0  0  0  0  0  0  0
   17.9674   -6.4642  -13.8173 O   0  0  0  0  0  0  0  0  0  0  0  0
   19.9887   -7.0440  -14.6779 N   0  0  0  0  0  0  0  0  0  0  0  0
   20.5927   -5.8549  -14.1213 C   0  0  1  0  0  0  0  0  0  0  0  0
   21.8930   -6.2473  -13.4630 C   0  0  0  0  0  0  0  0  0  0  0  0
   22.8277   -4.8072  -12.8928 S   0  0  0  0  0  0  0  0  0  0  0  0
   20.7334   -4.7555  -15.0649 C   0  0  0  0  0  0  0  0  0  0  0  0
   20.5245   -3.5679  -14.6619 O   0  0  0  0  0  0  0  0  0  0  0  0
   21.0832   -4.9357  -16.3696 O   0  0  0  0  0  0  0  0  0  0  0  0
  1  2  1  0
  2  3  2  0
  4  2  1  0
  4  5  1  0
  5  6  1  1
  7  5  1  0
  7  8  2  0
  9  7  1  0
 10  9  1  0
 10 11  1  0
 11 13  1  0
 12 11  2  0
 13 14  1  0
 14 17  1  0
 14 15  1  6
 16 15  1  0
 17 18  2  0
 17 19  1  0
M  END
$$$$
