NGC.pdb
     RDKit          3D

 19 18  0  0  1  0  0  0  0  0999 V2000
   19.3403  -13.8445  -18.7283 N   0  0  0  0  0  0  0  0  0  0  0  0
   20.5020  -14.1018  -17.9771 C   0  0  0  0  0  0  0  0  0  0  0  0
   20.9430  -15.3042  -18.0289 O   0  0  0  0  0  0  0  0  0  0  0  0
   21.1759  -13.0545  -17.1770 C   0  0  0  0  0  0  0  0  0  0  0  0
   20.5198  -11.7099  -17.3801 C   0  0  2  0  0  0  0  0  0  0  0  0
   20.7543  -11.1967  -18.7002 N   0  0  0  0  0  0  0  0  0  0  0  0
   20.9348  -10.7910  -16.2999 C   0  0  0  0  0  0  0  0  0  0  0  0
   20.5870  -10.9861  -15.1328 O   0  0  0  0  0  0  0  0  0  0  0  0
   21.7546   -9.6365  -16.5639 N   0  0  0  0  0  0  0  0  0  0  0  0
   22.1468   -8.7366  -15.5224 C   0  0  0  0  0  0  0  0  0  0  0  0
   21.8632   -7.3259  -15.7285 C   0  0  0  0  0  0  0  0  0  0  0  0
   21.9499   -6.8344  -16.8975 O   0  0  0  0  0  0  0  0  0  0  0  0
   21.4817   -6.3770  -14.7217 N   0  0  0  0  0  0  0  0  0  0  0  0
   21.2831   -4.9800  -15.0342 C   0  0  1  0  0  0  0  0  0  0  0  0
   19.8124   -4.6687  -14.9010 C   0  0  0  0  0  0  0  0  0  0  0  0
   19.4758   -2.8980  -15.0559 S   0  0  0  0  0  0  0  0  0  0  0  0
   22.1351   -4.0702  -14.2823 C   0  0  0  0  0  0  0  0  0  0  0  0
   22.3038   -4.2714  -13.0383 O   0  0  0  0  0  0  0  0  0  0  0  0
   22.7690   -3.0055  -14.8494 O   0  0  0  0  0  0  0  0  0  0  0  0
  1  2  1  0
  2  3  2  0
  4  2  1  0
  4  5  1  0
  5  6  1  6
  7  5  1  0
  7  8  2  0
  9  7  1  0
 10  9  1  0
 10 11  1  0
 11 13  1  0
 12 11  2  0
 13 14  1  0
 14 17  1  0
 14 15  1  1
 16 15  1  0
 17 18  2  0
 17 19  1  0
M  END
$$$$
