NGC.pdb
     RDKit          3D

 19 18  0  0  1  0  0  0  0  0999 V2000
   13.1096  -14.6924  -13.5010 N   0  0  0  0  0  0  0  0  0  0  0  0
   12.7935  -13.8121  -12.4498 C   0  0  0  0  0  0  0  0  0  0  0  0
   11.6380  -13.9723  -11.9185 O   0  0  0  0  0  0  0  0  0  0  0  0
   13.7316  -12.7666  -11.9831 C   0  0  0  0  0  0  0  0  0  0  0  0
   15.0018  -12.7734  -12.7994 C   0  0  2  0  0  0  0  0  0  0  0  0
   15.7610  -13.9743  -12.5933 N   0  0  0  0  0  0  0  0  0  0  0  0
   15.7624  -11.5338  -12.5374 C   0  0  0  0  0  0  0  0  0  0  0  0
   16.5171  -11.4464  -11.5659 O   0  0  0  0  0  0  0  0  0  0  0  0
   15.6526  -10.3842  -13.3982 N   0  0  0  0  0  0  0  0  0  0  0  0
   16.4470   -9.2114  -13.1942 C   0  0  0  0  0  0  0  0  0  0  0  0
   15.9137   -8.2021  -12.2944 C   0  0  0  0  0  0  0  0  0  0  0  0
   14.6821   -7.8945  -12.3584 O   0  0  0  0  0  0  0  0  0  0  0  0
   16.6470   -7.4756  -11.2972 N   0  0  0  0  0  0  0  0  0  0  0  0
   16.0325   -6.4203  -10.5243 C   0  0  1  0  0  0  0  0  0  0  0  0
   16.4768   -6.5635   -9.0890 C   0  0  0  0  0  0  0  0  0  0  0  0
   15.9800   -8.1515   -8.3791 S   0  0  0  0  0  0  0  0  0  0  0  0
   16.2415   -5.0837  -11.0615 C   0  0  0  0  0  0  0  0  0  0  0  0
   17.0364   -4.9318  -12.0422 O   0  0  0  0  0  0  0  0  0  0  0  0
   15.6210   -3.9771  -10.5642 O   0  0  0  0  0  0  0  0  0  0  0  0
  1  2  1  0
  2  3  2  0
  4  2  1  0
  4  5  1  0
  5  6  1  1
  7  5  1  0
  7  8  2  0
  9  7  1  0
 10  9  1  0
 10 11  1  0
 11 13  1  0
 12 11  2  0
 13 14  1  0
 14 17  1  0
 14 15  1  1
 16 15  1  0
 17 18  2  0
 17 19  1  0
M  END
$$$$
