NGC.pdb
     RDKit          3D

 19 18  0  0  1  0  0  0  0  0999 V2000
   25.6248  -20.7298  -15.6007 N   0  0  0  0  0  0  0  0  0  0  0  0
   24.9757  -19.4884  -15.4683 C   0  0  0  0  0  0  0  0  0  0  0  0
   23.6957  -19.5210  -15.5256 O   0  0  0  0  0  0  0  0  0  0  0  0
   25.7188  -18.2230  -15.2747 C   0  0  0  0  0  0  0  0  0  0  0  0
   27.2097  -18.4608  -15.2913 C   0  0  2  0  0  0  0  0  0  0  0  0
   27.6157  -19.2166  -16.4424 N   0  0  0  0  0  0  0  0  0  0  0  0
   27.6276  -19.0592  -14.0065 C   0  0  0  0  0  0  0  0  0  0  0  0
   27.4536  -18.4610  -12.9421 O   0  0  0  0  0  0  0  0  0  0  0  0
   28.2531  -20.3552  -13.9450 N   0  0  0  0  0  0  0  0  0  0  0  0
   28.6569  -20.9388  -12.7022 C   0  0  0  0  0  0  0  0  0  0  0  0
   27.6135  -21.1903  -11.7220 C   0  0  0  0  0  0  0  0  0  0  0  0
   27.8329  -22.0017  -10.7685 O   0  0  0  0  0  0  0  0  0  0  0  0
   26.3027  -20.6061  -11.7031 N   0  0  0  0  0  0  0  0  0  0  0  0
   25.3078  -21.0095  -10.7356 C   0  0  1  0  0  0  0  0  0  0  0  0
   25.2763  -19.9813   -9.6312 C   0  0  0  0  0  0  0  0  0  0  0  0
   26.7507  -20.0612   -8.5860 S   0  0  0  0  0  0  0  0  0  0  0  0
   23.9962  -21.2856  -11.3034 C   0  0  0  0  0  0  0  0  0  0  0  0
   23.8322  -21.1696  -12.5589 O   0  0  0  0  0  0  0  0  0  0  0  0
   22.9260  -21.6679  -10.5515 O   0  0  0  0  0  0  0  0  0  0  0  0
  1  2  1  0
  2  3  2  0
  4  2  1  0
  4  5  1  0
  5  6  1  6
  7  5  1  0
  7  8  2  0
  9  7  1  0
 10  9  1  0
 10 11  1  0
 11 13  1  0
 12 11  2  0
 13 14  1  0
 14 17  1  0
 14 15  1  1
 16 15  1  0
 17 18  2  0
 17 19  1  0
M  END
$$$$
