NGC.pdb
     RDKit          3D

 19 18  0  0  1  0  0  0  0  0999 V2000
   16.6029  -21.1740    4.3897 N   0  0  0  0  0  0  0  0  0  0  0  0
   16.6263  -20.3181    3.2731 C   0  0  0  0  0  0  0  0  0  0  0  0
   16.8181  -20.8866    2.1403 O   0  0  0  0  0  0  0  0  0  0  0  0
   16.4415  -18.8545    3.3932 C   0  0  0  0  0  0  0  0  0  0  0  0
   16.2388  -18.4492    4.8334 C   0  0  2  0  0  0  0  0  0  0  0  0
   14.9954  -18.9418    5.3555 N   0  0  0  0  0  0  0  0  0  0  0  0
   16.4021  -16.9862    4.9613 C   0  0  0  0  0  0  0  0  0  0  0  0
   15.6516  -16.2098    4.3656 O   0  0  0  0  0  0  0  0  0  0  0  0
   17.4388  -16.4107    5.7791 N   0  0  0  0  0  0  0  0  0  0  0  0
   17.6071  -14.9942    5.8964 C   0  0  0  0  0  0  0  0  0  0  0  0
   18.7916  -14.5268    6.5971 C   0  0  0  0  0  0  0  0  0  0  0  0
   19.4820  -15.3494    7.2770 O   0  0  0  0  0  0  0  0  0  0  0  0
   19.2968  -13.1835    6.6158 N   0  0  0  0  0  0  0  0  0  0  0  0
   20.5502  -12.8547    7.2556 C   0  0  1  0  0  0  0  0  0  0  0  0
   21.2679  -11.8402    6.3992 C   0  0  0  0  0  0  0  0  0  0  0  0
   20.1681  -11.0798    5.1807 S   0  0  0  0  0  0  0  0  0  0  0  0
   20.4245  -12.4479    8.6476 C   0  0  0  0  0  0  0  0  0  0  0  0
   19.3341  -11.9248    9.0400 O   0  0  0  0  0  0  0  0  0  0  0  0
   21.4241  -12.6029    9.5607 O   0  0  0  0  0  0  0  0  0  0  0  0
  1  2  1  0
  2  3  2  0
  4  2  1  0
  4  5  1  0
  5  6  1  6
  7  5  1  0
  7  8  2  0
  9  7  1  0
 10  9  1  0
 10 11  1  0
 11 13  1  0
 12 11  2  0
 13 14  1  0
 14 17  1  0
 14 15  1  6
 16 15  1  0
 17 18  2  0
 17 19  1  0
M  END
$$$$
