PSD.pdb
     RDKit          3D

 22 22  0  0  1  0  0  0  0  0999 V2000
   18.7518  -12.1041  -15.9793 N   0  0  0  0  0  0  0  0  0  0  0  0
   18.3369  -13.4177  -16.4000 C   0  0  0  0  0  0  0  0  0  0  0  0
   16.9790  -13.3060  -17.0102 C   0  0  0  0  0  0  0  0  0  0  0  0
   16.5530  -11.8936  -16.6022 C   0  0  0  0  0  0  0  0  0  0  0  0
   17.9128  -11.1870  -16.6873 C   0  0  1  0  0  0  0  0  0  0  0  0
   17.8701   -9.8414  -16.0977 C   0  0  0  0  0  0  0  0  0  0  0  0
   17.1863   -8.9648  -16.6860 O   0  0  0  0  0  0  0  0  0  0  0  0
   19.1138   -9.0030  -12.2775 O   0  0  0  0  0  0  0  0  0  0  0  0
   18.1248   -8.2632  -12.9013 C   0  0  0  0  0  0  0  0  0  0  0  0
   18.4893   -8.1198  -14.3639 C   0  0  2  0  0  0  0  0  0  0  0  0
   18.5446   -9.4580  -14.9118 N   0  0  0  0  0  0  0  0  0  0  0  0
   19.8150   -7.4903  -14.5453 C   0  0  0  0  0  0  0  0  0  0  0  0
   20.8364   -8.2147  -14.5505 O   0  0  0  0  0  0  0  0  0  0  0  0
   19.9257   -6.0804  -14.7116 N   0  0  0  0  0  0  0  0  0  0  0  0
   21.2088   -5.4298  -14.9412 C   0  0  1  0  0  0  0  0  0  0  0  0
   21.0833   -4.3171  -15.9575 C   0  0  0  0  0  0  0  0  0  0  0  0
   22.3626   -3.6478  -16.2154 C   0  0  0  0  0  0  0  0  0  0  0  0
   23.4136   -4.3381  -16.0792 O   0  0  0  0  0  0  0  0  0  0  0  0
   21.7906   -4.8788  -13.7254 C   0  0  0  0  0  0  0  0  0  0  0  0
   21.0588   -4.4698  -12.7994 O   0  0  0  0  0  0  0  0  0  0  0  0
   22.5270   -2.3351  -16.5928 O   0  0  0  0  0  0  0  0  0  0  0  0
   23.1590   -4.7992  -13.5761 O   0  0  0  0  0  0  0  0  0  0  0  0
  1  2  1  0
  3  2  1  0
  4  5  1  0
  4  3  1  0
  5  1  1  0
  5  6  1  1
  7  6  2  0
 10  9  1  1
  9  8  1  0
 10 12  1  0
 10 11  1  0
 11  6  1  0
 12 14  1  0
 13 12  2  0
 14 15  1  0
 15 19  1  0
 15 16  1  6
 17 21  1  0
 17 16  1  0
 18 17  2  0
 19 20  2  0
 19 22  1  0
M  END
$$$$
