PSD.pdb
     RDKit          3D

 22 22  0  0  1  0  0  0  0  0999 V2000
   20.7445  -13.1744  -18.1016 N   0  0  0  0  0  0  0  0  0  0  0  0
   20.3982  -14.4541  -18.6647 C   0  0  0  0  0  0  0  0  0  0  0  0
   19.4425  -15.1295  -17.7379 C   0  0  0  0  0  0  0  0  0  0  0  0
   19.5423  -14.2647  -16.4789 C   0  0  0  0  0  0  0  0  0  0  0  0
   19.7306  -12.8895  -17.1336 C   0  0  1  0  0  0  0  0  0  0  0  0
   20.1138  -11.8629  -16.1540 C   0  0  0  0  0  0  0  0  0  0  0  0
   19.2548  -11.5140  -15.3039 O   0  0  0  0  0  0  0  0  0  0  0  0
   23.8199   -9.9157  -16.1358 O   0  0  0  0  0  0  0  0  0  0  0  0
   23.2426  -10.3108  -14.9420 C   0  0  0  0  0  0  0  0  0  0  0  0
   21.7377  -10.2499  -15.0984 C   0  0  2  0  0  0  0  0  0  0  0  0
   21.3832  -11.2357  -16.0967 N   0  0  0  0  0  0  0  0  0  0  0  0
   21.2833   -8.9256  -15.5740 C   0  0  0  0  0  0  0  0  0  0  0  0
   21.2847   -8.6879  -16.8034 O   0  0  0  0  0  0  0  0  0  0  0  0
   20.8509   -7.9366  -14.6452 N   0  0  0  0  0  0  0  0  0  0  0  0
   20.4793   -6.5928  -15.0674 C   0  0  1  0  0  0  0  0  0  0  0  0
   19.0140   -6.3239  -14.8080 C   0  0  0  0  0  0  0  0  0  0  0  0
   18.6035   -4.9870  -15.2499 C   0  0  0  0  0  0  0  0  0  0  0  0
   18.9722   -4.6211  -16.4032 O   0  0  0  0  0  0  0  0  0  0  0  0
   21.2608   -5.5554  -14.4092 C   0  0  0  0  0  0  0  0  0  0  0  0
   21.9757   -5.8283  -13.4218 O   0  0  0  0  0  0  0  0  0  0  0  0
   17.8527   -4.0907  -14.5251 O   0  0  0  0  0  0  0  0  0  0  0  0
   21.2248   -4.2545  -14.8647 O   0  0  0  0  0  0  0  0  0  0  0  0
  1  2  1  0
  3  2  1  0
  4  5  1  0
  4  3  1  0
  5  1  1  0
  5  6  1  1
  7  6  2  0
 10  9  1  6
  9  8  1  0
 10 12  1  0
 10 11  1  0
 11  6  1  0
 12 14  1  0
 13 12  2  0
 14 15  1  0
 15 19  1  0
 15 16  1  1
 17 21  1  0
 17 16  1  0
 18 17  2  0
 19 20  2  0
 19 22  1  0
M  END
$$$$
