PSD.pdb
     RDKit          3D

 22 22  0  0  1  0  0  0  0  0999 V2000
   14.5668  -22.4461   -7.4159 N   0  0  0  0  0  0  0  0  0  0  0  0
   13.6724  -21.7570   -8.3102 C   0  0  0  0  0  0  0  0  0  0  0  0
   12.3449  -22.4381   -8.2605 C   0  0  0  0  0  0  0  0  0  0  0  0
   12.6720  -23.7369   -7.5197 C   0  0  0  0  0  0  0  0  0  0  0  0
   13.7297  -23.2082   -6.5413 C   0  0  1  0  0  0  0  0  0  0  0  0
   14.4293  -24.2985   -5.8472 C   0  0  0  0  0  0  0  0  0  0  0  0
   13.7818  -24.9644   -4.9990 O   0  0  0  0  0  0  0  0  0  0  0  0
   18.5600  -25.0117   -5.9748 O   0  0  0  0  0  0  0  0  0  0  0  0
   17.6920  -26.0637   -6.2082 C   0  0  0  0  0  0  0  0  0  0  0  0
   16.4115  -25.8024   -5.4435 C   0  0  2  0  0  0  0  0  0  0  0  0
   15.7835  -24.6557   -6.0639 N   0  0  0  0  0  0  0  0  0  0  0  0
   16.6702  -25.4770   -4.0245 C   0  0  0  0  0  0  0  0  0  0  0  0
   16.4027  -24.3276   -3.6058 O   0  0  0  0  0  0  0  0  0  0  0  0
   17.2157  -26.4585   -3.1488 N   0  0  0  0  0  0  0  0  0  0  0  0
   17.0387  -26.3865   -1.7046 C   0  0  1  0  0  0  0  0  0  0  0  0
   15.5728  -26.3820   -1.3331 C   0  0  0  0  0  0  0  0  0  0  0  0
   15.3625  -26.2615    0.1134 C   0  0  0  0  0  0  0  0  0  0  0  0
   15.1916  -27.3328    0.7637 O   0  0  0  0  0  0  0  0  0  0  0  0
   17.6887  -27.4816   -0.9985 C   0  0  0  0  0  0  0  0  0  0  0  0
   17.6506  -28.6438   -1.4551 O   0  0  0  0  0  0  0  0  0  0  0  0
   15.3336  -25.0884    0.8315 O   0  0  0  0  0  0  0  0  0  0  0  0
   18.3572  -27.2541    0.1857 O   0  0  0  0  0  0  0  0  0  0  0  0
  1  2  1  0
  3  2  1  0
  4  5  1  0
  4  3  1  0
  5  1  1  0
  5  6  1  6
  7  6  2  0
 10  9  1  6
  9  8  1  0
 10 12  1  0
 10 11  1  0
 11  6  1  0
 12 14  1  0
 13 12  2  0
 14 15  1  0
 15 19  1  0
 15 16  1  6
 17 21  1  0
 17 16  1  0
 18 17  2  0
 19 20  2  0
 19 22  1  0
M  END
$$$$
