PSD.pdb
     RDKit          3D

 22 22  0  0  1  0  0  0  0  0999 V2000
   27.7498  -20.9009  -15.5350 N   0  0  0  0  0  0  0  0  0  0  0  0
   28.6065  -19.9384  -16.1785 C   0  0  0  0  0  0  0  0  0  0  0  0
   28.4388  -18.6265  -15.4860 C   0  0  0  0  0  0  0  0  0  0  0  0
   27.1948  -18.8673  -14.6274 C   0  0  0  0  0  0  0  0  0  0  0  0
   27.4247  -20.3396  -14.2600 C   0  0  1  0  0  0  0  0  0  0  0  0
   26.2404  -20.9395  -13.6293 C   0  0  0  0  0  0  0  0  0  0  0  0
   25.5820  -21.7780  -14.2968 O   0  0  0  0  0  0  0  0  0  0  0  0
   24.3627  -19.5923  -10.0104 O   0  0  0  0  0  0  0  0  0  0  0  0
   24.5846  -20.9290  -10.2903 C   0  0  0  0  0  0  0  0  0  0  0  0
   24.5244  -21.1168  -11.7916 C   0  0  2  0  0  0  0  0  0  0  0  0
   25.7846  -20.6418  -12.3209 N   0  0  0  0  0  0  0  0  0  0  0  0
   23.4368  -20.3254  -12.4057 C   0  0  0  0  0  0  0  0  0  0  0  0
   23.7234  -19.2730  -13.0209 O   0  0  0  0  0  0  0  0  0  0  0  0
   22.0838  -20.7560  -12.2978 N   0  0  0  0  0  0  0  0  0  0  0  0
   20.9944  -20.0466  -12.9552 C   0  0  1  0  0  0  0  0  0  0  0  0
   21.2165  -19.9674  -14.4489 C   0  0  0  0  0  0  0  0  0  0  0  0
   20.1278  -19.2687  -15.1402 C   0  0  0  0  0  0  0  0  0  0  0  0
   20.0062  -18.0289  -14.9216 O   0  0  0  0  0  0  0  0  0  0  0  0
   19.6942  -20.6567  -12.7152 C   0  0  0  0  0  0  0  0  0  0  0  0
   19.6108  -21.8116  -12.2466 O   0  0  0  0  0  0  0  0  0  0  0  0
   19.2236  -19.8376  -16.0070 O   0  0  0  0  0  0  0  0  0  0  0  0
   18.5334  -19.9697  -13.0012 O   0  0  0  0  0  0  0  0  0  0  0  0
  1  2  1  0
  3  2  1  0
  4  5  1  0
  4  3  1  0
  5  1  1  0
  5  6  1  6
  7  6  2  0
 10  9  1  1
  9  8  1  0
 10 12  1  0
 10 11  1  0
 11  6  1  0
 12 14  1  0
 13 12  2  0
 14 15  1  0
 15 19  1  0
 15 16  1  6
 17 21  1  0
 17 16  1  0
 18 17  2  0
 19 20  2  0
 19 22  1  0
M  END
$$$$
