PSD.pdb
     RDKit          3D

 22 22  0  0  1  0  0  0  0  0999 V2000
   30.0656  -24.6627  -16.2526 N   0  0  0  0  0  0  0  0  0  0  0  0
   30.2574  -25.7728  -17.1501 C   0  0  0  0  0  0  0  0  0  0  0  0
   29.1694  -25.7413  -18.1718 C   0  0  0  0  0  0  0  0  0  0  0  0
   28.1922  -24.7245  -17.5768 C   0  0  0  0  0  0  0  0  0  0  0  0
   29.1964  -23.7561  -16.9372 C   0  0  1  0  0  0  0  0  0  0  0  0
   28.5357  -22.7834  -16.0553 C   0  0  0  0  0  0  0  0  0  0  0  0
   28.4442  -23.0675  -14.8334 O   0  0  0  0  0  0  0  0  0  0  0  0
   27.4158  -19.0690  -17.3587 O   0  0  0  0  0  0  0  0  0  0  0  0
   27.7684  -19.2239  -16.0297 C   0  0  0  0  0  0  0  0  0  0  0  0
   27.3498  -20.6095  -15.5851 C   0  0  2  0  0  0  0  0  0  0  0  0
   27.9928  -21.5458  -16.4817 N   0  0  0  0  0  0  0  0  0  0  0  0
   25.8874  -20.8046  -15.6832 C   0  0  0  0  0  0  0  0  0  0  0  0
   25.4071  -21.2819  -16.7366 O   0  0  0  0  0  0  0  0  0  0  0  0
   25.0397  -20.4541  -14.5941 N   0  0  0  0  0  0  0  0  0  0  0  0
   23.5977  -20.6546  -14.6442 C   0  0  1  0  0  0  0  0  0  0  0  0
   22.9615  -20.3871  -13.2987 C   0  0  0  0  0  0  0  0  0  0  0  0
   21.5213  -20.6646  -13.2955 C   0  0  0  0  0  0  0  0  0  0  0  0
   21.0787  -21.4319  -14.1983 O   0  0  0  0  0  0  0  0  0  0  0  0
   22.9428  -19.8152  -15.6376 C   0  0  0  0  0  0  0  0  0  0  0  0
   21.8577  -20.1642  -16.1489 O   0  0  0  0  0  0  0  0  0  0  0  0
   20.6037  -20.1667  -12.3995 O   0  0  0  0  0  0  0  0  0  0  0  0
   23.5094  -18.6212  -16.0305 O   0  0  0  0  0  0  0  0  0  0  0  0
  1  2  1  0
  3  2  1  0
  4  5  1  0
  4  3  1  0
  5  1  1  0
  5  6  1  1
  7  6  2  0
 10  9  1  6
  9  8  1  0
 10 12  1  0
 10 11  1  0
 11  6  1  0
 12 14  1  0
 13 12  2  0
 14 15  1  0
 15 19  1  0
 15 16  1  1
 17 21  1  0
 17 16  1  0
 18 17  2  0
 19 20  2  0
 19 22  1  0
M  END
$$$$
