PSD.pdb
     RDKit          3D

 22 22  0  0  1  0  0  0  0  0999 V2000
   20.5977  -12.9724  -16.6360 N   0  0  0  0  0  0  0  0  0  0  0  0
   20.4876  -14.4019  -16.7745 C   0  0  0  0  0  0  0  0  0  0  0  0
   19.4793  -14.6924  -17.8363 C   0  0  0  0  0  0  0  0  0  0  0  0
   18.8178  -13.3273  -18.0406 C   0  0  0  0  0  0  0  0  0  0  0  0
   20.0400  -12.4226  -17.8330 C   0  0  1  0  0  0  0  0  0  0  0  0
   19.6622  -11.0069  -17.7188 C   0  0  0  0  0  0  0  0  0  0  0  0
   20.1245  -10.2060  -18.5715 O   0  0  0  0  0  0  0  0  0  0  0  0
   16.5796   -7.7541  -16.0294 O   0  0  0  0  0  0  0  0  0  0  0  0
   16.9769   -9.0725  -16.1652 C   0  0  0  0  0  0  0  0  0  0  0  0
   18.4027   -9.0893  -16.6748 C   0  0  2  0  0  0  0  0  0  0  0  0
   18.8131  -10.4764  -16.7159 N   0  0  0  0  0  0  0  0  0  0  0  0
   19.3217   -8.3614  -15.7737 C   0  0  0  0  0  0  0  0  0  0  0  0
   19.7458   -8.9354  -14.7448 O   0  0  0  0  0  0  0  0  0  0  0  0
   19.7173   -7.0268  -16.0740 N   0  0  0  0  0  0  0  0  0  0  0  0
   20.6283   -6.2814  -15.2158 C   0  0  1  0  0  0  0  0  0  0  0  0
   21.7061   -5.5972  -16.0265 C   0  0  0  0  0  0  0  0  0  0  0  0
   22.6640   -4.8723  -15.1850 C   0  0  0  0  0  0  0  0  0  0  0  0
   22.5662   -5.0267  -13.9335 O   0  0  0  0  0  0  0  0  0  0  0  0
   19.9517   -5.2758  -14.4088 C   0  0  0  0  0  0  0  0  0  0  0  0
   20.5691   -4.6553  -13.5176 O   0  0  0  0  0  0  0  0  0  0  0  0
   23.6622   -4.0372  -15.6311 O   0  0  0  0  0  0  0  0  0  0  0  0
   18.6183   -4.9918  -14.6148 O   0  0  0  0  0  0  0  0  0  0  0  0
  1  2  1  0
  3  2  1  0
  4  5  1  0
  4  3  1  0
  5  1  1  0
  5  6  1  1
  7  6  2  0
 10  9  1  1
  9  8  1  0
 10 12  1  0
 10 11  1  0
 11  6  1  0
 12 14  1  0
 13 12  2  0
 14 15  1  0
 15 19  1  0
 15 16  1  6
 17 21  1  0
 17 16  1  0
 18 17  2  0
 19 20  2  0
 19 22  1  0
M  END
$$$$
