PSD.pdb
     RDKit          3D

 22 22  0  0  1  0  0  0  0  0999 V2000
   18.4088  -10.4103  -16.6848 N   0  0  0  0  0  0  0  0  0  0  0  0
   17.8436  -11.7201  -16.8837 C   0  0  0  0  0  0  0  0  0  0  0  0
   18.3090  -12.6036  -15.7740 C   0  0  0  0  0  0  0  0  0  0  0  0
   19.4217  -11.7680  -15.1363 C   0  0  0  0  0  0  0  0  0  0  0  0
   18.8179  -10.3683  -15.3148 C   0  0  1  0  0  0  0  0  0  0  0  0
   19.7912   -9.3084  -15.0157 C   0  0  0  0  0  0  0  0  0  0  0  0
   20.1665   -9.1766  -13.8224 O   0  0  0  0  0  0  0  0  0  0  0  0
   23.2932   -8.7737  -15.8188 O   0  0  0  0  0  0  0  0  0  0  0  0
   22.5742   -7.8039  -16.4948 C   0  0  0  0  0  0  0  0  0  0  0  0
   21.3608   -7.4454  -15.6630 C   0  0  2  0  0  0  0  0  0  0  0  0
   20.3393   -8.4215  -15.9756 N   0  0  0  0  0  0  0  0  0  0  0  0
   20.8366   -6.1038  -15.9974 C   0  0  0  0  0  0  0  0  0  0  0  0
   20.5514   -5.8420  -17.1883 O   0  0  0  0  0  0  0  0  0  0  0  0
   20.6596   -5.1254  -14.9781 N   0  0  0  0  0  0  0  0  0  0  0  0
   20.0711   -3.8218  -15.2547 C   0  0  1  0  0  0  0  0  0  0  0  0
   18.9820   -3.4913  -14.2590 C   0  0  0  0  0  0  0  0  0  0  0  0
   18.3282   -2.2109  -14.5493 C   0  0  0  0  0  0  0  0  0  0  0  0
   18.3056   -1.8342  -15.7565 O   0  0  0  0  0  0  0  0  0  0  0  0
   21.0497   -2.7436  -15.2407 C   0  0  0  0  0  0  0  0  0  0  0  0
   21.9772   -2.7379  -14.4040 O   0  0  0  0  0  0  0  0  0  0  0  0
   17.7353   -1.3785  -13.6283 O   0  0  0  0  0  0  0  0  0  0  0  0
   20.9688   -1.7109  -16.1508 O   0  0  0  0  0  0  0  0  0  0  0  0
  1  2  1  0
  3  2  1  0
  4  5  1  0
  4  3  1  0
  5  1  1  0
  5  6  1  6
  7  6  2  0
 10  9  1  6
  9  8  1  0
 10 12  1  0
 10 11  1  0
 11  6  1  0
 12 14  1  0
 13 12  2  0
 14 15  1  0
 15 19  1  0
 15 16  1  1
 17 21  1  0
 17 16  1  0
 18 17  2  0
 19 20  2  0
 19 22  1  0
M  END
$$$$
