PSD.pdb
     RDKit          3D

 22 22  0  0  1  0  0  0  0  0999 V2000
   30.6412  -13.6099  -20.2826 N   0  0  0  0  0  0  0  0  0  0  0  0
   31.3654  -14.7669  -20.7425 C   0  0  0  0  0  0  0  0  0  0  0  0
   31.8004  -15.5510  -19.5490 C   0  0  0  0  0  0  0  0  0  0  0  0
   31.5378  -14.5722  -18.4020 C   0  0  0  0  0  0  0  0  0  0  0  0
   30.2651  -13.8989  -18.9331 C   0  0  1  0  0  0  0  0  0  0  0  0
   29.9041  -12.7103  -18.1476 C   0  0  0  0  0  0  0  0  0  0  0  0
   29.4897  -12.8872  -16.9732 O   0  0  0  0  0  0  0  0  0  0  0  0
   30.5253   -8.5411  -16.4834 O   0  0  0  0  0  0  0  0  0  0  0  0
   30.8601   -9.6655  -17.2170 C   0  0  0  0  0  0  0  0  0  0  0  0
   29.5944  -10.2293  -17.8276 C   0  0  2  0  0  0  0  0  0  0  0  0
   29.9888  -11.3759  -18.6173 N   0  0  0  0  0  0  0  0  0  0  0  0
   28.9304   -9.2574  -18.7224 C   0  0  0  0  0  0  0  0  0  0  0  0
   29.2645   -9.2145  -19.9284 O   0  0  0  0  0  0  0  0  0  0  0  0
   27.9256   -8.3837  -18.2174 N   0  0  0  0  0  0  0  0  0  0  0  0
   27.0759   -7.5948  -19.0994 C   0  0  1  0  0  0  0  0  0  0  0  0
   26.2681   -8.4833  -20.0186 C   0  0  0  0  0  0  0  0  0  0  0  0
   25.4206   -7.7152  -20.9367 C   0  0  0  0  0  0  0  0  0  0  0  0
   25.4981   -6.4542  -20.8765 O   0  0  0  0  0  0  0  0  0  0  0  0
   26.1581   -6.7269  -18.3751 C   0  0  0  0  0  0  0  0  0  0  0  0
   25.9577   -6.8921  -17.1532 O   0  0  0  0  0  0  0  0  0  0  0  0
   24.5463   -8.2397  -21.8603 O   0  0  0  0  0  0  0  0  0  0  0  0
   25.4950   -5.7081  -19.0259 O   0  0  0  0  0  0  0  0  0  0  0  0
  1  2  1  0
  3  2  1  0
  4  5  1  0
  4  3  1  0
  5  1  1  0
  5  6  1  1
  7  6  2  0
 10  9  1  6
  9  8  1  0
 10 12  1  0
 10 11  1  0
 11  6  1  0
 12 14  1  0
 13 12  2  0
 14 15  1  0
 15 19  1  0
 15 16  1  1
 17 21  1  0
 17 16  1  0
 18 17  2  0
 19 20  2  0
 19 22  1  0
M  END
$$$$
