PSD.pdb
     RDKit          3D

 22 22  0  0  1  0  0  0  0  0999 V2000
   16.3253  -13.0065  -15.6834 N   0  0  0  0  0  0  0  0  0  0  0  0
   15.6148  -14.2570  -15.6055 C   0  0  0  0  0  0  0  0  0  0  0  0
   16.6174  -15.3599  -15.5233 C   0  0  0  0  0  0  0  0  0  0  0  0
   17.9211  -14.6436  -15.8839 C   0  0  0  0  0  0  0  0  0  0  0  0
   17.6512  -13.2844  -15.2242 C   0  0  1  0  0  0  0  0  0  0  0  0
   18.6430  -12.2749  -15.6209 C   0  0  0  0  0  0  0  0  0  0  0  0
   19.8333  -12.4458  -15.2519 O   0  0  0  0  0  0  0  0  0  0  0  0
   17.7620   -9.0487  -18.1047 O   0  0  0  0  0  0  0  0  0  0  0  0
   18.9804   -9.6989  -18.1895 C   0  0  0  0  0  0  0  0  0  0  0  0
   19.3660  -10.1693  -16.8028 C   0  0  2  0  0  0  0  0  0  0  0  0
   18.3561  -11.1202  -16.3906 N   0  0  0  0  0  0  0  0  0  0  0  0
   19.3826   -9.0593  -15.8260 C   0  0  0  0  0  0  0  0  0  0  0  0
   18.3407   -8.8014  -15.1811 O   0  0  0  0  0  0  0  0  0  0  0  0
   20.5678   -8.2963  -15.6236 N   0  0  0  0  0  0  0  0  0  0  0  0
   20.6049   -7.1561  -14.7176 C   0  0  1  0  0  0  0  0  0  0  0  0
   22.0245   -6.6908  -14.4826 C   0  0  0  0  0  0  0  0  0  0  0  0
   22.1004   -5.5943  -13.5114 C   0  0  0  0  0  0  0  0  0  0  0  0
   21.4252   -5.7157  -12.4488 O   0  0  0  0  0  0  0  0  0  0  0  0
   19.8237   -6.0249  -15.1978 C   0  0  0  0  0  0  0  0  0  0  0  0
   19.0340   -5.4286  -14.4354 O   0  0  0  0  0  0  0  0  0  0  0  0
   22.8397   -4.4422  -13.6486 O   0  0  0  0  0  0  0  0  0  0  0  0
   19.9427   -5.5931  -16.5018 O   0  0  0  0  0  0  0  0  0  0  0  0
  1  2  1  0
  3  2  1  0
  4  5  1  0
  4  3  1  0
  5  1  1  0
  5  6  1  6
  7  6  2  0
 10  9  1  6
  9  8  1  0
 10 12  1  0
 10 11  1  0
 11  6  1  0
 12 14  1  0
 13 12  2  0
 14 15  1  0
 15 19  1  0
 15 16  1  6
 17 21  1  0
 17 16  1  0
 18 17  2  0
 19 20  2  0
 19 22  1  0
M  END
$$$$
