PSD.pdb
     RDKit          3D

 22 22  0  0  1  0  0  0  0  0999 V2000
   18.8613  -12.4462  -15.4685 N   0  0  0  0  0  0  0  0  0  0  0  0
   18.8813  -13.8166  -15.9115 C   0  0  0  0  0  0  0  0  0  0  0  0
   19.1488  -13.8292  -17.3801 C   0  0  0  0  0  0  0  0  0  0  0  0
   18.9552  -12.3592  -17.7599 C   0  0  0  0  0  0  0  0  0  0  0  0
   19.5180  -11.6970  -16.4950 C   0  0  1  0  0  0  0  0  0  0  0  0
   19.2325  -10.2558  -16.4561 C   0  0  0  0  0  0  0  0  0  0  0  0
   20.0660   -9.4784  -16.9882 O   0  0  0  0  0  0  0  0  0  0  0  0
   16.2728   -8.4249  -14.1261 O   0  0  0  0  0  0  0  0  0  0  0  0
   16.3559   -8.0939  -15.4670 C   0  0  0  0  0  0  0  0  0  0  0  0
   17.7946   -8.2591  -15.9093 C   0  0  2  0  0  0  0  0  0  0  0  0
   18.0840   -9.6761  -15.8618 N   0  0  0  0  0  0  0  0  0  0  0  0
   18.7355   -7.5640  -15.0049 C   0  0  0  0  0  0  0  0  0  0  0  0
   19.4855   -8.2444  -14.2683 O   0  0  0  0  0  0  0  0  0  0  0  0
   18.7860   -6.1413  -14.9740 N   0  0  0  0  0  0  0  0  0  0  0  0
   19.8854   -5.4226  -14.3439 C   0  0  1  0  0  0  0  0  0  0  0  0
   21.2205   -5.8821  -14.8856 C   0  0  0  0  0  0  0  0  0  0  0  0
   22.3490   -5.1928  -14.2512 C   0  0  0  0  0  0  0  0  0  0  0  0
   22.0845   -4.4165  -13.2883 O   0  0  0  0  0  0  0  0  0  0  0  0
   19.7916   -3.9796  -14.5153 C   0  0  0  0  0  0  0  0  0  0  0  0
   20.5215   -3.2121  -13.8531 O   0  0  0  0  0  0  0  0  0  0  0  0
   23.6726   -5.3119  -14.6066 O   0  0  0  0  0  0  0  0  0  0  0  0
   18.8954   -3.4364  -15.4115 O   0  0  0  0  0  0  0  0  0  0  0  0
  1  2  1  0
  3  2  1  0
  4  5  1  0
  4  3  1  0
  5  1  1  0
  5  6  1  6
  7  6  2  0
 10  9  1  1
  9  8  1  0
 10 12  1  0
 10 11  1  0
 11  6  1  0
 12 14  1  0
 13 12  2  0
 14 15  1  0
 15 19  1  0
 15 16  1  6
 17 21  1  0
 17 16  1  0
 18 17  2  0
 19 20  2  0
 19 22  1  0
M  END
$$$$
