PSD.pdb
     RDKit          3D

 22 22  0  0  1  0  0  0  0  0999 V2000
   15.8957  -20.1845    3.0939 N   0  0  0  0  0  0  0  0  0  0  0  0
   14.9994  -19.3825    2.3015 C   0  0  0  0  0  0  0  0  0  0  0  0
   13.6154  -19.9127    2.4805 C   0  0  0  0  0  0  0  0  0  0  0  0
   13.8669  -21.2544    3.1729 C   0  0  0  0  0  0  0  0  0  0  0  0
   15.0703  -20.8662    4.0427 C   0  0  1  0  0  0  0  0  0  0  0  0
   15.7089  -22.0411    4.6524 C   0  0  0  0  0  0  0  0  0  0  0  0
   15.0656  -22.6668    5.5338 O   0  0  0  0  0  0  0  0  0  0  0  0
   19.1509  -23.6984    3.1704 O   0  0  0  0  0  0  0  0  0  0  0  0
   18.2199  -24.4967    3.8110 C   0  0  0  0  0  0  0  0  0  0  0  0
   17.5933  -23.6920    4.9303 C   0  0  2  0  0  0  0  0  0  0  0  0
   16.9996  -22.5223    4.3193 N   0  0  0  0  0  0  0  0  0  0  0  0
   18.5976  -23.2395    5.9166 C   0  0  0  0  0  0  0  0  0  0  0  0
   19.1105  -22.1047    5.7852 O   0  0  0  0  0  0  0  0  0  0  0  0
   18.9744  -24.0839    6.9996 N   0  0  0  0  0  0  0  0  0  0  0  0
   19.8685  -23.6297    8.0562 C   0  0  1  0  0  0  0  0  0  0  0  0
   19.3036  -22.4210    8.7681 C   0  0  0  0  0  0  0  0  0  0  0  0
   20.1725  -21.9541    9.8536 C   0  0  0  0  0  0  0  0  0  0  0  0
   21.3714  -22.3571    9.8479 O   0  0  0  0  0  0  0  0  0  0  0  0
   20.1441  -24.6601    9.0475 C   0  0  0  0  0  0  0  0  0  0  0  0
   19.5293  -25.7472    9.0220 O   0  0  0  0  0  0  0  0  0  0  0  0
   19.8043  -21.1162   10.8806 O   0  0  0  0  0  0  0  0  0  0  0  0
   21.0883  -24.4530   10.0308 O   0  0  0  0  0  0  0  0  0  0  0  0
  1  2  1  0
  3  2  1  0
  4  5  1  0
  4  3  1  0
  5  1  1  0
  5  6  1  6
  7  6  2  0
 10  9  1  6
  9  8  1  0
 10 12  1  0
 10 11  1  0
 11  6  1  0
 12 14  1  0
 13 12  2  0
 14 15  1  0
 15 19  1  0
 15 16  1  1
 17 21  1  0
 17 16  1  0
 18 17  2  0
 19 20  2  0
 19 22  1  0
M  END
$$$$
