CYT.pdb
     RDKit          3D

 26 26  0  0  1  0  0  0  0  0999 V2000
    7.8371  -17.7755   20.2821 N   0  0  0  0  0  0  0  0  0  0  0  0
    8.6551  -16.6810   20.7611 C   0  0  1  0  0  0  0  0  0  0  0  0
    8.2403  -15.4006   20.0372 C   0  0  0  0  0  0  0  0  0  0  0  0
    8.8255  -15.5914   18.3158 S   0  0  0  0  0  0  0  0  0  0  0  0
    8.4504  -16.4914   22.2377 C   0  0  0  0  0  0  0  0  0  0  0  0
    7.3285  -16.7797   22.7227 O   0  0  0  0  0  0  0  0  0  0  0  0
   10.8685  -16.1532   30.8271 O   0  0  0  0  0  0  0  0  0  0  0  0
   10.7769  -16.1999   29.4288 C   0  0  0  0  0  0  0  0  0  0  0  0
   10.4778  -17.3721   28.7682 C   0  0  0  0  0  0  0  0  0  0  0  0
   10.3850  -17.4303   27.3932 C   0  0  0  0  0  0  0  0  0  0  0  0
   10.5913  -16.2982   26.6061 C   0  0  0  0  0  0  0  0  0  0  0  0
   10.5300  -16.3237   25.1486 C   0  0  0  0  0  0  0  0  0  0  0  0
    9.2144  -15.9696   24.5226 C   0  0  2  0  0  0  0  0  0  0  0  0
    9.4857  -16.0026   23.0661 N   0  0  0  0  0  0  0  0  0  0  0  0
    8.7332  -14.6002   24.7996 C   0  0  0  0  0  0  0  0  0  0  0  0
    9.3038  -13.5755   24.2757 O   0  0  0  0  0  0  0  0  0  0  0  0
   10.8883  -15.1387   27.2783 C   0  0  0  0  0  0  0  0  0  0  0  0
   10.9822  -15.0762   28.6564 C   0  0  0  0  0  0  0  0  0  0  0  0
    5.7475  -12.5633   23.9798 C   0  0  0  0  0  0  0  0  0  0  0  0
    5.8544  -12.5938   25.4846 C   0  0  1  0  0  0  0  0  0  0  0  0
    4.9791  -13.5581   25.9452 O   0  0  0  0  0  0  0  0  0  0  0  0
    7.2869  -12.8922   25.9236 C   0  0  2  0  0  0  0  0  0  0  0  0
    7.6276  -14.2688   25.6365 N   0  0  0  0  0  0  0  0  0  0  0  0
    7.5116  -12.5494   27.3235 C   0  0  0  0  0  0  0  0  0  0  0  0
    7.8908  -13.3757   28.1788 O   0  0  0  0  0  0  0  0  0  0  0  0
    7.3118  -11.2434   27.8065 O   0  0  0  0  0  0  0  0  0  0  0  0
  2  1  1  6
  3  2  1  0
  3  4  1  0
  5  2  1  0
  5  6  2  0
  7  8  1  0
  8 18  2  0
  9  8  1  0
  9 10  2  0
 10 11  1  0
 11 17  2  0
 11 12  1  0
 13 12  1  1
 13 14  1  0
 14  5  1  0
 15 13  1  0
 16 15  2  0
 18 17  1  0
 20 21  1  0
 20 19  1  6
 22 23  1  1
 22 20  1  0
 23 15  1  0
 24 22  1  0
 25 24  2  0
 26 24  1  0
M  END
$$$$
