CYT.pdb
     RDKit          3D

 26 26  0  0  1  0  0  0  0  0999 V2000
    8.0714  -17.5892   19.6856 N   0  0  0  0  0  0  0  0  0  0  0  0
    9.4688  -17.3938   20.0105 C   0  0  1  0  0  0  0  0  0  0  0  0
   10.1489  -16.6671   18.8508 C   0  0  0  0  0  0  0  0  0  0  0  0
   11.9050  -17.1716   18.9098 S   0  0  0  0  0  0  0  0  0  0  0  0
    9.5979  -16.5553   21.2509 C   0  0  0  0  0  0  0  0  0  0  0  0
   10.7470  -16.3614   21.7187 O   0  0  0  0  0  0  0  0  0  0  0  0
    6.7119  -11.5208   28.1178 O   0  0  0  0  0  0  0  0  0  0  0  0
    6.9157  -12.2142   26.9163 C   0  0  0  0  0  0  0  0  0  0  0  0
    8.0735  -12.0574   26.1850 C   0  0  0  0  0  0  0  0  0  0  0  0
    8.2852  -12.7340   25.0018 C   0  0  0  0  0  0  0  0  0  0  0  0
    7.3307  -13.6121   24.4904 C   0  0  0  0  0  0  0  0  0  0  0  0
    7.5040  -14.3252   23.2293 C   0  0  0  0  0  0  0  0  0  0  0  0
    8.7045  -15.2165   23.1180 C   0  0  2  0  0  0  0  0  0  0  0  0
    8.4633  -15.9961   21.8809 N   0  0  0  0  0  0  0  0  0  0  0  0
    8.8446  -16.2216   24.1921 C   0  0  0  0  0  0  0  0  0  0  0  0
    7.8971  -17.0466   24.4595 O   0  0  0  0  0  0  0  0  0  0  0  0
    6.1833  -13.7577   25.2298 C   0  0  0  0  0  0  0  0  0  0  0  0
    5.9672  -13.0813   26.4163 C   0  0  0  0  0  0  0  0  0  0  0  0
   10.7588  -19.1533   24.3068 C   0  0  0  0  0  0  0  0  0  0  0  0
   11.1239  -18.4778   25.6056 C   0  0  1  0  0  0  0  0  0  0  0  0
   12.3593  -17.8839   25.4339 O   0  0  0  0  0  0  0  0  0  0  0  0
   10.0661  -17.4490   26.0015 C   0  0  2  0  0  0  0  0  0  0  0  0
    9.9954  -16.3916   25.0164 N   0  0  0  0  0  0  0  0  0  0  0  0
   10.2829  -16.9336   27.3487 C   0  0  0  0  0  0  0  0  0  0  0  0
   10.4744  -15.7254   27.5973 O   0  0  0  0  0  0  0  0  0  0  0  0
   10.2901  -17.7800   28.4723 O   0  0  0  0  0  0  0  0  0  0  0  0
  2  1  1  6
  3  2  1  0
  3  4  1  0
  5  2  1  0
  5  6  2  0
  7  8  1  0
  8 18  2  0
  9  8  1  0
  9 10  2  0
 10 11  1  0
 11 17  2  0
 11 12  1  0
 13 12  1  1
 13 14  1  0
 14  5  1  0
 15 13  1  0
 16 15  2  0
 18 17  1  0
 20 21  1  0
 20 19  1  6
 22 23  1  6
 22 20  1  0
 23 15  1  0
 24 22  1  0
 25 24  2  0
 26 24  1  0
M  END
$$$$
