CYT.pdb
     RDKit          3D

 26 26  0  0  1  0  0  0  0  0999 V2000
   10.5290  -18.2684   17.8586 N   0  0  0  0  0  0  0  0  0  0  0  0
    9.9230  -18.3762   19.1692 C   0  0  1  0  0  0  0  0  0  0  0  0
   10.2508  -19.7497   19.7537 C   0  0  0  0  0  0  0  0  0  0  0  0
    9.2625  -19.8864   21.2855 S   0  0  0  0  0  0  0  0  0  0  0  0
   10.4743  -17.3169   20.0814 C   0  0  0  0  0  0  0  0  0  0  0  0
   11.6546  -16.9303   19.8962 O   0  0  0  0  0  0  0  0  0  0  0  0
    6.7290  -12.2635   17.6308 O   0  0  0  0  0  0  0  0  0  0  0  0
    7.3232  -12.8773   18.7425 C   0  0  0  0  0  0  0  0  0  0  0  0
    6.6156  -13.7451   19.5463 C   0  0  0  0  0  0  0  0  0  0  0  0
    7.1894  -14.3549   20.6425 C   0  0  0  0  0  0  0  0  0  0  0  0
    8.5193  -14.1185   20.9876 C   0  0  0  0  0  0  0  0  0  0  0  0
    9.1551  -14.7214   22.1542 C   0  0  0  0  0  0  0  0  0  0  0  0
   10.3001  -15.6532   21.8921 C   0  0  2  0  0  0  0  0  0  0  0  0
    9.6937  -16.7647   21.1220 N   0  0  0  0  0  0  0  0  0  0  0  0
   10.8865  -16.2840   23.0929 C   0  0  0  0  0  0  0  0  0  0  0  0
   10.2481  -16.3160   24.2070 O   0  0  0  0  0  0  0  0  0  0  0  0
    9.2107  -13.2523   20.1777 C   0  0  0  0  0  0  0  0  0  0  0  0
    8.6393  -12.6390   19.0780 C   0  0  0  0  0  0  0  0  0  0  0  0
   11.9941  -19.8345   23.7174 C   0  0  0  0  0  0  0  0  0  0  0  0
   13.1409  -18.9356   24.1093 C   0  0  1  0  0  0  0  0  0  0  0  0
   14.0629  -18.9636   23.0810 O   0  0  0  0  0  0  0  0  0  0  0  0
   12.6522  -17.5128   24.3753 C   0  0  2  0  0  0  0  0  0  0  0  0
   12.1670  -16.9080   23.1538 N   0  0  0  0  0  0  0  0  0  0  0  0
   13.6720  -16.6980   25.0263 C   0  0  0  0  0  0  0  0  0  0  0  0
   14.1458  -15.6601   24.5201 O   0  0  0  0  0  0  0  0  0  0  0  0
   14.1951  -17.0362   26.2877 O   0  0  0  0  0  0  0  0  0  0  0  0
  2  1  1  6
  3  2  1  0
  3  4  1  0
  5  2  1  0
  5  6  2  0
  7  8  1  0
  8 18  2  0
  9  8  1  0
  9 10  2  0
 10 11  1  0
 11 17  2  0
 11 12  1  0
 13 12  1  1
 13 14  1  0
 14  5  1  0
 15 13  1  0
 16 15  2  0
 18 17  1  0
 20 21  1  0
 20 19  1  6
 22 23  1  6
 22 20  1  0
 23 15  1  0
 24 22  1  0
 25 24  2  0
 26 24  1  0
M  END
$$$$
