CYT.pdb
     RDKit          3D

 26 26  0  0  1  0  0  0  0  0999 V2000
    9.2838  -16.6321   18.0444 N   0  0  0  0  0  0  0  0  0  0  0  0
    8.4269  -17.0375   19.1389 C   0  0  1  0  0  0  0  0  0  0  0  0
    8.6388  -18.5271   19.4068 C   0  0  0  0  0  0  0  0  0  0  0  0
    7.6208  -19.4043   18.1674 S   0  0  0  0  0  0  0  0  0  0  0  0
    8.7763  -16.2668   20.3807 C   0  0  0  0  0  0  0  0  0  0  0  0
    9.9821  -15.9783   20.5800 O   0  0  0  0  0  0  0  0  0  0  0  0
    7.1727  -11.9023   28.0698 O   0  0  0  0  0  0  0  0  0  0  0  0
    7.1473  -12.5044   26.8039 C   0  0  0  0  0  0  0  0  0  0  0  0
    7.7244  -11.8976   25.7091 C   0  0  0  0  0  0  0  0  0  0  0  0
    7.7057  -12.4802   24.4589 C   0  0  0  0  0  0  0  0  0  0  0  0
    7.0981  -13.7169   24.2467 C   0  0  0  0  0  0  0  0  0  0  0  0
    7.0323  -14.3536   22.9356 C   0  0  0  0  0  0  0  0  0  0  0  0
    8.2416  -15.1250   22.4990 C   0  0  2  0  0  0  0  0  0  0  0  0
    7.7824  -15.8732   21.3050 N   0  0  0  0  0  0  0  0  0  0  0  0
    8.7089  -16.1551   23.4498 C   0  0  0  0  0  0  0  0  0  0  0  0
    8.0262  -17.2219   23.6640 O   0  0  0  0  0  0  0  0  0  0  0  0
    6.5279  -14.3087   25.3464 C   0  0  0  0  0  0  0  0  0  0  0  0
    6.5445  -13.7280   26.6011 C   0  0  0  0  0  0  0  0  0  0  0  0
   11.5081  -18.3629   23.2174 C   0  0  0  0  0  0  0  0  0  0  0  0
   11.6432  -17.7784   24.6019 C   0  0  1  0  0  0  0  0  0  0  0  0
   12.6376  -16.8206   24.5549 O   0  0  0  0  0  0  0  0  0  0  0  0
   10.3193  -17.1784   25.0721 C   0  0  2  0  0  0  0  0  0  0  0  0
    9.9182  -16.0939   24.2024 N   0  0  0  0  0  0  0  0  0  0  0  0
   10.3706  -16.7719   26.4720 C   0  0  0  0  0  0  0  0  0  0  0  0
   10.1620  -15.6019   26.8538 O   0  0  0  0  0  0  0  0  0  0  0  0
   10.6635  -17.6886   27.4982 O   0  0  0  0  0  0  0  0  0  0  0  0
  2  1  1  6
  3  2  1  0
  3  4  1  0
  5  2  1  0
  5  6  2  0
  7  8  1  0
  8 18  2  0
  9  8  1  0
  9 10  2  0
 10 11  1  0
 11 17  2  0
 11 12  1  0
 13 12  1  1
 13 14  1  0
 14  5  1  0
 15 13  1  0
 16 15  2  0
 18 17  1  0
 20 21  1  0
 20 19  1  6
 22 23  1  6
 22 20  1  0
 23 15  1  0
 24 22  1  0
 25 24  2  0
 26 24  1  0
M  END
$$$$
