CYT.pdb
     RDKit          3D

 26 26  0  0  1  0  0  0  0  0999 V2000
    8.4339  -16.0317   17.7089 N   0  0  0  0  0  0  0  0  0  0  0  0
    8.0714  -16.8420   18.8529 C   0  0  1  0  0  0  0  0  0  0  0  0
    8.8103  -18.1770   18.7668 C   0  0  0  0  0  0  0  0  0  0  0  0
    8.2745  -19.1363   20.2278 S   0  0  0  0  0  0  0  0  0  0  0  0
    8.4707  -16.1478   20.1244 C   0  0  0  0  0  0  0  0  0  0  0  0
    9.6086  -15.6196   20.1796 O   0  0  0  0  0  0  0  0  0  0  0  0
    7.1515  -11.9674   27.8987 O   0  0  0  0  0  0  0  0  0  0  0  0
    7.0575  -12.6128   26.6576 C   0  0  0  0  0  0  0  0  0  0  0  0
    6.6289  -13.9191   26.5589 C   0  0  0  0  0  0  0  0  0  0  0  0
    6.5324  -14.5645   25.3436 C   0  0  0  0  0  0  0  0  0  0  0  0
    6.8665  -13.9191   24.1538 C   0  0  0  0  0  0  0  0  0  0  0  0
    6.8050  -14.5745   22.8518 C   0  0  0  0  0  0  0  0  0  0  0  0
    8.0463  -15.2787   22.3919 C   0  0  2  0  0  0  0  0  0  0  0  0
    7.5967  -16.0858   21.2332 N   0  0  0  0  0  0  0  0  0  0  0  0
    8.6105  -16.2515   23.3504 C   0  0  0  0  0  0  0  0  0  0  0  0
    7.9866  -17.3353   23.6439 O   0  0  0  0  0  0  0  0  0  0  0  0
    7.2915  -12.6188   24.2683 C   0  0  0  0  0  0  0  0  0  0  0  0
    7.3896  -11.9684   25.4846 C   0  0  0  0  0  0  0  0  0  0  0  0
   11.7483  -18.0522   22.9809 C   0  0  0  0  0  0  0  0  0  0  0  0
   11.7712  -17.5832   24.4149 C   0  0  1  0  0  0  0  0  0  0  0  0
   12.6602  -16.5289   24.4947 O   0  0  0  0  0  0  0  0  0  0  0  0
   10.3753  -17.1655   24.8743 C   0  0  2  0  0  0  0  0  0  0  0  0
    9.8578  -16.1131   24.0270 N   0  0  0  0  0  0  0  0  0  0  0  0
   10.3523  -16.7980   26.2857 C   0  0  0  0  0  0  0  0  0  0  0  0
   10.0216  -15.6655   26.6935 O   0  0  0  0  0  0  0  0  0  0  0  0
   10.7074  -17.7124   27.2941 O   0  0  0  0  0  0  0  0  0  0  0  0
  2  1  1  6
  3  2  1  0
  3  4  1  0
  5  2  1  0
  5  6  2  0
  7  8  1  0
  8 18  2  0
  9  8  1  0
  9 10  2  0
 10 11  1  0
 11 17  2  0
 11 12  1  0
 13 12  1  1
 13 14  1  0
 14  5  1  0
 15 13  1  0
 16 15  2  0
 18 17  1  0
 20 21  1  0
 20 19  1  6
 22 23  1  6
 22 20  1  0
 23 15  1  0
 24 22  1  0
 25 24  2  0
 26 24  1  0
M  END
$$$$
