CYT.pdb
     RDKit          3D

 26 26  0  0  1  0  0  0  0  0999 V2000
    9.8642  -16.1152   18.5193 N   0  0  0  0  0  0  0  0  0  0  0  0
    8.7746  -16.4186   19.4234 C   0  0  1  0  0  0  0  0  0  0  0  0
    8.6149  -17.9358   19.5132 C   0  0  0  0  0  0  0  0  0  0  0  0
    7.2077  -18.2210   20.6448 S   0  0  0  0  0  0  0  0  0  0  0  0
    9.0759  -15.8806   20.7938 C   0  0  0  0  0  0  0  0  0  0  0  0
   10.2614  -15.9339   21.2043 O   0  0  0  0  0  0  0  0  0  0  0  0
    7.3609  -12.3218   28.8103 O   0  0  0  0  0  0  0  0  0  0  0  0
    7.3522  -12.7075   27.4624 C   0  0  0  0  0  0  0  0  0  0  0  0
    6.1709  -12.9210   26.7849 C   0  0  0  0  0  0  0  0  0  0  0  0
    6.1498  -13.3006   25.4590 C   0  0  0  0  0  0  0  0  0  0  0  0
    7.3305  -13.4862   24.7412 C   0  0  0  0  0  0  0  0  0  0  0  0
    7.3518  -13.9141   23.3465 C   0  0  0  0  0  0  0  0  0  0  0  0
    8.4712  -14.8237   22.9372 C   0  0  2  0  0  0  0  0  0  0  0  0
    8.0598  -15.3280   21.6057 N   0  0  0  0  0  0  0  0  0  0  0  0
    8.6425  -16.0286   23.7754 C   0  0  0  0  0  0  0  0  0  0  0  0
    7.7198  -16.9182   23.8587 O   0  0  0  0  0  0  0  0  0  0  0  0
    8.4984  -13.2699   25.4294 C   0  0  0  0  0  0  0  0  0  0  0  0
    8.5239  -12.8893   26.7585 C   0  0  0  0  0  0  0  0  0  0  0  0
   10.5588  -18.8702   23.3156 C   0  0  0  0  0  0  0  0  0  0  0  0
   10.9198  -18.5000   24.7331 C   0  0  1  0  0  0  0  0  0  0  0  0
   12.1722  -17.9177   24.7059 O   0  0  0  0  0  0  0  0  0  0  0  0
    9.8818  -17.5514   25.3302 C   0  0  2  0  0  0  0  0  0  0  0  0
    9.7994  -16.3358   24.5500 N   0  0  0  0  0  0  0  0  0  0  0  0
   10.1344  -17.2842   26.7417 C   0  0  0  0  0  0  0  0  0  0  0  0
   10.1991  -18.1808   27.6079 O   0  0  0  0  0  0  0  0  0  0  0  0
   10.3245  -15.9766   27.2246 O   0  0  0  0  0  0  0  0  0  0  0  0
  2  1  1  6
  3  2  1  0
  3  4  1  0
  5  2  1  0
  5  6  2  0
  7  8  1  0
  8 18  2  0
  9  8  1  0
  9 10  2  0
 10 11  1  0
 11 17  2  0
 11 12  1  0
 13 12  1  1
 13 14  1  0
 14  5  1  0
 15 13  1  0
 16 15  2  0
 18 17  1  0
 20 21  1  0
 20 19  1  6
 22 23  1  6
 22 20  1  0
 23 15  1  0
 24 22  1  0
 25 24  2  0
 26 24  1  0
M  END
$$$$
