CYT.pdb
     RDKit          3D

 26 26  0  0  1  0  0  0  0  0999 V2000
    7.5383  -13.4088   19.9640 N   0  0  0  0  0  0  0  0  0  0  0  0
    7.1608  -14.4221   20.9270 C   0  0  1  0  0  0  0  0  0  0  0  0
    7.1684  -15.7861   20.2377 C   0  0  0  0  0  0  0  0  0  0  0  0
    5.4115  -16.2428   20.0208 S   0  0  0  0  0  0  0  0  0  0  0  0
    8.1447  -14.4471   22.0626 C   0  0  0  0  0  0  0  0  0  0  0  0
    9.3584  -14.2603   21.7999 O   0  0  0  0  0  0  0  0  0  0  0  0
   11.1393  -15.1084   30.4590 O   0  0  0  0  0  0  0  0  0  0  0  0
   10.3842  -14.9374   29.2901 C   0  0  0  0  0  0  0  0  0  0  0  0
    9.6503  -15.9728   28.7522 C   0  0  0  0  0  0  0  0  0  0  0  0
    8.9038  -15.8166   27.6029 C   0  0  0  0  0  0  0  0  0  0  0  0
    8.8587  -14.5962   26.9304 C   0  0  0  0  0  0  0  0  0  0  0  0
    8.1044  -14.3975   25.6974 C   0  0  0  0  0  0  0  0  0  0  0  0
    8.7900  -14.7759   24.4189 C   0  0  2  0  0  0  0  0  0  0  0  0
    7.7255  -14.6738   23.3929 N   0  0  0  0  0  0  0  0  0  0  0  0
    9.2669  -16.1729   24.3493 C   0  0  0  0  0  0  0  0  0  0  0  0
    8.4422  -17.1575   24.3276 O   0  0  0  0  0  0  0  0  0  0  0  0
    9.5946  -13.5749   27.4781 C   0  0  0  0  0  0  0  0  0  0  0  0
   10.3442  -13.7274   28.6299 C   0  0  0  0  0  0  0  0  0  0  0  0
   11.0807  -18.0225   21.7419 C   0  0  0  0  0  0  0  0  0  0  0  0
   11.8659  -18.2499   23.0102 C   0  0  1  0  0  0  0  0  0  0  0  0
   12.9682  -17.4181   22.9729 O   0  0  0  0  0  0  0  0  0  0  0  0
   11.0053  -17.9725   24.2416 C   0  0  2  0  0  0  0  0  0  0  0  0
   10.6336  -16.5752   24.2945 N   0  0  0  0  0  0  0  0  0  0  0  0
   11.6516  -18.4178   25.4710 C   0  0  0  0  0  0  0  0  0  0  0  0
   11.9814  -19.6032   25.6811 O   0  0  0  0  0  0  0  0  0  0  0  0
   11.9494  -17.5240   26.5158 O   0  0  0  0  0  0  0  0  0  0  0  0
  2  1  1  6
  3  2  1  0
  3  4  1  0
  5  2  1  0
  5  6  2  0
  7  8  1  0
  8 18  2  0
  9  8  1  0
  9 10  2  0
 10 11  1  0
 11 17  2  0
 11 12  1  0
 13 12  1  1
 13 14  1  0
 14  5  1  0
 15 13  1  0
 16 15  2  0
 18 17  1  0
 20 21  1  0
 20 19  1  6
 22 23  1  1
 22 20  1  0
 23 15  1  0
 24 22  1  0
 25 24  2  0
 26 24  1  0
M  END
$$$$
