CYT.pdb
     RDKit          3D

 26 26  0  0  1  0  0  0  0  0999 V2000
    9.7612  -15.6077   19.4113 N   0  0  0  0  0  0  0  0  0  0  0  0
    9.0297  -16.1608   20.5318 C   0  0  1  0  0  0  0  0  0  0  0  0
    8.9273  -17.6754   20.3559 C   0  0  0  0  0  0  0  0  0  0  0  0
    7.3437  -17.9690   19.4909 S   0  0  0  0  0  0  0  0  0  0  0  0
    9.7543  -15.8695   21.8156 C   0  0  0  0  0  0  0  0  0  0  0  0
   11.0016  -15.7297   21.7741 O   0  0  0  0  0  0  0  0  0  0  0  0
   10.4977  -14.9963   30.7245 O   0  0  0  0  0  0  0  0  0  0  0  0
   10.1330  -14.9749   29.3708 C   0  0  0  0  0  0  0  0  0  0  0  0
   10.4008  -13.8834   28.5729 C   0  0  0  0  0  0  0  0  0  0  0  0
   10.0468  -13.8507   27.2401 C   0  0  0  0  0  0  0  0  0  0  0  0
    9.3983  -14.9279   26.6378 C   0  0  0  0  0  0  0  0  0  0  0  0
    8.9824  -14.9220   25.2393 C   0  0  0  0  0  0  0  0  0  0  0  0
    9.8856  -15.6158   24.2641 C   0  0  2  0  0  0  0  0  0  0  0  0
    9.0601  -15.7542   23.0411 N   0  0  0  0  0  0  0  0  0  0  0  0
   10.2714  -16.9937   24.6332 C   0  0  0  0  0  0  0  0  0  0  0  0
    9.4046  -17.9410   24.6675 O   0  0  0  0  0  0  0  0  0  0  0  0
    9.1386  -16.0073   27.4451 C   0  0  0  0  0  0  0  0  0  0  0  0
    9.4917  -16.0440   28.7815 C   0  0  0  0  0  0  0  0  0  0  0  0
   12.5676  -19.3561   22.9666 C   0  0  0  0  0  0  0  0  0  0  0  0
   12.9925  -19.3387   24.4143 C   0  0  1  0  0  0  0  0  0  0  0  0
   14.1284  -18.5580   24.5062 O   0  0  0  0  0  0  0  0  0  0  0  0
   11.8753  -18.7964   25.3040 C   0  0  2  0  0  0  0  0  0  0  0  0
   11.5897  -17.4172   24.9731 N   0  0  0  0  0  0  0  0  0  0  0  0
   12.1715  -18.9731   26.7213 C   0  0  0  0  0  0  0  0  0  0  0  0
   12.2446  -18.0245   27.5294 O   0  0  0  0  0  0  0  0  0  0  0  0
   12.3975  -20.2457   27.2767 O   0  0  0  0  0  0  0  0  0  0  0  0
  2  1  1  6
  3  2  1  0
  3  4  1  0
  5  2  1  0
  5  6  2  0
  7  8  1  0
  8 18  2  0
  9  8  1  0
  9 10  2  0
 10 11  1  0
 11 17  2  0
 11 12  1  0
 13 12  1  1
 13 14  1  0
 14  5  1  0
 15 13  1  0
 16 15  2  0
 18 17  1  0
 20 21  1  0
 20 19  1  6
 22 23  1  1
 22 20  1  0
 23 15  1  0
 24 22  1  0
 25 24  2  0
 26 24  1  0
M  END
$$$$
