CYT.pdb
     RDKit          3D

 26 26  0  0  1  0  0  0  0  0999 V2000
    9.9452  -16.6426   18.5548 N   0  0  0  0  0  0  0  0  0  0  0  0
    8.8832  -16.8983   19.5052 C   0  0  1  0  0  0  0  0  0  0  0  0
    8.8771  -18.3870   19.8507 C   0  0  0  0  0  0  0  0  0  0  0  0
    7.7254  -19.1674   18.6646 S   0  0  0  0  0  0  0  0  0  0  0  0
    9.1151  -16.1094   20.7631 C   0  0  0  0  0  0  0  0  0  0  0  0
   10.3002  -15.8785   21.1082 O   0  0  0  0  0  0  0  0  0  0  0  0
    6.8009  -11.7141   28.2511 O   0  0  0  0  0  0  0  0  0  0  0  0
    6.9059  -12.2961   26.9799 C   0  0  0  0  0  0  0  0  0  0  0  0
    7.6855  -11.7304   25.9940 C   0  0  0  0  0  0  0  0  0  0  0  0
    7.7966  -12.2937   24.7398 C   0  0  0  0  0  0  0  0  0  0  0  0
    7.1204  -13.4681   24.4124 C   0  0  0  0  0  0  0  0  0  0  0  0
    7.1891  -14.0804   23.0898 C   0  0  0  0  0  0  0  0  0  0  0  0
    8.3802  -14.9465   22.8086 C   0  0  2  0  0  0  0  0  0  0  0  0
    8.0358  -15.6363   21.5429 N   0  0  0  0  0  0  0  0  0  0  0  0
    8.6198  -16.0258   23.7891 C   0  0  0  0  0  0  0  0  0  0  0  0
    7.7905  -16.9972   23.9257 O   0  0  0  0  0  0  0  0  0  0  0  0
    6.3483  -14.0195   25.4044 C   0  0  0  0  0  0  0  0  0  0  0  0
    6.2343  -13.4580   26.6628 C   0  0  0  0  0  0  0  0  0  0  0  0
   10.8520  -18.6967   23.7768 C   0  0  0  0  0  0  0  0  0  0  0  0
   11.0878  -18.1021   25.1434 C   0  0  1  0  0  0  0  0  0  0  0  0
   12.2579  -17.3703   25.0836 O   0  0  0  0  0  0  0  0  0  0  0  0
    9.9096  -17.2273   25.5682 C   0  0  2  0  0  0  0  0  0  0  0  0
    9.7490  -16.1168   24.6548 N   0  0  0  0  0  0  0  0  0  0  0  0
   10.0273  -16.7882   26.9542 C   0  0  0  0  0  0  0  0  0  0  0  0
   10.0684  -15.5870   27.2912 O   0  0  0  0  0  0  0  0  0  0  0  0
   10.1031  -17.7066   28.0172 O   0  0  0  0  0  0  0  0  0  0  0  0
  2  1  1  6
  3  2  1  0
  3  4  1  0
  5  2  1  0
  5  6  2  0
  7  8  1  0
  8 18  2  0
  9  8  1  0
  9 10  2  0
 10 11  1  0
 11 17  2  0
 11 12  1  0
 13 12  1  1
 13 14  1  0
 14  5  1  0
 15 13  1  0
 16 15  2  0
 18 17  1  0
 20 21  1  0
 20 19  1  6
 22 23  1  6
 22 20  1  0
 23 15  1  0
 24 22  1  0
 25 24  2  0
 26 24  1  0
M  END
$$$$
