CYT.pdb
     RDKit          3D

 26 26  0  0  1  0  0  0  0  0999 V2000
    8.1379  -13.4620   20.0136 N   0  0  0  0  0  0  0  0  0  0  0  0
    7.9039  -14.7875   20.5473 C   0  0  1  0  0  0  0  0  0  0  0  0
    8.5891  -15.8120   19.6438 C   0  0  0  0  0  0  0  0  0  0  0  0
    7.3634  -17.1432   19.3835 S   0  0  0  0  0  0  0  0  0  0  0  0
    8.4823  -14.8967   21.9300 C   0  0  0  0  0  0  0  0  0  0  0  0
    9.6000  -14.3678   22.1488 O   0  0  0  0  0  0  0  0  0  0  0  0
    6.3764  -10.0506   27.1158 O   0  0  0  0  0  0  0  0  0  0  0  0
    6.5847  -11.3561   26.6487 C   0  0  0  0  0  0  0  0  0  0  0  0
    5.5720  -12.2912   26.6570 C   0  0  0  0  0  0  0  0  0  0  0  0
    5.7650  -13.5783   26.2002 C   0  0  0  0  0  0  0  0  0  0  0  0
    7.0013  -13.9925   25.7066 C   0  0  0  0  0  0  0  0  0  0  0  0
    7.2541  -15.3517   25.2403 C   0  0  0  0  0  0  0  0  0  0  0  0
    8.4136  -15.5404   24.3086 C   0  0  2  0  0  0  0  0  0  0  0  0
    7.7949  -15.5740   22.9624 N   0  0  0  0  0  0  0  0  0  0  0  0
    9.1268  -16.8276   24.4431 C   0  0  0  0  0  0  0  0  0  0  0  0
    8.4938  -17.9451   24.4180 O   0  0  0  0  0  0  0  0  0  0  0  0
    7.9996  -13.0502   25.7047 C   0  0  0  0  0  0  0  0  0  0  0  0
    7.8102  -11.7590   26.1617 C   0  0  0  0  0  0  0  0  0  0  0  0
   13.2062  -19.6391   24.4822 C   0  0  0  0  0  0  0  0  0  0  0  0
   12.6096  -18.2549   24.4126 C   0  0  1  0  0  0  0  0  0  0  0  0
   12.7677  -17.7973   23.1188 O   0  0  0  0  0  0  0  0  0  0  0  0
   11.1362  -18.2752   24.8157 C   0  0  2  0  0  0  0  0  0  0  0  0
   10.5357  -16.9762   24.6031 N   0  0  0  0  0  0  0  0  0  0  0  0
   10.9504  -18.7513   26.1819 C   0  0  0  0  0  0  0  0  0  0  0  0
   10.6637  -17.9995   27.1363 O   0  0  0  0  0  0  0  0  0  0  0  0
   11.0848  -20.1112   26.5162 O   0  0  0  0  0  0  0  0  0  0  0  0
  2  1  1  6
  3  2  1  0
  3  4  1  0
  5  2  1  0
  5  6  2  0
  7  8  1  0
  8 18  2  0
  9  8  1  0
  9 10  2  0
 10 11  1  0
 11 17  2  0
 11 12  1  0
 13 12  1  1
 13 14  1  0
 14  5  1  0
 15 13  1  0
 16 15  2  0
 18 17  1  0
 20 21  1  0
 20 19  1  6
 22 23  1  1
 22 20  1  0
 23 15  1  0
 24 22  1  0
 25 24  2  0
 26 24  1  0
M  END
$$$$
