CYT.pdb
     RDKit          3D

 26 26  0  0  1  0  0  0  0  0999 V2000
    9.8176  -16.6679   18.4446 N   0  0  0  0  0  0  0  0  0  0  0  0
    8.7801  -17.0075   19.3958 C   0  0  1  0  0  0  0  0  0  0  0  0
    8.7880  -18.5197   19.6167 C   0  0  0  0  0  0  0  0  0  0  0  0
    7.3478  -18.8731   20.6858 S   0  0  0  0  0  0  0  0  0  0  0  0
    9.0399  -16.3243   20.7088 C   0  0  0  0  0  0  0  0  0  0  0  0
   10.2316  -16.1856   21.0796 O   0  0  0  0  0  0  0  0  0  0  0  0
    6.8274  -11.8279   28.1673 O   0  0  0  0  0  0  0  0  0  0  0  0
    6.9145  -12.4249   26.9017 C   0  0  0  0  0  0  0  0  0  0  0  0
    7.5560  -11.7978   25.8552 C   0  0  0  0  0  0  0  0  0  0  0  0
    7.6480  -12.3752   24.6059 C   0  0  0  0  0  0  0  0  0  0  0  0
    7.0923  -13.6270   24.3453 C   0  0  0  0  0  0  0  0  0  0  0  0
    7.1435  -14.2595   23.0315 C   0  0  0  0  0  0  0  0  0  0  0  0
    8.3529  -15.0933   22.7310 C   0  0  2  0  0  0  0  0  0  0  0  0
    7.9789  -15.8475   21.5113 N   0  0  0  0  0  0  0  0  0  0  0  0
    8.6764  -16.1212   23.7421 C   0  0  0  0  0  0  0  0  0  0  0  0
    7.9491  -17.1708   23.8807 O   0  0  0  0  0  0  0  0  0  0  0  0
    6.4570  -14.2388   25.3971 C   0  0  0  0  0  0  0  0  0  0  0  0
    6.3625  -13.6635   26.6509 C   0  0  0  0  0  0  0  0  0  0  0  0
   11.8512  -18.8450   26.1554 C   0  0  0  0  0  0  0  0  0  0  0  0
   11.4577  -17.7779   25.1638 C   0  0  1  0  0  0  0  0  0  0  0  0
   11.4471  -18.3574   23.9099 O   0  0  0  0  0  0  0  0  0  0  0  0
   10.0924  -17.1872   25.5115 C   0  0  2  0  0  0  0  0  0  0  0  0
    9.7848  -16.0758   24.6377 N   0  0  0  0  0  0  0  0  0  0  0  0
    9.9980  -16.8227   26.9207 C   0  0  0  0  0  0  0  0  0  0  0  0
   10.0596  -15.6448   27.3293 O   0  0  0  0  0  0  0  0  0  0  0  0
    9.8286  -17.7923   27.9259 O   0  0  0  0  0  0  0  0  0  0  0  0
  2  1  1  6
  3  2  1  0
  3  4  1  0
  5  2  1  0
  5  6  2  0
  7  8  1  0
  8 18  2  0
  9  8  1  0
  9 10  2  0
 10 11  1  0
 11 17  2  0
 11 12  1  0
 13 12  1  1
 13 14  1  0
 14  5  1  0
 15 13  1  0
 16 15  2  0
 18 17  1  0
 20 21  1  0
 20 19  1  1
 22 23  1  6
 22 20  1  0
 23 15  1  0
 24 22  1  0
 25 24  2  0
 26 24  1  0
M  END
$$$$
