CYT.pdb
     RDKit          3D

 26 26  0  0  1  0  0  0  0  0999 V2000
    9.6633  -16.5167   18.1711 N   0  0  0  0  0  0  0  0  0  0  0  0
    8.6733  -16.8957   19.1574 C   0  0  1  0  0  0  0  0  0  0  0  0
    8.7490  -18.4060   19.3784 C   0  0  0  0  0  0  0  0  0  0  0  0
    7.3999  -18.8054   20.5457 S   0  0  0  0  0  0  0  0  0  0  0  0
    8.9505  -16.2004   20.4605 C   0  0  0  0  0  0  0  0  0  0  0  0
   10.1474  -16.0452   20.8070 O   0  0  0  0  0  0  0  0  0  0  0  0
    6.9332  -11.8027   28.0313 O   0  0  0  0  0  0  0  0  0  0  0  0
    6.9864  -12.3876   26.7583 C   0  0  0  0  0  0  0  0  0  0  0  0
    7.7122  -11.8156   25.7356 C   0  0  0  0  0  0  0  0  0  0  0  0
    7.7720  -12.3818   24.4792 C   0  0  0  0  0  0  0  0  0  0  0  0
    7.0961  -13.5656   24.1869 C   0  0  0  0  0  0  0  0  0  0  0  0
    7.1109  -14.1814   22.8642 C   0  0  0  0  0  0  0  0  0  0  0  0
    8.2892  -15.0492   22.5375 C   0  0  2  0  0  0  0  0  0  0  0  0
    7.8998  -15.7305   21.2804 N   0  0  0  0  0  0  0  0  0  0  0  0
    8.5588  -16.1349   23.5030 C   0  0  0  0  0  0  0  0  0  0  0  0
    7.7312  -17.1041   23.6630 O   0  0  0  0  0  0  0  0  0  0  0  0
    6.3778  -14.1231   25.2152 C   0  0  0  0  0  0  0  0  0  0  0  0
    6.3153  -13.5588   26.4760 C   0  0  0  0  0  0  0  0  0  0  0  0
   10.8407  -18.7593   23.3187 C   0  0  0  0  0  0  0  0  0  0  0  0
   11.1106  -18.2084   24.6972 C   0  0  1  0  0  0  0  0  0  0  0  0
   12.2623  -17.4491   24.6248 O   0  0  0  0  0  0  0  0  0  0  0  0
    9.9294  -17.3756   25.1925 C   0  0  2  0  0  0  0  0  0  0  0  0
    9.7172  -16.2348   24.3282 N   0  0  0  0  0  0  0  0  0  0  0  0
   10.0831  -16.9871   26.5900 C   0  0  0  0  0  0  0  0  0  0  0  0
   10.1689  -15.7997   26.9656 O   0  0  0  0  0  0  0  0  0  0  0  0
   10.1455  -17.9423   27.6209 O   0  0  0  0  0  0  0  0  0  0  0  0
  2  1  1  6
  3  2  1  0
  3  4  1  0
  5  2  1  0
  5  6  2  0
  7  8  1  0
  8 18  2  0
  9  8  1  0
  9 10  2  0
 10 11  1  0
 11 17  2  0
 11 12  1  0
 13 12  1  1
 13 14  1  0
 14  5  1  0
 15 13  1  0
 16 15  2  0
 18 17  1  0
 20 21  1  0
 20 19  1  6
 22 23  1  6
 22 20  1  0
 23 15  1  0
 24 22  1  0
 25 24  2  0
 26 24  1  0
M  END
$$$$
