CYT.pdb
     RDKit          3D

 26 26  0  0  1  0  0  0  0  0999 V2000
    9.8958  -16.5363   18.5157 N   0  0  0  0  0  0  0  0  0  0  0  0
    8.9492  -16.9657   19.5237 C   0  0  1  0  0  0  0  0  0  0  0  0
    9.1813  -18.4468   19.8203 C   0  0  0  0  0  0  0  0  0  0  0  0
    7.8477  -19.3430   18.9483 S   0  0  0  0  0  0  0  0  0  0  0  0
    9.1507  -16.1803   20.7889 C   0  0  0  0  0  0  0  0  0  0  0  0
   10.3235  -15.8720   21.1151 O   0  0  0  0  0  0  0  0  0  0  0  0
    6.9028  -11.7077   28.1981 O   0  0  0  0  0  0  0  0  0  0  0  0
    6.9506  -12.3363   26.9458 C   0  0  0  0  0  0  0  0  0  0  0  0
    6.3631  -13.5657   26.7373 C   0  0  0  0  0  0  0  0  0  0  0  0
    6.4035  -14.1938   25.5099 C   0  0  0  0  0  0  0  0  0  0  0  0
    7.0449  -13.6086   24.4191 C   0  0  0  0  0  0  0  0  0  0  0  0
    7.1342  -14.2522   23.1128 C   0  0  0  0  0  0  0  0  0  0  0  0
    8.3744  -15.0482   22.8364 C   0  0  2  0  0  0  0  0  0  0  0  0
    8.0568  -15.7947   21.5962 N   0  0  0  0  0  0  0  0  0  0  0  0
    8.6970  -16.0813   23.8425 C   0  0  0  0  0  0  0  0  0  0  0  0
    7.9356  -17.1009   24.0175 O   0  0  0  0  0  0  0  0  0  0  0  0
    7.6251  -12.3847   24.6423 C   0  0  0  0  0  0  0  0  0  0  0  0
    7.5868  -11.7517   25.8711 C   0  0  0  0  0  0  0  0  0  0  0  0
   11.2505  -18.4641   23.8221 C   0  0  0  0  0  0  0  0  0  0  0  0
   11.3696  -17.9061   25.2189 C   0  0  1  0  0  0  0  0  0  0  0  0
   12.4700  -17.0713   25.2421 O   0  0  0  0  0  0  0  0  0  0  0  0
   10.0990  -17.1572   25.6172 C   0  0  2  0  0  0  0  0  0  0  0  0
    9.8404  -16.0734   24.6942 N   0  0  0  0  0  0  0  0  0  0  0  0
   10.1447  -16.7024   27.0023 C   0  0  0  0  0  0  0  0  0  0  0  0
   10.2611  -17.4770   27.9742 O   0  0  0  0  0  0  0  0  0  0  0  0
   10.0589  -15.3385   27.3364 O   0  0  0  0  0  0  0  0  0  0  0  0
  2  1  1  6
  3  2  1  0
  3  4  1  0
  5  2  1  0
  5  6  2  0
  7  8  1  0
  8 18  2  0
  9  8  1  0
  9 10  2  0
 10 11  1  0
 11 17  2  0
 11 12  1  0
 13 12  1  1
 13 14  1  0
 14  5  1  0
 15 13  1  0
 16 15  2  0
 18 17  1  0
 20 21  1  0
 20 19  1  6
 22 23  1  6
 22 20  1  0
 23 15  1  0
 24 22  1  0
 25 24  2  0
 26 24  1  0
M  END
$$$$
