CYT.pdb
     RDKit          3D

 26 26  0  0  1  0  0  0  0  0999 V2000
   10.2659  -16.6541   18.4164 N   0  0  0  0  0  0  0  0  0  0  0  0
    9.2896  -17.1461   19.3657 C   0  0  1  0  0  0  0  0  0  0  0  0
    9.5296  -18.6383   19.5927 C   0  0  0  0  0  0  0  0  0  0  0  0
    8.0051  -19.2728   20.3772 S   0  0  0  0  0  0  0  0  0  0  0  0
    9.4362  -16.4264   20.6767 C   0  0  0  0  0  0  0  0  0  0  0  0
   10.5947  -16.1540   21.0774 O   0  0  0  0  0  0  0  0  0  0  0  0
    6.9132  -11.7653   27.8696 O   0  0  0  0  0  0  0  0  0  0  0  0
    7.0072  -12.4353   26.6415 C   0  0  0  0  0  0  0  0  0  0  0  0
    6.3954  -13.6539   26.4405 C   0  0  0  0  0  0  0  0  0  0  0  0
    6.4807  -14.3224   25.2370 C   0  0  0  0  0  0  0  0  0  0  0  0
    7.1945  -13.7908   24.1638 C   0  0  0  0  0  0  0  0  0  0  0  0
    7.3322  -14.4786   22.8845 C   0  0  0  0  0  0  0  0  0  0  0  0
    8.5667  -15.3079   22.6941 C   0  0  2  0  0  0  0  0  0  0  0  0
    8.3074  -16.0619   21.4448 N   0  0  0  0  0  0  0  0  0  0  0  0
    8.8008  -16.3359   23.7295 C   0  0  0  0  0  0  0  0  0  0  0  0
    8.0006  -17.3304   23.8731 O   0  0  0  0  0  0  0  0  0  0  0  0
    7.7980  -12.5768   24.3793 C   0  0  0  0  0  0  0  0  0  0  0  0
    7.7149  -11.9036   25.5842 C   0  0  0  0  0  0  0  0  0  0  0  0
   10.9996  -18.9916   23.9634 C   0  0  0  0  0  0  0  0  0  0  0  0
   11.2184  -18.3004   25.2867 C   0  0  1  0  0  0  0  0  0  0  0  0
   12.3898  -17.5748   25.1895 O   0  0  0  0  0  0  0  0  0  0  0  0
   10.0356  -17.3973   25.6324 C   0  0  2  0  0  0  0  0  0  0  0  0
    9.8938  -16.3495   24.6448 N   0  0  0  0  0  0  0  0  0  0  0  0
   10.1310  -16.8677   26.9881 C   0  0  0  0  0  0  0  0  0  0  0  0
   10.1831  -15.6472   27.2447 O   0  0  0  0  0  0  0  0  0  0  0  0
   10.1708  -17.7134   28.1116 O   0  0  0  0  0  0  0  0  0  0  0  0
  2  1  1  6
  3  2  1  0
  3  4  1  0
  5  2  1  0
  5  6  2  0
  7  8  1  0
  8 18  2  0
  9  8  1  0
  9 10  2  0
 10 11  1  0
 11 17  2  0
 11 12  1  0
 13 12  1  1
 13 14  1  0
 14  5  1  0
 15 13  1  0
 16 15  2  0
 18 17  1  0
 20 21  1  0
 20 19  1  6
 22 23  1  6
 22 20  1  0
 23 15  1  0
 24 22  1  0
 25 24  2  0
 26 24  1  0
M  END
$$$$
