CYT.pdb
     RDKit          3D

 26 26  0  0  1  0  0  0  0  0999 V2000
   11.3099  -17.2492   20.0130 N   0  0  0  0  0  0  0  0  0  0  0  0
    9.9494  -17.1969   20.5058 C   0  0  1  0  0  0  0  0  0  0  0  0
    9.5097  -18.6083   20.8935 C   0  0  0  0  0  0  0  0  0  0  0  0
   10.6553  -19.1399   22.2152 S   0  0  0  0  0  0  0  0  0  0  0  0
    9.8737  -16.3146   21.7199 C   0  0  0  0  0  0  0  0  0  0  0  0
   10.9463  -15.8678   22.1960 O   0  0  0  0  0  0  0  0  0  0  0  0
    6.1779  -10.7980   27.6781 O   0  0  0  0  0  0  0  0  0  0  0  0
    6.4648  -11.6605   26.6106 C   0  0  0  0  0  0  0  0  0  0  0  0
    5.9437  -12.9354   26.5583 C   0  0  0  0  0  0  0  0  0  0  0  0
    6.2188  -13.7928   25.5134 C   0  0  0  0  0  0  0  0  0  0  0  0
    7.0418  -13.4044   24.4571 C   0  0  0  0  0  0  0  0  0  0  0  0
    7.3797  -14.2901   23.3480 C   0  0  0  0  0  0  0  0  0  0  0  0
    8.6705  -15.0451   23.4570 C   0  0  2  0  0  0  0  0  0  0  0  0
    8.6343  -15.9910   22.3167 N   0  0  0  0  0  0  0  0  0  0  0  0
    8.8061  -15.8903   24.6615 C   0  0  0  0  0  0  0  0  0  0  0  0
    8.9861  -15.3708   25.8224 O   0  0  0  0  0  0  0  0  0  0  0  0
    7.5530  -12.1322   24.5234 C   0  0  0  0  0  0  0  0  0  0  0  0
    7.2797  -11.2698   25.5690 C   0  0  0  0  0  0  0  0  0  0  0  0
    6.5136  -18.9332   25.6511 C   0  0  0  0  0  0  0  0  0  0  0  0
    7.9613  -19.3041   25.8595 C   0  0  1  0  0  0  0  0  0  0  0  0
    8.3343  -20.1303   24.8171 O   0  0  0  0  0  0  0  0  0  0  0  0
    8.8409  -18.0564   25.9181 C   0  0  2  0  0  0  0  0  0  0  0  0
    8.7501  -17.3149   24.6791 N   0  0  0  0  0  0  0  0  0  0  0  0
   10.2201  -18.3767   26.2688 C   0  0  0  0  0  0  0  0  0  0  0  0
   11.1936  -18.1077   25.5353 O   0  0  0  0  0  0  0  0  0  0  0  0
   10.5460  -19.0200   27.4767 O   0  0  0  0  0  0  0  0  0  0  0  0
  2  1  1  1
  3  2  1  0
  3  4  1  0
  5  2  1  0
  5  6  2  0
  7  8  1  0
  8 18  2  0
  9  8  1  0
  9 10  2  0
 10 11  1  0
 11 17  2  0
 11 12  1  0
 13 12  1  1
 13 14  1  0
 14  5  1  0
 15 13  1  0
 16 15  2  0
 18 17  1  0
 20 21  1  0
 20 19  1  6
 22 23  1  6
 22 20  1  0
 23 15  1  0
 24 22  1  0
 25 24  2  0
 26 24  1  0
M  END
$$$$
