FYL.pdb
     RDKit          3D

 32 33  0  0  1  0  0  0  0  0999 V2000
    6.7138  -17.8553   19.2975 N   0  0  0  0  0  0  0  0  0  0  0  0
    7.2291  -16.8330   20.1531 C   0  0  1  0  0  0  0  0  0  0  0  0
    6.3436  -15.5952   20.0148 C   0  0  0  0  0  0  0  0  0  0  0  0
    7.2422  -14.4333   19.7700 C   0  0  0  0  0  0  0  0  0  0  0  0
    8.4142  -14.2408   20.4716 C   0  0  0  0  0  0  0  0  0  0  0  0
    9.2265  -13.1692   20.2337 C   0  0  0  0  0  0  0  0  0  0  0  0
    8.9199  -12.2198   19.2785 C   0  0  0  0  0  0  0  0  0  0  0  0
    7.7533  -12.4012   18.5723 C   0  0  0  0  0  0  0  0  0  0  0  0
    6.9288  -13.4776   18.8050 C   0  0  0  0  0  0  0  0  0  0  0  0
    7.2500  -17.1938   21.5797 C   0  0  0  0  0  0  0  0  0  0  0  0
    6.1642  -17.2464   22.1941 O   0  0  0  0  0  0  0  0  0  0  0  0
    9.3984  -19.7064   29.7656 O   0  0  0  0  0  0  0  0  0  0  0  0
    9.3573  -19.4635   28.3762 C   0  0  0  0  0  0  0  0  0  0  0  0
   10.5280  -19.1737   27.7351 C   0  0  0  0  0  0  0  0  0  0  0  0
   10.5229  -18.9286   26.3631 C   0  0  0  0  0  0  0  0  0  0  0  0
    9.3635  -18.9698   25.6272 C   0  0  0  0  0  0  0  0  0  0  0  0
    9.3767  -18.7092   24.1760 C   0  0  0  0  0  0  0  0  0  0  0  0
    8.4451  -17.5926   23.7615 C   0  0  2  0  0  0  0  0  0  0  0  0
    8.4313  -17.4896   22.3153 N   0  0  0  0  0  0  0  0  0  0  0  0
    8.7190  -16.3032   24.4159 C   0  0  0  0  0  0  0  0  0  0  0  0
    9.8156  -15.7196   24.1163 O   0  0  0  0  0  0  0  0  0  0  0  0
    8.2071  -19.2644   26.3067 C   0  0  0  0  0  0  0  0  0  0  0  0
    8.1923  -19.5113   27.6720 C   0  0  0  0  0  0  0  0  0  0  0  0
    7.8525  -11.4653   26.3019 C   0  0  0  0  0  0  0  0  0  0  0  0
    7.0138  -12.4901   27.1346 C   0  0  1  0  0  0  0  0  0  0  0  0
    5.6648  -11.8030   27.2582 C   0  0  0  0  0  0  0  0  0  0  0  0
    7.0273  -13.7258   26.3288 C   0  0  0  0  0  0  0  0  0  0  0  0
    8.3074  -14.4575   26.1141 C   0  0  2  0  0  0  0  0  0  0  0  0
    7.8849  -15.6646   25.3322 N   0  0  0  0  0  0  0  0  0  0  0  0
    9.0631  -14.8808   27.2728 C   0  0  0  0  0  0  0  0  0  0  0  0
   10.2477  -14.3040   27.6525 O   0  0  0  0  0  0  0  0  0  0  0  0
    8.6442  -15.8414   28.0041 O   0  0  0  0  0  0  0  0  0  0  0  0
  2  1  1  6
  2  3  1  0
  3  4  1  0
  4  5  2  0
  5  6  1  0
  7  6  2  0
  8  7  1  0
  9  8  2  0
  9  4  1  0
 10  2  1  0
 10 11  2  0
 13 12  1  0
 13 23  2  0
 14 13  1  0
 15 14  2  0
 15 16  1  0
 16 22  2  0
 17 16  1  0
 18 19  1  0
 18 17  1  6
 19 10  1  0
 20 18  1  0
 21 20  2  0
 22 23  1  0
 25 27  1  0
 25 24  1  6
 26 25  1  0
 28 27  1  1
 28 30  1  0
 28 29  1  0
 29 20  1  0
 30 31  1  0
 32 30  2  0
M  END
$$$$
