FYL.pdb
     RDKit          3D

 32 33  0  0  1  0  0  0  0  0999 V2000
    6.5242  -20.8694   23.3451 N   0  0  0  0  0  0  0  0  0  0  0  0
    6.6354  -19.6665   24.1088 C   0  0  1  0  0  0  0  0  0  0  0  0
    7.4118  -19.9762   25.3882 C   0  0  0  0  0  0  0  0  0  0  0  0
    7.3476  -18.7632   26.2494 C   0  0  0  0  0  0  0  0  0  0  0  0
    6.1982  -18.0138   26.3916 C   0  0  0  0  0  0  0  0  0  0  0  0
    6.1573  -16.9039   27.1860 C   0  0  0  0  0  0  0  0  0  0  0  0
    7.2635  -16.4706   27.8905 C   0  0  0  0  0  0  0  0  0  0  0  0
    8.4159  -17.2100   27.7566 C   0  0  0  0  0  0  0  0  0  0  0  0
    8.4664  -18.3294   26.9586 C   0  0  0  0  0  0  0  0  0  0  0  0
    7.3494  -18.5788   23.4211 C   0  0  0  0  0  0  0  0  0  0  0  0
    8.5376  -18.7678   23.0868 O   0  0  0  0  0  0  0  0  0  0  0  0
    8.5819  -11.9115   17.7550 O   0  0  0  0  0  0  0  0  0  0  0  0
    8.0578  -12.7918   18.7253 C   0  0  0  0  0  0  0  0  0  0  0  0
    7.6769  -12.2739   19.9303 C   0  0  0  0  0  0  0  0  0  0  0  0
    7.1552  -13.1156   20.9111 C   0  0  0  0  0  0  0  0  0  0  0  0
    7.0106  -14.4656   20.7008 C   0  0  0  0  0  0  0  0  0  0  0  0
    6.4554  -15.3412   21.7491 C   0  0  0  0  0  0  0  0  0  0  0  0
    7.4626  -16.3251   22.3005 C   0  0  2  0  0  0  0  0  0  0  0  0
    6.7761  -17.3151   23.1072 N   0  0  0  0  0  0  0  0  0  0  0  0
    8.5895  -15.7010   23.0120 C   0  0  0  0  0  0  0  0  0  0  0  0
    9.6761  -15.5445   22.3580 O   0  0  0  0  0  0  0  0  0  0  0  0
    7.4044  -14.9489   19.4773 C   0  0  0  0  0  0  0  0  0  0  0  0
    7.9259  -14.1268   18.4887 C   0  0  0  0  0  0  0  0  0  0  0  0
    7.3417  -12.1824   26.9472 C   0  0  0  0  0  0  0  0  0  0  0  0
    7.7125  -12.9797   25.6533 C   0  0  1  0  0  0  0  0  0  0  0  0
    7.7937  -11.8917   24.5965 C   0  0  0  0  0  0  0  0  0  0  0  0
    8.9871  -13.6476   25.9787 C   0  0  0  0  0  0  0  0  0  0  0  0
    9.6829  -14.4626   24.9436 C   0  0  2  0  0  0  0  0  0  0  0  0
    8.5722  -15.2652   24.3361 N   0  0  0  0  0  0  0  0  0  0  0  0
   10.7410  -15.3551   25.3640 C   0  0  0  0  0  0  0  0  0  0  0  0
   10.6637  -16.7199   25.2562 O   0  0  0  0  0  0  0  0  0  0  0  0
   11.8174  -14.8902   25.8722 O   0  0  0  0  0  0  0  0  0  0  0  0
  2  1  1  6
  2  3  1  0
  3  4  1  0
  4  5  2  0
  5  6  1  0
  7  6  2  0
  8  7  1  0
  9  8  2  0
  9  4  1  0
 10  2  1  0
 10 11  2  0
 13 12  1  0
 13 23  2  0
 14 13  1  0
 15 14  2  0
 15 16  1  0
 16 22  2  0
 17 16  1  0
 18 19  1  0
 18 17  1  1
 19 10  1  0
 20 18  1  0
 21 20  2  0
 22 23  1  0
 25 27  1  0
 25 24  1  1
 26 25  1  0
 28 27  1  1
 28 30  1  0
 28 29  1  0
 29 20  1  0
 30 31  1  0
 32 30  2  0
M  END
$$$$
