FYL.pdb
     RDKit          3D

 32 33  0  0  1  0  0  0  0  0999 V2000
    5.3380  -17.8026   23.8521 N   0  0  0  0  0  0  0  0  0  0  0  0
    6.0545  -16.6135   24.1918 C   0  0  1  0  0  0  0  0  0  0  0  0
    5.9744  -16.4167   25.7052 C   0  0  0  0  0  0  0  0  0  0  0  0
    6.3842  -15.0140   25.9913 C   0  0  0  0  0  0  0  0  0  0  0  0
    5.5717  -13.9331   25.7189 C   0  0  0  0  0  0  0  0  0  0  0  0
    5.9639  -12.6531   25.9880 C   0  0  0  0  0  0  0  0  0  0  0  0
    7.1946  -12.3701   26.5473 C   0  0  0  0  0  0  0  0  0  0  0  0
    8.0139  -13.4402   26.8235 C   0  0  0  0  0  0  0  0  0  0  0  0
    7.6273  -14.7330   26.5559 C   0  0  0  0  0  0  0  0  0  0  0  0
    7.4816  -16.6457   23.8339 C   0  0  0  0  0  0  0  0  0  0  0  0
    8.0840  -17.7378   23.8954 O   0  0  0  0  0  0  0  0  0  0  0  0
    7.0818  -14.0818   17.2785 O   0  0  0  0  0  0  0  0  0  0  0  0
    7.7882  -14.1204   18.4994 C   0  0  0  0  0  0  0  0  0  0  0  0
    8.3946  -15.2900   18.8594 C   0  0  0  0  0  0  0  0  0  0  0  0
    9.1005  -15.3625   20.0590 C   0  0  0  0  0  0  0  0  0  0  0  0
    9.2064  -14.2814   20.9002 C   0  0  0  0  0  0  0  0  0  0  0  0
    9.9584  -14.3754   22.1650 C   0  0  0  0  0  0  0  0  0  0  0  0
    9.6087  -15.6017   22.9778 C   0  0  2  0  0  0  0  0  0  0  0  0
    8.2306  -15.5096   23.4187 N   0  0  0  0  0  0  0  0  0  0  0  0
   10.5378  -15.8772   24.0852 C   0  0  0  0  0  0  0  0  0  0  0  0
   11.7859  -15.8811   23.8108 O   0  0  0  0  0  0  0  0  0  0  0  0
    8.5835  -13.1235   20.5042 C   0  0  0  0  0  0  0  0  0  0  0  0
    7.8764  -13.0321   19.3139 C   0  0  0  0  0  0  0  0  0  0  0  0
    9.0536  -14.5888   29.1841 C   0  0  0  0  0  0  0  0  0  0  0  0
    9.7221  -14.6316   27.7704 C   0  0  1  0  0  0  0  0  0  0  0  0
   10.6183  -13.4052   27.7822 C   0  0  0  0  0  0  0  0  0  0  0  0
   10.4207  -15.9302   27.7269 C   0  0  0  0  0  0  0  0  0  0  0  0
   11.1750  -16.3262   26.5045 C   0  0  2  0  0  0  0  0  0  0  0  0
   10.1732  -16.1325   25.4063 N   0  0  0  0  0  0  0  0  0  0  0  0
   11.7116  -17.6675   26.4287 C   0  0  0  0  0  0  0  0  0  0  0  0
   10.9855  -18.7470   25.9958 O   0  0  0  0  0  0  0  0  0  0  0  0
   12.9178  -17.9036   26.7789 O   0  0  0  0  0  0  0  0  0  0  0  0
  2  1  1  1
  2  3  1  0
  3  4  1  0
  4  5  2  0
  5  6  1  0
  7  6  2  0
  8  7  1  0
  9  8  2  0
  9  4  1  0
 10  2  1  0
 10 11  2  0
 13 12  1  0
 13 23  2  0
 14 13  1  0
 15 14  2  0
 15 16  1  0
 16 22  2  0
 17 16  1  0
 18 19  1  0
 18 17  1  1
 19 10  1  0
 20 18  1  0
 21 20  2  0
 22 23  1  0
 25 27  1  0
 25 24  1  1
 26 25  1  0
 28 27  1  1
 28 30  1  0
 28 29  1  0
 29 20  1  0
 30 31  1  0
 32 30  2  0
M  END
$$$$
