FYL.pdb
     RDKit          3D

 32 33  0  0  1  0  0  0  0  0999 V2000
    5.6449  -19.9425   24.6715 N   0  0  0  0  0  0  0  0  0  0  0  0
    6.8778  -19.3831   25.1294 C   0  0  1  0  0  0  0  0  0  0  0  0
    7.8419  -20.5274   25.4402 C   0  0  0  0  0  0  0  0  0  0  0  0
    7.2654  -21.2949   26.5786 C   0  0  0  0  0  0  0  0  0  0  0  0
    7.9088  -22.3744   27.1475 C   0  0  0  0  0  0  0  0  0  0  0  0
    7.3651  -23.0668   28.1914 C   0  0  0  0  0  0  0  0  0  0  0  0
    6.1422  -22.7250   28.7349 C   0  0  0  0  0  0  0  0  0  0  0  0
    5.4910  -21.6498   28.1757 C   0  0  0  0  0  0  0  0  0  0  0  0
    6.0309  -20.9464   27.1240 C   0  0  0  0  0  0  0  0  0  0  0  0
    7.5441  -18.5088   24.1510 C   0  0  0  0  0  0  0  0  0  0  0  0
    8.7815  -18.6060   24.0147 O   0  0  0  0  0  0  0  0  0  0  0  0
    9.0093  -11.8001   18.4914 O   0  0  0  0  0  0  0  0  0  0  0  0
    8.4109  -12.7817   19.3097 C   0  0  0  0  0  0  0  0  0  0  0  0
    7.8989  -12.3947   20.5153 C   0  0  0  0  0  0  0  0  0  0  0  0
    7.3010  -13.3390   21.3480 C   0  0  0  0  0  0  0  0  0  0  0  0
    7.2097  -14.6622   20.9896 C   0  0  0  0  0  0  0  0  0  0  0  0
    6.5725  -15.6475   21.8823 C   0  0  0  0  0  0  0  0  0  0  0  0
    7.5670  -16.4718   22.6684 C   0  0  2  0  0  0  0  0  0  0  0  0
    6.8716  -17.5512   23.3416 N   0  0  0  0  0  0  0  0  0  0  0  0
    8.4116  -15.6878   23.5837 C   0  0  0  0  0  0  0  0  0  0  0  0
    9.4191  -15.0876   23.0760 O   0  0  0  0  0  0  0  0  0  0  0  0
    7.7357  -15.0127   19.7705 C   0  0  0  0  0  0  0  0  0  0  0  0
    8.3346  -14.0871   18.9280 C   0  0  0  0  0  0  0  0  0  0  0  0
    5.8735  -13.2963   27.5758 C   0  0  0  0  0  0  0  0  0  0  0  0
    6.7190  -13.5423   26.2828 C   0  0  1  0  0  0  0  0  0  0  0  0
    6.7841  -12.1617   25.6528 C   0  0  0  0  0  0  0  0  0  0  0  0
    8.0026  -14.0797   26.7727 C   0  0  0  0  0  0  0  0  0  0  0  0
    9.0065  -14.6018   25.8034 C   0  0  2  0  0  0  0  0  0  0  0  0
    8.2058  -15.5431   24.9549 N   0  0  0  0  0  0  0  0  0  0  0  0
   10.1675  -15.2946   26.3180 C   0  0  0  0  0  0  0  0  0  0  0  0
   10.3180  -16.6565   26.2651 O   0  0  0  0  0  0  0  0  0  0  0  0
   11.1223  -14.6430   26.8629 O   0  0  0  0  0  0  0  0  0  0  0  0
  2  1  1  6
  2  3  1  0
  3  4  1  0
  4  5  2  0
  5  6  1  0
  7  6  2  0
  8  7  1  0
  9  8  2  0
  9  4  1  0
 10  2  1  0
 10 11  2  0
 13 12  1  0
 13 23  2  0
 14 13  1  0
 15 14  2  0
 15 16  1  0
 16 22  2  0
 17 16  1  0
 18 19  1  0
 18 17  1  1
 19 10  1  0
 20 18  1  0
 21 20  2  0
 22 23  1  0
 25 27  1  0
 25 24  1  1
 26 25  1  0
 28 27  1  1
 28 30  1  0
 28 29  1  0
 29 20  1  0
 30 31  1  0
 32 30  2  0
M  END
$$$$
