FYL.pdb
     RDKit          3D

 32 33  0  0  1  0  0  0  0  0999 V2000
    9.5393  -18.3298   19.7453 N   0  0  0  0  0  0  0  0  0  0  0  0
    9.5393  -16.9086   19.5945 C   0  0  1  0  0  0  0  0  0  0  0  0
    8.2866  -16.5049   18.8177 C   0  0  0  0  0  0  0  0  0  0  0  0
    8.2530  -15.0168   18.7746 C   0  0  0  0  0  0  0  0  0  0  0  0
    9.0858  -14.2789   17.9593 C   0  0  0  0  0  0  0  0  0  0  0  0
    9.0412  -12.9144   17.9325 C   0  0  0  0  0  0  0  0  0  0  0  0
    8.1606  -12.1983   18.7196 C   0  0  0  0  0  0  0  0  0  0  0  0
    7.3248  -12.9234   19.5371 C   0  0  0  0  0  0  0  0  0  0  0  0
    7.3627  -14.2982   19.5706 C   0  0  0  0  0  0  0  0  0  0  0  0
    9.5189  -16.1668   20.8654 C   0  0  0  0  0  0  0  0  0  0  0  0
   10.0561  -15.0403   20.9034 O   0  0  0  0  0  0  0  0  0  0  0  0
    6.2446  -11.5496   27.3212 O   0  0  0  0  0  0  0  0  0  0  0  0
    6.5394  -12.5741   26.3967 C   0  0  0  0  0  0  0  0  0  0  0  0
    6.1293  -13.8443   26.6860 C   0  0  0  0  0  0  0  0  0  0  0  0
    6.4042  -14.8798   25.7944 C   0  0  0  0  0  0  0  0  0  0  0  0
    7.0826  -14.6598   24.6202 C   0  0  0  0  0  0  0  0  0  0  0  0
    7.3637  -15.7668   23.6878 C   0  0  0  0  0  0  0  0  0  0  0  0
    8.8127  -15.8347   23.2610 C   0  0  2  0  0  0  0  0  0  0  0  0
    8.9245  -16.6473   22.0655 N   0  0  0  0  0  0  0  0  0  0  0  0
    9.7357  -16.2648   24.3234 C   0  0  0  0  0  0  0  0  0  0  0  0
   10.9868  -16.1691   24.0817 O   0  0  0  0  0  0  0  0  0  0  0  0
    7.4785  -13.3699   24.3644 C   0  0  0  0  0  0  0  0  0  0  0  0
    7.2141  -12.3262   25.2396 C   0  0  0  0  0  0  0  0  0  0  0  0
   11.4993  -14.1476   27.9167 C   0  0  0  0  0  0  0  0  0  0  0  0
   10.5667  -15.1364   28.6913 C   0  0  1  0  0  0  0  0  0  0  0  0
    9.8462  -14.2259   29.6705 C   0  0  0  0  0  0  0  0  0  0  0  0
    9.7204  -15.7462   27.6480 C   0  0  0  0  0  0  0  0  0  0  0  0
   10.2880  -16.7894   26.7483 C   0  0  2  0  0  0  0  0  0  0  0  0
    9.3621  -16.7655   25.5697 N   0  0  0  0  0  0  0  0  0  0  0  0
   10.3943  -18.1445   27.2434 C   0  0  0  0  0  0  0  0  0  0  0  0
   11.5655  -18.6901   27.7023 O   0  0  0  0  0  0  0  0  0  0  0  0
    9.3699  -18.9081   27.2666 O   0  0  0  0  0  0  0  0  0  0  0  0
  2  1  1  1
  2  3  1  0
  3  4  1  0
  4  5  2  0
  5  6  1  0
  7  6  2  0
  8  7  1  0
  9  8  2  0
  9  4  1  0
 10  2  1  0
 10 11  2  0
 13 12  1  0
 13 23  2  0
 14 13  1  0
 15 14  2  0
 15 16  1  0
 16 22  2  0
 17 16  1  0
 18 19  1  0
 18 17  1  1
 19 10  1  0
 20 18  1  0
 21 20  2  0
 22 23  1  0
 25 27  1  0
 25 24  1  6
 26 25  1  0
 28 27  1  1
 28 30  1  0
 28 29  1  0
 29 20  1  0
 30 31  1  0
 32 30  2  0
M  END
$$$$
