FYL.pdb
     RDKit          3D

 32 33  0  0  1  0  0  0  0  0999 V2000
    5.6661  -17.8000   24.2800 N   0  0  0  0  0  0  0  0  0  0  0  0
    6.6160  -16.7490   24.4693 C   0  0  1  0  0  0  0  0  0  0  0  0
    6.6474  -16.3874   25.9538 C   0  0  0  0  0  0  0  0  0  0  0  0
    6.6912  -14.9019   26.0466 C   0  0  0  0  0  0  0  0  0  0  0  0
    7.6808  -14.1497   25.4484 C   0  0  0  0  0  0  0  0  0  0  0  0
    7.7052  -12.7878   25.5438 C   0  0  0  0  0  0  0  0  0  0  0  0
    6.7415  -12.0886   26.2440 C   0  0  0  0  0  0  0  0  0  0  0  0
    5.7493  -12.8281   26.8450 C   0  0  0  0  0  0  0  0  0  0  0  0
    5.7165  -14.2004   26.7542 C   0  0  0  0  0  0  0  0  0  0  0  0
    7.9909  -17.1007   24.0797 C   0  0  0  0  0  0  0  0  0  0  0  0
    8.6767  -17.7794   24.8723 O   0  0  0  0  0  0  0  0  0  0  0  0
    7.6007  -13.8861   17.1257 O   0  0  0  0  0  0  0  0  0  0  0  0
    8.0450  -14.0017   18.4600 C   0  0  0  0  0  0  0  0  0  0  0  0
    8.6511  -15.1645   18.8418 C   0  0  0  0  0  0  0  0  0  0  0  0
    9.1017  -15.3117   20.1524 C   0  0  0  0  0  0  0  0  0  0  0  0
    8.9533  -14.3119   21.0830 C   0  0  0  0  0  0  0  0  0  0  0  0
    9.4373  -14.4841   22.4650 C   0  0  0  0  0  0  0  0  0  0  0  0
    9.8042  -15.9133   22.7953 C   0  0  2  0  0  0  0  0  0  0  0  0
    8.5998  -16.7184   22.8520 N   0  0  0  0  0  0  0  0  0  0  0  0
   10.6376  -16.0600   23.9994 C   0  0  0  0  0  0  0  0  0  0  0  0
   11.9048  -16.0406   23.8362 O   0  0  0  0  0  0  0  0  0  0  0  0
    8.3393  -13.1580   20.6617 C   0  0  0  0  0  0  0  0  0  0  0  0
    7.8842  -12.9930   19.3614 C   0  0  0  0  0  0  0  0  0  0  0  0
    9.3704  -13.8228   28.6999 C   0  0  0  0  0  0  0  0  0  0  0  0
   10.1975  -14.2261   27.4348 C   0  0  1  0  0  0  0  0  0  0  0  0
   11.4496  -13.3759   27.5634 C   0  0  0  0  0  0  0  0  0  0  0  0
   10.3995  -15.6813   27.5690 C   0  0  0  0  0  0  0  0  0  0  0  0
   11.0671  -16.4416   26.4753 C   0  0  2  0  0  0  0  0  0  0  0  0
   10.1632  -16.2166   25.3008 N   0  0  0  0  0  0  0  0  0  0  0  0
   11.2763  -17.8623   26.6503 C   0  0  0  0  0  0  0  0  0  0  0  0
   10.5982  -18.8178   25.9380 O   0  0  0  0  0  0  0  0  0  0  0  0
   12.1229  -18.2921   27.5057 O   0  0  0  0  0  0  0  0  0  0  0  0
  2  1  1  1
  2  3  1  0
  3  4  1  0
  4  5  2  0
  5  6  1  0
  7  6  2  0
  8  7  1  0
  9  8  2  0
  9  4  1  0
 10  2  1  0
 10 11  2  0
 13 12  1  0
 13 23  2  0
 14 13  1  0
 15 14  2  0
 15 16  1  0
 16 22  2  0
 17 16  1  0
 18 19  1  0
 18 17  1  1
 19 10  1  0
 20 18  1  0
 21 20  2  0
 22 23  1  0
 25 27  1  0
 25 24  1  1
 26 25  1  0
 28 27  1  1
 28 30  1  0
 28 29  1  0
 29 20  1  0
 30 31  1  0
 32 30  2  0
M  END
$$$$
