FYL.pdb
     RDKit          3D

 32 33  0  0  1  0  0  0  0  0999 V2000
    5.9730  -19.4572   25.1125 N   0  0  0  0  0  0  0  0  0  0  0  0
    5.9233  -18.0289   25.1274 C   0  0  1  0  0  0  0  0  0  0  0  0
    6.2253  -17.5496   26.5468 C   0  0  0  0  0  0  0  0  0  0  0  0
    5.9792  -16.0814   26.5798 C   0  0  0  0  0  0  0  0  0  0  0  0
    4.7603  -15.5255   26.2510 C   0  0  0  0  0  0  0  0  0  0  0  0
    4.5524  -14.1764   26.2869 C   0  0  0  0  0  0  0  0  0  0  0  0
    5.5500  -13.2946   26.6540 C   0  0  0  0  0  0  0  0  0  0  0  0
    6.7703  -13.8373   26.9841 C   0  0  0  0  0  0  0  0  0  0  0  0
    6.9889  -15.1951   26.9509 C   0  0  0  0  0  0  0  0  0  0  0  0
    6.8981  -17.3817   24.2349 C   0  0  0  0  0  0  0  0  0  0  0  0
    8.0645  -17.8267   24.2082 O   0  0  0  0  0  0  0  0  0  0  0  0
   10.0510  -12.7674   17.3226 O   0  0  0  0  0  0  0  0  0  0  0  0
    9.2903  -13.1828   18.4361 C   0  0  0  0  0  0  0  0  0  0  0  0
    8.5658  -14.3357   18.3310 C   0  0  0  0  0  0  0  0  0  0  0  0
    7.8035  -14.7746   19.4122 C   0  0  0  0  0  0  0  0  0  0  0  0
    7.7579  -14.0753   20.5939 C   0  0  0  0  0  0  0  0  0  0  0  0
    6.9471  -14.5550   21.7281 C   0  0  0  0  0  0  0  0  0  0  0  0
    7.5550  -15.7453   22.4354 C   0  0  2  0  0  0  0  0  0  0  0  0
    6.6026  -16.2742   23.3921 N   0  0  0  0  0  0  0  0  0  0  0  0
    8.8719  -15.4823   23.0373 C   0  0  0  0  0  0  0  0  0  0  0  0
    9.8442  -15.2628   22.2376 O   0  0  0  0  0  0  0  0  0  0  0  0
    8.4994  -12.9215   20.6614 C   0  0  0  0  0  0  0  0  0  0  0  0
    9.2641  -12.4687   19.5959 C   0  0  0  0  0  0  0  0  0  0  0  0
   10.5844  -13.4867   28.4280 C   0  0  0  0  0  0  0  0  0  0  0  0
   11.2473  -14.3271   27.2871 C   0  0  1  0  0  0  0  0  0  0  0  0
   11.7140  -15.5765   28.0140 C   0  0  0  0  0  0  0  0  0  0  0  0
   10.1707  -14.5300   26.2991 C   0  0  0  0  0  0  0  0  0  0  0  0
   10.4933  -15.0822   24.9534 C   0  0  2  0  0  0  0  0  0  0  0  0
    9.1484  -15.4508   24.4033 N   0  0  0  0  0  0  0  0  0  0  0  0
   11.3726  -16.2279   24.8700 C   0  0  0  0  0  0  0  0  0  0  0  0
   10.9252  -17.5240   24.8770 O   0  0  0  0  0  0  0  0  0  0  0  0
   12.6381  -16.0691   24.7899 O   0  0  0  0  0  0  0  0  0  0  0  0
  2  1  1  1
  2  3  1  0
  3  4  1  0
  4  5  2  0
  5  6  1  0
  7  6  2  0
  8  7  1  0
  9  8  2  0
  9  4  1  0
 10  2  1  0
 10 11  2  0
 13 12  1  0
 13 23  2  0
 14 13  1  0
 15 14  2  0
 15 16  1  0
 16 22  2  0
 17 16  1  0
 18 19  1  0
 18 17  1  1
 19 10  1  0
 20 18  1  0
 21 20  2  0
 22 23  1  0
 25 27  1  0
 25 24  1  1
 26 25  1  0
 28 27  1  1
 28 30  1  0
 28 29  1  0
 29 20  1  0
 30 31  1  0
 32 30  2  0
M  END
$$$$
