FYL.pdb
     RDKit          3D

 32 33  0  0  1  0  0  0  0  0999 V2000
    7.9940  -18.1016   18.5105 N   0  0  0  0  0  0  0  0  0  0  0  0
    8.1961  -16.9017   19.2601 C   0  0  1  0  0  0  0  0  0  0  0  0
    6.9510  -16.0271   19.1173 C   0  0  0  0  0  0  0  0  0  0  0  0
    7.2360  -14.7362   19.8027 C   0  0  0  0  0  0  0  0  0  0  0  0
    6.8471  -14.4840   21.1019 C   0  0  0  0  0  0  0  0  0  0  0  0
    7.1170  -13.2940   21.7149 C   0  0  0  0  0  0  0  0  0  0  0  0
    7.7937  -12.2781   21.0686 C   0  0  0  0  0  0  0  0  0  0  0  0
    8.1867  -12.5180   19.7722 C   0  0  0  0  0  0  0  0  0  0  0  0
    7.9191  -13.7137   19.1466 C   0  0  0  0  0  0  0  0  0  0  0  0
    8.4107  -17.1184   20.6998 C   0  0  0  0  0  0  0  0  0  0  0  0
    7.4352  -17.4609   21.3999 O   0  0  0  0  0  0  0  0  0  0  0  0
   11.8834  -19.8031   28.2923 O   0  0  0  0  0  0  0  0  0  0  0  0
   11.7301  -19.3226   26.9745 C   0  0  0  0  0  0  0  0  0  0  0  0
   10.7808  -19.9013   26.1812 C   0  0  0  0  0  0  0  0  0  0  0  0
   10.6032  -19.4507   24.8743 C   0  0  0  0  0  0  0  0  0  0  0  0
   11.3621  -18.4308   24.3534 C   0  0  0  0  0  0  0  0  0  0  0  0
   11.1598  -17.9657   22.9690 C   0  0  0  0  0  0  0  0  0  0  0  0
    9.8453  -17.2460   22.7670 C   0  0  2  0  0  0  0  0  0  0  0  0
    9.6633  -16.9636   21.3566 N   0  0  0  0  0  0  0  0  0  0  0  0
    9.6761  -16.0502   23.6079 C   0  0  0  0  0  0  0  0  0  0  0  0
   10.4366  -15.0531   23.3619 O   0  0  0  0  0  0  0  0  0  0  0  0
   12.3059  -17.8743   25.1812 C   0  0  0  0  0  0  0  0  0  0  0  0
   12.4974  -18.3093   26.4847 C   0  0  0  0  0  0  0  0  0  0  0  0
    8.0823  -11.8095   25.8933 C   0  0  0  0  0  0  0  0  0  0  0  0
    7.1518  -12.9801   26.3529 C   0  0  1  0  0  0  0  0  0  0  0  0
    5.7601  -12.4069   26.1486 C   0  0  0  0  0  0  0  0  0  0  0  0
    7.5106  -14.1093   25.4739 C   0  0  0  0  0  0  0  0  0  0  0  0
    8.8209  -14.7971   25.6472 C   0  0  2  0  0  0  0  0  0  0  0  0
    8.7572  -15.9120   24.6471 N   0  0  0  0  0  0  0  0  0  0  0  0
    9.1483  -15.3412   26.9470 C   0  0  0  0  0  0  0  0  0  0  0  0
    8.4974  -16.4131   27.5017 O   0  0  0  0  0  0  0  0  0  0  0  0
   10.0812  -14.8231   27.6501 O   0  0  0  0  0  0  0  0  0  0  0  0
  2  1  1  6
  2  3  1  0
  3  4  1  0
  4  5  2  0
  5  6  1  0
  7  6  2  0
  8  7  1  0
  9  8  2  0
  9  4  1  0
 10  2  1  0
 10 11  2  0
 13 12  1  0
 13 23  2  0
 14 13  1  0
 15 14  2  0
 15 16  1  0
 16 22  2  0
 17 16  1  0
 18 19  1  0
 18 17  1  6
 19 10  1  0
 20 18  1  0
 21 20  2  0
 22 23  1  0
 25 27  1  0
 25 24  1  6
 26 25  1  0
 28 27  1  1
 28 30  1  0
 28 29  1  0
 29 20  1  0
 30 31  1  0
 32 30  2  0
M  END
$$$$
