FYL.pdb
     RDKit          3D

 32 33  0  0  1  0  0  0  0  0999 V2000
    5.3587  -18.5775   25.9145 N   0  0  0  0  0  0  0  0  0  0  0  0
    5.6243  -17.1799   25.7774 C   0  0  1  0  0  0  0  0  0  0  0  0
    6.1685  -16.6586   27.1069 C   0  0  0  0  0  0  0  0  0  0  0  0
    6.3260  -15.1840   26.9730 C   0  0  0  0  0  0  0  0  0  0  0  0
    6.1666  -14.3209   28.0372 C   0  0  0  0  0  0  0  0  0  0  0  0
    6.3149  -12.9708   27.8961 C   0  0  0  0  0  0  0  0  0  0  0  0
    6.6323  -12.3953   26.6813 C   0  0  0  0  0  0  0  0  0  0  0  0
    6.7938  -13.2462   25.6124 C   0  0  0  0  0  0  0  0  0  0  0  0
    6.6464  -14.6075   25.7451 C   0  0  0  0  0  0  0  0  0  0  0  0
    6.6197  -16.8532   24.7438 C   0  0  0  0  0  0  0  0  0  0  0  0
    7.6804  -17.5113   24.7128 O   0  0  0  0  0  0  0  0  0  0  0  0
   10.3644  -13.6490   17.3508 O   0  0  0  0  0  0  0  0  0  0  0  0
    9.5085  -13.9035   18.4434 C   0  0  0  0  0  0  0  0  0  0  0  0
    9.1806  -12.8627   19.2646 C   0  0  0  0  0  0  0  0  0  0  0  0
    8.3374  -13.0795   20.3530 C   0  0  0  0  0  0  0  0  0  0  0  0
    7.8200  -14.3220   20.6285 C   0  0  0  0  0  0  0  0  0  0  0  0
    6.9282  -14.5332   21.7835 C   0  0  0  0  0  0  0  0  0  0  0  0
    7.4844  -15.5080   22.7969 C   0  0  2  0  0  0  0  0  0  0  0  0
    6.4572  -15.8307   23.7679 N   0  0  0  0  0  0  0  0  0  0  0  0
    8.7401  -15.0719   23.4284 C   0  0  0  0  0  0  0  0  0  0  0  0
    8.7817  -13.8759   23.8766 O   0  0  0  0  0  0  0  0  0  0  0  0
    8.1723  -15.3431   19.7805 C   0  0  0  0  0  0  0  0  0  0  0  0
    9.0103  -15.1467   18.6922 C   0  0  0  0  0  0  0  0  0  0  0  0
    9.6437  -15.4359   27.9638 C   0  0  0  0  0  0  0  0  0  0  0  0
    9.6377  -14.9238   26.4856 C   0  0  1  0  0  0  0  0  0  0  0  0
   10.0000  -13.4561   26.6341 C   0  0  0  0  0  0  0  0  0  0  0  0
   10.6389  -15.7601   25.7967 C   0  0  0  0  0  0  0  0  0  0  0  0
   11.0593  -15.4214   24.4080 C   0  0  2  0  0  0  0  0  0  0  0  0
    9.8857  -15.8515   23.5805 N   0  0  0  0  0  0  0  0  0  0  0  0
   12.2616  -16.0307   23.8827 C   0  0  0  0  0  0  0  0  0  0  0  0
   13.5228  -15.5648   24.1520 O   0  0  0  0  0  0  0  0  0  0  0  0
   12.1898  -17.0537   23.1202 O   0  0  0  0  0  0  0  0  0  0  0  0
  2  1  1  1
  2  3  1  0
  3  4  1  0
  4  5  2  0
  5  6  1  0
  7  6  2  0
  8  7  1  0
  9  8  2  0
  9  4  1  0
 10  2  1  0
 10 11  2  0
 13 12  1  0
 13 23  2  0
 14 13  1  0
 15 14  2  0
 15 16  1  0
 16 22  2  0
 17 16  1  0
 18 19  1  0
 18 17  1  6
 19 10  1  0
 20 18  1  0
 21 20  2  0
 22 23  1  0
 25 27  1  0
 25 24  1  1
 26 25  1  0
 28 27  1  1
 28 30  1  0
 28 29  1  0
 29 20  1  0
 30 31  1  0
 32 30  2  0
M  END
$$$$
