AWW.pdb
     RDKit          3D

 34 37  0  0  1  0  0  0  0  0999 V2000
   11.7988  -18.4364   19.5100 C   0  0  0  0  0  0  0  0  0  0  0  0
   10.5883  -17.5248   19.4114 C   0  0  2  0  0  0  0  0  0  0  0  0
   10.9044  -16.4573   18.5130 N   0  0  0  0  0  0  0  0  0  0  0  0
   10.3299  -16.9692   20.7759 C   0  0  0  0  0  0  0  0  0  0  0  0
   11.1193  -16.1368   21.2834 O   0  0  0  0  0  0  0  0  0  0  0  0
    9.2007  -17.3570   21.5334 N   0  0  0  0  0  0  0  0  0  0  0  0
    9.0021  -16.8973   22.8618 C   0  0  1  0  0  0  0  0  0  0  0  0
    7.7360  -16.0941   23.0318 C   0  0  0  0  0  0  0  0  0  0  0  0
    7.2491  -15.6033   21.7272 C   0  0  0  0  0  0  0  0  0  0  0  0
    6.3256  -16.1672   20.8656 C   0  0  0  0  0  0  0  0  0  0  0  0
    6.1880  -15.3637   19.7834 N   0  0  0  0  0  0  0  0  0  0  0  0
    6.9912  -14.2919   19.9079 C   0  0  0  0  0  0  0  0  0  0  0  0
    7.2498  -13.1849   19.1286 C   0  0  0  0  0  0  0  0  0  0  0  0
    8.1467  -12.2093   19.5045 C   0  0  0  0  0  0  0  0  0  0  0  0
    8.8155  -12.3418   20.7098 C   0  0  0  0  0  0  0  0  0  0  0  0
    8.5588  -13.4485   21.4914 C   0  0  0  0  0  0  0  0  0  0  0  0
    7.6498  -14.4393   21.1128 C   0  0  0  0  0  0  0  0  0  0  0  0
    9.0817  -18.0393   23.7864 C   0  0  0  0  0  0  0  0  0  0  0  0
    9.1120  -19.1898   23.2934 O   0  0  0  0  0  0  0  0  0  0  0  0
    9.1264  -17.9212   25.1960 N   0  0  0  0  0  0  0  0  0  0  0  0
   10.0377  -16.9469   25.8378 C   0  0  1  0  0  0  0  0  0  0  0  0
    9.7121  -15.5702   25.3990 C   0  0  0  0  0  0  0  0  0  0  0  0
    8.4536  -15.0274   25.9251 C   0  0  0  0  0  0  0  0  0  0  0  0
    7.2762  -15.7565   26.1526 C   0  0  0  0  0  0  0  0  0  0  0  0
    6.3038  -14.9722   26.6037 N   0  0  0  0  0  0  0  0  0  0  0  0
    6.7967  -13.7225   26.6883 C   0  0  0  0  0  0  0  0  0  0  0  0
    6.1916  -12.5503   27.1142 C   0  0  0  0  0  0  0  0  0  0  0  0
    6.9320  -11.3917   27.1208 C   0  0  0  0  0  0  0  0  0  0  0  0
    8.2563  -11.3760   26.7138 C   0  0  0  0  0  0  0  0  0  0  0  0
    8.8339  -12.5503   26.2954 C   0  0  0  0  0  0  0  0  0  0  0  0
    8.1143  -13.7231   26.2790 C   0  0  0  0  0  0  0  0  0  0  0  0
   10.1199  -17.2152   27.2708 C   0  0  0  0  0  0  0  0  0  0  0  0
    9.2893  -18.0040   27.8608 O   0  0  0  0  0  0  0  0  0  0  0  0
   11.0685  -16.6777   28.1316 O   0  0  0  0  0  0  0  0  0  0  0  0
  2  1  1  1
  2  4  1  0
  2  3  1  0
  4  5  2  0
  6  7  1  0
  6  4  1  0
  7  8  1  6
  9 17  1  0
  9  8  1  0
 10  9  2  0
 11 10  1  0
 11 12  1  0
 12 13  1  0
 12 17  2  0
 13 14  2  0
 14 15  1  0
 16 15  2  0
 17 16  1  0
 18  7  1  0
 19 18  2  0
 20 18  1  0
 21 22  1  1
 21 20  1  0
 22 23  1  0
 23 31  1  0
 24 23  2  0
 24 25  1  0
 25 26  1  0
 26 27  1  0
 27 28  2  0
 29 28  1  0
 30 29  2  0
 31 26  2  0
 31 30  1  0
 32 34  1  0
 32 21  1  0
 33 32  2  0
M  END
$$$$
