AWW.pdb
     RDKit          3D

 34 37  0  0  1  0  0  0  0  0999 V2000
   10.3349  -17.3126   17.8782 C   0  0  0  0  0  0  0  0  0  0  0  0
    9.3888  -16.2362   18.3804 C   0  0  2  0  0  0  0  0  0  0  0  0
    9.6901  -15.0192   17.6913 N   0  0  0  0  0  0  0  0  0  0  0  0
    9.6444  -16.0581   19.8434 C   0  0  0  0  0  0  0  0  0  0  0  0
   10.6389  -15.4046   20.2402 O   0  0  0  0  0  0  0  0  0  0  0  0
    8.7849  -16.6127   20.8196 N   0  0  0  0  0  0  0  0  0  0  0  0
    9.0956  -16.5552   22.2037 C   0  0  1  0  0  0  0  0  0  0  0  0
    7.8743  -16.5662   23.0899 C   0  0  0  0  0  0  0  0  0  0  0  0
    7.2457  -15.2309   23.1304 C   0  0  0  0  0  0  0  0  0  0  0  0
    6.6163  -14.5253   22.1208 C   0  0  0  0  0  0  0  0  0  0  0  0
    6.1882  -13.3391   22.6160 N   0  0  0  0  0  0  0  0  0  0  0  0
    6.5166  -13.2444   23.9170 C   0  0  0  0  0  0  0  0  0  0  0  0
    6.3353  -12.2853   24.8900 C   0  0  0  0  0  0  0  0  0  0  0  0
    6.7853  -12.4483   26.1818 C   0  0  0  0  0  0  0  0  0  0  0  0
    7.4449  -13.6182   26.5195 C   0  0  0  0  0  0  0  0  0  0  0  0
    7.6278  -14.5794   25.5478 C   0  0  0  0  0  0  0  0  0  0  0  0
    7.1724  -14.4169   24.2372 C   0  0  0  0  0  0  0  0  0  0  0  0
   10.0478  -17.6283   22.5312 C   0  0  0  0  0  0  0  0  0  0  0  0
    9.6631  -18.8123   22.3976 O   0  0  0  0  0  0  0  0  0  0  0  0
   11.3696  -17.4087   22.9867 N   0  0  0  0  0  0  0  0  0  0  0  0
   11.6448  -17.2315   24.4306 C   0  0  1  0  0  0  0  0  0  0  0  0
   10.7185  -16.2333   25.0131 C   0  0  0  0  0  0  0  0  0  0  0  0
   10.6089  -16.2614   26.4767 C   0  0  0  0  0  0  0  0  0  0  0  0
   10.3087  -17.3891   27.2564 C   0  0  0  0  0  0  0  0  0  0  0  0
   10.2523  -17.0808   28.5472 N   0  0  0  0  0  0  0  0  0  0  0  0
   10.5089  -15.7645   28.6617 C   0  0  0  0  0  0  0  0  0  0  0  0
   10.5820  -14.9633   29.7905 C   0  0  0  0  0  0  0  0  0  0  0  0
   10.8824  -13.6306   29.6340 C   0  0  0  0  0  0  0  0  0  0  0  0
   11.1104  -13.0817   28.3825 C   0  0  0  0  0  0  0  0  0  0  0  0
   11.0317  -13.8957   27.2786 C   0  0  0  0  0  0  0  0  0  0  0  0
   10.7323  -15.2326   27.4084 C   0  0  0  0  0  0  0  0  0  0  0  0
   11.7527  -18.5360   25.0778 C   0  0  0  0  0  0  0  0  0  0  0  0
   12.6585  -18.7811   25.9607 O   0  0  0  0  0  0  0  0  0  0  0  0
   10.9212  -19.6214   24.8322 O   0  0  0  0  0  0  0  0  0  0  0  0
  2  1  1  6
  2  4  1  0
  2  3  1  0
  4  5  2  0
  6  7  1  0
  6  4  1  0
  7  8  1  1
  9 17  1  0
  9  8  1  0
 10  9  2  0
 11 10  1  0
 11 12  1  0
 12 13  1  0
 12 17  2  0
 13 14  2  0
 14 15  1  0
 16 15  2  0
 17 16  1  0
 18  7  1  0
 19 18  2  0
 20 18  1  0
 21 22  1  1
 21 20  1  0
 22 23  1  0
 23 31  1  0
 24 23  2  0
 24 25  1  0
 25 26  1  0
 26 27  1  0
 27 28  2  0
 29 28  1  0
 30 29  2  0
 31 26  2  0
 31 30  1  0
 32 34  1  0
 32 21  1  0
 33 32  2  0
M  END
$$$$
