AWW.pdb
     RDKit          3D

 34 37  0  0  1  0  0  0  0  0999 V2000
    7.4153  -20.7630   24.2931 C   0  0  0  0  0  0  0  0  0  0  0  0
    7.6364  -20.4122   22.8323 C   0  0  2  0  0  0  0  0  0  0  0  0
    7.8189  -21.6293   22.1029 N   0  0  0  0  0  0  0  0  0  0  0  0
    8.8826  -19.5890   22.7499 C   0  0  0  0  0  0  0  0  0  0  0  0
    9.9902  -20.0775   23.0787 O   0  0  0  0  0  0  0  0  0  0  0  0
    8.8575  -18.2475   22.3038 N   0  0  0  0  0  0  0  0  0  0  0  0
   10.0444  -17.4756   22.1997 C   0  0  1  0  0  0  0  0  0  0  0  0
    9.9952  -16.4529   21.0911 C   0  0  0  0  0  0  0  0  0  0  0  0
    8.7090  -15.7283   21.1050 C   0  0  0  0  0  0  0  0  0  0  0  0
    7.4812  -16.1273   21.6016 C   0  0  0  0  0  0  0  0  0  0  0  0
    6.5821  -15.1344   21.3978 N   0  0  0  0  0  0  0  0  0  0  0  0
    7.1807  -14.0980   20.7838 C   0  0  0  0  0  0  0  0  0  0  0  0
    6.7581  -12.8609   20.3475 C   0  0  0  0  0  0  0  0  0  0  0  0
    7.6043  -11.9657   19.7309 C   0  0  0  0  0  0  0  0  0  0  0  0
    8.9300  -12.3180   19.5405 C   0  0  0  0  0  0  0  0  0  0  0  0
    9.3554  -13.5553   19.9760 C   0  0  0  0  0  0  0  0  0  0  0  0
    8.4995  -14.4650   20.6017 C   0  0  0  0  0  0  0  0  0  0  0  0
   10.3524  -16.8818   23.5104 C   0  0  0  0  0  0  0  0  0  0  0  0
   11.0645  -15.8523   23.5332 O   0  0  0  0  0  0  0  0  0  0  0  0
    9.8956  -17.3988   24.7461 N   0  0  0  0  0  0  0  0  0  0  0  0
   10.3557  -16.8061   26.0224 C   0  0  1  0  0  0  0  0  0  0  0  0
   10.1151  -15.3446   26.0282 C   0  0  0  0  0  0  0  0  0  0  0  0
    8.7033  -14.9434   26.0576 C   0  0  0  0  0  0  0  0  0  0  0  0
    7.6018  -15.8130   26.0395 C   0  0  0  0  0  0  0  0  0  0  0  0
    6.4568  -15.1397   26.0441 N   0  0  0  0  0  0  0  0  0  0  0  0
    6.7574  -13.8279   26.0656 C   0  0  0  0  0  0  0  0  0  0  0  0
    5.9240  -12.7206   26.0927 C   0  0  0  0  0  0  0  0  0  0  0  0
    6.4924  -11.4691   26.1297 C   0  0  0  0  0  0  0  0  0  0  0  0
    7.8673  -11.2981   26.1403 C   0  0  0  0  0  0  0  0  0  0  0  0
    8.6727  -12.4108   26.1124 C   0  0  0  0  0  0  0  0  0  0  0  0
    8.1285  -13.6742   26.0746 C   0  0  0  0  0  0  0  0  0  0  0  0
    9.8534  -17.5946   27.1441 C   0  0  0  0  0  0  0  0  0  0  0  0
   10.1595  -17.3100   28.3628 O   0  0  0  0  0  0  0  0  0  0  0  0
    9.0152  -18.6969   27.0344 O   0  0  0  0  0  0  0  0  0  0  0  0
  2  1  1  1
  2  4  1  0
  2  3  1  0
  4  5  2  0
  6  7  1  0
  6  4  1  0
  7  8  1  6
  9 17  1  0
  9  8  1  0
 10  9  2  0
 11 10  1  0
 11 12  1  0
 12 13  1  0
 12 17  2  0
 13 14  2  0
 14 15  1  0
 16 15  2  0
 17 16  1  0
 18  7  1  0
 19 18  2  0
 20 18  1  0
 21 22  1  1
 21 20  1  0
 22 23  1  0
 23 31  1  0
 24 23  2  0
 24 25  1  0
 25 26  1  0
 26 27  1  0
 27 28  2  0
 29 28  1  0
 30 29  2  0
 31 26  2  0
 31 30  1  0
 32 34  1  0
 32 21  1  0
 33 32  2  0
M  END
$$$$
