AWW.pdb
     RDKit          3D

 34 37  0  0  1  0  0  0  0  0999 V2000
    8.5545  -19.1133   17.9032 C   0  0  0  0  0  0  0  0  0  0  0  0
    9.1641  -19.3758   19.2691 C   0  0  2  0  0  0  0  0  0  0  0  0
    8.3135  -20.2874   19.9705 N   0  0  0  0  0  0  0  0  0  0  0  0
    9.2096  -18.0718   20.0005 C   0  0  0  0  0  0  0  0  0  0  0  0
    9.8928  -17.1176   19.5573 O   0  0  0  0  0  0  0  0  0  0  0  0
    8.4932  -17.8701   21.2027 N   0  0  0  0  0  0  0  0  0  0  0  0
    8.6015  -16.6615   21.9397 C   0  0  1  0  0  0  0  0  0  0  0  0
    7.2703  -16.1285   22.4099 C   0  0  0  0  0  0  0  0  0  0  0  0
    7.4111  -14.7529   22.9270 C   0  0  0  0  0  0  0  0  0  0  0  0
    7.8932  -13.6214   22.2940 C   0  0  0  0  0  0  0  0  0  0  0  0
    7.8353  -12.5781   23.1565 N   0  0  0  0  0  0  0  0  0  0  0  0
    7.3311  -12.9891   24.3339 C   0  0  0  0  0  0  0  0  0  0  0  0
    7.0577  -12.3701   25.5346 C   0  0  0  0  0  0  0  0  0  0  0  0
    6.5274  -13.0465   26.6112 C   0  0  0  0  0  0  0  0  0  0  0  0
    6.2574  -14.3990   26.4865 C   0  0  0  0  0  0  0  0  0  0  0  0
    6.5301  -15.0208   25.2863 C   0  0  0  0  0  0  0  0  0  0  0  0
    7.0677  -14.3375   24.1929 C   0  0  0  0  0  0  0  0  0  0  0  0
    9.5613  -16.8492   23.0392 C   0  0  0  0  0  0  0  0  0  0  0  0
    9.1050  -16.9818   24.1975 O   0  0  0  0  0  0  0  0  0  0  0  0
   10.9661  -16.8898   22.8719 N   0  0  0  0  0  0  0  0  0  0  0  0
   11.8652  -16.6132   24.0151 C   0  0  1  0  0  0  0  0  0  0  0  0
   11.3963  -15.4243   24.7636 C   0  0  0  0  0  0  0  0  0  0  0  0
   10.8305  -15.7030   26.0892 C   0  0  0  0  0  0  0  0  0  0  0  0
   10.3593  -16.9472   26.5361 C   0  0  0  0  0  0  0  0  0  0  0  0
    9.8808  -16.8650   27.7724 N   0  0  0  0  0  0  0  0  0  0  0  0
   10.0176  -15.5884   28.1766 C   0  0  0  0  0  0  0  0  0  0  0  0
    9.6869  -14.9931   29.3840 C   0  0  0  0  0  0  0  0  0  0  0  0
    9.9501  -13.6540   29.5520 C   0  0  0  0  0  0  0  0  0  0  0  0
   10.5331  -12.8988   28.5473 C   0  0  0  0  0  0  0  0  0  0  0  0
   10.8514  -13.5111   27.3593 C   0  0  0  0  0  0  0  0  0  0  0  0
   10.5977  -14.8497   27.1660 C   0  0  0  0  0  0  0  0  0  0  0  0
   12.1143  -17.8451   24.7585 C   0  0  0  0  0  0  0  0  0  0  0  0
   12.9599  -17.8908   25.7295 O   0  0  0  0  0  0  0  0  0  0  0  0
   11.4899  -19.0628   24.5200 O   0  0  0  0  0  0  0  0  0  0  0  0
  2  1  1  6
  2  4  1  0
  2  3  1  0
  4  5  2  0
  6  7  1  0
  6  4  1  0
  7  8  1  1
  9 17  1  0
  9  8  1  0
 10  9  2  0
 11 10  1  0
 11 12  1  0
 12 13  1  0
 12 17  2  0
 13 14  2  0
 14 15  1  0
 16 15  2  0
 17 16  1  0
 18  7  1  0
 19 18  2  0
 20 18  1  0
 21 22  1  1
 21 20  1  0
 22 23  1  0
 23 31  1  0
 24 23  2  0
 24 25  1  0
 25 26  1  0
 26 27  1  0
 27 28  2  0
 29 28  1  0
 30 29  2  0
 31 26  2  0
 31 30  1  0
 32 34  1  0
 32 21  1  0
 33 32  2  0
M  END
$$$$
