AWW.pdb
     RDKit          3D

 34 37  0  0  1  0  0  0  0  0999 V2000
    9.2413  -20.1842   21.3839 C   0  0  0  0  0  0  0  0  0  0  0  0
    8.6453  -19.1160   20.4842 C   0  0  2  0  0  0  0  0  0  0  0  0
    9.0531  -19.3852   19.1397 N   0  0  0  0  0  0  0  0  0  0  0  0
    9.2014  -17.7976   20.9202 C   0  0  0  0  0  0  0  0  0  0  0  0
   10.3630  -17.4572   20.5909 O   0  0  0  0  0  0  0  0  0  0  0  0
    8.4474  -16.8986   21.7093 N   0  0  0  0  0  0  0  0  0  0  0  0
    8.9380  -15.6086   22.0420 C   0  0  1  0  0  0  0  0  0  0  0  0
    7.8437  -14.5941   22.2662 C   0  0  0  0  0  0  0  0  0  0  0  0
    7.3437  -14.6625   23.6537 C   0  0  0  0  0  0  0  0  0  0  0  0
    6.8889  -15.7544   24.3708 C   0  0  0  0  0  0  0  0  0  0  0  0
    6.5309  -15.3456   25.6119 N   0  0  0  0  0  0  0  0  0  0  0  0
    6.7362  -14.0215   25.7313 C   0  0  0  0  0  0  0  0  0  0  0  0
    6.5527  -13.1048   26.7439 C   0  0  0  0  0  0  0  0  0  0  0  0
    6.8537  -11.7687   26.5951 C   0  0  0  0  0  0  0  0  0  0  0  0
    7.3600  -11.3262   25.3845 C   0  0  0  0  0  0  0  0  0  0  0  0
    7.5444  -12.2414   24.3696 C   0  0  0  0  0  0  0  0  0  0  0  0
    7.2401  -13.5968   24.5177 C   0  0  0  0  0  0  0  0  0  0  0  0
    9.8559  -15.7201   23.1867 C   0  0  0  0  0  0  0  0  0  0  0  0
    9.3784  -15.5771   24.3352 O   0  0  0  0  0  0  0  0  0  0  0  0
   11.2427  -15.9787   23.0733 N   0  0  0  0  0  0  0  0  0  0  0  0
   12.0935  -16.0476   24.2830 C   0  0  1  0  0  0  0  0  0  0  0  0
   11.6830  -17.1857   25.1375 C   0  0  0  0  0  0  0  0  0  0  0  0
   10.6009  -16.8966   26.0865 C   0  0  0  0  0  0  0  0  0  0  0  0
    9.4665  -17.6931   26.3061 C   0  0  0  0  0  0  0  0  0  0  0  0
    8.6590  -17.1432   27.2060 N   0  0  0  0  0  0  0  0  0  0  0  0
    9.2222  -15.9873   27.6041 C   0  0  0  0  0  0  0  0  0  0  0  0
    8.7870  -15.0546   28.5327 C   0  0  0  0  0  0  0  0  0  0  0  0
    9.5694  -13.9497   28.7727 C   0  0  0  0  0  0  0  0  0  0  0  0
   10.7706  -13.7550   28.1104 C   0  0  0  0  0  0  0  0  0  0  0  0
   11.1806  -14.6931   27.1941 C   0  0  0  0  0  0  0  0  0  0  0  0
   10.4155  -15.8073   26.9355 C   0  0  0  0  0  0  0  0  0  0  0  0
   13.4999  -15.9372   23.9062 C   0  0  0  0  0  0  0  0  0  0  0  0
   13.8754  -15.9690   22.6741 O   0  0  0  0  0  0  0  0  0  0  0  0
   14.5561  -15.7852   24.7956 O   0  0  0  0  0  0  0  0  0  0  0  0
  2  1  1  1
  2  4  1  0
  2  3  1  0
  4  5  2  0
  6  7  1  0
  6  4  1  0
  7  8  1  1
  9 17  1  0
  9  8  1  0
 10  9  2  0
 11 10  1  0
 11 12  1  0
 12 13  1  0
 12 17  2  0
 13 14  2  0
 14 15  1  0
 16 15  2  0
 17 16  1  0
 18  7  1  0
 19 18  2  0
 20 18  1  0
 21 22  1  6
 21 20  1  0
 22 23  1  0
 23 31  1  0
 24 23  2  0
 24 25  1  0
 25 26  1  0
 26 27  1  0
 27 28  2  0
 29 28  1  0
 30 29  2  0
 31 26  2  0
 31 30  1  0
 32 34  1  0
 32 21  1  0
 33 32  2  0
M  END
$$$$
