AWW.pdb
     RDKit          3D

 34 37  0  0  1  0  0  0  0  0999 V2000
    8.5817  -21.9143   23.2676 C   0  0  0  0  0  0  0  0  0  0  0  0
    7.6375  -21.1275   22.3758 C   0  0  2  0  0  0  0  0  0  0  0  0
    7.8108  -21.5815   21.0303 N   0  0  0  0  0  0  0  0  0  0  0  0
    8.0247  -19.6857   22.4702 C   0  0  0  0  0  0  0  0  0  0  0  0
    8.9877  -19.2408   21.8007 O   0  0  0  0  0  0  0  0  0  0  0  0
    7.3278  -18.7836   23.3068 N   0  0  0  0  0  0  0  0  0  0  0  0
    7.6632  -17.4050   23.3573 C   0  0  1  0  0  0  0  0  0  0  0  0
    6.5345  -16.5346   23.8528 C   0  0  0  0  0  0  0  0  0  0  0  0
    6.8671  -15.1052   23.6917 C   0  0  0  0  0  0  0  0  0  0  0  0
    7.3812  -14.4414   22.5924 C   0  0  0  0  0  0  0  0  0  0  0  0
    7.5246  -13.1297   22.8999 N   0  0  0  0  0  0  0  0  0  0  0  0
    7.1214  -12.9125   24.1646 C   0  0  0  0  0  0  0  0  0  0  0  0
    7.0494  -11.8010   24.9763 C   0  0  0  0  0  0  0  0  0  0  0  0
    6.5829  -11.8601   26.2712 C   0  0  0  0  0  0  0  0  0  0  0  0
    6.1699  -13.0799   26.7801 C   0  0  0  0  0  0  0  0  0  0  0  0
    6.2411  -14.1937   25.9701 C   0  0  0  0  0  0  0  0  0  0  0  0
    6.7135  -14.1367   24.6567 C   0  0  0  0  0  0  0  0  0  0  0  0
    8.8992  -17.2357   24.1377 C   0  0  0  0  0  0  0  0  0  0  0  0
    8.8203  -17.3226   25.3842 O   0  0  0  0  0  0  0  0  0  0  0  0
   10.1707  -16.9813   23.5705 N   0  0  0  0  0  0  0  0  0  0  0  0
   11.2643  -16.4277   24.4007 C   0  0  1  0  0  0  0  0  0  0  0  0
   11.5298  -17.3113   25.5594 C   0  0  0  0  0  0  0  0  0  0  0  0
   10.8630  -16.9225   26.8080 C   0  0  0  0  0  0  0  0  0  0  0  0
   10.2871  -17.8003   27.7394 C   0  0  0  0  0  0  0  0  0  0  0  0
    9.7355  -17.1368   28.7492 N   0  0  0  0  0  0  0  0  0  0  0  0
    9.9252  -15.8234   28.5237 C   0  0  0  0  0  0  0  0  0  0  0  0
    9.5547  -14.7239   29.2822 C   0  0  0  0  0  0  0  0  0  0  0  0
    9.8896  -13.4691   28.8305 C   0  0  0  0  0  0  0  0  0  0  0  0
   10.5825  -13.2872   27.6446 C   0  0  0  0  0  0  0  0  0  0  0  0
   10.9383  -14.3923   26.9099 C   0  0  0  0  0  0  0  0  0  0  0  0
   10.6146  -15.6588   27.3400 C   0  0  0  0  0  0  0  0  0  0  0  0
   12.3878  -16.0464   23.5495 C   0  0  0  0  0  0  0  0  0  0  0  0
   12.3702  -16.2433   22.2763 O   0  0  0  0  0  0  0  0  0  0  0  0
   13.5589  -15.4452   23.9932 O   0  0  0  0  0  0  0  0  0  0  0  0
  2  1  1  1
  2  4  1  0
  2  3  1  0
  4  5  2  0
  6  7  1  0
  6  4  1  0
  7  8  1  1
  9 17  1  0
  9  8  1  0
 10  9  2  0
 11 10  1  0
 11 12  1  0
 12 13  1  0
 12 17  2  0
 13 14  2  0
 14 15  1  0
 16 15  2  0
 17 16  1  0
 18  7  1  0
 19 18  2  0
 20 18  1  0
 21 22  1  1
 21 20  1  0
 22 23  1  0
 23 31  1  0
 24 23  2  0
 24 25  1  0
 25 26  1  0
 26 27  1  0
 27 28  2  0
 29 28  1  0
 30 29  2  0
 31 26  2  0
 31 30  1  0
 32 34  1  0
 32 21  1  0
 33 32  2  0
M  END
$$$$
