AWW.pdb
     RDKit          3D

 34 37  0  0  1  0  0  0  0  0999 V2000
    7.7178  -12.7681   19.0627 C   0  0  0  0  0  0  0  0  0  0  0  0
    8.5754  -14.0170   19.1655 C   0  0  2  0  0  0  0  0  0  0  0  0
    7.8431  -15.1098   18.6031 N   0  0  0  0  0  0  0  0  0  0  0  0
    8.8221  -14.2761   20.6179 C   0  0  0  0  0  0  0  0  0  0  0  0
    9.5060  -13.4753   21.2995 O   0  0  0  0  0  0  0  0  0  0  0  0
    8.2998  -15.4186   21.2669 N   0  0  0  0  0  0  0  0  0  0  0  0
    8.5466  -15.6714   22.6420 C   0  0  1  0  0  0  0  0  0  0  0  0
    7.5280  -16.5896   23.2716 C   0  0  0  0  0  0  0  0  0  0  0  0
    6.8261  -15.9108   24.3790 C   0  0  0  0  0  0  0  0  0  0  0  0
    5.8272  -16.3870   25.2089 C   0  0  0  0  0  0  0  0  0  0  0  0
    5.4839  -15.4126   26.0855 N   0  0  0  0  0  0  0  0  0  0  0  0
    6.2251  -14.3136   25.8569 C   0  0  0  0  0  0  0  0  0  0  0  0
    6.2963  -13.0621   26.4298 C   0  0  0  0  0  0  0  0  0  0  0  0
    7.1718  -12.0951   25.9871 C   0  0  0  0  0  0  0  0  0  0  0  0
    8.0138  -12.3873   24.9272 C   0  0  0  0  0  0  0  0  0  0  0  0
    7.9445  -13.6386   24.3520 C   0  0  0  0  0  0  0  0  0  0  0  0
    7.0577  -14.6212   24.7989 C   0  0  0  0  0  0  0  0  0  0  0  0
    9.9273  -16.1533   22.8055 C   0  0  0  0  0  0  0  0  0  0  0  0
   10.5356  -16.5429   21.7829 O   0  0  0  0  0  0  0  0  0  0  0  0
   10.6117  -16.2044   24.0432 N   0  0  0  0  0  0  0  0  0  0  0  0
   11.9712  -16.7850   24.1243 C   0  0  1  0  0  0  0  0  0  0  0  0
   12.7716  -16.0811   25.1528 C   0  0  0  0  0  0  0  0  0  0  0  0
   12.1507  -15.9993   26.4805 C   0  0  0  0  0  0  0  0  0  0  0  0
   12.0765  -17.0410   27.4181 C   0  0  0  0  0  0  0  0  0  0  0  0
   11.4255  -16.6595   28.5112 N   0  0  0  0  0  0  0  0  0  0  0  0
   11.0552  -15.3773   28.3363 C   0  0  0  0  0  0  0  0  0  0  0  0
   10.3692  -14.5218   29.1842 C   0  0  0  0  0  0  0  0  0  0  0  0
   10.1289  -13.2338   28.7670 C   0  0  0  0  0  0  0  0  0  0  0  0
   10.5556  -12.7821   27.5286 C   0  0  0  0  0  0  0  0  0  0  0  0
   11.2331  -13.6487   26.7056 C   0  0  0  0  0  0  0  0  0  0  0  0
   11.4858  -14.9428   27.0996 C   0  0  0  0  0  0  0  0  0  0  0  0
   11.8847  -18.2411   24.1916 C   0  0  0  0  0  0  0  0  0  0  0  0
   12.9296  -18.9872   24.0853 O   0  0  0  0  0  0  0  0  0  0  0  0
   10.7132  -18.9645   24.3765 O   0  0  0  0  0  0  0  0  0  0  0  0
  2  1  1  1
  2  4  1  0
  2  3  1  0
  4  5  2  0
  6  7  1  0
  6  4  1  0
  7  8  1  6
  9 17  1  0
  9  8  1  0
 10  9  2  0
 11 10  1  0
 11 12  1  0
 12 13  1  0
 12 17  2  0
 13 14  2  0
 14 15  1  0
 16 15  2  0
 17 16  1  0
 18  7  1  0
 19 18  2  0
 20 18  1  0
 21 22  1  1
 21 20  1  0
 22 23  1  0
 23 31  1  0
 24 23  2  0
 24 25  1  0
 25 26  1  0
 26 27  1  0
 27 28  2  0
 29 28  1  0
 30 29  2  0
 31 26  2  0
 31 30  1  0
 32 34  1  0
 32 21  1  0
 33 32  2  0
M  END
$$$$
