AWW.pdb
     RDKit          3D

 34 37  0  0  1  0  0  0  0  0999 V2000
    7.2313  -13.7248   19.6326 C   0  0  0  0  0  0  0  0  0  0  0  0
    8.1662  -14.9060   19.8248 C   0  0  2  0  0  0  0  0  0  0  0  0
    7.4047  -16.1078   19.6751 N   0  0  0  0  0  0  0  0  0  0  0  0
    8.7094  -14.8291   21.2164 C   0  0  0  0  0  0  0  0  0  0  0  0
    9.3867  -13.8381   21.5808 O   0  0  0  0  0  0  0  0  0  0  0  0
    8.4819  -15.8577   22.1596 N   0  0  0  0  0  0  0  0  0  0  0  0
    8.9638  -15.7657   23.4918 C   0  0  1  0  0  0  0  0  0  0  0  0
    7.9971  -16.3104   24.5145 C   0  0  0  0  0  0  0  0  0  0  0  0
    6.8616  -15.3862   24.7048 C   0  0  0  0  0  0  0  0  0  0  0  0
    5.5288  -15.5521   24.3740 C   0  0  0  0  0  0  0  0  0  0  0  0
    4.8453  -14.4400   24.7368 N   0  0  0  0  0  0  0  0  0  0  0  0
    5.6867  -13.5509   25.2944 C   0  0  0  0  0  0  0  0  0  0  0  0
    5.5408  -12.2883   25.8275 C   0  0  0  0  0  0  0  0  0  0  0  0
    6.6008  -11.5783   26.3473 C   0  0  0  0  0  0  0  0  0  0  0  0
    7.8616  -12.1510   26.3357 C   0  0  0  0  0  0  0  0  0  0  0  0
    8.0103  -13.4140   25.8028 C   0  0  0  0  0  0  0  0  0  0  0  0
    6.9373  -14.1364   25.2751 C   0  0  0  0  0  0  0  0  0  0  0  0
   10.2920  -16.3943   23.5707 C   0  0  0  0  0  0  0  0  0  0  0  0
   10.8367  -16.7467   22.4999 O   0  0  0  0  0  0  0  0  0  0  0  0
   10.9931  -16.6258   24.7782 N   0  0  0  0  0  0  0  0  0  0  0  0
   12.3477  -17.2227   24.7555 C   0  0  1  0  0  0  0  0  0  0  0  0
   13.1754  -16.6640   25.8494 C   0  0  0  0  0  0  0  0  0  0  0  0
   12.5657  -16.7157   27.1838 C   0  0  0  0  0  0  0  0  0  0  0  0
   12.5316  -17.8361   28.0284 C   0  0  0  0  0  0  0  0  0  0  0  0
   11.8806  -17.5701   29.1551 N   0  0  0  0  0  0  0  0  0  0  0  0
   11.4709  -16.2893   29.0945 C   0  0  0  0  0  0  0  0  0  0  0  0
   10.7684  -15.5312   30.0182 C   0  0  0  0  0  0  0  0  0  0  0  0
   10.4861  -14.2200   29.7157 C   0  0  0  0  0  0  0  0  0  0  0  0
   10.8868  -13.6505   28.5179 C   0  0  0  0  0  0  0  0  0  0  0  0
   11.5814  -14.4221   27.6181 C   0  0  0  0  0  0  0  0  0  0  0  0
   11.8761  -15.7371   27.8968 C   0  0  0  0  0  0  0  0  0  0  0  0
   12.2472  -18.6745   24.6361 C   0  0  0  0  0  0  0  0  0  0  0  0
   11.1415  -19.2973   24.8584 O   0  0  0  0  0  0  0  0  0  0  0  0
   13.2886  -19.5210   24.2775 O   0  0  0  0  0  0  0  0  0  0  0  0
  2  1  1  1
  2  4  1  0
  2  3  1  0
  4  5  2  0
  6  7  1  0
  6  4  1  0
  7  8  1  1
  9 17  1  0
  9  8  1  0
 10  9  2  0
 11 10  1  0
 11 12  1  0
 12 13  1  0
 12 17  2  0
 13 14  2  0
 14 15  1  0
 16 15  2  0
 17 16  1  0
 18  7  1  0
 19 18  2  0
 20 18  1  0
 21 22  1  1
 21 20  1  0
 22 23  1  0
 23 31  1  0
 24 23  2  0
 24 25  1  0
 25 26  1  0
 26 27  1  0
 27 28  2  0
 29 28  1  0
 30 29  2  0
 31 26  2  0
 31 30  1  0
 32 34  1  0
 32 21  1  0
 33 32  2  0
M  END
$$$$
