AWW.pdb
     RDKit          3D

 34 37  0  0  1  0  0  0  0  0999 V2000
   11.7536  -18.3756   18.6748 C   0  0  0  0  0  0  0  0  0  0  0  0
   10.2618  -18.0924   18.6684 C   0  0  2  0  0  0  0  0  0  0  0  0
    9.9700  -17.2577   17.5438 N   0  0  0  0  0  0  0  0  0  0  0  0
    9.9365  -17.3601   19.9315 C   0  0  0  0  0  0  0  0  0  0  0  0
   10.3169  -16.1762   20.0961 O   0  0  0  0  0  0  0  0  0  0  0  0
    9.1975  -17.9682   20.9724 N   0  0  0  0  0  0  0  0  0  0  0  0
    8.9165  -17.2835   22.1839 C   0  0  1  0  0  0  0  0  0  0  0  0
    7.8603  -17.9621   23.0212 C   0  0  0  0  0  0  0  0  0  0  0  0
    7.1681  -16.9836   23.8832 C   0  0  0  0  0  0  0  0  0  0  0  0
    6.2674  -17.2002   24.9103 C   0  0  0  0  0  0  0  0  0  0  0  0
    5.8914  -16.0039   25.4234 N   0  0  0  0  0  0  0  0  0  0  0  0
    6.5164  -15.0106   24.7659 C   0  0  0  0  0  0  0  0  0  0  0  0
    6.5095  -13.6359   24.8635 C   0  0  0  0  0  0  0  0  0  0  0  0
    7.2671  -12.8325   24.0398 C   0  0  0  0  0  0  0  0  0  0  0  0
    8.0667  -13.4244   23.0765 C   0  0  0  0  0  0  0  0  0  0  0  0
    8.0753  -14.7997   22.9767 C   0  0  0  0  0  0  0  0  0  0  0  0
    7.3082  -15.6168   23.8106 C   0  0  0  0  0  0  0  0  0  0  0  0
   10.1726  -17.0636   22.9183 C   0  0  0  0  0  0  0  0  0  0  0  0
   11.1533  -17.7861   22.6289 O   0  0  0  0  0  0  0  0  0  0  0  0
   10.3436  -16.0886   23.9298 N   0  0  0  0  0  0  0  0  0  0  0  0
   11.5825  -16.0583   24.7397 C   0  0  1  0  0  0  0  0  0  0  0  0
   11.5605  -14.9079   25.6724 C   0  0  0  0  0  0  0  0  0  0  0  0
   10.3723  -14.8210   26.5301 C   0  0  0  0  0  0  0  0  0  0  0  0
    9.8493  -15.8591   27.3165 C   0  0  0  0  0  0  0  0  0  0  0  0
    8.7495  -15.4733   27.9536 N   0  0  0  0  0  0  0  0  0  0  0  0
    8.5137  -14.1917   27.6165 C   0  0  0  0  0  0  0  0  0  0  0  0
    7.5035  -13.3329   28.0208 C   0  0  0  0  0  0  0  0  0  0  0  0
    7.4991  -12.0464   27.5352 C   0  0  0  0  0  0  0  0  0  0  0  0
    8.4752  -11.5995   26.6594 C   0  0  0  0  0  0  0  0  0  0  0  0
    9.4658  -12.4694   26.2727 C   0  0  0  0  0  0  0  0  0  0  0  0
    9.4923  -13.7620   26.7440 C   0  0  0  0  0  0  0  0  0  0  0  0
   11.8503  -17.3862   25.2849 C   0  0  0  0  0  0  0  0  0  0  0  0
   12.9858  -17.6839   25.8160 O   0  0  0  0  0  0  0  0  0  0  0  0
   10.9468  -18.4413   25.2998 O   0  0  0  0  0  0  0  0  0  0  0  0
  2  1  1  1
  2  4  1  0
  2  3  1  0
  4  5  2  0
  6  7  1  0
  6  4  1  0
  7  8  1  1
  9 17  1  0
  9  8  1  0
 10  9  2  0
 11 10  1  0
 11 12  1  0
 12 13  1  0
 12 17  2  0
 13 14  2  0
 14 15  1  0
 16 15  2  0
 17 16  1  0
 18  7  1  0
 19 18  2  0
 20 18  1  0
 21 22  1  1
 21 20  1  0
 22 23  1  0
 23 31  1  0
 24 23  2  0
 24 25  1  0
 25 26  1  0
 26 27  1  0
 27 28  2  0
 29 28  1  0
 30 29  2  0
 31 26  2  0
 31 30  1  0
 32 34  1  0
 32 21  1  0
 33 32  2  0
M  END
$$$$
