AWW.pdb
     RDKit          3D

 34 37  0  0  1  0  0  0  0  0999 V2000
   10.7491  -17.7577   18.2965 C   0  0  0  0  0  0  0  0  0  0  0  0
   10.8122  -18.4930   19.6236 C   0  0  2  0  0  0  0  0  0  0  0  0
    9.8684  -19.5675   19.5846 N   0  0  0  0  0  0  0  0  0  0  0  0
   10.4222  -17.5245   20.6947 C   0  0  0  0  0  0  0  0  0  0  0  0
   11.0886  -16.4778   20.8788 O   0  0  0  0  0  0  0  0  0  0  0  0
    9.3023  -17.7508   21.5277 N   0  0  0  0  0  0  0  0  0  0  0  0
    8.9823  -16.8753   22.5985 C   0  0  1  0  0  0  0  0  0  0  0  0
    7.5826  -16.3176   22.5148 C   0  0  0  0  0  0  0  0  0  0  0  0
    7.3674  -15.6370   21.2224 C   0  0  0  0  0  0  0  0  0  0  0  0
    6.8843  -16.1468   20.0308 C   0  0  0  0  0  0  0  0  0  0  0  0
    6.8558  -15.1544   19.1088 N   0  0  0  0  0  0  0  0  0  0  0  0
    7.3046  -14.0111   19.6575 C   0  0  0  0  0  0  0  0  0  0  0  0
    7.4866  -12.7258   19.1945 C   0  0  0  0  0  0  0  0  0  0  0  0
    7.9771  -11.7153   19.9920 C   0  0  0  0  0  0  0  0  0  0  0  0
    8.3005  -11.9972   21.3086 C   0  0  0  0  0  0  0  0  0  0  0  0
    8.1195  -13.2824   21.7743 C   0  0  0  0  0  0  0  0  0  0  0  0
    7.6223  -14.3091   20.9680 C   0  0  0  0  0  0  0  0  0  0  0  0
    9.2502  -17.5547   23.8760 C   0  0  0  0  0  0  0  0  0  0  0  0
    8.3792  -18.3397   24.3147 O   0  0  0  0  0  0  0  0  0  0  0  0
   10.4283  -17.3783   24.6402 N   0  0  0  0  0  0  0  0  0  0  0  0
   10.3866  -16.6377   25.9214 C   0  0  1  0  0  0  0  0  0  0  0  0
    9.9830  -15.2314   25.6908 C   0  0  0  0  0  0  0  0  0  0  0  0
    8.5722  -14.9326   25.9657 C   0  0  0  0  0  0  0  0  0  0  0  0
    7.5135  -15.8528   25.9183 C   0  0  0  0  0  0  0  0  0  0  0  0
    6.3530  -15.2656   26.1878 N   0  0  0  0  0  0  0  0  0  0  0  0
    6.6010  -13.9629   26.4183 C   0  0  0  0  0  0  0  0  0  0  0  0
    5.7346  -12.9340   26.7533 C   0  0  0  0  0  0  0  0  0  0  0  0
    6.2525  -11.6763   26.9553 C   0  0  0  0  0  0  0  0  0  0  0  0
    7.6090  -11.4231   26.8311 C   0  0  0  0  0  0  0  0  0  0  0  0
    8.4477  -12.4589   26.4978 C   0  0  0  0  0  0  0  0  0  0  0  0
    7.9543  -13.7266   26.2899 C   0  0  0  0  0  0  0  0  0  0  0  0
    9.6539  -17.4134   26.9182 C   0  0  0  0  0  0  0  0  0  0  0  0
    8.8741  -18.3826   26.5827 O   0  0  0  0  0  0  0  0  0  0  0  0
    9.7131  -17.2098   28.2910 O   0  0  0  0  0  0  0  0  0  0  0  0
  2  1  1  6
  2  4  1  0
  2  3  1  0
  4  5  2  0
  6  7  1  0
  6  4  1  0
  7  8  1  1
  9 17  1  0
  9  8  1  0
 10  9  2  0
 11 10  1  0
 11 12  1  0
 12 13  1  0
 12 17  2  0
 13 14  2  0
 14 15  1  0
 16 15  2  0
 17 16  1  0
 18  7  1  0
 19 18  2  0
 20 18  1  0
 21 22  1  6
 21 20  1  0
 22 23  1  0
 23 31  1  0
 24 23  2  0
 24 25  1  0
 25 26  1  0
 26 27  1  0
 27 28  2  0
 29 28  1  0
 30 29  2  0
 31 26  2  0
 31 30  1  0
 32 34  1  0
 32 21  1  0
 33 32  2  0
M  END
$$$$
