AWW.pdb
     RDKit          3D

 34 37  0  0  1  0  0  0  0  0999 V2000
   10.3106  -19.7246   18.2737 C   0  0  0  0  0  0  0  0  0  0  0  0
    9.9958  -18.2708   17.9684 C   0  0  2  0  0  0  0  0  0  0  0  0
   10.9867  -17.7798   17.0608 N   0  0  0  0  0  0  0  0  0  0  0  0
   10.0773  -17.5121   19.2550 C   0  0  0  0  0  0  0  0  0  0  0  0
   11.1827  -17.0992   19.6808 O   0  0  0  0  0  0  0  0  0  0  0  0
    8.9259  -17.2362   20.0279 N   0  0  0  0  0  0  0  0  0  0  0  0
    8.9804  -16.3953   21.1704 C   0  0  1  0  0  0  0  0  0  0  0  0
    7.6632  -15.7291   21.4839 C   0  0  0  0  0  0  0  0  0  0  0  0
    7.8244  -14.7335   22.5620 C   0  0  0  0  0  0  0  0  0  0  0  0
    8.4160  -13.4837   22.5224 C   0  0  0  0  0  0  0  0  0  0  0  0
    8.3323  -12.9199   23.7516 N   0  0  0  0  0  0  0  0  0  0  0  0
    7.7053  -13.7594   24.5951 C   0  0  0  0  0  0  0  0  0  0  0  0
    7.3563  -13.7052   25.9273 C   0  0  0  0  0  0  0  0  0  0  0  0
    6.6993  -14.7363   26.5620 C   0  0  0  0  0  0  0  0  0  0  0  0
    6.3756  -15.8716   25.8381 C   0  0  0  0  0  0  0  0  0  0  0  0
    6.7238  -15.9284   24.5050 C   0  0  0  0  0  0  0  0  0  0  0  0
    7.3899  -14.8843   23.8588 C   0  0  0  0  0  0  0  0  0  0  0  0
    9.5189  -17.1580   22.3078 C   0  0  0  0  0  0  0  0  0  0  0  0
    9.3815  -18.4024   22.2948 O   0  0  0  0  0  0  0  0  0  0  0  0
   10.1820  -16.5762   23.4145 N   0  0  0  0  0  0  0  0  0  0  0  0
   10.9183  -17.4255   24.3781 C   0  0  1  0  0  0  0  0  0  0  0  0
   11.6254  -16.5841   25.3710 C   0  0  0  0  0  0  0  0  0  0  0  0
   10.8888  -16.3334   26.6159 C   0  0  0  0  0  0  0  0  0  0  0  0
   10.5555  -17.2962   27.5811 C   0  0  0  0  0  0  0  0  0  0  0  0
    9.8606  -16.7587   28.5773 N   0  0  0  0  0  0  0  0  0  0  0  0
    9.7145  -15.4477   28.3092 C   0  0  0  0  0  0  0  0  0  0  0  0
    9.0845  -14.4514   29.0385 C   0  0  0  0  0  0  0  0  0  0  0  0
    9.0925  -13.1683   28.5443 C   0  0  0  0  0  0  0  0  0  0  0  0
    9.7119  -12.8581   27.3444 C   0  0  0  0  0  0  0  0  0  0  0  0
   10.3292  -13.8628   26.6393 C   0  0  0  0  0  0  0  0  0  0  0  0
   10.3348  -15.1551   27.1121 C   0  0  0  0  0  0  0  0  0  0  0  0
   10.0461  -18.4890   24.8681 C   0  0  0  0  0  0  0  0  0  0  0  0
    8.7657  -18.4289   24.7376 O   0  0  0  0  0  0  0  0  0  0  0  0
   10.4767  -19.6474   25.5024 O   0  0  0  0  0  0  0  0  0  0  0  0
  2  1  1  1
  2  4  1  0
  2  3  1  0
  4  5  2  0
  6  7  1  0
  6  4  1  0
  7  8  1  1
  9 17  1  0
  9  8  1  0
 10  9  2  0
 11 10  1  0
 11 12  1  0
 12 13  1  0
 12 17  2  0
 13 14  2  0
 14 15  1  0
 16 15  2  0
 17 16  1  0
 18  7  1  0
 19 18  2  0
 20 18  1  0
 21 22  1  1
 21 20  1  0
 22 23  1  0
 23 31  1  0
 24 23  2  0
 24 25  1  0
 25 26  1  0
 26 27  1  0
 27 28  2  0
 29 28  1  0
 30 29  2  0
 31 26  2  0
 31 30  1  0
 32 34  1  0
 32 21  1  0
 33 32  2  0
M  END
$$$$
