CQF.pdb
     RDKit          3D

 27 27  0  0  1  0  0  0  0  0999 V2000
   26.3900  -14.6827  -21.1035 N   0  0  0  0  0  0  0  0  0  0  0  0
   25.2934  -14.2932  -20.2486 C   0  0  1  0  0  0  0  0  0  0  0  0
   24.9893  -12.8371  -20.5732 C   0  0  0  0  0  0  0  0  0  0  0  0
   23.6266  -12.2484  -19.5620 S   0  0  0  0  0  0  0  0  0  0  0  0
   24.0757  -15.1174  -20.5180 C   0  0  0  0  0  0  0  0  0  0  0  0
   23.8571  -15.5749  -21.6695 O   0  0  0  0  0  0  0  0  0  0  0  0
   24.6576  -18.7859  -21.2148 N   0  0  0  0  0  0  0  0  0  0  0  0
   24.1942  -19.1368  -19.9239 C   0  0  0  0  0  0  0  0  0  0  0  0
   24.8223  -19.9870  -19.2672 O   0  0  0  0  0  0  0  0  0  0  0  0
   22.9729  -18.4856  -19.3851 C   0  0  0  0  0  0  0  0  0  0  0  0
   22.2936  -17.5547  -20.3465 C   0  0  0  0  0  0  0  0  0  0  0  0
   21.9498  -16.2120  -19.8037 C   0  0  2  0  0  0  0  0  0  0  0  0
   23.1292  -15.4160  -19.5074 N   0  0  0  0  0  0  0  0  0  0  0  0
   21.0504  -16.2642  -18.5994 C   0  0  0  0  0  0  0  0  0  0  0  0
   21.4645  -15.9805  -17.4507 O   0  0  0  0  0  0  0  0  0  0  0  0
   19.6837  -16.6426  -18.7317 N   0  0  0  0  0  0  0  0  0  0  0  0
   18.8409  -16.6008  -17.5314 C   0  0  1  0  0  0  0  0  0  0  0  0
   18.8307  -15.1598  -17.0737 C   0  0  0  0  0  0  0  0  0  0  0  0
   18.0715  -14.2847  -17.9895 C   0  0  0  0  0  0  0  0  0  0  0  0
   18.7063  -13.4708  -18.8917 C   0  0  0  0  0  0  0  0  0  0  0  0
   17.9598  -12.6724  -19.7253 C   0  0  0  0  0  0  0  0  0  0  0  0
   16.5849  -12.6594  -19.6878 C   0  0  0  0  0  0  0  0  0  0  0  0
   15.9499  -13.4806  -18.7776 C   0  0  0  0  0  0  0  0  0  0  0  0
   16.6936  -14.2790  -17.9440 C   0  0  0  0  0  0  0  0  0  0  0  0
   17.5055  -17.1431  -17.7935 C   0  0  0  0  0  0  0  0  0  0  0  0
   17.1080  -17.4772  -18.9506 O   0  0  0  0  0  0  0  0  0  0  0  0
   16.5809  -17.3280  -16.7785 O   0  0  0  0  0  0  0  0  0  0  0  0
  2  1  1  6
  3  2  1  0
  4  3  1  0
  5  2  1  0
  5  6  2  0
  8  7  1  0
  8 10  1  0
  9  8  2  0
 12 11  1  1
 11 10  1  0
 12 13  1  0
 13  5  1  0
 14 12  1  0
 15 14  2  0
 16 14  1  0
 17 16  1  0
 17 25  1  0
 17 18  1  6
 19 24  2  0
 19 18  1  0
 20 19  1  0
 21 22  1  0
 21 20  2  0
 22 23  2  0
 23 24  1  0
 25 27  1  0
 26 25  2  0
M  END
$$$$
