CQF.pdb
     RDKit          3D

 27 27  0  0  1  0  0  0  0  0999 V2000
   23.2622  -14.3705  -19.3077 N   0  0  0  0  0  0  0  0  0  0  0  0
   22.8382  -14.7224  -17.9730 C   0  0  1  0  0  0  0  0  0  0  0  0
   21.7692  -13.7123  -17.5793 C   0  0  0  0  0  0  0  0  0  0  0  0
   21.1830  -14.0474  -15.9149 S   0  0  0  0  0  0  0  0  0  0  0  0
   22.2490  -16.0958  -17.9349 C   0  0  0  0  0  0  0  0  0  0  0  0
   21.5403  -16.5124  -18.8874 O   0  0  0  0  0  0  0  0  0  0  0  0
   24.9876  -19.2052  -19.2677 N   0  0  0  0  0  0  0  0  0  0  0  0
   24.7128  -20.2414  -18.3430 C   0  0  0  0  0  0  0  0  0  0  0  0
   25.5604  -21.1357  -18.1686 O   0  0  0  0  0  0  0  0  0  0  0  0
   23.4235  -20.2384  -17.6057 C   0  0  0  0  0  0  0  0  0  0  0  0
   22.4900  -19.1306  -17.9977 C   0  0  0  0  0  0  0  0  0  0  0  0
   21.9354  -18.3313  -16.8711 C   0  0  2  0  0  0  0  0  0  0  0  0
   22.4578  -16.9753  -16.8444 N   0  0  0  0  0  0  0  0  0  0  0  0
   22.1222  -18.9795  -15.5268 C   0  0  0  0  0  0  0  0  0  0  0  0
   23.1194  -18.7362  -14.8071 O   0  0  0  0  0  0  0  0  0  0  0  0
   21.1581  -19.9008  -15.0264 N   0  0  0  0  0  0  0  0  0  0  0  0
   21.3969  -20.4942  -13.7059 C   0  0  1  0  0  0  0  0  0  0  0  0
   21.3073  -19.3589  -12.7114 C   0  0  0  0  0  0  0  0  0  0  0  0
   21.1932  -19.8389  -11.3195 C   0  0  0  0  0  0  0  0  0  0  0  0
   22.3008  -20.0219  -10.5328 C   0  0  0  0  0  0  0  0  0  0  0  0
   22.1481  -20.4704   -9.2424 C   0  0  0  0  0  0  0  0  0  0  0  0
   20.9121  -20.7453   -8.7051 C   0  0  0  0  0  0  0  0  0  0  0  0
   19.7995  -20.5596   -9.5009 C   0  0  0  0  0  0  0  0  0  0  0  0
   19.9497  -20.1116  -10.7903 C   0  0  0  0  0  0  0  0  0  0  0  0
   20.4633  -21.5894  -13.4325 C   0  0  0  0  0  0  0  0  0  0  0  0
   20.7383  -22.5583  -12.6617 O   0  0  0  0  0  0  0  0  0  0  0  0
   19.2033  -21.6347  -14.0067 O   0  0  0  0  0  0  0  0  0  0  0  0
  2  1  1  6
  3  2  1  0
  4  3  1  0
  5  2  1  0
  5  6  2  0
  8  7  1  0
  8 10  1  0
  9  8  2  0
 12 11  1  6
 11 10  1  0
 12 13  1  0
 13  5  1  0
 14 12  1  0
 15 14  2  0
 16 14  1  0
 17 16  1  0
 17 25  1  0
 17 18  1  1
 19 24  2  0
 19 18  1  0
 20 19  1  0
 21 22  1  0
 21 20  2  0
 22 23  2  0
 23 24  1  0
 25 27  1  0
 26 25  2  0
M  END
$$$$
