CQF.pdb
     RDKit          3D

 27 27  0  0  1  0  0  0  0  0999 V2000
   28.5069  -21.5096  -16.8284 N   0  0  0  0  0  0  0  0  0  0  0  0
   27.6648  -20.3746  -16.5321 C   0  0  1  0  0  0  0  0  0  0  0  0
   26.8480  -20.1036  -17.7881 C   0  0  0  0  0  0  0  0  0  0  0  0
   25.9459  -18.5596  -17.6194 S   0  0  0  0  0  0  0  0  0  0  0  0
   26.7344  -20.6698  -15.3998 C   0  0  0  0  0  0  0  0  0  0  0  0
   26.2091  -21.8074  -15.2859 O   0  0  0  0  0  0  0  0  0  0  0  0
   24.4522  -21.3933  -10.8296 N   0  0  0  0  0  0  0  0  0  0  0  0
   25.8014  -21.2113  -10.4412 C   0  0  0  0  0  0  0  0  0  0  0  0
   26.2915  -21.9711   -9.5861 O   0  0  0  0  0  0  0  0  0  0  0  0
   26.5980  -20.1211  -11.0598 C   0  0  0  0  0  0  0  0  0  0  0  0
   25.8487  -19.3067  -12.0734 C   0  0  0  0  0  0  0  0  0  0  0  0
   25.4971  -20.0173  -13.3332 C   0  0  2  0  0  0  0  0  0  0  0  0
   26.4076  -19.6998  -14.4206 N   0  0  0  0  0  0  0  0  0  0  0  0
   24.0761  -19.7927  -13.7720 C   0  0  0  0  0  0  0  0  0  0  0  0
   23.6386  -18.6490  -14.0400 O   0  0  0  0  0  0  0  0  0  0  0  0
   23.1748  -20.8884  -13.8972 N   0  0  0  0  0  0  0  0  0  0  0  0
   21.7481  -20.5880  -14.0620 C   0  0  1  0  0  0  0  0  0  0  0  0
   21.3346  -21.2141  -15.3746 C   0  0  0  0  0  0  0  0  0  0  0  0
   21.7700  -20.4172  -16.5391 C   0  0  0  0  0  0  0  0  0  0  0  0
   22.7616  -20.8575  -17.3770 C   0  0  0  0  0  0  0  0  0  0  0  0
   23.1353  -20.0830  -18.4495 C   0  0  0  0  0  0  0  0  0  0  0  0
   22.5451  -18.8695  -18.7163 C   0  0  0  0  0  0  0  0  0  0  0  0
   21.5470  -18.4300  -17.8698 C   0  0  0  0  0  0  0  0  0  0  0  0
   21.1721  -19.2021  -16.7979 C   0  0  0  0  0  0  0  0  0  0  0  0
   20.9648  -21.0555  -12.9158 C   0  0  0  0  0  0  0  0  0  0  0  0
   21.4493  -21.7799  -11.9944 O   0  0  0  0  0  0  0  0  0  0  0  0
   19.6268  -20.7295  -12.7648 O   0  0  0  0  0  0  0  0  0  0  0  0
  2  1  1  6
  3  2  1  0
  4  3  1  0
  5  2  1  0
  5  6  2  0
  8  7  1  0
  8 10  1  0
  9  8  2  0
 12 11  1  1
 11 10  1  0
 12 13  1  0
 13  5  1  0
 14 12  1  0
 15 14  2  0
 16 14  1  0
 17 16  1  0
 17 25  1  0
 17 18  1  6
 19 24  2  0
 19 18  1  0
 20 19  1  0
 21 22  1  0
 21 20  2  0
 22 23  2  0
 23 24  1  0
 25 27  1  0
 26 25  2  0
M  END
$$$$
