CQF.pdb
     RDKit          3D

 27 27  0  0  1  0  0  0  0  0999 V2000
   25.9921  -18.2462  -15.8338 N   0  0  0  0  0  0  0  0  0  0  0  0
   26.6939  -18.1323  -14.5770 C   0  0  1  0  0  0  0  0  0  0  0  0
   26.6977  -16.6530  -14.2173 C   0  0  0  0  0  0  0  0  0  0  0  0
   28.1486  -15.8510  -14.9086 S   0  0  0  0  0  0  0  0  0  0  0  0
   25.9983  -18.8952  -13.4958 C   0  0  0  0  0  0  0  0  0  0  0  0
   24.8188  -18.6051  -13.1681 O   0  0  0  0  0  0  0  0  0  0  0  0
   24.5906  -24.6802  -13.1974 N   0  0  0  0  0  0  0  0  0  0  0  0
   24.1930  -23.5806  -13.9958 C   0  0  0  0  0  0  0  0  0  0  0  0
   23.4134  -23.7749  -14.9461 O   0  0  0  0  0  0  0  0  0  0  0  0
   24.7144  -22.2256  -13.6830 C   0  0  0  0  0  0  0  0  0  0  0  0
   25.6358  -22.1758  -12.4996 C   0  0  0  0  0  0  0  0  0  0  0  0
   25.8599  -20.8240  -11.9183 C   0  0  2  0  0  0  0  0  0  0  0  0
   26.6242  -19.9606  -12.8031 N   0  0  0  0  0  0  0  0  0  0  0  0
   26.4966  -20.8548  -10.5560 C   0  0  0  0  0  0  0  0  0  0  0  0
   27.7411  -20.8752  -10.4069 O   0  0  0  0  0  0  0  0  0  0  0  0
   25.6925  -20.8619   -9.3805 N   0  0  0  0  0  0  0  0  0  0  0  0
   26.3687  -21.0152   -8.0875 C   0  0  1  0  0  0  0  0  0  0  0  0
   27.3899  -19.9027   -8.0116 C   0  0  0  0  0  0  0  0  0  0  0  0
   28.0414  -19.8274   -6.6884 C   0  0  0  0  0  0  0  0  0  0  0  0
   28.4604  -20.9555   -6.0320 C   0  0  0  0  0  0  0  0  0  0  0  0
   29.0625  -20.8388   -4.8017 C   0  0  0  0  0  0  0  0  0  0  0  0
   29.2624  -19.6191   -4.1981 C   0  0  0  0  0  0  0  0  0  0  0  0
   28.8388  -18.4857   -4.8628 C   0  0  0  0  0  0  0  0  0  0  0  0
   28.2372  -18.5999   -6.0918 C   0  0  0  0  0  0  0  0  0  0  0  0
   25.4128  -21.0115   -6.9775 C   0  0  0  0  0  0  0  0  0  0  0  0
   25.7133  -21.3833   -5.8028 O   0  0  0  0  0  0  0  0  0  0  0  0
   24.1022  -20.5946   -7.1447 O   0  0  0  0  0  0  0  0  0  0  0  0
  2  1  1  6
  3  2  1  0
  4  3  1  0
  5  2  1  0
  5  6  2  0
  8  7  1  0
  8 10  1  0
  9  8  2  0
 12 11  1  6
 11 10  1  0
 12 13  1  0
 13  5  1  0
 14 12  1  0
 15 14  2  0
 16 14  1  0
 17 16  1  0
 17 25  1  0
 17 18  1  1
 19 24  2  0
 19 18  1  0
 20 19  1  0
 21 22  1  0
 21 20  2  0
 22 23  2  0
 23 24  1  0
 25 27  1  0
 26 25  2  0
M  END
$$$$
