CQF.pdb
     RDKit          3D

 27 27  0  0  1  0  0  0  0  0999 V2000
   28.6290  -17.2363  -18.9648 N   0  0  0  0  0  0  0  0  0  0  0  0
   28.4484  -18.4346  -18.1796 C   0  0  1  0  0  0  0  0  0  0  0  0
   29.8408  -18.9887  -17.9111 C   0  0  0  0  0  0  0  0  0  0  0  0
   30.3421  -20.0791  -19.2475 S   0  0  0  0  0  0  0  0  0  0  0  0
   27.7835  -18.1337  -16.8750 C   0  0  0  0  0  0  0  0  0  0  0  0
   27.7561  -16.9574  -16.4294 O   0  0  0  0  0  0  0  0  0  0  0  0
   22.4101  -19.1937  -16.7409 N   0  0  0  0  0  0  0  0  0  0  0  0
   22.4396  -18.3773  -15.5846 C   0  0  0  0  0  0  0  0  0  0  0  0
   21.3780  -18.1566  -14.9740 O   0  0  0  0  0  0  0  0  0  0  0  0
   23.7317  -17.8039  -15.1291 C   0  0  0  0  0  0  0  0  0  0  0  0
   24.9126  -18.1986  -15.9668 C   0  0  0  0  0  0  0  0  0  0  0  0
   26.0418  -18.8262  -15.2273 C   0  0  2  0  0  0  0  0  0  0  0  0
   27.1648  -19.1410  -16.0945 N   0  0  0  0  0  0  0  0  0  0  0  0
   25.6413  -20.0459  -14.4436 C   0  0  0  0  0  0  0  0  0  0  0  0
   25.2208  -21.0850  -15.0047 O   0  0  0  0  0  0  0  0  0  0  0  0
   25.7298  -20.0549  -13.0221 N   0  0  0  0  0  0  0  0  0  0  0  0
   25.2176  -21.2312  -12.3102 C   0  0  1  0  0  0  0  0  0  0  0  0
   26.3557  -21.7316  -11.4497 C   0  0  0  0  0  0  0  0  0  0  0  0
   26.4845  -20.9710  -10.1905 C   0  0  0  0  0  0  0  0  0  0  0  0
   26.2094  -21.5452   -8.9764 C   0  0  0  0  0  0  0  0  0  0  0  0
   26.3428  -20.7998   -7.8292 C   0  0  0  0  0  0  0  0  0  0  0  0
   26.7463  -19.4851   -7.8539 C   0  0  0  0  0  0  0  0  0  0  0  0
   27.0222  -18.9109   -9.0787 C   0  0  0  0  0  0  0  0  0  0  0  0
   26.8897  -19.6536  -10.2260 C   0  0  0  0  0  0  0  0  0  0  0  0
   24.0042  -20.9147  -11.5530 C   0  0  0  0  0  0  0  0  0  0  0  0
   23.6279  -19.7279  -11.3114 O   0  0  0  0  0  0  0  0  0  0  0  0
   23.1801  -21.9069  -11.0474 O   0  0  0  0  0  0  0  0  0  0  0  0
  2  1  1  6
  3  2  1  0
  4  3  1  0
  5  2  1  0
  5  6  2  0
  8  7  1  0
  8 10  1  0
  9  8  2  0
 12 11  1  6
 11 10  1  0
 12 13  1  0
 13  5  1  0
 14 12  1  0
 15 14  2  0
 16 14  1  0
 17 16  1  0
 17 25  1  0
 17 18  1  1
 19 24  2  0
 19 18  1  0
 20 19  1  0
 21 22  1  0
 21 20  2  0
 22 23  2  0
 23 24  1  0
 25 27  1  0
 26 25  2  0
M  END
$$$$
