CQF.pdb
     RDKit          3D

 27 27  0  0  1  0  0  0  0  0999 V2000
   19.8568  -10.8708  -15.7488 N   0  0  0  0  0  0  0  0  0  0  0  0
   18.7365  -10.0946  -15.2716 C   0  0  1  0  0  0  0  0  0  0  0  0
   17.5768  -11.0671  -15.1064 C   0  0  0  0  0  0  0  0  0  0  0  0
   17.0850  -11.7222  -16.7049 S   0  0  0  0  0  0  0  0  0  0  0  0
   19.0365   -9.4644  -13.9496 C   0  0  0  0  0  0  0  0  0  0  0  0
   20.1775   -9.5798  -13.4322 O   0  0  0  0  0  0  0  0  0  0  0  0
   21.7925   -5.4297  -12.7388 N   0  0  0  0  0  0  0  0  0  0  0  0
   20.5982   -5.1428  -13.4430 C   0  0  0  0  0  0  0  0  0  0  0  0
   20.5716   -4.1667  -14.2145 O   0  0  0  0  0  0  0  0  0  0  0  0
   19.4083   -6.0093  -13.2447 C   0  0  0  0  0  0  0  0  0  0  0  0
   19.6001   -7.1005  -12.2325 C   0  0  0  0  0  0  0  0  0  0  0  0
   18.4290   -7.9956  -12.0257 C   0  0  2  0  0  0  0  0  0  0  0  0
   18.0672   -8.7218  -13.2316 N   0  0  0  0  0  0  0  0  0  0  0  0
   17.2230   -7.2874  -11.4723 C   0  0  0  0  0  0  0  0  0  0  0  0
   16.3860   -6.7246  -12.2167 O   0  0  0  0  0  0  0  0  0  0  0  0
   16.9946   -7.2355  -10.0674 N   0  0  0  0  0  0  0  0  0  0  0  0
   15.6485   -6.8809   -9.6037 C   0  0  1  0  0  0  0  0  0  0  0  0
   15.4734   -7.5564   -8.2624 C   0  0  0  0  0  0  0  0  0  0  0  0
   14.1473   -7.2918   -7.6689 C   0  0  0  0  0  0  0  0  0  0  0  0
   13.9222   -6.1923   -6.8817 C   0  0  0  0  0  0  0  0  0  0  0  0
   12.6718   -5.9850   -6.3497 C   0  0  0  0  0  0  0  0  0  0  0  0
   11.6265   -6.8489   -6.5801 C   0  0  0  0  0  0  0  0  0  0  0  0
   11.8577   -7.9548   -7.3734 C   0  0  0  0  0  0  0  0  0  0  0  0
   13.1060   -8.1638   -7.9060 C   0  0  0  0  0  0  0  0  0  0  0  0
   15.4610   -5.4287   -9.5588 C   0  0  0  0  0  0  0  0  0  0  0  0
   14.3190   -4.8781   -9.5247 O   0  0  0  0  0  0  0  0  0  0  0  0
   16.5355   -4.5543   -9.5497 O   0  0  0  0  0  0  0  0  0  0  0  0
  2  1  1  1
  3  2  1  0
  4  3  1  0
  5  2  1  0
  5  6  2  0
  8  7  1  0
  8 10  1  0
  9  8  2  0
 12 11  1  6
 11 10  1  0
 12 13  1  0
 13  5  1  0
 14 12  1  0
 15 14  2  0
 16 14  1  0
 17 16  1  0
 17 25  1  0
 17 18  1  1
 19 24  2  0
 19 18  1  0
 20 19  1  0
 21 22  1  0
 21 20  2  0
 22 23  2  0
 23 24  1  0
 25 27  1  0
 26 25  2  0
M  END
$$$$
