CQF.pdb
     RDKit          3D

 27 27  0  0  1  0  0  0  0  0999 V2000
   26.1997  -17.0261  -15.6745 N   0  0  0  0  0  0  0  0  0  0  0  0
   27.0568  -17.9486  -14.9677 C   0  0  1  0  0  0  0  0  0  0  0  0
   28.1628  -17.1135  -14.3373 C   0  0  0  0  0  0  0  0  0  0  0  0
   29.2398  -16.4481  -15.6115 S   0  0  0  0  0  0  0  0  0  0  0  0
   26.3107  -18.6644  -13.8881 C   0  0  0  0  0  0  0  0  0  0  0  0
   25.3212  -18.1236  -13.3302 O   0  0  0  0  0  0  0  0  0  0  0  0
   24.7061  -24.5866  -13.9901 N   0  0  0  0  0  0  0  0  0  0  0  0
   24.0177  -24.0955  -12.8546 C   0  0  0  0  0  0  0  0  0  0  0  0
   23.1104  -24.7843  -12.3537 O   0  0  0  0  0  0  0  0  0  0  0  0
   24.3916  -22.7737  -12.2899 C   0  0  0  0  0  0  0  0  0  0  0  0
   25.3990  -22.0162  -13.1045 C   0  0  0  0  0  0  0  0  0  0  0  0
   25.8267  -20.7074  -12.5391 C   0  0  2  0  0  0  0  0  0  0  0  0
   26.6770  -19.9613  -13.4515 N   0  0  0  0  0  0  0  0  0  0  0  0
   26.4933  -20.8234  -11.1958 C   0  0  0  0  0  0  0  0  0  0  0  0
   27.6399  -21.3131  -11.0656 O   0  0  0  0  0  0  0  0  0  0  0  0
   25.8315  -20.3739  -10.0174 N   0  0  0  0  0  0  0  0  0  0  0  0
   26.4255  -20.7220   -8.7217 C   0  0  1  0  0  0  0  0  0  0  0  0
   27.4092  -19.6200   -8.3994 C   0  0  0  0  0  0  0  0  0  0  0  0
   27.9896  -19.7621   -7.0490 C   0  0  0  0  0  0  0  0  0  0  0  0
   27.6647  -18.8974   -6.0360 C   0  0  0  0  0  0  0  0  0  0  0  0
   28.2288  -19.0671   -4.7940 C   0  0  0  0  0  0  0  0  0  0  0  0
   29.1169  -20.0829   -4.5266 C   0  0  0  0  0  0  0  0  0  0  0  0
   29.4412  -20.9512   -5.5497 C   0  0  0  0  0  0  0  0  0  0  0  0
   28.8788  -20.7837   -6.7912 C   0  0  0  0  0  0  0  0  0  0  0  0
   25.3992  -20.9121   -7.6939 C   0  0  0  0  0  0  0  0  0  0  0  0
   25.6531  -21.3619   -6.5356 O   0  0  0  0  0  0  0  0  0  0  0  0
   24.0680  -20.6068   -7.9269 O   0  0  0  0  0  0  0  0  0  0  0  0
  2  1  1  1
  3  2  1  0
  4  3  1  0
  5  2  1  0
  5  6  2  0
  8  7  1  0
  8 10  1  0
  9  8  2  0
 12 11  1  6
 11 10  1  0
 12 13  1  0
 13  5  1  0
 14 12  1  0
 15 14  2  0
 16 14  1  0
 17 16  1  0
 17 25  1  0
 17 18  1  1
 19 24  2  0
 19 18  1  0
 20 19  1  0
 21 22  1  0
 21 20  2  0
 22 23  2  0
 23 24  1  0
 25 27  1  0
 26 25  2  0
M  END
$$$$
