CQF.pdb
     RDKit          3D

 27 27  0  0  1  0  0  0  0  0999 V2000
   18.4796  -12.8901  -16.6057 N   0  0  0  0  0  0  0  0  0  0  0  0
   18.8329  -11.5407  -16.9792 C   0  0  1  0  0  0  0  0  0  0  0  0
   17.6328  -10.6694  -16.6349 C   0  0  0  0  0  0  0  0  0  0  0  0
   16.1527  -11.3140  -17.4223 S   0  0  0  0  0  0  0  0  0  0  0  0
   20.0217  -11.0586  -16.2117 C   0  0  0  0  0  0  0  0  0  0  0  0
   20.5527  -11.7872  -15.3342 O   0  0  0  0  0  0  0  0  0  0  0  0
   24.9618  -12.3082  -16.3502 N   0  0  0  0  0  0  0  0  0  0  0  0
   25.2731  -11.1620  -15.5797 C   0  0  0  0  0  0  0  0  0  0  0  0
   26.4076  -11.0610  -15.0785 O   0  0  0  0  0  0  0  0  0  0  0  0
   24.2420  -10.1105  -15.3868 C   0  0  0  0  0  0  0  0  0  0  0  0
   22.9245  -10.4096  -16.0401 C   0  0  0  0  0  0  0  0  0  0  0  0
   21.8487   -9.4091  -15.8006 C   0  0  2  0  0  0  0  0  0  0  0  0
   20.5946   -9.7822  -16.4334 N   0  0  0  0  0  0  0  0  0  0  0  0
   22.2298   -8.0107  -16.2025 C   0  0  0  0  0  0  0  0  0  0  0  0
   22.3667   -7.6811  -17.4042 O   0  0  0  0  0  0  0  0  0  0  0  0
   22.4491   -7.0076  -15.2155 N   0  0  0  0  0  0  0  0  0  0  0  0
   22.3654   -5.6037  -15.6336 C   0  0  1  0  0  0  0  0  0  0  0  0
   21.0043   -5.4341  -16.2699 C   0  0  0  0  0  0  0  0  0  0  0  0
   20.7604   -4.0468  -16.7134 C   0  0  0  0  0  0  0  0  0  0  0  0
   21.6446   -3.0386  -16.4286 C   0  0  0  0  0  0  0  0  0  0  0  0
   21.3775   -1.7615  -16.8613 C   0  0  0  0  0  0  0  0  0  0  0  0
   20.2439   -1.4538  -17.5771 C   0  0  0  0  0  0  0  0  0  0  0  0
   19.3563   -2.4722  -17.8616 C   0  0  0  0  0  0  0  0  0  0  0  0
   19.6211   -3.7487  -17.4304 C   0  0  0  0  0  0  0  0  0  0  0  0
   22.6064   -4.6936  -14.5113 C   0  0  0  0  0  0  0  0  0  0  0  0
   22.8153   -3.4514  -14.6588 O   0  0  0  0  0  0  0  0  0  0  0  0
   22.6204   -5.1401  -13.1999 O   0  0  0  0  0  0  0  0  0  0  0  0
  2  1  1  1
  3  2  1  0
  4  3  1  0
  5  2  1  0
  5  6  2  0
  8  7  1  0
  8 10  1  0
  9  8  2  0
 12 11  1  6
 11 10  1  0
 12 13  1  0
 13  5  1  0
 14 12  1  0
 15 14  2  0
 16 14  1  0
 17 16  1  0
 17 25  1  0
 17 18  1  1
 19 24  2  0
 19 18  1  0
 20 19  1  0
 21 22  1  0
 21 20  2  0
 22 23  2  0
 23 24  1  0
 25 27  1  0
 26 25  2  0
M  END
$$$$
