CQF.pdb
     RDKit          3D

 27 27  0  0  1  0  0  0  0  0999 V2000
   27.8969  -20.7764  -19.6008 N   0  0  0  0  0  0  0  0  0  0  0  0
   27.5425  -21.2103  -18.2699 C   0  0  1  0  0  0  0  0  0  0  0  0
   28.8344  -21.2310  -17.4644 C   0  0  0  0  0  0  0  0  0  0  0  0
   29.4165  -22.9190  -17.2701 S   0  0  0  0  0  0  0  0  0  0  0  0
   26.5823  -20.2618  -17.6272 C   0  0  0  0  0  0  0  0  0  0  0  0
   26.5122  -19.0663  -18.0128 O   0  0  0  0  0  0  0  0  0  0  0  0
   21.9485  -18.1360  -18.7769 N   0  0  0  0  0  0  0  0  0  0  0  0
   21.9340  -19.5340  -18.5538 C   0  0  0  0  0  0  0  0  0  0  0  0
   21.0660  -20.2263  -19.1159 O   0  0  0  0  0  0  0  0  0  0  0  0
   22.9504  -20.1402  -17.6564 C   0  0  0  0  0  0  0  0  0  0  0  0
   23.8441  -19.1462  -16.9743 C   0  0  0  0  0  0  0  0  0  0  0  0
   24.7917  -19.7149  -15.9772 C   0  0  2  0  0  0  0  0  0  0  0  0
   25.7227  -20.6584  -16.5735 N   0  0  0  0  0  0  0  0  0  0  0  0
   24.1103  -20.3453  -14.7938 C   0  0  0  0  0  0  0  0  0  0  0  0
   23.7638  -21.5500  -14.7933 O   0  0  0  0  0  0  0  0  0  0  0  0
   23.8356  -19.5807  -13.6239 N   0  0  0  0  0  0  0  0  0  0  0  0
   23.3237  -20.2894  -12.4456 C   0  0  1  0  0  0  0  0  0  0  0  0
   24.2196  -19.8937  -11.2937 C   0  0  0  0  0  0  0  0  0  0  0  0
   25.6321  -20.2535  -11.5311 C   0  0  0  0  0  0  0  0  0  0  0  0
   26.4682  -19.4358  -12.2464 C   0  0  0  0  0  0  0  0  0  0  0  0
   27.7761  -19.8103  -12.4431 C   0  0  0  0  0  0  0  0  0  0  0  0
   28.2829  -20.9875  -11.9438 C   0  0  0  0  0  0  0  0  0  0  0  0
   27.4373  -21.8079  -11.2242 C   0  0  0  0  0  0  0  0  0  0  0  0
   26.1304  -21.4358  -11.0264 C   0  0  0  0  0  0  0  0  0  0  0  0
   21.9071  -19.9957  -12.2155 C   0  0  0  0  0  0  0  0  0  0  0  0
   21.2145  -20.5765  -11.3258 O   0  0  0  0  0  0  0  0  0  0  0  0
   21.2266  -19.0507  -12.9660 O   0  0  0  0  0  0  0  0  0  0  0  0
  2  1  1  6
  3  2  1  0
  4  3  1  0
  5  2  1  0
  5  6  2  0
  8  7  1  0
  8 10  1  0
  9  8  2  0
 12 11  1  6
 11 10  1  0
 12 13  1  0
 13  5  1  0
 14 12  1  0
 15 14  2  0
 16 14  1  0
 17 16  1  0
 17 25  1  0
 17 18  1  1
 19 24  2  0
 19 18  1  0
 20 19  1  0
 21 22  1  0
 21 20  2  0
 22 23  2  0
 23 24  1  0
 25 27  1  0
 26 25  2  0
M  END
$$$$
