CQF.pdb
     RDKit          3D

 27 27  0  0  1  0  0  0  0  0999 V2000
   18.1337  -13.8089  -20.1587 N   0  0  0  0  0  0  0  0  0  0  0  0
   18.8501  -13.7755  -18.9054 C   0  0  1  0  0  0  0  0  0  0  0  0
   20.1070  -14.6113  -19.1043 C   0  0  0  0  0  0  0  0  0  0  0  0
   19.6755  -16.3451  -19.2887 S   0  0  0  0  0  0  0  0  0  0  0  0
   19.2448  -12.3800  -18.5427 C   0  0  0  0  0  0  0  0  0  0  0  0
   19.5663  -11.5553  -19.4369 O   0  0  0  0  0  0  0  0  0  0  0  0
   16.3454   -8.7924  -14.5345 N   0  0  0  0  0  0  0  0  0  0  0  0
   17.3689   -7.9281  -14.9927 C   0  0  0  0  0  0  0  0  0  0  0  0
   17.2807   -6.7094  -14.7571 O   0  0  0  0  0  0  0  0  0  0  0  0
   18.5198   -8.4933  -15.7423 C   0  0  0  0  0  0  0  0  0  0  0  0
   18.3874   -9.9516  -16.0707 C   0  0  0  0  0  0  0  0  0  0  0  0
   19.4894  -10.5267  -16.8895 C   0  0  2  0  0  0  0  0  0  0  0  0
   19.2744  -11.9302  -17.1999 N   0  0  0  0  0  0  0  0  0  0  0  0
   20.8511  -10.3392  -16.2789 C   0  0  0  0  0  0  0  0  0  0  0  0
   21.3848  -11.2221  -15.5668 O   0  0  0  0  0  0  0  0  0  0  0  0
   21.5829   -9.1367  -16.4955 N   0  0  0  0  0  0  0  0  0  0  0  0
   22.9447   -9.0554  -15.9553 C   0  0  1  0  0  0  0  0  0  0  0  0
   23.7553  -10.0931  -16.6983 C   0  0  0  0  0  0  0  0  0  0  0  0
   25.1840  -10.0625  -16.3258 C   0  0  0  0  0  0  0  0  0  0  0  0
   26.0969   -9.3404  -17.0500 C   0  0  0  0  0  0  0  0  0  0  0  0
   27.4171   -9.3402  -16.6671 C   0  0  0  0  0  0  0  0  0  0  0  0
   27.8614  -10.0451  -15.5727 C   0  0  0  0  0  0  0  0  0  0  0  0
   26.9386  -10.7708  -14.8464 C   0  0  0  0  0  0  0  0  0  0  0  0
   25.6192  -10.7724  -15.2270 C   0  0  0  0  0  0  0  0  0  0  0  0
   23.4859   -7.6986  -16.0648 C   0  0  0  0  0  0  0  0  0  0  0  0
   23.2100   -6.9178  -17.0253 O   0  0  0  0  0  0  0  0  0  0  0  0
   24.3447   -7.1765  -15.1112 O   0  0  0  0  0  0  0  0  0  0  0  0
  2  1  1  6
  3  2  1  0
  4  3  1  0
  5  2  1  0
  5  6  2  0
  8  7  1  0
  8 10  1  0
  9  8  2  0
 12 11  1  1
 11 10  1  0
 12 13  1  0
 13  5  1  0
 14 12  1  0
 15 14  2  0
 16 14  1  0
 17 16  1  0
 17 25  1  0
 17 18  1  6
 19 24  2  0
 19 18  1  0
 20 19  1  0
 21 22  1  0
 21 20  2  0
 22 23  2  0
 23 24  1  0
 25 27  1  0
 26 25  2  0
M  END
$$$$
