CQF.pdb
     RDKit          3D

 27 27  0  0  1  0  0  0  0  0999 V2000
   25.6378  -16.3354  -15.1714 N   0  0  0  0  0  0  0  0  0  0  0  0
   24.5204  -17.0395  -14.5876 C   0  0  1  0  0  0  0  0  0  0  0  0
   23.3702  -16.9203  -15.5778 C   0  0  0  0  0  0  0  0  0  0  0  0
   22.9380  -15.1939  -15.8208 S   0  0  0  0  0  0  0  0  0  0  0  0
   24.8380  -18.4855  -14.3808 C   0  0  0  0  0  0  0  0  0  0  0  0
   23.9352  -19.2953  -14.0458 O   0  0  0  0  0  0  0  0  0  0  0  0
   29.4228  -22.0507  -16.8772 N   0  0  0  0  0  0  0  0  0  0  0  0
   28.8551  -22.9165  -15.9116 C   0  0  0  0  0  0  0  0  0  0  0  0
   29.2410  -24.0984  -15.8589 O   0  0  0  0  0  0  0  0  0  0  0  0
   27.8148  -22.3969  -14.9876 C   0  0  0  0  0  0  0  0  0  0  0  0
   27.4309  -20.9666  -15.2307 C   0  0  0  0  0  0  0  0  0  0  0  0
   26.4359  -20.3998  -14.2798 C   0  0  2  0  0  0  0  0  0  0  0  0
   26.1464  -19.0013  -14.5496 N   0  0  0  0  0  0  0  0  0  0  0  0
   26.8188  -20.5749  -12.8359 C   0  0  0  0  0  0  0  0  0  0  0  0
   28.0084  -20.4866  -12.4508 O   0  0  0  0  0  0  0  0  0  0  0  0
   25.8267  -20.8500  -11.8515 N   0  0  0  0  0  0  0  0  0  0  0  0
   26.2635  -20.9913  -10.4580 C   0  0  1  0  0  0  0  0  0  0  0  0
   27.0278  -19.7297  -10.1260 C   0  0  0  0  0  0  0  0  0  0  0  0
   27.4952  -19.7080   -8.7254 C   0  0  0  0  0  0  0  0  0  0  0  0
   26.9330  -18.8711   -7.7964 C   0  0  0  0  0  0  0  0  0  0  0  0
   27.3994  -18.8841   -6.5034 C   0  0  0  0  0  0  0  0  0  0  0  0
   28.4201  -19.7144   -6.1023 C   0  0  0  0  0  0  0  0  0  0  0  0
   28.9832  -20.5554   -7.0411 C   0  0  0  0  0  0  0  0  0  0  0  0
   28.5189  -20.5441   -8.3333 C   0  0  0  0  0  0  0  0  0  0  0  0
   25.1316  -21.2447   -9.5633 C   0  0  0  0  0  0  0  0  0  0  0  0
   25.2578  -21.7799   -8.4205 O   0  0  0  0  0  0  0  0  0  0  0  0
   23.8342  -20.9095   -9.9152 O   0  0  0  0  0  0  0  0  0  0  0  0
  2  1  1  6
  3  2  1  0
  4  3  1  0
  5  2  1  0
  5  6  2  0
  8  7  1  0
  8 10  1  0
  9  8  2  0
 12 11  1  6
 11 10  1  0
 12 13  1  0
 13  5  1  0
 14 12  1  0
 15 14  2  0
 16 14  1  0
 17 16  1  0
 17 25  1  0
 17 18  1  1
 19 24  2  0
 19 18  1  0
 20 19  1  0
 21 22  1  0
 21 20  2  0
 22 23  2  0
 23 24  1  0
 25 27  1  0
 26 25  2  0
M  END
$$$$
