IKL.pdb
     RDKit          3D

 26 25  0  0  1  0  0  0  0  0999 V2000
    7.2092  -12.5375   18.8145 C   0  0  0  0  0  0  0  0  0  0  0  0
    8.1323  -13.7090   19.1641 C   0  0  0  0  0  0  0  0  0  0  0  0
    7.8029  -14.1029   20.5849 C   0  0  2  0  0  0  0  0  0  0  0  0
    7.8978  -12.8752   21.4344 C   0  0  0  0  0  0  0  0  0  0  0  0
    8.5928  -15.2702   21.0820 C   0  0  2  0  0  0  0  0  0  0  0  0
    8.3204  -16.4095   20.2600 N   0  0  0  0  0  0  0  0  0  0  0  0
    8.3427  -15.5571   22.5213 C   0  0  0  0  0  0  0  0  0  0  0  0
    8.4450  -14.6854   23.4080 O   0  0  0  0  0  0  0  0  0  0  0  0
    7.9767  -16.8745   22.8735 N   0  0  0  0  0  0  0  0  0  0  0  0
    7.8105  -17.4271   24.1705 C   0  0  1  0  0  0  0  0  0  0  0  0
    7.3071  -18.8772   24.1835 C   0  0  0  0  0  0  0  0  0  0  0  0
    7.0959  -19.4325   25.5459 C   0  0  0  0  0  0  0  0  0  0  0  0
    6.5702  -20.8600   25.5406 C   0  0  0  0  0  0  0  0  0  0  0  0
    6.3946  -21.4312   26.9105 C   0  0  0  0  0  0  0  0  0  0  0  0
    5.7445  -22.7294   26.8040 N   0  0  0  0  0  0  0  0  0  0  0  0
    8.8771  -17.1728   25.1308 C   0  0  0  0  0  0  0  0  0  0  0  0
   10.1146  -17.3644   24.8545 O   0  0  0  0  0  0  0  0  0  0  0  0
    7.8297  -13.3506   28.7223 C   0  0  0  0  0  0  0  0  0  0  0  0
    8.6192  -14.1688   27.6948 C   0  0  1  0  0  0  0  0  0  0  0  0
    9.6346  -13.2785   27.0205 C   0  0  0  0  0  0  0  0  0  0  0  0
    9.2808  -15.3514   28.3704 C   0  0  0  0  0  0  0  0  0  0  0  0
    9.6868  -16.4090   27.3906 C   0  0  2  0  0  0  0  0  0  0  0  0
    8.6204  -16.6989   26.4268 N   0  0  0  0  0  0  0  0  0  0  0  0
   10.0940  -17.6687   28.0664 C   0  0  0  0  0  0  0  0  0  0  0  0
   11.0686  -17.6495   28.8496 O   0  0  0  0  0  0  0  0  0  0  0  0
    9.4294  -18.8533   27.8546 O   0  0  0  0  0  0  0  0  0  0  0  0
  2  1  1  0
  3  2  1  0
  3  4  1  1
  5  3  1  0
  5  6  1  6
  7  5  1  0
  7  8  2  0
  9  7  1  0
 10  9  1  0
 10 11  1  6
 12 11  1  0
 13 12  1  0
 13 14  1  0
 15 14  1  0
 16 23  1  0
 16 10  1  0
 17 16  2  0
 19 21  1  0
 19 18  1  1
 20 19  1  0
 22 21  1  1
 22 23  1  0
 22 24  1  0
 24 25  2  0
 24 26  1  0
M  END
$$$$
