IKL.pdb
     RDKit          3D

 26 25  0  0  1  0  0  0  0  0999 V2000
    7.5239  -11.9227   18.9840 C   0  0  0  0  0  0  0  0  0  0  0  0
    7.7802  -13.4227   18.8085 C   0  0  0  0  0  0  0  0  0  0  0  0
    7.8263  -14.0135   20.1981 C   0  0  2  0  0  0  0  0  0  0  0  0
    8.8175  -13.2282   20.9972 C   0  0  0  0  0  0  0  0  0  0  0  0
    8.0410  -15.4925   20.2141 C   0  0  2  0  0  0  0  0  0  0  0  0
    7.0667  -16.1205   19.3750 N   0  0  0  0  0  0  0  0  0  0  0  0
    8.0266  -16.0564   21.5919 C   0  0  0  0  0  0  0  0  0  0  0  0
    6.9736  -16.2166   22.2416 O   0  0  0  0  0  0  0  0  0  0  0  0
    9.2651  -16.4169   22.1660 N   0  0  0  0  0  0  0  0  0  0  0  0
    9.5178  -16.9444   23.4595 C   0  0  1  0  0  0  0  0  0  0  0  0
   10.4806  -18.1398   23.4812 C   0  0  0  0  0  0  0  0  0  0  0  0
   10.6330  -18.7701   24.8186 C   0  0  0  0  0  0  0  0  0  0  0  0
   11.5735  -19.9658   24.8181 C   0  0  0  0  0  0  0  0  0  0  0  0
   11.6702  -20.6433   26.1469 C   0  0  0  0  0  0  0  0  0  0  0  0
   10.3762  -21.2207   26.4807 N   0  0  0  0  0  0  0  0  0  0  0  0
    9.7657  -15.9782   24.5223 C   0  0  0  0  0  0  0  0  0  0  0  0
   10.7630  -15.1723   24.5035 O   0  0  0  0  0  0  0  0  0  0  0  0
    5.9360  -12.8967   26.5624 C   0  0  0  0  0  0  0  0  0  0  0  0
    7.2929  -13.4330   26.0939 C   0  0  1  0  0  0  0  0  0  0  0  0
    8.1667  -12.2782   25.6681 C   0  0  0  0  0  0  0  0  0  0  0  0
    7.9413  -14.2409   27.1982 C   0  0  0  0  0  0  0  0  0  0  0  0
    9.1903  -14.9280   26.7385 C   0  0  2  0  0  0  0  0  0  0  0  0
    8.9261  -15.8644   25.6413 N   0  0  0  0  0  0  0  0  0  0  0  0
    9.8704  -15.6487   27.8464 C   0  0  0  0  0  0  0  0  0  0  0  0
    9.8739  -16.8991   27.8451 O   0  0  0  0  0  0  0  0  0  0  0  0
   10.4952  -14.9792   28.8718 O   0  0  0  0  0  0  0  0  0  0  0  0
  2  1  1  0
  3  2  1  0
  3  4  1  1
  5  3  1  0
  5  6  1  6
  7  5  1  0
  7  8  2  0
  9  7  1  0
 10  9  1  0
 10 11  1  6
 12 11  1  0
 13 12  1  0
 13 14  1  0
 15 14  1  0
 16 23  1  0
 16 10  1  0
 17 16  2  0
 19 21  1  0
 19 18  1  1
 20 19  1  0
 22 21  1  1
 22 23  1  0
 22 24  1  0
 24 25  2  0
 24 26  1  0
M  END
$$$$
