IKL.pdb
     RDKit          3D

 26 25  0  0  1  0  0  0  0  0999 V2000
    7.9192  -12.3423   18.7900 C   0  0  0  0  0  0  0  0  0  0  0  0
    7.9233  -13.8735   18.8338 C   0  0  0  0  0  0  0  0  0  0  0  0
    7.4671  -14.2623   20.2205 C   0  0  2  0  0  0  0  0  0  0  0  0
    8.3315  -13.5414   21.2059 C   0  0  0  0  0  0  0  0  0  0  0  0
    7.3772  -15.7393   20.4301 C   0  0  2  0  0  0  0  0  0  0  0  0
    6.5684  -16.3144   19.3992 N   0  0  0  0  0  0  0  0  0  0  0  0
    6.8753  -16.0938   21.7862 C   0  0  0  0  0  0  0  0  0  0  0  0
    5.7070  -15.8560   22.1538 O   0  0  0  0  0  0  0  0  0  0  0  0
    7.7744  -16.7231   22.6745 N   0  0  0  0  0  0  0  0  0  0  0  0
    7.6281  -16.9424   24.0694 C   0  0  1  0  0  0  0  0  0  0  0  0
    7.5651  -18.4211   24.4768 C   0  0  0  0  0  0  0  0  0  0  0  0
    6.5724  -19.2184   23.7100 C   0  0  0  0  0  0  0  0  0  0  0  0
    6.5946  -20.7003   24.0532 C   0  0  0  0  0  0  0  0  0  0  0  0
    5.6377  -21.5106   23.2398 C   0  0  0  0  0  0  0  0  0  0  0  0
    5.8219  -22.9200   23.5545 N   0  0  0  0  0  0  0  0  0  0  0  0
    8.4603  -16.1314   24.9493 C   0  0  0  0  0  0  0  0  0  0  0  0
    9.7285  -16.0230   24.7932 O   0  0  0  0  0  0  0  0  0  0  0  0
    6.1301  -11.7760   27.1672 C   0  0  0  0  0  0  0  0  0  0  0  0
    7.0354  -12.8027   26.4781 C   0  0  1  0  0  0  0  0  0  0  0  0
    7.8055  -12.1261   25.3702 C   0  0  0  0  0  0  0  0  0  0  0  0
    7.9644  -13.4383   27.4909 C   0  0  0  0  0  0  0  0  0  0  0  0
    8.7503  -14.5711   26.9056 C   0  0  2  0  0  0  0  0  0  0  0  0
    7.9273  -15.4116   26.0300 N   0  0  0  0  0  0  0  0  0  0  0  0
    9.3738  -15.4184   27.9556 C   0  0  0  0  0  0  0  0  0  0  0  0
   10.1622  -14.8922   28.7711 O   0  0  0  0  0  0  0  0  0  0  0  0
    9.1081  -16.7636   28.0550 O   0  0  0  0  0  0  0  0  0  0  0  0
  2  1  1  0
  3  2  1  0
  3  4  1  1
  5  3  1  0
  5  6  1  6
  7  5  1  0
  7  8  2  0
  9  7  1  0
 10  9  1  0
 10 11  1  6
 12 11  1  0
 13 12  1  0
 13 14  1  0
 15 14  1  0
 16 23  1  0
 16 10  1  0
 17 16  2  0
 19 21  1  0
 19 18  1  1
 20 19  1  0
 22 21  1  1
 22 23  1  0
 22 24  1  0
 24 25  2  0
 24 26  1  0
M  END
$$$$
