IKL.pdb
     RDKit          3D

 26 25  0  0  1  0  0  0  0  0999 V2000
    7.5871  -12.5000   17.3933 C   0  0  0  0  0  0  0  0  0  0  0  0
    8.4728  -13.6112   17.9655 C   0  0  0  0  0  0  0  0  0  0  0  0
    8.0126  -13.8347   19.3870 C   0  0  2  0  0  0  0  0  0  0  0  0
    8.1198  -12.5314   20.1135 C   0  0  0  0  0  0  0  0  0  0  0  0
    8.6877  -14.9846   20.0621 C   0  0  2  0  0  0  0  0  0  0  0  0
    8.6066  -16.1398   19.2214 N   0  0  0  0  0  0  0  0  0  0  0  0
    8.1383  -15.2518   21.4197 C   0  0  0  0  0  0  0  0  0  0  0  0
    7.6414  -14.3561   22.1320 O   0  0  0  0  0  0  0  0  0  0  0  0
    8.1925  -16.5786   21.8997 N   0  0  0  0  0  0  0  0  0  0  0  0
    7.8239  -17.0694   23.1797 C   0  0  1  0  0  0  0  0  0  0  0  0
    7.7712  -18.6002   23.2820 C   0  0  0  0  0  0  0  0  0  0  0  0
    7.3424  -19.1034   24.6132 C   0  0  0  0  0  0  0  0  0  0  0  0
    7.3901  -20.6196   24.7288 C   0  0  0  0  0  0  0  0  0  0  0  0
    6.8883  -21.1292   26.0411 C   0  0  0  0  0  0  0  0  0  0  0  0
    6.9048  -22.5847   26.0230 N   0  0  0  0  0  0  0  0  0  0  0  0
    8.4509  -16.4306   24.3300 C   0  0  0  0  0  0  0  0  0  0  0  0
    9.7234  -16.3634   24.4736 O   0  0  0  0  0  0  0  0  0  0  0  0
    5.8606  -12.1998   26.7632 C   0  0  0  0  0  0  0  0  0  0  0  0
    6.9331  -13.0892   26.1252 C   0  0  1  0  0  0  0  0  0  0  0  0
    8.0893  -12.2311   25.6720 C   0  0  0  0  0  0  0  0  0  0  0  0
    7.3817  -14.1489   27.1093 C   0  0  0  0  0  0  0  0  0  0  0  0
    8.3196  -15.1378   26.4880 C   0  0  2  0  0  0  0  0  0  0  0  0
    7.7011  -15.8435   25.3612 N   0  0  0  0  0  0  0  0  0  0  0  0
    8.8176  -16.1307   27.4758 C   0  0  0  0  0  0  0  0  0  0  0  0
    8.2845  -17.2608   27.5219 O   0  0  0  0  0  0  0  0  0  0  0  0
    9.8474  -15.8412   28.3393 O   0  0  0  0  0  0  0  0  0  0  0  0
  2  1  1  0
  3  2  1  0
  3  4  1  1
  5  3  1  0
  5  6  1  6
  7  5  1  0
  7  8  2  0
  9  7  1  0
 10  9  1  0
 10 11  1  6
 12 11  1  0
 13 12  1  0
 13 14  1  0
 15 14  1  0
 16 23  1  0
 16 10  1  0
 17 16  2  0
 19 21  1  0
 19 18  1  1
 20 19  1  0
 22 21  1  1
 22 23  1  0
 22 24  1  0
 24 25  2  0
 24 26  1  0
M  END
$$$$
