IKL.pdb
     RDKit          3D

 26 25  0  0  1  0  0  0  0  0999 V2000
    5.6310  -11.2629   26.8543 C   0  0  0  0  0  0  0  0  0  0  0  0
    5.1356  -12.5383   26.1655 C   0  0  0  0  0  0  0  0  0  0  0  0
    6.3673  -13.3374   25.8096 C   0  0  2  0  0  0  0  0  0  0  0  0
    7.2601  -12.4617   24.9887 C   0  0  0  0  0  0  0  0  0  0  0  0
    6.0636  -14.6678   25.2001 C   0  0  2  0  0  0  0  0  0  0  0  0
    5.0445  -15.3171   25.9667 N   0  0  0  0  0  0  0  0  0  0  0  0
    7.2753  -15.5214   25.0600 C   0  0  0  0  0  0  0  0  0  0  0  0
    7.7429  -16.1854   26.0071 O   0  0  0  0  0  0  0  0  0  0  0  0
    7.9036  -15.5658   23.7964 N   0  0  0  0  0  0  0  0  0  0  0  0
    9.0964  -16.2416   23.4275 C   0  0  1  0  0  0  0  0  0  0  0  0
    9.4739  -16.1012   21.9462 C   0  0  0  0  0  0  0  0  0  0  0  0
   10.6447  -16.9215   21.5396 C   0  0  0  0  0  0  0  0  0  0  0  0
   10.2942  -18.0258   20.5537 C   0  0  0  0  0  0  0  0  0  0  0  0
   11.4720  -18.8503   20.1453 C   0  0  0  0  0  0  0  0  0  0  0  0
   11.0526  -19.8086   19.1328 N   0  0  0  0  0  0  0  0  0  0  0  0
   10.2308  -16.1061   24.3325 C   0  0  0  0  0  0  0  0  0  0  0  0
   11.2196  -15.3271   24.0879 O   0  0  0  0  0  0  0  0  0  0  0  0
   10.2960  -14.6100   29.1989 C   0  0  0  0  0  0  0  0  0  0  0  0
   10.7309  -14.9727   27.7749 C   0  0  1  0  0  0  0  0  0  0  0  0
   11.7415  -13.9626   27.2884 C   0  0  0  0  0  0  0  0  0  0  0  0
   11.2937  -16.3780   27.7460 C   0  0  0  0  0  0  0  0  0  0  0  0
   11.5373  -16.8617   26.3495 C   0  0  2  0  0  0  0  0  0  0  0  0
   10.3171  -16.8215   25.5371 N   0  0  0  0  0  0  0  0  0  0  0  0
   12.0981  -18.2380   26.3258 C   0  0  0  0  0  0  0  0  0  0  0  0
   13.2354  -18.4383   26.8054 O   0  0  0  0  0  0  0  0  0  0  0  0
   11.4016  -19.2962   25.7917 O   0  0  0  0  0  0  0  0  0  0  0  0
  2  1  1  0
  3  2  1  0
  3  4  1  6
  5  3  1  0
  5  6  1  1
  7  5  1  0
  7  8  2  0
  9  7  1  0
 10  9  1  0
 10 11  1  6
 12 11  1  0
 13 12  1  0
 13 14  1  0
 15 14  1  0
 16 23  1  0
 16 10  1  0
 17 16  2  0
 19 21  1  0
 19 18  1  1
 20 19  1  0
 22 21  1  1
 22 23  1  0
 22 24  1  0
 24 25  2  0
 24 26  1  0
M  END
$$$$
