IKL.pdb
     RDKit          3D

 26 25  0  0  1  0  0  0  0  0999 V2000
    7.8666  -11.5434   18.8654 C   0  0  0  0  0  0  0  0  0  0  0  0
    8.4097  -12.9515   18.6031 C   0  0  0  0  0  0  0  0  0  0  0  0
    7.9980  -13.7953   19.7866 C   0  0  2  0  0  0  0  0  0  0  0  0
    8.5495  -13.1540   21.0204 C   0  0  0  0  0  0  0  0  0  0  0  0
    8.3287  -15.2448   19.6337 C   0  0  2  0  0  0  0  0  0  0  0  0
    7.7512  -15.7357   18.4199 N   0  0  0  0  0  0  0  0  0  0  0  0
    7.9074  -16.0535   20.8105 C   0  0  0  0  0  0  0  0  0  0  0  0
    6.7309  -16.4333   20.9786 O   0  0  0  0  0  0  0  0  0  0  0  0
    8.8950  -16.3922   21.7610 N   0  0  0  0  0  0  0  0  0  0  0  0
    8.7336  -17.0711   22.9973 C   0  0  1  0  0  0  0  0  0  0  0  0
    9.2408  -18.5199   22.9975 C   0  0  0  0  0  0  0  0  0  0  0  0
    8.9262  -19.2713   24.2407 C   0  0  0  0  0  0  0  0  0  0  0  0
    9.3721  -20.7250   24.1960 C   0  0  0  0  0  0  0  0  0  0  0  0
    8.8951  -21.5266   25.3637 C   0  0  0  0  0  0  0  0  0  0  0  0
    9.4734  -22.8607   25.2920 N   0  0  0  0  0  0  0  0  0  0  0  0
    9.0890  -16.3300   24.2010 C   0  0  0  0  0  0  0  0  0  0  0  0
   10.2479  -15.8089   24.3737 O   0  0  0  0  0  0  0  0  0  0  0  0
    5.4615  -13.0504   26.4086 C   0  0  0  0  0  0  0  0  0  0  0  0
    6.7881  -13.6452   25.9239 C   0  0  1  0  0  0  0  0  0  0  0  0
    7.7541  -12.5271   25.6155 C   0  0  0  0  0  0  0  0  0  0  0  0
    7.3468  -14.5881   26.9686 C   0  0  0  0  0  0  0  0  0  0  0  0
    8.5197  -15.3676   26.4583 C   0  0  2  0  0  0  0  0  0  0  0  0
    8.1831  -16.1358   25.2555 N   0  0  0  0  0  0  0  0  0  0  0  0
    9.0704  -16.2856   27.4895 C   0  0  0  0  0  0  0  0  0  0  0  0
    8.7731  -17.4992   27.4426 O   0  0  0  0  0  0  0  0  0  0  0  0
    9.8969  -15.8377   28.4926 O   0  0  0  0  0  0  0  0  0  0  0  0
  2  1  1  0
  3  2  1  0
  3  4  1  1
  5  3  1  0
  5  6  1  6
  7  5  1  0
  7  8  2  0
  9  7  1  0
 10  9  1  0
 10 11  1  6
 12 11  1  0
 13 12  1  0
 13 14  1  0
 15 14  1  0
 16 23  1  0
 16 10  1  0
 17 16  2  0
 19 21  1  0
 19 18  1  1
 20 19  1  0
 22 21  1  1
 22 23  1  0
 22 24  1  0
 24 25  2  0
 24 26  1  0
M  END
$$$$
