IKL.pdb
     RDKit          3D

 26 25  0  0  1  0  0  0  0  0999 V2000
    6.0719  -11.6323   27.1535 C   0  0  0  0  0  0  0  0  0  0  0  0
    5.4463  -12.7694   26.3396 C   0  0  0  0  0  0  0  0  0  0  0  0
    6.5894  -13.6411   25.8751 C   0  0  2  0  0  0  0  0  0  0  0  0
    7.5385  -12.7795   25.1039 C   0  0  0  0  0  0  0  0  0  0  0  0
    6.1486  -14.8789   25.1631 C   0  0  2  0  0  0  0  0  0  0  0  0
    5.1445  -15.5389   25.9403 N   0  0  0  0  0  0  0  0  0  0  0  0
    7.2833  -15.7880   24.8431 C   0  0  0  0  0  0  0  0  0  0  0  0
    7.8130  -16.5280   25.6966 O   0  0  0  0  0  0  0  0  0  0  0  0
    7.7625  -15.7965   23.5150 N   0  0  0  0  0  0  0  0  0  0  0  0
    8.9575  -16.3747   23.0119 C   0  0  1  0  0  0  0  0  0  0  0  0
    9.0561  -16.3978   21.4802 C   0  0  0  0  0  0  0  0  0  0  0  0
   10.2653  -17.0895   20.9619 C   0  0  0  0  0  0  0  0  0  0  0  0
   10.3355  -17.1241   19.4426 C   0  0  0  0  0  0  0  0  0  0  0  0
   11.5467  -17.8283   18.9221 C   0  0  0  0  0  0  0  0  0  0  0  0
   11.6722  -17.5659   17.4957 N   0  0  0  0  0  0  0  0  0  0  0  0
   10.1988  -15.9855   23.6692 C   0  0  0  0  0  0  0  0  0  0  0  0
   10.7683  -14.8566   23.4556 O   0  0  0  0  0  0  0  0  0  0  0  0
   11.9525  -13.7865   27.6688 C   0  0  0  0  0  0  0  0  0  0  0  0
   11.1716  -15.0751   27.9485 C   0  0  1  0  0  0  0  0  0  0  0  0
   10.1436  -14.8135   29.0223 C   0  0  0  0  0  0  0  0  0  0  0  0
   10.5264  -15.5782   26.6744 C   0  0  0  0  0  0  0  0  0  0  0  0
   11.4945  -16.3187   25.8037 C   0  0  2  0  0  0  0  0  0  0  0  0
   10.8562  -16.8232   24.5838 N   0  0  0  0  0  0  0  0  0  0  0  0
   12.1407  -17.4475   26.5230 C   0  0  0  0  0  0  0  0  0  0  0  0
   13.1035  -17.2100   27.2847 O   0  0  0  0  0  0  0  0  0  0  0  0
   11.7097  -18.7445   26.3742 O   0  0  0  0  0  0  0  0  0  0  0  0
  2  1  1  0
  3  2  1  0
  3  4  1  6
  5  3  1  0
  5  6  1  1
  7  5  1  0
  7  8  2  0
  9  7  1  0
 10  9  1  0
 10 11  1  6
 12 11  1  0
 13 12  1  0
 13 14  1  0
 15 14  1  0
 16 23  1  0
 16 10  1  0
 17 16  2  0
 19 21  1  0
 19 18  1  6
 20 19  1  0
 22 21  1  1
 22 23  1  0
 22 24  1  0
 24 25  2  0
 24 26  1  0
M  END
$$$$
