IKL.pdb
     RDKit          3D

 26 25  0  0  1  0  0  0  0  0999 V2000
    7.7290  -12.3441   18.0103 C   0  0  0  0  0  0  0  0  0  0  0  0
    8.2693  -13.7174   18.4210 C   0  0  0  0  0  0  0  0  0  0  0  0
    7.7787  -13.9661   19.8280 C   0  0  2  0  0  0  0  0  0  0  0  0
    8.2170  -12.8144   20.6762 C   0  0  0  0  0  0  0  0  0  0  0  0
    8.1469  -15.3123   20.3624 C   0  0  2  0  0  0  0  0  0  0  0  0
    7.7220  -16.3196   19.4390 N   0  0  0  0  0  0  0  0  0  0  0  0
    7.6039  -15.5525   21.7277 C   0  0  0  0  0  0  0  0  0  0  0  0
    6.9526  -14.6915   22.3530 O   0  0  0  0  0  0  0  0  0  0  0  0
    7.8479  -16.8115   22.3185 N   0  0  0  0  0  0  0  0  0  0  0  0
    7.6194  -17.2157   23.6600 C   0  0  1  0  0  0  0  0  0  0  0  0
    7.6045  -18.7360   23.8716 C   0  0  0  0  0  0  0  0  0  0  0  0
    7.3241  -19.1496   25.2714 C   0  0  0  0  0  0  0  0  0  0  0  0
    7.2206  -20.6573   25.4456 C   0  0  0  0  0  0  0  0  0  0  0  0
    6.8639  -21.0692   26.8373 C   0  0  0  0  0  0  0  0  0  0  0  0
    6.8787  -22.5225   26.9209 N   0  0  0  0  0  0  0  0  0  0  0  0
    8.3480  -16.4913   24.6939 C   0  0  0  0  0  0  0  0  0  0  0  0
    9.6168  -16.5971   24.8468 O   0  0  0  0  0  0  0  0  0  0  0  0
    6.5471  -11.5790   26.2995 C   0  0  0  0  0  0  0  0  0  0  0  0
    7.4285  -12.7554   25.8664 C   0  0  1  0  0  0  0  0  0  0  0  0
    8.6998  -12.2263   25.2481 C   0  0  0  0  0  0  0  0  0  0  0  0
    7.7198  -13.6503   27.0526 C   0  0  0  0  0  0  0  0  0  0  0  0
    8.4264  -14.9088   26.6523 C   0  0  2  0  0  0  0  0  0  0  0  0
    7.7074  -15.6260   25.5944 N   0  0  0  0  0  0  0  0  0  0  0  0
    8.6389  -15.8205   27.8069 C   0  0  0  0  0  0  0  0  0  0  0  0
    9.3257  -15.4249   28.7740 O   0  0  0  0  0  0  0  0  0  0  0  0
    8.1017  -17.0855   27.8409 O   0  0  0  0  0  0  0  0  0  0  0  0
  2  1  1  0
  3  2  1  0
  3  4  1  1
  5  3  1  0
  5  6  1  6
  7  5  1  0
  7  8  2  0
  9  7  1  0
 10  9  1  0
 10 11  1  6
 12 11  1  0
 13 12  1  0
 13 14  1  0
 15 14  1  0
 16 23  1  0
 16 10  1  0
 17 16  2  0
 19 21  1  0
 19 18  1  1
 20 19  1  0
 22 21  1  1
 22 23  1  0
 22 24  1  0
 24 25  2  0
 24 26  1  0
M  END
$$$$
