IKL.pdb
     RDKit          3D

 26 25  0  0  1  0  0  0  0  0999 V2000
    6.0227  -11.1071   26.5279 C   0  0  0  0  0  0  0  0  0  0  0  0
    5.4350  -12.4255   26.0150 C   0  0  0  0  0  0  0  0  0  0  0  0
    6.6090  -13.3242   25.7044 C   0  0  2  0  0  0  0  0  0  0  0  0
    7.5290  -12.5769   24.7917 C   0  0  0  0  0  0  0  0  0  0  0  0
    6.2134  -14.6814   25.2197 C   0  0  2  0  0  0  0  0  0  0  0  0
    5.1832  -15.2032   26.0647 N   0  0  0  0  0  0  0  0  0  0  0  0
    7.3709  -15.6128   25.1232 C   0  0  0  0  0  0  0  0  0  0  0  0
    7.8118  -16.2412   26.1067 O   0  0  0  0  0  0  0  0  0  0  0  0
    7.9781  -15.7756   23.8589 N   0  0  0  0  0  0  0  0  0  0  0  0
    9.1386  -16.5229   23.5272 C   0  0  1  0  0  0  0  0  0  0  0  0
    9.4252  -16.6166   22.0221 C   0  0  0  0  0  0  0  0  0  0  0  0
   10.5382  -17.5381   21.6740 C   0  0  0  0  0  0  0  0  0  0  0  0
   10.7729  -17.6616   20.1760 C   0  0  0  0  0  0  0  0  0  0  0  0
   11.8605  -18.6247   19.8248 C   0  0  0  0  0  0  0  0  0  0  0  0
   11.9844  -18.6932   18.3759 N   0  0  0  0  0  0  0  0  0  0  0  0
   10.3283  -16.2738   24.3317 C   0  0  0  0  0  0  0  0  0  0  0  0
   11.2784  -15.5071   23.9396 O   0  0  0  0  0  0  0  0  0  0  0  0
   10.1125  -14.9626   29.4369 C   0  0  0  0  0  0  0  0  0  0  0  0
   10.4805  -15.1686   27.9636 C   0  0  1  0  0  0  0  0  0  0  0  0
   11.1044  -13.9050   27.4229 C   0  0  0  0  0  0  0  0  0  0  0  0
   11.4141  -16.3523   27.8221 C   0  0  0  0  0  0  0  0  0  0  0  0
   11.7293  -16.6568   26.3898 C   0  0  2  0  0  0  0  0  0  0  0  0
   10.5141  -16.8582   25.5942 N   0  0  0  0  0  0  0  0  0  0  0  0
   12.6089  -17.8472   26.2533 C   0  0  0  0  0  0  0  0  0  0  0  0
   13.7717  -17.7982   26.7105 O   0  0  0  0  0  0  0  0  0  0  0  0
   12.1798  -18.9997   25.6388 O   0  0  0  0  0  0  0  0  0  0  0  0
  2  1  1  0
  3  2  1  0
  3  4  1  6
  5  3  1  0
  5  6  1  1
  7  5  1  0
  7  8  2  0
  9  7  1  0
 10  9  1  0
 10 11  1  6
 12 11  1  0
 13 12  1  0
 13 14  1  0
 15 14  1  0
 16 23  1  0
 16 10  1  0
 17 16  2  0
 19 21  1  0
 19 18  1  1
 20 19  1  0
 22 21  1  1
 22 23  1  0
 22 24  1  0
 24 25  2  0
 24 26  1  0
M  END
$$$$
