IKL.pdb
     RDKit          3D

 26 25  0  0  1  0  0  0  0  0999 V2000
    8.4737  -11.7681   18.6847 C   0  0  0  0  0  0  0  0  0  0  0  0
    8.7203  -13.2677   18.4921 C   0  0  0  0  0  0  0  0  0  0  0  0
    8.1350  -13.9557   19.7030 C   0  0  2  0  0  0  0  0  0  0  0  0
    8.6869  -13.2863   20.9216 C   0  0  0  0  0  0  0  0  0  0  0  0
    8.2900  -15.4421   19.6814 C   0  0  2  0  0  0  0  0  0  0  0  0
    7.7708  -15.9534   18.4499 N   0  0  0  0  0  0  0  0  0  0  0  0
    7.6597  -16.0987   20.8596 C   0  0  0  0  0  0  0  0  0  0  0  0
    6.4231  -16.1954   20.9935 O   0  0  0  0  0  0  0  0  0  0  0  0
    8.5147  -16.6254   21.8522 N   0  0  0  0  0  0  0  0  0  0  0  0
    8.1715  -17.1383   23.1306 C   0  0  1  0  0  0  0  0  0  0  0  0
    8.2386  -18.6680   23.2404 C   0  0  0  0  0  0  0  0  0  0  0  0
    7.8091  -19.1996   24.5602 C   0  0  0  0  0  0  0  0  0  0  0  0
    7.9511  -20.7097   24.6773 C   0  0  0  0  0  0  0  0  0  0  0  0
    7.4841  -21.2479   25.9912 C   0  0  0  0  0  0  0  0  0  0  0  0
    7.7437  -22.6796   26.0371 N   0  0  0  0  0  0  0  0  0  0  0  0
    8.7329  -16.4470   24.2844 C   0  0  0  0  0  0  0  0  0  0  0  0
    9.9954  -16.3698   24.4956 O   0  0  0  0  0  0  0  0  0  0  0  0
    6.2686  -11.9695   26.2304 C   0  0  0  0  0  0  0  0  0  0  0  0
    7.3110  -12.9903   25.7614 C   0  0  1  0  0  0  0  0  0  0  0  0
    8.5712  -12.2664   25.3538 C   0  0  0  0  0  0  0  0  0  0  0  0
    7.5809  -13.9983   26.8585 C   0  0  0  0  0  0  0  0  0  0  0  0
    8.4803  -15.1054   26.4015 C   0  0  2  0  0  0  0  0  0  0  0  0
    7.9265  -15.8165   25.2448 N   0  0  0  0  0  0  0  0  0  0  0  0
    8.7621  -16.0795   27.4882 C   0  0  0  0  0  0  0  0  0  0  0  0
    7.9782  -17.0380   27.6624 O   0  0  0  0  0  0  0  0  0  0  0  0
    9.8600  -15.9562   28.3064 O   0  0  0  0  0  0  0  0  0  0  0  0
  2  1  1  0
  3  2  1  0
  3  4  1  1
  5  3  1  0
  5  6  1  6
  7  5  1  0
  7  8  2  0
  9  7  1  0
 10  9  1  0
 10 11  1  6
 12 11  1  0
 13 12  1  0
 13 14  1  0
 15 14  1  0
 16 23  1  0
 16 10  1  0
 17 16  2  0
 19 21  1  0
 19 18  1  1
 20 19  1  0
 22 21  1  1
 22 23  1  0
 22 24  1  0
 24 25  2  0
 24 26  1  0
M  END
$$$$
