IKL.pdb
     RDKit          3D

 26 25  0  0  1  0  0  0  0  0999 V2000
    6.4372  -21.0788   27.7730 C   0  0  0  0  0  0  0  0  0  0  0  0
    6.3926  -21.1267   26.2426 C   0  0  0  0  0  0  0  0  0  0  0  0
    7.1073  -19.8880   25.7556 C   0  0  2  0  0  0  0  0  0  0  0  0
    6.4657  -18.7034   26.4060 C   0  0  0  0  0  0  0  0  0  0  0  0
    7.2137  -19.8031   24.2673 C   0  0  2  0  0  0  0  0  0  0  0  0
    7.7741  -21.0196   23.7635 N   0  0  0  0  0  0  0  0  0  0  0  0
    7.9866  -18.6129   23.8173 C   0  0  0  0  0  0  0  0  0  0  0  0
    9.2334  -18.5734   23.8397 O   0  0  0  0  0  0  0  0  0  0  0  0
    7.2590  -17.4964   23.3508 N   0  0  0  0  0  0  0  0  0  0  0  0
    7.7324  -16.1860   23.0784 C   0  0  1  0  0  0  0  0  0  0  0  0
    7.2886  -15.6193   21.7226 C   0  0  0  0  0  0  0  0  0  0  0  0
    8.0223  -14.3946   21.3090 C   0  0  0  0  0  0  0  0  0  0  0  0
    7.7052  -13.9525   19.8883 C   0  0  0  0  0  0  0  0  0  0  0  0
    8.5371  -12.7993   19.4278 C   0  0  0  0  0  0  0  0  0  0  0  0
    8.1149  -12.4141   18.0889 N   0  0  0  0  0  0  0  0  0  0  0  0
    7.6488  -15.2214   24.1678 C   0  0  0  0  0  0  0  0  0  0  0  0
    6.5669  -15.0136   24.8242 O   0  0  0  0  0  0  0  0  0  0  0  0
    5.3734  -12.9709   26.6774 C   0  0  0  0  0  0  0  0  0  0  0  0
    6.7264  -12.9993   25.9585 C   0  0  1  0  0  0  0  0  0  0  0  0
    7.2485  -11.5899   25.8199 C   0  0  0  0  0  0  0  0  0  0  0  0
    7.6987  -13.8785   26.7164 C   0  0  0  0  0  0  0  0  0  0  0  0
    8.9830  -14.0756   25.9713 C   0  0  2  0  0  0  0  0  0  0  0  0
    8.7510  -14.4527   24.5734 N   0  0  0  0  0  0  0  0  0  0  0  0
    9.8519  -15.0941   26.6172 C   0  0  0  0  0  0  0  0  0  0  0  0
   10.2421  -14.9033   27.7898 O   0  0  0  0  0  0  0  0  0  0  0  0
   10.2380  -16.2392   25.9618 O   0  0  0  0  0  0  0  0  0  0  0  0
  2  1  1  0
  3  2  1  0
  3  4  1  6
  5  3  1  0
  5  6  1  1
  7  5  1  0
  7  8  2  0
  9  7  1  0
 10  9  1  0
 10 11  1  6
 12 11  1  0
 13 12  1  0
 13 14  1  0
 15 14  1  0
 16 23  1  0
 16 10  1  0
 17 16  2  0
 19 21  1  0
 19 18  1  1
 20 19  1  0
 22 21  1  1
 22 23  1  0
 22 24  1  0
 24 25  2  0
 24 26  1  0
M  END
$$$$
