IKL.pdb
     RDKit          3D

 26 25  0  0  1  0  0  0  0  0999 V2000
    7.5555  -11.9834   18.5860 C   0  0  0  0  0  0  0  0  0  0  0  0
    7.9055  -13.4673   18.4369 C   0  0  0  0  0  0  0  0  0  0  0  0
    7.8952  -14.0506   19.8304 C   0  0  2  0  0  0  0  0  0  0  0  0
    8.7930  -13.2125   20.6845 C   0  0  0  0  0  0  0  0  0  0  0  0
    8.1844  -15.5164   19.8691 C   0  0  2  0  0  0  0  0  0  0  0  0
    7.2555  -16.2036   19.0250 N   0  0  0  0  0  0  0  0  0  0  0  0
    8.1787  -16.0629   21.2539 C   0  0  0  0  0  0  0  0  0  0  0  0
    7.1251  -16.3228   21.8695 O   0  0  0  0  0  0  0  0  0  0  0  0
    9.4263  -16.2879   21.8754 N   0  0  0  0  0  0  0  0  0  0  0  0
    9.6854  -16.7819   23.1808 C   0  0  1  0  0  0  0  0  0  0  0  0
   10.8134  -17.8204   23.2548 C   0  0  0  0  0  0  0  0  0  0  0  0
   10.9437  -18.4791   24.5808 C   0  0  0  0  0  0  0  0  0  0  0  0
   12.0593  -19.5120   24.6341 C   0  0  0  0  0  0  0  0  0  0  0  0
   12.1834  -20.1810   25.9648 C   0  0  0  0  0  0  0  0  0  0  0  0
   11.5684  -21.4986   25.8930 N   0  0  0  0  0  0  0  0  0  0  0  0
    9.7290  -15.7979   24.2552 C   0  0  0  0  0  0  0  0  0  0  0  0
   10.5764  -14.8355   24.2757 O   0  0  0  0  0  0  0  0  0  0  0  0
    7.5169  -12.3598   25.5908 C   0  0  0  0  0  0  0  0  0  0  0  0
    7.2864  -12.9929   26.9673 C   0  0  1  0  0  0  0  0  0  0  0  0
    5.8970  -12.6514   27.4481 C   0  0  0  0  0  0  0  0  0  0  0  0
    7.4941  -14.4908   26.8912 C   0  0  0  0  0  0  0  0  0  0  0  0
    8.8720  -14.8485   26.4254 C   0  0  2  0  0  0  0  0  0  0  0  0
    8.8430  -15.8374   25.3431 N   0  0  0  0  0  0  0  0  0  0  0  0
    9.7206  -15.3583   27.5341 C   0  0  0  0  0  0  0  0  0  0  0  0
   10.0926  -14.5661   28.4272 O   0  0  0  0  0  0  0  0  0  0  0  0
   10.1076  -16.6756   27.6049 O   0  0  0  0  0  0  0  0  0  0  0  0
  2  1  1  0
  3  2  1  0
  3  4  1  1
  5  3  1  0
  5  6  1  6
  7  5  1  0
  7  8  2  0
  9  7  1  0
 10  9  1  0
 10 11  1  6
 12 11  1  0
 13 12  1  0
 13 14  1  0
 15 14  1  0
 16 23  1  0
 16 10  1  0
 17 16  2  0
 19 21  1  0
 19 18  1  6
 20 19  1  0
 22 21  1  1
 22 23  1  0
 22 24  1  0
 24 25  2  0
 24 26  1  0
M  END
$$$$
