IKL.pdb
     RDKit          3D

 26 25  0  0  1  0  0  0  0  0999 V2000
    7.9788  -12.5262   18.2902 C   0  0  0  0  0  0  0  0  0  0  0  0
    8.3869  -13.8942   18.8459 C   0  0  0  0  0  0  0  0  0  0  0  0
    7.6171  -14.0794   20.1325 C   0  0  2  0  0  0  0  0  0  0  0  0
    7.8540  -12.8737   20.9856 C   0  0  0  0  0  0  0  0  0  0  0  0
    7.8835  -15.3858   20.8079 C   0  0  2  0  0  0  0  0  0  0  0  0
    7.6179  -16.4535   19.8929 N   0  0  0  0  0  0  0  0  0  0  0  0
    7.1150  -15.5411   22.0735 C   0  0  0  0  0  0  0  0  0  0  0  0
    6.6339  -14.5697   22.6911 O   0  0  0  0  0  0  0  0  0  0  0  0
    6.9362  -16.8484   22.5760 N   0  0  0  0  0  0  0  0  0  0  0  0
    7.5784  -17.4637   23.6825 C   0  0  1  0  0  0  0  0  0  0  0  0
    8.2857  -18.7854   23.3520 C   0  0  0  0  0  0  0  0  0  0  0  0
    8.5660  -19.6353   24.5387 C   0  0  0  0  0  0  0  0  0  0  0  0
    7.3120  -20.2188   25.1723 C   0  0  0  0  0  0  0  0  0  0  0  0
    7.6001  -21.1552   26.3010 C   0  0  0  0  0  0  0  0  0  0  0  0
    6.3471  -21.5227   26.9446 N   0  0  0  0  0  0  0  0  0  0  0  0
    8.3533  -16.5916   24.5562 C   0  0  0  0  0  0  0  0  0  0  0  0
    9.6347  -16.6183   24.5976 O   0  0  0  0  0  0  0  0  0  0  0  0
    5.9804  -12.0322   26.4966 C   0  0  0  0  0  0  0  0  0  0  0  0
    7.0026  -12.9961   25.8847 C   0  0  1  0  0  0  0  0  0  0  0  0
    7.9817  -12.2167   25.0408 C   0  0  0  0  0  0  0  0  0  0  0  0
    7.7072  -13.7694   26.9794 C   0  0  0  0  0  0  0  0  0  0  0  0
    8.4921  -14.9256   26.4405 C   0  0  2  0  0  0  0  0  0  0  0  0
    7.7467  -15.6604   25.4136 N   0  0  0  0  0  0  0  0  0  0  0  0
    8.9072  -15.8664   27.5139 C   0  0  0  0  0  0  0  0  0  0  0  0
    9.6876  -15.4648   28.4045 O   0  0  0  0  0  0  0  0  0  0  0  0
    8.4573  -17.1648   27.5545 O   0  0  0  0  0  0  0  0  0  0  0  0
  2  1  1  0
  3  2  1  0
  3  4  1  1
  5  3  1  0
  5  6  1  6
  7  5  1  0
  7  8  2  0
  9  7  1  0
 10  9  1  0
 10 11  1  6
 12 11  1  0
 13 12  1  0
 13 14  1  0
 15 14  1  0
 16 23  1  0
 16 10  1  0
 17 16  2  0
 19 21  1  0
 19 18  1  1
 20 19  1  0
 22 21  1  1
 22 23  1  0
 22 24  1  0
 24 25  2  0
 24 26  1  0
M  END
$$$$
