MTN.pdb
     RDKit          3D

 24 23  0  0  1  0  0  0  0  0999 V2000
   28.1066  -18.4257   -5.9038 C   0  0  0  0  0  0  0  0  0  0  0  0
   28.4683  -20.0757   -6.5203 S   0  0  0  0  0  0  0  0  0  0  0  0
   27.0035  -20.9365   -7.1034 C   0  0  0  0  0  0  0  0  0  0  0  0
   26.4707  -20.3304   -8.3856 C   0  0  0  0  0  0  0  0  0  0  0  0
   26.6961  -21.2157   -9.5707 C   0  0  2  0  0  0  0  0  0  0  0  0
   28.1146  -21.4668   -9.6997 N   0  0  0  0  0  0  0  0  0  0  0  0
   26.1323  -20.6404  -10.8266 C   0  0  0  0  0  0  0  0  0  0  0  0
   26.7118  -19.6767  -11.3470 O   0  0  0  0  0  0  0  0  0  0  0  0
   25.9068  -22.0775  -14.1203 C   0  0  0  0  0  0  0  0  0  0  0  0
   24.5133  -21.7419  -13.7095 C   0  0  1  0  0  0  0  0  0  0  0  0
   23.8012  -22.8509  -13.2502 O   0  0  0  0  0  0  0  0  0  0  0  0
   24.4244  -20.6641  -12.6756 C   0  0  2  0  0  0  0  0  0  0  0  0
   24.9541  -21.1836  -11.4178 N   0  0  0  0  0  0  0  0  0  0  0  0
   22.9773  -20.3673  -12.4493 C   0  0  0  0  0  0  0  0  0  0  0  0
   22.3456  -20.8139  -11.4474 O   0  0  0  0  0  0  0  0  0  0  0  0
   18.7421  -16.6608  -12.5740 N   0  0  0  0  0  0  0  0  0  0  0  0
   19.0213  -17.6528  -13.5811 C   0  0  0  0  0  0  0  0  0  0  0  0
   18.0327  -18.1607  -14.1444 O   0  0  0  0  0  0  0  0  0  0  0  0
   20.4383  -17.9765  -13.8538 C   0  0  0  0  0  0  0  0  0  0  0  0
   20.8246  -19.1951  -13.0914 C   0  0  2  0  0  0  0  0  0  0  0  0
   22.2281  -19.5628  -13.3519 N   0  0  0  0  0  0  0  0  0  0  0  0
   20.0279  -20.3567  -13.5542 C   0  0  0  0  0  0  0  0  0  0  0  0
   20.3612  -21.0638  -14.5487 O   0  0  0  0  0  0  0  0  0  0  0  0
   18.8364  -20.7603  -12.9180 O   0  0  0  0  0  0  0  0  0  0  0  0
  1  2  1  0
  2  3  1  0
  4  5  1  0
  4  3  1  0
  5  6  1  6
  7  5  1  0
  8  7  2  0
 10  9  1  1
 10 11  1  0
 10 12  1  0
 12 14  1  0
 12 13  1  1
 13  7  1  0
 14 15  2  0
 16 17  1  0
 17 19  1  0
 18 17  2  0
 20 19  1  6
 21 20  1  0
 21 14  1  0
 22 20  1  0
 23 22  2  0
 24 22  1  0
M  END
$$$$
