MTN.pdb
     RDKit          3D

 24 23  0  0  1  0  0  0  0  0999 V2000
   27.1621  -18.4763   -5.3766 C   0  0  0  0  0  0  0  0  0  0  0  0
   28.5992  -19.4787   -5.7812 S   0  0  0  0  0  0  0  0  0  0  0  0
   28.3121  -20.5747   -7.1752 C   0  0  0  0  0  0  0  0  0  0  0  0
   27.5046  -19.8974   -8.2634 C   0  0  0  0  0  0  0  0  0  0  0  0
   27.0832  -20.8508   -9.3370 C   0  0  2  0  0  0  0  0  0  0  0  0
   28.2568  -21.5264   -9.8449 N   0  0  0  0  0  0  0  0  0  0  0  0
   26.3303  -20.1760  -10.4342 C   0  0  0  0  0  0  0  0  0  0  0  0
   26.8463  -19.1952  -10.9885 O   0  0  0  0  0  0  0  0  0  0  0  0
   26.6664  -20.2670  -13.2873 C   0  0  0  0  0  0  0  0  0  0  0  0
   25.2786  -20.8083  -13.2217 C   0  0  1  0  0  0  0  0  0  0  0  0
   25.2431  -22.2003  -13.1273 O   0  0  0  0  0  0  0  0  0  0  0  0
   24.4535  -20.2399  -12.1106 C   0  0  2  0  0  0  0  0  0  0  0  0
   25.0463  -20.6452  -10.8389 N   0  0  0  0  0  0  0  0  0  0  0  0
   23.0995  -20.8687  -12.1800 C   0  0  0  0  0  0  0  0  0  0  0  0
   22.8137  -21.9268  -11.5468 O   0  0  0  0  0  0  0  0  0  0  0  0
   19.2459  -19.0734  -15.5550 N   0  0  0  0  0  0  0  0  0  0  0  0
   20.0992  -18.9986  -14.3963 C   0  0  0  0  0  0  0  0  0  0  0  0
   21.1261  -18.3021  -14.5113 O   0  0  0  0  0  0  0  0  0  0  0  0
   19.6865  -19.7453  -13.1884 C   0  0  0  0  0  0  0  0  0  0  0  0
   20.6736  -20.8240  -12.9103 C   0  0  2  0  0  0  0  0  0  0  0  0
   22.0538  -20.3091  -12.9652 N   0  0  0  0  0  0  0  0  0  0  0  0
   20.6046  -21.8598  -13.9690 C   0  0  0  0  0  0  0  0  0  0  0  0
   19.6163  -22.6377  -14.1033 O   0  0  0  0  0  0  0  0  0  0  0  0
   21.6386  -22.0547  -14.9071 O   0  0  0  0  0  0  0  0  0  0  0  0
  1  2  1  0
  2  3  1  0
  4  5  1  0
  4  3  1  0
  5  6  1  6
  7  5  1  0
  8  7  2  0
 10  9  1  1
 10 11  1  0
 10 12  1  0
 12 14  1  0
 12 13  1  1
 13  7  1  0
 14 15  2  0
 16 17  1  0
 17 19  1  0
 18 17  2  0
 20 19  1  6
 21 20  1  0
 21 14  1  0
 22 20  1  0
 23 22  2  0
 24 22  1  0
M  END
$$$$
