MTN.pdb
     RDKit          3D

 24 23  0  0  1  0  0  0  0  0999 V2000
   23.4620  -17.9681  -14.8545 C   0  0  0  0  0  0  0  0  0  0  0  0
   23.6409  -16.4066  -15.7279 S   0  0  0  0  0  0  0  0  0  0  0  0
   24.9205  -15.3597  -15.0254 C   0  0  0  0  0  0  0  0  0  0  0  0
   25.0262  -14.0370  -15.7566 C   0  0  0  0  0  0  0  0  0  0  0  0
   23.9733  -13.8819  -16.8084 C   0  0  2  0  0  0  0  0  0  0  0  0
   24.2485  -14.8115  -17.8817 N   0  0  0  0  0  0  0  0  0  0  0  0
   23.8778  -12.4823  -17.3163 C   0  0  0  0  0  0  0  0  0  0  0  0
   24.7995  -12.0448  -18.0195 O   0  0  0  0  0  0  0  0  0  0  0  0
   21.6501  -10.9928  -19.7635 C   0  0  0  0  0  0  0  0  0  0  0  0
   21.4301  -10.2959  -18.4639 C   0  0  1  0  0  0  0  0  0  0  0  0
   20.3279  -10.7888  -17.7637 O   0  0  0  0  0  0  0  0  0  0  0  0
   22.6155  -10.3171  -17.5513 C   0  0  2  0  0  0  0  0  0  0  0  0
   22.7538  -11.6633  -17.0024 N   0  0  0  0  0  0  0  0  0  0  0  0
   22.3237   -9.4063  -16.4030 C   0  0  0  0  0  0  0  0  0  0  0  0
   21.8608   -9.8324  -15.3046 O   0  0  0  0  0  0  0  0  0  0  0  0
   21.5623   -5.3874  -13.4556 N   0  0  0  0  0  0  0  0  0  0  0  0
   22.4671   -4.8680  -14.4494 C   0  0  0  0  0  0  0  0  0  0  0  0
   22.8243   -3.6830  -14.3050 O   0  0  0  0  0  0  0  0  0  0  0  0
   22.8867   -5.7753  -15.5392 C   0  0  0  0  0  0  0  0  0  0  0  0
   22.2150   -7.0933  -15.3740 C   0  0  2  0  0  0  0  0  0  0  0  0
   22.5516   -8.0045  -16.4828 N   0  0  0  0  0  0  0  0  0  0  0  0
   20.7436   -6.9251  -15.4443 C   0  0  0  0  0  0  0  0  0  0  0  0
   20.1197   -6.7997  -16.5374 O   0  0  0  0  0  0  0  0  0  0  0  0
   19.9288   -6.8924  -14.2944 O   0  0  0  0  0  0  0  0  0  0  0  0
  1  2  1  0
  2  3  1  0
  4  5  1  0
  4  3  1  0
  5  6  1  6
  7  5  1  0
  8  7  2  0
 10  9  1  6
 10 11  1  0
 10 12  1  0
 12 14  1  0
 12 13  1  1
 13  7  1  0
 14 15  2  0
 16 17  1  0
 17 19  1  0
 18 17  2  0
 20 19  1  6
 21 20  1  0
 21 14  1  0
 22 20  1  0
 23 22  2  0
 24 22  1  0
M  END
$$$$
