MTN.pdb
     RDKit          3D

 24 23  0  0  1  0  0  0  0  0999 V2000
   26.4424  -19.5457   -5.1988 C   0  0  0  0  0  0  0  0  0  0  0  0
   27.7086  -19.9750   -6.4012 S   0  0  0  0  0  0  0  0  0  0  0  0
   27.2384  -19.5594   -8.0843 C   0  0  0  0  0  0  0  0  0  0  0  0
   28.2875  -20.0006   -9.0843 C   0  0  0  0  0  0  0  0  0  0  0  0
   27.8224  -21.1433   -9.9310 C   0  0  2  0  0  0  0  0  0  0  0  0
   28.9793  -21.8656  -10.4123 N   0  0  0  0  0  0  0  0  0  0  0  0
   26.9539  -20.6989  -11.0599 C   0  0  0  0  0  0  0  0  0  0  0  0
   27.3301  -19.7439  -11.7540 O   0  0  0  0  0  0  0  0  0  0  0  0
   24.1455  -22.6744  -14.4792 C   0  0  0  0  0  0  0  0  0  0  0  0
   24.9750  -22.6107  -13.2418 C   0  0  1  0  0  0  0  0  0  0  0  0
   26.2676  -23.1026  -13.4294 O   0  0  0  0  0  0  0  0  0  0  0  0
   25.0739  -21.2434  -12.6427 C   0  0  2  0  0  0  0  0  0  0  0  0
   25.7189  -21.3549  -11.3373 N   0  0  0  0  0  0  0  0  0  0  0  0
   23.6842  -20.7495  -12.4012 C   0  0  0  0  0  0  0  0  0  0  0  0
   23.2033  -20.6308  -11.2363 O   0  0  0  0  0  0  0  0  0  0  0  0
   19.2078  -18.5390  -12.7530 N   0  0  0  0  0  0  0  0  0  0  0  0
   20.1982  -17.7216  -13.4066 C   0  0  0  0  0  0  0  0  0  0  0  0
   19.8578  -16.5543  -13.6793 O   0  0  0  0  0  0  0  0  0  0  0  0
   21.5145  -18.3321  -13.6924 C   0  0  0  0  0  0  0  0  0  0  0  0
   21.5123  -19.7504  -13.2409 C   0  0  2  0  0  0  0  0  0  0  0  0
   22.8228  -20.3844  -13.4726 N   0  0  0  0  0  0  0  0  0  0  0  0
   20.5524  -20.5388  -14.0504 C   0  0  0  0  0  0  0  0  0  0  0  0
   20.7146  -20.7564  -15.2858 O   0  0  0  0  0  0  0  0  0  0  0  0
   19.3846  -21.1061  -13.5012 O   0  0  0  0  0  0  0  0  0  0  0  0
  1  2  1  0
  2  3  1  0
  4  5  1  0
  4  3  1  0
  5  6  1  6
  7  5  1  0
  8  7  2  0
 10  9  1  6
 10 11  1  0
 10 12  1  0
 12 14  1  0
 12 13  1  1
 13  7  1  0
 14 15  2  0
 16 17  1  0
 17 19  1  0
 18 17  2  0
 20 19  1  6
 21 20  1  0
 21 14  1  0
 22 20  1  0
 23 22  2  0
 24 22  1  0
M  END
$$$$
