MTN.pdb
     RDKit          3D

 24 23  0  0  1  0  0  0  0  0999 V2000
   29.4366  -19.2085   -5.4531 C   0  0  0  0  0  0  0  0  0  0  0  0
   27.9607  -19.7725   -4.5944 S   0  0  0  0  0  0  0  0  0  0  0  0
   26.6115  -20.1631   -5.7141 C   0  0  0  0  0  0  0  0  0  0  0  0
   26.9318  -19.7608   -7.1392 C   0  0  0  0  0  0  0  0  0  0  0  0
   25.7708  -19.9602   -8.0619 C   0  0  2  0  0  0  0  0  0  0  0  0
   25.1232  -21.2102   -7.7301 N   0  0  0  0  0  0  0  0  0  0  0  0
   26.1724  -19.9238   -9.4984 C   0  0  0  0  0  0  0  0  0  0  0  0
   27.2540  -19.3976   -9.7961 O   0  0  0  0  0  0  0  0  0  0  0  0
   27.3913  -22.1518  -11.9815 C   0  0  0  0  0  0  0  0  0  0  0  0
   26.0564  -21.6849  -12.4541 C   0  0  1  0  0  0  0  0  0  0  0  0
   25.0333  -22.5910  -12.1708 O   0  0  0  0  0  0  0  0  0  0  0  0
   25.6568  -20.3433  -11.9263 C   0  0  2  0  0  0  0  0  0  0  0  0
   25.3343  -20.4803  -10.5086 N   0  0  0  0  0  0  0  0  0  0  0  0
   24.3985  -19.9357  -12.6218 C   0  0  0  0  0  0  0  0  0  0  0  0
   23.2546  -20.1284  -12.1151 O   0  0  0  0  0  0  0  0  0  0  0  0
   20.9827  -18.0056  -15.7636 N   0  0  0  0  0  0  0  0  0  0  0  0
   22.2146  -17.6322  -16.4110 C   0  0  0  0  0  0  0  0  0  0  0  0
   22.1078  -16.9578  -17.4533 O   0  0  0  0  0  0  0  0  0  0  0  0
   23.4807  -18.0765  -15.7895 C   0  0  0  0  0  0  0  0  0  0  0  0
   23.1808  -18.9085  -14.5923 C   0  0  2  0  0  0  0  0  0  0  0  0
   24.4184  -19.3059  -13.8971 N   0  0  0  0  0  0  0  0  0  0  0  0
   22.5434  -20.1816  -15.0061 C   0  0  0  0  0  0  0  0  0  0  0  0
   21.2891  -20.3430  -15.0331 O   0  0  0  0  0  0  0  0  0  0  0  0
   23.2905  -21.3097  -15.4015 O   0  0  0  0  0  0  0  0  0  0  0  0
  1  2  1  0
  2  3  1  0
  4  5  1  0
  4  3  1  0
  5  6  1  1
  7  5  1  0
  8  7  2  0
 10  9  1  1
 10 11  1  0
 10 12  1  0
 12 14  1  0
 12 13  1  1
 13  7  1  0
 14 15  2  0
 16 17  1  0
 17 19  1  0
 18 17  2  0
 20 19  1  6
 21 20  1  0
 21 14  1  0
 22 20  1  0
 23 22  2  0
 24 22  1  0
M  END
$$$$
