MTN.pdb
     RDKit          3D

 24 23  0  0  1  0  0  0  0  0999 V2000
   31.6345  -21.8635   -8.7096 C   0  0  0  0  0  0  0  0  0  0  0  0
   30.2378  -20.9913   -9.4320 S   0  0  0  0  0  0  0  0  0  0  0  0
   28.7839  -22.0317   -9.6077 C   0  0  0  0  0  0  0  0  0  0  0  0
   27.5796  -21.2379  -10.0710 C   0  0  0  0  0  0  0  0  0  0  0  0
   27.3112  -21.4113  -11.5328 C   0  0  2  0  0  0  0  0  0  0  0  0
   28.5094  -21.0721  -12.2684 N   0  0  0  0  0  0  0  0  0  0  0  0
   26.1449  -20.6049  -11.9971 C   0  0  0  0  0  0  0  0  0  0  0  0
   26.3351  -19.4247  -12.3232 O   0  0  0  0  0  0  0  0  0  0  0  0
   25.2696  -19.5830  -14.5466 C   0  0  0  0  0  0  0  0  0  0  0  0
   24.1009  -20.4536  -14.2315 C   0  0  1  0  0  0  0  0  0  0  0  0
   24.2582  -21.7611  -14.6937 O   0  0  0  0  0  0  0  0  0  0  0  0
   23.7537  -20.5068  -12.7773 C   0  0  2  0  0  0  0  0  0  0  0  0
   24.8399  -21.1748  -12.0655 N   0  0  0  0  0  0  0  0  0  0  0  0
   22.5413  -21.3679  -12.6289 C   0  0  0  0  0  0  0  0  0  0  0  0
   22.4989  -22.3397  -11.8187 O   0  0  0  0  0  0  0  0  0  0  0  0
   18.1925  -22.8188  -10.3519 N   0  0  0  0  0  0  0  0  0  0  0  0
   18.2939  -21.7975  -11.3632 C   0  0  0  0  0  0  0  0  0  0  0  0
   17.2268  -21.4476  -11.9030 O   0  0  0  0  0  0  0  0  0  0  0  0
   19.6382  -21.2614  -11.6674 C   0  0  0  0  0  0  0  0  0  0  0  0
   20.0627  -21.7229  -13.0174 C   0  0  2  0  0  0  0  0  0  0  0  0
   21.3637  -21.1409  -13.3937 N   0  0  0  0  0  0  0  0  0  0  0  0
   19.1094  -21.2353  -14.0430 C   0  0  0  0  0  0  0  0  0  0  0  0
   19.1569  -20.0655  -14.5217 O   0  0  0  0  0  0  0  0  0  0  0  0
   18.0764  -22.0421  -14.5620 O   0  0  0  0  0  0  0  0  0  0  0  0
  1  2  1  0
  2  3  1  0
  4  5  1  0
  4  3  1  0
  5  6  1  6
  7  5  1  0
  8  7  2  0
 10  9  1  1
 10 11  1  0
 10 12  1  0
 12 14  1  0
 12 13  1  1
 13  7  1  0
 14 15  2  0
 16 17  1  0
 17 19  1  0
 18 17  2  0
 20 19  1  1
 21 20  1  0
 21 14  1  0
 22 20  1  0
 23 22  2  0
 24 22  1  0
M  END
$$$$
