MTN.pdb
     RDKit          3D

 24 23  0  0  1  0  0  0  0  0999 V2000
   21.6708  -20.0451   -9.1181 C   0  0  0  0  0  0  0  0  0  0  0  0
   22.8389  -20.6883   -7.9117 S   0  0  0  0  0  0  0  0  0  0  0  0
   24.4385  -21.0762   -8.6311 C   0  0  0  0  0  0  0  0  0  0  0  0
   24.5611  -20.5443  -10.0444 C   0  0  0  0  0  0  0  0  0  0  0  0
   25.8663  -20.9088  -10.6789 C   0  0  2  0  0  0  0  0  0  0  0  0
   26.9397  -20.5084   -9.7960 N   0  0  0  0  0  0  0  0  0  0  0  0
   26.0280  -20.3069  -12.0345 C   0  0  0  0  0  0  0  0  0  0  0  0
   26.3368  -19.1097  -12.1163 O   0  0  0  0  0  0  0  0  0  0  0  0
   27.2322  -21.0547  -16.7003 C   0  0  0  0  0  0  0  0  0  0  0  0
   26.9641  -21.4684  -15.2931 C   0  0  1  0  0  0  0  0  0  0  0  0
   28.1312  -21.6535  -14.5503 O   0  0  0  0  0  0  0  0  0  0  0  0
   26.0710  -20.5328  -14.5412 C   0  0  2  0  0  0  0  0  0  0  0  0
   25.8327  -21.0875  -13.2115 N   0  0  0  0  0  0  0  0  0  0  0  0
   24.7515  -20.4995  -15.2421 C   0  0  0  0  0  0  0  0  0  0  0  0
   23.8934  -21.4206  -15.1091 O   0  0  0  0  0  0  0  0  0  0  0  0
   21.0392  -16.6928  -18.4785 N   0  0  0  0  0  0  0  0  0  0  0  0
   21.4461  -17.9280  -17.8581 C   0  0  0  0  0  0  0  0  0  0  0  0
   20.6501  -18.8819  -17.9537 O   0  0  0  0  0  0  0  0  0  0  0  0
   22.7556  -17.9545  -17.1716 C   0  0  0  0  0  0  0  0  0  0  0  0
   23.0549  -19.3432  -16.7271 C   0  0  2  0  0  0  0  0  0  0  0  0
   24.3868  -19.4258  -16.1007 N   0  0  0  0  0  0  0  0  0  0  0  0
   23.1221  -20.2477  -17.9000 C   0  0  0  0  0  0  0  0  0  0  0  0
   24.1404  -20.3282  -18.6459 O   0  0  0  0  0  0  0  0  0  0  0  0
   22.0525  -21.0876  -18.2715 O   0  0  0  0  0  0  0  0  0  0  0  0
  1  2  1  0
  2  3  1  0
  4  5  1  0
  4  3  1  0
  5  6  1  1
  7  5  1  0
  8  7  2  0
 10  9  1  6
 10 11  1  0
 10 12  1  0
 12 14  1  0
 12 13  1  1
 13  7  1  0
 14 15  2  0
 16 17  1  0
 17 19  1  0
 18 17  2  0
 20 19  1  6
 21 20  1  0
 21 14  1  0
 22 20  1  0
 23 22  2  0
 24 22  1  0
M  END
$$$$
