MTN.pdb
     RDKit          3D

 24 23  0  0  1  0  0  0  0  0999 V2000
   18.0065  -13.1700  -22.7073 C   0  0  0  0  0  0  0  0  0  0  0  0
   18.8759  -14.3598  -21.6767 S   0  0  0  0  0  0  0  0  0  0  0  0
   20.4158  -13.7128  -21.0157 C   0  0  0  0  0  0  0  0  0  0  0  0
   20.2175  -13.0744  -19.6562 C   0  0  0  0  0  0  0  0  0  0  0  0
   21.1508  -11.9281  -19.4237 C   0  0  2  0  0  0  0  0  0  0  0  0
   22.5105  -12.3999  -19.5670 N   0  0  0  0  0  0  0  0  0  0  0  0
   20.9396  -11.2823  -18.0954 C   0  0  0  0  0  0  0  0  0  0  0  0
   19.8025  -10.8834  -17.8067 O   0  0  0  0  0  0  0  0  0  0  0  0
   22.9842  -10.1073  -13.6917 C   0  0  0  0  0  0  0  0  0  0  0  0
   22.9686  -10.8370  -14.9919 C   0  0  1  0  0  0  0  0  0  0  0  0
   22.9666  -12.2239  -14.8357 O   0  0  0  0  0  0  0  0  0  0  0  0
   21.8311  -10.4626  -15.8886 C   0  0  2  0  0  0  0  0  0  0  0  0
   22.0181  -11.1258  -17.1762 N   0  0  0  0  0  0  0  0  0  0  0  0
   21.9134   -8.9917  -16.1402 C   0  0  0  0  0  0  0  0  0  0  0  0
   22.9251   -8.4551  -16.6794 O   0  0  0  0  0  0  0  0  0  0  0  0
   18.0878   -6.7058  -18.1575 N   0  0  0  0  0  0  0  0  0  0  0  0
   19.4409   -6.3918  -17.7745 C   0  0  0  0  0  0  0  0  0  0  0  0
   20.2966   -6.4439  -18.6788 O   0  0  0  0  0  0  0  0  0  0  0  0
   19.6917   -6.0399  -16.3602 C   0  0  0  0  0  0  0  0  0  0  0  0
   20.9761   -6.6481  -15.9176 C   0  0  2  0  0  0  0  0  0  0  0  0
   20.8541   -8.1112  -15.7855 N   0  0  0  0  0  0  0  0  0  0  0  0
   21.3250   -6.1647  -14.5601 C   0  0  0  0  0  0  0  0  0  0  0  0
   21.6461   -4.9648  -14.3215 O   0  0  0  0  0  0  0  0  0  0  0  0
   21.3245   -7.0094  -13.4315 O   0  0  0  0  0  0  0  0  0  0  0  0
  1  2  1  0
  2  3  1  0
  4  5  1  0
  4  3  1  0
  5  6  1  1
  7  5  1  0
  8  7  2  0
 10  9  1  1
 10 11  1  0
 10 12  1  0
 12 14  1  0
 12 13  1  6
 13  7  1  0
 14 15  2  0
 16 17  1  0
 17 19  1  0
 18 17  2  0
 20 19  1  1
 21 20  1  0
 21 14  1  0
 22 20  1  0
 23 22  2  0
 24 22  1  0
M  END
$$$$
