MTN.pdb
     RDKit          3D

 24 23  0  0  1  0  0  0  0  0999 V2000
   31.4679  -21.1761  -11.1562 C   0  0  0  0  0  0  0  0  0  0  0  0
   30.8525  -21.4644   -9.4914 S   0  0  0  0  0  0  0  0  0  0  0  0
   29.0789  -21.7455   -9.4447 C   0  0  0  0  0  0  0  0  0  0  0  0
   28.3491  -20.8889  -10.4591 C   0  0  0  0  0  0  0  0  0  0  0  0
   26.8775  -21.1595  -10.4793 C   0  0  2  0  0  0  0  0  0  0  0  0
   26.6681  -22.5720  -10.7087 N   0  0  0  0  0  0  0  0  0  0  0  0
   26.1610  -20.3345  -11.4953 C   0  0  0  0  0  0  0  0  0  0  0  0
   26.1156  -19.1068  -11.3338 O   0  0  0  0  0  0  0  0  0  0  0  0
   26.9790  -19.4696  -14.8419 C   0  0  0  0  0  0  0  0  0  0  0  0
   25.6862  -20.2095  -14.9082 C   0  0  1  0  0  0  0  0  0  0  0  0
   25.8469  -21.5526  -15.2524 O   0  0  0  0  0  0  0  0  0  0  0  0
   24.8772  -20.1390  -13.6517 C   0  0  2  0  0  0  0  0  0  0  0  0
   25.5413  -20.9404  -12.6273 N   0  0  0  0  0  0  0  0  0  0  0  0
   23.5570  -20.7850  -13.9222 C   0  0  0  0  0  0  0  0  0  0  0  0
   23.3111  -21.9818  -13.5913 O   0  0  0  0  0  0  0  0  0  0  0  0
   18.7648  -22.0912  -13.3589 N   0  0  0  0  0  0  0  0  0  0  0  0
   18.9565  -20.6734  -13.5302 C   0  0  0  0  0  0  0  0  0  0  0  0
   17.9305  -19.9999  -13.7456 O   0  0  0  0  0  0  0  0  0  0  0  0
   20.3361  -20.1492  -13.4363 C   0  0  0  0  0  0  0  0  0  0  0  0
   21.1244  -20.6136  -14.6103 C   0  0  2  0  0  0  0  0  0  0  0  0
   22.5004  -20.0864  -14.5693 N   0  0  0  0  0  0  0  0  0  0  0  0
   20.5395  -20.0718  -15.8604 C   0  0  0  0  0  0  0  0  0  0  0  0
   20.8878  -18.9609  -16.3547 O   0  0  0  0  0  0  0  0  0  0  0  0
   19.5487  -20.7570  -16.5927 O   0  0  0  0  0  0  0  0  0  0  0  0
  1  2  1  0
  2  3  1  0
  4  5  1  0
  4  3  1  0
  5  6  1  6
  7  5  1  0
  8  7  2  0
 10  9  1  1
 10 11  1  0
 10 12  1  0
 12 14  1  0
 12 13  1  1
 13  7  1  0
 14 15  2  0
 16 17  1  0
 17 19  1  0
 18 17  2  0
 20 19  1  1
 21 20  1  0
 21 14  1  0
 22 20  1  0
 23 22  2  0
 24 22  1  0
M  END
$$$$
