MTN.pdb
     RDKit          3D

 24 23  0  0  1  0  0  0  0  0999 V2000
   29.2610  -19.9549   -4.1531 C   0  0  0  0  0  0  0  0  0  0  0  0
   28.7456  -19.6259   -5.8442 S   0  0  0  0  0  0  0  0  0  0  0  0
   27.1024  -20.2555   -6.2051 C   0  0  0  0  0  0  0  0  0  0  0  0
   26.6328  -19.8379   -7.5836 C   0  0  0  0  0  0  0  0  0  0  0  0
   26.8979  -20.8865   -8.6175 C   0  0  2  0  0  0  0  0  0  0  0  0
   28.3165  -21.1671   -8.6413 N   0  0  0  0  0  0  0  0  0  0  0  0
   26.4018  -20.4924   -9.9684 C   0  0  0  0  0  0  0  0  0  0  0  0
   26.9906  -19.5846  -10.5722 O   0  0  0  0  0  0  0  0  0  0  0  0
   26.5198  -21.9677  -13.1386 C   0  0  0  0  0  0  0  0  0  0  0  0
   25.0656  -21.8081  -12.8506 C   0  0  1  0  0  0  0  0  0  0  0  0
   24.4645  -22.9922  -12.4211 O   0  0  0  0  0  0  0  0  0  0  0  0
   24.7544  -20.7345  -11.8562 C   0  0  2  0  0  0  0  0  0  0  0  0
   25.2766  -21.1425  -10.5549 N   0  0  0  0  0  0  0  0  0  0  0  0
   23.2681  -20.6528  -11.7230 C   0  0  0  0  0  0  0  0  0  0  0  0
   22.7078  -20.2058  -10.6797 O   0  0  0  0  0  0  0  0  0  0  0  0
   19.3853  -18.4728  -12.5753 N   0  0  0  0  0  0  0  0  0  0  0  0
   20.5630  -17.9528  -13.2224 C   0  0  0  0  0  0  0  0  0  0  0  0
   20.5911  -16.7213  -13.4104 O   0  0  0  0  0  0  0  0  0  0  0  0
   21.6211  -18.9139  -13.6014 C   0  0  0  0  0  0  0  0  0  0  0  0
   21.2239  -20.2832  -13.1739 C   0  0  2  0  0  0  0  0  0  0  0  0
   22.3987  -21.0750  -12.7666 N   0  0  0  0  0  0  0  0  0  0  0  0
   20.6374  -21.0216  -14.3181 C   0  0  0  0  0  0  0  0  0  0  0  0
   21.3076  -21.3454  -15.3407 O   0  0  0  0  0  0  0  0  0  0  0  0
   19.2851  -21.4185  -14.3507 O   0  0  0  0  0  0  0  0  0  0  0  0
  1  2  1  0
  2  3  1  0
  4  5  1  0
  4  3  1  0
  5  6  1  6
  7  5  1  0
  8  7  2  0
 10  9  1  1
 10 11  1  0
 10 12  1  0
 12 14  1  0
 12 13  1  1
 13  7  1  0
 14 15  2  0
 16 17  1  0
 17 19  1  0
 18 17  2  0
 20 19  1  6
 21 20  1  0
 21 14  1  0
 22 20  1  0
 23 22  2  0
 24 22  1  0
M  END
$$$$
