MTN.pdb
     RDKit          3D

 24 23  0  0  1  0  0  0  0  0999 V2000
   28.0949  -15.6303  -14.7547 C   0  0  0  0  0  0  0  0  0  0  0  0
   28.5484  -16.7475  -16.0888 S   0  0  0  0  0  0  0  0  0  0  0  0
   27.4570  -18.1694  -16.2062 C   0  0  0  0  0  0  0  0  0  0  0  0
   28.0750  -19.4031  -15.5808 C   0  0  0  0  0  0  0  0  0  0  0  0
   28.1393  -19.3138  -14.0885 C   0  0  2  0  0  0  0  0  0  0  0  0
   29.5265  -19.3493  -13.6805 N   0  0  0  0  0  0  0  0  0  0  0  0
   27.3511  -20.3895  -13.4193 C   0  0  0  0  0  0  0  0  0  0  0  0
   27.7800  -21.5511  -13.4643 O   0  0  0  0  0  0  0  0  0  0  0  0
   26.3671  -20.9232   -9.8745 C   0  0  0  0  0  0  0  0  0  0  0  0
   25.1240  -20.8254  -10.6920 C   0  0  1  0  0  0  0  0  0  0  0  0
   24.5094  -19.5759  -10.5973 O   0  0  0  0  0  0  0  0  0  0  0  0
   25.3190  -21.1455  -12.1404 C   0  0  2  0  0  0  0  0  0  0  0  0
   26.1319  -20.0923  -12.7426 N   0  0  0  0  0  0  0  0  0  0  0  0
   23.9804  -21.0952  -12.8030 C   0  0  0  0  0  0  0  0  0  0  0  0
   23.4981  -20.0215  -13.2687 O   0  0  0  0  0  0  0  0  0  0  0  0
   19.4547  -22.1813  -14.7327 N   0  0  0  0  0  0  0  0  0  0  0  0
   20.0372  -23.4891  -14.5699 C   0  0  0  0  0  0  0  0  0  0  0  0
   19.3850  -24.4451  -15.0317 O   0  0  0  0  0  0  0  0  0  0  0  0
   21.3410  -23.5803  -13.8780 C   0  0  0  0  0  0  0  0  0  0  0  0
   21.8428  -22.2106  -13.5821 C   0  0  2  0  0  0  0  0  0  0  0  0
   23.1722  -22.2568  -12.9469 N   0  0  0  0  0  0  0  0  0  0  0  0
   20.9617  -21.5514  -12.5883 C   0  0  0  0  0  0  0  0  0  0  0  0
   19.7563  -21.2553  -12.8311 O   0  0  0  0  0  0  0  0  0  0  0  0
   21.4039  -21.2051  -11.2953 O   0  0  0  0  0  0  0  0  0  0  0  0
  1  2  1  0
  2  3  1  0
  4  5  1  0
  4  3  1  0
  5  6  1  1
  7  5  1  0
  8  7  2  0
 10  9  1  1
 10 11  1  0
 10 12  1  0
 12 14  1  0
 12 13  1  6
 13  7  1  0
 14 15  2  0
 16 17  1  0
 17 19  1  0
 18 17  2  0
 20 19  1  1
 21 20  1  0
 21 14  1  0
 22 20  1  0
 23 22  2  0
 24 22  1  0
M  END
$$$$
