MTN.pdb
     RDKit          3D

 24 23  0  0  1  0  0  0  0  0999 V2000
   29.6399  -19.3640  -18.4554 C   0  0  0  0  0  0  0  0  0  0  0  0
   29.1307  -17.6524  -18.2448 S   0  0  0  0  0  0  0  0  0  0  0  0
   28.3406  -17.3521  -16.6598 C   0  0  0  0  0  0  0  0  0  0  0  0
   28.0341  -18.6453  -15.9326 C   0  0  0  0  0  0  0  0  0  0  0  0
   26.5638  -18.8937  -15.8075 C   0  0  2  0  0  0  0  0  0  0  0  0
   25.9584  -17.7671  -15.1320 N   0  0  0  0  0  0  0  0  0  0  0  0
   26.2605  -20.1735  -15.1030 C   0  0  0  0  0  0  0  0  0  0  0  0
   26.6931  -21.2299  -15.5850 O   0  0  0  0  0  0  0  0  0  0  0  0
   27.0982  -20.9566  -11.5430 C   0  0  0  0  0  0  0  0  0  0  0  0
   25.6426  -21.2132  -11.7396 C   0  0  1  0  0  0  0  0  0  0  0  0
   24.8372  -20.2070  -11.2042 O   0  0  0  0  0  0  0  0  0  0  0  0
   25.2471  -21.4232  -13.1671 C   0  0  2  0  0  0  0  0  0  0  0  0
   25.4913  -20.1855  -13.9027 N   0  0  0  0  0  0  0  0  0  0  0  0
   23.7730  -21.6665  -13.2011 C   0  0  0  0  0  0  0  0  0  0  0  0
   23.2472  -22.6970  -12.6872 O   0  0  0  0  0  0  0  0  0  0  0  0
   18.8015  -21.4478  -13.5492 N   0  0  0  0  0  0  0  0  0  0  0  0
   19.2264  -20.0860  -13.3462 C   0  0  0  0  0  0  0  0  0  0  0  0
   18.3218  -19.2355  -13.2409 O   0  0  0  0  0  0  0  0  0  0  0  0
   20.6799  -19.8210  -13.2816 C   0  0  0  0  0  0  0  0  0  0  0  0
   21.4214  -20.9803  -13.8489 C   0  0  2  0  0  0  0  0  0  0  0  0
   22.8768  -20.7487  -13.8156 N   0  0  0  0  0  0  0  0  0  0  0  0
   21.0880  -21.1423  -15.2845 C   0  0  0  0  0  0  0  0  0  0  0  0
   21.7541  -20.5930  -16.2089 O   0  0  0  0  0  0  0  0  0  0  0  0
   20.0006  -21.9230  -15.7266 O   0  0  0  0  0  0  0  0  0  0  0  0
  1  2  1  0
  2  3  1  0
  4  5  1  0
  4  3  1  0
  5  6  1  1
  7  5  1  0
  8  7  2  0
 10  9  1  6
 10 11  1  0
 10 12  1  0
 12 14  1  0
 12 13  1  6
 13  7  1  0
 14 15  2  0
 16 17  1  0
 17 19  1  0
 18 17  2  0
 20 19  1  6
 21 20  1  0
 21 14  1  0
 22 20  1  0
 23 22  2  0
 24 22  1  0
M  END
$$$$
