MTN.pdb
     RDKit          3D

 24 23  0  0  1  0  0  0  0  0999 V2000
   17.4253  -21.5891  -12.8969 C   0  0  0  0  0  0  0  0  0  0  0  0
   17.2755  -22.3102  -14.5373 S   0  0  0  0  0  0  0  0  0  0  0  0
   18.8236  -22.2934  -15.4482 C   0  0  0  0  0  0  0  0  0  0  0  0
   19.4700  -20.9233  -15.4291 C   0  0  0  0  0  0  0  0  0  0  0  0
   20.7846  -20.9038  -16.1436 C   0  0  2  0  0  0  0  0  0  0  0  0
   21.6031  -21.9845  -15.6398 N   0  0  0  0  0  0  0  0  0  0  0  0
   21.4828  -19.5914  -16.0154 C   0  0  0  0  0  0  0  0  0  0  0  0
   22.2578  -19.4252  -15.0630 O   0  0  0  0  0  0  0  0  0  0  0  0
   23.9750  -18.0538  -18.2312 C   0  0  0  0  0  0  0  0  0  0  0  0
   22.8043  -17.1346  -18.1434 C   0  0  1  0  0  0  0  0  0  0  0  0
   21.9431  -17.2472  -19.2359 O   0  0  0  0  0  0  0  0  0  0  0  0
   21.9995  -17.2889  -16.8917 C   0  0  2  0  0  0  0  0  0  0  0  0
   21.2663  -18.5497  -16.9644 N   0  0  0  0  0  0  0  0  0  0  0  0
   20.9823  -16.1943  -16.8654 C   0  0  0  0  0  0  0  0  0  0  0  0
   19.7964  -16.3849  -16.4660 O   0  0  0  0  0  0  0  0  0  0  0  0
   18.5149  -11.8343  -17.0866 N   0  0  0  0  0  0  0  0  0  0  0  0
   18.9338  -12.3732  -15.8176 C   0  0  0  0  0  0  0  0  0  0  0  0
   18.4132  -11.8678  -14.8046 O   0  0  0  0  0  0  0  0  0  0  0  0
   19.9317  -13.4645  -15.8292 C   0  0  0  0  0  0  0  0  0  0  0  0
   20.3049  -13.7808  -17.2350 C   0  0  2  0  0  0  0  0  0  0  0  0
   21.2935  -14.8729  -17.2900 N   0  0  0  0  0  0  0  0  0  0  0  0
   20.9806  -12.6156  -17.8548 C   0  0  0  0  0  0  0  0  0  0  0  0
   22.2324  -12.5612  -18.0271 O   0  0  0  0  0  0  0  0  0  0  0  0
   20.2753  -11.4788  -18.2993 O   0  0  0  0  0  0  0  0  0  0  0  0
  1  2  1  0
  2  3  1  0
  4  5  1  0
  4  3  1  0
  5  6  1  1
  7  5  1  0
  8  7  2  0
 10  9  1  6
 10 11  1  0
 10 12  1  0
 12 14  1  0
 12 13  1  6
 13  7  1  0
 14 15  2  0
 16 17  1  0
 17 19  1  0
 18 17  2  0
 20 19  1  1
 21 20  1  0
 21 14  1  0
 22 20  1  0
 23 22  2  0
 24 22  1  0
M  END
$$$$
