MTN.pdb
     RDKit          3D

 24 23  0  0  1  0  0  0  0  0999 V2000
   25.8253  -31.9899  -19.3396 C   0  0  0  0  0  0  0  0  0  0  0  0
   26.3345  -30.3465  -19.8624 S   0  0  0  0  0  0  0  0  0  0  0  0
   27.9869  -30.3218  -20.5664 C   0  0  0  0  0  0  0  0  0  0  0  0
   28.8827  -31.3648  -19.9300 C   0  0  0  0  0  0  0  0  0  0  0  0
   30.0470  -30.7554  -19.2144 C   0  0  2  0  0  0  0  0  0  0  0  0
   30.7486  -29.8816  -20.1288 N   0  0  0  0  0  0  0  0  0  0  0  0
   30.9626  -31.7831  -18.6385 C   0  0  0  0  0  0  0  0  0  0  0  0
   31.7141  -32.4011  -19.4058 O   0  0  0  0  0  0  0  0  0  0  0  0
   33.7148  -31.3323  -16.3832 C   0  0  0  0  0  0  0  0  0  0  0  0
   32.8152  -32.3197  -15.7207 C   0  0  1  0  0  0  0  0  0  0  0  0
   32.0524  -31.7566  -14.6964 O   0  0  0  0  0  0  0  0  0  0  0  0
   31.8919  -33.0303  -16.6593 C   0  0  2  0  0  0  0  0  0  0  0  0
   30.9760  -32.0513  -17.2383 N   0  0  0  0  0  0  0  0  0  0  0  0
   31.0638  -33.9785  -15.8540 C   0  0  0  0  0  0  0  0  0  0  0  0
   29.8104  -33.8468  -15.7358 O   0  0  0  0  0  0  0  0  0  0  0  0
   29.3665  -37.6135  -12.8393 N   0  0  0  0  0  0  0  0  0  0  0  0
   28.7407  -37.1621  -14.0562 C   0  0  0  0  0  0  0  0  0  0  0  0
   27.6115  -37.6282  -14.3018 O   0  0  0  0  0  0  0  0  0  0  0  0
   29.4840  -36.1977  -14.8955 C   0  0  0  0  0  0  0  0  0  0  0  0
   30.8420  -35.9862  -14.3241 C   0  0  2  0  0  0  0  0  0  0  0  0
   31.6422  -35.0857  -15.1737 N   0  0  0  0  0  0  0  0  0  0  0  0
   31.5895  -37.2665  -14.3055 C   0  0  0  0  0  0  0  0  0  0  0  0
   31.1453  -38.3113  -13.7479 O   0  0  0  0  0  0  0  0  0  0  0  0
   32.8545  -37.4144  -14.9099 O   0  0  0  0  0  0  0  0  0  0  0  0
  1  2  1  0
  2  3  1  0
  4  5  1  0
  4  3  1  0
  5  6  1  6
  7  5  1  0
  8  7  2  0
 10  9  1  6
 10 11  1  0
 10 12  1  0
 12 14  1  0
 12 13  1  1
 13  7  1  0
 14 15  2  0
 16 17  1  0
 17 19  1  0
 18 17  2  0
 20 19  1  6
 21 20  1  0
 21 14  1  0
 22 20  1  0
 23 22  2  0
 24 22  1  0
M  END
$$$$
