MTN.pdb
     RDKit          3D

 24 23  0  0  1  0  0  0  0  0999 V2000
   15.0448  -10.8654  -14.6923 C   0  0  0  0  0  0  0  0  0  0  0  0
   14.5981  -12.3576  -15.5908 S   0  0  0  0  0  0  0  0  0  0  0  0
   15.9609  -13.0240  -16.5529 C   0  0  0  0  0  0  0  0  0  0  0  0
   17.2715  -12.3444  -16.2132 C   0  0  0  0  0  0  0  0  0  0  0  0
   18.3967  -12.8099  -17.0830 C   0  0  2  0  0  0  0  0  0  0  0  0
   18.6164  -14.2192  -16.8434 N   0  0  0  0  0  0  0  0  0  0  0  0
   19.6460  -12.0233  -16.8672 C   0  0  0  0  0  0  0  0  0  0  0  0
   20.5106  -12.4842  -16.1087 O   0  0  0  0  0  0  0  0  0  0  0  0
   21.8824  -10.8970  -19.7517 C   0  0  0  0  0  0  0  0  0  0  0  0
   21.5108   -9.7327  -18.8976 C   0  0  1  0  0  0  0  0  0  0  0  0
   20.4754   -8.9703  -19.4403 O   0  0  0  0  0  0  0  0  0  0  0  0
   21.1412  -10.0980  -17.4946 C   0  0  2  0  0  0  0  0  0  0  0  0
   19.8448  -10.7699  -17.5168 N   0  0  0  0  0  0  0  0  0  0  0  0
   20.9613   -8.8295  -16.7252 C   0  0  0  0  0  0  0  0  0  0  0  0
   19.8347   -8.2639  -16.6107 O   0  0  0  0  0  0  0  0  0  0  0  0
   21.9328   -4.5741  -14.1197 N   0  0  0  0  0  0  0  0  0  0  0  0
   22.7272   -5.5913  -13.4790 C   0  0  0  0  0  0  0  0  0  0  0  0
   23.3170   -5.2543  -12.4343 O   0  0  0  0  0  0  0  0  0  0  0  0
   22.7719   -6.9283  -14.1094 C   0  0  0  0  0  0  0  0  0  0  0  0
   21.8776   -6.9461  -15.2991 C   0  0  2  0  0  0  0  0  0  0  0  0
   22.0517   -8.1862  -16.0769 N   0  0  0  0  0  0  0  0  0  0  0  0
   22.2476   -5.8514  -16.2282 C   0  0  0  0  0  0  0  0  0  0  0  0
   21.9951   -4.6352  -15.9893 O   0  0  0  0  0  0  0  0  0  0  0  0
   22.9102   -6.0860  -17.4501 O   0  0  0  0  0  0  0  0  0  0  0  0
  1  2  1  0
  2  3  1  0
  4  5  1  0
  4  3  1  0
  5  6  1  1
  7  5  1  0
  8  7  2  0
 10  9  1  6
 10 11  1  0
 10 12  1  0
 12 14  1  0
 12 13  1  6
 13  7  1  0
 14 15  2  0
 16 17  1  0
 17 19  1  0
 18 17  2  0
 20 19  1  1
 21 20  1  0
 21 14  1  0
 22 20  1  0
 23 22  2  0
 24 22  1  0
M  END
$$$$
