SEG.pdb
     RDKit          3D

 20 19  0  0  1  0  0  0  0  0999 V2000
    9.9053  -13.3312   20.0711 O   0  0  0  0  0  0  0  0  0  0  0  0
    9.2179  -14.5298   19.9347 C   0  0  0  0  0  0  0  0  0  0  0  0
    7.7292  -14.3540   20.1193 C   0  0  2  0  0  0  0  0  0  0  0  0
    7.2957  -13.0180   19.8519 N   0  0  0  0  0  0  0  0  0  0  0  0
    7.2483  -14.8244   21.4186 C   0  0  0  0  0  0  0  0  0  0  0  0
    6.7851  -14.0702   22.3170 O   0  0  0  0  0  0  0  0  0  0  0  0
    7.3013  -16.2138   21.6970 N   0  0  0  0  0  0  0  0  0  0  0  0
    6.6572  -16.8051   22.8994 C   0  0  1  0  0  0  0  0  0  0  0  0
    6.2444  -18.1939   22.5686 C   0  0  0  0  0  0  0  0  0  0  0  0
    5.7215  -18.9941   23.6811 C   0  0  0  0  0  0  0  0  0  0  0  0
    5.3309  -20.3718   23.3826 C   0  0  0  0  0  0  0  0  0  0  0  0
    4.9256  -21.1117   24.3091 O   0  0  0  0  0  0  0  0  0  0  0  0
    7.5632  -16.5888   24.0175 C   0  0  0  0  0  0  0  0  0  0  0  0
    8.8244  -16.6507   23.7951 O   0  0  0  0  0  0  0  0  0  0  0  0
    5.3753  -20.9337   22.1105 O   0  0  0  0  0  0  0  0  0  0  0  0
    7.2157  -16.3015   25.3587 N   0  0  0  0  0  0  0  0  0  0  0  0
    8.1934  -16.0256   26.3898 C   0  0  0  0  0  0  0  0  0  0  0  0
    8.6052  -17.2510   27.1049 C   0  0  0  0  0  0  0  0  0  0  0  0
    9.3790  -17.0975   28.2436 O   0  0  0  0  0  0  0  0  0  0  0  0
    8.3030  -18.4132   26.7523 O   0  0  0  0  0  0  0  0  0  0  0  0
  2  1  1  0
  3  2  1  0
  3  4  1  1
  5  3  1  0
  5  6  2  0
  7  5  1  0
  8  7  1  0
  8  9  1  6
 10  9  1  0
 11 10  1  0
 12 11  2  0
 13  8  1  0
 13 16  1  0
 14 13  2  0
 15 11  1  0
 17 16  1  0
 18 17  1  0
 19 18  1  0
 20 18  2  0
M  END
$$$$
