SEG.pdb
     RDKit          3D

 20 19  0  0  1  0  0  0  0  0999 V2000
    9.0921  -15.7191   21.1408 O   0  0  0  0  0  0  0  0  0  0  0  0
   10.2354  -16.2859   20.5935 C   0  0  0  0  0  0  0  0  0  0  0  0
   10.4723  -17.6883   21.1020 C   0  0  2  0  0  0  0  0  0  0  0  0
    9.3863  -18.5708   20.8084 N   0  0  0  0  0  0  0  0  0  0  0  0
   10.8346  -17.7358   22.5188 C   0  0  0  0  0  0  0  0  0  0  0  0
   10.1227  -18.2680   23.4136 O   0  0  0  0  0  0  0  0  0  0  0  0
   12.0608  -17.1501   22.9236 N   0  0  0  0  0  0  0  0  0  0  0  0
   12.5741  -17.2697   24.3138 C   0  0  1  0  0  0  0  0  0  0  0  0
   14.0568  -17.3527   24.2549 C   0  0  0  0  0  0  0  0  0  0  0  0
   14.7481  -17.4736   25.5429 C   0  0  0  0  0  0  0  0  0  0  0  0
   16.2102  -17.5010   25.5123 C   0  0  0  0  0  0  0  0  0  0  0  0
   16.8566  -16.7627   26.2916 O   0  0  0  0  0  0  0  0  0  0  0  0
   11.9603  -16.2011   25.0877 C   0  0  0  0  0  0  0  0  0  0  0  0
   11.7351  -15.0826   24.5026 O   0  0  0  0  0  0  0  0  0  0  0  0
   16.9545  -18.3107   24.6602 O   0  0  0  0  0  0  0  0  0  0  0  0
   11.5609  -16.2462   26.4444 N   0  0  0  0  0  0  0  0  0  0  0  0
   10.8883  -15.1510   27.1102 C   0  0  0  0  0  0  0  0  0  0  0  0
   10.6492  -15.4351   28.5401 C   0  0  0  0  0  0  0  0  0  0  0  0
   10.0703  -14.4341   29.3028 O   0  0  0  0  0  0  0  0  0  0  0  0
   10.9334  -16.5148   29.1058 O   0  0  0  0  0  0  0  0  0  0  0  0
  2  1  1  0
  3  2  1  0
  3  4  1  1
  5  3  1  0
  5  6  2  0
  7  5  1  0
  8  7  1  0
  8  9  1  6
 10  9  1  0
 11 10  1  0
 12 11  2  0
 13  8  1  0
 13 16  1  0
 14 13  2  0
 15 11  1  0
 17 16  1  0
 18 17  1  0
 19 18  1  0
 20 18  2  0
M  END
$$$$
