SEG.pdb
     RDKit          3D

 20 19  0  0  1  0  0  0  0  0999 V2000
   -3.4491  -27.6316   30.2536 O   0  0  0  0  0  0  0  0  0  0  0  0
   -3.7252  -26.3261   30.6373 C   0  0  0  0  0  0  0  0  0  0  0  0
   -3.6432  -25.3643   29.4757 C   0  0  2  0  0  0  0  0  0  0  0  0
   -2.2963  -25.0930   29.0800 N   0  0  0  0  0  0  0  0  0  0  0  0
   -4.3978  -24.1297   29.6933 C   0  0  0  0  0  0  0  0  0  0  0  0
   -3.9745  -23.1513   30.3672 O   0  0  0  0  0  0  0  0  0  0  0  0
   -5.6873  -24.0141   29.1151 N   0  0  0  0  0  0  0  0  0  0  0  0
   -6.5100  -22.7837   29.2550 C   0  0  1  0  0  0  0  0  0  0  0  0
   -6.5698  -22.1128   27.9302 C   0  0  0  0  0  0  0  0  0  0  0  0
   -5.3530  -21.4122   27.5061 C   0  0  0  0  0  0  0  0  0  0  0  0
   -5.3891  -20.7469   26.2039 C   0  0  0  0  0  0  0  0  0  0  0  0
   -6.4333  -20.8009   25.5132 O   0  0  0  0  0  0  0  0  0  0  0  0
   -7.7537  -23.1743   29.9016 C   0  0  0  0  0  0  0  0  0  0  0  0
   -8.2934  -24.2846   29.5547 O   0  0  0  0  0  0  0  0  0  0  0  0
   -4.3210  -20.0375   25.6640 O   0  0  0  0  0  0  0  0  0  0  0  0
   -8.4592  -22.4646   30.9020 N   0  0  0  0  0  0  0  0  0  0  0  0
   -9.7090  -22.9246   31.4690 C   0  0  0  0  0  0  0  0  0  0  0  0
  -10.8181  -22.8543   30.4956 C   0  0  0  0  0  0  0  0  0  0  0  0
  -12.0771  -23.2326   30.9322 O   0  0  0  0  0  0  0  0  0  0  0  0
  -10.6967  -22.4775   29.3083 O   0  0  0  0  0  0  0  0  0  0  0  0
  2  1  1  0
  3  2  1  0
  3  4  1  1
  5  3  1  0
  5  6  2  0
  7  5  1  0
  8  7  1  0
  8  9  1  6
 10  9  1  0
 11 10  1  0
 12 11  2  0
 13  8  1  0
 13 16  1  0
 14 13  2  0
 15 11  1  0
 17 16  1  0
 18 17  1  0
 19 18  1  0
 20 18  2  0
M  END
$$$$
