SEG.pdb
     RDKit          3D

 20 19  0  0  1  0  0  0  0  0999 V2000
    5.2451  -21.4017   20.4604 O   0  0  0  0  0  0  0  0  0  0  0  0
    5.9960  -20.7480   21.4282 C   0  0  0  0  0  0  0  0  0  0  0  0
    5.1261  -20.0112   22.4191 C   0  0  2  0  0  0  0  0  0  0  0  0
    3.9180  -19.5207   21.8324 N   0  0  0  0  0  0  0  0  0  0  0  0
    5.8385  -18.9571   23.1416 C   0  0  0  0  0  0  0  0  0  0  0  0
    5.6786  -17.7236   22.9324 O   0  0  0  0  0  0  0  0  0  0  0  0
    6.7699  -19.3333   24.1423 N   0  0  0  0  0  0  0  0  0  0  0  0
    7.6079  -18.3359   24.8587 C   0  0  1  0  0  0  0  0  0  0  0  0
    7.8125  -18.8161   26.2502 C   0  0  0  0  0  0  0  0  0  0  0  0
    8.7563  -18.0455   27.0667 C   0  0  0  0  0  0  0  0  0  0  0  0
    9.0005  -18.5221   28.4278 C   0  0  0  0  0  0  0  0  0  0  0  0
    9.6517  -17.8060   29.2237 O   0  0  0  0  0  0  0  0  0  0  0  0
    8.7730  -18.0813   24.0248 C   0  0  0  0  0  0  0  0  0  0  0  0
    9.2535  -19.0550   23.3428 O   0  0  0  0  0  0  0  0  0  0  0  0
    8.5476  -19.7436   28.9163 O   0  0  0  0  0  0  0  0  0  0  0  0
    9.4577  -16.8539   23.8608 N   0  0  0  0  0  0  0  0  0  0  0  0
   10.5493  -16.6729   22.9277 C   0  0  0  0  0  0  0  0  0  0  0  0
   11.8658  -16.7505   23.5936 C   0  0  0  0  0  0  0  0  0  0  0  0
   12.9653  -16.2819   22.8933 O   0  0  0  0  0  0  0  0  0  0  0  0
   12.0533  -17.2093   24.7428 O   0  0  0  0  0  0  0  0  0  0  0  0
  2  1  1  0
  3  2  1  0
  3  4  1  6
  5  3  1  0
  5  6  2  0
  7  5  1  0
  8  7  1  0
  8  9  1  1
 10  9  1  0
 11 10  1  0
 12 11  2  0
 13  8  1  0
 13 16  1  0
 14 13  2  0
 15 11  1  0
 17 16  1  0
 18 17  1  0
 19 18  1  0
 20 18  2  0
M  END
$$$$
