SEG.pdb
     RDKit          3D

 20 19  0  0  1  0  0  0  0  0999 V2000
   13.6593  -18.8109   17.0909 O   0  0  0  0  0  0  0  0  0  0  0  0
   13.0035  -19.4198   18.1524 C   0  0  0  0  0  0  0  0  0  0  0  0
   11.7447  -18.6807   18.5404 C   0  0  2  0  0  0  0  0  0  0  0  0
   10.9905  -18.2455   17.4063 N   0  0  0  0  0  0  0  0  0  0  0  0
   11.9844  -17.5838   19.4786 C   0  0  0  0  0  0  0  0  0  0  0  0
   11.9048  -16.3624   19.1744 O   0  0  0  0  0  0  0  0  0  0  0  0
   12.3286  -17.9013   20.8170 N   0  0  0  0  0  0  0  0  0  0  0  0
   12.6076  -16.8520   21.8326 C   0  0  1  0  0  0  0  0  0  0  0  0
   11.9449  -17.2481   23.1025 C   0  0  0  0  0  0  0  0  0  0  0  0
   12.1308  -16.3389   24.2384 C   0  0  0  0  0  0  0  0  0  0  0  0
   11.4561  -16.6900   25.4878 C   0  0  0  0  0  0  0  0  0  0  0  0
   11.9867  -17.5200   26.2624 O   0  0  0  0  0  0  0  0  0  0  0  0
   14.0456  -16.6289   21.8303 C   0  0  0  0  0  0  0  0  0  0  0  0
   14.8161  -17.6489   21.7303 O   0  0  0  0  0  0  0  0  0  0  0  0
   10.2374  -16.1528   25.8902 O   0  0  0  0  0  0  0  0  0  0  0  0
   14.7204  -15.3884   21.9188 N   0  0  0  0  0  0  0  0  0  0  0  0
   16.1586  -15.2587   21.8191 C   0  0  0  0  0  0  0  0  0  0  0  0
   16.8215  -15.4205   23.1294 C   0  0  0  0  0  0  0  0  0  0  0  0
   18.0659  -14.8344   23.2932 O   0  0  0  0  0  0  0  0  0  0  0  0
   16.3362  -16.0489   24.0968 O   0  0  0  0  0  0  0  0  0  0  0  0
  2  1  1  0
  3  2  1  0
  3  4  1  6
  5  3  1  0
  5  6  2  0
  7  5  1  0
  8  7  1  0
  8  9  1  1
 10  9  1  0
 11 10  1  0
 12 11  2  0
 13  8  1  0
 13 16  1  0
 14 13  2  0
 15 11  1  0
 17 16  1  0
 18 17  1  0
 19 18  1  0
 20 18  2  0
M  END
$$$$
