SEG.pdb
     RDKit          3D

 20 19  0  0  1  0  0  0  0  0999 V2000
    6.6783  -14.6202   22.0968 O   0  0  0  0  0  0  0  0  0  0  0  0
    7.6721  -14.3786   21.1578 C   0  0  0  0  0  0  0  0  0  0  0  0
    8.1390  -15.6486   20.4867 C   0  0  2  0  0  0  0  0  0  0  0  0
    7.0886  -16.3183   19.7849 N   0  0  0  0  0  0  0  0  0  0  0  0
    8.8427  -16.5563   21.3932 C   0  0  0  0  0  0  0  0  0  0  0  0
    8.3299  -17.5940   21.8942 O   0  0  0  0  0  0  0  0  0  0  0  0
   10.1862  -16.2614   21.7377 N   0  0  0  0  0  0  0  0  0  0  0  0
   10.9795  -17.1312   22.6457 C   0  0  1  0  0  0  0  0  0  0  0  0
   12.3311  -17.3088   22.0537 C   0  0  0  0  0  0  0  0  0  0  0  0
   12.3707  -17.6894   20.6379 C   0  0  0  0  0  0  0  0  0  0  0  0
   13.6294  -17.4700   19.9257 C   0  0  0  0  0  0  0  0  0  0  0  0
   14.1414  -18.4110   19.2756 O   0  0  0  0  0  0  0  0  0  0  0  0
   10.8664  -16.5669   23.9822 C   0  0  0  0  0  0  0  0  0  0  0  0
   10.7073  -15.2994   24.0925 O   0  0  0  0  0  0  0  0  0  0  0  0
   14.3155  -16.2597   19.9155 O   0  0  0  0  0  0  0  0  0  0  0  0
   10.9025  -17.2645   25.2128 N   0  0  0  0  0  0  0  0  0  0  0  0
   10.7468  -16.6158   26.4973 C   0  0  0  0  0  0  0  0  0  0  0  0
   10.6755  -17.5907   27.6051 C   0  0  0  0  0  0  0  0  0  0  0  0
   10.4954  -17.0922   28.8850 O   0  0  0  0  0  0  0  0  0  0  0  0
   10.7666  -18.8310   27.4652 O   0  0  0  0  0  0  0  0  0  0  0  0
  2  1  1  0
  3  2  1  0
  3  4  1  1
  5  3  1  0
  5  6  2  0
  7  5  1  0
  8  7  1  0
  8  9  1  6
 10  9  1  0
 11 10  1  0
 12 11  2  0
 13  8  1  0
 13 16  1  0
 14 13  2  0
 15 11  1  0
 17 16  1  0
 18 17  1  0
 19 18  1  0
 20 18  2  0
M  END
$$$$
