SEG.pdb
     RDKit          3D

 20 19  0  0  1  0  0  0  0  0999 V2000
    7.0324  -12.3692   18.5703 O   0  0  0  0  0  0  0  0  0  0  0  0
    7.8831  -13.3324   19.0957 C   0  0  0  0  0  0  0  0  0  0  0  0
    8.8057  -13.9071   18.0470 C   0  0  2  0  0  0  0  0  0  0  0  0
    8.0980  -14.5551   16.9871 N   0  0  0  0  0  0  0  0  0  0  0  0
    9.8469  -14.7710   18.6041 C   0  0  0  0  0  0  0  0  0  0  0  0
    9.7623  -16.0276   18.6717 O   0  0  0  0  0  0  0  0  0  0  0  0
   11.0303  -14.1694   19.1024 N   0  0  0  0  0  0  0  0  0  0  0  0
   12.0902  -14.9559   19.7867 C   0  0  1  0  0  0  0  0  0  0  0  0
   13.4058  -14.3512   19.4513 C   0  0  0  0  0  0  0  0  0  0  0  0
   14.0401  -14.8289   18.2181 C   0  0  0  0  0  0  0  0  0  0  0  0
   15.3867  -14.3361   17.9296 C   0  0  0  0  0  0  0  0  0  0  0  0
   16.0041  -13.6834   18.8032 O   0  0  0  0  0  0  0  0  0  0  0  0
   11.7033  -15.0654   21.1852 C   0  0  0  0  0  0  0  0  0  0  0  0
   10.8782  -14.2031   21.6541 O   0  0  0  0  0  0  0  0  0  0  0  0
   16.0499  -14.5476   16.7250 O   0  0  0  0  0  0  0  0  0  0  0  0
   12.1301  -16.0393   22.1187 N   0  0  0  0  0  0  0  0  0  0  0  0
   11.5388  -16.1933   23.4309 C   0  0  0  0  0  0  0  0  0  0  0  0
   12.2549  -17.1953   24.2469 C   0  0  0  0  0  0  0  0  0  0  0  0
   11.8009  -17.4113   25.5378 O   0  0  0  0  0  0  0  0  0  0  0  0
   13.2396  -17.8589   23.8518 O   0  0  0  0  0  0  0  0  0  0  0  0
  2  1  1  0
  3  2  1  0
  3  4  1  6
  5  3  1  0
  5  6  2  0
  7  5  1  0
  8  7  1  0
  8  9  1  1
 10  9  1  0
 11 10  1  0
 12 11  2  0
 13  8  1  0
 13 16  1  0
 14 13  2  0
 15 11  1  0
 17 16  1  0
 18 17  1  0
 19 18  1  0
 20 18  2  0
M  END
$$$$
