SEG.pdb
     RDKit          3D

 20 19  0  0  1  0  0  0  0  0999 V2000
    6.7850  -16.1276   21.0465 O   0  0  0  0  0  0  0  0  0  0  0  0
    7.6079  -15.8301   19.9686 C   0  0  0  0  0  0  0  0  0  0  0  0
    8.1697  -17.0750   19.3235 C   0  0  2  0  0  0  0  0  0  0  0  0
    7.1548  -18.0198   18.9748 N   0  0  0  0  0  0  0  0  0  0  0  0
    9.2382  -17.6987   20.1046 C   0  0  0  0  0  0  0  0  0  0  0  0
    9.1220  -18.7988   20.7104 O   0  0  0  0  0  0  0  0  0  0  0  0
   10.4876  -17.0341   20.1935 N   0  0  0  0  0  0  0  0  0  0  0  0
   11.6390  -17.6098   20.9373 C   0  0  1  0  0  0  0  0  0  0  0  0
   12.8913  -17.1087   20.3133 C   0  0  0  0  0  0  0  0  0  0  0  0
   14.1441  -17.5572   20.9302 C   0  0  0  0  0  0  0  0  0  0  0  0
   15.3889  -17.0722   20.3347 C   0  0  0  0  0  0  0  0  0  0  0  0
   15.4105  -15.9474   19.7828 O   0  0  0  0  0  0  0  0  0  0  0  0
   11.4055  -17.3508   22.3501 C   0  0  0  0  0  0  0  0  0  0  0  0
   10.9630  -16.1959   22.6886 O   0  0  0  0  0  0  0  0  0  0  0  0
   16.5826  -17.7869   20.3394 O   0  0  0  0  0  0  0  0  0  0  0  0
   11.6036  -18.2442   23.4293 N   0  0  0  0  0  0  0  0  0  0  0  0
   11.2777  -17.9162   24.8009 C   0  0  0  0  0  0  0  0  0  0  0  0
   11.6279  -19.0100   25.7302 C   0  0  0  0  0  0  0  0  0  0  0  0
   12.0812  -20.1972   25.1787 O   0  0  0  0  0  0  0  0  0  0  0  0
   11.5426  -18.9361   26.9767 O   0  0  0  0  0  0  0  0  0  0  0  0
  2  1  1  0
  3  2  1  0
  3  4  1  1
  5  3  1  0
  5  6  2  0
  7  5  1  0
  8  7  1  0
  8  9  1  6
 10  9  1  0
 11 10  1  0
 12 11  2  0
 13  8  1  0
 13 16  1  0
 14 13  2  0
 15 11  1  0
 17 16  1  0
 18 17  1  0
 19 18  1  0
 20 18  2  0
M  END
$$$$
