SEG.pdb
     RDKit          3D

 20 19  0  0  1  0  0  0  0  0999 V2000
    7.7237  -12.2138   19.5278 O   0  0  0  0  0  0  0  0  0  0  0  0
    8.1636  -13.1689   20.4345 C   0  0  0  0  0  0  0  0  0  0  0  0
    8.1507  -14.5593   19.8445 C   0  0  2  0  0  0  0  0  0  0  0  0
    6.8457  -14.9676   19.4268 N   0  0  0  0  0  0  0  0  0  0  0  0
    8.7749  -15.5602   20.7102 C   0  0  0  0  0  0  0  0  0  0  0  0
    8.1330  -16.4049   21.3922 O   0  0  0  0  0  0  0  0  0  0  0  0
   10.1899  -15.5926   20.7959 N   0  0  0  0  0  0  0  0  0  0  0  0
   10.9123  -16.6406   21.5643 C   0  0  1  0  0  0  0  0  0  0  0  0
   12.0852  -17.0774   20.7628 C   0  0  0  0  0  0  0  0  0  0  0  0
   12.8341  -18.2243   21.2871 C   0  0  0  0  0  0  0  0  0  0  0  0
   14.0702  -18.5843   20.5927 C   0  0  0  0  0  0  0  0  0  0  0  0
   15.1716  -18.4048   21.1627 O   0  0  0  0  0  0  0  0  0  0  0  0
   11.1330  -16.1118   22.9019 C   0  0  0  0  0  0  0  0  0  0  0  0
   12.0491  -15.2287   23.0600 O   0  0  0  0  0  0  0  0  0  0  0  0
   14.1122  -19.1285   19.3130 O   0  0  0  0  0  0  0  0  0  0  0  0
   10.4359  -16.4544   24.0846 N   0  0  0  0  0  0  0  0  0  0  0  0
   10.4185  -17.7927   24.6357 C   0  0  0  0  0  0  0  0  0  0  0  0
   11.5628  -18.0350   25.5381 C   0  0  0  0  0  0  0  0  0  0  0  0
   12.7845  -18.3313   24.9562 O   0  0  0  0  0  0  0  0  0  0  0  0
   11.5025  -17.9908   26.7874 O   0  0  0  0  0  0  0  0  0  0  0  0
  2  1  1  0
  3  2  1  0
  3  4  1  1
  5  3  1  0
  5  6  2  0
  7  5  1  0
  8  7  1  0
  8  9  1  6
 10  9  1  0
 11 10  1  0
 12 11  2  0
 13  8  1  0
 13 16  1  0
 14 13  2  0
 15 11  1  0
 17 16  1  0
 18 17  1  0
 19 18  1  0
 20 18  2  0
M  END
$$$$
