NHW.pdb
     RDKit          3D

 33 35  0  0  1  0  0  0  0  0999 V2000
   23.6618  -20.9664  -20.7504 N   0  0  0  0  0  0  0  0  0  0  0  0
   23.0574  -20.4489  -19.5462 C   0  0  0  0  0  0  0  0  0  0  0  0
   22.1901  -21.1149  -18.9644 O   0  0  0  0  0  0  0  0  0  0  0  0
   23.5087  -19.1440  -19.0692 C   0  0  0  0  0  0  0  0  0  0  0  0
   24.5510  -18.5311  -19.9297 C   0  0  2  0  0  0  0  0  0  0  0  0
   25.8211  -19.1955  -19.9182 N   0  0  0  0  0  0  0  0  0  0  0  0
   24.6827  -17.0471  -19.7267 C   0  0  0  0  0  0  0  0  0  0  0  0
   24.1570  -16.4740  -18.7598 O   0  0  0  0  0  0  0  0  0  0  0  0
   25.4253  -16.3125  -20.6710 N   0  0  0  0  0  0  0  0  0  0  0  0
   25.6070  -14.9068  -20.7322 C   0  0  1  0  0  0  0  0  0  0  0  0
   26.8532  -14.4211  -21.4393 C   0  0  0  0  0  0  0  0  0  0  0  0
   28.1080  -14.9074  -20.8064 C   0  0  0  0  0  0  0  0  0  0  0  0
   28.5180  -14.8409  -19.4841 C   0  0  0  0  0  0  0  0  0  0  0  0
   29.7473  -15.3678  -19.4249 N   0  0  0  0  0  0  0  0  0  0  0  0
   30.1299  -15.7614  -20.6397 C   0  0  0  0  0  0  0  0  0  0  0  0
   29.1329  -15.4807  -21.4765 N   0  0  0  0  0  0  0  0  0  0  0  0
   24.4392  -14.0931  -21.0473 C   0  0  0  0  0  0  0  0  0  0  0  0
   23.6884  -14.3157  -22.0573 O   0  0  0  0  0  0  0  0  0  0  0  0
   24.0791  -13.0063  -20.2357 N   0  0  0  0  0  0  0  0  0  0  0  0
   22.8686  -12.2433  -20.5451 C   0  0  1  0  0  0  0  0  0  0  0  0
   21.7527  -13.2522  -20.4832 C   0  0  0  0  0  0  0  0  0  0  0  0
   20.3895  -12.7288  -20.6123 C   0  0  0  0  0  0  0  0  0  0  0  0
   20.0669  -11.4896  -21.1452 C   0  0  0  0  0  0  0  0  0  0  0  0
   18.7513  -11.3500  -21.0626 N   0  0  0  0  0  0  0  0  0  0  0  0
   18.2069  -12.4317  -20.5060 C   0  0  0  0  0  0  0  0  0  0  0  0
   16.8927  -12.7850  -20.2171 C   0  0  0  0  0  0  0  0  0  0  0  0
   16.5821  -14.0000  -19.6460 C   0  0  0  0  0  0  0  0  0  0  0  0
   17.5853  -14.9073  -19.3434 C   0  0  0  0  0  0  0  0  0  0  0  0
   18.8809  -14.5279  -19.6412 C   0  0  0  0  0  0  0  0  0  0  0  0
   19.2017  -13.3115  -20.2134 C   0  0  0  0  0  0  0  0  0  0  0  0
   22.6398  -11.1356  -19.6267 C   0  0  0  0  0  0  0  0  0  0  0  0
   23.0473  -11.1963  -18.4480 O   0  0  0  0  0  0  0  0  0  0  0  0
   21.9779  -10.0000  -20.0381 O   0  0  0  0  0  0  0  0  0  0  0  0
  2  1  1  0
  3  2  2  0
  4  2  1  0
  5  4  1  0
  5  6  1  1
  7  5  1  0
  7  8  2  0
  9  7  1  0
 10  9  1  0
 10 11  1  6
 11 12  1  0
 12 16  1  0
 12 13  2  0
 13 14  1  0
 15 14  1  0
 16 15  2  0
 17 10  1  0
 18 17  2  0
 19 17  1  0
 20 21  1  1
 20 19  1  0
 21 22  1  0
 22 30  1  0
 23 24  1  0
 23 22  2  0
 24 25  1  0
 25 30  2  0
 25 26  1  0
 26 27  2  0
 27 28  1  0
 29 28  2  0
 30 29  1  0
 31 20  1  0
 31 33  1  0
 32 31  2  0
M  END
$$$$
