NHW.pdb
     RDKit          3D

 33 35  0  0  1  0  0  0  0  0999 V2000
   30.1759  -23.2667  -19.7255 N   0  0  0  0  0  0  0  0  0  0  0  0
   30.9698  -22.2066  -19.1520 C   0  0  0  0  0  0  0  0  0  0  0  0
   32.1152  -22.0038  -19.5776 O   0  0  0  0  0  0  0  0  0  0  0  0
   30.3695  -21.4149  -18.0810 C   0  0  0  0  0  0  0  0  0  0  0  0
   29.0270  -21.8985  -17.6733 C   0  0  2  0  0  0  0  0  0  0  0  0
   28.0118  -21.8049  -18.6809 N   0  0  0  0  0  0  0  0  0  0  0  0
   28.5746  -21.3346  -16.3549 C   0  0  0  0  0  0  0  0  0  0  0  0
   29.3075  -21.3536  -15.3539 O   0  0  0  0  0  0  0  0  0  0  0  0
   27.2836  -20.7775  -16.2805 N   0  0  0  0  0  0  0  0  0  0  0  0
   26.6977  -20.0810  -15.1921 C   0  0  1  0  0  0  0  0  0  0  0  0
   26.1612  -18.6983  -15.4906 C   0  0  0  0  0  0  0  0  0  0  0  0
   27.1922  -17.7817  -16.0461 C   0  0  0  0  0  0  0  0  0  0  0  0
   28.5541  -17.9762  -16.2137 C   0  0  0  0  0  0  0  0  0  0  0  0
   29.0585  -16.8367  -16.7033 N   0  0  0  0  0  0  0  0  0  0  0  0
   28.0850  -15.9382  -16.8519 C   0  0  0  0  0  0  0  0  0  0  0  0
   26.9531  -16.5144  -16.4522 N   0  0  0  0  0  0  0  0  0  0  0  0
   25.8189  -20.8367  -14.3079 C   0  0  0  0  0  0  0  0  0  0  0  0
   24.8254  -21.5195  -14.7323 O   0  0  0  0  0  0  0  0  0  0  0  0
   26.0315  -20.8493  -12.9209 N   0  0  0  0  0  0  0  0  0  0  0  0
   25.1768  -21.6753  -12.0662 C   0  0  1  0  0  0  0  0  0  0  0  0
   26.0686  -22.1042  -10.9314 C   0  0  0  0  0  0  0  0  0  0  0  0
   26.2481  -21.1415   -9.8406 C   0  0  0  0  0  0  0  0  0  0  0  0
   25.2520  -20.3110   -9.3488 C   0  0  0  0  0  0  0  0  0  0  0  0
   25.7918  -19.5596   -8.3994 N   0  0  0  0  0  0  0  0  0  0  0  0
   27.0817  -19.8601   -8.2512 C   0  0  0  0  0  0  0  0  0  0  0  0
   28.0701  -19.3830   -7.3963 C   0  0  0  0  0  0  0  0  0  0  0  0
   29.3531  -19.8849   -7.4269 C   0  0  0  0  0  0  0  0  0  0  0  0
   29.6902  -20.8884   -8.3216 C   0  0  0  0  0  0  0  0  0  0  0  0
   28.6875  -21.3414   -9.1585 C   0  0  0  0  0  0  0  0  0  0  0  0
   27.3984  -20.8437   -9.1352 C   0  0  0  0  0  0  0  0  0  0  0  0
   23.9976  -20.9693  -11.5825 C   0  0  0  0  0  0  0  0  0  0  0  0
   23.9416  -19.7229  -11.6321 O   0  0  0  0  0  0  0  0  0  0  0  0
   22.9215  -21.6580  -11.0684 O   0  0  0  0  0  0  0  0  0  0  0  0
  2  1  1  0
  3  2  2  0
  4  2  1  0
  5  4  1  0
  5  6  1  6
  7  5  1  0
  7  8  2  0
  9  7  1  0
 10  9  1  0
 10 11  1  6
 11 12  1  0
 12 16  1  0
 12 13  2  0
 13 14  1  0
 15 14  1  0
 16 15  2  0
 17 10  1  0
 18 17  2  0
 19 17  1  0
 20 21  1  1
 20 19  1  0
 21 22  1  0
 22 30  1  0
 23 24  1  0
 23 22  2  0
 24 25  1  0
 25 30  2  0
 25 26  1  0
 26 27  2  0
 27 28  1  0
 29 28  2  0
 30 29  1  0
 31 20  1  0
 31 33  1  0
 32 31  2  0
M  END
$$$$
