NHW.pdb
     RDKit          3D

 33 35  0  0  1  0  0  0  0  0999 V2000
   17.4322  -15.9705  -16.2429 N   0  0  0  0  0  0  0  0  0  0  0  0
   17.6378  -15.2863  -14.9889 C   0  0  0  0  0  0  0  0  0  0  0  0
   17.0632  -15.6944  -13.9702 O   0  0  0  0  0  0  0  0  0  0  0  0
   18.5284  -14.1283  -14.9876 C   0  0  0  0  0  0  0  0  0  0  0  0
   19.1058  -13.8286  -16.3215 C   0  0  2  0  0  0  0  0  0  0  0  0
   20.0068  -14.8187  -16.8337 N   0  0  0  0  0  0  0  0  0  0  0  0
   19.6719  -12.4390  -16.4180 C   0  0  0  0  0  0  0  0  0  0  0  0
   20.8821  -12.2174  -16.2570 O   0  0  0  0  0  0  0  0  0  0  0  0
   18.7864  -11.3807  -16.6985 N   0  0  0  0  0  0  0  0  0  0  0  0
   19.0883   -9.9987  -16.8064 C   0  0  1  0  0  0  0  0  0  0  0  0
   18.3790   -9.2404  -17.9067 C   0  0  0  0  0  0  0  0  0  0  0  0
   18.7030   -9.7493  -19.2661 C   0  0  0  0  0  0  0  0  0  0  0  0
   19.7414  -10.5672  -19.6827 C   0  0  0  0  0  0  0  0  0  0  0  0
   19.6337  -10.6965  -21.0109 N   0  0  0  0  0  0  0  0  0  0  0  0
   18.5827  -10.0033  -21.4491 C   0  0  0  0  0  0  0  0  0  0  0  0
   18.0195   -9.4293  -20.3879 N   0  0  0  0  0  0  0  0  0  0  0  0
   19.1694   -9.2318  -15.5693 C   0  0  0  0  0  0  0  0  0  0  0  0
   18.3614   -9.3988  -14.5933 O   0  0  0  0  0  0  0  0  0  0  0  0
   20.1621   -8.2560  -15.3913 N   0  0  0  0  0  0  0  0  0  0  0  0
   20.1699   -7.4473  -14.1709 C   0  0  1  0  0  0  0  0  0  0  0  0
   21.4665   -7.7946  -13.4887 C   0  0  0  0  0  0  0  0  0  0  0  0
   22.6965   -7.4652  -14.2149 C   0  0  0  0  0  0  0  0  0  0  0  0
   23.1169   -6.1774  -14.5122 C   0  0  0  0  0  0  0  0  0  0  0  0
   24.2429   -6.2752  -15.2048 N   0  0  0  0  0  0  0  0  0  0  0  0
   24.5727   -7.5559  -15.3703 C   0  0  0  0  0  0  0  0  0  0  0  0
   25.6472   -8.1811  -15.9947 C   0  0  0  0  0  0  0  0  0  0  0  0
   25.7731   -9.5532  -16.0097 C   0  0  0  0  0  0  0  0  0  0  0  0
   24.8195  -10.3496  -15.3951 C   0  0  0  0  0  0  0  0  0  0  0  0
   23.7633   -9.7000  -14.7839 C   0  0  0  0  0  0  0  0  0  0  0  0
   23.6287   -8.3246  -14.7644 C   0  0  0  0  0  0  0  0  0  0  0  0
   20.0685   -6.0174  -14.4311 C   0  0  0  0  0  0  0  0  0  0  0  0
   20.1881   -5.5755  -15.5928 O   0  0  0  0  0  0  0  0  0  0  0  0
   19.8333   -5.1265  -13.4074 O   0  0  0  0  0  0  0  0  0  0  0  0
  2  1  1  0
  3  2  2  0
  4  2  1  0
  5  4  1  0
  5  6  1  1
  7  5  1  0
  7  8  2  0
  9  7  1  0
 10  9  1  0
 10 11  1  6
 11 12  1  0
 12 16  1  0
 12 13  2  0
 13 14  1  0
 15 14  1  0
 16 15  2  0
 17 10  1  0
 18 17  2  0
 19 17  1  0
 20 21  1  6
 20 19  1  0
 21 22  1  0
 22 30  1  0
 23 24  1  0
 23 22  2  0
 24 25  1  0
 25 30  2  0
 25 26  1  0
 26 27  2  0
 27 28  1  0
 29 28  2  0
 30 29  1  0
 31 20  1  0
 31 33  1  0
 32 31  2  0
M  END
$$$$
