NHW.pdb
     RDKit          3D

 33 35  0  0  1  0  0  0  0  0999 V2000
   15.4029  -23.6492   -3.7167 N   0  0  0  0  0  0  0  0  0  0  0  0
   14.1234  -23.0308   -3.4649 C   0  0  0  0  0  0  0  0  0  0  0  0
   13.2887  -22.9627   -4.3776 O   0  0  0  0  0  0  0  0  0  0  0  0
   13.8763  -22.5088   -2.1230 C   0  0  0  0  0  0  0  0  0  0  0  0
   15.0391  -22.6529   -1.2122 C   0  0  2  0  0  0  0  0  0  0  0  0
   15.3802  -24.0012   -0.8656 N   0  0  0  0  0  0  0  0  0  0  0  0
   14.9554  -21.7586   -0.0064 C   0  0  0  0  0  0  0  0  0  0  0  0
   14.9096  -20.5234   -0.1150 O   0  0  0  0  0  0  0  0  0  0  0  0
   14.9303  -22.3620    1.2657 N   0  0  0  0  0  0  0  0  0  0  0  0
   14.8005  -21.7270    2.5277 C   0  0  1  0  0  0  0  0  0  0  0  0
   13.8299  -22.3594    3.5007 C   0  0  0  0  0  0  0  0  0  0  0  0
   12.4128  -22.2494    3.0634 C   0  0  0  0  0  0  0  0  0  0  0  0
   11.6578  -21.1229    2.7775 C   0  0  0  0  0  0  0  0  0  0  0  0
   10.4215  -21.5413    2.4794 N   0  0  0  0  0  0  0  0  0  0  0  0
   10.3613  -22.8703    2.5630 C   0  0  0  0  0  0  0  0  0  0  0  0
   11.5714  -23.2977    2.9176 N   0  0  0  0  0  0  0  0  0  0  0  0
   16.0236  -21.2761    3.1802 C   0  0  0  0  0  0  0  0  0  0  0  0
   17.1880  -21.6513    2.8105 O   0  0  0  0  0  0  0  0  0  0  0  0
   15.9748  -20.3885    4.2661 N   0  0  0  0  0  0  0  0  0  0  0  0
   17.2220  -19.9202    4.8732 C   0  0  1  0  0  0  0  0  0  0  0  0
   17.8902  -19.1057    3.7975 C   0  0  0  0  0  0  0  0  0  0  0  0
   17.5425  -17.6826    3.7433 C   0  0  0  0  0  0  0  0  0  0  0  0
   16.4131  -17.1233    4.3224 C   0  0  0  0  0  0  0  0  0  0  0  0
   16.4163  -15.8294    4.0344 N   0  0  0  0  0  0  0  0  0  0  0  0
   17.4864  -15.5228    3.3015 C   0  0  0  0  0  0  0  0  0  0  0  0
   17.9538  -14.3262    2.7676 C   0  0  0  0  0  0  0  0  0  0  0  0
   19.1274  -14.2681    2.0476 C   0  0  0  0  0  0  0  0  0  0  0  0
   19.8763  -15.4153    1.8376 C   0  0  0  0  0  0  0  0  0  0  0  0
   19.3862  -16.5889    2.3793 C   0  0  0  0  0  0  0  0  0  0  0  0
   18.2103  -16.6566    3.1022 C   0  0  0  0  0  0  0  0  0  0  0  0
   17.0107  -19.1373    6.0836 C   0  0  0  0  0  0  0  0  0  0  0  0
   15.8609  -18.7784    6.4125 O   0  0  0  0  0  0  0  0  0  0  0  0
   18.0686  -18.7829    6.8911 O   0  0  0  0  0  0  0  0  0  0  0  0
  2  1  1  0
  3  2  2  0
  4  2  1  0
  5  4  1  0
  5  6  1  1
  7  5  1  0
  7  8  2  0
  9  7  1  0
 10  9  1  0
 10 11  1  1
 11 12  1  0
 12 16  1  0
 12 13  2  0
 13 14  1  0
 15 14  1  0
 16 15  2  0
 17 10  1  0
 18 17  2  0
 19 17  1  0
 20 21  1  6
 20 19  1  0
 21 22  1  0
 22 30  1  0
 23 24  1  0
 23 22  2  0
 24 25  1  0
 25 30  2  0
 25 26  1  0
 26 27  2  0
 27 28  1  0
 29 28  2  0
 30 29  1  0
 31 20  1  0
 31 33  1  0
 32 31  2  0
M  END
$$$$
