NHW.pdb
     RDKit          3D

 33 35  0  0  1  0  0  0  0  0999 V2000
   15.3567  -12.4957  -16.3308 N   0  0  0  0  0  0  0  0  0  0  0  0
   15.9149  -12.4544  -15.0005 C   0  0  0  0  0  0  0  0  0  0  0  0
   15.4234  -13.1621  -14.1107 O   0  0  0  0  0  0  0  0  0  0  0  0
   17.0501  -11.5643  -14.7701 C   0  0  0  0  0  0  0  0  0  0  0  0
   17.4451  -10.7909  -15.9736 C   0  0  2  0  0  0  0  0  0  0  0  0
   17.9798  -11.5693  -17.0518 N   0  0  0  0  0  0  0  0  0  0  0  0
   18.3038   -9.5995  -15.6508 C   0  0  0  0  0  0  0  0  0  0  0  0
   18.0397   -8.8461  -14.7009 O   0  0  0  0  0  0  0  0  0  0  0  0
   19.4288   -9.3544  -16.4613 N   0  0  0  0  0  0  0  0  0  0  0  0
   20.4130   -8.3451  -16.3019 C   0  0  1  0  0  0  0  0  0  0  0  0
   21.7887   -8.6566  -16.8488 C   0  0  0  0  0  0  0  0  0  0  0  0
   22.4337   -9.8153  -16.1757 C   0  0  0  0  0  0  0  0  0  0  0  0
   22.0546  -10.5004  -15.0322 C   0  0  0  0  0  0  0  0  0  0  0  0
   22.9893  -11.4305  -14.8009 N   0  0  0  0  0  0  0  0  0  0  0  0
   23.9343  -11.3652  -15.7388 C   0  0  0  0  0  0  0  0  0  0  0  0
   23.5946  -10.3838  -16.5722 N   0  0  0  0  0  0  0  0  0  0  0  0
   20.0108   -6.9690  -16.5662 C   0  0  0  0  0  0  0  0  0  0  0  0
   19.2255   -6.6452  -17.5210 O   0  0  0  0  0  0  0  0  0  0  0  0
   20.4775   -5.9163  -15.7642 N   0  0  0  0  0  0  0  0  0  0  0  0
   20.1472   -4.5352  -16.1205 C   0  0  1  0  0  0  0  0  0  0  0  0
   20.3108   -3.7591  -14.8407 C   0  0  0  0  0  0  0  0  0  0  0  0
   19.9488   -2.3392  -14.8858 C   0  0  0  0  0  0  0  0  0  0  0  0
   18.7445   -1.8170  -14.4379 C   0  0  0  0  0  0  0  0  0  0  0  0
   18.7629   -0.5127  -14.6738 N   0  0  0  0  0  0  0  0  0  0  0  0
   19.9136   -0.1644  -15.2490 C   0  0  0  0  0  0  0  0  0  0  0  0
   20.4257    1.0580  -15.6718 C   0  0  0  0  0  0  0  0  0  0  0  0
   21.6816    1.1588  -16.2300 C   0  0  0  0  0  0  0  0  0  0  0  0
   22.4709    0.0300  -16.3841 C   0  0  0  0  0  0  0  0  0  0  0  0
   21.9348   -1.1700  -15.9556 C   0  0  0  0  0  0  0  0  0  0  0  0
   20.6764   -1.2806  -15.3951 C   0  0  0  0  0  0  0  0  0  0  0  0
   20.9902   -4.0006  -17.1818 C   0  0  0  0  0  0  0  0  0  0  0  0
   22.2067   -4.2790  -17.2246 O   0  0  0  0  0  0  0  0  0  0  0  0
   20.4652   -3.1856  -18.1601 O   0  0  0  0  0  0  0  0  0  0  0  0
  2  1  1  0
  3  2  2  0
  4  2  1  0
  5  4  1  0
  5  6  1  6
  7  5  1  0
  7  8  2  0
  9  7  1  0
 10  9  1  0
 10 11  1  6
 11 12  1  0
 12 16  1  0
 12 13  2  0
 13 14  1  0
 15 14  1  0
 16 15  2  0
 17 10  1  0
 18 17  2  0
 19 17  1  0
 20 21  1  1
 20 19  1  0
 21 22  1  0
 22 30  1  0
 23 24  1  0
 23 22  2  0
 24 25  1  0
 25 30  2  0
 25 26  1  0
 26 27  2  0
 27 28  1  0
 29 28  2  0
 30 29  1  0
 31 20  1  0
 31 33  1  0
 32 31  2  0
M  END
$$$$
