NHW.pdb
     RDKit          3D

 33 35  0  0  1  0  0  0  0  0999 V2000
   29.8719  -22.6695  -17.4366 N   0  0  0  0  0  0  0  0  0  0  0  0
   29.4739  -21.3173  -17.7467 C   0  0  0  0  0  0  0  0  0  0  0  0
   29.9236  -20.7666  -18.7610 O   0  0  0  0  0  0  0  0  0  0  0  0
   28.5455  -20.6582  -16.8314 C   0  0  0  0  0  0  0  0  0  0  0  0
   28.2026  -21.4829  -15.6461 C   0  0  2  0  0  0  0  0  0  0  0  0
   27.5895  -22.7454  -15.9369 N   0  0  0  0  0  0  0  0  0  0  0  0
   27.4533  -20.7150  -14.5927 C   0  0  0  0  0  0  0  0  0  0  0  0
   27.8434  -19.6059  -14.1959 O   0  0  0  0  0  0  0  0  0  0  0  0
   26.2839  -21.2901  -14.0594 N   0  0  0  0  0  0  0  0  0  0  0  0
   25.3569  -20.7024  -13.1605 C   0  0  1  0  0  0  0  0  0  0  0  0
   23.9685  -20.4428  -13.7025 C   0  0  0  0  0  0  0  0  0  0  0  0
   23.9655  -19.5460  -14.8889 C   0  0  0  0  0  0  0  0  0  0  0  0
   23.9741  -18.1616  -14.9542 C   0  0  0  0  0  0  0  0  0  0  0  0
   23.9110  -17.8269  -16.2489 N   0  0  0  0  0  0  0  0  0  0  0  0
   23.8636  -18.9279  -16.9990 C   0  0  0  0  0  0  0  0  0  0  0  0
   23.8968  -19.9701  -16.1709 N   0  0  0  0  0  0  0  0  0  0  0  0
   25.3315  -21.2127  -11.7952 C   0  0  0  0  0  0  0  0  0  0  0  0
   25.3289  -22.4605  -11.5191 O   0  0  0  0  0  0  0  0  0  0  0  0
   25.3106  -20.3360  -10.6996 N   0  0  0  0  0  0  0  0  0  0  0  0
   25.1759  -20.8752   -9.3452 C   0  0  1  0  0  0  0  0  0  0  0  0
   25.9633  -19.9308   -8.4761 C   0  0  0  0  0  0  0  0  0  0  0  0
   27.3311  -20.3374   -8.1401 C   0  0  0  0  0  0  0  0  0  0  0  0
   28.0965  -21.2231   -8.8839 C   0  0  0  0  0  0  0  0  0  0  0  0
   29.2540  -21.3749   -8.2558 N   0  0  0  0  0  0  0  0  0  0  0  0
   29.2777  -20.6351   -7.1475 C   0  0  0  0  0  0  0  0  0  0  0  0
   30.2451  -20.4313   -6.1688 C   0  0  0  0  0  0  0  0  0  0  0  0
   30.0285  -19.5792   -5.1078 C   0  0  0  0  0  0  0  0  0  0  0  0
   28.8267  -18.8986   -4.9917 C   0  0  0  0  0  0  0  0  0  0  0  0
   27.8847  -19.1220   -5.9786 C   0  0  0  0  0  0  0  0  0  0  0  0
   28.0932  -19.9750   -7.0458 C   0  0  0  0  0  0  0  0  0  0  0  0
   23.7908  -20.9781   -8.9052 C   0  0  0  0  0  0  0  0  0  0  0  0
   22.8658  -20.5362   -9.6181 O   0  0  0  0  0  0  0  0  0  0  0  0
   23.4721  -21.5678   -7.7021 O   0  0  0  0  0  0  0  0  0  0  0  0
  2  1  1  0
  3  2  2  0
  4  2  1  0
  5  4  1  0
  5  6  1  6
  7  5  1  0
  7  8  2  0
  9  7  1  0
 10  9  1  0
 10 11  1  6
 11 12  1  0
 12 16  1  0
 12 13  2  0
 13 14  1  0
 15 14  1  0
 16 15  2  0
 17 10  1  0
 18 17  2  0
 19 17  1  0
 20 21  1  1
 20 19  1  0
 21 22  1  0
 22 30  1  0
 23 24  1  0
 23 22  2  0
 24 25  1  0
 25 30  2  0
 25 26  1  0
 26 27  2  0
 27 28  1  0
 29 28  2  0
 30 29  1  0
 31 20  1  0
 31 33  1  0
 32 31  2  0
M  END
$$$$
