NHW.pdb
     RDKit          3D

 33 35  0  0  1  0  0  0  0  0999 V2000
   23.0769  -10.8342  -19.6646 N   0  0  0  0  0  0  0  0  0  0  0  0
   22.3267   -9.9186  -20.4903 C   0  0  0  0  0  0  0  0  0  0  0  0
   22.4557   -9.9619  -21.7214 O   0  0  0  0  0  0  0  0  0  0  0  0
   21.4395   -8.9725  -19.8181 C   0  0  0  0  0  0  0  0  0  0  0  0
   21.4804   -9.0769  -18.3382 C   0  0  2  0  0  0  0  0  0  0  0  0
   21.1558  -10.3683  -17.8077 N   0  0  0  0  0  0  0  0  0  0  0  0
   20.7268   -7.9726  -17.6502 C   0  0  0  0  0  0  0  0  0  0  0  0
   19.6713   -7.5170  -18.1169 O   0  0  0  0  0  0  0  0  0  0  0  0
   21.2527   -7.4601  -16.4487 N   0  0  0  0  0  0  0  0  0  0  0  0
   20.7420   -6.3985  -15.6581 C   0  0  1  0  0  0  0  0  0  0  0  0
   21.2447   -6.3207  -14.2333 C   0  0  0  0  0  0  0  0  0  0  0  0
   20.8274   -7.4830  -13.4048 C   0  0  0  0  0  0  0  0  0  0  0  0
   20.0533   -8.5815  -13.7438 C   0  0  0  0  0  0  0  0  0  0  0  0
   19.9147   -9.3234  -12.6380 N   0  0  0  0  0  0  0  0  0  0  0  0
   20.5610   -8.7485  -11.6237 C   0  0  0  0  0  0  0  0  0  0  0  0
   21.1141   -7.6315  -12.0918 N   0  0  0  0  0  0  0  0  0  0  0  0
   20.6433   -5.0851  -16.2827 C   0  0  0  0  0  0  0  0  0  0  0  0
   21.4286   -4.6966  -17.2131 O   0  0  0  0  0  0  0  0  0  0  0  0
   19.6578   -4.1699  -15.8819 N   0  0  0  0  0  0  0  0  0  0  0  0
   19.4978   -2.9130  -16.6153 C   0  0  1  0  0  0  0  0  0  0  0  0
   19.2781   -3.3286  -18.0457 C   0  0  0  0  0  0  0  0  0  0  0  0
   19.0696   -2.2496  -19.0159 C   0  0  0  0  0  0  0  0  0  0  0  0
   19.9922   -1.2532  -19.2986 C   0  0  0  0  0  0  0  0  0  0  0  0
   19.4420   -0.4418  -20.1910 N   0  0  0  0  0  0  0  0  0  0  0  0
   18.2150   -0.8604  -20.5000 C   0  0  0  0  0  0  0  0  0  0  0  0
   17.2474   -0.3820  -21.3776 C   0  0  0  0  0  0  0  0  0  0  0  0
   16.0377   -1.0228  -21.5355 C   0  0  0  0  0  0  0  0  0  0  0  0
   15.7560   -2.1722  -20.8139 C   0  0  0  0  0  0  0  0  0  0  0  0
   16.7362   -2.6228  -19.9495 C   0  0  0  0  0  0  0  0  0  0  0  0
   17.9519   -1.9864  -19.7845 C   0  0  0  0  0  0  0  0  0  0  0  0
   18.3967   -2.0974  -16.1200 C   0  0  0  0  0  0  0  0  0  0  0  0
   17.3680   -2.6351  -15.6599 O   0  0  0  0  0  0  0  0  0  0  0  0
   18.4685   -0.7222  -16.1424 O   0  0  0  0  0  0  0  0  0  0  0  0
  2  1  1  0
  3  2  2  0
  4  2  1  0
  5  4  1  0
  5  6  1  6
  7  5  1  0
  7  8  2  0
  9  7  1  0
 10  9  1  0
 10 11  1  1
 11 12  1  0
 12 16  1  0
 12 13  2  0
 13 14  1  0
 15 14  1  0
 16 15  2  0
 17 10  1  0
 18 17  2  0
 19 17  1  0
 20 21  1  6
 20 19  1  0
 21 22  1  0
 22 30  1  0
 23 24  1  0
 23 22  2  0
 24 25  1  0
 25 30  2  0
 25 26  1  0
 26 27  2  0
 27 28  1  0
 29 28  2  0
 30 29  1  0
 31 20  1  0
 31 33  1  0
 32 31  2  0
M  END
$$$$
