NHW.pdb
     RDKit          3D

 33 35  0  0  1  0  0  0  0  0999 V2000
   23.9772  -11.0547  -22.5531 N   0  0  0  0  0  0  0  0  0  0  0  0
   22.6870  -11.6327  -22.2627 C   0  0  0  0  0  0  0  0  0  0  0  0
   22.0544  -12.1972  -23.1657 O   0  0  0  0  0  0  0  0  0  0  0  0
   22.1869  -11.5193  -20.8948 C   0  0  0  0  0  0  0  0  0  0  0  0
   23.1202  -10.8110  -19.9839 C   0  0  2  0  0  0  0  0  0  0  0  0
   24.2797  -11.5586  -19.5951 N   0  0  0  0  0  0  0  0  0  0  0  0
   22.4280  -10.1808  -18.8072 C   0  0  0  0  0  0  0  0  0  0  0  0
   21.4752  -10.7368  -18.2392 O   0  0  0  0  0  0  0  0  0  0  0  0
   22.8909   -8.9289  -18.3587 N   0  0  0  0  0  0  0  0  0  0  0  0
   22.4027   -8.1590  -17.2715 C   0  0  1  0  0  0  0  0  0  0  0  0
   23.3740   -7.1764  -16.6552 C   0  0  0  0  0  0  0  0  0  0  0  0
   22.7523   -6.3233  -15.6076 C   0  0  0  0  0  0  0  0  0  0  0  0
   22.3665   -4.9932  -15.6606 C   0  0  0  0  0  0  0  0  0  0  0  0
   21.9080   -4.6663  -14.4460 N   0  0  0  0  0  0  0  0  0  0  0  0
   21.9856   -5.7208  -13.6343 C   0  0  0  0  0  0  0  0  0  0  0  0
   22.4984   -6.7254  -14.3419 N   0  0  0  0  0  0  0  0  0  0  0  0
   21.0585   -7.6078  -17.3908 C   0  0  0  0  0  0  0  0  0  0  0  0
   20.7086   -6.8274  -18.3405 O   0  0  0  0  0  0  0  0  0  0  0  0
   20.0670   -7.9187  -16.4476 N   0  0  0  0  0  0  0  0  0  0  0  0
   18.7466   -7.2954  -16.5552 C   0  0  1  0  0  0  0  0  0  0  0  0
   17.8367   -8.4017  -17.0192 C   0  0  0  0  0  0  0  0  0  0  0  0
   17.7017   -9.5559  -16.1257 C   0  0  0  0  0  0  0  0  0  0  0  0
   17.3177   -9.4833  -14.7949 C   0  0  0  0  0  0  0  0  0  0  0  0
   17.3448  -10.7144  -14.3041 N   0  0  0  0  0  0  0  0  0  0  0  0
   17.7247  -11.5779  -15.2456 C   0  0  0  0  0  0  0  0  0  0  0  0
   17.8919  -12.9589  -15.2481 C   0  0  0  0  0  0  0  0  0  0  0  0
   18.2817  -13.6355  -16.3835 C   0  0  0  0  0  0  0  0  0  0  0  0
   18.5186  -12.9454  -17.5620 C   0  0  0  0  0  0  0  0  0  0  0  0
   18.3451  -11.5744  -17.5285 C   0  0  0  0  0  0  0  0  0  0  0  0
   17.9548  -10.8876  -16.3944 C   0  0  0  0  0  0  0  0  0  0  0  0
   18.2847   -6.7130  -15.3021 C   0  0  0  0  0  0  0  0  0  0  0  0
   18.8587   -6.9868  -14.2275 O   0  0  0  0  0  0  0  0  0  0  0  0
   17.2141   -5.8471  -15.2761 O   0  0  0  0  0  0  0  0  0  0  0  0
  2  1  1  0
  3  2  2  0
  4  2  1  0
  5  4  1  0
  5  6  1  1
  7  5  1  0
  7  8  2  0
  9  7  1  0
 10  9  1  0
 10 11  1  6
 11 12  1  0
 12 16  1  0
 12 13  2  0
 13 14  1  0
 15 14  1  0
 16 15  2  0
 17 10  1  0
 18 17  2  0
 19 17  1  0
 20 21  1  1
 20 19  1  0
 21 22  1  0
 22 30  1  0
 23 24  1  0
 23 22  2  0
 24 25  1  0
 25 30  2  0
 25 26  1  0
 26 27  2  0
 27 28  1  0
 29 28  2  0
 30 29  1  0
 31 20  1  0
 31 33  1  0
 32 31  2  0
M  END
$$$$
