NHW.pdb
     RDKit          3D

 33 35  0  0  1  0  0  0  0  0999 V2000
   26.9366  -25.8852  -17.4298 N   0  0  0  0  0  0  0  0  0  0  0  0
   25.7547  -25.8268  -16.6034 C   0  0  0  0  0  0  0  0  0  0  0  0
   25.1607  -26.8744  -16.3138 O   0  0  0  0  0  0  0  0  0  0  0  0
   25.3141  -24.5118  -16.1443 C   0  0  0  0  0  0  0  0  0  0  0  0
   26.2019  -23.4070  -16.5845 C   0  0  2  0  0  0  0  0  0  0  0  0
   27.1913  -23.7685  -17.5564 N   0  0  0  0  0  0  0  0  0  0  0  0
   26.7872  -22.6309  -15.4373 C   0  0  0  0  0  0  0  0  0  0  0  0
   27.9321  -22.8575  -15.0161 O   0  0  0  0  0  0  0  0  0  0  0  0
   25.9966  -21.6283  -14.8437 N   0  0  0  0  0  0  0  0  0  0  0  0
   26.3613  -20.7336  -13.8047 C   0  0  1  0  0  0  0  0  0  0  0  0
   26.3463  -19.2609  -14.1509 C   0  0  0  0  0  0  0  0  0  0  0  0
   27.3779  -18.8889  -15.1554 C   0  0  0  0  0  0  0  0  0  0  0  0
   28.3465  -19.6716  -15.7637 C   0  0  0  0  0  0  0  0  0  0  0  0
   29.0678  -18.8654  -16.5523 N   0  0  0  0  0  0  0  0  0  0  0  0
   28.6028  -17.6187  -16.4712 C   0  0  0  0  0  0  0  0  0  0  0  0
   27.5769  -17.6358  -15.6225 N   0  0  0  0  0  0  0  0  0  0  0  0
   25.8233  -20.9952  -12.4754 C   0  0  0  0  0  0  0  0  0  0  0  0
   24.6368  -21.4268  -12.2779 O   0  0  0  0  0  0  0  0  0  0  0  0
   26.6034  -20.7815  -11.3286 N   0  0  0  0  0  0  0  0  0  0  0  0
   26.0074  -20.9672  -10.0043 C   0  0  1  0  0  0  0  0  0  0  0  0
   27.1486  -20.7798   -9.0401 C   0  0  0  0  0  0  0  0  0  0  0  0
   26.7891  -20.5429   -7.6389 C   0  0  0  0  0  0  0  0  0  0  0  0
   25.5744  -20.8896   -7.0661 C   0  0  0  0  0  0  0  0  0  0  0  0
   25.5998  -20.4878   -5.8032 N   0  0  0  0  0  0  0  0  0  0  0  0
   26.7647  -19.9011   -5.5292 C   0  0  0  0  0  0  0  0  0  0  0  0
   27.2882  -19.3369   -4.3704 C   0  0  0  0  0  0  0  0  0  0  0  0
   28.5576  -18.8016   -4.3395 C   0  0  0  0  0  0  0  0  0  0  0  0
   29.3497  -18.8142   -5.4769 C   0  0  0  0  0  0  0  0  0  0  0  0
   28.8021  -19.3806   -6.6128 C   0  0  0  0  0  0  0  0  0  0  0  0
   27.5300  -19.9193   -6.6531 C   0  0  0  0  0  0  0  0  0  0  0  0
   24.9185  -20.0384   -9.7313 C   0  0  0  0  0  0  0  0  0  0  0  0
   24.9529  -18.8736  -10.1797 O   0  0  0  0  0  0  0  0  0  0  0  0
   23.8296  -20.4249   -8.9818 O   0  0  0  0  0  0  0  0  0  0  0  0
  2  1  1  0
  3  2  2  0
  4  2  1  0
  5  4  1  0
  5  6  1  1
  7  5  1  0
  7  8  2  0
  9  7  1  0
 10  9  1  0
 10 11  1  6
 11 12  1  0
 12 16  1  0
 12 13  2  0
 13 14  1  0
 15 14  1  0
 16 15  2  0
 17 10  1  0
 18 17  2  0
 19 17  1  0
 20 21  1  1
 20 19  1  0
 21 22  1  0
 22 30  1  0
 23 24  1  0
 23 22  2  0
 24 25  1  0
 25 30  2  0
 25 26  1  0
 26 27  2  0
 27 28  1  0
 29 28  2  0
 30 29  1  0
 31 20  1  0
 31 33  1  0
 32 31  2  0
M  END
$$$$
