NHW.pdb
     RDKit          3D

 33 35  0  0  1  0  0  0  0  0999 V2000
   30.1859  -17.8524  -20.0459 N   0  0  0  0  0  0  0  0  0  0  0  0
   30.2757  -17.5257  -18.6430 C   0  0  0  0  0  0  0  0  0  0  0  0
   31.3852  -17.3072  -18.1375 O   0  0  0  0  0  0  0  0  0  0  0  0
   29.0311  -17.4690  -17.8801 C   0  0  0  0  0  0  0  0  0  0  0  0
   28.7925  -18.6777  -17.0527 C   0  0  2  0  0  0  0  0  0  0  0  0
   28.7595  -19.9155  -17.7745 N   0  0  0  0  0  0  0  0  0  0  0  0
   27.6216  -18.5302  -16.1210 C   0  0  0  0  0  0  0  0  0  0  0  0
   27.4451  -17.4968  -15.4572 O   0  0  0  0  0  0  0  0  0  0  0  0
   26.7182  -19.6052  -16.0168 N   0  0  0  0  0  0  0  0  0  0  0  0
   25.5051  -19.6546  -15.2828 C   0  0  1  0  0  0  0  0  0  0  0  0
   24.2353  -19.4066  -16.0670 C   0  0  0  0  0  0  0  0  0  0  0  0
   24.3002  -18.1809  -16.9067 C   0  0  0  0  0  0  0  0  0  0  0  0
   23.7870  -16.9154  -16.6699 C   0  0  0  0  0  0  0  0  0  0  0  0
   24.0599  -16.1705  -17.7483 N   0  0  0  0  0  0  0  0  0  0  0  0
   24.7172  -16.9016  -18.6486 C   0  0  0  0  0  0  0  0  0  0  0  0
   24.8617  -18.1216  -18.1352 N   0  0  0  0  0  0  0  0  0  0  0  0
   25.3537  -20.7295  -14.3098 C   0  0  0  0  0  0  0  0  0  0  0  0
   25.8068  -21.9092  -14.5006 O   0  0  0  0  0  0  0  0  0  0  0  0
   24.6906  -20.5103  -13.0926 N   0  0  0  0  0  0  0  0  0  0  0  0
   24.5360  -21.6152  -12.1447 C   0  0  1  0  0  0  0  0  0  0  0  0
   25.8919  -21.7667  -11.5076 C   0  0  0  0  0  0  0  0  0  0  0  0
   26.1255  -21.0049  -10.2772 C   0  0  0  0  0  0  0  0  0  0  0  0
   25.1523  -20.2905   -9.5943 C   0  0  0  0  0  0  0  0  0  0  0  0
   25.7393  -19.7056   -8.5596 N   0  0  0  0  0  0  0  0  0  0  0  0
   27.0380  -20.0038   -8.5370 C   0  0  0  0  0  0  0  0  0  0  0  0
   28.0697  -19.6645   -7.6676 C   0  0  0  0  0  0  0  0  0  0  0  0
   29.3530  -20.1301   -7.8555 C   0  0  0  0  0  0  0  0  0  0  0  0
   29.6466  -20.9569   -8.9286 C   0  0  0  0  0  0  0  0  0  0  0  0
   28.6015  -21.2758   -9.7754 C   0  0  0  0  0  0  0  0  0  0  0  0
   27.3118  -20.8131   -9.5949 C   0  0  0  0  0  0  0  0  0  0  0  0
   23.5008  -21.3740  -11.1483 C   0  0  0  0  0  0  0  0  0  0  0  0
   23.0148  -20.2329  -11.0040 O   0  0  0  0  0  0  0  0  0  0  0  0
   23.0331  -22.3957  -10.3518 O   0  0  0  0  0  0  0  0  0  0  0  0
  2  1  1  0
  3  2  2  0
  4  2  1  0
  5  4  1  0
  5  6  1  6
  7  5  1  0
  7  8  2  0
  9  7  1  0
 10  9  1  0
 10 11  1  6
 11 12  1  0
 12 16  1  0
 12 13  2  0
 13 14  1  0
 15 14  1  0
 16 15  2  0
 17 10  1  0
 18 17  2  0
 19 17  1  0
 20 21  1  1
 20 19  1  0
 21 22  1  0
 22 30  1  0
 23 24  1  0
 23 22  2  0
 24 25  1  0
 25 30  2  0
 25 26  1  0
 26 27  2  0
 27 28  1  0
 29 28  2  0
 30 29  1  0
 31 20  1  0
 31 33  1  0
 32 31  2  0
M  END
$$$$
