NHW.pdb
     RDKit          3D

 33 35  0  0  1  0  0  0  0  0999 V2000
   30.4490  -19.6430  -20.3933 N   0  0  0  0  0  0  0  0  0  0  0  0
   30.9317  -18.5655  -19.5633 C   0  0  0  0  0  0  0  0  0  0  0  0
   31.9371  -17.9312  -19.9111 O   0  0  0  0  0  0  0  0  0  0  0  0
   30.1957  -18.2751  -18.3353 C   0  0  0  0  0  0  0  0  0  0  0  0
   29.1637  -19.2919  -18.0134 C   0  0  2  0  0  0  0  0  0  0  0  0
   28.0603  -19.3528  -18.9263 N   0  0  0  0  0  0  0  0  0  0  0  0
   28.7143  -19.2396  -16.5795 C   0  0  0  0  0  0  0  0  0  0  0  0
   29.5270  -19.2661  -15.6422 O   0  0  0  0  0  0  0  0  0  0  0  0
   27.3326  -19.1593  -16.3205 N   0  0  0  0  0  0  0  0  0  0  0  0
   26.6893  -19.0202  -15.0637 C   0  0  1  0  0  0  0  0  0  0  0  0
   25.5911  -17.9828  -14.9828 C   0  0  0  0  0  0  0  0  0  0  0  0
   24.3375  -18.4086  -15.6601 C   0  0  0  0  0  0  0  0  0  0  0  0
   24.0730  -19.5501  -16.4003 C   0  0  0  0  0  0  0  0  0  0  0  0
   22.8149  -19.4488  -16.8465 N   0  0  0  0  0  0  0  0  0  0  0  0
   22.2762  -18.3045  -16.4251 C   0  0  0  0  0  0  0  0  0  0  0  0
   23.2027  -17.6750  -15.7052 N   0  0  0  0  0  0  0  0  0  0  0  0
   26.3500  -20.2425  -14.3454 C   0  0  0  0  0  0  0  0  0  0  0  0
   26.0041  -21.3223  -14.9350 O   0  0  0  0  0  0  0  0  0  0  0  0
   26.3914  -20.2883  -12.9434 N   0  0  0  0  0  0  0  0  0  0  0  0
   25.8814  -21.4689  -12.2437 C   0  0  1  0  0  0  0  0  0  0  0  0
   26.8791  -21.7247  -11.1454 C   0  0  0  0  0  0  0  0  0  0  0  0
   26.7120  -20.9453   -9.9151 C   0  0  0  0  0  0  0  0  0  0  0  0
   25.5282  -20.3415   -9.5179 C   0  0  0  0  0  0  0  0  0  0  0  0
   25.7690  -19.6994   -8.3834 N   0  0  0  0  0  0  0  0  0  0  0  0
   27.0435  -19.8563   -8.0264 C   0  0  0  0  0  0  0  0  0  0  0  0
   27.7795  -19.4103   -6.9334 C   0  0  0  0  0  0  0  0  0  0  0  0
   29.1099  -19.7348   -6.7798 C   0  0  0  0  0  0  0  0  0  0  0  0
   29.7510  -20.5225   -7.7231 C   0  0  0  0  0  0  0  0  0  0  0  0
   28.9941  -20.9498   -8.7980 C   0  0  0  0  0  0  0  0  0  0  0  0
   27.6597  -20.6289   -8.9605 C   0  0  0  0  0  0  0  0  0  0  0  0
   24.5373  -21.2835  -11.7130 C   0  0  0  0  0  0  0  0  0  0  0  0
   24.0797  -20.1354  -11.5356 O   0  0  0  0  0  0  0  0  0  0  0  0
   23.7433  -22.3653  -11.4027 O   0  0  0  0  0  0  0  0  0  0  0  0
  2  1  1  0
  3  2  2  0
  4  2  1  0
  5  4  1  0
  5  6  1  6
  7  5  1  0
  7  8  2  0
  9  7  1  0
 10  9  1  0
 10 11  1  6
 11 12  1  0
 12 16  1  0
 12 13  2  0
 13 14  1  0
 15 14  1  0
 16 15  2  0
 17 10  1  0
 18 17  2  0
 19 17  1  0
 20 21  1  1
 20 19  1  0
 21 22  1  0
 22 30  1  0
 23 24  1  0
 23 22  2  0
 24 25  1  0
 25 30  2  0
 25 26  1  0
 26 27  2  0
 27 28  1  0
 29 28  2  0
 30 29  1  0
 31 20  1  0
 31 33  1  0
 32 31  2  0
M  END
$$$$
