NHW.pdb
     RDKit          3D

 33 35  0  0  1  0  0  0  0  0999 V2000
   14.5834  -24.1825   -1.6278 N   0  0  0  0  0  0  0  0  0  0  0  0
   15.4603  -23.0364   -1.6511 C   0  0  0  0  0  0  0  0  0  0  0  0
   16.2187  -22.8683   -2.6159 O   0  0  0  0  0  0  0  0  0  0  0  0
   15.4057  -22.1192   -0.5154 C   0  0  0  0  0  0  0  0  0  0  0  0
   14.4288  -22.5276    0.5244 C   0  0  2  0  0  0  0  0  0  0  0  0
   13.0691  -22.6238    0.0812 N   0  0  0  0  0  0  0  0  0  0  0  0
   14.5586  -21.7360    1.7961 C   0  0  0  0  0  0  0  0  0  0  0  0
   14.1298  -20.5751    1.8859 O   0  0  0  0  0  0  0  0  0  0  0  0
   15.1863  -22.3492    2.8973 N   0  0  0  0  0  0  0  0  0  0  0  0
   15.5031  -21.7691    4.1527 C   0  0  1  0  0  0  0  0  0  0  0  0
   15.8441  -22.7308    5.2697 C   0  0  0  0  0  0  0  0  0  0  0  0
   15.9313  -22.0706    6.5994 C   0  0  0  0  0  0  0  0  0  0  0  0
   15.8386  -20.7281    6.9309 C   0  0  0  0  0  0  0  0  0  0  0  0
   16.0357  -20.6329    8.2516 N   0  0  0  0  0  0  0  0  0  0  0  0
   16.2468  -21.8444    8.7660 C   0  0  0  0  0  0  0  0  0  0  0  0
   16.1829  -22.7154    7.7609 N   0  0  0  0  0  0  0  0  0  0  0  0
   16.3676  -20.5954    4.1497 C   0  0  0  0  0  0  0  0  0  0  0  0
   17.3836  -20.4820    3.3828 O   0  0  0  0  0  0  0  0  0  0  0  0
   16.1149  -19.5133    5.0068 N   0  0  0  0  0  0  0  0  0  0  0  0
   17.0265  -18.3678    5.0124 C   0  0  1  0  0  0  0  0  0  0  0  0
   16.9213  -17.7867    3.6274 C   0  0  0  0  0  0  0  0  0  0  0  0
   17.7587  -16.6177    3.3429 C   0  0  0  0  0  0  0  0  0  0  0  0
   17.4314  -15.3120    3.6771 C   0  0  0  0  0  0  0  0  0  0  0  0
   18.4040  -14.5300    3.2302 N   0  0  0  0  0  0  0  0  0  0  0  0
   19.3416  -15.2597    2.6263 C   0  0  0  0  0  0  0  0  0  0  0  0
   20.5482  -14.9299    2.0175 C   0  0  0  0  0  0  0  0  0  0  0  0
   21.3679  -15.8945    1.4729 C   0  0  0  0  0  0  0  0  0  0  0  0
   21.0027  -17.2307    1.5208 C   0  0  0  0  0  0  0  0  0  0  0  0
   19.7984  -17.5274    2.1311 C   0  0  0  0  0  0  0  0  0  0  0  0
   18.9699  -16.5666    2.6795 C   0  0  0  0  0  0  0  0  0  0  0  0
   16.6992  -17.3808    6.0329 C   0  0  0  0  0  0  0  0  0  0  0  0
   15.5310  -17.2772    6.4616 O   0  0  0  0  0  0  0  0  0  0  0  0
   17.6675  -16.5486    6.5494 O   0  0  0  0  0  0  0  0  0  0  0  0
  2  1  1  0
  3  2  2  0
  4  2  1  0
  5  4  1  0
  5  6  1  6
  7  5  1  0
  7  8  2  0
  9  7  1  0
 10  9  1  0
 10 11  1  1
 11 12  1  0
 12 16  1  0
 12 13  2  0
 13 14  1  0
 15 14  1  0
 16 15  2  0
 17 10  1  0
 18 17  2  0
 19 17  1  0
 20 21  1  6
 20 19  1  0
 21 22  1  0
 22 30  1  0
 23 24  1  0
 23 22  2  0
 24 25  1  0
 25 30  2  0
 25 26  1  0
 26 27  2  0
 27 28  1  0
 29 28  2  0
 30 29  1  0
 31 20  1  0
 31 33  1  0
 32 31  2  0
M  END
$$$$
