NHW.pdb
     RDKit          3D

 33 35  0  0  1  0  0  0  0  0999 V2000
   28.9685  -19.0461  -17.6269 N   0  0  0  0  0  0  0  0  0  0  0  0
   27.7045  -18.3603  -17.5054 C   0  0  0  0  0  0  0  0  0  0  0  0
   27.6547  -17.1361  -17.6880 O   0  0  0  0  0  0  0  0  0  0  0  0
   26.5299  -19.1605  -17.1675 C   0  0  0  0  0  0  0  0  0  0  0  0
   26.8550  -20.5678  -16.8263 C   0  0  2  0  0  0  0  0  0  0  0  0
   27.7774  -21.2140  -17.7129 N   0  0  0  0  0  0  0  0  0  0  0  0
   25.6345  -21.4060  -16.5643 C   0  0  0  0  0  0  0  0  0  0  0  0
   24.6453  -21.3655  -17.3123 O   0  0  0  0  0  0  0  0  0  0  0  0
   25.6390  -22.2486  -15.4362 N   0  0  0  0  0  0  0  0  0  0  0  0
   24.6050  -23.1119  -14.9907 C   0  0  1  0  0  0  0  0  0  0  0  0
   24.9991  -24.5471  -14.7192 C   0  0  0  0  0  0  0  0  0  0  0  0
   25.7066  -25.1823  -15.8627 C   0  0  0  0  0  0  0  0  0  0  0  0
   25.2138  -26.0020  -16.8658 C   0  0  0  0  0  0  0  0  0  0  0  0
   26.2536  -26.3611  -17.6287 N   0  0  0  0  0  0  0  0  0  0  0  0
   27.3722  -25.8100  -17.1575 C   0  0  0  0  0  0  0  0  0  0  0  0
   27.0374  -25.0950  -16.0854 N   0  0  0  0  0  0  0  0  0  0  0  0
   23.6833  -22.5919  -13.9881 C   0  0  0  0  0  0  0  0  0  0  0  0
   23.4751  -23.1709  -12.8680 O   0  0  0  0  0  0  0  0  0  0  0  0
   22.9697  -21.4048  -14.2135 N   0  0  0  0  0  0  0  0  0  0  0  0
   22.0416  -20.9146  -13.1928 C   0  0  1  0  0  0  0  0  0  0  0  0
   22.6447  -19.6202  -12.7155 C   0  0  0  0  0  0  0  0  0  0  0  0
   23.9060  -19.7199  -11.9752 C   0  0  0  0  0  0  0  0  0  0  0  0
   25.1569  -19.4412  -12.5056 C   0  0  0  0  0  0  0  0  0  0  0  0
   26.0536  -19.6780  -11.5585 N   0  0  0  0  0  0  0  0  0  0  0  0
   25.4499  -20.0939  -10.4455 C   0  0  0  0  0  0  0  0  0  0  0  0
   25.9280  -20.4487   -9.1882 C   0  0  0  0  0  0  0  0  0  0  0  0
   25.0761  -20.8325   -8.1753 C   0  0  0  0  0  0  0  0  0  0  0  0
   23.7075  -20.8736   -8.3906 C   0  0  0  0  0  0  0  0  0  0  0  0
   23.2625  -20.5164   -9.6498 C   0  0  0  0  0  0  0  0  0  0  0  0
   24.1095  -20.1307  -10.6716 C   0  0  0  0  0  0  0  0  0  0  0  0
   20.6880  -20.7208  -13.6957 C   0  0  0  0  0  0  0  0  0  0  0  0
   19.7548  -20.4481  -12.9121 O   0  0  0  0  0  0  0  0  0  0  0  0
   20.4103  -20.8272  -15.0405 O   0  0  0  0  0  0  0  0  0  0  0  0
  2  1  1  0
  3  2  2  0
  4  2  1  0
  5  4  1  0
  5  6  1  6
  7  5  1  0
  7  8  2  0
  9  7  1  0
 10  9  1  0
 10 11  1  1
 11 12  1  0
 12 16  1  0
 12 13  2  0
 13 14  1  0
 15 14  1  0
 16 15  2  0
 17 10  1  0
 18 17  2  0
 19 17  1  0
 20 21  1  6
 20 19  1  0
 21 22  1  0
 22 30  1  0
 23 24  1  0
 23 22  2  0
 24 25  1  0
 25 30  2  0
 25 26  1  0
 26 27  2  0
 27 28  1  0
 29 28  2  0
 30 29  1  0
 31 20  1  0
 31 33  1  0
 32 31  2  0
M  END
$$$$
