RHF.pdb
     RDKit          3D

 33 34  0  0  1  0  0  0  0  0999 V2000
    8.0689  -13.4635   12.6721 N   0  0  0  0  0  0  0  0  0  0  0  0
    7.9806  -13.3744   14.0839 C   0  0  0  0  0  0  0  0  0  0  0  0
    6.9194  -12.9141   14.6542 N   0  0  0  0  0  0  0  0  0  0  0  0
    9.0759  -13.7982   14.8747 N   0  0  0  0  0  0  0  0  0  0  0  0
    8.7889  -14.5584   16.0952 C   0  0  0  0  0  0  0  0  0  0  0  0
    7.9196  -13.7593   17.0160 C   0  0  0  0  0  0  0  0  0  0  0  0
    7.6381  -14.4542   18.2898 C   0  0  0  0  0  0  0  0  0  0  0  0
    8.7972  -15.0554   18.9873 C   0  0  2  0  0  0  0  0  0  0  0  0
    9.5190  -16.0174   18.2137 N   0  0  0  0  0  0  0  0  0  0  0  0
    8.4427  -15.6473   20.3061 C   0  0  0  0  0  0  0  0  0  0  0  0
    7.6728  -15.0107   21.0655 O   0  0  0  0  0  0  0  0  0  0  0  0
    6.7642  -12.9624   15.6731 N   0  0  0  0  0  0  0  0  0  0  0  0
    8.9246  -16.8904   20.7552 C   0  0  1  0  0  0  0  0  0  0  0  0
    8.4663  -17.5087   22.0378 C   0  0  0  0  0  0  0  0  0  0  0  0
    8.9617  -18.9217   21.9505 C   0  0  0  0  0  0  0  0  0  0  0  0
    8.7144  -19.7633   23.1267 C   0  0  0  0  0  0  0  0  0  0  0  0
    8.0264  -19.4527   24.2564 N   0  0  0  0  0  0  0  0  0  0  0  0
    7.9835  -20.5548   25.0478 C   0  0  0  0  0  0  0  0  0  0  0  0
    8.6256  -21.5271   24.4287 N   0  0  0  0  0  0  0  0  0  0  0  0
    9.0751  -21.0691   23.2647 C   0  0  0  0  0  0  0  0  0  0  0  0
    9.2385  -16.8109   23.1224 O   0  0  0  0  0  0  0  0  0  0  0  0
   10.1806  -16.0701   22.8502 N   0  0  0  0  0  0  0  0  0  0  0  0
    8.9124  -16.9797   24.4921 C   0  0  1  0  0  0  0  0  0  0  0  0
    8.6815  -15.8307   25.3815 C   0  0  0  0  0  0  0  0  0  0  0  0
    7.6919  -14.8993   24.7317 C   0  0  0  0  0  0  0  0  0  0  0  0
    7.4095  -13.7144   25.5707 C   0  0  0  0  0  0  0  0  0  0  0  0
    8.4188  -12.8415   25.9074 C   0  0  0  0  0  0  0  0  0  0  0  0
    8.1822  -11.7318   26.6780 C   0  0  0  0  0  0  0  0  0  0  0  0
    6.8922  -11.4966   27.1206 C   0  0  0  0  0  0  0  0  0  0  0  0
    5.8600  -12.3418   26.8068 C   0  0  0  0  0  0  0  0  0  0  0  0
    6.1476  -13.4471   26.0276 C   0  0  0  0  0  0  0  0  0  0  0  0
    8.3001  -16.2809   26.7220 O   0  0  0  0  0  0  0  0  0  0  0  0
    8.8175  -15.7131   27.7227 O   0  0  0  0  0  0  0  0  0  0  0  0
  2  3  2  0
  2  1  1  0
  4  2  1  0
  5  4  1  0
  6  5  1  0
  7  6  1  0
  8  9  1  6
  8  7  1  0
 10 12  1  0
 10  8  1  0
 11 10  2  0
 13 12  1  0
 13 14  1  1
 14 15  1  0
 15 16  2  0
 16 17  1  0
 18 17  1  0
 19 15  1  0
 19 18  2  0
 20 13  1  0
 21 20  2  0
 22 20  1  0
 23 31  1  0
 23 22  1  0
 24 25  1  0
 23 24  1  1
 25 30  1  0
 25 26  2  0
 26 27  1  0
 27 28  2  0
 29 28  1  0
 30 29  2  0
 31 33  1  0
 32 31  2  0
M  END
$$$$
