RHF.pdb
     RDKit          3D

 33 34  0  0  1  0  0  0  0  0999 V2000
    8.2406  -12.6982   20.6137 N   0  0  0  0  0  0  0  0  0  0  0  0
    7.9625  -12.8313   19.2304 C   0  0  0  0  0  0  0  0  0  0  0  0
    7.1732  -12.0066   18.6303 N   0  0  0  0  0  0  0  0  0  0  0  0
    8.5625  -13.8865   18.5014 N   0  0  0  0  0  0  0  0  0  0  0  0
    9.3823  -14.8523   19.2396 C   0  0  0  0  0  0  0  0  0  0  0  0
    9.8233  -15.9617   18.3357 C   0  0  0  0  0  0  0  0  0  0  0  0
   10.6692  -16.9614   19.0212 C   0  0  0  0  0  0  0  0  0  0  0  0
   10.0110  -18.2264   19.4183 C   0  0  2  0  0  0  0  0  0  0  0  0
    8.7560  -18.4670   18.7764 N   0  0  0  0  0  0  0  0  0  0  0  0
    9.8465  -18.3619   20.8914 C   0  0  0  0  0  0  0  0  0  0  0  0
    8.6874  -18.4584   21.3624 O   0  0  0  0  0  0  0  0  0  0  0  0
    6.9484  -12.0754   17.6256 N   0  0  0  0  0  0  0  0  0  0  0  0
   10.9246  -18.3885   21.7950 C   0  0  2  0  0  0  0  0  0  0  0  0
   10.7420  -18.6953   23.2474 C   0  0  0  0  0  0  0  0  0  0  0  0
   12.0877  -19.1980   23.6785 C   0  0  0  0  0  0  0  0  0  0  0  0
   12.3512  -20.6205   23.4340 C   0  0  0  0  0  0  0  0  0  0  0  0
   11.7940  -21.6985   24.0451 N   0  0  0  0  0  0  0  0  0  0  0  0
   12.2743  -22.8217   23.4530 C   0  0  0  0  0  0  0  0  0  0  0  0
   13.1071  -22.4550   22.4975 N   0  0  0  0  0  0  0  0  0  0  0  0
   13.1675  -21.1275   22.4693 C   0  0  0  0  0  0  0  0  0  0  0  0
   10.5047  -17.3695   23.9148 O   0  0  0  0  0  0  0  0  0  0  0  0
   11.0867  -16.3569   23.5322 N   0  0  0  0  0  0  0  0  0  0  0  0
    9.6068  -17.2368   25.0044 C   0  0  1  0  0  0  0  0  0  0  0  0
    9.3536  -15.9377   25.6467 C   0  0  0  0  0  0  0  0  0  0  0  0
    8.1157  -15.3263   25.0446 C   0  0  0  0  0  0  0  0  0  0  0  0
    7.6926  -14.1046   25.7630 C   0  0  0  0  0  0  0  0  0  0  0  0
    8.5631  -13.0500   25.9182 C   0  0  0  0  0  0  0  0  0  0  0  0
    8.1934  -11.9034   26.5739 C   0  0  0  0  0  0  0  0  0  0  0  0
    6.9107  -11.8188   27.0867 C   0  0  0  0  0  0  0  0  0  0  0  0
    6.0146  -12.8471   26.9529 C   0  0  0  0  0  0  0  0  0  0  0  0
    6.4332  -13.9825   26.2841 C   0  0  0  0  0  0  0  0  0  0  0  0
    9.3126  -16.0789   27.1039 O   0  0  0  0  0  0  0  0  0  0  0  0
    8.6790  -17.0497   27.6018 O   0  0  0  0  0  0  0  0  0  0  0  0
  2  3  2  0
  2  1  1  0
  4  2  1  0
  5  4  1  0
  6  5  1  0
  7  6  1  0
  8  9  1  6
  8  7  1  0
 10 12  1  0
 10  8  1  0
 11 10  2  0
 13 12  1  0
 13 14  1  6
 14 15  1  0
 15 16  2  0
 16 17  1  0
 18 17  1  0
 19 15  1  0
 19 18  2  0
 20 13  1  0
 21 20  2  0
 22 20  1  0
 23 31  1  0
 23 22  1  0
 24 25  1  0
 23 24  1  1
 25 30  1  0
 25 26  2  0
 26 27  1  0
 27 28  2  0
 29 28  1  0
 30 29  2  0
 31 33  1  0
 32 31  2  0
M  END
$$$$
