RHF.pdb
     RDKit          3D

 33 34  0  0  1  0  0  0  0  0999 V2000
   10.3023  -15.4717   13.7714 N   0  0  0  0  0  0  0  0  0  0  0  0
   10.3213  -16.1026   15.0404 C   0  0  0  0  0  0  0  0  0  0  0  0
   11.0337  -17.1578   15.2458 N   0  0  0  0  0  0  0  0  0  0  0  0
    9.5452  -15.5625   16.0943 N   0  0  0  0  0  0  0  0  0  0  0  0
    8.4668  -14.6319   15.7464 C   0  0  0  0  0  0  0  0  0  0  0  0
    7.7039  -14.2348   16.9722 C   0  0  0  0  0  0  0  0  0  0  0  0
    8.4532  -13.3019   17.8399 C   0  0  0  0  0  0  0  0  0  0  0  0
    8.0202  -13.2179   19.2529 C   0  0  2  0  0  0  0  0  0  0  0  0
    8.7433  -12.2660   20.0376 N   0  0  0  0  0  0  0  0  0  0  0  0
    8.0265  -14.5356   19.9451 C   0  0  0  0  0  0  0  0  0  0  0  0
    7.4261  -15.4998   19.4119 O   0  0  0  0  0  0  0  0  0  0  0  0
   11.0466  -17.6593   16.1475 N   0  0  0  0  0  0  0  0  0  0  0  0
    8.6724  -14.7654   21.1737 C   0  0  1  0  0  0  0  0  0  0  0  0
    8.6785  -16.1074   21.8341 C   0  0  0  0  0  0  0  0  0  0  0  0
    9.7888  -16.8411   21.1425 C   0  0  0  0  0  0  0  0  0  0  0  0
   10.0960  -18.1790   21.6608 C   0  0  0  0  0  0  0  0  0  0  0  0
   11.3086  -18.7810   21.7756 N   0  0  0  0  0  0  0  0  0  0  0  0
   11.1331  -19.9855   22.3765 C   0  0  0  0  0  0  0  0  0  0  0  0
    9.8467  -20.1309   22.6313 N   0  0  0  0  0  0  0  0  0  0  0  0
    9.2019  -19.0490   22.2065 C   0  0  0  0  0  0  0  0  0  0  0  0
    9.1000  -15.8575   23.2552 O   0  0  0  0  0  0  0  0  0  0  0  0
   10.1724  -15.3136   23.5094 N   0  0  0  0  0  0  0  0  0  0  0  0
    8.2826  -16.2376   24.3499 C   0  0  1  0  0  0  0  0  0  0  0  0
    8.7198  -16.0581   25.7431 C   0  0  0  0  0  0  0  0  0  0  0  0
    7.5197  -15.7398   26.5961 C   0  0  0  0  0  0  0  0  0  0  0  0
    7.1291  -14.3166   26.4981 C   0  0  0  0  0  0  0  0  0  0  0  0
    5.8096  -13.9454   26.6212 C   0  0  0  0  0  0  0  0  0  0  0  0
    5.4219  -12.6323   26.5413 C   0  0  0  0  0  0  0  0  0  0  0  0
    6.3919  -11.6676   26.3317 C   0  0  0  0  0  0  0  0  0  0  0  0
    7.7162  -11.9968   26.2041 C   0  0  0  0  0  0  0  0  0  0  0  0
    8.0583  -13.3335   26.2917 C   0  0  0  0  0  0  0  0  0  0  0  0
    9.4959  -17.2145   26.1962 O   0  0  0  0  0  0  0  0  0  0  0  0
    9.4079  -18.2949   25.5506 O   0  0  0  0  0  0  0  0  0  0  0  0
  2  3  2  0
  2  1  1  0
  4  2  1  0
  5  4  1  0
  6  5  1  0
  7  6  1  0
  8  9  1  1
  8  7  1  0
 10 12  1  0
 10  8  1  0
 11 10  2  0
 13 12  1  0
 13 14  1  6
 14 15  1  0
 15 16  2  0
 16 17  1  0
 18 17  1  0
 19 15  1  0
 19 18  2  0
 20 13  1  0
 21 20  2  0
 22 20  1  0
 23 31  1  0
 23 22  1  0
 24 25  1  0
 23 24  1  1
 25 30  1  0
 25 26  2  0
 26 27  1  0
 27 28  2  0
 29 28  1  0
 30 29  2  0
 31 33  1  0
 32 31  2  0
M  END
$$$$
