RHF.pdb
     RDKit          3D

 33 34  0  0  1  0  0  0  0  0999 V2000
    8.6045  -12.4834   18.8156 N   0  0  0  0  0  0  0  0  0  0  0  0
    8.4710  -13.4867   17.8235 C   0  0  0  0  0  0  0  0  0  0  0  0
    8.9162  -13.3002   16.6276 N   0  0  0  0  0  0  0  0  0  0  0  0
    7.8390  -14.7095   18.1553 N   0  0  0  0  0  0  0  0  0  0  0  0
    6.7565  -14.6774   19.1439 C   0  0  0  0  0  0  0  0  0  0  0  0
    7.2785  -15.0327   20.5016 C   0  0  0  0  0  0  0  0  0  0  0  0
    7.9229  -16.3623   20.5411 C   0  0  0  0  0  0  0  0  0  0  0  0
    7.1207  -17.4714   21.1047 C   0  0  2  0  0  0  0  0  0  0  0  0
    5.7997  -17.5782   20.5677 N   0  0  0  0  0  0  0  0  0  0  0  0
    7.0492  -17.4441   22.5911 C   0  0  0  0  0  0  0  0  0  0  0  0
    6.0669  -16.8862   23.1374 O   0  0  0  0  0  0  0  0  0  0  0  0
    8.6988  -13.9338   15.8428 N   0  0  0  0  0  0  0  0  0  0  0  0
    8.0276  -18.0124   23.4273 C   0  0  1  0  0  0  0  0  0  0  0  0
    7.9125  -17.9940   24.9184 C   0  0  0  0  0  0  0  0  0  0  0  0
    8.1115  -19.4280   25.3101 C   0  0  0  0  0  0  0  0  0  0  0  0
    6.9447  -20.3043   25.1564 C   0  0  0  0  0  0  0  0  0  0  0  0
    5.7141  -19.9928   24.6721 N   0  0  0  0  0  0  0  0  0  0  0  0
    4.9678  -21.1262   24.6391 C   0  0  0  0  0  0  0  0  0  0  0  0
    5.7123  -22.1183   25.0889 N   0  0  0  0  0  0  0  0  0  0  0  0
    6.9119  -21.6423   25.4069 C   0  0  0  0  0  0  0  0  0  0  0  0
    9.0982  -17.2094   25.4065 O   0  0  0  0  0  0  0  0  0  0  0  0
   10.1716  -17.2505   24.8094 N   0  0  0  0  0  0  0  0  0  0  0  0
    9.0246  -16.3975   26.5668 C   0  0  1  0  0  0  0  0  0  0  0  0
   10.1966  -15.6721   27.0812 C   0  0  0  0  0  0  0  0  0  0  0  0
   10.1715  -14.2622   26.5516 C   0  0  0  0  0  0  0  0  0  0  0  0
    8.8647  -13.6068   26.7759 C   0  0  0  0  0  0  0  0  0  0  0  0
    8.6667  -12.8043   27.8763 C   0  0  0  0  0  0  0  0  0  0  0  0
    7.4671  -12.1795   28.1037 C   0  0  0  0  0  0  0  0  0  0  0  0
    6.4396  -12.3696   27.1962 C   0  0  0  0  0  0  0  0  0  0  0  0
    6.5973  -13.1609   26.0884 C   0  0  0  0  0  0  0  0  0  0  0  0
    7.8245  -13.7697   25.9019 C   0  0  0  0  0  0  0  0  0  0  0  0
   10.2677  -15.7701   28.5408 O   0  0  0  0  0  0  0  0  0  0  0  0
   11.2482  -15.2458   29.1370 O   0  0  0  0  0  0  0  0  0  0  0  0
  2  3  2  0
  2  1  1  0
  4  2  1  0
  5  4  1  0
  6  5  1  0
  7  6  1  0
  8  9  1  6
  8  7  1  0
 10 12  1  0
 10  8  1  0
 11 10  2  0
 13 12  1  0
 13 14  1  1
 14 15  1  0
 15 16  2  0
 16 17  1  0
 18 17  1  0
 19 15  1  0
 19 18  2  0
 20 13  1  0
 21 20  2  0
 22 20  1  0
 23 31  1  0
 23 22  1  0
 24 25  1  0
 23 24  1  1
 25 30  1  0
 25 26  2  0
 26 27  1  0
 27 28  2  0
 29 28  1  0
 30 29  2  0
 31 33  1  0
 32 31  2  0
M  END
$$$$
