RHF.pdb
     RDKit          3D

 33 34  0  0  1  0  0  0  0  0999 V2000
    8.3760  -13.2673   16.4778 N   0  0  0  0  0  0  0  0  0  0  0  0
    8.0597  -14.6346   16.6764 C   0  0  0  0  0  0  0  0  0  0  0  0
    8.6557  -15.5580   16.0017 N   0  0  0  0  0  0  0  0  0  0  0  0
    7.0743  -14.9862   17.6305 N   0  0  0  0  0  0  0  0  0  0  0  0
    6.4870  -13.9133   18.4392 C   0  0  0  0  0  0  0  0  0  0  0  0
    7.4084  -13.5390   19.5586 C   0  0  0  0  0  0  0  0  0  0  0  0
    7.2760  -14.4250   20.7343 C   0  0  0  0  0  0  0  0  0  0  0  0
    8.5348  -14.9003   21.3514 C   0  0  2  0  0  0  0  0  0  0  0  0
    9.6221  -15.0522   20.4351 N   0  0  0  0  0  0  0  0  0  0  0  0
    8.3654  -16.1574   22.1300 C   0  0  0  0  0  0  0  0  0  0  0  0
    7.8015  -17.1351   21.5817 O   0  0  0  0  0  0  0  0  0  0  0  0
    8.4856  -16.5639   16.1558 N   0  0  0  0  0  0  0  0  0  0  0  0
    8.8048  -16.3151   23.4572 C   0  0  1  0  0  0  0  0  0  0  0  0
   10.0687  -17.0380   23.7996 C   0  0  0  0  0  0  0  0  0  0  0  0
   11.1076  -16.3606   22.9563 C   0  0  0  0  0  0  0  0  0  0  0  0
   11.3739  -16.9723   21.6495 C   0  0  0  0  0  0  0  0  0  0  0  0
   10.7619  -18.0430   21.0792 N   0  0  0  0  0  0  0  0  0  0  0  0
   11.2732  -18.2145   19.8334 C   0  0  0  0  0  0  0  0  0  0  0  0
   12.1782  -17.2760   19.6309 N   0  0  0  0  0  0  0  0  0  0  0  0
   12.2542  -16.5139   20.7172 C   0  0  0  0  0  0  0  0  0  0  0  0
   10.3482  -16.7057   25.2387 O   0  0  0  0  0  0  0  0  0  0  0  0
   11.5015  -16.6277   25.6562 N   0  0  0  0  0  0  0  0  0  0  0  0
    9.2994  -16.4715   26.1639 C   0  0  1  0  0  0  0  0  0  0  0  0
    9.5648  -16.2117   27.5874 C   0  0  0  0  0  0  0  0  0  0  0  0
    8.4114  -15.4357   28.1673 C   0  0  0  0  0  0  0  0  0  0  0  0
    8.0948  -14.2306   27.3702 C   0  0  0  0  0  0  0  0  0  0  0  0
    7.0228  -14.2268   26.5072 C   0  0  0  0  0  0  0  0  0  0  0  0
    6.7036  -13.1204   25.7622 C   0  0  0  0  0  0  0  0  0  0  0  0
    7.4875  -11.9871   25.8915 C   0  0  0  0  0  0  0  0  0  0  0  0
    8.5632  -11.9511   26.7400 C   0  0  0  0  0  0  0  0  0  0  0  0
    8.8454  -13.0907   27.4700 C   0  0  0  0  0  0  0  0  0  0  0  0
    9.8729  -17.4575   28.2932 O   0  0  0  0  0  0  0  0  0  0  0  0
    9.6175  -18.5552   27.7262 O   0  0  0  0  0  0  0  0  0  0  0  0
  2  3  2  0
  2  1  1  0
  4  2  1  0
  5  4  1  0
  6  5  1  0
  7  6  1  0
  8  9  1  6
  8  7  1  0
 10 12  1  0
 10  8  1  0
 11 10  2  0
 13 12  1  0
 13 14  1  1
 14 15  1  0
 15 16  2  0
 16 17  1  0
 18 17  1  0
 19 15  1  0
 19 18  2  0
 20 13  1  0
 21 20  2  0
 22 20  1  0
 23 31  1  0
 23 22  1  0
 24 25  1  0
 23 24  1  1
 25 30  1  0
 25 26  2  0
 26 27  1  0
 27 28  2  0
 29 28  1  0
 30 29  2  0
 31 33  1  0
 32 31  2  0
M  END
$$$$
