RHF.pdb
     RDKit          3D

 33 34  0  0  1  0  0  0  0  0999 V2000
    8.5487  -13.0031   17.9401 N   0  0  0  0  0  0  0  0  0  0  0  0
    8.5641  -12.5229   19.2735 C   0  0  0  0  0  0  0  0  0  0  0  0
    9.1791  -11.4310   19.5781 N   0  0  0  0  0  0  0  0  0  0  0  0
    7.8930  -13.2563   20.2817 N   0  0  0  0  0  0  0  0  0  0  0  0
    7.0249  -14.3620   19.8647 C   0  0  0  0  0  0  0  0  0  0  0  0
    7.8403  -15.5815   19.5646 C   0  0  0  0  0  0  0  0  0  0  0  0
    8.6549  -16.0270   20.7146 C   0  0  0  0  0  0  0  0  0  0  0  0
    8.4260  -17.4088   21.1936 C   0  0  2  0  0  0  0  0  0  0  0  0
    7.2625  -18.0380   20.6501 N   0  0  0  0  0  0  0  0  0  0  0  0
    8.3976  -17.5154   22.6779 C   0  0  0  0  0  0  0  0  0  0  0  0
    7.2923  -17.6756   23.2500 O   0  0  0  0  0  0  0  0  0  0  0  0
    9.2078  -11.0522   20.5375 N   0  0  0  0  0  0  0  0  0  0  0  0
    9.5482  -17.4466   23.4846 C   0  0  2  0  0  0  0  0  0  0  0  0
    9.5150  -17.7426   24.9503 C   0  0  0  0  0  0  0  0  0  0  0  0
   10.5323  -18.8318   25.1182 C   0  0  0  0  0  0  0  0  0  0  0  0
   10.0706  -20.1934   24.8255 C   0  0  0  0  0  0  0  0  0  0  0  0
    8.8427  -20.5953   24.4050 N   0  0  0  0  0  0  0  0  0  0  0  0
    8.8824  -21.9345   24.1866 C   0  0  0  0  0  0  0  0  0  0  0  0
   10.1018  -22.3568   24.4616 N   0  0  0  0  0  0  0  0  0  0  0  0
   10.8362  -21.3191   24.8495 C   0  0  0  0  0  0  0  0  0  0  0  0
   10.0408  -16.5066   25.6252 O   0  0  0  0  0  0  0  0  0  0  0  0
   10.9785  -15.8747   25.1437 N   0  0  0  0  0  0  0  0  0  0  0  0
    9.4794  -16.0255   26.8353 C   0  0  1  0  0  0  0  0  0  0  0  0
   10.0800  -14.9062   27.5775 C   0  0  0  0  0  0  0  0  0  0  0  0
    8.9800  -14.0656   28.1710 C   0  0  0  0  0  0  0  0  0  0  0  0
    8.0198  -13.6014   27.1462 C   0  0  0  0  0  0  0  0  0  0  0  0
    8.4585  -12.9007   26.0459 C   0  0  0  0  0  0  0  0  0  0  0  0
    7.5899  -12.4653   25.0778 C   0  0  0  0  0  0  0  0  0  0  0  0
    6.2423  -12.7445   25.2240 C   0  0  0  0  0  0  0  0  0  0  0  0
    5.7661  -13.4395   26.3051 C   0  0  0  0  0  0  0  0  0  0  0  0
    6.6800  -13.8576   27.2546 C   0  0  0  0  0  0  0  0  0  0  0  0
   11.0606  -15.3951   28.5493 O   0  0  0  0  0  0  0  0  0  0  0  0
   11.1184  -16.6338   28.7822 O   0  0  0  0  0  0  0  0  0  0  0  0
  2  3  2  0
  2  1  1  0
  4  2  1  0
  5  4  1  0
  6  5  1  0
  7  6  1  0
  8  9  1  6
  8  7  1  0
 10 12  1  0
 10  8  1  0
 11 10  2  0
 13 12  1  0
 13 14  1  6
 14 15  1  0
 15 16  2  0
 16 17  1  0
 18 17  1  0
 19 15  1  0
 19 18  2  0
 20 13  1  0
 21 20  2  0
 22 20  1  0
 23 31  1  0
 23 22  1  0
 24 25  1  0
 23 24  1  1
 25 30  1  0
 25 26  2  0
 26 27  1  0
 27 28  2  0
 29 28  1  0
 30 29  2  0
 31 33  1  0
 32 31  2  0
M  END
$$$$
