RHF.pdb
     RDKit          3D

 33 34  0  0  1  0  0  0  0  0999 V2000
   13.6762  -20.5962   17.2894 N   0  0  0  0  0  0  0  0  0  0  0  0
   14.1416  -20.8842   15.9821 C   0  0  0  0  0  0  0  0  0  0  0  0
   14.2556  -22.1016   15.5719 N   0  0  0  0  0  0  0  0  0  0  0  0
   14.4847  -19.8164   15.1179 N   0  0  0  0  0  0  0  0  0  0  0  0
   14.3535  -18.4487   15.6299 C   0  0  0  0  0  0  0  0  0  0  0  0
   14.8923  -17.4655   14.6372 C   0  0  0  0  0  0  0  0  0  0  0  0
   14.7641  -16.0636   15.0875 C   0  0  0  0  0  0  0  0  0  0  0  0
   13.4660  -15.4005   14.8295 C   0  0  2  0  0  0  0  0  0  0  0  0
   13.5363  -14.2940   13.9264 N   0  0  0  0  0  0  0  0  0  0  0  0
   12.7680  -14.9786   16.0745 C   0  0  0  0  0  0  0  0  0  0  0  0
   13.2228  -14.0033   16.7200 O   0  0  0  0  0  0  0  0  0  0  0  0
   14.6563  -22.3491   14.6538 N   0  0  0  0  0  0  0  0  0  0  0  0
   11.6173  -15.6151   16.5746 C   0  0  2  0  0  0  0  0  0  0  0  0
   10.9228  -15.1504   17.8152 C   0  0  0  0  0  0  0  0  0  0  0  0
    9.5452  -15.7307   17.6924 C   0  0  0  0  0  0  0  0  0  0  0  0
    8.6133  -14.9969   16.8288 C   0  0  0  0  0  0  0  0  0  0  0  0
    8.4950  -13.6533   16.6653 N   0  0  0  0  0  0  0  0  0  0  0  0
    7.5562  -13.4192   15.7130 C   0  0  0  0  0  0  0  0  0  0  0  0
    7.1021  -14.5844   15.2925 N   0  0  0  0  0  0  0  0  0  0  0  0
    7.7289  -15.5517   15.9545 C   0  0  0  0  0  0  0  0  0  0  0  0
   11.6198  -15.8428   18.9530 O   0  0  0  0  0  0  0  0  0  0  0  0
   11.9536  -17.0223   18.8649 N   0  0  0  0  0  0  0  0  0  0  0  0
   11.9164  -15.1667   20.1636 C   0  0  1  0  0  0  0  0  0  0  0  0
   12.5399  -15.8560   21.3040 C   0  0  0  0  0  0  0  0  0  0  0  0
   13.7825  -15.1072   21.7094 C   0  0  0  0  0  0  0  0  0  0  0  0
   14.8673  -15.2491   20.7141 C   0  0  0  0  0  0  0  0  0  0  0  0
   15.0427  -14.2996   19.7334 C   0  0  0  0  0  0  0  0  0  0  0  0
   16.0450  -14.4039   18.8030 C   0  0  0  0  0  0  0  0  0  0  0  0
   16.8932  -15.4959   18.8638 C   0  0  0  0  0  0  0  0  0  0  0  0
   16.7513  -16.4626   19.8249 C   0  0  0  0  0  0  0  0  0  0  0  0
   15.7264  -16.3139   20.7408 C   0  0  0  0  0  0  0  0  0  0  0  0
   11.5708  -16.0520   22.3845 O   0  0  0  0  0  0  0  0  0  0  0  0
   11.9189  -16.7171   23.3985 O   0  0  0  0  0  0  0  0  0  0  0  0
  2  3  2  0
  2  1  1  0
  4  2  1  0
  5  4  1  0
  6  5  1  0
  7  6  1  0
  8  9  1  6
  8  7  1  0
 10 12  1  0
 10  8  1  0
 11 10  2  0
 13 12  1  0
 13 14  1  6
 14 15  1  0
 15 16  2  0
 16 17  1  0
 18 17  1  0
 19 15  1  0
 19 18  2  0
 20 13  1  0
 21 20  2  0
 22 20  1  0
 23 31  1  0
 23 22  1  0
 24 25  1  0
 23 24  1  1
 25 30  1  0
 25 26  2  0
 26 27  1  0
 27 28  2  0
 29 28  1  0
 30 29  2  0
 31 33  1  0
 32 31  2  0
M  END
$$$$
