RHF.pdb
     RDKit          3D

 33 34  0  0  1  0  0  0  0  0999 V2000
    6.8462  -13.1244   16.7935 N   0  0  0  0  0  0  0  0  0  0  0  0
    8.1874  -13.2000   17.2454 C   0  0  0  0  0  0  0  0  0  0  0  0
    8.8687  -12.1309   17.4820 N   0  0  0  0  0  0  0  0  0  0  0  0
    8.7829  -14.4700   17.4381 N   0  0  0  0  0  0  0  0  0  0  0  0
    7.9204  -15.6530   17.3568 C   0  0  0  0  0  0  0  0  0  0  0  0
    8.1870  -16.5739   18.5071 C   0  0  0  0  0  0  0  0  0  0  0  0
    7.9293  -15.9452   19.8197 C   0  0  0  0  0  0  0  0  0  0  0  0
    9.0935  -15.7905   20.7207 C   0  0  2  0  0  0  0  0  0  0  0  0
   10.3258  -16.2784   20.1838 N   0  0  0  0  0  0  0  0  0  0  0  0
    8.8724  -16.3832   22.0680 C   0  0  0  0  0  0  0  0  0  0  0  0
    7.8425  -16.0595   22.7076 O   0  0  0  0  0  0  0  0  0  0  0  0
    9.8832  -12.1423   17.6699 N   0  0  0  0  0  0  0  0  0  0  0  0
    9.7587  -17.2938   22.6719 C   0  0  2  0  0  0  0  0  0  0  0  0
    9.5834  -17.7641   24.0809 C   0  0  0  0  0  0  0  0  0  0  0  0
   10.5266  -18.9251   24.1902 C   0  0  0  0  0  0  0  0  0  0  0  0
   10.1070  -20.1598   23.5177 C   0  0  0  0  0  0  0  0  0  0  0  0
    8.9839  -20.3817   22.7859 N   0  0  0  0  0  0  0  0  0  0  0  0
    9.0401  -21.6432   22.2878 C   0  0  0  0  0  0  0  0  0  0  0  0
   10.1678  -22.1933   22.6960 N   0  0  0  0  0  0  0  0  0  0  0  0
   10.8279  -21.3124   23.4410 C   0  0  0  0  0  0  0  0  0  0  0  0
   10.1096  -16.6538   24.9469 O   0  0  0  0  0  0  0  0  0  0  0  0
   10.3354  -15.5404   24.4782 N   0  0  0  0  0  0  0  0  0  0  0  0
   10.3644  -16.8470   26.3285 C   0  0  2  0  0  0  0  0  0  0  0  0
    9.7349  -16.0056   27.3581 C   0  0  0  0  0  0  0  0  0  0  0  0
    8.2843  -15.8034   27.0062 C   0  0  0  0  0  0  0  0  0  0  0  0
    7.9719  -14.3848   26.7273 C   0  0  0  0  0  0  0  0  0  0  0  0
    6.7179  -14.0189   26.2943 C   0  0  0  0  0  0  0  0  0  0  0  0
    6.4004  -12.7099   26.0355 C   0  0  0  0  0  0  0  0  0  0  0  0
    7.3747  -11.7442   26.2185 C   0  0  0  0  0  0  0  0  0  0  0  0
    8.6351  -12.0682   26.6483 C   0  0  0  0  0  0  0  0  0  0  0  0
    8.9077  -13.4008   26.8962 C   0  0  0  0  0  0  0  0  0  0  0  0
    9.9627  -16.5624   28.6934 O   0  0  0  0  0  0  0  0  0  0  0  0
   10.1580  -15.7703   29.6558 O   0  0  0  0  0  0  0  0  0  0  0  0
  2  3  2  0
  2  1  1  0
  4  2  1  0
  5  4  1  0
  6  5  1  0
  7  6  1  0
  8  9  1  6
  8  7  1  0
 10 12  1  0
 10  8  1  0
 11 10  2  0
 13 12  1  0
 13 14  1  6
 14 15  1  0
 15 16  2  0
 16 17  1  0
 18 17  1  0
 19 15  1  0
 19 18  2  0
 20 13  1  0
 21 20  2  0
 22 20  1  0
 23 31  1  0
 23 22  1  0
 24 25  1  0
 23 24  1  1
 25 30  1  0
 25 26  2  0
 26 27  1  0
 27 28  2  0
 29 28  1  0
 30 29  2  0
 31 33  1  0
 32 31  2  0
M  END
$$$$
