RHF.pdb
     RDKit          3D

 33 34  0  0  1  0  0  0  0  0999 V2000
    9.5976  -14.9425   13.9925 N   0  0  0  0  0  0  0  0  0  0  0  0
    8.6619  -13.9209   13.6934 C   0  0  0  0  0  0  0  0  0  0  0  0
    8.4239  -13.5759   12.4737 N   0  0  0  0  0  0  0  0  0  0  0  0
    7.9813  -13.2730   14.7525 N   0  0  0  0  0  0  0  0  0  0  0  0
    8.3792  -13.5982   16.1258 C   0  0  0  0  0  0  0  0  0  0  0  0
    7.7871  -14.9083   16.5447 C   0  0  0  0  0  0  0  0  0  0  0  0
    7.6973  -15.0566   18.0126 C   0  0  0  0  0  0  0  0  0  0  0  0
    8.9760  -15.0577   18.7583 C   0  0  2  0  0  0  0  0  0  0  0  0
   10.1064  -15.4841   17.9934 N   0  0  0  0  0  0  0  0  0  0  0  0
    8.9133  -15.8378   20.0243 C   0  0  0  0  0  0  0  0  0  0  0  0
    7.8242  -15.8932   20.6452 O   0  0  0  0  0  0  0  0  0  0  0  0
    7.7275  -12.8582   12.2193 N   0  0  0  0  0  0  0  0  0  0  0  0
   10.0138  -16.5233   20.5706 C   0  0  1  0  0  0  0  0  0  0  0  0
    9.9232  -17.2847   21.8548 C   0  0  0  0  0  0  0  0  0  0  0  0
   11.1546  -18.1409   21.8504 C   0  0  0  0  0  0  0  0  0  0  0  0
   11.0454  -19.4204   21.1406 C   0  0  0  0  0  0  0  0  0  0  0  0
    9.9297  -20.0186   20.6472 N   0  0  0  0  0  0  0  0  0  0  0  0
   10.3025  -21.1523   20.0004 C   0  0  0  0  0  0  0  0  0  0  0  0
   11.6149  -21.2583   20.0862 N   0  0  0  0  0  0  0  0  0  0  0  0
   12.0836  -20.2205   20.7717 C   0  0  0  0  0  0  0  0  0  0  0  0
   10.0726  -16.2601   22.9445 O   0  0  0  0  0  0  0  0  0  0  0  0
   10.6250  -15.1838   22.7278 N   0  0  0  0  0  0  0  0  0  0  0  0
    9.5858  -16.4944   24.2557 C   0  0  1  0  0  0  0  0  0  0  0  0
    9.1563  -15.3931   25.1316 C   0  0  0  0  0  0  0  0  0  0  0  0
    8.1214  -14.5692   24.4112 C   0  0  0  0  0  0  0  0  0  0  0  0
    7.5531  -13.5111   25.2744 C   0  0  0  0  0  0  0  0  0  0  0  0
    6.3709  -13.7201   25.9473 C   0  0  0  0  0  0  0  0  0  0  0  0
    5.8263  -12.7583   26.7594 C   0  0  0  0  0  0  0  0  0  0  0  0
    6.4927  -11.5530   26.8961 C   0  0  0  0  0  0  0  0  0  0  0  0
    7.6721  -11.3065   26.2429 C   0  0  0  0  0  0  0  0  0  0  0  0
    8.1818  -12.3064   25.4356 C   0  0  0  0  0  0  0  0  0  0  0  0
    8.7245  -15.9048   26.4342 O   0  0  0  0  0  0  0  0  0  0  0  0
    9.0783  -15.2876   27.4761 O   0  0  0  0  0  0  0  0  0  0  0  0
  2  3  2  0
  2  1  1  0
  4  2  1  0
  5  4  1  0
  6  5  1  0
  7  6  1  0
  8  9  1  6
  8  7  1  0
 10 12  1  0
 10  8  1  0
 11 10  2  0
 13 12  1  0
 13 14  1  1
 14 15  1  0
 15 16  2  0
 16 17  1  0
 18 17  1  0
 19 15  1  0
 19 18  2  0
 20 13  1  0
 21 20  2  0
 22 20  1  0
 23 31  1  0
 23 22  1  0
 24 25  1  0
 23 24  1  1
 25 30  1  0
 25 26  2  0
 26 27  1  0
 27 28  2  0
 29 28  1  0
 30 29  2  0
 31 33  1  0
 32 31  2  0
M  END
$$$$
