RHF.pdb
     RDKit          3D

 33 34  0  0  1  0  0  0  0  0999 V2000
   10.2066  -12.5487   19.7849 N   0  0  0  0  0  0  0  0  0  0  0  0
    8.8647  -12.8877   19.4794 C   0  0  0  0  0  0  0  0  0  0  0  0
    8.0110  -11.9804   19.1459 N   0  0  0  0  0  0  0  0  0  0  0  0
    8.4610  -14.2433   19.5428 N   0  0  0  0  0  0  0  0  0  0  0  0
    7.1047  -14.5349   20.0174 C   0  0  0  0  0  0  0  0  0  0  0  0
    7.1024  -14.7344   21.5015 C   0  0  0  0  0  0  0  0  0  0  0  0
    6.3827  -15.9567   21.9172 C   0  0  0  0  0  0  0  0  0  0  0  0
    7.0940  -17.2412   21.7290 C   0  0  2  0  0  0  0  0  0  0  0  0
    6.2456  -18.3923   21.7267 N   0  0  0  0  0  0  0  0  0  0  0  0
    8.2003  -17.4446   22.7037 C   0  0  0  0  0  0  0  0  0  0  0  0
    7.9491  -18.0220   23.7892 O   0  0  0  0  0  0  0  0  0  0  0  0
    7.0205  -12.1887   18.9453 N   0  0  0  0  0  0  0  0  0  0  0  0
    9.5235  -17.0237   22.4772 C   0  0  2  0  0  0  0  0  0  0  0  0
   10.6086  -17.2214   23.4874 C   0  0  0  0  0  0  0  0  0  0  0  0
   11.8548  -16.8172   22.7572 C   0  0  0  0  0  0  0  0  0  0  0  0
   12.3884  -17.7976   21.8049 C   0  0  0  0  0  0  0  0  0  0  0  0
   12.2369  -19.1478   21.8106 N   0  0  0  0  0  0  0  0  0  0  0  0
   12.8351  -19.6502   20.7004 C   0  0  0  0  0  0  0  0  0  0  0  0
   13.3447  -18.6414   20.0195 N   0  0  0  0  0  0  0  0  0  0  0  0
   13.0852  -17.5120   20.6704 C   0  0  0  0  0  0  0  0  0  0  0  0
   10.3497  -16.2049   24.5642 O   0  0  0  0  0  0  0  0  0  0  0  0
    9.9488  -15.0773   24.2847 N   0  0  0  0  0  0  0  0  0  0  0  0
   10.5571  -16.5056   25.9344 C   0  0  1  0  0  0  0  0  0  0  0  0
    9.7783  -15.8525   26.9980 C   0  0  0  0  0  0  0  0  0  0  0  0
    8.3328  -15.7904   26.5793 C   0  0  0  0  0  0  0  0  0  0  0  0
    7.8684  -14.3993   26.3871 C   0  0  0  0  0  0  0  0  0  0  0  0
    8.7135  -13.3415   26.6338 C   0  0  0  0  0  0  0  0  0  0  0  0
    8.3100  -12.0427   26.4568 C   0  0  0  0  0  0  0  0  0  0  0  0
    7.0187  -11.8049   26.0190 C   0  0  0  0  0  0  0  0  0  0  0  0
    6.1471  -12.8309   25.7624 C   0  0  0  0  0  0  0  0  0  0  0  0
    6.5996  -14.1230   25.9554 C   0  0  0  0  0  0  0  0  0  0  0  0
   10.0083  -16.5090   28.2869 O   0  0  0  0  0  0  0  0  0  0  0  0
    9.6049  -15.9400   29.3382 O   0  0  0  0  0  0  0  0  0  0  0  0
  2  3  2  0
  2  1  1  0
  4  2  1  0
  5  4  1  0
  6  5  1  0
  7  6  1  0
  8  9  1  1
  8  7  1  0
 10 12  1  0
 10  8  1  0
 11 10  2  0
 13 12  1  0
 13 14  1  6
 14 15  1  0
 15 16  2  0
 16 17  1  0
 18 17  1  0
 19 15  1  0
 19 18  2  0
 20 13  1  0
 21 20  2  0
 22 20  1  0
 23 31  1  0
 23 22  1  0
 24 25  1  0
 23 24  1  1
 25 30  1  0
 25 26  2  0
 26 27  1  0
 27 28  2  0
 29 28  1  0
 30 29  2  0
 31 33  1  0
 32 31  2  0
M  END
$$$$
