RHF.pdb
     RDKit          3D

 33 34  0  0  1  0  0  0  0  0999 V2000
    9.1632  -12.3656   17.5373 N   0  0  0  0  0  0  0  0  0  0  0  0
    9.8607  -13.2290   18.4187 C   0  0  0  0  0  0  0  0  0  0  0  0
   10.9285  -13.8439   18.0378 N   0  0  0  0  0  0  0  0  0  0  0  0
    9.3739  -13.4157   19.7351 N   0  0  0  0  0  0  0  0  0  0  0  0
    8.1315  -12.7340   20.1115 C   0  0  0  0  0  0  0  0  0  0  0  0
    7.0022  -13.7140   20.1933 C   0  0  0  0  0  0  0  0  0  0  0  0
    6.9761  -14.4572   21.4707 C   0  0  0  0  0  0  0  0  0  0  0  0
    7.2361  -15.9125   21.3964 C   0  0  2  0  0  0  0  0  0  0  0  0
    6.1560  -16.6796   20.8580 N   0  0  0  0  0  0  0  0  0  0  0  0
    7.6570  -16.4980   22.6985 C   0  0  0  0  0  0  0  0  0  0  0  0
    6.7794  -16.9806   23.4545 O   0  0  0  0  0  0  0  0  0  0  0  0
   11.4783  -14.4533   18.6631 N   0  0  0  0  0  0  0  0  0  0  0  0
    8.9937  -16.5425   23.1352 C   0  0  2  0  0  0  0  0  0  0  0  0
    9.3973  -17.2249   24.4035 C   0  0  0  0  0  0  0  0  0  0  0  0
   10.5830  -18.0514   24.0031 C   0  0  0  0  0  0  0  0  0  0  0  0
   10.2842  -19.3208   23.3306 C   0  0  0  0  0  0  0  0  0  0  0  0
    9.0725  -19.8220   22.9751 N   0  0  0  0  0  0  0  0  0  0  0  0
    9.2705  -20.9880   22.3088 C   0  0  0  0  0  0  0  0  0  0  0  0
   10.5701  -21.2079   22.2485 N   0  0  0  0  0  0  0  0  0  0  0  0
   11.2011  -20.2109   22.8604 C   0  0  0  0  0  0  0  0  0  0  0  0
    9.8787  -16.1317   25.3160 O   0  0  0  0  0  0  0  0  0  0  0  0
   10.6559  -15.2692   24.9129 N   0  0  0  0  0  0  0  0  0  0  0  0
    9.4581  -16.0540   26.6681 C   0  0  1  0  0  0  0  0  0  0  0  0
   10.1248  -15.1715   27.6381 C   0  0  0  0  0  0  0  0  0  0  0  0
    9.0813  -14.3600   28.3602 C   0  0  0  0  0  0  0  0  0  0  0  0
    8.1773  -13.6568   27.4242 C   0  0  0  0  0  0  0  0  0  0  0  0
    8.5378  -12.4425   26.8861 C   0  0  0  0  0  0  0  0  0  0  0  0
    7.7211  -11.7733   26.0107 C   0  0  0  0  0  0  0  0  0  0  0  0
    6.5079  -12.3450   25.6689 C   0  0  0  0  0  0  0  0  0  0  0  0
    6.1129  -13.5525   26.1831 C   0  0  0  0  0  0  0  0  0  0  0  0
    6.9699  -14.1891   27.0616 C   0  0  0  0  0  0  0  0  0  0  0  0
   11.0093  -15.9405   28.5163 O   0  0  0  0  0  0  0  0  0  0  0  0
   11.6927  -15.3243   29.3795 O   0  0  0  0  0  0  0  0  0  0  0  0
  2  3  2  0
  2  1  1  0
  4  2  1  0
  5  4  1  0
  6  5  1  0
  7  6  1  0
  8  9  1  1
  8  7  1  0
 10 12  1  0
 10  8  1  0
 11 10  2  0
 13 12  1  0
 13 14  1  6
 14 15  1  0
 15 16  2  0
 16 17  1  0
 18 17  1  0
 19 15  1  0
 19 18  2  0
 20 13  1  0
 21 20  2  0
 22 20  1  0
 23 31  1  0
 23 22  1  0
 24 25  1  0
 23 24  1  1
 25 30  1  0
 25 26  2  0
 26 27  1  0
 27 28  2  0
 29 28  1  0
 30 29  2  0
 31 33  1  0
 32 31  2  0
M  END
$$$$
