HQG.pdb
     RDKit          3D

 24 24  0  0  1  0  0  0  0  0999 V2000
    9.7616  -18.3378   19.7978 N   0  0  0  0  0  0  0  0  0  0  0  0
   10.5345  -18.8726   20.8853 C   0  0  1  0  0  0  0  0  0  0  0  0
   11.9551  -18.3548   20.8163 C   0  0  0  0  0  0  0  0  0  0  0  0
   12.5156  -18.7735   19.5063 C   0  0  0  0  0  0  0  0  0  0  0  0
   12.1947  -19.8760   18.7455 C   0  0  0  0  0  0  0  0  0  0  0  0
   12.9423  -19.8836   17.6181 N   0  0  0  0  0  0  0  0  0  0  0  0
   13.7290  -18.7964   17.6648 C   0  0  0  0  0  0  0  0  0  0  0  0
   13.4809  -18.1215   18.7956 N   0  0  0  0  0  0  0  0  0  0  0  0
    9.9118  -18.5402   22.2099 C   0  0  0  0  0  0  0  0  0  0  0  0
    9.5064  -17.3984   22.5091 O   0  0  0  0  0  0  0  0  0  0  0  0
    5.7739  -21.8369   24.9079 N   0  0  0  0  0  0  0  0  0  0  0  0
    5.7219  -20.7502   24.0115 C   0  0  0  0  0  0  0  0  0  0  0  0
    4.6666  -20.6454   23.3349 O   0  0  0  0  0  0  0  0  0  0  0  0
    6.7821  -19.7639   23.8200 C   0  0  0  0  0  0  0  0  0  0  0  0
    7.9021  -20.0234   24.7868 C   0  0  0  0  0  0  0  0  0  0  0  0
    9.1482  -19.2688   24.4791 C   0  0  2  0  0  0  0  0  0  0  0  0
    9.7454  -19.5266   23.2180 N   0  0  0  0  0  0  0  0  0  0  0  0
   10.1290  -19.4949   25.5590 C   0  0  0  0  0  0  0  0  0  0  0  0
   10.8450  -20.5542   25.5611 O   0  0  0  0  0  0  0  0  0  0  0  0
   10.3542  -18.5988   26.6403 N   0  0  0  0  0  0  0  0  0  0  0  0
    9.7578  -18.7669   27.9511 C   0  0  0  0  0  0  0  0  0  0  0  0
   10.5415  -19.7914   28.6866 C   0  0  0  0  0  0  0  0  0  0  0  0
   11.6666  -19.4478   29.4253 O   0  0  0  0  0  0  0  0  0  0  0  0
   10.2175  -21.0062   28.6688 O   0  0  0  0  0  0  0  0  0  0  0  0
  2  1  1  6
  2  9  1  0
  3  2  1  0
  4  5  2  0
  4  3  1  0
  6  5  1  0
  7  8  2  0
  7  6  1  0
  8  4  1  0
  9 10  2  0
 11 12  1  0
 12 14  1  0
 13 12  2  0
 14 15  1  0
 16 15  1  1
 16 18  1  0
 17  9  1  0
 17 16  1  0
 18 20  1  0
 19 18  2  0
 20 21  1  0
 22 23  1  0
 22 21  1  0
 24 22  2  0
M  END
$$$$
