HQG.pdb
     RDKit          3D

 24 24  0  0  1  0  0  0  0  0999 V2000
   10.6746  -17.2661   15.8421 N   0  0  0  0  0  0  0  0  0  0  0  0
   11.5614  -17.9480   16.7447 C   0  0  1  0  0  0  0  0  0  0  0  0
   12.9602  -17.9867   16.1676 C   0  0  0  0  0  0  0  0  0  0  0  0
   12.9362  -18.9184   15.0112 C   0  0  0  0  0  0  0  0  0  0  0  0
   12.3129  -20.1421   14.9045 C   0  0  0  0  0  0  0  0  0  0  0  0
   12.5423  -20.6636   13.6776 N   0  0  0  0  0  0  0  0  0  0  0  0
   13.3036  -19.7786   13.0140 C   0  0  0  0  0  0  0  0  0  0  0  0
   13.5465  -18.7254   13.8062 N   0  0  0  0  0  0  0  0  0  0  0  0
   11.5632  -17.2999   18.0984 C   0  0  0  0  0  0  0  0  0  0  0  0
   11.5768  -16.0633   18.2660 O   0  0  0  0  0  0  0  0  0  0  0  0
   11.2312  -19.7966   24.2971 N   0  0  0  0  0  0  0  0  0  0  0  0
   11.6320  -18.5056   23.8975 C   0  0  0  0  0  0  0  0  0  0  0  0
   12.7276  -18.1007   24.3647 O   0  0  0  0  0  0  0  0  0  0  0  0
   10.8815  -17.6294   23.0017 C   0  0  0  0  0  0  0  0  0  0  0  0
   10.7944  -18.2485   21.6358 C   0  0  0  0  0  0  0  0  0  0  0  0
   11.5585  -17.5110   20.5922 C   0  0  2  0  0  0  0  0  0  0  0  0
   11.5491  -18.0735   19.2895 N   0  0  0  0  0  0  0  0  0  0  0  0
   12.9486  -17.3243   21.0526 C   0  0  0  0  0  0  0  0  0  0  0  0
   13.8223  -18.2315   20.8330 O   0  0  0  0  0  0  0  0  0  0  0  0
   13.4172  -16.1752   21.7473 N   0  0  0  0  0  0  0  0  0  0  0  0
   14.8003  -15.7406   21.7256 C   0  0  0  0  0  0  0  0  0  0  0  0
   15.5187  -16.4326   22.8254 C   0  0  0  0  0  0  0  0  0  0  0  0
   16.7340  -15.9603   23.3044 O   0  0  0  0  0  0  0  0  0  0  0  0
   15.0555  -17.4702   23.3639 O   0  0  0  0  0  0  0  0  0  0  0  0
  2  1  1  6
  2  9  1  0
  3  2  1  0
  4  5  2  0
  4  3  1  0
  6  5  1  0
  7  8  2  0
  7  6  1  0
  8  4  1  0
  9 10  2  0
 11 12  1  0
 12 14  1  0
 13 12  2  0
 14 15  1  0
 16 15  1  1
 16 18  1  0
 17  9  1  0
 17 16  1  0
 18 20  1  0
 19 18  2  0
 20 21  1  0
 22 23  1  0
 22 21  1  0
 24 22  2  0
M  END
$$$$
