HQG.pdb
     RDKit          3D

 24 24  0  0  1  0  0  0  0  0999 V2000
   12.9638  -17.4365   13.8679 N   0  0  0  0  0  0  0  0  0  0  0  0
   12.4515  -17.1383   15.1773 C   0  0  1  0  0  0  0  0  0  0  0  0
   11.8234  -18.3751   15.7830 C   0  0  0  0  0  0  0  0  0  0  0  0
   10.5507  -18.6248   15.0594 C   0  0  0  0  0  0  0  0  0  0  0  0
    9.9395  -17.8483   14.0997 C   0  0  0  0  0  0  0  0  0  0  0  0
    8.7918  -18.4413   13.6984 N   0  0  0  0  0  0  0  0  0  0  0  0
    8.6776  -19.5822   14.3972 C   0  0  0  0  0  0  0  0  0  0  0  0
    9.7295  -19.7028   15.2186 N   0  0  0  0  0  0  0  0  0  0  0  0
   13.5281  -16.5970   16.0720 C   0  0  0  0  0  0  0  0  0  0  0  0
   14.7148  -16.9806   16.0256 O   0  0  0  0  0  0  0  0  0  0  0  0
   16.7034  -12.6944   16.0699 N   0  0  0  0  0  0  0  0  0  0  0  0
   16.7811  -13.0421   17.4338 C   0  0  0  0  0  0  0  0  0  0  0  0
   17.9119  -13.4104   17.8438 O   0  0  0  0  0  0  0  0  0  0  0  0
   15.6673  -13.0048   18.3780 C   0  0  0  0  0  0  0  0  0  0  0  0
   14.4227  -13.5301   17.7212 C   0  0  0  0  0  0  0  0  0  0  0  0
   14.2441  -15.0015   17.8623 C   0  0  2  0  0  0  0  0  0  0  0  0
   13.2513  -15.5970   17.0418 N   0  0  0  0  0  0  0  0  0  0  0  0
   13.9883  -15.3233   19.2802 C   0  0  0  0  0  0  0  0  0  0  0  0
   12.7872  -15.4088   19.7099 O   0  0  0  0  0  0  0  0  0  0  0  0
   15.0050  -15.5554   20.2473 N   0  0  0  0  0  0  0  0  0  0  0  0
   14.7273  -15.8450   21.6406 C   0  0  0  0  0  0  0  0  0  0  0  0
   16.0219  -16.0691   22.3322 C   0  0  0  0  0  0  0  0  0  0  0  0
   16.0902  -16.2012   23.7132 O   0  0  0  0  0  0  0  0  0  0  0  0
   17.1034  -16.1477   21.6955 O   0  0  0  0  0  0  0  0  0  0  0  0
  2  1  1  6
  2  9  1  0
  3  2  1  0
  4  5  2  0
  4  3  1  0
  6  5  1  0
  7  8  2  0
  7  6  1  0
  8  4  1  0
  9 10  2  0
 11 12  1  0
 12 14  1  0
 13 12  2  0
 14 15  1  0
 16 15  1  1
 16 18  1  0
 17  9  1  0
 17 16  1  0
 18 20  1  0
 19 18  2  0
 20 21  1  0
 22 23  1  0
 22 21  1  0
 24 22  2  0
M  END
$$$$
