HQG.pdb
     RDKit          3D

 24 24  0  0  1  0  0  0  0  0999 V2000
   10.9095  -14.4953   20.5108 N   0  0  0  0  0  0  0  0  0  0  0  0
    9.5234  -14.4199   20.8833 C   0  0  1  0  0  0  0  0  0  0  0  0
    8.7050  -15.3669   20.0321 C   0  0  0  0  0  0  0  0  0  0  0  0
    8.3310  -14.6378   18.7935 C   0  0  0  0  0  0  0  0  0  0  0  0
    8.6835  -13.3643   18.4046 C   0  0  0  0  0  0  0  0  0  0  0  0
    8.1280  -13.0857   17.2030 N   0  0  0  0  0  0  0  0  0  0  0  0
    7.4306  -14.1725   16.8348 C   0  0  0  0  0  0  0  0  0  0  0  0
    7.5456  -15.1119   17.7835 N   0  0  0  0  0  0  0  0  0  0  0  0
    9.3353  -14.7195   22.3419 C   0  0  0  0  0  0  0  0  0  0  0  0
   10.0621  -15.5096   22.9783 O   0  0  0  0  0  0  0  0  0  0  0  0
    5.6150  -11.4743   26.5320 N   0  0  0  0  0  0  0  0  0  0  0  0
    6.2869  -12.4840   27.2505 C   0  0  0  0  0  0  0  0  0  0  0  0
    6.1438  -12.4578   28.5000 O   0  0  0  0  0  0  0  0  0  0  0  0
    7.1159  -13.5306   26.6583 C   0  0  0  0  0  0  0  0  0  0  0  0
    7.2124  -13.3271   25.1731 C   0  0  0  0  0  0  0  0  0  0  0  0
    8.1435  -14.2716   24.4965 C   0  0  2  0  0  0  0  0  0  0  0  0
    8.2983  -14.1081   23.0955 N   0  0  0  0  0  0  0  0  0  0  0  0
    7.7332  -15.6564   24.8020 C   0  0  0  0  0  0  0  0  0  0  0  0
    6.7049  -16.1590   24.2323 O   0  0  0  0  0  0  0  0  0  0  0  0
    8.4117  -16.5130   25.7123 N   0  0  0  0  0  0  0  0  0  0  0  0
    7.9469  -17.8442   26.0500 C   0  0  0  0  0  0  0  0  0  0  0  0
    8.8663  -18.4090   27.0699 C   0  0  0  0  0  0  0  0  0  0  0  0
    8.6146  -19.6366   27.6691 O   0  0  0  0  0  0  0  0  0  0  0  0
    9.9054  -17.7990   27.4294 O   0  0  0  0  0  0  0  0  0  0  0  0
  2  1  1  6
  2  9  1  0
  3  2  1  0
  4  5  2  0
  4  3  1  0
  6  5  1  0
  7  8  2  0
  7  6  1  0
  8  4  1  0
  9 10  2  0
 11 12  1  0
 12 14  1  0
 13 12  2  0
 14 15  1  0
 16 15  1  6
 16 18  1  0
 17  9  1  0
 17 16  1  0
 18 20  1  0
 19 18  2  0
 20 21  1  0
 22 23  1  0
 22 21  1  0
 24 22  2  0
M  END
$$$$
