HQG.pdb
     RDKit          3D

 24 24  0  0  1  0  0  0  0  0999 V2000
    8.0161  -16.6083   21.3524 N   0  0  0  0  0  0  0  0  0  0  0  0
    9.2731  -15.9148   21.4228 C   0  0  1  0  0  0  0  0  0  0  0  0
    9.0499  -14.4225   21.3028 C   0  0  0  0  0  0  0  0  0  0  0  0
    8.4055  -14.1758   19.9877 C   0  0  0  0  0  0  0  0  0  0  0  0
    8.1059  -15.0801   18.9927 C   0  0  0  0  0  0  0  0  0  0  0  0
    7.5207  -14.4379   17.9559 N   0  0  0  0  0  0  0  0  0  0  0  0
    7.4506  -13.1395   18.2911 C   0  0  0  0  0  0  0  0  0  0  0  0
    7.9796  -12.9704   19.5107 N   0  0  0  0  0  0  0  0  0  0  0  0
   10.0042  -16.2420   22.6922 C   0  0  0  0  0  0  0  0  0  0  0  0
    9.4942  -16.1277   23.8255 O   0  0  0  0  0  0  0  0  0  0  0  0
    9.4867  -20.1882   22.2185 N   0  0  0  0  0  0  0  0  0  0  0  0
   10.7887  -19.8303   22.6234 C   0  0  0  0  0  0  0  0  0  0  0  0
   11.6673  -19.8425   21.7233 O   0  0  0  0  0  0  0  0  0  0  0  0
   11.1763  -19.4563   23.9811 C   0  0  0  0  0  0  0  0  0  0  0  0
   12.3821  -18.5614   23.9401 C   0  0  0  0  0  0  0  0  0  0  0  0
   12.0522  -17.1132   23.8367 C   0  0  2  0  0  0  0  0  0  0  0  0
   11.3451  -16.7098   22.6745 N   0  0  0  0  0  0  0  0  0  0  0  0
   13.2924  -16.3242   23.9737 C   0  0  0  0  0  0  0  0  0  0  0  0
   13.9424  -16.3407   25.0745 O   0  0  0  0  0  0  0  0  0  0  0  0
   13.8476  -15.5152   22.9442 N   0  0  0  0  0  0  0  0  0  0  0  0
   15.0309  -14.6971   23.1253 C   0  0  0  0  0  0  0  0  0  0  0  0
   16.2134  -15.5946   23.1472 C   0  0  0  0  0  0  0  0  0  0  0  0
   17.4990  -15.0925   23.3044 O   0  0  0  0  0  0  0  0  0  0  0  0
   16.0967  -16.8406   23.0246 O   0  0  0  0  0  0  0  0  0  0  0  0
  2  1  1  1
  2  9  1  0
  3  2  1  0
  4  5  2  0
  4  3  1  0
  6  5  1  0
  7  8  2  0
  7  6  1  0
  8  4  1  0
  9 10  2  0
 11 12  1  0
 12 14  1  0
 13 12  2  0
 14 15  1  0
 16 15  1  6
 16 18  1  0
 17  9  1  0
 17 16  1  0
 18 20  1  0
 19 18  2  0
 20 21  1  0
 22 23  1  0
 22 21  1  0
 24 22  2  0
M  END
$$$$
