HQG.pdb
     RDKit          3D

 24 24  0  0  1  0  0  0  0  0999 V2000
   11.9662  -15.7814   16.7185 N   0  0  0  0  0  0  0  0  0  0  0  0
   11.1946  -16.5575   17.6503 C   0  0  1  0  0  0  0  0  0  0  0  0
   11.9504  -17.8124   18.0314 C   0  0  0  0  0  0  0  0  0  0  0  0
   12.1265  -18.6157   16.7948 C   0  0  0  0  0  0  0  0  0  0  0  0
   11.1812  -19.3248   16.0869 C   0  0  0  0  0  0  0  0  0  0  0  0
   11.7626  -19.9165   15.0185 N   0  0  0  0  0  0  0  0  0  0  0  0
   13.0635  -19.5854   15.0496 C   0  0  0  0  0  0  0  0  0  0  0  0
   13.2936  -18.8035   16.1133 N   0  0  0  0  0  0  0  0  0  0  0  0
   10.8481  -15.7551   18.8704 C   0  0  0  0  0  0  0  0  0  0  0  0
   11.6884  -15.1029   19.5230 O   0  0  0  0  0  0  0  0  0  0  0  0
    8.9207  -12.2414   18.2990 N   0  0  0  0  0  0  0  0  0  0  0  0
    7.9476  -13.1655   18.7303 C   0  0  0  0  0  0  0  0  0  0  0  0
    7.5212  -13.9634   17.8562 O   0  0  0  0  0  0  0  0  0  0  0  0
    7.4149  -13.2570   20.0873 C   0  0  0  0  0  0  0  0  0  0  0  0
    7.7180  -14.6101   20.6651 C   0  0  0  0  0  0  0  0  0  0  0  0
    9.1483  -15.0067   20.5479 C   0  0  2  0  0  0  0  0  0  0  0  0
    9.5168  -15.6915   19.3611 N   0  0  0  0  0  0  0  0  0  0  0  0
    9.5268  -15.8048   21.7308 C   0  0  0  0  0  0  0  0  0  0  0  0
    9.1008  -17.0037   21.8562 O   0  0  0  0  0  0  0  0  0  0  0  0
   10.3582  -15.3347   22.7846 N   0  0  0  0  0  0  0  0  0  0  0  0
   10.5965  -16.0815   24.0043 C   0  0  0  0  0  0  0  0  0  0  0  0
   11.8026  -16.9233   23.8017 C   0  0  0  0  0  0  0  0  0  0  0  0
   11.8460  -18.2411   24.2386 O   0  0  0  0  0  0  0  0  0  0  0  0
   12.8285  -16.4765   23.2281 O   0  0  0  0  0  0  0  0  0  0  0  0
  2  1  1  6
  2  9  1  0
  3  2  1  0
  4  5  2  0
  4  3  1  0
  6  5  1  0
  7  8  2  0
  7  6  1  0
  8  4  1  0
  9 10  2  0
 11 12  1  0
 12 14  1  0
 13 12  2  0
 14 15  1  0
 16 15  1  6
 16 18  1  0
 17  9  1  0
 17 16  1  0
 18 20  1  0
 19 18  2  0
 20 21  1  0
 22 23  1  0
 22 21  1  0
 24 22  2  0
M  END
$$$$
