HQG.pdb
     RDKit          3D

 24 24  0  0  1  0  0  0  0  0999 V2000
   11.5055  -17.5971   17.6705 N   0  0  0  0  0  0  0  0  0  0  0  0
   10.4996  -17.8511   18.6652 C   0  0  1  0  0  0  0  0  0  0  0  0
   10.8460  -19.1005   19.4463 C   0  0  0  0  0  0  0  0  0  0  0  0
   10.3334  -20.2613   18.6745 C   0  0  0  0  0  0  0  0  0  0  0  0
    9.6948  -20.2691   17.4540 C   0  0  0  0  0  0  0  0  0  0  0  0
    9.3937  -21.5413   17.1067 N   0  0  0  0  0  0  0  0  0  0  0  0
    9.8374  -22.3313   18.0977 C   0  0  0  0  0  0  0  0  0  0  0  0
   10.4042  -21.5724   19.0456 N   0  0  0  0  0  0  0  0  0  0  0  0
   10.3370  -16.6771   19.5861 C   0  0  0  0  0  0  0  0  0  0  0  0
   11.2545  -15.8680   19.8333 O   0  0  0  0  0  0  0  0  0  0  0  0
    8.6029  -11.9490   18.7436 N   0  0  0  0  0  0  0  0  0  0  0  0
    8.0306  -13.0959   19.3303 C   0  0  0  0  0  0  0  0  0  0  0  0
    7.8432  -14.0724   18.5598 O   0  0  0  0  0  0  0  0  0  0  0  0
    7.6508  -13.2239   20.7349 C   0  0  0  0  0  0  0  0  0  0  0  0
    7.5838  -14.6754   21.1160 C   0  0  0  0  0  0  0  0  0  0  0  0
    8.9115  -15.3479   21.1560 C   0  0  2  0  0  0  0  0  0  0  0  0
    9.1045  -16.4156   20.2415 N   0  0  0  0  0  0  0  0  0  0  0  0
    9.1794  -15.8068   22.5333 C   0  0  0  0  0  0  0  0  0  0  0  0
    8.4259  -16.6883   23.0714 O   0  0  0  0  0  0  0  0  0  0  0  0
   10.2469  -15.3327   23.3447 N   0  0  0  0  0  0  0  0  0  0  0  0
   10.4364  -15.7335   24.7251 C   0  0  0  0  0  0  0  0  0  0  0  0
   11.2992  -16.9417   24.7404 C   0  0  0  0  0  0  0  0  0  0  0  0
   10.8960  -18.1097   25.3750 O   0  0  0  0  0  0  0  0  0  0  0  0
   12.4252  -16.9538   24.1808 O   0  0  0  0  0  0  0  0  0  0  0  0
  2  1  1  6
  2  9  1  0
  3  2  1  0
  4  5  2  0
  4  3  1  0
  6  5  1  0
  7  8  2  0
  7  6  1  0
  8  4  1  0
  9 10  2  0
 11 12  1  0
 12 14  1  0
 13 12  2  0
 14 15  1  0
 16 15  1  1
 16 18  1  0
 17  9  1  0
 17 16  1  0
 18 20  1  0
 19 18  2  0
 20 21  1  0
 22 23  1  0
 22 21  1  0
 24 22  2  0
M  END
$$$$
