HQG.pdb
     RDKit          3D

 24 24  0  0  1  0  0  0  0  0999 V2000
    8.1968  -12.8327   20.5571 N   0  0  0  0  0  0  0  0  0  0  0  0
    8.0692  -14.2468   20.7801 C   0  0  1  0  0  0  0  0  0  0  0  0
    8.8585  -15.0098   19.7379 C   0  0  0  0  0  0  0  0  0  0  0  0
    8.2044  -14.7722   18.4259 C   0  0  0  0  0  0  0  0  0  0  0  0
    7.7910  -13.5800   17.8735 C   0  0  0  0  0  0  0  0  0  0  0  0
    7.2419  -13.8081   16.6584 N   0  0  0  0  0  0  0  0  0  0  0  0
    7.3071  -15.1320   16.4436 C   0  0  0  0  0  0  0  0  0  0  0  0
    7.8840  -15.7216   17.4997 N   0  0  0  0  0  0  0  0  0  0  0  0
    8.5151  -14.6215   22.1634 C   0  0  0  0  0  0  0  0  0  0  0  0
    9.2780  -13.9140   22.8525 O   0  0  0  0  0  0  0  0  0  0  0  0
    6.3108  -19.2498   26.1210 N   0  0  0  0  0  0  0  0  0  0  0  0
    7.4086  -18.6204   26.7422 C   0  0  0  0  0  0  0  0  0  0  0  0
    7.6385  -18.9628   27.9306 O   0  0  0  0  0  0  0  0  0  0  0  0
    8.2741  -17.6242   26.1161 C   0  0  0  0  0  0  0  0  0  0  0  0
    7.7421  -17.2664   24.7576 C   0  0  0  0  0  0  0  0  0  0  0  0
    8.6031  -16.3107   24.0079 C   0  0  2  0  0  0  0  0  0  0  0  0
    8.0851  -15.8273   22.7785 N   0  0  0  0  0  0  0  0  0  0  0  0
    9.9295  -16.9221   23.7925 C   0  0  0  0  0  0  0  0  0  0  0  0
   10.0328  -18.1867   23.6352 O   0  0  0  0  0  0  0  0  0  0  0  0
   11.1507  -16.1949   23.7430 N   0  0  0  0  0  0  0  0  0  0  0  0
   12.0441  -16.0607   24.8771 C   0  0  0  0  0  0  0  0  0  0  0  0
   12.8494  -17.3038   24.9796 C   0  0  0  0  0  0  0  0  0  0  0  0
   14.0960  -17.4092   24.3758 O   0  0  0  0  0  0  0  0  0  0  0  0
   12.4349  -18.3063   25.6153 O   0  0  0  0  0  0  0  0  0  0  0  0
  2  1  1  6
  2  9  1  0
  3  2  1  0
  4  5  2  0
  4  3  1  0
  6  5  1  0
  7  8  2  0
  7  6  1  0
  8  4  1  0
  9 10  2  0
 11 12  1  0
 12 14  1  0
 13 12  2  0
 14 15  1  0
 16 15  1  6
 16 18  1  0
 17  9  1  0
 17 16  1  0
 18 20  1  0
 19 18  2  0
 20 21  1  0
 22 23  1  0
 22 21  1  0
 24 22  2  0
M  END
$$$$
