HQG.pdb
     RDKit          3D

 24 24  0  0  1  0  0  0  0  0999 V2000
   10.9370  -14.1208   19.7969 N   0  0  0  0  0  0  0  0  0  0  0  0
   10.9589  -14.7164   18.4890 C   0  0  1  0  0  0  0  0  0  0  0  0
   10.1796  -13.8588   17.5151 C   0  0  0  0  0  0  0  0  0  0  0  0
    8.8623  -13.5688   18.1367 C   0  0  0  0  0  0  0  0  0  0  0  0
    8.5954  -13.0124   19.3682 C   0  0  0  0  0  0  0  0  0  0  0  0
    7.2574  -12.9221   19.5459 N   0  0  0  0  0  0  0  0  0  0  0  0
    6.6828  -13.4166   18.4376 C   0  0  0  0  0  0  0  0  0  0  0  0
    7.6382  -13.8085   17.5835 N   0  0  0  0  0  0  0  0  0  0  0  0
   12.3659  -14.9211   18.0083 C   0  0  0  0  0  0  0  0  0  0  0  0
   12.6452  -15.3703   16.8779 O   0  0  0  0  0  0  0  0  0  0  0  0
   15.6990  -14.4186   15.2936 N   0  0  0  0  0  0  0  0  0  0  0  0
   16.8854  -14.4094   16.0549 C   0  0  0  0  0  0  0  0  0  0  0  0
   17.9329  -14.7454   15.4448 O   0  0  0  0  0  0  0  0  0  0  0  0
   16.9784  -14.0460   17.4665 C   0  0  0  0  0  0  0  0  0  0  0  0
   15.6174  -13.6898   17.9932 C   0  0  0  0  0  0  0  0  0  0  0  0
   14.8272  -14.8630   18.4579 C   0  0  2  0  0  0  0  0  0  0  0  0
   13.4816  -14.6087   18.8297 N   0  0  0  0  0  0  0  0  0  0  0  0
   15.5439  -15.5186   19.5696 C   0  0  0  0  0  0  0  0  0  0  0  0
   15.5063  -15.0108   20.7424 O   0  0  0  0  0  0  0  0  0  0  0  0
   16.3029  -16.7146   19.4418 N   0  0  0  0  0  0  0  0  0  0  0  0
   16.8232  -17.4524   20.5763 C   0  0  0  0  0  0  0  0  0  0  0  0
   18.1522  -16.8886   20.9230 C   0  0  0  0  0  0  0  0  0  0  0  0
   18.8860  -17.3757   21.9972 O   0  0  0  0  0  0  0  0  0  0  0  0
   18.6631  -15.9509   20.2591 O   0  0  0  0  0  0  0  0  0  0  0  0
  2  1  1  1
  2  9  1  0
  3  2  1  0
  4  5  2  0
  4  3  1  0
  6  5  1  0
  7  8  2  0
  7  6  1  0
  8  4  1  0
  9 10  2  0
 11 12  1  0
 12 14  1  0
 13 12  2  0
 14 15  1  0
 16 15  1  1
 16 18  1  0
 17  9  1  0
 17 16  1  0
 18 20  1  0
 19 18  2  0
 20 21  1  0
 22 23  1  0
 22 21  1  0
 24 22  2  0
M  END
$$$$
