HQG.pdb
     RDKit          3D

 24 24  0  0  1  0  0  0  0  0999 V2000
    9.3120  -12.5273   19.6098 N   0  0  0  0  0  0  0  0  0  0  0  0
    9.0378  -13.8988   19.9414 C   0  0  1  0  0  0  0  0  0  0  0  0
    9.6378  -14.8152   18.8968 C   0  0  0  0  0  0  0  0  0  0  0  0
    8.8650  -14.6230   17.6431 C   0  0  0  0  0  0  0  0  0  0  0  0
    7.8999  -13.6811   17.3627 C   0  0  0  0  0  0  0  0  0  0  0  0
    7.4468  -13.8564   16.1002 N   0  0  0  0  0  0  0  0  0  0  0  0
    8.1187  -14.8993   15.5863 C   0  0  0  0  0  0  0  0  0  0  0  0
    8.9741  -15.3680   16.5052 N   0  0  0  0  0  0  0  0  0  0  0  0
    9.5546  -14.2414   21.3083 C   0  0  0  0  0  0  0  0  0  0  0  0
   10.6417  -13.8214   21.7549 O   0  0  0  0  0  0  0  0  0  0  0  0
    6.7706  -18.0760   25.7641 N   0  0  0  0  0  0  0  0  0  0  0  0
    8.0028  -17.6325   26.2858 C   0  0  0  0  0  0  0  0  0  0  0  0
    8.2897  -18.0405   27.4407 O   0  0  0  0  0  0  0  0  0  0  0  0
    8.9439  -16.7549   25.5949 C   0  0  0  0  0  0  0  0  0  0  0  0
    8.3845  -16.3562   24.2590 C   0  0  0  0  0  0  0  0  0  0  0  0
    9.3108  -15.5224   23.4444 C   0  0  2  0  0  0  0  0  0  0  0  0
    8.8204  -15.0801   22.1885 N   0  0  0  0  0  0  0  0  0  0  0  0
   10.5826  -16.2496   23.2633 C   0  0  0  0  0  0  0  0  0  0  0  0
   10.7404  -17.0208   22.2558 O   0  0  0  0  0  0  0  0  0  0  0  0
   11.6915  -16.1618   24.1496 N   0  0  0  0  0  0  0  0  0  0  0  0
   12.9435  -15.5209   23.7973 C   0  0  0  0  0  0  0  0  0  0  0  0
   13.9663  -16.5802   23.6066 C   0  0  0  0  0  0  0  0  0  0  0  0
   14.9494  -16.8154   24.5593 O   0  0  0  0  0  0  0  0  0  0  0  0
   13.9816  -17.3030   22.5779 O   0  0  0  0  0  0  0  0  0  0  0  0
  2  1  1  6
  2  9  1  0
  3  2  1  0
  4  5  2  0
  4  3  1  0
  6  5  1  0
  7  8  2  0
  7  6  1  0
  8  4  1  0
  9 10  2  0
 11 12  1  0
 12 14  1  0
 13 12  2  0
 14 15  1  0
 16 15  1  6
 16 18  1  0
 17  9  1  0
 17 16  1  0
 18 20  1  0
 19 18  2  0
 20 21  1  0
 22 23  1  0
 22 21  1  0
 24 22  2  0
M  END
$$$$
