HQG.pdb
     RDKit          3D

 24 24  0  0  1  0  0  0  0  0999 V2000
   10.1727  -13.3615   20.6677 N   0  0  0  0  0  0  0  0  0  0  0  0
    8.9230  -13.8807   21.1518 C   0  0  1  0  0  0  0  0  0  0  0  0
    8.4781  -15.0460   20.2943 C   0  0  0  0  0  0  0  0  0  0  0  0
    8.1551  -14.5073   18.9485 C   0  0  0  0  0  0  0  0  0  0  0  0
    8.3117  -13.2233   18.4750 C   0  0  0  0  0  0  0  0  0  0  0  0
    7.8925  -13.1582   17.1905 N   0  0  0  0  0  0  0  0  0  0  0  0
    7.4746  -14.3891   16.8541 C   0  0  0  0  0  0  0  0  0  0  0  0
    7.6279  -15.2084   17.9034 N   0  0  0  0  0  0  0  0  0  0  0  0
    9.0257  -14.2900   22.5922 C   0  0  0  0  0  0  0  0  0  0  0  0
   10.1130  -14.4367   23.1869 O   0  0  0  0  0  0  0  0  0  0  0  0
    7.7135  -12.8065   27.3763 N   0  0  0  0  0  0  0  0  0  0  0  0
    6.6994  -12.3661   26.5019 C   0  0  0  0  0  0  0  0  0  0  0  0
    6.3093  -11.1813   26.6646 O   0  0  0  0  0  0  0  0  0  0  0  0
    6.0872  -13.1707   25.4477 C   0  0  0  0  0  0  0  0  0  0  0  0
    6.6152  -14.5759   25.5054 C   0  0  0  0  0  0  0  0  0  0  0  0
    7.8992  -14.7655   24.7758 C   0  0  2  0  0  0  0  0  0  0  0  0
    7.8673  -14.5385   23.3755 N   0  0  0  0  0  0  0  0  0  0  0  0
    8.4196  -16.1180   25.0573 C   0  0  0  0  0  0  0  0  0  0  0  0
    7.7635  -17.1475   24.6772 O   0  0  0  0  0  0  0  0  0  0  0  0
    9.6372  -16.3838   25.7426 N   0  0  0  0  0  0  0  0  0  0  0  0
   10.1810  -17.7172   25.9118 C   0  0  0  0  0  0  0  0  0  0  0  0
    9.8825  -18.1649   27.2956 C   0  0  0  0  0  0  0  0  0  0  0  0
   10.6282  -19.1638   27.9086 O   0  0  0  0  0  0  0  0  0  0  0  0
    8.9456  -17.6583   27.9639 O   0  0  0  0  0  0  0  0  0  0  0  0
  2  1  1  6
  2  9  1  0
  3  2  1  0
  4  5  2  0
  4  3  1  0
  6  5  1  0
  7  8  2  0
  7  6  1  0
  8  4  1  0
  9 10  2  0
 11 12  1  0
 12 14  1  0
 13 12  2  0
 14 15  1  0
 16 15  1  6
 16 18  1  0
 17  9  1  0
 17 16  1  0
 18 20  1  0
 19 18  2  0
 20 21  1  0
 22 23  1  0
 22 21  1  0
 24 22  2  0
M  END
$$$$
