SYT.pdb
     RDKit          3D

 26 26  0  0  1  0  0  0  0  0999 V2000
   30.0639  -22.1579  -17.9908 O   0  0  0  0  0  0  0  0  0  0  0  0
   28.9702  -21.8523  -18.7639 C   0  0  0  0  0  0  0  0  0  0  0  0
   28.1014  -20.7715  -18.1622 C   0  0  2  0  0  0  0  0  0  0  0  0
   28.8376  -19.5508  -17.9482 N   0  0  0  0  0  0  0  0  0  0  0  0
   27.4457  -21.1871  -16.9221 C   0  0  0  0  0  0  0  0  0  0  0  0
   26.6942  -22.1959  -16.9297 O   0  0  0  0  0  0  0  0  0  0  0  0
   24.7366  -20.6183   -8.4593 O   0  0  0  0  0  0  0  0  0  0  0  0
   25.4656  -20.5446   -9.6624 C   0  0  0  0  0  0  0  0  0  0  0  0
   25.5218  -19.3684  -10.3844 C   0  0  0  0  0  0  0  0  0  0  0  0
   26.2326  -19.2971  -11.5571 C   0  0  0  0  0  0  0  0  0  0  0  0
   26.9154  -20.3907  -12.0590 C   0  0  0  0  0  0  0  0  0  0  0  0
   27.6589  -20.2556  -13.3346 C   0  0  0  0  0  0  0  0  0  0  0  0
   26.8860  -20.9060  -14.4619 C   0  0  2  0  0  0  0  0  0  0  0  0
   27.5937  -20.5267  -15.6820 N   0  0  0  0  0  0  0  0  0  0  0  0
   25.4945  -20.4394  -14.5623 C   0  0  0  0  0  0  0  0  0  0  0  0
   25.2277  -19.2551  -14.9414 O   0  0  0  0  0  0  0  0  0  0  0  0
   26.8625  -21.5665  -11.3428 C   0  0  0  0  0  0  0  0  0  0  0  0
   26.1392  -21.6426  -10.1475 C   0  0  0  0  0  0  0  0  0  0  0  0
   22.4973  -23.0417  -15.1648 C   0  0  0  0  0  0  0  0  0  0  0  0
   22.2846  -21.5559  -15.3640 C   0  0  1  0  0  0  0  0  0  0  0  0
   20.9581  -21.2100  -15.4676 O   0  0  0  0  0  0  0  0  0  0  0  0
   22.9933  -20.7626  -14.2599 C   0  0  2  0  0  0  0  0  0  0  0  0
   24.3620  -21.2396  -14.2560 N   0  0  0  0  0  0  0  0  0  0  0  0
   22.3517  -20.9783  -12.9470 C   0  0  0  0  0  0  0  0  0  0  0  0
   21.1520  -20.3322  -12.6834 O   0  0  0  0  0  0  0  0  0  0  0  0
   22.8201  -21.7140  -12.0407 O   0  0  0  0  0  0  0  0  0  0  0  0
  2  1  1  0
  3  2  1  0
  3  4  1  1
  5  6  2  0
  5  3  1  0
  7  8  1  0
  8 18  2  0
  9  8  1  0
  9 10  2  0
 10 11  1  0
 11 17  2  0
 11 12  1  0
 13 12  1  1
 13 14  1  0
 14  5  1  0
 15 16  2  0
 15 13  1  0
 18 17  1  0
 20 19  1  1
 20 21  1  0
 22 23  1  1
 22 20  1  0
 23 15  1  0
 24 22  1  0
 25 24  1  0
 26 24  2  0
M  END
$$$$
