SYT.pdb
     RDKit          3D

 26 26  0  0  1  0  0  0  0  0999 V2000
   15.4664   -9.4673  -15.6319 O   0  0  0  0  0  0  0  0  0  0  0  0
   16.6419   -8.9562  -15.1375 C   0  0  0  0  0  0  0  0  0  0  0  0
   17.8322   -9.8526  -15.3916 C   0  0  2  0  0  0  0  0  0  0  0  0
   17.6955  -11.1244  -14.7272 N   0  0  0  0  0  0  0  0  0  0  0  0
   19.1060   -9.2306  -15.0295 C   0  0  0  0  0  0  0  0  0  0  0  0
   19.4941   -9.2705  -13.8336 O   0  0  0  0  0  0  0  0  0  0  0  0
   23.3526  -13.9731  -15.7597 O   0  0  0  0  0  0  0  0  0  0  0  0
   23.0615  -12.6133  -15.9847 C   0  0  0  0  0  0  0  0  0  0  0  0
   23.7717  -11.6214  -15.3370 C   0  0  0  0  0  0  0  0  0  0  0  0
   23.4877  -10.2961  -15.5569 C   0  0  0  0  0  0  0  0  0  0  0  0
   22.4874   -9.9036  -16.4283 C   0  0  0  0  0  0  0  0  0  0  0  0
   22.2207   -8.4576  -16.6188 C   0  0  0  0  0  0  0  0  0  0  0  0
   21.2375   -7.9656  -15.5784 C   0  0  2  0  0  0  0  0  0  0  0  0
   19.9586   -8.5702  -15.9421 N   0  0  0  0  0  0  0  0  0  0  0  0
   21.0792   -6.5031  -15.5688 C   0  0  0  0  0  0  0  0  0  0  0  0
   20.8806   -5.8597  -16.6477 O   0  0  0  0  0  0  0  0  0  0  0  0
   21.7757  -10.8891  -17.0769 C   0  0  0  0  0  0  0  0  0  0  0  0
   22.0627  -12.2405  -16.8552 C   0  0  0  0  0  0  0  0  0  0  0  0
   18.5009   -4.6440  -13.8161 C   0  0  0  0  0  0  0  0  0  0  0  0
   19.8047   -4.0459  -13.3316 C   0  0  1  0  0  0  0  0  0  0  0  0
   20.1739   -4.4947  -12.0857 O   0  0  0  0  0  0  0  0  0  0  0  0
   20.9127   -4.2714  -14.3672 C   0  0  2  0  0  0  0  0  0  0  0  0
   21.1318   -5.7039  -14.3961 N   0  0  0  0  0  0  0  0  0  0  0  0
   22.1485   -3.5522  -13.9970 C   0  0  0  0  0  0  0  0  0  0  0  0
   22.1861   -2.1746  -14.1613 O   0  0  0  0  0  0  0  0  0  0  0  0
   23.1810   -4.1051  -13.5383 O   0  0  0  0  0  0  0  0  0  0  0  0
  2  1  1  0
  3  2  1  0
  3  4  1  1
  5  6  2  0
  5  3  1  0
  7  8  1  0
  8 18  2  0
  9  8  1  0
  9 10  2  0
 10 11  1  0
 11 17  2  0
 11 12  1  0
 13 12  1  6
 13 14  1  0
 14  5  1  0
 15 16  2  0
 15 13  1  0
 18 17  1  0
 20 19  1  6
 20 21  1  0
 22 23  1  1
 22 20  1  0
 23 15  1  0
 24 22  1  0
 25 24  1  0
 26 24  2  0
M  END
$$$$
