SYT.pdb
     RDKit          3D

 26 26  0  0  1  0  0  0  0  0999 V2000
   23.6545  -10.2303  -19.5053 O   0  0  0  0  0  0  0  0  0  0  0  0
   23.7897  -10.9709  -18.3561 C   0  0  0  0  0  0  0  0  0  0  0  0
   22.4717  -11.4820  -17.8208 C   0  0  2  0  0  0  0  0  0  0  0  0
   21.7782  -12.2915  -18.7912 N   0  0  0  0  0  0  0  0  0  0  0  0
   21.5957  -10.4139  -17.3389 C   0  0  0  0  0  0  0  0  0  0  0  0
   20.7875   -9.8719  -18.1361 O   0  0  0  0  0  0  0  0  0  0  0  0
   15.2969  -11.8741  -16.9325 O   0  0  0  0  0  0  0  0  0  0  0  0
   16.4284  -11.2943  -16.3260 C   0  0  0  0  0  0  0  0  0  0  0  0
   16.4329   -9.9606  -15.9666 C   0  0  0  0  0  0  0  0  0  0  0  0
   17.5361   -9.3960  -15.3754 C   0  0  0  0  0  0  0  0  0  0  0  0
   18.6781  -10.1333  -15.1176 C   0  0  0  0  0  0  0  0  0  0  0  0
   19.8414   -9.4669  -14.4845 C   0  0  0  0  0  0  0  0  0  0  0  0
   20.7272   -8.8445  -15.5424 C   0  0  2  0  0  0  0  0  0  0  0  0
   21.5852   -9.9293  -16.0119 N   0  0  0  0  0  0  0  0  0  0  0  0
   21.5795   -7.7612  -15.0282 C   0  0  0  0  0  0  0  0  0  0  0  0
   22.4925   -7.9966  -14.1748 O   0  0  0  0  0  0  0  0  0  0  0  0
   18.6790  -11.4641  -15.4744 C   0  0  0  0  0  0  0  0  0  0  0  0
   17.5565  -12.0426  -16.0769 C   0  0  0  0  0  0  0  0  0  0  0  0
   23.1276   -4.8667  -17.2631 C   0  0  0  0  0  0  0  0  0  0  0  0
   22.3677   -4.3051  -16.0800 C   0  0  1  0  0  0  0  0  0  0  0  0
   21.1135   -3.8499  -16.4114 O   0  0  0  0  0  0  0  0  0  0  0  0
   22.3164   -5.3319  -14.9426 C   0  0  2  0  0  0  0  0  0  0  0  0
   21.4651   -6.4020  -15.4233 N   0  0  0  0  0  0  0  0  0  0  0  0
   21.7732   -4.7361  -13.7050 C   0  0  0  0  0  0  0  0  0  0  0  0
   22.5562   -3.8237  -13.0116 O   0  0  0  0  0  0  0  0  0  0  0  0
   20.6391   -4.9994  -13.2290 O   0  0  0  0  0  0  0  0  0  0  0  0
  2  1  1  0
  3  2  1  0
  3  4  1  6
  5  6  2  0
  5  3  1  0
  7  8  1  0
  8 18  2  0
  9  8  1  0
  9 10  2  0
 10 11  1  0
 11 17  2  0
 11 12  1  0
 13 12  1  1
 13 14  1  0
 14  5  1  0
 15 16  2  0
 15 13  1  0
 18 17  1  0
 20 19  1  6
 20 21  1  0
 22 23  1  6
 22 20  1  0
 23 15  1  0
 24 22  1  0
 25 24  1  0
 26 24  2  0
M  END
$$$$
