SYT.pdb
     RDKit          3D

 26 26  0  0  1  0  0  0  0  0999 V2000
   27.1857   -9.0830  -22.5234 O   0  0  0  0  0  0  0  0  0  0  0  0
   26.3058   -9.1497  -21.4704 C   0  0  0  0  0  0  0  0  0  0  0  0
   26.6911  -10.1861  -20.4398 C   0  0  2  0  0  0  0  0  0  0  0  0
   26.7226  -11.5132  -21.0017 N   0  0  0  0  0  0  0  0  0  0  0  0
   25.8338  -10.1623  -19.2545 C   0  0  0  0  0  0  0  0  0  0  0  0
   24.8582  -10.9532  -19.1827 O   0  0  0  0  0  0  0  0  0  0  0  0
   27.5216  -15.0348  -15.5512 O   0  0  0  0  0  0  0  0  0  0  0  0
   27.1482  -13.6778  -15.6072 C   0  0  0  0  0  0  0  0  0  0  0  0
   27.9908  -12.7347  -16.1626 C   0  0  0  0  0  0  0  0  0  0  0  0
   27.6263  -11.4120  -16.2171 C   0  0  0  0  0  0  0  0  0  0  0  0
   26.4108  -10.9736  -15.7224 C   0  0  0  0  0  0  0  0  0  0  0  0
   26.0757   -9.5315  -15.8016 C   0  0  0  0  0  0  0  0  0  0  0  0
   25.1561   -9.2720  -16.9756 C   0  0  2  0  0  0  0  0  0  0  0  0
   26.0199   -9.2972  -18.1532 N   0  0  0  0  0  0  0  0  0  0  0  0
   24.4843   -7.9647  -16.9144 C   0  0  0  0  0  0  0  0  0  0  0  0
   25.1435   -6.8843  -17.0397 O   0  0  0  0  0  0  0  0  0  0  0  0
   25.5666  -11.9103  -15.1672 C   0  0  0  0  0  0  0  0  0  0  0  0
   25.9349  -13.2589  -15.1102 C   0  0  0  0  0  0  0  0  0  0  0  0
   20.4754   -7.7584  -17.6836 C   0  0  0  0  0  0  0  0  0  0  0  0
   21.3982   -6.5699  -17.8507 C   0  0  1  0  0  0  0  0  0  0  0  0
   20.7247   -5.3799  -17.9940 O   0  0  0  0  0  0  0  0  0  0  0  0
   22.4103   -6.5141  -16.7003 C   0  0  2  0  0  0  0  0  0  0  0  0
   23.0883   -7.7950  -16.7169 N   0  0  0  0  0  0  0  0  0  0  0  0
   21.7390   -6.2850  -15.4048 C   0  0  0  0  0  0  0  0  0  0  0  0
   21.2668   -5.0110  -15.1210 O   0  0  0  0  0  0  0  0  0  0  0  0
   21.5625   -7.1717  -14.5304 O   0  0  0  0  0  0  0  0  0  0  0  0
  2  1  1  0
  3  2  1  0
  3  4  1  6
  5  6  2  0
  5  3  1  0
  7  8  1  0
  8 18  2  0
  9  8  1  0
  9 10  2  0
 10 11  1  0
 11 17  2  0
 11 12  1  0
 13 12  1  1
 13 14  1  0
 14  5  1  0
 15 16  2  0
 15 13  1  0
 18 17  1  0
 20 19  1  1
 20 21  1  0
 22 23  1  1
 22 20  1  0
 23 15  1  0
 24 22  1  0
 25 24  1  0
 26 24  2  0
M  END
$$$$
