SYT.pdb
     RDKit          3D

 26 26  0  0  1  0  0  0  0  0999 V2000
   26.7383  -19.5398  -17.7843 O   0  0  0  0  0  0  0  0  0  0  0  0
   28.0609  -19.7905  -17.5100 C   0  0  0  0  0  0  0  0  0  0  0  0
   28.2860  -21.1302  -16.8470 C   0  0  2  0  0  0  0  0  0  0  0  0
   28.2740  -22.2088  -17.8032 N   0  0  0  0  0  0  0  0  0  0  0  0
   27.3353  -21.4033  -15.7690 C   0  0  0  0  0  0  0  0  0  0  0  0
   26.4208  -22.2474  -15.9522 O   0  0  0  0  0  0  0  0  0  0  0  0
   23.6559  -20.9661   -7.6353 O   0  0  0  0  0  0  0  0  0  0  0  0
   24.4837  -20.8502   -8.7691 C   0  0  0  0  0  0  0  0  0  0  0  0
   25.7439  -20.2935   -8.6708 C   0  0  0  0  0  0  0  0  0  0  0  0
   26.5505  -20.1809   -9.7763 C   0  0  0  0  0  0  0  0  0  0  0  0
   26.1375  -20.6165  -11.0229 C   0  0  0  0  0  0  0  0  0  0  0  0
   27.0492  -20.4610  -12.1817 C   0  0  0  0  0  0  0  0  0  0  0  0
   26.4319  -21.0765  -13.4191 C   0  0  2  0  0  0  0  0  0  0  0  0
   27.3638  -20.7767  -14.5032 N   0  0  0  0  0  0  0  0  0  0  0  0
   25.1176  -20.5106  -13.7604 C   0  0  0  0  0  0  0  0  0  0  0  0
   25.0073  -19.3089  -14.1617 O   0  0  0  0  0  0  0  0  0  0  0  0
   24.8811  -21.1725  -11.1265 C   0  0  0  0  0  0  0  0  0  0  0  0
   24.0568  -21.2888  -10.0019 C   0  0  0  0  0  0  0  0  0  0  0  0
   20.7057  -21.3196  -15.5691 C   0  0  0  0  0  0  0  0  0  0  0  0
   22.1869  -21.4901  -15.3058 C   0  0  1  0  0  0  0  0  0  0  0  0
   22.9677  -21.1757  -16.3928 O   0  0  0  0  0  0  0  0  0  0  0  0
   22.6023  -20.6978  -14.0606 C   0  0  2  0  0  0  0  0  0  0  0  0
   23.8952  -21.2283  -13.6759 N   0  0  0  0  0  0  0  0  0  0  0  0
   21.6179  -20.8547  -12.9707 C   0  0  0  0  0  0  0  0  0  0  0  0
   21.6205  -22.0363  -12.2426 O   0  0  0  0  0  0  0  0  0  0  0  0
   20.7678  -19.9844  -12.6515 O   0  0  0  0  0  0  0  0  0  0  0  0
  2  1  1  0
  3  2  1  0
  3  4  1  6
  5  6  2  0
  5  3  1  0
  7  8  1  0
  8 18  2  0
  9  8  1  0
  9 10  2  0
 10 11  1  0
 11 17  2  0
 11 12  1  0
 13 12  1  1
 13 14  1  0
 14  5  1  0
 15 16  2  0
 15 13  1  0
 18 17  1  0
 20 19  1  6
 20 21  1  0
 22 23  1  1
 22 20  1  0
 23 15  1  0
 24 22  1  0
 25 24  1  0
 26 24  2  0
M  END
$$$$
