SYT.pdb
     RDKit          3D

 26 26  0  0  1  0  0  0  0  0999 V2000
   26.7606  -19.7886  -17.9944 O   0  0  0  0  0  0  0  0  0  0  0  0
   28.0295  -19.8040  -17.4680 C   0  0  0  0  0  0  0  0  0  0  0  0
   28.3648  -21.0994  -16.7648 C   0  0  2  0  0  0  0  0  0  0  0  0
   28.4248  -22.2074  -17.6849 N   0  0  0  0  0  0  0  0  0  0  0  0
   27.4505  -21.4081  -15.6651 C   0  0  0  0  0  0  0  0  0  0  0  0
   26.6540  -22.3752  -15.7780 O   0  0  0  0  0  0  0  0  0  0  0  0
   23.7599  -21.0164   -7.5497 O   0  0  0  0  0  0  0  0  0  0  0  0
   24.5721  -20.8664   -8.6908 C   0  0  0  0  0  0  0  0  0  0  0  0
   25.9486  -20.9236   -8.5917 C   0  0  0  0  0  0  0  0  0  0  0  0
   26.7398  -20.7774   -9.7045 C   0  0  0  0  0  0  0  0  0  0  0  0
   26.1954  -20.5688  -10.9592 C   0  0  0  0  0  0  0  0  0  0  0  0
   27.1006  -20.4098  -12.1226 C   0  0  0  0  0  0  0  0  0  0  0  0
   26.4581  -20.9833  -13.3674 C   0  0  2  0  0  0  0  0  0  0  0  0
   27.3895  -20.6859  -14.4525 N   0  0  0  0  0  0  0  0  0  0  0  0
   25.1567  -20.3762  -13.6865 C   0  0  0  0  0  0  0  0  0  0  0  0
   25.0659  -19.1432  -13.9848 O   0  0  0  0  0  0  0  0  0  0  0  0
   24.8228  -20.5107  -11.0635 C   0  0  0  0  0  0  0  0  0  0  0  0
   24.0137  -20.6593   -9.9317 C   0  0  0  0  0  0  0  0  0  0  0  0
   22.4203  -22.5023  -15.5408 C   0  0  0  0  0  0  0  0  0  0  0  0
   22.3604  -20.9909  -15.4743 C   0  0  1  0  0  0  0  0  0  0  0  0
   21.1817  -20.4759  -15.9596 O   0  0  0  0  0  0  0  0  0  0  0  0
   22.6459  -20.5077  -14.0475 C   0  0  2  0  0  0  0  0  0  0  0  0
   23.9265  -21.0854  -13.6906 N   0  0  0  0  0  0  0  0  0  0  0  0
   21.5883  -20.9409  -13.1118 C   0  0  0  0  0  0  0  0  0  0  0  0
   20.3553  -20.3062  -13.1681 O   0  0  0  0  0  0  0  0  0  0  0  0
   21.7266  -21.8542  -12.2581 O   0  0  0  0  0  0  0  0  0  0  0  0
  2  1  1  0
  3  2  1  0
  3  4  1  6
  5  6  2  0
  5  3  1  0
  7  8  1  0
  8 18  2  0
  9  8  1  0
  9 10  2  0
 10 11  1  0
 11 17  2  0
 11 12  1  0
 13 12  1  1
 13 14  1  0
 14  5  1  0
 15 16  2  0
 15 13  1  0
 18 17  1  0
 20 19  1  1
 20 21  1  0
 22 23  1  1
 22 20  1  0
 23 15  1  0
 24 22  1  0
 25 24  1  0
 26 24  2  0
M  END
$$$$
