SYT.pdb
     RDKit          3D

 26 26  0  0  1  0  0  0  0  0999 V2000
   26.1352  -21.6261   -9.6988 O   0  0  0  0  0  0  0  0  0  0  0  0
   27.3719  -21.1258  -10.0269 C   0  0  0  0  0  0  0  0  0  0  0  0
   27.6289  -21.1078  -11.5164 C   0  0  2  0  0  0  0  0  0  0  0  0
   28.9366  -20.5872  -11.8272 N   0  0  0  0  0  0  0  0  0  0  0  0
   26.6060  -20.3781  -12.2659 C   0  0  0  0  0  0  0  0  0  0  0  0
   26.5075  -19.1322  -12.1226 O   0  0  0  0  0  0  0  0  0  0  0  0
   29.1762  -17.0527  -17.1424 O   0  0  0  0  0  0  0  0  0  0  0  0
   28.1321  -17.8880  -16.6991 C   0  0  0  0  0  0  0  0  0  0  0  0
   28.3073  -19.2556  -16.6158 C   0  0  0  0  0  0  0  0  0  0  0  0
   27.2892  -20.0693  -16.1836 C   0  0  0  0  0  0  0  0  0  0  0  0
   26.0573  -19.5572  -15.8171 C   0  0  0  0  0  0  0  0  0  0  0  0
   24.9934  -20.4862  -15.3661 C   0  0  0  0  0  0  0  0  0  0  0  0
   24.6731  -20.2456  -13.9064 C   0  0  2  0  0  0  0  0  0  0  0  0
   25.6947  -20.9785  -13.1630 N   0  0  0  0  0  0  0  0  0  0  0  0
   23.3501  -20.7497  -13.5072 C   0  0  0  0  0  0  0  0  0  0  0  0
   23.1723  -21.9805  -13.2410 O   0  0  0  0  0  0  0  0  0  0  0  0
   25.8772  -18.1937  -15.8985 C   0  0  0  0  0  0  0  0  0  0  0  0
   26.9125  -17.3617  -16.3385 C   0  0  0  0  0  0  0  0  0  0  0  0
   20.0907  -18.1649  -13.6824 C   0  0  0  0  0  0  0  0  0  0  0  0
   20.1149  -19.1559  -12.5380 C   0  0  1  0  0  0  0  0  0  0  0  0
   18.8613  -19.4660  -12.0664 O   0  0  0  0  0  0  0  0  0  0  0  0
   20.8981  -20.4123  -12.9363 C   0  0  2  0  0  0  0  0  0  0  0  0
   22.1914  -19.9375  -13.3866 N   0  0  0  0  0  0  0  0  0  0  0  0
   20.2055  -21.1609  -14.0047 C   0  0  0  0  0  0  0  0  0  0  0  0
   19.1665  -22.0102  -13.6501 O   0  0  0  0  0  0  0  0  0  0  0  0
   20.4930  -21.0831  -15.2268 O   0  0  0  0  0  0  0  0  0  0  0  0
  2  1  1  0
  3  2  1  0
  3  4  1  1
  5  6  2  0
  5  3  1  0
  7  8  1  0
  8 18  2  0
  9  8  1  0
  9 10  2  0
 10 11  1  0
 11 17  2  0
 11 12  1  0
 13 12  1  6
 13 14  1  0
 14  5  1  0
 15 16  2  0
 15 13  1  0
 18 17  1  0
 20 19  1  6
 20 21  1  0
 22 23  1  6
 22 20  1  0
 23 15  1  0
 24 22  1  0
 25 24  1  0
 26 24  2  0
M  END
$$$$
