SYT.pdb
     RDKit          3D

 26 26  0  0  1  0  0  0  0  0999 V2000
   18.4475   -7.4180  -21.3910 O   0  0  0  0  0  0  0  0  0  0  0  0
   18.6470   -7.3553  -20.0332 C   0  0  0  0  0  0  0  0  0  0  0  0
   18.9781   -8.6963  -19.4193 C   0  0  2  0  0  0  0  0  0  0  0  0
   17.8583   -9.6020  -19.4770 N   0  0  0  0  0  0  0  0  0  0  0  0
   19.4703   -8.5921  -18.0455 C   0  0  0  0  0  0  0  0  0  0  0  0
   18.6488   -8.6095  -17.0929 O   0  0  0  0  0  0  0  0  0  0  0  0
   20.2059  -14.6792  -16.8389 O   0  0  0  0  0  0  0  0  0  0  0  0
   20.7610  -13.3907  -16.7122 C   0  0  0  0  0  0  0  0  0  0  0  0
   20.7702  -12.7412  -15.4932 C   0  0  0  0  0  0  0  0  0  0  0  0
   21.3115  -11.4853  -15.3703 C   0  0  0  0  0  0  0  0  0  0  0  0
   21.8650  -10.8249  -16.4528 C   0  0  0  0  0  0  0  0  0  0  0  0
   22.4271   -9.4665  -16.2607 C   0  0  0  0  0  0  0  0  0  0  0  0
   21.3245   -8.4311  -16.3189 C   0  0  2  0  0  0  0  0  0  0  0  0
   20.8331   -8.4701  -17.6939 N   0  0  0  0  0  0  0  0  0  0  0  0
   21.7877   -7.0662  -16.0248 C   0  0  0  0  0  0  0  0  0  0  0  0
   22.6564   -6.4979  -16.7595 O   0  0  0  0  0  0  0  0  0  0  0  0
   21.8582  -11.4682  -17.6712 C   0  0  0  0  0  0  0  0  0  0  0  0
   21.3075  -12.7480  -17.7998 C   0  0  0  0  0  0  0  0  0  0  0  0
   19.9206   -4.1791  -16.2868 C   0  0  0  0  0  0  0  0  0  0  0  0
   20.4145   -4.0927  -14.8582 C   0  0  1  0  0  0  0  0  0  0  0  0
   19.4604   -4.4501  -13.9351 O   0  0  0  0  0  0  0  0  0  0  0  0
   21.7019   -4.9079  -14.6883 C   0  0  2  0  0  0  0  0  0  0  0  0
   21.3242   -6.2858  -14.9326 N   0  0  0  0  0  0  0  0  0  0  0  0
   22.2667   -4.7441  -13.3334 C   0  0  0  0  0  0  0  0  0  0  0  0
   22.9167   -3.5566  -13.0273 O   0  0  0  0  0  0  0  0  0  0  0  0
   22.2001   -5.6135  -12.4268 O   0  0  0  0  0  0  0  0  0  0  0  0
  2  1  1  0
  3  2  1  0
  3  4  1  1
  5  6  2  0
  5  3  1  0
  7  8  1  0
  8 18  2  0
  9  8  1  0
  9 10  2  0
 10 11  1  0
 11 17  2  0
 11 12  1  0
 13 12  1  6
 13 14  1  0
 14  5  1  0
 15 16  2  0
 15 13  1  0
 18 17  1  0
 20 19  1  6
 20 21  1  0
 22 23  1  1
 22 20  1  0
 23 15  1  0
 24 22  1  0
 25 24  1  0
 26 24  2  0
M  END
$$$$
