SYT.pdb
     RDKit          3D

 26 26  0  0  1  0  0  0  0  0999 V2000
   16.6454  -12.6588  -14.2396 O   0  0  0  0  0  0  0  0  0  0  0  0
   17.6620  -11.8628  -14.7089 C   0  0  0  0  0  0  0  0  0  0  0  0
   17.3985  -11.3186  -16.0943 C   0  0  2  0  0  0  0  0  0  0  0  0
   17.3858  -12.3645  -17.0862 N   0  0  0  0  0  0  0  0  0  0  0  0
   18.3370  -10.2665  -16.4851 C   0  0  0  0  0  0  0  0  0  0  0  0
   19.5409  -10.5619  -16.6988 O   0  0  0  0  0  0  0  0  0  0  0  0
   19.1296  -10.3136  -22.9443 O   0  0  0  0  0  0  0  0  0  0  0  0
   18.8986   -9.5486  -21.7843 C   0  0  0  0  0  0  0  0  0  0  0  0
   19.8587   -8.6765  -21.3094 C   0  0  0  0  0  0  0  0  0  0  0  0
   19.6330   -7.9309  -20.1787 C   0  0  0  0  0  0  0  0  0  0  0  0
   18.4453   -8.0219  -19.4750 C   0  0  0  0  0  0  0  0  0  0  0  0
   18.2621   -7.1978  -18.2561 C   0  0  0  0  0  0  0  0  0  0  0  0
   18.9220   -7.8661  -17.0690 C   0  0  2  0  0  0  0  0  0  0  0  0
   17.9885   -8.9069  -16.6460 N   0  0  0  0  0  0  0  0  0  0  0  0
   19.1520   -6.9542  -15.9378 C   0  0  0  0  0  0  0  0  0  0  0  0
   18.1811   -6.5180  -15.2417 O   0  0  0  0  0  0  0  0  0  0  0  0
   17.4842   -8.8905  -19.9443 C   0  0  0  0  0  0  0  0  0  0  0  0
   17.7110   -9.6516  -21.0963 C   0  0  0  0  0  0  0  0  0  0  0  0
   22.5686   -4.7938  -12.9937 C   0  0  0  0  0  0  0  0  0  0  0  0
   22.1616   -5.7781  -14.0697 C   0  0  1  0  0  0  0  0  0  0  0  0
   22.4781   -7.0792  -13.7582 O   0  0  0  0  0  0  0  0  0  0  0  0
   20.6732   -5.6202  -14.4022 C   0  0  2  0  0  0  0  0  0  0  0  0
   20.4331   -6.4937  -15.5336 N   0  0  0  0  0  0  0  0  0  0  0  0
   20.3421   -4.2192  -14.7328 C   0  0  0  0  0  0  0  0  0  0  0  0
   20.6865   -3.7371  -15.9879 O   0  0  0  0  0  0  0  0  0  0  0  0
   19.7640   -3.4228  -13.9495 O   0  0  0  0  0  0  0  0  0  0  0  0
  2  1  1  0
  3  2  1  0
  3  4  1  6
  5  6  2  0
  5  3  1  0
  7  8  1  0
  8 18  2  0
  9  8  1  0
  9 10  2  0
 10 11  1  0
 11 17  2  0
 11 12  1  0
 13 12  1  6
 13 14  1  0
 14  5  1  0
 15 16  2  0
 15 13  1  0
 18 17  1  0
 20 19  1  1
 20 21  1  0
 22 23  1  6
 22 20  1  0
 23 15  1  0
 24 22  1  0
 25 24  1  0
 26 24  2  0
M  END
$$$$
