SYT.pdb
     RDKit          3D

 26 26  0  0  1  0  0  0  0  0999 V2000
   18.6070  -19.9909  -13.2198 O   0  0  0  0  0  0  0  0  0  0  0  0
   19.9216  -19.5999  -13.1407 C   0  0  0  0  0  0  0  0  0  0  0  0
   20.7288  -19.9815  -14.3604 C   0  0  2  0  0  0  0  0  0  0  0  0
   20.4904  -21.3476  -14.7536 N   0  0  0  0  0  0  0  0  0  0  0  0
   22.1637  -19.7494  -14.1939 C   0  0  0  0  0  0  0  0  0  0  0  0
   22.5669  -18.6154  -13.8278 O   0  0  0  0  0  0  0  0  0  0  0  0
   24.3788  -20.4023   -7.7826 O   0  0  0  0  0  0  0  0  0  0  0  0
   24.5495  -20.7172   -9.1450 C   0  0  0  0  0  0  0  0  0  0  0  0
   23.4666  -21.0508   -9.9348 C   0  0  0  0  0  0  0  0  0  0  0  0
   23.6336  -21.3575  -11.2628 C   0  0  0  0  0  0  0  0  0  0  0  0
   24.8821  -21.3452  -11.8587 C   0  0  0  0  0  0  0  0  0  0  0  0
   25.0013  -21.6936  -13.2949 C   0  0  0  0  0  0  0  0  0  0  0  0
   24.5823  -20.5200  -14.1542 C   0  0  2  0  0  0  0  0  0  0  0  0
   23.1604  -20.7252  -14.4180 N   0  0  0  0  0  0  0  0  0  0  0  0
   25.2933  -20.4537  -15.4404 C   0  0  0  0  0  0  0  0  0  0  0  0
   25.0167  -21.2616  -16.3829 O   0  0  0  0  0  0  0  0  0  0  0  0
   25.9658  -21.0133  -11.0751 C   0  0  0  0  0  0  0  0  0  0  0  0
   25.7991  -20.7001   -9.7217 C   0  0  0  0  0  0  0  0  0  0  0  0
   28.6136  -18.0276  -15.7290 C   0  0  0  0  0  0  0  0  0  0  0  0
   27.7403  -18.0631  -16.9653 C   0  0  1  0  0  0  0  0  0  0  0  0
   28.4387  -17.8285  -18.1260 O   0  0  0  0  0  0  0  0  0  0  0  0
   26.9594  -19.3810  -17.0294 C   0  0  2  0  0  0  0  0  0  0  0  0
   26.3169  -19.5152  -15.7371 N   0  0  0  0  0  0  0  0  0  0  0  0
   27.8555  -20.5239  -17.2986 C   0  0  0  0  0  0  0  0  0  0  0  0
   28.2025  -20.7963  -18.6145 O   0  0  0  0  0  0  0  0  0  0  0  0
   28.3321  -21.2765  -16.4105 O   0  0  0  0  0  0  0  0  0  0  0  0
  2  1  1  0
  3  2  1  0
  3  4  1  1
  5  6  2  0
  5  3  1  0
  7  8  1  0
  8 18  2  0
  9  8  1  0
  9 10  2  0
 10 11  1  0
 11 17  2  0
 11 12  1  0
 13 12  1  1
 13 14  1  0
 14  5  1  0
 15 16  2  0
 15 13  1  0
 18 17  1  0
 20 19  1  1
 20 21  1  0
 22 23  1  1
 22 20  1  0
 23 15  1  0
 24 22  1  0
 25 24  1  0
 26 24  2  0
M  END
$$$$
