SYT.pdb
     RDKit          3D

 26 26  0  0  1  0  0  0  0  0999 V2000
   25.9959  -20.6277  -17.0762 O   0  0  0  0  0  0  0  0  0  0  0  0
   27.0370  -20.3656  -16.2189 C   0  0  0  0  0  0  0  0  0  0  0  0
   27.3489  -21.5195  -15.2936 C   0  0  2  0  0  0  0  0  0  0  0  0
   27.3175  -22.7835  -15.9857 N   0  0  0  0  0  0  0  0  0  0  0  0
   26.4751  -21.5664  -14.1211 C   0  0  0  0  0  0  0  0  0  0  0  0
   25.6305  -22.4930  -14.0178 O   0  0  0  0  0  0  0  0  0  0  0  0
   26.4608  -21.1537   -5.7113 O   0  0  0  0  0  0  0  0  0  0  0  0
   26.3273  -20.7393   -7.0510 C   0  0  0  0  0  0  0  0  0  0  0  0
   26.9096  -19.5661   -7.4898 C   0  0  0  0  0  0  0  0  0  0  0  0
   26.7792  -19.1627   -8.7958 C   0  0  0  0  0  0  0  0  0  0  0  0
   26.0657  -19.9082   -9.7174 C   0  0  0  0  0  0  0  0  0  0  0  0
   25.9525  -19.4175  -11.1120 C   0  0  0  0  0  0  0  0  0  0  0  0
   25.4874  -20.5334  -12.0229 C   0  0  2  0  0  0  0  0  0  0  0  0
   26.5055  -20.6274  -13.0660 N   0  0  0  0  0  0  0  0  0  0  0  0
   24.1879  -20.2664  -12.6583 C   0  0  0  0  0  0  0  0  0  0  0  0
   24.0460  -19.3041  -13.4777 O   0  0  0  0  0  0  0  0  0  0  0  0
   25.4826  -21.0792   -9.2849 C   0  0  0  0  0  0  0  0  0  0  0  0
   25.6137  -21.4932   -7.9547 C   0  0  0  0  0  0  0  0  0  0  0  0
   21.7977  -23.2600  -13.5921 C   0  0  0  0  0  0  0  0  0  0  0  0
   21.6641  -21.8741  -14.1869 C   0  0  1  0  0  0  0  0  0  0  0  0
   20.5357  -21.7244  -14.9579 O   0  0  0  0  0  0  0  0  0  0  0  0
   21.7438  -20.8105  -13.0854 C   0  0  2  0  0  0  0  0  0  0  0  0
   23.0144  -21.0310  -12.4237 N   0  0  0  0  0  0  0  0  0  0  0  0
   20.6206  -20.9366  -12.1346 C   0  0  0  0  0  0  0  0  0  0  0  0
   20.8748  -21.4685  -10.8780 O   0  0  0  0  0  0  0  0  0  0  0  0
   19.4369  -20.5927  -12.3848 O   0  0  0  0  0  0  0  0  0  0  0  0
  2  1  1  0
  3  2  1  0
  3  4  1  6
  5  6  2  0
  5  3  1  0
  7  8  1  0
  8 18  2  0
  9  8  1  0
  9 10  2  0
 10 11  1  0
 11 17  2  0
 11 12  1  0
 13 12  1  1
 13 14  1  0
 14  5  1  0
 15 16  2  0
 15 13  1  0
 18 17  1  0
 20 19  1  1
 20 21  1  0
 22 23  1  1
 22 20  1  0
 23 15  1  0
 24 22  1  0
 25 24  1  0
 26 24  2  0
M  END
$$$$
