SYT.pdb
     RDKit          3D

 26 26  0  0  1  0  0  0  0  0999 V2000
   20.1813  -19.0338   -0.4844 O   0  0  0  0  0  0  0  0  0  0  0  0
   20.1098  -19.7286    0.6986 C   0  0  0  0  0  0  0  0  0  0  0  0
   18.7774  -20.4116    0.9063 C   0  0  2  0  0  0  0  0  0  0  0  0
   18.1293  -20.7115   -0.3458 N   0  0  0  0  0  0  0  0  0  0  0  0
   17.8733  -19.6536    1.7715 C   0  0  0  0  0  0  0  0  0  0  0  0
   16.9365  -18.9912    1.2555 O   0  0  0  0  0  0  0  0  0  0  0  0
   12.6505  -23.3280    2.8752 O   0  0  0  0  0  0  0  0  0  0  0  0
   13.6392  -22.4888    3.4253 C   0  0  0  0  0  0  0  0  0  0  0  0
   13.3811  -21.1527    3.6620 C   0  0  0  0  0  0  0  0  0  0  0  0
   14.3452  -20.3352    4.1984 C   0  0  0  0  0  0  0  0  0  0  0  0
   15.6032  -20.8121    4.5209 C   0  0  0  0  0  0  0  0  0  0  0  0
   16.6059  -19.8797    5.0897 C   0  0  0  0  0  0  0  0  0  0  0  0
   17.0428  -18.8786    4.0418 C   0  0  2  0  0  0  0  0  0  0  0  0
   17.9716  -19.6051    3.1799 N   0  0  0  0  0  0  0  0  0  0  0  0
   17.7394  -17.7108    4.6031 C   0  0  0  0  0  0  0  0  0  0  0  0
   18.9088  -17.8193    5.0913 O   0  0  0  0  0  0  0  0  0  0  0  0
   15.8660  -22.1441    4.2866 C   0  0  0  0  0  0  0  0  0  0  0  0
   14.8858  -22.9799    3.7403 C   0  0  0  0  0  0  0  0  0  0  0  0
   18.3624  -14.4500    2.8169 C   0  0  0  0  0  0  0  0  0  0  0  0
   17.6385  -14.1331    4.1084 C   0  0  1  0  0  0  0  0  0  0  0  0
   16.2955  -13.8994    3.9305 O   0  0  0  0  0  0  0  0  0  0  0  0
   17.8904  -15.2339    5.1455 C   0  0  2  0  0  0  0  0  0  0  0  0
   17.1900  -16.4021    4.6499 N   0  0  0  0  0  0  0  0  0  0  0  0
   17.3907  -14.8406    6.4786 C   0  0  0  0  0  0  0  0  0  0  0  0
   17.9906  -13.7649    7.1185 O   0  0  0  0  0  0  0  0  0  0  0  0
   16.4500  -15.4173    7.0824 O   0  0  0  0  0  0  0  0  0  0  0  0
  2  1  1  0
  3  2  1  0
  3  4  1  6
  5  6  2  0
  5  3  1  0
  7  8  1  0
  8 18  2  0
  9  8  1  0
  9 10  2  0
 10 11  1  0
 11 17  2  0
 11 12  1  0
 13 12  1  1
 13 14  1  0
 14  5  1  0
 15 16  2  0
 15 13  1  0
 18 17  1  0
 20 19  1  6
 20 21  1  0
 22 23  1  6
 22 20  1  0
 23 15  1  0
 24 22  1  0
 25 24  1  0
 26 24  2  0
M  END
$$$$
