QHK.pdb
     RDKit          3D

 29 29  0  0  1  0  0  0  0  0999 V2000
   27.5517  -18.1340  -16.3529 N   0  0  0  0  0  0  0  0  0  0  0  0
   28.1608  -19.4462  -16.3467 C   0  0  0  0  0  0  0  0  0  0  0  0
   28.9898  -19.6266  -17.2603 O   0  0  0  0  0  0  0  0  0  0  0  0
   27.7580  -20.4008  -15.3082 C   0  0  0  0  0  0  0  0  0  0  0  0
   26.7303  -19.9867  -14.3313 C   0  0  0  0  0  0  0  0  0  0  0  0
   25.5604  -20.8742  -14.1201 C   0  0  2  0  0  0  0  0  0  0  0  0
   25.3533  -21.5990  -15.3802 N   0  0  0  0  0  0  0  0  0  0  0  0
   24.3429  -20.2980  -13.5603 C   0  0  0  0  0  0  0  0  0  0  0  0
   24.3124  -19.6610  -12.4598 O   0  0  0  0  0  0  0  0  0  0  0  0
   23.1006  -20.4285  -14.2395 N   0  0  0  0  0  0  0  0  0  0  0  0
   21.8566  -19.8736  -13.7523 C   0  0  1  0  0  0  0  0  0  0  0  0
   21.3523  -18.7117  -14.5346 C   0  0  0  0  0  0  0  0  0  0  0  0
   20.1519  -18.0718  -13.9813 C   0  0  0  0  0  0  0  0  0  0  0  0
   19.4546  -18.3976  -12.8565 C   0  0  0  0  0  0  0  0  0  0  0  0
   18.4262  -17.5336  -12.7475 N   0  0  0  0  0  0  0  0  0  0  0  0
   18.4814  -16.6821  -13.7883 C   0  0  0  0  0  0  0  0  0  0  0  0
   19.5385  -17.0163  -14.5391 N   0  0  0  0  0  0  0  0  0  0  0  0
   20.8328  -20.9214  -13.5162 C   0  0  0  0  0  0  0  0  0  0  0  0
   20.6587  -21.8141  -14.3923 O   0  0  0  0  0  0  0  0  0  0  0  0
   20.0298  -20.9893  -12.3648 N   0  0  0  0  0  0  0  0  0  0  0  0
   19.0829  -22.1285  -12.1192 C   0  0  1  0  0  0  0  0  0  0  0  0
   19.0469  -22.3888  -10.6761 C   0  0  0  0  0  0  0  0  0  0  0  0
   18.6430  -23.6525  -10.0765 C   0  0  0  0  0  0  0  0  0  0  0  0
   18.6693  -23.9132   -8.6296 C   0  0  0  0  0  0  0  0  0  0  0  0
   18.1053  -25.3640   -8.4602 C   0  0  0  0  0  0  0  0  0  0  0  0
   18.2825  -25.7369   -7.0849 N   0  0  0  0  0  0  0  0  0  0  0  0
   17.8198  -21.6272  -12.7136 C   0  0  0  0  0  0  0  0  0  0  0  0
   17.5462  -20.3687  -12.6262 O   0  0  0  0  0  0  0  0  0  0  0  0
   16.8696  -22.3584  -13.3757 O   0  0  0  0  0  0  0  0  0  0  0  0
  1  2  1  0
  2  3  2  0
  4  5  1  0
  4  2  1  0
  5  6  1  0
  6  7  1  6
  8 10  1  0
  8  6  1  0
  9  8  2  0
 11 10  1  0
 12 13  1  0
 11 12  1  6
 13 17  1  0
 14 15  1  0
 14 13  2  0
 15 16  1  0
 16 17  2  0
 18 11  1  0
 18 19  2  0
 20 18  1  0
 21 20  1  0
 21 27  1  0
 21 22  1  1
 23 22  1  0
 24 23  1  0
 25 24  1  0
 26 25  1  0
 27 28  2  0
 27 29  1  0
M  END
$$$$
