QHK.pdb
     RDKit          3D

 29 29  0  0  1  0  0  0  0  0999 V2000
   27.3922  -21.8631  -14.9563 N   0  0  0  0  0  0  0  0  0  0  0  0
   28.2913  -21.0357  -15.7310 C   0  0  0  0  0  0  0  0  0  0  0  0
   29.2407  -21.6591  -16.2451 O   0  0  0  0  0  0  0  0  0  0  0  0
   28.0109  -19.5992  -15.8306 C   0  0  0  0  0  0  0  0  0  0  0  0
   26.8101  -19.0674  -15.1544 C   0  0  0  0  0  0  0  0  0  0  0  0
   25.4813  -19.5761  -15.5744 C   0  0  2  0  0  0  0  0  0  0  0  0
   25.5197  -19.6855  -17.0382 N   0  0  0  0  0  0  0  0  0  0  0  0
   24.2886  -18.9119  -15.0605 C   0  0  0  0  0  0  0  0  0  0  0  0
   24.1473  -18.5715  -13.8432 O   0  0  0  0  0  0  0  0  0  0  0  0
   23.1996  -18.6086  -15.9228 N   0  0  0  0  0  0  0  0  0  0  0  0
   21.9877  -17.9508  -15.4854 C   0  0  1  0  0  0  0  0  0  0  0  0
   21.6831  -16.6814  -16.2014 C   0  0  0  0  0  0  0  0  0  0  0  0
   22.6034  -15.5747  -15.9101 C   0  0  0  0  0  0  0  0  0  0  0  0
   23.6698  -15.5545  -15.0614 C   0  0  0  0  0  0  0  0  0  0  0  0
   24.2163  -14.3241  -15.1197 N   0  0  0  0  0  0  0  0  0  0  0  0
   23.5018  -13.5884  -15.9914 C   0  0  0  0  0  0  0  0  0  0  0  0
   22.5171  -14.3585  -16.4712 N   0  0  0  0  0  0  0  0  0  0  0  0
   20.8380  -18.8865  -15.4181 C   0  0  0  0  0  0  0  0  0  0  0  0
   20.7882  -19.8529  -16.2294 O   0  0  0  0  0  0  0  0  0  0  0  0
   19.7826  -18.7686  -14.4975 N   0  0  0  0  0  0  0  0  0  0  0  0
   18.6458  -19.7490  -14.4580 C   0  0  1  0  0  0  0  0  0  0  0  0
   17.9113  -19.5454  -13.2048 C   0  0  0  0  0  0  0  0  0  0  0  0
   16.7311  -20.3006  -12.8093 C   0  0  0  0  0  0  0  0  0  0  0  0
   16.0290  -20.1057  -11.5321 C   0  0  0  0  0  0  0  0  0  0  0  0
   14.7999  -21.0743  -11.5835 C   0  0  0  0  0  0  0  0  0  0  0  0
   14.9116  -21.9711  -10.4676 N   0  0  0  0  0  0  0  0  0  0  0  0
   17.9016  -19.4245  -15.6993 C   0  0  0  0  0  0  0  0  0  0  0  0
   17.9257  -18.2120  -16.1416 O   0  0  0  0  0  0  0  0  0  0  0  0
   17.1657  -20.2837  -16.4712 O   0  0  0  0  0  0  0  0  0  0  0  0
  1  2  1  0
  2  3  2  0
  4  5  1  0
  4  2  1  0
  5  6  1  0
  6  7  1  6
  8 10  1  0
  8  6  1  0
  9  8  2  0
 11 10  1  0
 12 13  1  0
 11 12  1  6
 13 17  1  0
 14 15  1  0
 14 13  2  0
 15 16  1  0
 16 17  2  0
 18 11  1  0
 18 19  2  0
 20 18  1  0
 21 20  1  0
 21 27  1  0
 21 22  1  1
 23 22  1  0
 24 23  1  0
 25 24  1  0
 26 25  1  0
 27 28  2  0
 27 29  1  0
M  END
$$$$
