QHK.pdb
     RDKit          3D

 29 29  0  0  1  0  0  0  0  0999 V2000
   25.5645  -13.3301  -15.7629 N   0  0  0  0  0  0  0  0  0  0  0  0
   25.9290  -14.1094  -16.9259 C   0  0  0  0  0  0  0  0  0  0  0  0
   26.7599  -15.0097  -16.6952 O   0  0  0  0  0  0  0  0  0  0  0  0
   25.3115  -13.7762  -18.2143 C   0  0  0  0  0  0  0  0  0  0  0  0
   24.2661  -12.7329  -18.2454 C   0  0  0  0  0  0  0  0  0  0  0  0
   22.9757  -13.0079  -17.5672 C   0  0  2  0  0  0  0  0  0  0  0  0
   22.3811  -14.1621  -18.2529 N   0  0  0  0  0  0  0  0  0  0  0  0
   22.0497  -11.9000  -17.3594 C   0  0  0  0  0  0  0  0  0  0  0  0
   21.6988  -11.0992  -18.2832 O   0  0  0  0  0  0  0  0  0  0  0  0
   21.4838  -11.6591  -16.0776 N   0  0  0  0  0  0  0  0  0  0  0  0
   20.5343  -10.6024  -15.8044 C   0  0  1  0  0  0  0  0  0  0  0  0
   19.5349  -10.9297  -14.7506 C   0  0  0  0  0  0  0  0  0  0  0  0
   18.5093   -9.9012  -14.5345 C   0  0  0  0  0  0  0  0  0  0  0  0
   17.5328   -9.4795  -15.3869 C   0  0  0  0  0  0  0  0  0  0  0  0
   16.8275   -8.5185  -14.7584 N   0  0  0  0  0  0  0  0  0  0  0  0
   17.3561   -8.3435  -13.5330 C   0  0  0  0  0  0  0  0  0  0  0  0
   18.3839   -9.1917  -13.4021 N   0  0  0  0  0  0  0  0  0  0  0  0
   21.2002   -9.2913  -15.6062 C   0  0  0  0  0  0  0  0  0  0  0  0
   22.3042   -9.2528  -14.9944 O   0  0  0  0  0  0  0  0  0  0  0  0
   20.6772   -8.0684  -16.0604 N   0  0  0  0  0  0  0  0  0  0  0  0
   21.4499   -6.7847  -15.9610 C   0  0  1  0  0  0  0  0  0  0  0  0
   21.4394   -6.1427  -17.2798 C   0  0  0  0  0  0  0  0  0  0  0  0
   22.0074   -4.8324  -17.5631 C   0  0  0  0  0  0  0  0  0  0  0  0
   21.9993   -4.2115  -18.8960 C   0  0  0  0  0  0  0  0  0  0  0  0
   22.8234   -2.8892  -18.7416 C   0  0  0  0  0  0  0  0  0  0  0  0
   22.9823   -2.3254  -20.0525 N   0  0  0  0  0  0  0  0  0  0  0  0
   20.7273   -6.0598  -14.8875 C   0  0  0  0  0  0  0  0  0  0  0  0
   21.3769   -5.2138  -14.1604 O   0  0  0  0  0  0  0  0  0  0  0  0
   19.4027   -6.1742  -14.5588 O   0  0  0  0  0  0  0  0  0  0  0  0
  1  2  1  0
  2  3  2  0
  4  5  1  0
  4  2  1  0
  5  6  1  0
  6  7  1  6
  8 10  1  0
  8  6  1  0
  9  8  2  0
 11 10  1  0
 12 13  1  0
 11 12  1  1
 13 17  1  0
 14 15  1  0
 14 13  2  0
 15 16  1  0
 16 17  2  0
 18 11  1  0
 18 19  2  0
 20 18  1  0
 21 20  1  0
 21 27  1  0
 21 22  1  6
 23 22  1  0
 24 23  1  0
 25 24  1  0
 26 25  1  0
 27 28  2  0
 27 29  1  0
M  END
$$$$
