QHK.pdb
     RDKit          3D

 29 29  0  0  1  0  0  0  0  0999 V2000
   27.0016  -13.8418  -15.7087 N   0  0  0  0  0  0  0  0  0  0  0  0
   26.6501  -14.1963  -17.0666 C   0  0  0  0  0  0  0  0  0  0  0  0
   27.0392  -15.3288  -17.4137 O   0  0  0  0  0  0  0  0  0  0  0  0
   25.9014  -13.2259  -17.8727 C   0  0  0  0  0  0  0  0  0  0  0  0
   25.5697  -11.9180  -17.2718 C   0  0  0  0  0  0  0  0  0  0  0  0
   24.9071  -10.8992  -18.1226 C   0  0  2  0  0  0  0  0  0  0  0  0
   25.5731  -10.9500  -19.4302 N   0  0  0  0  0  0  0  0  0  0  0  0
   24.7440   -9.5501  -17.5922 C   0  0  0  0  0  0  0  0  0  0  0  0
   24.2033   -9.3012  -16.4682 O   0  0  0  0  0  0  0  0  0  0  0  0
   25.1939   -8.4217  -18.3309 N   0  0  0  0  0  0  0  0  0  0  0  0
   25.1224   -7.0617  -17.8429 C   0  0  1  0  0  0  0  0  0  0  0  0
   25.9577   -6.0905  -18.6017 C   0  0  0  0  0  0  0  0  0  0  0  0
   26.0376   -4.7506  -18.0059 C   0  0  0  0  0  0  0  0  0  0  0  0
   25.6493   -4.3462  -16.7636 C   0  0  0  0  0  0  0  0  0  0  0  0
   25.9144   -3.0290  -16.6602 N   0  0  0  0  0  0  0  0  0  0  0  0
   26.4596   -2.6183  -17.8202 C   0  0  0  0  0  0  0  0  0  0  0  0
   26.5322   -3.6754  -18.6389 N   0  0  0  0  0  0  0  0  0  0  0  0
   23.7221   -6.6134  -17.6431 C   0  0  0  0  0  0  0  0  0  0  0  0
   22.9434   -6.5801  -18.6366 O   0  0  0  0  0  0  0  0  0  0  0  0
   23.1943   -6.2163  -16.4026 N   0  0  0  0  0  0  0  0  0  0  0  0
   21.7835   -5.7227  -16.2575 C   0  0  1  0  0  0  0  0  0  0  0  0
   20.9013   -6.8891  -16.1466 C   0  0  0  0  0  0  0  0  0  0  0  0
   19.4839   -6.8850  -16.4797 C   0  0  0  0  0  0  0  0  0  0  0  0
   18.6145   -8.0645  -16.3572 C   0  0  0  0  0  0  0  0  0  0  0  0
   17.2271   -7.6171  -16.9284 C   0  0  0  0  0  0  0  0  0  0  0  0
   16.3777   -8.7747  -16.9520 N   0  0  0  0  0  0  0  0  0  0  0  0
   21.8686   -4.8640  -15.0511 C   0  0  0  0  0  0  0  0  0  0  0  0
   22.8297   -5.0612  -14.2121 O   0  0  0  0  0  0  0  0  0  0  0  0
   21.0258   -3.8426  -14.7015 O   0  0  0  0  0  0  0  0  0  0  0  0
  1  2  1  0
  2  3  2  0
  4  5  1  0
  4  2  1  0
  5  6  1  0
  6  7  1  6
  8 10  1  0
  8  6  1  0
  9  8  2  0
 11 10  1  0
 12 13  1  0
 11 12  1  6
 13 17  1  0
 14 15  1  0
 14 13  2  0
 15 16  1  0
 16 17  2  0
 18 11  1  0
 18 19  2  0
 20 18  1  0
 21 20  1  0
 21 27  1  0
 21 22  1  1
 23 22  1  0
 24 23  1  0
 25 24  1  0
 26 25  1  0
 27 28  2  0
 27 29  1  0
M  END
$$$$
