QHK.pdb
     RDKit          3D

 29 29  0  0  1  0  0  0  0  0999 V2000
   25.2078  -23.2456  -25.2058 N   0  0  0  0  0  0  0  0  0  0  0  0
   24.4169  -22.5201  -24.2358 C   0  0  0  0  0  0  0  0  0  0  0  0
   24.7854  -21.3424  -24.0574 O   0  0  0  0  0  0  0  0  0  0  0  0
   23.3031  -23.2138  -23.5799 C   0  0  0  0  0  0  0  0  0  0  0  0
   23.2375  -23.2027  -22.1042 C   0  0  0  0  0  0  0  0  0  0  0  0
   24.4948  -23.3983  -21.3414 C   0  0  2  0  0  0  0  0  0  0  0  0
   24.9218  -24.7814  -21.5876 N   0  0  0  0  0  0  0  0  0  0  0  0
   24.5222  -23.0106  -19.9354 C   0  0  0  0  0  0  0  0  0  0  0  0
   24.2412  -23.8074  -18.9846 O   0  0  0  0  0  0  0  0  0  0  0  0
   24.8728  -21.6862  -19.5555 N   0  0  0  0  0  0  0  0  0  0  0  0
   24.9329  -21.2336  -18.1828 C   0  0  1  0  0  0  0  0  0  0  0  0
   26.2912  -20.8288  -17.7267 C   0  0  0  0  0  0  0  0  0  0  0  0
   27.2240  -21.9418  -17.5082 C   0  0  0  0  0  0  0  0  0  0  0  0
   26.9967  -23.2802  -17.6303 C   0  0  0  0  0  0  0  0  0  0  0  0
   28.1442  -23.9196  -17.3296 N   0  0  0  0  0  0  0  0  0  0  0  0
   29.0728  -22.9941  -17.0248 C   0  0  0  0  0  0  0  0  0  0  0  0
   28.5041  -21.7870  -17.1357 N   0  0  0  0  0  0  0  0  0  0  0  0
   23.8804  -20.2329  -17.8785 C   0  0  0  0  0  0  0  0  0  0  0  0
   23.7650  -19.2210  -18.6250 O   0  0  0  0  0  0  0  0  0  0  0  0
   22.9880  -20.3360  -16.7976 N   0  0  0  0  0  0  0  0  0  0  0  0
   21.8134  -19.4134  -16.6426 C   0  0  1  0  0  0  0  0  0  0  0  0
   20.6643  -20.2088  -16.1971 C   0  0  0  0  0  0  0  0  0  0  0  0
   19.3207  -19.6812  -16.0074 C   0  0  0  0  0  0  0  0  0  0  0  0
   18.1524  -20.5187  -15.6981 C   0  0  0  0  0  0  0  0  0  0  0  0
   16.9150  -19.5687  -15.8318 C   0  0  0  0  0  0  0  0  0  0  0  0
   15.7365  -20.3682  -15.6482 N   0  0  0  0  0  0  0  0  0  0  0  0
   22.3190  -18.4138  -15.6704 C   0  0  0  0  0  0  0  0  0  0  0  0
   23.2255  -18.7711  -14.8236 O   0  0  0  0  0  0  0  0  0  0  0  0
   21.9349  -17.1043  -15.5548 O   0  0  0  0  0  0  0  0  0  0  0  0
  1  2  1  0
  2  3  2  0
  4  5  1  0
  4  2  1  0
  5  6  1  0
  6  7  1  1
  8 10  1  0
  8  6  1  0
  9  8  2  0
 11 10  1  0
 12 13  1  0
 11 12  1  6
 13 17  1  0
 14 15  1  0
 14 13  2  0
 15 16  1  0
 16 17  2  0
 18 11  1  0
 18 19  2  0
 20 18  1  0
 21 20  1  0
 21 27  1  0
 21 22  1  1
 23 22  1  0
 24 23  1  0
 25 24  1  0
 26 25  1  0
 27 28  2  0
 27 29  1  0
M  END
$$$$
