QHK.pdb
     RDKit          3D

 29 29  0  0  1  0  0  0  0  0999 V2000
   24.7976  -10.4021  -23.2536 N   0  0  0  0  0  0  0  0  0  0  0  0
   24.5974  -11.6877  -22.6211 C   0  0  0  0  0  0  0  0  0  0  0  0
   25.6489  -12.3294  -22.4288 O   0  0  0  0  0  0  0  0  0  0  0  0
   23.2298  -12.0968  -22.2828 C   0  0  0  0  0  0  0  0  0  0  0  0
   22.7413  -11.8540  -20.9100 C   0  0  0  0  0  0  0  0  0  0  0  0
   23.7245  -11.8686  -19.7992 C   0  0  2  0  0  0  0  0  0  0  0  0
   24.2387  -13.2414  -19.7147 N   0  0  0  0  0  0  0  0  0  0  0  0
   23.3296  -11.3032  -18.5138 C   0  0  0  0  0  0  0  0  0  0  0  0
   22.4630  -11.8376  -17.7514 O   0  0  0  0  0  0  0  0  0  0  0  0
   23.9117  -10.0940  -18.0443 N   0  0  0  0  0  0  0  0  0  0  0  0
   23.6044   -9.4995  -16.7618 C   0  0  1  0  0  0  0  0  0  0  0  0
   24.7925   -9.2392  -15.9031 C   0  0  0  0  0  0  0  0  0  0  0  0
   25.6337  -10.4147  -15.6439 C   0  0  0  0  0  0  0  0  0  0  0  0
   26.9086  -10.6582  -16.0598 C   0  0  0  0  0  0  0  0  0  0  0  0
   27.2721  -11.8645  -15.5814 N   0  0  0  0  0  0  0  0  0  0  0  0
   26.2397  -12.3654  -14.8779 C   0  0  0  0  0  0  0  0  0  0  0  0
   25.2410  -11.4745  -14.9200 N   0  0  0  0  0  0  0  0  0  0  0  0
   22.6964   -8.3330  -16.8906 C   0  0  0  0  0  0  0  0  0  0  0  0
   22.9281   -7.4743  -17.7870 O   0  0  0  0  0  0  0  0  0  0  0  0
   21.5772   -8.1148  -16.0691 N   0  0  0  0  0  0  0  0  0  0  0  0
   20.6897   -6.9145  -16.2330 C   0  0  1  0  0  0  0  0  0  0  0  0
   19.3182   -7.3123  -15.8984 C   0  0  0  0  0  0  0  0  0  0  0  0
   18.1798   -6.4049  -15.8736 C   0  0  0  0  0  0  0  0  0  0  0  0
   16.8034   -6.8320  -15.5817 C   0  0  0  0  0  0  0  0  0  0  0  0
   15.9609   -5.5130  -15.5396 C   0  0  0  0  0  0  0  0  0  0  0  0
   14.5810   -5.8875  -15.4082 N   0  0  0  0  0  0  0  0  0  0  0  0
   21.3146   -5.9286  -15.3178 C   0  0  0  0  0  0  0  0  0  0  0  0
   21.9314   -6.3566  -14.2676 O   0  0  0  0  0  0  0  0  0  0  0  0
   21.3258   -4.5658  -15.4528 O   0  0  0  0  0  0  0  0  0  0  0  0
  1  2  1  0
  2  3  2  0
  4  5  1  0
  4  2  1  0
  5  6  1  0
  6  7  1  1
  8 10  1  0
  8  6  1  0
  9  8  2  0
 11 10  1  0
 12 13  1  0
 11 12  1  6
 13 17  1  0
 14 15  1  0
 14 13  2  0
 15 16  1  0
 16 17  2  0
 18 11  1  0
 18 19  2  0
 20 18  1  0
 21 20  1  0
 21 27  1  0
 21 22  1  1
 23 22  1  0
 24 23  1  0
 25 24  1  0
 26 25  1  0
 27 28  2  0
 27 29  1  0
M  END
$$$$
