QHK.pdb
     RDKit          3D

 29 29  0  0  1  0  0  0  0  0999 V2000
   25.5405  -22.0239  -18.7005 N   0  0  0  0  0  0  0  0  0  0  0  0
   26.0478  -23.3768  -18.7726 C   0  0  0  0  0  0  0  0  0  0  0  0
   26.9699  -23.5312  -19.5973 O   0  0  0  0  0  0  0  0  0  0  0  0
   25.4496  -24.3966  -17.9041 C   0  0  0  0  0  0  0  0  0  0  0  0
   24.3880  -23.9854  -16.9629 C   0  0  0  0  0  0  0  0  0  0  0  0
   24.7522  -23.0912  -15.8366 C   0  0  2  0  0  0  0  0  0  0  0  0
   25.7717  -23.8004  -15.0532 N   0  0  0  0  0  0  0  0  0  0  0  0
   23.6806  -22.5151  -15.0319 C   0  0  0  0  0  0  0  0  0  0  0  0
   23.1509  -23.1125  -14.0417 O   0  0  0  0  0  0  0  0  0  0  0  0
   23.1652  -21.2238  -15.3289 N   0  0  0  0  0  0  0  0  0  0  0  0
   22.0531  -20.6216  -14.6264 C   0  0  1  0  0  0  0  0  0  0  0  0
   21.9371  -19.1480  -14.8050 C   0  0  0  0  0  0  0  0  0  0  0  0
   20.8058  -18.5302  -14.1014 C   0  0  0  0  0  0  0  0  0  0  0  0
   19.8587  -19.1260  -13.3232 C   0  0  0  0  0  0  0  0  0  0  0  0
   19.0210  -18.1639  -12.8888 N   0  0  0  0  0  0  0  0  0  0  0  0
   19.4395  -16.9862  -13.3884 C   0  0  0  0  0  0  0  0  0  0  0  0
   20.5310  -17.2168  -14.1289 N   0  0  0  0  0  0  0  0  0  0  0  0
   20.7829  -21.3513  -14.8624 C   0  0  0  0  0  0  0  0  0  0  0  0
   20.3661  -21.4853  -16.0469 O   0  0  0  0  0  0  0  0  0  0  0  0
   19.9985  -21.9130  -13.8405 N   0  0  0  0  0  0  0  0  0  0  0  0
   18.6925  -22.5982  -14.1230 C   0  0  1  0  0  0  0  0  0  0  0  0
   18.5422  -23.7039  -13.1709 C   0  0  0  0  0  0  0  0  0  0  0  0
   19.4771  -24.8124  -13.0411 C   0  0  0  0  0  0  0  0  0  0  0  0
   19.2599  -25.9615  -12.1497 C   0  0  0  0  0  0  0  0  0  0  0  0
   20.4832  -26.9088  -12.3901 C   0  0  0  0  0  0  0  0  0  0  0  0
   20.3603  -28.0106  -11.4776 N   0  0  0  0  0  0  0  0  0  0  0  0
   17.7149  -21.4916  -13.9826 C   0  0  0  0  0  0  0  0  0  0  0  0
   17.8955  -20.6144  -13.0530 O   0  0  0  0  0  0  0  0  0  0  0  0
   16.6015  -21.2693  -14.7486 O   0  0  0  0  0  0  0  0  0  0  0  0
  1  2  1  0
  2  3  2  0
  4  5  1  0
  4  2  1  0
  5  6  1  0
  6  7  1  1
  8 10  1  0
  8  6  1  0
  9  8  2  0
 11 10  1  0
 12 13  1  0
 11 12  1  6
 13 17  1  0
 14 15  1  0
 14 13  2  0
 15 16  1  0
 16 17  2  0
 18 11  1  0
 18 19  2  0
 20 18  1  0
 21 20  1  0
 21 27  1  0
 21 22  1  1
 23 22  1  0
 24 23  1  0
 25 24  1  0
 26 25  1  0
 27 28  2  0
 27 29  1  0
M  END
$$$$
