QHK.pdb
     RDKit          3D

 29 29  0  0  1  0  0  0  0  0999 V2000
   12.5051  -14.7743    9.3347 N   0  0  0  0  0  0  0  0  0  0  0  0
   12.3698  -14.0657    8.0807 C   0  0  0  0  0  0  0  0  0  0  0  0
   11.5345  -14.5653    7.3016 O   0  0  0  0  0  0  0  0  0  0  0  0
   13.1978  -12.8759    7.8552 C   0  0  0  0  0  0  0  0  0  0  0  0
   14.0856  -12.4191    8.9439 C   0  0  0  0  0  0  0  0  0  0  0  0
   15.3735  -11.7783    8.5810 C   0  0  2  0  0  0  0  0  0  0  0  0
   15.1030  -10.9285    7.4145 N   0  0  0  0  0  0  0  0  0  0  0  0
   16.5542  -12.6229    8.4384 C   0  0  0  0  0  0  0  0  0  0  0  0
   16.5416  -13.7483    7.8458 O   0  0  0  0  0  0  0  0  0  0  0  0
   17.8068  -12.2137    8.9724 N   0  0  0  0  0  0  0  0  0  0  0  0
   19.0250  -12.9831    8.8430 C   0  0  1  0  0  0  0  0  0  0  0  0
   20.1518  -12.2493    8.2038 C   0  0  0  0  0  0  0  0  0  0  0  0
   19.9777  -11.9823    6.7703 C   0  0  0  0  0  0  0  0  0  0  0  0
   18.9351  -12.3224    5.9609 C   0  0  0  0  0  0  0  0  0  0  0  0
   19.2133  -11.8696    4.7225 N   0  0  0  0  0  0  0  0  0  0  0  0
   20.4110  -11.2566    4.7591 C   0  0  0  0  0  0  0  0  0  0  0  0
   20.8733  -11.3289    6.0137 N   0  0  0  0  0  0  0  0  0  0  0  0
   19.3972  -13.6565   10.1118 C   0  0  0  0  0  0  0  0  0  0  0  0
   19.3717  -12.9932   11.1860 O   0  0  0  0  0  0  0  0  0  0  0  0
   19.7828  -15.0050   10.2012 N   0  0  0  0  0  0  0  0  0  0  0  0
   20.1268  -15.6507   11.5126 C   0  0  1  0  0  0  0  0  0  0  0  0
   19.7818  -17.0736   11.4248 C   0  0  0  0  0  0  0  0  0  0  0  0
   19.8922  -18.0179   12.5275 C   0  0  0  0  0  0  0  0  0  0  0  0
   19.5924  -19.4522   12.4052 C   0  0  0  0  0  0  0  0  0  0  0  0
   19.8516  -20.0519   13.8281 C   0  0  0  0  0  0  0  0  0  0  0  0
   19.5872  -21.4614   13.7560 N   0  0  0  0  0  0  0  0  0  0  0  0
   21.5722  -15.3468   11.6483 C   0  0  0  0  0  0  0  0  0  0  0  0
   22.2880  -15.2323   10.5801 O   0  0  0  0  0  0  0  0  0  0  0  0
   22.2726  -15.1590   12.8101 O   0  0  0  0  0  0  0  0  0  0  0  0
  1  2  1  0
  2  3  2  0
  4  5  1  0
  4  2  1  0
  5  6  1  0
  6  7  1  6
  8 10  1  0
  8  6  1  0
  9  8  2  0
 11 10  1  0
 12 13  1  0
 11 12  1  1
 13 17  1  0
 14 15  1  0
 14 13  2  0
 15 16  1  0
 16 17  2  0
 18 11  1  0
 18 19  2  0
 20 18  1  0
 21 20  1  0
 21 27  1  0
 21 22  1  6
 23 22  1  0
 24 23  1  0
 25 24  1  0
 26 25  1  0
 27 28  2  0
 27 29  1  0
M  END
$$$$
