QHK.pdb
     RDKit          3D

 29 29  0  0  1  0  0  0  0  0999 V2000
   26.4576  -19.6528  -21.4696 N   0  0  0  0  0  0  0  0  0  0  0  0
   25.7803  -20.0251  -22.6925 C   0  0  0  0  0  0  0  0  0  0  0  0
   26.0226  -19.2737  -23.6574 O   0  0  0  0  0  0  0  0  0  0  0  0
   24.9062  -21.2032  -22.6786 C   0  0  0  0  0  0  0  0  0  0  0  0
   24.8086  -21.9932  -21.4342 C   0  0  0  0  0  0  0  0  0  0  0  0
   23.4721  -22.1713  -20.8155 C   0  0  2  0  0  0  0  0  0  0  0  0
   22.5044  -22.2202  -21.9188 N   0  0  0  0  0  0  0  0  0  0  0  0
   23.0858  -21.2806  -19.7269 C   0  0  0  0  0  0  0  0  0  0  0  0
   23.7408  -21.1777  -18.6415 O   0  0  0  0  0  0  0  0  0  0  0  0
   21.9255  -20.4659  -19.8341 N   0  0  0  0  0  0  0  0  0  0  0  0
   21.4316  -19.6266  -18.7643 C   0  0  1  0  0  0  0  0  0  0  0  0
   21.3180  -18.1843  -19.1155 C   0  0  0  0  0  0  0  0  0  0  0  0
   22.5747  -17.4293  -19.0296 C   0  0  0  0  0  0  0  0  0  0  0  0
   23.8129  -17.8739  -18.6732 C   0  0  0  0  0  0  0  0  0  0  0  0
   24.6584  -16.8266  -18.7381 N   0  0  0  0  0  0  0  0  0  0  0  0
   23.9583  -15.7456  -19.1291 C   0  0  0  0  0  0  0  0  0  0  0  0
   22.6850  -16.1205  -19.3056 N   0  0  0  0  0  0  0  0  0  0  0  0
   20.2080  -20.1844  -18.1371 C   0  0  0  0  0  0  0  0  0  0  0  0
   19.3055  -20.6642  -18.8786 O   0  0  0  0  0  0  0  0  0  0  0  0
   19.9808  -20.2156  -16.7505 N   0  0  0  0  0  0  0  0  0  0  0  0
   18.7492  -20.8376  -16.1580 C   0  0  1  0  0  0  0  0  0  0  0  0
   19.1720  -21.8190  -15.1533 C   0  0  0  0  0  0  0  0  0  0  0  0
   18.2789  -22.7624  -14.4959 C   0  0  0  0  0  0  0  0  0  0  0  0
   18.7452  -23.8842  -13.6674 C   0  0  0  0  0  0  0  0  0  0  0  0
   17.4485  -24.6525  -13.2434 C   0  0  0  0  0  0  0  0  0  0  0  0
   17.8596  -25.8629  -12.5894 N   0  0  0  0  0  0  0  0  0  0  0  0
   18.0158  -19.6586  -15.6363 C   0  0  0  0  0  0  0  0  0  0  0  0
   18.6877  -18.6203  -15.2663 O   0  0  0  0  0  0  0  0  0  0  0  0
   16.6602  -19.5231  -15.4962 O   0  0  0  0  0  0  0  0  0  0  0  0
  1  2  1  0
  2  3  2  0
  4  5  1  0
  4  2  1  0
  5  6  1  0
  6  7  1  6
  8 10  1  0
  8  6  1  0
  9  8  2  0
 11 10  1  0
 12 13  1  0
 11 12  1  6
 13 17  1  0
 14 15  1  0
 14 13  2  0
 15 16  1  0
 16 17  2  0
 18 11  1  0
 18 19  2  0
 20 18  1  0
 21 20  1  0
 21 27  1  0
 21 22  1  1
 23 22  1  0
 24 23  1  0
 25 24  1  0
 26 25  1  0
 27 28  2  0
 27 29  1  0
M  END
$$$$
