QHK.pdb
     RDKit          3D

 29 29  0  0  1  0  0  0  0  0999 V2000
   10.1953  -20.6860    0.5301 N   0  0  0  0  0  0  0  0  0  0  0  0
   11.0817  -21.7682    0.1612 C   0  0  0  0  0  0  0  0  0  0  0  0
   10.5669  -22.6106   -0.6002 O   0  0  0  0  0  0  0  0  0  0  0  0
   12.4463  -21.7708    0.6997 C   0  0  0  0  0  0  0  0  0  0  0  0
   12.8274  -20.7131    1.6578 C   0  0  0  0  0  0  0  0  0  0  0  0
   14.2311  -20.6674    2.1357 C   0  0  2  0  0  0  0  0  0  0  0  0
   15.0636  -20.3853    0.9595 N   0  0  0  0  0  0  0  0  0  0  0  0
   14.7213  -21.7672    2.9591 C   0  0  0  0  0  0  0  0  0  0  0  0
   14.0884  -22.2253    3.9628 O   0  0  0  0  0  0  0  0  0  0  0  0
   15.9647  -22.3922    2.6681 N   0  0  0  0  0  0  0  0  0  0  0  0
   16.4710  -23.5444    3.3814 C   0  0  1  0  0  0  0  0  0  0  0  0
   17.2307  -24.5067    2.5368 C   0  0  0  0  0  0  0  0  0  0  0  0
   16.3982  -25.4336    1.7594 C   0  0  0  0  0  0  0  0  0  0  0  0
   15.0462  -25.6019    1.7988 C   0  0  0  0  0  0  0  0  0  0  0  0
   14.7272  -26.5640    0.9108 N   0  0  0  0  0  0  0  0  0  0  0  0
   15.8628  -26.9892    0.3267 C   0  0  0  0  0  0  0  0  0  0  0  0
   16.8809  -26.2944    0.8498 N   0  0  0  0  0  0  0  0  0  0  0  0
   17.1766  -23.1622    4.6295 C   0  0  0  0  0  0  0  0  0  0  0  0
   17.7842  -22.0561    4.6739 O   0  0  0  0  0  0  0  0  0  0  0  0
   17.2160  -23.9609    5.7853 N   0  0  0  0  0  0  0  0  0  0  0  0
   17.8266  -23.4765    7.0688 C   0  0  1  0  0  0  0  0  0  0  0  0
   16.7937  -23.5178    8.1094 C   0  0  0  0  0  0  0  0  0  0  0  0
   17.0012  -23.1143    9.4929 C   0  0  0  0  0  0  0  0  0  0  0  0
   15.9628  -23.1979   10.5306 C   0  0  0  0  0  0  0  0  0  0  0  0
   16.6175  -22.5986   11.8205 C   0  0  0  0  0  0  0  0  0  0  0  0
   15.5959  -22.5233   12.8266 N   0  0  0  0  0  0  0  0  0  0  0  0
   18.9633  -24.4112    7.2539 C   0  0  0  0  0  0  0  0  0  0  0  0
   18.9328  -25.5555    6.6573 O   0  0  0  0  0  0  0  0  0  0  0  0
   20.0906  -24.2046    8.0038 O   0  0  0  0  0  0  0  0  0  0  0  0
  1  2  1  0
  2  3  2  0
  4  5  1  0
  4  2  1  0
  5  6  1  0
  6  7  1  6
  8 10  1  0
  8  6  1  0
  9  8  2  0
 11 10  1  0
 12 13  1  0
 11 12  1  6
 13 17  1  0
 14 15  1  0
 14 13  2  0
 15 16  1  0
 16 17  2  0
 18 11  1  0
 18 19  2  0
 20 18  1  0
 21 20  1  0
 21 27  1  0
 21 22  1  1
 23 22  1  0
 24 23  1  0
 25 24  1  0
 26 25  1  0
 27 28  2  0
 27 29  1  0
M  END
$$$$
