QHK.pdb
     RDKit          3D

 29 29  0  0  1  0  0  0  0  0999 V2000
   24.2958  -20.9950  -19.7399 N   0  0  0  0  0  0  0  0  0  0  0  0
   25.3986  -21.3820  -20.5925 C   0  0  0  0  0  0  0  0  0  0  0  0
   25.2358  -21.0977  -21.7954 O   0  0  0  0  0  0  0  0  0  0  0  0
   26.5553  -22.0476  -19.9832 C   0  0  0  0  0  0  0  0  0  0  0  0
   26.5510  -22.2707  -18.5230 C   0  0  0  0  0  0  0  0  0  0  0  0
   26.8502  -21.1217  -17.6336 C   0  0  2  0  0  0  0  0  0  0  0  0
   28.1296  -20.5632  -18.0888 N   0  0  0  0  0  0  0  0  0  0  0  0
   26.7697  -21.3202  -16.1907 C   0  0  0  0  0  0  0  0  0  0  0  0
   25.8892  -22.0493  -15.6331 O   0  0  0  0  0  0  0  0  0  0  0  0
   27.6981  -20.6877  -15.3192 N   0  0  0  0  0  0  0  0  0  0  0  0
   27.6826  -20.8411  -13.8808 C   0  0  1  0  0  0  0  0  0  0  0  0
   28.8923  -20.3131  -13.1920 C   0  0  0  0  0  0  0  0  0  0  0  0
   28.9193  -20.5335  -11.7404 C   0  0  0  0  0  0  0  0  0  0  0  0
   29.5316  -21.5306  -11.0414 C   0  0  0  0  0  0  0  0  0  0  0  0
   29.2835  -21.3255   -9.7328 N   0  0  0  0  0  0  0  0  0  0  0  0
   28.5282  -20.2174   -9.6176 C   0  0  0  0  0  0  0  0  0  0  0  0
   28.3088  -19.7379  -10.8484 N   0  0  0  0  0  0  0  0  0  0  0  0
   26.4068  -20.3748  -13.2836 C   0  0  0  0  0  0  0  0  0  0  0  0
   25.9457  -19.2507  -13.6279 O   0  0  0  0  0  0  0  0  0  0  0  0
   25.6639  -21.1110  -12.3449 N   0  0  0  0  0  0  0  0  0  0  0  0
   24.3759  -20.5979  -11.7680 C   0  0  1  0  0  0  0  0  0  0  0  0
   23.2753  -21.3775  -12.3445 C   0  0  0  0  0  0  0  0  0  0  0  0
   21.8765  -21.2315  -11.9682 C   0  0  0  0  0  0  0  0  0  0  0  0
   20.7799  -21.9791  -12.6013 C   0  0  0  0  0  0  0  0  0  0  0  0
   19.4761  -21.4827  -11.8904 C   0  0  0  0  0  0  0  0  0  0  0  0
   18.3652  -22.1359  -12.5237 N   0  0  0  0  0  0  0  0  0  0  0  0
   24.5893  -20.7679  -10.3101 C   0  0  0  0  0  0  0  0  0  0  0  0
   25.1140  -21.8665   -9.8808 O   0  0  0  0  0  0  0  0  0  0  0  0
   24.2935  -19.8688   -9.3203 O   0  0  0  0  0  0  0  0  0  0  0  0
  1  2  1  0
  2  3  2  0
  4  5  1  0
  4  2  1  0
  5  6  1  0
  6  7  1  1
  8 10  1  0
  8  6  1  0
  9  8  2  0
 11 10  1  0
 12 13  1  0
 11 12  1  1
 13 17  1  0
 14 15  1  0
 14 13  2  0
 15 16  1  0
 16 17  2  0
 18 11  1  0
 18 19  2  0
 20 18  1  0
 21 20  1  0
 21 27  1  0
 21 22  1  6
 23 22  1  0
 24 23  1  0
 25 24  1  0
 26 25  1  0
 27 28  2  0
 27 29  1  0
M  END
$$$$
