FMR.pdb
     RDKit          3D

 31 31  0  0  1  0  0  0  0  0999 V2000
   25.6250  -17.8136  -21.2428 N   0  0  0  0  0  0  0  0  0  0  0  0
   24.7057  -18.6816  -20.5339 C   0  0  1  0  0  0  0  0  0  0  0  0
   25.3445  -19.9942  -20.1492 C   0  0  0  0  0  0  0  0  0  0  0  0
   25.6441  -20.8363  -21.3309 C   0  0  0  0  0  0  0  0  0  0  0  0
   24.5961  -21.5290  -21.8984 C   0  0  0  0  0  0  0  0  0  0  0  0
   24.7787  -22.3287  -22.9882 C   0  0  0  0  0  0  0  0  0  0  0  0
   26.0402  -22.4491  -23.5376 C   0  0  0  0  0  0  0  0  0  0  0  0
   27.0791  -21.7595  -22.9713 C   0  0  0  0  0  0  0  0  0  0  0  0
   26.9047  -20.9519  -21.8739 C   0  0  0  0  0  0  0  0  0  0  0  0
   24.1935  -18.0676  -19.2958 C   0  0  0  0  0  0  0  0  0  0  0  0
   24.9389  -17.3139  -18.6430 O   0  0  0  0  0  0  0  0  0  0  0  0
   18.8818  -14.4475  -17.5793 C   0  0  0  0  0  0  0  0  0  0  0  0
   19.6403  -14.8905  -19.1565 S   0  0  0  0  0  0  0  0  0  0  0  0
   21.2605  -15.6531  -18.8563 C   0  0  0  0  0  0  0  0  0  0  0  0
   21.0628  -16.9383  -18.1229 C   0  0  0  0  0  0  0  0  0  0  0  0
   22.3800  -17.5443  -17.7221 C   0  0  2  0  0  0  0  0  0  0  0  0
   22.8992  -18.3205  -18.8562 N   0  0  0  0  0  0  0  0  0  0  0  0
   22.1455  -18.5476  -16.6542 C   0  0  0  0  0  0  0  0  0  0  0  0
   21.5090  -19.5988  -16.9638 O   0  0  0  0  0  0  0  0  0  0  0  0
   24.4273  -21.1016   -9.4480 N   0  0  0  0  0  0  0  0  0  0  0  0
   23.0527  -21.3979   -9.3630 C   0  0  0  0  0  0  0  0  0  0  0  0
   22.3938  -21.3677   -8.2473 N   0  0  0  0  0  0  0  0  0  0  0  0
   22.3780  -21.7418  -10.5655 N   0  0  0  0  0  0  0  0  0  0  0  0
   23.0003  -21.2930  -11.8289 C   0  0  0  0  0  0  0  0  0  0  0  0
   22.8051  -19.8326  -11.8964 C   0  0  0  0  0  0  0  0  0  0  0  0
   23.1119  -19.1943  -13.1703 C   0  0  0  0  0  0  0  0  0  0  0  0
   22.2349  -19.4446  -14.3356 C   0  0  2  0  0  0  0  0  0  0  0  0
   22.5949  -18.3893  -15.3465 N   0  0  0  0  0  0  0  0  0  0  0  0
   20.8018  -19.4358  -14.2278 C   0  0  0  0  0  0  0  0  0  0  0  0
   20.1031  -20.4662  -14.1754 O   0  0  0  0  0  0  0  0  0  0  0  0
   20.0921  -18.2303  -14.1728 O   0  0  0  0  0  0  0  0  0  0  0  0
  2  1  1  1
  2  3  1  0
  3  4  1  0
  4  9  2  0
  4  5  1  0
  5  6  2  0
  6  7  1  0
  8  7  2  0
  9  8  1  0
 10  2  1  0
 10 17  1  0
 11 10  2  0
 12 13  1  0
 13 14  1  0
 16 15  1  6
 15 14  1  0
 16 17  1  0
 18 16  1  0
 19 18  2  0
 20 21  1  0
 21 22  2  0
 23 21  1  0
 24 23  1  0
 24 25  1  0
 25 26  1  0
 27 28  1  0
 27 26  1  1
 28 18  1  0
 29 27  1  0
 30 29  2  0
 31 29  1  0
M  END
$$$$
