FMR.pdb
     RDKit          3D

 31 31  0  0  1  0  0  0  0  0999 V2000
   26.4981  -22.2060  -12.7505 N   0  0  0  0  0  0  0  0  0  0  0  0
   25.9631  -21.3681  -11.6955 C   0  0  1  0  0  0  0  0  0  0  0  0
   26.9210  -20.2705  -11.2998 C   0  0  0  0  0  0  0  0  0  0  0  0
   28.2317  -20.8050  -10.8620 C   0  0  0  0  0  0  0  0  0  0  0  0
   29.2388  -20.8638  -11.8015 C   0  0  0  0  0  0  0  0  0  0  0  0
   30.4773  -21.3415  -11.4883 C   0  0  0  0  0  0  0  0  0  0  0  0
   30.7313  -21.7767  -10.2022 C   0  0  0  0  0  0  0  0  0  0  0  0
   29.7286  -21.7169   -9.2713 C   0  0  0  0  0  0  0  0  0  0  0  0
   28.4783  -21.2374   -9.5777 C   0  0  0  0  0  0  0  0  0  0  0  0
   24.6951  -20.7219  -12.0787 C   0  0  0  0  0  0  0  0  0  0  0  0
   24.2016  -19.8654  -11.3218 O   0  0  0  0  0  0  0  0  0  0  0  0
   22.3623  -19.0982  -17.7825 C   0  0  0  0  0  0  0  0  0  0  0  0
   23.7398  -18.3123  -16.9200 S   0  0  0  0  0  0  0  0  0  0  0  0
   23.7061  -18.7856  -15.1674 C   0  0  0  0  0  0  0  0  0  0  0  0
   22.7898  -19.9520  -14.9980 C   0  0  0  0  0  0  0  0  0  0  0  0
   22.7643  -20.4210  -13.5689 C   0  0  2  0  0  0  0  0  0  0  0  0
   24.0530  -21.0574  -13.2651 N   0  0  0  0  0  0  0  0  0  0  0  0
   21.7651  -21.5097  -13.4351 C   0  0  0  0  0  0  0  0  0  0  0  0
   22.0596  -22.6419  -13.9223 O   0  0  0  0  0  0  0  0  0  0  0  0
   17.6885  -24.2704   -6.8117 N   0  0  0  0  0  0  0  0  0  0  0  0
   18.3268  -25.2723   -7.5689 C   0  0  0  0  0  0  0  0  0  0  0  0
   18.7548  -26.3807   -7.0512 N   0  0  0  0  0  0  0  0  0  0  0  0
   18.4980  -25.0372   -8.9599 N   0  0  0  0  0  0  0  0  0  0  0  0
   17.9534  -23.7703   -9.4923 C   0  0  0  0  0  0  0  0  0  0  0  0
   18.3164  -23.7261  -10.9212 C   0  0  0  0  0  0  0  0  0  0  0  0
   19.3043  -22.7274  -11.3099 C   0  0  0  0  0  0  0  0  0  0  0  0
   19.5993  -22.5207  -12.7452 C   0  0  2  0  0  0  0  0  0  0  0  0
   20.5377  -21.3453  -12.7997 N   0  0  0  0  0  0  0  0  0  0  0  0
   18.5636  -22.2623  -13.7074 C   0  0  0  0  0  0  0  0  0  0  0  0
   18.1775  -21.1202  -14.0221 O   0  0  0  0  0  0  0  0  0  0  0  0
   17.9135  -23.3140  -14.3642 O   0  0  0  0  0  0  0  0  0  0  0  0
  2  1  1  6
  2  3  1  0
  3  4  1  0
  4  9  2  0
  4  5  1  0
  5  6  2  0
  6  7  1  0
  8  7  2  0
  9  8  1  0
 10  2  1  0
 10 17  1  0
 11 10  2  0
 12 13  1  0
 13 14  1  0
 16 15  1  6
 15 14  1  0
 16 17  1  0
 18 16  1  0
 19 18  2  0
 20 21  1  0
 21 22  2  0
 23 21  1  0
 24 23  1  0
 24 25  1  0
 25 26  1  0
 27 28  1  0
 27 26  1  1
 28 18  1  0
 29 27  1  0
 30 29  2  0
 31 29  1  0
M  END
$$$$
