FMR.pdb
     RDKit          3D

 31 31  0  0  1  0  0  0  0  0999 V2000
   28.3227  -21.1702  -13.9389 N   0  0  0  0  0  0  0  0  0  0  0  0
   27.7949  -20.1619  -13.0409 C   0  0  1  0  0  0  0  0  0  0  0  0
   26.7900  -19.2641  -13.7212 C   0  0  0  0  0  0  0  0  0  0  0  0
   27.4364  -18.3016  -14.6438 C   0  0  0  0  0  0  0  0  0  0  0  0
   27.5272  -16.9897  -14.2304 C   0  0  0  0  0  0  0  0  0  0  0  0
   28.1058  -16.0349  -15.0140 C   0  0  0  0  0  0  0  0  0  0  0  0
   28.6130  -16.3873  -16.2495 C   0  0  0  0  0  0  0  0  0  0  0  0
   28.5212  -17.6915  -16.6571 C   0  0  0  0  0  0  0  0  0  0  0  0
   27.9402  -18.6596  -15.8747 C   0  0  0  0  0  0  0  0  0  0  0  0
   27.1280  -20.7493  -11.8652 C   0  0  0  0  0  0  0  0  0  0  0  0
   26.4706  -21.7971  -12.0053 O   0  0  0  0  0  0  0  0  0  0  0  0
   28.6159  -19.4063   -5.8985 C   0  0  0  0  0  0  0  0  0  0  0  0
   26.9780  -20.0626   -5.5170 S   0  0  0  0  0  0  0  0  0  0  0  0
   26.1713  -20.6064   -7.0501 C   0  0  0  0  0  0  0  0  0  0  0  0
   27.0174  -20.2033   -8.2121 C   0  0  0  0  0  0  0  0  0  0  0  0
   26.4391  -20.7060   -9.5067 C   0  0  2  0  0  0  0  0  0  0  0  0
   27.2261  -20.1492  -10.6151 N   0  0  0  0  0  0  0  0  0  0  0  0
   25.0812  -20.1345   -9.6838 C   0  0  0  0  0  0  0  0  0  0  0  0
   24.9939  -18.9548  -10.1382 O   0  0  0  0  0  0  0  0  0  0  0  0
   23.8371  -24.4342  -13.7020 N   0  0  0  0  0  0  0  0  0  0  0  0
   22.4834  -24.2736  -14.0574 C   0  0  0  0  0  0  0  0  0  0  0  0
   21.7020  -25.2729  -14.3228 N   0  0  0  0  0  0  0  0  0  0  0  0
   21.9724  -22.9491  -14.1210 N   0  0  0  0  0  0  0  0  0  0  0  0
   22.8421  -21.8748  -13.5971 C   0  0  0  0  0  0  0  0  0  0  0  0
   22.5994  -21.8111  -12.1436 C   0  0  0  0  0  0  0  0  0  0  0  0
   22.8665  -20.5330  -11.4959 C   0  0  0  0  0  0  0  0  0  0  0  0
   22.6332  -20.3955  -10.0410 C   0  0  2  0  0  0  0  0  0  0  0  0
   23.9146  -20.8317   -9.3832 N   0  0  0  0  0  0  0  0  0  0  0  0
   21.5707  -21.0924   -9.3695 C   0  0  0  0  0  0  0  0  0  0  0  0
   20.3607  -20.8785   -9.5760 O   0  0  0  0  0  0  0  0  0  0  0  0
   21.8479  -22.0813   -8.4180 O   0  0  0  0  0  0  0  0  0  0  0  0
  2  1  1  6
  2  3  1  0
  3  4  1  0
  4  9  2  0
  4  5  1  0
  5  6  2  0
  6  7  1  0
  8  7  2  0
  9  8  1  0
 10  2  1  0
 10 17  1  0
 11 10  2  0
 12 13  1  0
 13 14  1  0
 16 15  1  1
 15 14  1  0
 16 17  1  0
 18 16  1  0
 19 18  2  0
 20 21  1  0
 21 22  2  0
 23 21  1  0
 24 23  1  0
 24 25  1  0
 25 26  1  0
 27 28  1  0
 27 26  1  6
 28 18  1  0
 29 27  1  0
 30 29  2  0
 31 29  1  0
M  END
$$$$
