FMR.pdb
     RDKit          3D

 31 31  0  0  1  0  0  0  0  0999 V2000
   28.1472  -21.4852  -14.4248 N   0  0  0  0  0  0  0  0  0  0  0  0
   27.8585  -20.4295  -13.4742 C   0  0  1  0  0  0  0  0  0  0  0  0
   26.9141  -19.3968  -14.0404 C   0  0  0  0  0  0  0  0  0  0  0  0
   27.5859  -18.4969  -15.0069 C   0  0  0  0  0  0  0  0  0  0  0  0
   28.8998  -18.7709  -15.3215 C   0  0  0  0  0  0  0  0  0  0  0  0
   29.5976  -17.9963  -16.2010 C   0  0  0  0  0  0  0  0  0  0  0  0
   28.9768  -16.9127  -16.7911 C   0  0  0  0  0  0  0  0  0  0  0  0
   27.6715  -16.6433  -16.4764 C   0  0  0  0  0  0  0  0  0  0  0  0
   26.9610  -17.4178  -15.5919 C   0  0  0  0  0  0  0  0  0  0  0  0
   27.2507  -20.9409  -12.2328 C   0  0  0  0  0  0  0  0  0  0  0  0
   26.6122  -22.0091  -12.2692 O   0  0  0  0  0  0  0  0  0  0  0  0
   28.2784  -20.6215   -5.2989 C   0  0  0  0  0  0  0  0  0  0  0  0
   27.0267  -19.5233   -5.9963 S   0  0  0  0  0  0  0  0  0  0  0  0
   26.2812  -20.3044   -7.4560 C   0  0  0  0  0  0  0  0  0  0  0  0
   27.1448  -20.0352   -8.6437 C   0  0  0  0  0  0  0  0  0  0  0  0
   26.5873  -20.6854   -9.8804 C   0  0  2  0  0  0  0  0  0  0  0  0
   27.3831  -20.2479  -11.0351 N   0  0  0  0  0  0  0  0  0  0  0  0
   25.2266  -20.1513  -10.1359 C   0  0  0  0  0  0  0  0  0  0  0  0
   25.1332  -19.0549  -10.7645 O   0  0  0  0  0  0  0  0  0  0  0  0
   23.0014  -19.7975  -16.3128 N   0  0  0  0  0  0  0  0  0  0  0  0
   21.6276  -20.0780  -16.1764 C   0  0  0  0  0  0  0  0  0  0  0  0
   20.7294  -19.6064  -16.9830 N   0  0  0  0  0  0  0  0  0  0  0  0
   21.2310  -20.9177  -15.1007 N   0  0  0  0  0  0  0  0  0  0  0  0
   22.3010  -21.3925  -14.1982 C   0  0  0  0  0  0  0  0  0  0  0  0
   22.0480  -20.7703  -12.8850 C   0  0  0  0  0  0  0  0  0  0  0  0
   22.9679  -21.1233  -11.8110 C   0  0  0  0  0  0  0  0  0  0  0  0
   22.7889  -20.5138  -10.4745 C   0  0  2  0  0  0  0  0  0  0  0  0
   24.0638  -20.7977   -9.7267 N   0  0  0  0  0  0  0  0  0  0  0  0
   21.7105  -20.8906   -9.6023 C   0  0  0  0  0  0  0  0  0  0  0  0
   21.8021  -21.7707   -8.7251 O   0  0  0  0  0  0  0  0  0  0  0  0
   20.4600  -20.2677   -9.6943 O   0  0  0  0  0  0  0  0  0  0  0  0
  2  1  1  6
  2  3  1  0
  3  4  1  0
  4  9  2  0
  4  5  1  0
  5  6  2  0
  6  7  1  0
  8  7  2  0
  9  8  1  0
 10  2  1  0
 10 17  1  0
 11 10  2  0
 12 13  1  0
 13 14  1  0
 16 15  1  1
 15 14  1  0
 16 17  1  0
 18 16  1  0
 19 18  2  0
 20 21  1  0
 21 22  2  0
 23 21  1  0
 24 23  1  0
 24 25  1  0
 25 26  1  0
 27 28  1  0
 27 26  1  6
 28 18  1  0
 29 27  1  0
 30 29  2  0
 31 29  1  0
M  END
$$$$
