FMR.pdb
     RDKit          3D

 31 31  0  0  1  0  0  0  0  0999 V2000
   25.5175  -20.9580  -10.2411 N   0  0  0  0  0  0  0  0  0  0  0  0
   25.5232  -20.6116  -11.6486 C   0  0  1  0  0  0  0  0  0  0  0  0
   26.4791  -21.4693  -12.4419 C   0  0  0  0  0  0  0  0  0  0  0  0
   27.8867  -21.2674  -12.0255 C   0  0  0  0  0  0  0  0  0  0  0  0
   28.6105  -20.2972  -12.6852 C   0  0  0  0  0  0  0  0  0  0  0  0
   29.9127  -20.0424  -12.3691 C   0  0  0  0  0  0  0  0  0  0  0  0
   30.5223  -20.7708  -11.3663 C   0  0  0  0  0  0  0  0  0  0  0  0
   29.8004  -21.7339  -10.7130 C   0  0  0  0  0  0  0  0  0  0  0  0
   28.4887  -21.9974  -11.0246 C   0  0  0  0  0  0  0  0  0  0  0  0
   24.1937  -20.7542  -12.2685 C   0  0  0  0  0  0  0  0  0  0  0  0
   23.3132  -21.3965  -11.6667 O   0  0  0  0  0  0  0  0  0  0  0  0
   22.8932  -16.0095  -15.9721 C   0  0  0  0  0  0  0  0  0  0  0  0
   21.1830  -16.5771  -15.8624 S   0  0  0  0  0  0  0  0  0  0  0  0
   21.1240  -18.1508  -14.9587 C   0  0  0  0  0  0  0  0  0  0  0  0
   22.5083  -18.5212  -14.5399 C   0  0  0  0  0  0  0  0  0  0  0  0
   22.5251  -19.8460  -13.8274 C   0  0  2  0  0  0  0  0  0  0  0  0
   23.9182  -20.1837  -13.5058 N   0  0  0  0  0  0  0  0  0  0  0  0
   22.0874  -20.9066  -14.7684 C   0  0  0  0  0  0  0  0  0  0  0  0
   21.8582  -20.5704  -15.9686 O   0  0  0  0  0  0  0  0  0  0  0  0
   18.8013  -25.1963   -8.6848 N   0  0  0  0  0  0  0  0  0  0  0  0
   17.9682  -24.0689   -8.8241 C   0  0  0  0  0  0  0  0  0  0  0  0
   17.0677  -23.7467   -7.9494 N   0  0  0  0  0  0  0  0  0  0  0  0
   18.1400  -23.2625   -9.9815 N   0  0  0  0  0  0  0  0  0  0  0  0
   18.9608  -23.8304  -11.0718 C   0  0  0  0  0  0  0  0  0  0  0  0
   18.9635  -22.8321  -12.1576 C   0  0  0  0  0  0  0  0  0  0  0  0
   20.2639  -22.4827  -12.7155 C   0  0  0  0  0  0  0  0  0  0  0  0
   20.5325  -22.7462  -14.1467 C   0  0  2  0  0  0  0  0  0  0  0  0
   21.9270  -22.2382  -14.3965 N   0  0  0  0  0  0  0  0  0  0  0  0
   19.7065  -22.2040  -15.1904 C   0  0  0  0  0  0  0  0  0  0  0  0
   19.3484  -21.0117  -15.2437 O   0  0  0  0  0  0  0  0  0  0  0  0
   19.2466  -23.0125  -16.2368 O   0  0  0  0  0  0  0  0  0  0  0  0
  2  1  1  1
  2  3  1  0
  3  4  1  0
  4  9  2  0
  4  5  1  0
  5  6  2  0
  6  7  1  0
  8  7  2  0
  9  8  1  0
 10  2  1  0
 10 17  1  0
 11 10  2  0
 12 13  1  0
 13 14  1  0
 16 15  1  6
 15 14  1  0
 16 17  1  0
 18 16  1  0
 19 18  2  0
 20 21  1  0
 21 22  2  0
 23 21  1  0
 24 23  1  0
 24 25  1  0
 25 26  1  0
 27 28  1  0
 27 26  1  1
 28 18  1  0
 29 27  1  0
 30 29  2  0
 31 29  1  0
M  END
$$$$
