FMR.pdb
     RDKit          3D

 31 31  0  0  1  0  0  0  0  0999 V2000
   28.6854  -19.7401  -15.0933 N   0  0  0  0  0  0  0  0  0  0  0  0
   27.5976  -19.1904  -14.3085 C   0  0  1  0  0  0  0  0  0  0  0  0
   26.6804  -18.3232  -15.1363 C   0  0  0  0  0  0  0  0  0  0  0  0
   27.3529  -17.0894  -15.6062 C   0  0  0  0  0  0  0  0  0  0  0  0
   27.7890  -17.0630  -16.9137 C   0  0  0  0  0  0  0  0  0  0  0  0
   28.4185  -15.9697  -17.4321 C   0  0  0  0  0  0  0  0  0  0  0  0
   28.6251  -14.8630  -16.6320 C   0  0  0  0  0  0  0  0  0  0  0  0
   28.1906  -14.8925  -15.3335 C   0  0  0  0  0  0  0  0  0  0  0  0
   27.5558  -15.9890  -14.8029 C   0  0  0  0  0  0  0  0  0  0  0  0
   26.7652  -20.2374  -13.6896 C   0  0  0  0  0  0  0  0  0  0  0  0
   26.6830  -21.3490  -14.2441 O   0  0  0  0  0  0  0  0  0  0  0  0
   25.7057  -19.7200   -7.5747 C   0  0  0  0  0  0  0  0  0  0  0  0
   26.6066  -21.2261   -7.9978 S   0  0  0  0  0  0  0  0  0  0  0  0
   26.6694  -21.4072   -9.8034 C   0  0  0  0  0  0  0  0  0  0  0  0
   25.3854  -20.9152  -10.3847 C   0  0  0  0  0  0  0  0  0  0  0  0
   25.3539  -21.1085  -11.8762 C   0  0  2  0  0  0  0  0  0  0  0  0
   26.0790  -19.9964  -12.5049 N   0  0  0  0  0  0  0  0  0  0  0  0
   23.9560  -20.9649  -12.3528 C   0  0  0  0  0  0  0  0  0  0  0  0
   23.4513  -19.8024  -12.3542 O   0  0  0  0  0  0  0  0  0  0  0  0
   24.6759  -24.3440  -17.0038 N   0  0  0  0  0  0  0  0  0  0  0  0
   24.0792  -25.3681  -16.2423 C   0  0  0  0  0  0  0  0  0  0  0  0
   24.7410  -26.3877  -15.7928 N   0  0  0  0  0  0  0  0  0  0  0  0
   22.6896  -25.2582  -15.9658 N   0  0  0  0  0  0  0  0  0  0  0  0
   22.0140  -24.0288  -16.4318 C   0  0  0  0  0  0  0  0  0  0  0  0
   22.3762  -22.9644  -15.4772 C   0  0  0  0  0  0  0  0  0  0  0  0
   21.5250  -22.8286  -14.3019 C   0  0  0  0  0  0  0  0  0  0  0  0
   21.8060  -21.7539  -13.3243 C   0  0  2  0  0  0  0  0  0  0  0  0
   23.1880  -22.0363  -12.7993 N   0  0  0  0  0  0  0  0  0  0  0  0
   20.9705  -21.5287  -12.1767 C   0  0  0  0  0  0  0  0  0  0  0  0
   21.2457  -21.9271  -11.0287 O   0  0  0  0  0  0  0  0  0  0  0  0
   19.7650  -20.8261  -12.2916 O   0  0  0  0  0  0  0  0  0  0  0  0
  2  1  1  6
  2  3  1  0
  3  4  1  0
  4  9  2  0
  4  5  1  0
  5  6  2  0
  6  7  1  0
  8  7  2  0
  9  8  1  0
 10  2  1  0
 10 17  1  0
 11 10  2  0
 12 13  1  0
 13 14  1  0
 16 15  1  1
 15 14  1  0
 16 17  1  0
 18 16  1  0
 19 18  2  0
 20 21  1  0
 21 22  2  0
 23 21  1  0
 24 23  1  0
 24 25  1  0
 25 26  1  0
 27 28  1  0
 27 26  1  1
 28 18  1  0
 29 27  1  0
 30 29  2  0
 31 29  1  0
M  END
$$$$
