FMR.pdb
     RDKit          3D

 31 31  0  0  1  0  0  0  0  0999 V2000
   28.6942  -20.7144  -14.8868 N   0  0  0  0  0  0  0  0  0  0  0  0
   27.9765  -19.8231  -13.9970 C   0  0  1  0  0  0  0  0  0  0  0  0
   26.9980  -18.9450  -14.7388 C   0  0  0  0  0  0  0  0  0  0  0  0
   27.6727  -17.8310  -15.4453 C   0  0  0  0  0  0  0  0  0  0  0  0
   27.7540  -16.6209  -14.7901 C   0  0  0  0  0  0  0  0  0  0  0  0
   28.3570  -15.5402  -15.3636 C   0  0  0  0  0  0  0  0  0  0  0  0
   28.8990  -15.6576  -16.6286 C   0  0  0  0  0  0  0  0  0  0  0  0
   28.8164  -16.8613  -17.2767 C   0  0  0  0  0  0  0  0  0  0  0  0
   28.2112  -17.9549  -16.7070 C   0  0  0  0  0  0  0  0  0  0  0  0
   27.2139  -20.5506  -12.9668 C   0  0  0  0  0  0  0  0  0  0  0  0
   26.6799  -21.6350  -13.2648 O   0  0  0  0  0  0  0  0  0  0  0  0
   28.0067  -20.2107   -6.5499 C   0  0  0  0  0  0  0  0  0  0  0  0
   26.2082  -20.3216   -6.6603 S   0  0  0  0  0  0  0  0  0  0  0  0
   25.7393  -20.9449   -8.3000 C   0  0  0  0  0  0  0  0  0  0  0  0
   26.5411  -20.2307   -9.3372 C   0  0  0  0  0  0  0  0  0  0  0  0
   26.2680  -20.7810  -10.7104 C   0  0  2  0  0  0  0  0  0  0  0  0
   27.0877  -20.0414  -11.6795 N   0  0  0  0  0  0  0  0  0  0  0  0
   24.8666  -20.4696  -11.0861 C   0  0  0  0  0  0  0  0  0  0  0  0
   24.6426  -19.3592  -11.6543 O   0  0  0  0  0  0  0  0  0  0  0  0
   19.1057  -24.9687  -14.0923 N   0  0  0  0  0  0  0  0  0  0  0  0
   18.6180  -23.8097  -14.7275 C   0  0  0  0  0  0  0  0  0  0  0  0
   17.3860  -23.6817  -15.1091 N   0  0  0  0  0  0  0  0  0  0  0  0
   19.5337  -22.7459  -14.9491 N   0  0  0  0  0  0  0  0  0  0  0  0
   20.8915  -22.9094  -14.3881 C   0  0  0  0  0  0  0  0  0  0  0  0
   21.0179  -21.9195  -13.3020 C   0  0  0  0  0  0  0  0  0  0  0  0
   22.3041  -21.8656  -12.6186 C   0  0  0  0  0  0  0  0  0  0  0  0
   22.4594  -20.9910  -11.4351 C   0  0  2  0  0  0  0  0  0  0  0  0
   23.8030  -21.3360  -10.8512 N   0  0  0  0  0  0  0  0  0  0  0  0
   21.5228  -21.0088  -10.3451 C   0  0  0  0  0  0  0  0  0  0  0  0
   21.7506  -21.5430   -9.2427 O   0  0  0  0  0  0  0  0  0  0  0  0
   20.2650  -20.4064  -10.4678 O   0  0  0  0  0  0  0  0  0  0  0  0
  2  1  1  6
  2  3  1  0
  3  4  1  0
  4  9  2  0
  4  5  1  0
  5  6  2  0
  6  7  1  0
  8  7  2  0
  9  8  1  0
 10  2  1  0
 10 17  1  0
 11 10  2  0
 12 13  1  0
 13 14  1  0
 16 15  1  1
 15 14  1  0
 16 17  1  0
 18 16  1  0
 19 18  2  0
 20 21  1  0
 21 22  2  0
 23 21  1  0
 24 23  1  0
 24 25  1  0
 25 26  1  0
 27 28  1  0
 27 26  1  6
 28 18  1  0
 29 27  1  0
 30 29  2  0
 31 29  1  0
M  END
$$$$
