FMR.pdb
     RDKit          3D

 31 31  0  0  1  0  0  0  0  0999 V2000
   28.4080  -20.9480  -15.1640 N   0  0  0  0  0  0  0  0  0  0  0  0
   27.4655  -20.0514  -14.5242 C   0  0  1  0  0  0  0  0  0  0  0  0
   26.6782  -19.2435  -15.5273 C   0  0  0  0  0  0  0  0  0  0  0  0
   27.3757  -17.9925  -15.9067 C   0  0  0  0  0  0  0  0  0  0  0  0
   27.1757  -16.8872  -15.1077 C   0  0  0  0  0  0  0  0  0  0  0  0
   27.7767  -15.6935  -15.3806 C   0  0  0  0  0  0  0  0  0  0  0  0
   28.6046  -15.5868  -16.4811 C   0  0  0  0  0  0  0  0  0  0  0  0
   28.8011  -16.6869  -17.2727 C   0  0  0  0  0  0  0  0  0  0  0  0
   28.2001  -17.8929  -17.0057 C   0  0  0  0  0  0  0  0  0  0  0  0
   26.4913  -20.7674  -13.6814 C   0  0  0  0  0  0  0  0  0  0  0  0
   26.2850  -21.9768  -13.8922 O   0  0  0  0  0  0  0  0  0  0  0  0
   25.6723  -19.6749   -7.3358 C   0  0  0  0  0  0  0  0  0  0  0  0
   27.0609  -20.5082   -8.1336 S   0  0  0  0  0  0  0  0  0  0  0  0
   26.4966  -21.2856   -9.6743 C   0  0  0  0  0  0  0  0  0  0  0  0
   25.4515  -20.4214  -10.2986 C   0  0  0  0  0  0  0  0  0  0  0  0
   25.0853  -20.9158  -11.6713 C   0  0  2  0  0  0  0  0  0  0  0  0
   25.8086  -20.1102  -12.6642 N   0  0  0  0  0  0  0  0  0  0  0  0
   23.6517  -20.6266  -11.9228 C   0  0  0  0  0  0  0  0  0  0  0  0
   23.3697  -19.5892  -12.5939 O   0  0  0  0  0  0  0  0  0  0  0  0
   18.8711  -24.6373   -8.7067 N   0  0  0  0  0  0  0  0  0  0  0  0
   18.9290  -25.2948   -9.9513 C   0  0  0  0  0  0  0  0  0  0  0  0
   18.7146  -26.5658  -10.0865 N   0  0  0  0  0  0  0  0  0  0  0  0
   19.2370  -24.5111  -11.0960 N   0  0  0  0  0  0  0  0  0  0  0  0
   18.2280  -23.5134  -11.5100 C   0  0  0  0  0  0  0  0  0  0  0  0
   18.9639  -22.2680  -11.7977 C   0  0  0  0  0  0  0  0  0  0  0  0
   20.3974  -22.2849  -11.5347 C   0  0  0  0  0  0  0  0  0  0  0  0
   21.2088  -21.0926  -11.8661 C   0  0  2  0  0  0  0  0  0  0  0  0
   22.6178  -21.4386  -11.4659 N   0  0  0  0  0  0  0  0  0  0  0  0
   20.9297  -19.7996  -11.3041 C   0  0  0  0  0  0  0  0  0  0  0  0
   21.3391  -19.4243  -10.1888 O   0  0  0  0  0  0  0  0  0  0  0  0
   20.1592  -18.8627  -12.0032 O   0  0  0  0  0  0  0  0  0  0  0  0
  2  1  1  6
  2  3  1  0
  3  4  1  0
  4  9  2  0
  4  5  1  0
  5  6  2  0
  6  7  1  0
  8  7  2  0
  9  8  1  0
 10  2  1  0
 10 17  1  0
 11 10  2  0
 12 13  1  0
 13 14  1  0
 16 15  1  1
 15 14  1  0
 16 17  1  0
 18 16  1  0
 19 18  2  0
 20 21  1  0
 21 22  2  0
 23 21  1  0
 24 23  1  0
 24 25  1  0
 25 26  1  0
 27 28  1  0
 27 26  1  1
 28 18  1  0
 29 27  1  0
 30 29  2  0
 31 29  1  0
M  END
$$$$
