FMR.pdb
     RDKit          3D

 31 31  0  0  1  0  0  0  0  0999 V2000
   28.7737  -20.8920  -14.9801 N   0  0  0  0  0  0  0  0  0  0  0  0
   27.8906  -20.0095  -14.2435 C   0  0  1  0  0  0  0  0  0  0  0  0
   26.9563  -19.2499  -15.1539 C   0  0  0  0  0  0  0  0  0  0  0  0
   27.6744  -18.2587  -15.9889 C   0  0  0  0  0  0  0  0  0  0  0  0
   28.0403  -18.6462  -17.2602 C   0  0  0  0  0  0  0  0  0  0  0  0
   28.7046  -17.8001  -18.0987 C   0  0  0  0  0  0  0  0  0  0  0  0
   29.0192  -16.5261  -17.6674 C   0  0  0  0  0  0  0  0  0  0  0  0
   28.6542  -16.1444  -16.4038 C   0  0  0  0  0  0  0  0  0  0  0  0
   27.9851  -16.9897  -15.5526 C   0  0  0  0  0  0  0  0  0  0  0  0
   27.0552  -20.7344  -13.2694 C   0  0  0  0  0  0  0  0  0  0  0  0
   26.7490  -21.9187  -13.5005 O   0  0  0  0  0  0  0  0  0  0  0  0
   28.5882  -20.0062   -6.6417 C   0  0  0  0  0  0  0  0  0  0  0  0
   27.0477  -19.6618   -7.5177 S   0  0  0  0  0  0  0  0  0  0  0  0
   27.0761  -20.4813   -9.1378 C   0  0  0  0  0  0  0  0  0  0  0  0
   25.7884  -20.2076   -9.8418 C   0  0  0  0  0  0  0  0  0  0  0  0
   25.7530  -20.8740  -11.1900 C   0  0  2  0  0  0  0  0  0  0  0  0
   26.6113  -20.1130  -12.1078 N   0  0  0  0  0  0  0  0  0  0  0  0
   24.3876  -20.7459  -11.7568 C   0  0  0  0  0  0  0  0  0  0  0  0
   24.0835  -19.6507  -12.3172 O   0  0  0  0  0  0  0  0  0  0  0  0
   18.3592  -25.8832  -12.9489 N   0  0  0  0  0  0  0  0  0  0  0  0
   17.8367  -25.0544  -13.9611 C   0  0  0  0  0  0  0  0  0  0  0  0
   16.5743  -25.0075  -14.2507 N   0  0  0  0  0  0  0  0  0  0  0  0
   18.7514  -24.2417  -14.6838 N   0  0  0  0  0  0  0  0  0  0  0  0
   20.1636  -24.2813  -14.2487 C   0  0  0  0  0  0  0  0  0  0  0  0
   20.4096  -23.0285  -13.5102 C   0  0  0  0  0  0  0  0  0  0  0  0
   21.7702  -22.8110  -13.0350 C   0  0  0  0  0  0  0  0  0  0  0  0
   22.1085  -21.5353  -12.3658 C   0  0  2  0  0  0  0  0  0  0  0  0
   23.4418  -21.7658  -11.7068 N   0  0  0  0  0  0  0  0  0  0  0  0
   21.2560  -20.9469  -11.3696 C   0  0  0  0  0  0  0  0  0  0  0  0
   21.4461  -21.0527  -10.1427 O   0  0  0  0  0  0  0  0  0  0  0  0
   20.1312  -20.1984  -11.7367 O   0  0  0  0  0  0  0  0  0  0  0  0
  2  1  1  6
  2  3  1  0
  3  4  1  0
  4  9  2  0
  4  5  1  0
  5  6  2  0
  6  7  1  0
  8  7  2  0
  9  8  1  0
 10  2  1  0
 10 17  1  0
 11 10  2  0
 12 13  1  0
 13 14  1  0
 16 15  1  1
 15 14  1  0
 16 17  1  0
 18 16  1  0
 19 18  2  0
 20 21  1  0
 21 22  2  0
 23 21  1  0
 24 23  1  0
 24 25  1  0
 25 26  1  0
 27 28  1  0
 27 26  1  1
 28 18  1  0
 29 27  1  0
 30 29  2  0
 31 29  1  0
M  END
$$$$
