FMR.pdb
     RDKit          3D

 31 31  0  0  1  0  0  0  0  0999 V2000
   28.1894  -20.8621  -15.3158 N   0  0  0  0  0  0  0  0  0  0  0  0
   27.6645  -19.9058  -14.3612 C   0  0  1  0  0  0  0  0  0  0  0  0
   26.6219  -19.0029  -14.9750 C   0  0  0  0  0  0  0  0  0  0  0  0
   27.2276  -17.8397  -15.6646 C   0  0  0  0  0  0  0  0  0  0  0  0
   27.7485  -18.0492  -16.9236 C   0  0  0  0  0  0  0  0  0  0  0  0
   28.3255  -17.0368  -17.6325 C   0  0  0  0  0  0  0  0  0  0  0  0
   28.3908  -15.7728  -17.0795 C   0  0  0  0  0  0  0  0  0  0  0  0
   27.8724  -15.5682  -15.8286 C   0  0  0  0  0  0  0  0  0  0  0  0
   27.2895  -16.5816  -15.1073 C   0  0  0  0  0  0  0  0  0  0  0  0
   27.0429  -20.5583  -13.1950 C   0  0  0  0  0  0  0  0  0  0  0  0
   26.4222  -21.6248  -13.3600 O   0  0  0  0  0  0  0  0  0  0  0  0
   28.4314  -19.9784   -6.6302 C   0  0  0  0  0  0  0  0  0  0  0  0
   26.6578  -19.7252   -6.8523 S   0  0  0  0  0  0  0  0  0  0  0  0
   26.1113  -20.5644   -8.3668 C   0  0  0  0  0  0  0  0  0  0  0  0
   26.8125  -19.9578   -9.5369 C   0  0  0  0  0  0  0  0  0  0  0  0
   26.4150  -20.6346  -10.8203 C   0  0  2  0  0  0  0  0  0  0  0  0
   27.1431  -19.9986  -11.9264 N   0  0  0  0  0  0  0  0  0  0  0  0
   24.9853  -20.3479  -11.0953 C   0  0  0  0  0  0  0  0  0  0  0  0
   24.6863  -19.1866  -11.5053 O   0  0  0  0  0  0  0  0  0  0  0  0
   20.1138  -20.2119  -16.5971 N   0  0  0  0  0  0  0  0  0  0  0  0
   19.0351  -20.6364  -15.7967 C   0  0  0  0  0  0  0  0  0  0  0  0
   17.9031  -21.0287  -16.2913 N   0  0  0  0  0  0  0  0  0  0  0  0
   19.2177  -20.6271  -14.3874 N   0  0  0  0  0  0  0  0  0  0  0  0
   20.5660  -20.2761  -13.8938 C   0  0  0  0  0  0  0  0  0  0  0  0
   21.1721  -21.5287  -13.4046 C   0  0  0  0  0  0  0  0  0  0  0  0
   22.4845  -21.4151  -12.7809 C   0  0  0  0  0  0  0  0  0  0  0  0
   22.5842  -20.9294  -11.3866 C   0  0  2  0  0  0  0  0  0  0  0  0
   23.9731  -21.2890  -10.9317 N   0  0  0  0  0  0  0  0  0  0  0  0
   21.6875  -21.3774  -10.3567 C   0  0  0  0  0  0  0  0  0  0  0  0
   21.9323  -22.3268   -9.5877 O   0  0  0  0  0  0  0  0  0  0  0  0
   20.4523  -20.7499  -10.1556 O   0  0  0  0  0  0  0  0  0  0  0  0
  2  1  1  6
  2  3  1  0
  3  4  1  0
  4  9  2  0
  4  5  1  0
  5  6  2  0
  6  7  1  0
  8  7  2  0
  9  8  1  0
 10  2  1  0
 10 17  1  0
 11 10  2  0
 12 13  1  0
 13 14  1  0
 16 15  1  1
 15 14  1  0
 16 17  1  0
 18 16  1  0
 19 18  2  0
 20 21  1  0
 21 22  2  0
 23 21  1  0
 24 23  1  0
 24 25  1  0
 25 26  1  0
 27 28  1  0
 27 26  1  6
 28 18  1  0
 29 27  1  0
 30 29  2  0
 31 29  1  0
M  END
$$$$
