FMR.pdb
     RDKit          3D

 31 31  0  0  1  0  0  0  0  0999 V2000
   28.1556  -19.9707  -15.2460 N   0  0  0  0  0  0  0  0  0  0  0  0
   27.6839  -19.2220  -14.0978 C   0  0  1  0  0  0  0  0  0  0  0  0
   26.5349  -18.3075  -14.4477 C   0  0  0  0  0  0  0  0  0  0  0  0
   26.9682  -17.1607  -15.2799 C   0  0  0  0  0  0  0  0  0  0  0  0
   26.8316  -17.2809  -16.6463 C   0  0  0  0  0  0  0  0  0  0  0  0
   27.2043  -16.2761  -17.4900 C   0  0  0  0  0  0  0  0  0  0  0  0
   27.7306  -15.1111  -16.9667 C   0  0  0  0  0  0  0  0  0  0  0  0
   27.8650  -14.9951  -15.6088 C   0  0  0  0  0  0  0  0  0  0  0  0
   27.4923  -16.0017  -14.7516 C   0  0  0  0  0  0  0  0  0  0  0  0
   27.2256  -20.0978  -13.0047 C   0  0  0  0  0  0  0  0  0  0  0  0
   26.6109  -21.1431  -13.2864 O   0  0  0  0  0  0  0  0  0  0  0  0
   29.1791  -19.9022   -6.7539 C   0  0  0  0  0  0  0  0  0  0  0  0
   27.4168  -20.2607   -6.5971 S   0  0  0  0  0  0  0  0  0  0  0  0
   26.7882  -20.9094   -8.1721 C   0  0  0  0  0  0  0  0  0  0  0  0
   27.4062  -20.1418   -9.2935 C   0  0  0  0  0  0  0  0  0  0  0  0
   26.9038  -20.6259  -10.6263 C   0  0  2  0  0  0  0  0  0  0  0  0
   27.4716  -19.7697  -11.6764 N   0  0  0  0  0  0  0  0  0  0  0  0
   25.4398  -20.3968  -10.7032 C   0  0  0  0  0  0  0  0  0  0  0  0
   25.0413  -19.2289  -10.9914 O   0  0  0  0  0  0  0  0  0  0  0  0
   19.8485  -19.5362  -15.4105 N   0  0  0  0  0  0  0  0  0  0  0  0
   20.2650  -20.8807  -15.4687 C   0  0  0  0  0  0  0  0  0  0  0  0
   19.8125  -21.7204  -16.3461 N   0  0  0  0  0  0  0  0  0  0  0  0
   21.2247  -21.3143  -14.5145 N   0  0  0  0  0  0  0  0  0  0  0  0
   20.7416  -22.2167  -13.4481 C   0  0  0  0  0  0  0  0  0  0  0  0
   21.1437  -21.6049  -12.1677 C   0  0  0  0  0  0  0  0  0  0  0  0
   22.5608  -21.6701  -11.8332 C   0  0  0  0  0  0  0  0  0  0  0  0
   23.0397  -21.0398  -10.5829 C   0  0  2  0  0  0  0  0  0  0  0  0
   24.4981  -21.3977  -10.4828 N   0  0  0  0  0  0  0  0  0  0  0  0
   22.4558  -21.3407   -9.3046 C   0  0  0  0  0  0  0  0  0  0  0  0
   22.9779  -22.0976   -8.4637 O   0  0  0  0  0  0  0  0  0  0  0  0
   21.2307  -20.7804   -8.9237 O   0  0  0  0  0  0  0  0  0  0  0  0
  2  1  1  6
  2  3  1  0
  3  4  1  0
  4  9  2  0
  4  5  1  0
  5  6  2  0
  6  7  1  0
  8  7  2  0
  9  8  1  0
 10  2  1  0
 10 17  1  0
 11 10  2  0
 12 13  1  0
 13 14  1  0
 16 15  1  1
 15 14  1  0
 16 17  1  0
 18 16  1  0
 19 18  2  0
 20 21  1  0
 21 22  2  0
 23 21  1  0
 24 23  1  0
 24 25  1  0
 25 26  1  0
 27 28  1  0
 27 26  1  6
 28 18  1  0
 29 27  1  0
 30 29  2  0
 31 29  1  0
M  END
$$$$
