FMR.pdb
     RDKit          3D

 31 31  0  0  1  0  0  0  0  0999 V2000
   25.8620  -16.4609  -17.0753 N   0  0  0  0  0  0  0  0  0  0  0  0
   25.8858  -16.8661  -15.6837 C   0  0  1  0  0  0  0  0  0  0  0  0
   24.5032  -16.9053  -15.0789 C   0  0  0  0  0  0  0  0  0  0  0  0
   23.8199  -15.5933  -15.1635 C   0  0  0  0  0  0  0  0  0  0  0  0
   24.4430  -14.5143  -14.5736 C   0  0  0  0  0  0  0  0  0  0  0  0
   23.8875  -13.2689  -14.6017 C   0  0  0  0  0  0  0  0  0  0  0  0
   22.6740  -13.0814  -15.2344 C   0  0  0  0  0  0  0  0  0  0  0  0
   22.0579  -14.1555  -15.8194 C   0  0  0  0  0  0  0  0  0  0  0  0
   22.6097  -15.4132  -15.7960 C   0  0  0  0  0  0  0  0  0  0  0  0
   26.4806  -18.2015  -15.4967 C   0  0  0  0  0  0  0  0  0  0  0  0
   26.5773  -18.9617  -16.4778 O   0  0  0  0  0  0  0  0  0  0  0  0
   28.5156  -21.6979   -9.7165 C   0  0  0  0  0  0  0  0  0  0  0  0
   29.7792  -21.2212  -10.9145 S   0  0  0  0  0  0  0  0  0  0  0  0
   29.0586  -21.2058  -12.5810 C   0  0  0  0  0  0  0  0  0  0  0  0
   28.3622  -19.9028  -12.7956 C   0  0  0  0  0  0  0  0  0  0  0  0
   27.7363  -19.8390  -14.1621 C   0  0  2  0  0  0  0  0  0  0  0  0
   26.9294  -18.6143  -14.2474 N   0  0  0  0  0  0  0  0  0  0  0  0
   26.7573  -20.9459  -14.2975 C   0  0  0  0  0  0  0  0  0  0  0  0
   25.7640  -20.9526  -13.5105 O   0  0  0  0  0  0  0  0  0  0  0  0
   24.0097  -20.8360  -11.3428 N   0  0  0  0  0  0  0  0  0  0  0  0
   22.7087  -20.8871  -11.8807 C   0  0  0  0  0  0  0  0  0  0  0  0
   21.7768  -20.0494  -11.5498 N   0  0  0  0  0  0  0  0  0  0  0  0
   22.4274  -21.9096  -12.8267 N   0  0  0  0  0  0  0  0  0  0  0  0
   23.5873  -22.5249  -13.5056 C   0  0  0  0  0  0  0  0  0  0  0  0
   23.6333  -21.9475  -14.8621 C   0  0  0  0  0  0  0  0  0  0  0  0
   24.6251  -22.5059  -15.7725 C   0  0  0  0  0  0  0  0  0  0  0  0
   25.8727  -23.0797  -15.2210 C   0  0  2  0  0  0  0  0  0  0  0  0
   26.8774  -21.9594  -15.2439 N   0  0  0  0  0  0  0  0  0  0  0  0
   26.5165  -24.2189  -15.8154 C   0  0  0  0  0  0  0  0  0  0  0  0
   27.4523  -24.1387  -16.6341 O   0  0  0  0  0  0  0  0  0  0  0  0
   26.1141  -25.5209  -15.4947 O   0  0  0  0  0  0  0  0  0  0  0  0
  2  1  1  6
  2  3  1  0
  3  4  1  0
  4  9  2  0
  4  5  1  0
  5  6  2  0
  6  7  1  0
  8  7  2  0
  9  8  1  0
 10  2  1  0
 10 17  1  0
 11 10  2  0
 12 13  1  0
 13 14  1  0
 16 15  1  1
 15 14  1  0
 16 17  1  0
 18 16  1  0
 19 18  2  0
 20 21  1  0
 21 22  2  0
 23 21  1  0
 24 23  1  0
 24 25  1  0
 25 26  1  0
 27 28  1  0
 27 26  1  6
 28 18  1  0
 29 27  1  0
 30 29  2  0
 31 29  1  0
M  END
$$$$
