FMR.pdb
     RDKit          3D

 31 31  0  0  1  0  0  0  0  0999 V2000
   28.8063  -19.8042  -15.6910 N   0  0  0  0  0  0  0  0  0  0  0  0
   27.9612  -19.1578  -14.7064 C   0  0  1  0  0  0  0  0  0  0  0  0
   26.9450  -18.2408  -15.3431 C   0  0  0  0  0  0  0  0  0  0  0  0
   27.5388  -16.9446  -15.7466 C   0  0  0  0  0  0  0  0  0  0  0  0
   28.0050  -16.8353  -17.0393 C   0  0  0  0  0  0  0  0  0  0  0  0
   28.5672  -15.6803  -17.4979 C   0  0  0  0  0  0  0  0  0  0  0  0
   28.6731  -14.5945  -16.6508 C   0  0  0  0  0  0  0  0  0  0  0  0
   28.2089  -14.7065  -15.3673 C   0  0  0  0  0  0  0  0  0  0  0  0
   27.6414  -15.8655  -14.8968 C   0  0  0  0  0  0  0  0  0  0  0  0
   27.2170  -20.1259  -13.8812 C   0  0  0  0  0  0  0  0  0  0  0  0
   26.9432  -21.2420  -14.3599 O   0  0  0  0  0  0  0  0  0  0  0  0
   26.8705  -19.5510   -7.6268 C   0  0  0  0  0  0  0  0  0  0  0  0
   25.7226  -20.9402   -7.7330 S   0  0  0  0  0  0  0  0  0  0  0  0
   25.5391  -21.4430   -9.4681 C   0  0  0  0  0  0  0  0  0  0  0  0
   26.2328  -20.4469  -10.3371 C   0  0  0  0  0  0  0  0  0  0  0  0
   26.1412  -20.8334  -11.7880 C   0  0  2  0  0  0  0  0  0  0  0  0
   26.8227  -19.8062  -12.5871 N   0  0  0  0  0  0  0  0  0  0  0  0
   24.7225  -20.7658  -12.2176 C   0  0  0  0  0  0  0  0  0  0  0  0
   24.2610  -19.6328  -12.5482 O   0  0  0  0  0  0  0  0  0  0  0  0
   23.2960  -26.5036  -15.0069 N   0  0  0  0  0  0  0  0  0  0  0  0
   24.2433  -25.8261  -15.7993 C   0  0  0  0  0  0  0  0  0  0  0  0
   25.4252  -26.2992  -16.0423 N   0  0  0  0  0  0  0  0  0  0  0  0
   23.8655  -24.5705  -16.3474 N   0  0  0  0  0  0  0  0  0  0  0  0
   22.5031  -24.0907  -16.0334 C   0  0  0  0  0  0  0  0  0  0  0  0
   22.6656  -22.8501  -15.2524 C   0  0  0  0  0  0  0  0  0  0  0  0
   22.4274  -22.9496  -13.8180 C   0  0  0  0  0  0  0  0  0  0  0  0
   22.5629  -21.7405  -12.9756 C   0  0  2  0  0  0  0  0  0  0  0  0
   23.8899  -21.8795  -12.2794 N   0  0  0  0  0  0  0  0  0  0  0  0
   21.6016  -21.4060  -11.9609 C   0  0  0  0  0  0  0  0  0  0  0  0
   21.8301  -21.4759  -10.7380 O   0  0  0  0  0  0  0  0  0  0  0  0
   20.3166  -20.9687  -12.3038 O   0  0  0  0  0  0  0  0  0  0  0  0
  2  1  1  6
  2  3  1  0
  3  4  1  0
  4  9  2  0
  4  5  1  0
  5  6  2  0
  6  7  1  0
  8  7  2  0
  9  8  1  0
 10  2  1  0
 10 17  1  0
 11 10  2  0
 12 13  1  0
 13 14  1  0
 16 15  1  1
 15 14  1  0
 16 17  1  0
 18 16  1  0
 19 18  2  0
 20 21  1  0
 21 22  2  0
 23 21  1  0
 24 23  1  0
 24 25  1  0
 25 26  1  0
 27 28  1  0
 27 26  1  1
 28 18  1  0
 29 27  1  0
 30 29  2  0
 31 29  1  0
M  END
$$$$
