FMR.pdb
     RDKit          3D

 31 31  0  0  1  0  0  0  0  0999 V2000
   29.2204  -22.0695  -15.9383 N   0  0  0  0  0  0  0  0  0  0  0  0
   28.3224  -21.0181  -15.5029 C   0  0  1  0  0  0  0  0  0  0  0  0
   27.5574  -20.4106  -16.6538 C   0  0  0  0  0  0  0  0  0  0  0  0
   27.3538  -18.9531  -16.4808 C   0  0  0  0  0  0  0  0  0  0  0  0
   27.8671  -18.3717  -15.3411 C   0  0  0  0  0  0  0  0  0  0  0  0
   27.7272  -17.0368  -15.0982 C   0  0  0  0  0  0  0  0  0  0  0  0
   27.0571  -16.2476  -16.0125 C   0  0  0  0  0  0  0  0  0  0  0  0
   26.5485  -16.8284  -17.1436 C   0  0  0  0  0  0  0  0  0  0  0  0
   26.6845  -18.1717  -17.3965 C   0  0  0  0  0  0  0  0  0  0  0  0
   27.3295  -21.4957  -14.5241 C   0  0  0  0  0  0  0  0  0  0  0  0
   26.8429  -22.6330  -14.6643 O   0  0  0  0  0  0  0  0  0  0  0  0
   26.4226  -18.9172   -8.3640 C   0  0  0  0  0  0  0  0  0  0  0  0
   26.4377  -20.7224   -8.3776 S   0  0  0  0  0  0  0  0  0  0  0  0
   25.7632  -21.3218   -9.9532 C   0  0  0  0  0  0  0  0  0  0  0  0
   26.6083  -20.8050  -11.0700 C   0  0  0  0  0  0  0  0  0  0  0  0
   26.1069  -21.2919  -12.4021 C   0  0  2  0  0  0  0  0  0  0  0  0
   26.9364  -20.6953  -13.4577 N   0  0  0  0  0  0  0  0  0  0  0  0
   24.7475  -20.7449  -12.6362 C   0  0  0  0  0  0  0  0  0  0  0  0
   24.6343  -19.4908  -12.7787 O   0  0  0  0  0  0  0  0  0  0  0  0
   24.4821  -24.4080  -15.6084 N   0  0  0  0  0  0  0  0  0  0  0  0
   23.1671  -24.7203  -16.0055 C   0  0  0  0  0  0  0  0  0  0  0  0
   22.7002  -25.9293  -16.0059 N   0  0  0  0  0  0  0  0  0  0  0  0
   22.3322  -23.6473  -16.4194 N   0  0  0  0  0  0  0  0  0  0  0  0
   22.9780  -22.3282  -16.5858 C   0  0  0  0  0  0  0  0  0  0  0  0
   22.2164  -21.3807  -15.7504 C   0  0  0  0  0  0  0  0  0  0  0  0
   21.9365  -21.8001  -14.3829 C   0  0  0  0  0  0  0  0  0  0  0  0
   22.3462  -20.9282  -13.2596 C   0  0  2  0  0  0  0  0  0  0  0  0
   23.6077  -21.5400  -12.7124 N   0  0  0  0  0  0  0  0  0  0  0  0
   21.4887  -20.6819  -12.1329 C   0  0  0  0  0  0  0  0  0  0  0  0
   21.5969  -21.2656  -11.0374 O   0  0  0  0  0  0  0  0  0  0  0  0
   20.4538  -19.7421  -12.2086 O   0  0  0  0  0  0  0  0  0  0  0  0
  2  1  1  6
  2  3  1  0
  3  4  1  0
  4  9  2  0
  4  5  1  0
  5  6  2  0
  6  7  1  0
  8  7  2  0
  9  8  1  0
 10  2  1  0
 10 17  1  0
 11 10  2  0
 12 13  1  0
 13 14  1  0
 16 15  1  1
 15 14  1  0
 16 17  1  0
 18 16  1  0
 19 18  2  0
 20 21  1  0
 21 22  2  0
 23 21  1  0
 24 23  1  0
 24 25  1  0
 25 26  1  0
 27 28  1  0
 27 26  1  6
 28 18  1  0
 29 27  1  0
 30 29  2  0
 31 29  1  0
M  END
$$$$
