SDL.pdb
     RDKit          3D

 23 22  0  0  1  0  0  0  0  0999 V2000
    7.6985  -12.7333   18.9324 O   0  0  0  0  0  0  0  0  0  0  0  0
    8.9116  -13.3726   18.7119 C   0  0  0  0  0  0  0  0  0  0  0  0
    8.7391  -14.8598   18.5472 C   0  0  2  0  0  0  0  0  0  0  0  0
    7.6865  -15.1457   17.5933 N   0  0  0  0  0  0  0  0  0  0  0  0
    8.4273  -15.5805   19.7885 C   0  0  0  0  0  0  0  0  0  0  0  0
    7.2378  -15.9698   20.0101 O   0  0  0  0  0  0  0  0  0  0  0  0
    9.3619  -15.8918   20.7950 N   0  0  0  0  0  0  0  0  0  0  0  0
    9.0222  -16.6714   22.0093 C   0  0  1  0  0  0  0  0  0  0  0  0
   10.0075  -17.7620   22.1810 C   0  0  0  0  0  0  0  0  0  0  0  0
    9.5387  -19.0798   22.5603 C   0  0  0  0  0  0  0  0  0  0  0  0
    8.6466  -19.3060   23.3837 O   0  0  0  0  0  0  0  0  0  0  0  0
    9.1492  -15.6286   23.0927 C   0  0  0  0  0  0  0  0  0  0  0  0
   10.1523  -14.8239   23.0597 O   0  0  0  0  0  0  0  0  0  0  0  0
   10.1035  -20.2404   21.9811 O   0  0  0  0  0  0  0  0  0  0  0  0
    7.7633  -12.9031   27.5223 C   0  0  0  0  0  0  0  0  0  0  0  0
    7.3960  -12.3507   26.1446 C   0  0  2  0  0  0  0  0  0  0  0  0
    6.2121  -11.4578   26.2617 C   0  0  0  0  0  0  0  0  0  0  0  0
    7.2424  -13.4843   25.1768 C   0  0  0  0  0  0  0  0  0  0  0  0
    8.4825  -14.3505   25.1083 C   0  0  2  0  0  0  0  0  0  0  0  0
    8.2703  -15.4308   24.1549 N   0  0  0  0  0  0  0  0  0  0  0  0
    8.7833  -14.9690   26.4198 C   0  0  0  0  0  0  0  0  0  0  0  0
    9.7412  -14.5134   27.3063 O   0  0  0  0  0  0  0  0  0  0  0  0
    8.1359  -15.9830   26.7745 O   0  0  0  0  0  0  0  0  0  0  0  0
  2  1  1  0
  3  4  1  6
  3  2  1  0
  5  6  2  0
  5  3  1  0
  7  5  1  0
  8  7  1  0
  8 12  1  0
  8  9  1  1
 10  9  1  0
 10 14  1  0
 11 10  2  0
 12 20  1  0
 13 12  2  0
 16 15  1  1
 16 17  1  0
 18 16  1  0
 19 18  1  1
 20 19  1  0
 21 22  1  0
 21 19  1  0
 23 21  2  0
M  END
$$$$
