SDL.pdb
     RDKit          3D

 23 22  0  0  1  0  0  0  0  0999 V2000
    5.7559  -14.9971   21.0169 O   0  0  0  0  0  0  0  0  0  0  0  0
    6.7394  -14.4210   20.2233 C   0  0  0  0  0  0  0  0  0  0  0  0
    7.8205  -15.4073   19.8671 C   0  0  2  0  0  0  0  0  0  0  0  0
    7.3798  -16.2781   18.7961 N   0  0  0  0  0  0  0  0  0  0  0  0
    8.2656  -16.2557   20.9805 C   0  0  0  0  0  0  0  0  0  0  0  0
    7.8918  -17.4691   21.0374 O   0  0  0  0  0  0  0  0  0  0  0  0
    9.1009  -15.8311   22.0320 N   0  0  0  0  0  0  0  0  0  0  0  0
    9.5514  -16.7243   23.1259 C   0  0  1  0  0  0  0  0  0  0  0  0
   10.8699  -17.2981   22.7762 C   0  0  0  0  0  0  0  0  0  0  0  0
   11.5214  -18.1875   23.7167 C   0  0  0  0  0  0  0  0  0  0  0  0
   10.9414  -18.9983   24.4455 O   0  0  0  0  0  0  0  0  0  0  0  0
    9.6498  -15.7664   24.2878 C   0  0  0  0  0  0  0  0  0  0  0  0
   10.5961  -14.8949   24.2901 O   0  0  0  0  0  0  0  0  0  0  0  0
   12.9287  -18.1780   23.8618 O   0  0  0  0  0  0  0  0  0  0  0  0
    8.1487  -12.0633   25.5838 C   0  0  0  0  0  0  0  0  0  0  0  0
    7.2070  -13.2463   25.8113 C   0  0  2  0  0  0  0  0  0  0  0  0
    5.8248  -12.7491   26.0453 C   0  0  0  0  0  0  0  0  0  0  0  0
    7.7583  -14.1221   26.8950 C   0  0  0  0  0  0  0  0  0  0  0  0
    9.0535  -14.7915   26.4866 C   0  0  2  0  0  0  0  0  0  0  0  0
    8.7998  -15.7157   25.3899 N   0  0  0  0  0  0  0  0  0  0  0  0
    9.6325  -15.5750   27.6019 C   0  0  0  0  0  0  0  0  0  0  0  0
   10.3022  -15.0330   28.6830 O   0  0  0  0  0  0  0  0  0  0  0  0
    9.5215  -16.8242   27.5868 O   0  0  0  0  0  0  0  0  0  0  0  0
  2  1  1  0
  3  4  1  6
  3  2  1  0
  5  6  2  0
  5  3  1  0
  7  5  1  0
  8  7  1  0
  8 12  1  0
  8  9  1  6
 10  9  1  0
 10 14  1  0
 11 10  2  0
 12 20  1  0
 13 12  2  0
 16 15  1  1
 16 17  1  0
 18 16  1  0
 19 18  1  1
 20 19  1  0
 21 22  1  0
 21 19  1  0
 23 21  2  0
M  END
$$$$
