SDL.pdb
     RDKit          3D

 23 22  0  0  1  0  0  0  0  0999 V2000
    8.2035  -12.7394   21.2126 O   0  0  0  0  0  0  0  0  0  0  0  0
    8.6628  -13.6422   20.2622 C   0  0  0  0  0  0  0  0  0  0  0  0
    8.0194  -14.9951   20.4181 C   0  0  2  0  0  0  0  0  0  0  0  0
    6.6255  -14.9421   20.0260 N   0  0  0  0  0  0  0  0  0  0  0  0
    8.0823  -15.5495   21.7768 C   0  0  0  0  0  0  0  0  0  0  0  0
    7.0234  -15.6295   22.4751 O   0  0  0  0  0  0  0  0  0  0  0  0
    9.2543  -16.0186   22.4013 N   0  0  0  0  0  0  0  0  0  0  0  0
    9.2552  -16.7333   23.7001 C   0  0  1  0  0  0  0  0  0  0  0  0
   10.3864  -17.6868   23.7321 C   0  0  0  0  0  0  0  0  0  0  0  0
   10.2735  -18.9362   23.0065 C   0  0  0  0  0  0  0  0  0  0  0  0
    9.2451  -19.6136   22.9152 O   0  0  0  0  0  0  0  0  0  0  0  0
    9.4522  -15.6004   24.6773 C   0  0  0  0  0  0  0  0  0  0  0  0
   10.3742  -14.7351   24.4407 O   0  0  0  0  0  0  0  0  0  0  0  0
   11.3897  -19.4791   22.3277 O   0  0  0  0  0  0  0  0  0  0  0  0
    7.8396  -11.8499   25.5380 C   0  0  0  0  0  0  0  0  0  0  0  0
    7.0983  -13.0388   26.1503 C   0  0  2  0  0  0  0  0  0  0  0  0
    5.7114  -12.6357   26.5060 C   0  0  0  0  0  0  0  0  0  0  0  0
    7.9049  -13.6018   27.2806 C   0  0  0  0  0  0  0  0  0  0  0  0
    9.1258  -14.3535   26.7938 C   0  0  2  0  0  0  0  0  0  0  0  0
    8.7198  -15.3773   25.8408 N   0  0  0  0  0  0  0  0  0  0  0  0
    9.8209  -15.0363   27.9090 C   0  0  0  0  0  0  0  0  0  0  0  0
   10.5054  -14.3938   28.9238 O   0  0  0  0  0  0  0  0  0  0  0  0
    9.8032  -16.2894   27.9578 O   0  0  0  0  0  0  0  0  0  0  0  0
  2  1  1  0
  3  4  1  1
  3  2  1  0
  5  6  2  0
  5  3  1  0
  7  5  1  0
  8  7  1  0
  8 12  1  0
  8  9  1  6
 10  9  1  0
 10 14  1  0
 11 10  2  0
 12 20  1  0
 13 12  2  0
 16 15  1  1
 16 17  1  0
 18 16  1  0
 19 18  1  1
 20 19  1  0
 21 22  1  0
 21 19  1  0
 23 21  2  0
M  END
$$$$
