SDL.pdb
     RDKit          3D

 23 22  0  0  1  0  0  0  0  0999 V2000
    8.4373  -11.8961   20.6286 O   0  0  0  0  0  0  0  0  0  0  0  0
    9.1409  -12.6636   19.7094 C   0  0  0  0  0  0  0  0  0  0  0  0
    8.4322  -13.9560   19.3999 C   0  0  2  0  0  0  0  0  0  0  0  0
    7.2015  -13.6997   18.6792 N   0  0  0  0  0  0  0  0  0  0  0  0
    8.1012  -14.7694   20.5773 C   0  0  0  0  0  0  0  0  0  0  0  0
    6.8855  -14.9311   20.9108 O   0  0  0  0  0  0  0  0  0  0  0  0
    9.0444  -15.4114   21.4031 N   0  0  0  0  0  0  0  0  0  0  0  0
    8.6742  -16.3810   22.4615 C   0  0  1  0  0  0  0  0  0  0  0  0
    9.5290  -17.5832   22.3432 C   0  0  0  0  0  0  0  0  0  0  0  0
    9.3748  -18.6533   23.3081 C   0  0  0  0  0  0  0  0  0  0  0  0
    8.3396  -18.9007   23.9343 O   0  0  0  0  0  0  0  0  0  0  0  0
    8.9787  -15.6010   23.7169 C   0  0  0  0  0  0  0  0  0  0  0  0
   10.1449  -15.0741   23.8481 O   0  0  0  0  0  0  0  0  0  0  0  0
   10.4541  -19.5189   23.6035 O   0  0  0  0  0  0  0  0  0  0  0  0
    7.6702  -11.8789   25.2605 C   0  0  0  0  0  0  0  0  0  0  0  0
    6.6837  -12.9828   25.6427 C   0  0  2  0  0  0  0  0  0  0  0  0
    5.4228  -12.3759   26.1470 C   0  0  0  0  0  0  0  0  0  0  0  0
    7.3472  -13.9415   26.5840 C   0  0  0  0  0  0  0  0  0  0  0  0
    8.5399  -14.6294   25.9539 C   0  0  2  0  0  0  0  0  0  0  0  0
    8.1080  -15.3762   24.7805 N   0  0  0  0  0  0  0  0  0  0  0  0
    9.1640  -15.5938   26.8885 C   0  0  0  0  0  0  0  0  0  0  0  0
    9.9008  -15.2465   28.0055 O   0  0  0  0  0  0  0  0  0  0  0  0
    9.0298  -16.8217   26.6714 O   0  0  0  0  0  0  0  0  0  0  0  0
  2  1  1  0
  3  4  1  1
  3  2  1  0
  5  6  2  0
  5  3  1  0
  7  5  1  0
  8  7  1  0
  8 12  1  0
  8  9  1  6
 10  9  1  0
 10 14  1  0
 11 10  2  0
 12 20  1  0
 13 12  2  0
 16 15  1  1
 16 17  1  0
 18 16  1  0
 19 18  1  1
 20 19  1  0
 21 22  1  0
 21 19  1  0
 23 21  2  0
M  END
$$$$
