SDL.pdb
     RDKit          3D

 23 22  0  0  1  0  0  0  0  0999 V2000
    7.8544  -12.9305   20.3218 O   0  0  0  0  0  0  0  0  0  0  0  0
    8.5998  -13.6697   19.4124 C   0  0  0  0  0  0  0  0  0  0  0  0
    8.2545  -15.1348   19.4650 C   0  0  2  0  0  0  0  0  0  0  0  0
    6.8849  -15.3486   19.0430 N   0  0  0  0  0  0  0  0  0  0  0  0
    8.4185  -15.7549   20.7864 C   0  0  0  0  0  0  0  0  0  0  0  0
    7.3972  -15.9811   21.5082 O   0  0  0  0  0  0  0  0  0  0  0  0
    9.6520  -16.1364   21.3490 N   0  0  0  0  0  0  0  0  0  0  0  0
    9.7715  -16.8493   22.6433 C   0  0  1  0  0  0  0  0  0  0  0  0
   11.1134  -17.4654   22.7394 C   0  0  0  0  0  0  0  0  0  0  0  0
   11.3668  -18.7109   22.0432 C   0  0  0  0  0  0  0  0  0  0  0  0
   10.4979  -19.5052   21.6706 O   0  0  0  0  0  0  0  0  0  0  0  0
    9.6016  -15.7238   23.6341 C   0  0  0  0  0  0  0  0  0  0  0  0
   10.3825  -14.7049   23.5499 O   0  0  0  0  0  0  0  0  0  0  0  0
   12.6891  -19.1086   21.7350 O   0  0  0  0  0  0  0  0  0  0  0  0
    5.7131  -12.3858   26.7460 C   0  0  0  0  0  0  0  0  0  0  0  0
    7.1831  -12.7668   26.5672 C   0  0  2  0  0  0  0  0  0  0  0  0
    7.9833  -11.5499   26.2652 C   0  0  0  0  0  0  0  0  0  0  0  0
    7.2944  -13.8665   25.5554 C   0  0  0  0  0  0  0  0  0  0  0  0
    8.6476  -14.5448   25.5938 C   0  0  2  0  0  0  0  0  0  0  0  0
    8.6599  -15.6610   24.6583 N   0  0  0  0  0  0  0  0  0  0  0  0
    8.9412  -15.0901   26.9389 C   0  0  0  0  0  0  0  0  0  0  0  0
    8.9808  -16.4357   27.2537 O   0  0  0  0  0  0  0  0  0  0  0  0
    9.1729  -14.2929   27.8789 O   0  0  0  0  0  0  0  0  0  0  0  0
  2  1  1  0
  3  4  1  1
  3  2  1  0
  5  6  2  0
  5  3  1  0
  7  5  1  0
  8  7  1  0
  8 12  1  0
  8  9  1  6
 10  9  1  0
 10 14  1  0
 11 10  2  0
 12 20  1  0
 13 12  2  0
 16 15  1  6
 16 17  1  0
 18 16  1  0
 19 18  1  1
 20 19  1  0
 21 22  1  0
 21 19  1  0
 23 21  2  0
M  END
$$$$
