SDL.pdb
     RDKit          3D

 23 22  0  0  1  0  0  0  0  0999 V2000
    8.8095  -11.8166   18.8807 O   0  0  0  0  0  0  0  0  0  0  0  0
    8.3400  -12.6103   19.9193 C   0  0  0  0  0  0  0  0  0  0  0  0
    8.4180  -14.0764   19.5830 C   0  0  2  0  0  0  0  0  0  0  0  0
    7.4096  -14.4264   18.6031 N   0  0  0  0  0  0  0  0  0  0  0  0
    8.2581  -14.9770   20.7323 C   0  0  0  0  0  0  0  0  0  0  0  0
    7.1002  -15.3921   21.0521 O   0  0  0  0  0  0  0  0  0  0  0  0
    9.3113  -15.4405   21.5443 N   0  0  0  0  0  0  0  0  0  0  0  0
    9.1297  -16.4442   22.6201 C   0  0  1  0  0  0  0  0  0  0  0  0
   10.1615  -17.4963   22.4858 C   0  0  0  0  0  0  0  0  0  0  0  0
   10.2445  -18.5327   23.4953 C   0  0  0  0  0  0  0  0  0  0  0  0
    9.3122  -18.8939   24.2200 O   0  0  0  0  0  0  0  0  0  0  0  0
    9.3402  -15.6108   23.8604 C   0  0  0  0  0  0  0  0  0  0  0  0
   10.4622  -14.9995   24.0096 O   0  0  0  0  0  0  0  0  0  0  0  0
   11.4578  -19.2246   23.7203 O   0  0  0  0  0  0  0  0  0  0  0  0
    7.8571  -11.9934   25.6810 C   0  0  0  0  0  0  0  0  0  0  0  0
    6.8894  -13.1423   25.9666 C   0  0  2  0  0  0  0  0  0  0  0  0
    5.6295  -12.6043   26.5463 C   0  0  0  0  0  0  0  0  0  0  0  0
    7.5784  -14.1802   26.7993 C   0  0  0  0  0  0  0  0  0  0  0  0
    8.8111  -14.7353   26.1174 C   0  0  2  0  0  0  0  0  0  0  0  0
    8.4237  -15.4194   24.8915 N   0  0  0  0  0  0  0  0  0  0  0  0
    9.5057  -15.7222   26.9756 C   0  0  0  0  0  0  0  0  0  0  0  0
   10.4338  -15.4060   27.9502 O   0  0  0  0  0  0  0  0  0  0  0  0
    9.2516  -16.9412   26.8254 O   0  0  0  0  0  0  0  0  0  0  0  0
  2  1  1  0
  3  4  1  6
  3  2  1  0
  5  6  2  0
  5  3  1  0
  7  5  1  0
  8  7  1  0
  8 12  1  0
  8  9  1  6
 10  9  1  0
 10 14  1  0
 11 10  2  0
 12 20  1  0
 13 12  2  0
 16 15  1  1
 16 17  1  0
 18 16  1  0
 19 18  1  1
 20 19  1  0
 21 22  1  0
 21 19  1  0
 23 21  2  0
M  END
$$$$
