SDL.pdb
     RDKit          3D

 23 22  0  0  1  0  0  0  0  0999 V2000
    9.1862  -11.7840   20.7409 O   0  0  0  0  0  0  0  0  0  0  0  0
    9.7154  -12.6129   19.7601 C   0  0  0  0  0  0  0  0  0  0  0  0
    8.7685  -13.7265   19.3972 C   0  0  2  0  0  0  0  0  0  0  0  0
    7.5284  -13.1880   18.8757 N   0  0  0  0  0  0  0  0  0  0  0  0
    8.4339  -14.6304   20.5055 C   0  0  0  0  0  0  0  0  0  0  0  0
    7.2668  -14.6072   21.0082 O   0  0  0  0  0  0  0  0  0  0  0  0
    9.3226  -15.5566   21.0851 N   0  0  0  0  0  0  0  0  0  0  0  0
    8.9118  -16.5522   22.1038 C   0  0  1  0  0  0  0  0  0  0  0  0
    9.8034  -17.7305   22.0225 C   0  0  0  0  0  0  0  0  0  0  0  0
    9.4637  -18.8079   21.1148 C   0  0  0  0  0  0  0  0  0  0  0  0
    8.3181  -19.1032   20.7608 O   0  0  0  0  0  0  0  0  0  0  0  0
    9.1160  -15.7851   23.3872 C   0  0  0  0  0  0  0  0  0  0  0  0
   10.1826  -15.0783   23.5202 O   0  0  0  0  0  0  0  0  0  0  0  0
   10.4742  -19.6240   20.5543 O   0  0  0  0  0  0  0  0  0  0  0  0
    8.0882  -12.0747   25.8678 C   0  0  0  0  0  0  0  0  0  0  0  0
    6.9494  -13.0663   25.6273 C   0  0  2  0  0  0  0  0  0  0  0  0
    5.6646  -12.4759   26.0889 C   0  0  0  0  0  0  0  0  0  0  0  0
    7.2986  -14.3867   26.2436 C   0  0  0  0  0  0  0  0  0  0  0  0
    8.5689  -14.9714   25.6630 C   0  0  2  0  0  0  0  0  0  0  0  0
    8.2480  -15.7517   24.4758 N   0  0  0  0  0  0  0  0  0  0  0  0
    9.2347  -15.8800   26.6243 C   0  0  0  0  0  0  0  0  0  0  0  0
   10.0973  -15.4747   27.6258 O   0  0  0  0  0  0  0  0  0  0  0  0
    9.0176  -17.1126   26.5435 O   0  0  0  0  0  0  0  0  0  0  0  0
  2  1  1  0
  3  4  1  1
  3  2  1  0
  5  6  2  0
  5  3  1  0
  7  5  1  0
  8  7  1  0
  8 12  1  0
  8  9  1  1
 10  9  1  0
 10 14  1  0
 11 10  2  0
 12 20  1  0
 13 12  2  0
 16 15  1  1
 16 17  1  0
 18 16  1  0
 19 18  1  1
 20 19  1  0
 21 22  1  0
 21 19  1  0
 23 21  2  0
M  END
$$$$
