SDL.pdb
     RDKit          3D

 23 22  0  0  1  0  0  0  0  0999 V2000
    6.0761  -16.1186   22.4671 O   0  0  0  0  0  0  0  0  0  0  0  0
    6.4967  -15.2729   21.4488 C   0  0  0  0  0  0  0  0  0  0  0  0
    7.6315  -15.8693   20.6583 C   0  0  2  0  0  0  0  0  0  0  0  0
    7.1464  -16.9245   19.7916 N   0  0  0  0  0  0  0  0  0  0  0  0
    8.7200  -16.4238   21.4738 C   0  0  0  0  0  0  0  0  0  0  0  0
    8.8874  -17.6824   21.5308 O   0  0  0  0  0  0  0  0  0  0  0  0
    9.6308  -15.6587   22.2280 N   0  0  0  0  0  0  0  0  0  0  0  0
   10.7726  -16.2474   22.9678 C   0  0  1  0  0  0  0  0  0  0  0  0
   12.0112  -15.5190   22.6144 C   0  0  0  0  0  0  0  0  0  0  0  0
   13.2797  -16.0006   23.1234 C   0  0  0  0  0  0  0  0  0  0  0  0
   13.5226  -17.1717   23.4309 O   0  0  0  0  0  0  0  0  0  0  0  0
   10.3715  -16.0038   24.4020 C   0  0  0  0  0  0  0  0  0  0  0  0
   11.2286  -16.2426   25.3311 O   0  0  0  0  0  0  0  0  0  0  0  0
   14.3665  -15.1137   23.3068 O   0  0  0  0  0  0  0  0  0  0  0  0
    8.3049  -12.5300   26.7299 C   0  0  0  0  0  0  0  0  0  0  0  0
    7.4295  -13.4595   25.8887 C   0  0  2  0  0  0  0  0  0  0  0  0
    6.0689  -12.8752   25.7475 C   0  0  0  0  0  0  0  0  0  0  0  0
    7.4696  -14.8415   26.4665 C   0  0  0  0  0  0  0  0  0  0  0  0
    8.8143  -15.5075   26.2647 C   0  0  2  0  0  0  0  0  0  0  0  0
    9.1396  -15.5287   24.8452 N   0  0  0  0  0  0  0  0  0  0  0  0
    8.7992  -16.9109   26.7373 C   0  0  0  0  0  0  0  0  0  0  0  0
    8.7687  -18.0209   25.9137 O   0  0  0  0  0  0  0  0  0  0  0  0
    8.8128  -17.1352   27.9711 O   0  0  0  0  0  0  0  0  0  0  0  0
  2  1  1  0
  3  4  1  1
  3  2  1  0
  5  6  2  0
  5  3  1  0
  7  5  1  0
  8  7  1  0
  8 12  1  0
  8  9  1  6
 10  9  1  0
 10 14  1  0
 11 10  2  0
 12 20  1  0
 13 12  2  0
 16 15  1  1
 16 17  1  0
 18 16  1  0
 19 18  1  6
 20 19  1  0
 21 22  1  0
 21 19  1  0
 23 21  2  0
M  END
$$$$
