SDL.pdb
     RDKit          3D

 23 22  0  0  1  0  0  0  0  0999 V2000
    5.7395  -17.2222   23.8055 O   0  0  0  0  0  0  0  0  0  0  0  0
    5.6637  -17.9135   22.6033 C   0  0  0  0  0  0  0  0  0  0  0  0
    6.7197  -17.4607   21.6294 C   0  0  2  0  0  0  0  0  0  0  0  0
    6.6246  -18.2105   20.3931 N   0  0  0  0  0  0  0  0  0  0  0  0
    8.0982  -17.5812   22.1220 C   0  0  0  0  0  0  0  0  0  0  0  0
    8.6478  -18.7255   22.1850 O   0  0  0  0  0  0  0  0  0  0  0  0
    8.8979  -16.5029   22.5479 N   0  0  0  0  0  0  0  0  0  0  0  0
   10.2733  -16.6675   23.0759 C   0  0  1  0  0  0  0  0  0  0  0  0
   11.2117  -15.8763   22.2493 C   0  0  0  0  0  0  0  0  0  0  0  0
   12.6328  -15.9656   22.5184 C   0  0  0  0  0  0  0  0  0  0  0  0
   13.1882  -16.9052   23.0962 O   0  0  0  0  0  0  0  0  0  0  0  0
   10.1409  -16.1002   24.4680 C   0  0  0  0  0  0  0  0  0  0  0  0
   11.2012  -15.9719   25.1851 O   0  0  0  0  0  0  0  0  0  0  0  0
   13.5095  -14.9310   22.1154 O   0  0  0  0  0  0  0  0  0  0  0  0
    8.2648  -12.3193   26.2584 C   0  0  0  0  0  0  0  0  0  0  0  0
    7.3113  -13.4680   25.9276 C   0  0  2  0  0  0  0  0  0  0  0  0
    5.9056  -12.9851   25.9852 C   0  0  0  0  0  0  0  0  0  0  0  0
    7.6163  -14.6399   26.8102 C   0  0  0  0  0  0  0  0  0  0  0  0
    8.9503  -15.2746   26.4783 C   0  0  2  0  0  0  0  0  0  0  0  0
    8.9619  -15.6818   25.0801 N   0  0  0  0  0  0  0  0  0  0  0  0
    9.1910  -16.4861   27.2952 C   0  0  0  0  0  0  0  0  0  0  0  0
    9.0488  -17.7845   26.8422 O   0  0  0  0  0  0  0  0  0  0  0  0
    9.5493  -16.3507   28.4894 O   0  0  0  0  0  0  0  0  0  0  0  0
  2  1  1  0
  3  4  1  6
  3  2  1  0
  5  6  2  0
  5  3  1  0
  7  5  1  0
  8  7  1  0
  8 12  1  0
  8  9  1  6
 10  9  1  0
 10 14  1  0
 11 10  2  0
 12 20  1  0
 13 12  2  0
 16 15  1  1
 16 17  1  0
 18 16  1  0
 19 18  1  1
 20 19  1  0
 21 22  1  0
 21 19  1  0
 23 21  2  0
M  END
$$$$
