SDL.pdb
     RDKit          3D

 23 22  0  0  1  0  0  0  0  0999 V2000
    8.3107  -13.2050   20.8721 O   0  0  0  0  0  0  0  0  0  0  0  0
    7.4258  -14.0136   20.1705 C   0  0  0  0  0  0  0  0  0  0  0  0
    7.9334  -15.4265   20.0500 C   0  0  2  0  0  0  0  0  0  0  0  0
    6.9788  -16.2492   19.3349 N   0  0  0  0  0  0  0  0  0  0  0  0
    8.2213  -16.0844   21.3313 C   0  0  0  0  0  0  0  0  0  0  0  0
    7.2777  -16.6258   21.9885 O   0  0  0  0  0  0  0  0  0  0  0  0
    9.4969  -16.1736   21.9216 N   0  0  0  0  0  0  0  0  0  0  0  0
    9.7524  -16.8619   23.2094 C   0  0  1  0  0  0  0  0  0  0  0  0
   11.0063  -17.6409   23.1066 C   0  0  0  0  0  0  0  0  0  0  0  0
   10.9732  -19.0650   23.3727 C   0  0  0  0  0  0  0  0  0  0  0  0
   10.3400  -19.8957   22.7139 O   0  0  0  0  0  0  0  0  0  0  0  0
    9.8942  -15.6986   24.1601 C   0  0  0  0  0  0  0  0  0  0  0  0
   10.6770  -14.7301   23.8372 O   0  0  0  0  0  0  0  0  0  0  0  0
   11.6997  -19.6132   24.4558 O   0  0  0  0  0  0  0  0  0  0  0  0
    6.4495  -13.2640   24.9428 C   0  0  0  0  0  0  0  0  0  0  0  0
    7.2358  -13.6079   26.2083 C   0  0  2  0  0  0  0  0  0  0  0  0
    6.5989  -12.9598   27.3859 C   0  0  0  0  0  0  0  0  0  0  0  0
    8.6819  -13.2722   26.0043 C   0  0  0  0  0  0  0  0  0  0  0  0
    9.5882  -14.4534   26.2805 C   0  0  2  0  0  0  0  0  0  0  0  0
    9.2471  -15.5495   25.3843 N   0  0  0  0  0  0  0  0  0  0  0  0
    9.4255  -14.9471   27.6672 C   0  0  0  0  0  0  0  0  0  0  0  0
    9.7283  -14.2213   28.8041 O   0  0  0  0  0  0  0  0  0  0  0  0
    8.9837  -16.1066   27.8498 O   0  0  0  0  0  0  0  0  0  0  0  0
  2  1  1  0
  3  4  1  1
  3  2  1  0
  5  6  2  0
  5  3  1  0
  7  5  1  0
  8  7  1  0
  8 12  1  0
  8  9  1  6
 10  9  1  0
 10 14  1  0
 11 10  2  0
 12 20  1  0
 13 12  2  0
 16 15  1  6
 16 17  1  0
 18 16  1  0
 19 18  1  6
 20 19  1  0
 21 22  1  0
 21 19  1  0
 23 21  2  0
M  END
$$$$
