SDL.pdb
     RDKit          3D

 23 22  0  0  1  0  0  0  0  0999 V2000
    5.8846  -14.1892   20.4876 O   0  0  0  0  0  0  0  0  0  0  0  0
    6.6390  -14.6659   21.5520 C   0  0  0  0  0  0  0  0  0  0  0  0
    7.2757  -15.9940   21.2366 C   0  0  2  0  0  0  0  0  0  0  0  0
    6.2602  -17.0056   21.0244 N   0  0  0  0  0  0  0  0  0  0  0  0
    8.1957  -16.4915   22.2678 C   0  0  0  0  0  0  0  0  0  0  0  0
    7.7580  -17.2439   23.1939 O   0  0  0  0  0  0  0  0  0  0  0  0
    9.5723  -16.1998   22.3268 N   0  0  0  0  0  0  0  0  0  0  0  0
   10.4733  -16.7306   23.3776 C   0  0  1  0  0  0  0  0  0  0  0  0
   11.8772  -16.6011   22.9282 C   0  0  0  0  0  0  0  0  0  0  0  0
   12.3174  -17.3541   21.7709 C   0  0  0  0  0  0  0  0  0  0  0  0
   11.8243  -18.4194   21.3877 O   0  0  0  0  0  0  0  0  0  0  0  0
   10.1714  -15.8135   24.5373 C   0  0  0  0  0  0  0  0  0  0  0  0
   10.7559  -14.6686   24.5865 O   0  0  0  0  0  0  0  0  0  0  0  0
   13.3902  -16.8899   20.9740 O   0  0  0  0  0  0  0  0  0  0  0  0
    8.4716  -12.4434   26.0719 C   0  0  0  0  0  0  0  0  0  0  0  0
    7.5496  -13.6574   25.9531 C   0  0  2  0  0  0  0  0  0  0  0  0
    6.1303  -13.2130   25.9735 C   0  0  0  0  0  0  0  0  0  0  0  0
    7.9139  -14.6655   27.0002 C   0  0  0  0  0  0  0  0  0  0  0  0
    9.2979  -15.2404   26.7844 C   0  0  2  0  0  0  0  0  0  0  0  0
    9.2984  -16.0747   25.5906 N   0  0  0  0  0  0  0  0  0  0  0  0
    9.7127  -16.0934   27.9217 C   0  0  0  0  0  0  0  0  0  0  0  0
   10.1104  -15.6211   29.1586 O   0  0  0  0  0  0  0  0  0  0  0  0
    9.7131  -17.3391   27.7765 O   0  0  0  0  0  0  0  0  0  0  0  0
  2  1  1  0
  3  4  1  1
  3  2  1  0
  5  6  2  0
  5  3  1  0
  7  5  1  0
  8  7  1  0
  8 12  1  0
  8  9  1  6
 10  9  1  0
 10 14  1  0
 11 10  2  0
 12 20  1  0
 13 12  2  0
 16 15  1  1
 16 17  1  0
 18 16  1  0
 19 18  1  1
 20 19  1  0
 21 22  1  0
 21 19  1  0
 23 21  2  0
M  END
$$$$
