SDL.pdb
     RDKit          3D

 23 22  0  0  1  0  0  0  0  0999 V2000
   15.1423  -15.7549   22.4126 O   0  0  0  0  0  0  0  0  0  0  0  0
   15.1203  -17.1264   22.1944 C   0  0  0  0  0  0  0  0  0  0  0  0
   13.9023  -17.5500   21.4161 C   0  0  2  0  0  0  0  0  0  0  0  0
   13.6514  -16.6292   20.3258 N   0  0  0  0  0  0  0  0  0  0  0  0
   12.6717  -17.6487   22.2119 C   0  0  0  0  0  0  0  0  0  0  0  0
   11.7028  -16.8608   21.9756 O   0  0  0  0  0  0  0  0  0  0  0  0
   12.4587  -18.5723   23.2537 N   0  0  0  0  0  0  0  0  0  0  0  0
   11.1677  -18.7098   23.9692 C   0  0  1  0  0  0  0  0  0  0  0  0
   11.0026  -20.1115   24.4137 C   0  0  0  0  0  0  0  0  0  0  0  0
   10.4384  -21.0790   23.4940 C   0  0  0  0  0  0  0  0  0  0  0  0
    9.6480  -20.8151   22.5828 O   0  0  0  0  0  0  0  0  0  0  0  0
   11.3587  -17.7727   25.1365 C   0  0  0  0  0  0  0  0  0  0  0  0
   12.5457  -17.6014   25.6020 O   0  0  0  0  0  0  0  0  0  0  0  0
   10.7769  -22.4492   23.5917 O   0  0  0  0  0  0  0  0  0  0  0  0
    8.6509  -13.3603   28.5093 C   0  0  0  0  0  0  0  0  0  0  0  0
    9.8437  -14.2956   28.3081 C   0  0  2  0  0  0  0  0  0  0  0  0
   11.1026  -13.5037   28.2802 C   0  0  0  0  0  0  0  0  0  0  0  0
    9.6074  -15.1542   27.1030 C   0  0  0  0  0  0  0  0  0  0  0  0
   10.6733  -16.2171   26.9395 C   0  0  2  0  0  0  0  0  0  0  0  0
   10.3621  -17.0454   25.7828 N   0  0  0  0  0  0  0  0  0  0  0  0
   10.7335  -17.1088   28.1203 C   0  0  0  0  0  0  0  0  0  0  0  0
   10.0350  -18.2946   28.2503 O   0  0  0  0  0  0  0  0  0  0  0  0
   11.4637  -16.7854   29.0874 O   0  0  0  0  0  0  0  0  0  0  0  0
  2  1  1  0
  3  4  1  6
  3  2  1  0
  5  6  2  0
  5  3  1  0
  7  5  1  0
  8  7  1  0
  8 12  1  0
  8  9  1  1
 10  9  1  0
 10 14  1  0
 11 10  2  0
 12 20  1  0
 13 12  2  0
 16 15  1  6
 16 17  1  0
 18 16  1  0
 19 18  1  1
 20 19  1  0
 21 22  1  0
 21 19  1  0
 23 21  2  0
M  END
$$$$
