FSF.pdb
     RDKit          3D

 29 30  0  0  1  0  0  0  0  0999 V2000
    5.7263  -17.5026   23.4060 N   0  0  0  0  0  0  0  0  0  0  0  0
    6.8030  -16.7523   24.0145 C   0  0  1  0  0  0  0  0  0  0  0  0
    6.4854  -16.3937   25.4548 C   0  0  0  0  0  0  0  0  0  0  0  0
    6.7386  -14.9444   25.6047 C   0  0  0  0  0  0  0  0  0  0  0  0
    7.5377  -14.2817   24.7030 C   0  0  0  0  0  0  0  0  0  0  0  0
    7.7935  -12.9180   24.8192 C   0  0  0  0  0  0  0  0  0  0  0  0
    7.2158  -12.2193   25.8853 C   0  0  0  0  0  0  0  0  0  0  0  0
    6.4147  -12.8702   26.7939 C   0  0  0  0  0  0  0  0  0  0  0  0
    6.1852  -14.2217   26.6446 C   0  0  0  0  0  0  0  0  0  0  0  0
    8.0885  -17.4389   23.9726 C   0  0  0  0  0  0  0  0  0  0  0  0
    8.1986  -18.6059   24.4103 O   0  0  0  0  0  0  0  0  0  0  0  0
   11.2512  -15.4434   22.3463 O   0  0  0  0  0  0  0  0  0  0  0  0
   11.3327  -16.8356   22.3017 C   0  0  0  0  0  0  0  0  0  0  0  0
   10.5308  -17.3747   23.4623 C   0  0  2  0  0  0  0  0  0  0  0  0
    9.2130  -16.7712   23.4307 N   0  0  0  0  0  0  0  0  0  0  0  0
   11.2432  -17.0711   24.7271 C   0  0  0  0  0  0  0  0  0  0  0  0
   12.1682  -16.2192   24.8044 O   0  0  0  0  0  0  0  0  0  0  0  0
   10.8507  -17.7834   25.8940 N   0  0  0  0  0  0  0  0  0  0  0  0
   11.4739  -17.5751   27.1810 C   0  0  1  0  0  0  0  0  0  0  0  0
   10.3868  -17.1063   28.1271 C   0  0  0  0  0  0  0  0  0  0  0  0
   10.0282  -15.7044   27.8227 C   0  0  0  0  0  0  0  0  0  0  0  0
    8.9372  -15.4404   27.0247 C   0  0  0  0  0  0  0  0  0  0  0  0
    8.6117  -14.1079   26.7455 C   0  0  0  0  0  0  0  0  0  0  0  0
    9.3689  -13.0827   27.2597 C   0  0  0  0  0  0  0  0  0  0  0  0
   10.4613  -13.3525   28.0591 C   0  0  0  0  0  0  0  0  0  0  0  0
   10.7902  -14.6583   28.3399 C   0  0  0  0  0  0  0  0  0  0  0  0
   12.0938  -18.8468   27.6133 C   0  0  0  0  0  0  0  0  0  0  0  0
   12.9532  -18.9566   28.6971 O   0  0  0  0  0  0  0  0  0  0  0  0
   11.8363  -19.8974   26.9712 O   0  0  0  0  0  0  0  0  0  0  0  0
  2  1  1  1
  2 10  1  0
  2  3  1  0
  3  4  1  0
  4  9  2  0
  5  6  2  0
  5  4  1  0
  6  7  1  0
  7  8  2  0
  9  8  1  0
 10 11  2  0
 14 13  1  6
 13 12  1  0
 15 14  1  0
 15 10  1  0
 16 18  1  0
 16 14  1  0
 17 16  2  0
 19 18  1  0
 19 20  1  1
 21 20  1  0
 21 22  2  0
 23 22  1  0
 24 23  2  0
 25 26  2  0
 25 24  1  0
 26 21  1  0
 27 19  1  0
 28 27  1  0
 29 27  2  0
M  END
$$$$
