FSF.pdb
     RDKit          3D

 29 30  0  0  1  0  0  0  0  0999 V2000
    6.0662  -17.3230   21.3436 N   0  0  0  0  0  0  0  0  0  0  0  0
    7.1636  -16.5194   21.8359 C   0  0  1  0  0  0  0  0  0  0  0  0
    6.6948  -15.1400   22.2615 C   0  0  0  0  0  0  0  0  0  0  0  0
    7.2600  -14.1745   21.2942 C   0  0  0  0  0  0  0  0  0  0  0  0
    6.9805  -12.8330   21.4075 C   0  0  0  0  0  0  0  0  0  0  0  0
    7.4984  -11.9015   20.5116 C   0  0  0  0  0  0  0  0  0  0  0  0
    8.3219  -12.3580   19.4762 C   0  0  0  0  0  0  0  0  0  0  0  0
    8.6093  -13.6970   19.3518 C   0  0  0  0  0  0  0  0  0  0  0  0
    8.0770  -14.5885   20.2592 C   0  0  0  0  0  0  0  0  0  0  0  0
    7.8852  -17.1341   22.9438 C   0  0  0  0  0  0  0  0  0  0  0  0
    7.2649  -17.7377   23.8474 O   0  0  0  0  0  0  0  0  0  0  0  0
   11.9381  -17.2027   22.7696 O   0  0  0  0  0  0  0  0  0  0  0  0
   11.3367  -18.1607   23.5867 C   0  0  0  0  0  0  0  0  0  0  0  0
   10.0493  -17.5684   24.1088 C   0  0  2  0  0  0  0  0  0  0  0  0
    9.2972  -17.0415   22.9871 N   0  0  0  0  0  0  0  0  0  0  0  0
   10.3679  -16.5125   25.1003 C   0  0  0  0  0  0  0  0  0  0  0  0
   10.9691  -15.4476   24.7973 O   0  0  0  0  0  0  0  0  0  0  0  0
    9.9689  -16.7297   26.4482 N   0  0  0  0  0  0  0  0  0  0  0  0
   10.4030  -15.8831   27.5357 C   0  0  1  0  0  0  0  0  0  0  0  0
    9.1560  -15.2791   28.1497 C   0  0  0  0  0  0  0  0  0  0  0  0
    8.5393  -14.3292   27.1990 C   0  0  0  0  0  0  0  0  0  0  0  0
    7.4605  -14.7297   26.4424 C   0  0  0  0  0  0  0  0  0  0  0  0
    6.8888  -13.8186   25.5464 C   0  0  0  0  0  0  0  0  0  0  0  0
    7.3966  -12.5473   25.4258 C   0  0  0  0  0  0  0  0  0  0  0  0
    8.4780  -12.1506   26.1865 C   0  0  0  0  0  0  0  0  0  0  0  0
    9.0475  -13.0379   27.0700 C   0  0  0  0  0  0  0  0  0  0  0  0
   11.1668  -16.7086   28.4967 C   0  0  0  0  0  0  0  0  0  0  0  0
   11.3855  -18.0699   28.3407 O   0  0  0  0  0  0  0  0  0  0  0  0
   11.6520  -16.1589   29.5187 O   0  0  0  0  0  0  0  0  0  0  0  0
  2  1  1  1
  2 10  1  0
  2  3  1  0
  3  4  1  0
  4  9  2  0
  5  6  2  0
  5  4  1  0
  6  7  1  0
  7  8  2  0
  9  8  1  0
 10 11  2  0
 14 13  1  6
 13 12  1  0
 15 14  1  0
 15 10  1  0
 16 18  1  0
 16 14  1  0
 17 16  2  0
 19 18  1  0
 19 20  1  1
 21 20  1  0
 21 22  2  0
 23 22  1  0
 24 23  2  0
 25 26  2  0
 25 24  1  0
 26 21  1  0
 27 19  1  0
 28 27  1  0
 29 27  2  0
M  END
$$$$
