FSF.pdb
     RDKit          3D

 29 30  0  0  1  0  0  0  0  0999 V2000
    8.0062  -17.3061   18.1243 N   0  0  0  0  0  0  0  0  0  0  0  0
    8.1623  -16.2664   19.1179 C   0  0  1  0  0  0  0  0  0  0  0  0
    7.1546  -15.1495   18.9163 C   0  0  0  0  0  0  0  0  0  0  0  0
    7.4432  -14.1183   19.9363 C   0  0  0  0  0  0  0  0  0  0  0  0
    8.2806  -13.0675   19.6444 C   0  0  0  0  0  0  0  0  0  0  0  0
    8.5703  -12.0824   20.5848 C   0  0  0  0  0  0  0  0  0  0  0  0
    7.9869  -12.1786   21.8532 C   0  0  0  0  0  0  0  0  0  0  0  0
    7.1476  -13.2245   22.1579 C   0  0  0  0  0  0  0  0  0  0  0  0
    6.8854  -14.1805   21.1992 C   0  0  0  0  0  0  0  0  0  0  0  0
    8.0603  -16.7508   20.4893 C   0  0  0  0  0  0  0  0  0  0  0  0
    7.0831  -17.4464   20.8452 O   0  0  0  0  0  0  0  0  0  0  0  0
   11.2840  -17.8815   21.7909 O   0  0  0  0  0  0  0  0  0  0  0  0
   10.1221  -18.3521   22.4037 C   0  0  0  0  0  0  0  0  0  0  0  0
    9.2281  -17.1614   22.6566 C   0  0  2  0  0  0  0  0  0  0  0  0
    9.0799  -16.4258   21.4162 N   0  0  0  0  0  0  0  0  0  0  0  0
    9.8266  -16.3231   23.7236 C   0  0  0  0  0  0  0  0  0  0  0  0
   10.8487  -15.6095   23.5412 O   0  0  0  0  0  0  0  0  0  0  0  0
    9.2051  -16.3385   25.0028 N   0  0  0  0  0  0  0  0  0  0  0  0
    9.8459  -15.8146   26.1872 C   0  0  1  0  0  0  0  0  0  0  0  0
    8.7561  -15.5907   27.2163 C   0  0  0  0  0  0  0  0  0  0  0  0
    7.9712  -14.3889   26.8611 C   0  0  0  0  0  0  0  0  0  0  0  0
    7.7594  -14.0835   25.5350 C   0  0  0  0  0  0  0  0  0  0  0  0
    7.0150  -12.9418   25.2157 C   0  0  0  0  0  0  0  0  0  0  0  0
    6.5053  -12.1412   26.2097 C   0  0  0  0  0  0  0  0  0  0  0  0
    6.7202  -12.4516   27.5374 C   0  0  0  0  0  0  0  0  0  0  0  0
    7.4504  -13.5712   27.8624 C   0  0  0  0  0  0  0  0  0  0  0  0
   10.8632  -16.7886   26.6399 C   0  0  0  0  0  0  0  0  0  0  0  0
   11.0317  -18.0456   26.0769 O   0  0  0  0  0  0  0  0  0  0  0  0
   11.6265  -16.4733   27.5886 O   0  0  0  0  0  0  0  0  0  0  0  0
  2  1  1  6
  2 10  1  0
  2  3  1  0
  3  4  1  0
  4  9  2  0
  5  6  2  0
  5  4  1  0
  6  7  1  0
  7  8  2  0
  9  8  1  0
 10 11  2  0
 14 13  1  6
 13 12  1  0
 15 14  1  0
 15 10  1  0
 16 18  1  0
 16 14  1  0
 17 16  2  0
 19 18  1  0
 19 20  1  1
 21 20  1  0
 21 22  2  0
 23 22  1  0
 24 23  2  0
 25 26  2  0
 25 24  1  0
 26 21  1  0
 27 19  1  0
 28 27  1  0
 29 27  2  0
M  END
$$$$
