FSF.pdb
     RDKit          3D

 29 30  0  0  1  0  0  0  0  0999 V2000
    7.0784  -16.9850   20.1214 N   0  0  0  0  0  0  0  0  0  0  0  0
    8.4183  -16.9766   20.6666 C   0  0  1  0  0  0  0  0  0  0  0  0
    9.1808  -15.7330   20.2474 C   0  0  0  0  0  0  0  0  0  0  0  0
    8.3677  -14.5686   20.6595 C   0  0  0  0  0  0  0  0  0  0  0  0
    8.6900  -13.8628   21.7947 C   0  0  0  0  0  0  0  0  0  0  0  0
    7.9427  -12.7627   22.2069 C   0  0  0  0  0  0  0  0  0  0  0  0
    6.8396  -12.3788   21.4359 C   0  0  0  0  0  0  0  0  0  0  0  0
    6.5065  -13.0761   20.2984 C   0  0  0  0  0  0  0  0  0  0  0  0
    7.2717  -14.1603   19.9233 C   0  0  0  0  0  0  0  0  0  0  0  0
    8.4569  -17.0851   22.1200 C   0  0  0  0  0  0  0  0  0  0  0  0
    7.4426  -16.8199   22.8029 O   0  0  0  0  0  0  0  0  0  0  0  0
   11.8453  -18.5854   23.6921 O   0  0  0  0  0  0  0  0  0  0  0  0
   10.6864  -18.9077   24.3992 C   0  0  0  0  0  0  0  0  0  0  0  0
    9.6907  -17.7956   24.1700 C   0  0  2  0  0  0  0  0  0  0  0  0
    9.6556  -17.4945   22.7523 N   0  0  0  0  0  0  0  0  0  0  0  0
   10.0898  -16.6138   24.9722 C   0  0  0  0  0  0  0  0  0  0  0  0
   10.8625  -15.7194   24.5359 O   0  0  0  0  0  0  0  0  0  0  0  0
    9.5668  -16.5025   26.2902 N   0  0  0  0  0  0  0  0  0  0  0  0
   10.1154  -15.5960   27.2726 C   0  0  1  0  0  0  0  0  0  0  0  0
    8.9422  -14.9203   27.9535 C   0  0  0  0  0  0  0  0  0  0  0  0
    8.3166  -13.9509   27.0286 C   0  0  0  0  0  0  0  0  0  0  0  0
    7.1892  -14.3133   26.3255 C   0  0  0  0  0  0  0  0  0  0  0  0
    6.6098  -13.3843   25.4533 C   0  0  0  0  0  0  0  0  0  0  0  0
    7.1580  -12.1331   25.3028 C   0  0  0  0  0  0  0  0  0  0  0  0
    8.2880  -11.7746   26.0098 C   0  0  0  0  0  0  0  0  0  0  0  0
    8.8656  -12.6798   26.8696 C   0  0  0  0  0  0  0  0  0  0  0  0
   10.9483  -16.3743   28.2155 C   0  0  0  0  0  0  0  0  0  0  0  0
   11.8377  -15.8010   29.1131 O   0  0  0  0  0  0  0  0  0  0  0  0
   10.8558  -17.6287   28.2151 O   0  0  0  0  0  0  0  0  0  0  0  0
  2  1  1  1
  2 10  1  0
  2  3  1  0
  3  4  1  0
  4  9  2  0
  5  6  2  0
  5  4  1  0
  6  7  1  0
  7  8  2  0
  9  8  1  0
 10 11  2  0
 14 13  1  6
 13 12  1  0
 15 14  1  0
 15 10  1  0
 16 18  1  0
 16 14  1  0
 17 16  2  0
 19 18  1  0
 19 20  1  1
 21 20  1  0
 21 22  2  0
 23 22  1  0
 24 23  2  0
 25 26  2  0
 25 24  1  0
 26 21  1  0
 27 19  1  0
 28 27  1  0
 29 27  2  0
M  END
$$$$
