FSF.pdb
     RDKit          3D

 29 30  0  0  1  0  0  0  0  0999 V2000
   10.2532  -14.9793   21.5314 N   0  0  0  0  0  0  0  0  0  0  0  0
    9.1356  -14.5890   22.3628 C   0  0  1  0  0  0  0  0  0  0  0  0
    7.8394  -15.2138   21.8801 C   0  0  0  0  0  0  0  0  0  0  0  0
    7.4058  -14.4459   20.6929 C   0  0  0  0  0  0  0  0  0  0  0  0
    7.0882  -15.0952   19.5232 C   0  0  0  0  0  0  0  0  0  0  0  0
    6.6772  -14.3983   18.3901 C   0  0  0  0  0  0  0  0  0  0  0  0
    6.5905  -13.0033   18.4598 C   0  0  0  0  0  0  0  0  0  0  0  0
    6.9053  -12.3417   19.6235 C   0  0  0  0  0  0  0  0  0  0  0  0
    7.3084  -13.0676   20.7245 C   0  0  0  0  0  0  0  0  0  0  0  0
    9.3174  -14.9116   23.7730 C   0  0  0  0  0  0  0  0  0  0  0  0
   10.2591  -15.6500   24.1382 O   0  0  0  0  0  0  0  0  0  0  0  0
    6.2809  -14.5588   26.4040 O   0  0  0  0  0  0  0  0  0  0  0  0
    7.4530  -13.9788   26.8907 C   0  0  0  0  0  0  0  0  0  0  0  0
    8.6104  -14.6010   26.1464 C   0  0  2  0  0  0  0  0  0  0  0  0
    8.4164  -14.3801   24.7268 N   0  0  0  0  0  0  0  0  0  0  0  0
    8.6768  -16.0462   26.4727 C   0  0  0  0  0  0  0  0  0  0  0  0
    7.7575  -16.8568   26.1813 O   0  0  0  0  0  0  0  0  0  0  0  0
    9.8377  -16.5192   27.1447 N   0  0  0  0  0  0  0  0  0  0  0  0
    9.9138  -17.8350   27.7372 C   0  0  1  0  0  0  0  0  0  0  0  0
   11.1510  -18.5029   27.1715 C   0  0  0  0  0  0  0  0  0  0  0  0
   11.0600  -18.5588   25.6967 C   0  0  0  0  0  0  0  0  0  0  0  0
   11.6600  -17.5757   24.9415 C   0  0  0  0  0  0  0  0  0  0  0  0
   11.5639  -17.6428   23.5466 C   0  0  0  0  0  0  0  0  0  0  0  0
   10.8823  -18.6725   22.9434 C   0  0  0  0  0  0  0  0  0  0  0  0
   10.2828  -19.6555   23.7047 C   0  0  0  0  0  0  0  0  0  0  0  0
   10.3710  -19.5993   25.0762 C   0  0  0  0  0  0  0  0  0  0  0  0
    9.9713  -17.6846   29.2077 C   0  0  0  0  0  0  0  0  0  0  0  0
    9.9171  -16.4614   29.8606 O   0  0  0  0  0  0  0  0  0  0  0  0
   10.0753  -18.7158   29.9203 O   0  0  0  0  0  0  0  0  0  0  0  0
  2  1  1  6
  2 10  1  0
  2  3  1  0
  3  4  1  0
  4  9  2  0
  5  6  2  0
  5  4  1  0
  6  7  1  0
  7  8  2  0
  9  8  1  0
 10 11  2  0
 14 13  1  1
 13 12  1  0
 15 14  1  0
 15 10  1  0
 16 18  1  0
 16 14  1  0
 17 16  2  0
 19 18  1  0
 19 20  1  6
 21 20  1  0
 21 22  2  0
 23 22  1  0
 24 23  2  0
 25 26  2  0
 25 24  1  0
 26 21  1  0
 27 19  1  0
 28 27  1  0
 29 27  2  0
M  END
$$$$
