FSF.pdb
     RDKit          3D

 29 30  0  0  1  0  0  0  0  0999 V2000
    6.8306  -17.2570   20.9580 N   0  0  0  0  0  0  0  0  0  0  0  0
    7.7183  -16.4056   21.7194 C   0  0  1  0  0  0  0  0  0  0  0  0
    7.0232  -15.1298   22.1585 C   0  0  0  0  0  0  0  0  0  0  0  0
    7.3305  -14.0993   21.1432 C   0  0  0  0  0  0  0  0  0  0  0  0
    6.4856  -13.9011   20.0766 C   0  0  0  0  0  0  0  0  0  0  0  0
    6.7495  -12.9386   19.1057 C   0  0  0  0  0  0  0  0  0  0  0  0
    7.9069  -12.1622   19.2332 C   0  0  0  0  0  0  0  0  0  0  0  0
    8.7601  -12.3504   20.2952 C   0  0  0  0  0  0  0  0  0  0  0  0
    8.4639  -13.3140   21.2361 C   0  0  0  0  0  0  0  0  0  0  0  0
    8.2890  -17.0584   22.8915 C   0  0  0  0  0  0  0  0  0  0  0  0
    7.5805  -17.7911   23.6172 O   0  0  0  0  0  0  0  0  0  0  0  0
   12.2444  -17.1651   23.1861 O   0  0  0  0  0  0  0  0  0  0  0  0
   11.5661  -18.0706   24.0027 C   0  0  0  0  0  0  0  0  0  0  0  0
   10.2504  -17.4370   24.3879 C   0  0  2  0  0  0  0  0  0  0  0  0
    9.6554  -16.8547   23.2011 N   0  0  0  0  0  0  0  0  0  0  0  0
   10.4915  -16.4175   25.4376 C   0  0  0  0  0  0  0  0  0  0  0  0
   11.0702  -15.3222   25.2081 O   0  0  0  0  0  0  0  0  0  0  0  0
   10.0422  -16.7071   26.7557 N   0  0  0  0  0  0  0  0  0  0  0  0
   10.3852  -15.8860   27.8941 C   0  0  1  0  0  0  0  0  0  0  0  0
    9.0820  -15.4027   28.4983 C   0  0  0  0  0  0  0  0  0  0  0  0
    8.4174  -14.4633   27.5696 C   0  0  0  0  0  0  0  0  0  0  0  0
    7.3933  -14.9131   26.7662 C   0  0  0  0  0  0  0  0  0  0  0  0
    6.7752  -14.0113   25.8920 C   0  0  0  0  0  0  0  0  0  0  0  0
    7.1846  -12.7005   25.8381 C   0  0  0  0  0  0  0  0  0  0  0  0
    8.2115  -12.2545   26.6455 C   0  0  0  0  0  0  0  0  0  0  0  0
    8.8259  -13.1322   27.5082 C   0  0  0  0  0  0  0  0  0  0  0  0
   11.1810  -16.7013   28.8377 C   0  0  0  0  0  0  0  0  0  0  0  0
   11.4727  -18.0435   28.6411 O   0  0  0  0  0  0  0  0  0  0  0  0
   11.6254  -16.1605   29.8828 O   0  0  0  0  0  0  0  0  0  0  0  0
  2  1  1  1
  2 10  1  0
  2  3  1  0
  3  4  1  0
  4  9  2  0
  5  6  2  0
  5  4  1  0
  6  7  1  0
  7  8  2  0
  9  8  1  0
 10 11  2  0
 14 13  1  6
 13 12  1  0
 15 14  1  0
 15 10  1  0
 16 18  1  0
 16 14  1  0
 17 16  2  0
 19 18  1  0
 19 20  1  1
 21 20  1  0
 21 22  2  0
 23 22  1  0
 24 23  2  0
 25 26  2  0
 25 24  1  0
 26 21  1  0
 27 19  1  0
 28 27  1  0
 29 27  2  0
M  END
$$$$
