FSF.pdb
     RDKit          3D

 29 30  0  0  1  0  0  0  0  0999 V2000
    6.0773  -16.9456   21.3197 N   0  0  0  0  0  0  0  0  0  0  0  0
    7.3122  -16.3809   21.8184 C   0  0  1  0  0  0  0  0  0  0  0  0
    7.1209  -14.9479   22.2806 C   0  0  0  0  0  0  0  0  0  0  0  0
    7.5631  -14.0741   21.1724 C   0  0  0  0  0  0  0  0  0  0  0  0
    6.6758  -13.6880   20.1955 C   0  0  0  0  0  0  0  0  0  0  0  0
    7.0639  -12.8662   19.1407 C   0  0  0  0  0  0  0  0  0  0  0  0
    8.3930  -12.4313   19.0879 C   0  0  0  0  0  0  0  0  0  0  0  0
    9.2904  -12.8102   20.0586 C   0  0  0  0  0  0  0  0  0  0  0  0
    8.8674  -13.6251   21.0875 C   0  0  0  0  0  0  0  0  0  0  0  0
    7.9086  -17.1502   22.9038 C   0  0  0  0  0  0  0  0  0  0  0  0
    7.1853  -17.6895   23.7707 O   0  0  0  0  0  0  0  0  0  0  0  0
   11.5696  -18.5467   22.4514 O   0  0  0  0  0  0  0  0  0  0  0  0
   10.8025  -19.0992   23.4776 C   0  0  0  0  0  0  0  0  0  0  0  0
    9.9554  -17.9917   24.0579 C   0  0  2  0  0  0  0  0  0  0  0  0
    9.3168  -17.2815   22.9674 N   0  0  0  0  0  0  0  0  0  0  0  0
   10.8163  -17.0953   24.8670 C   0  0  0  0  0  0  0  0  0  0  0  0
   11.7378  -16.3965   24.3672 O   0  0  0  0  0  0  0  0  0  0  0  0
   10.5759  -17.0353   26.2676 N   0  0  0  0  0  0  0  0  0  0  0  0
   11.4890  -16.3984   27.1888 C   0  0  1  0  0  0  0  0  0  0  0  0
   11.3969  -14.9062   26.9407 C   0  0  0  0  0  0  0  0  0  0  0  0
   10.0047  -14.4500   27.1418 C   0  0  0  0  0  0  0  0  0  0  0  0
    9.0482  -14.7517   26.1981 C   0  0  0  0  0  0  0  0  0  0  0  0
    7.7352  -14.3118   26.4031 C   0  0  0  0  0  0  0  0  0  0  0  0
    7.4086  -13.5917   27.5271 C   0  0  0  0  0  0  0  0  0  0  0  0
    8.3709  -13.2919   28.4702 C   0  0  0  0  0  0  0  0  0  0  0  0
    9.6643  -13.7193   28.2787 C   0  0  0  0  0  0  0  0  0  0  0  0
   11.1006  -16.7704   28.5669 C   0  0  0  0  0  0  0  0  0  0  0  0
   11.7315  -16.2854   29.7035 O   0  0  0  0  0  0  0  0  0  0  0  0
   10.1452  -17.5713   28.7336 O   0  0  0  0  0  0  0  0  0  0  0  0
  2  1  1  1
  2 10  1  0
  2  3  1  0
  3  4  1  0
  4  9  2  0
  5  6  2  0
  5  4  1  0
  6  7  1  0
  7  8  2  0
  9  8  1  0
 10 11  2  0
 14 13  1  6
 13 12  1  0
 15 14  1  0
 15 10  1  0
 16 18  1  0
 16 14  1  0
 17 16  2  0
 19 18  1  0
 19 20  1  1
 21 20  1  0
 21 22  2  0
 23 22  1  0
 24 23  2  0
 25 26  2  0
 25 24  1  0
 26 21  1  0
 27 19  1  0
 28 27  1  0
 29 27  2  0
M  END
$$$$
