FSF.pdb
     RDKit          3D

 29 30  0  0  1  0  0  0  0  0999 V2000
    6.0907  -17.4265   20.5526 N   0  0  0  0  0  0  0  0  0  0  0  0
    7.1604  -16.7333   21.2366 C   0  0  1  0  0  0  0  0  0  0  0  0
    6.6937  -15.3987   21.7887 C   0  0  0  0  0  0  0  0  0  0  0  0
    7.4580  -14.3482   21.0820 C   0  0  0  0  0  0  0  0  0  0  0  0
    8.4608  -14.6894   20.2053 C   0  0  0  0  0  0  0  0  0  0  0  0
    9.1967  -13.7220   19.5262 C   0  0  0  0  0  0  0  0  0  0  0  0
    8.8960  -12.3740   19.7526 C   0  0  0  0  0  0  0  0  0  0  0  0
    7.8955  -12.0195   20.6269 C   0  0  0  0  0  0  0  0  0  0  0  0
    7.1892  -13.0072   21.2804 C   0  0  0  0  0  0  0  0  0  0  0  0
    7.7587  -17.5070   22.3179 C   0  0  0  0  0  0  0  0  0  0  0  0
    7.0412  -18.0042   23.2142 O   0  0  0  0  0  0  0  0  0  0  0  0
   11.0429  -19.5464   21.8402 O   0  0  0  0  0  0  0  0  0  0  0  0
   10.2572  -19.7329   22.9781 C   0  0  0  0  0  0  0  0  0  0  0  0
    9.8095  -18.3696   23.4490 C   0  0  2  0  0  0  0  0  0  0  0  0
    9.1622  -17.6907   22.3437 N   0  0  0  0  0  0  0  0  0  0  0  0
   10.9876  -17.6153   23.9420 C   0  0  0  0  0  0  0  0  0  0  0  0
   11.9022  -17.2005   23.1813 O   0  0  0  0  0  0  0  0  0  0  0  0
   11.0708  -17.3587   25.3385 N   0  0  0  0  0  0  0  0  0  0  0  0
   12.2611  -16.8299   25.9643 C   0  0  1  0  0  0  0  0  0  0  0  0
   12.1544  -15.3191   25.9096 C   0  0  0  0  0  0  0  0  0  0  0  0
   10.9129  -14.8800   26.5822 C   0  0  0  0  0  0  0  0  0  0  0  0
    9.7610  -14.7198   25.8445 C   0  0  0  0  0  0  0  0  0  0  0  0
    8.5945  -14.3026   26.4962 C   0  0  0  0  0  0  0  0  0  0  0  0
    8.6008  -14.0578   27.8485 C   0  0  0  0  0  0  0  0  0  0  0  0
    9.7579  -14.2199   28.5835 C   0  0  0  0  0  0  0  0  0  0  0  0
   10.9099  -14.6294   27.9531 C   0  0  0  0  0  0  0  0  0  0  0  0
   12.3310  -17.3447   27.3494 C   0  0  0  0  0  0  0  0  0  0  0  0
   11.3263  -18.0932   27.9456 O   0  0  0  0  0  0  0  0  0  0  0  0
   13.3538  -17.0977   28.0385 O   0  0  0  0  0  0  0  0  0  0  0  0
  2  1  1  1
  2 10  1  0
  2  3  1  0
  3  4  1  0
  4  9  2  0
  5  6  2  0
  5  4  1  0
  6  7  1  0
  7  8  2  0
  9  8  1  0
 10 11  2  0
 14 13  1  6
 13 12  1  0
 15 14  1  0
 15 10  1  0
 16 18  1  0
 16 14  1  0
 17 16  2  0
 19 18  1  0
 19 20  1  1
 21 20  1  0
 21 22  2  0
 23 22  1  0
 24 23  2  0
 25 26  2  0
 25 24  1  0
 26 21  1  0
 27 19  1  0
 28 27  1  0
 29 27  2  0
M  END
$$$$
