FSF.pdb
     RDKit          3D

 29 30  0  0  1  0  0  0  0  0999 V2000
    6.6419  -17.7649   20.1605 N   0  0  0  0  0  0  0  0  0  0  0  0
    7.2591  -16.6847   20.8985 C   0  0  1  0  0  0  0  0  0  0  0  0
    6.3433  -15.4776   20.9864 C   0  0  0  0  0  0  0  0  0  0  0  0
    7.2044  -14.2769   20.9235 C   0  0  0  0  0  0  0  0  0  0  0  0
    7.7152  -13.8505   19.7201 C   0  0  0  0  0  0  0  0  0  0  0  0
    8.5284  -12.7239   19.6307 C   0  0  0  0  0  0  0  0  0  0  0  0
    8.8237  -12.0194   20.8033 C   0  0  0  0  0  0  0  0  0  0  0  0
    8.3192  -12.4353   22.0131 C   0  0  0  0  0  0  0  0  0  0  0  0
    7.5173  -13.5562   22.0604 C   0  0  0  0  0  0  0  0  0  0  0  0
    7.6733  -17.0606   22.2450 C   0  0  0  0  0  0  0  0  0  0  0  0
    6.8447  -17.5336   23.0545 O   0  0  0  0  0  0  0  0  0  0  0  0
   11.5770  -17.6946   22.7966 O   0  0  0  0  0  0  0  0  0  0  0  0
   10.6504  -18.3670   23.5944 C   0  0  0  0  0  0  0  0  0  0  0  0
    9.5215  -17.4071   23.8862 C   0  0  2  0  0  0  0  0  0  0  0  0
    9.0248  -16.8851   22.6282 N   0  0  0  0  0  0  0  0  0  0  0  0
   10.0202  -16.3258   24.7703 C   0  0  0  0  0  0  0  0  0  0  0  0
   10.6244  -15.3095   24.3351 O   0  0  0  0  0  0  0  0  0  0  0  0
    9.7969  -16.4599   26.1686 N   0  0  0  0  0  0  0  0  0  0  0  0
   10.3922  -15.5728   27.1416 C   0  0  1  0  0  0  0  0  0  0  0  0
    9.3050  -15.2132   28.1343 C   0  0  0  0  0  0  0  0  0  0  0  0
    8.3214  -14.3126   27.4955 C   0  0  0  0  0  0  0  0  0  0  0  0
    8.6074  -12.9708   27.3748 C   0  0  0  0  0  0  0  0  0  0  0  0
    7.6653  -12.1316   26.7684 C   0  0  0  0  0  0  0  0  0  0  0  0
    6.4765  -12.6399   26.3023 C   0  0  0  0  0  0  0  0  0  0  0  0
    6.1946  -13.9855   26.4257 C   0  0  0  0  0  0  0  0  0  0  0  0
    7.1133  -14.8191   27.0200 C   0  0  0  0  0  0  0  0  0  0  0  0
   11.5326  -16.2697   27.7758 C   0  0  0  0  0  0  0  0  0  0  0  0
   12.5229  -15.6247   28.5028 O   0  0  0  0  0  0  0  0  0  0  0  0
   11.6232  -17.5187   27.6578 O   0  0  0  0  0  0  0  0  0  0  0  0
  2  1  1  1
  2 10  1  0
  2  3  1  0
  3  4  1  0
  4  9  2  0
  5  6  2  0
  5  4  1  0
  6  7  1  0
  7  8  2  0
  9  8  1  0
 10 11  2  0
 14 13  1  6
 13 12  1  0
 15 14  1  0
 15 10  1  0
 16 18  1  0
 16 14  1  0
 17 16  2  0
 19 18  1  0
 19 20  1  1
 21 20  1  0
 21 22  2  0
 23 22  1  0
 24 23  2  0
 25 26  2  0
 25 24  1  0
 26 21  1  0
 27 19  1  0
 28 27  1  0
 29 27  2  0
M  END
$$$$
