FSF.pdb
     RDKit          3D

 29 30  0  0  1  0  0  0  0  0999 V2000
   10.0267  -18.8756   19.2436 N   0  0  0  0  0  0  0  0  0  0  0  0
    9.1566  -18.4633   20.3231 C   0  0  1  0  0  0  0  0  0  0  0  0
    9.4897  -19.1897   21.6135 C   0  0  0  0  0  0  0  0  0  0  0  0
    9.3463  -20.6367   21.3437 C   0  0  0  0  0  0  0  0  0  0  0  0
    9.5248  -21.5528   22.3535 C   0  0  0  0  0  0  0  0  0  0  0  0
    9.3961  -22.9208   22.1287 C   0  0  0  0  0  0  0  0  0  0  0  0
    9.0769  -23.3578   20.8381 C   0  0  0  0  0  0  0  0  0  0  0  0
    8.8957  -22.4519   19.8194 C   0  0  0  0  0  0  0  0  0  0  0  0
    9.0319  -21.1051   20.0821 C   0  0  0  0  0  0  0  0  0  0  0  0
    9.1773  -17.0269   20.5724 C   0  0  0  0  0  0  0  0  0  0  0  0
   10.2086  -16.3578   20.3398 O   0  0  0  0  0  0  0  0  0  0  0  0
    5.7404  -15.3834   21.8485 O   0  0  0  0  0  0  0  0  0  0  0  0
    6.5674  -14.4819   21.1774 C   0  0  0  0  0  0  0  0  0  0  0  0
    7.9888  -14.9679   21.3323 C   0  0  2  0  0  0  0  0  0  0  0  0
    8.0168  -16.3954   21.0810 N   0  0  0  0  0  0  0  0  0  0  0  0
    8.4672  -14.6416   22.6977 C   0  0  0  0  0  0  0  0  0  0  0  0
    8.6684  -13.4610   23.0887 O   0  0  0  0  0  0  0  0  0  0  0  0
    8.7039  -15.7229   23.5909 N   0  0  0  0  0  0  0  0  0  0  0  0
    9.2952  -15.5402   24.8967 C   0  0  1  0  0  0  0  0  0  0  0  0
    8.1531  -15.4261   25.8863 C   0  0  0  0  0  0  0  0  0  0  0  0
    7.8159  -14.0023   26.1000 C   0  0  0  0  0  0  0  0  0  0  0  0
    8.8076  -13.1155   26.4561 C   0  0  0  0  0  0  0  0  0  0  0  0
    8.4715  -11.7713   26.6555 C   0  0  0  0  0  0  0  0  0  0  0  0
    7.1742  -11.3461   26.4980 C   0  0  0  0  0  0  0  0  0  0  0  0
    6.1838  -12.2389   26.1409 C   0  0  0  0  0  0  0  0  0  0  0  0
    6.5030  -13.5621   25.9425 C   0  0  0  0  0  0  0  0  0  0  0  0
   10.1774  -16.6939   25.1777 C   0  0  0  0  0  0  0  0  0  0  0  0
   11.1350  -16.7060   26.1817 O   0  0  0  0  0  0  0  0  0  0  0  0
   10.0644  -17.7307   24.4744 O   0  0  0  0  0  0  0  0  0  0  0  0
  2  1  1  6
  2 10  1  0
  2  3  1  0
  3  4  1  0
  4  9  2  0
  5  6  2  0
  5  4  1  0
  6  7  1  0
  7  8  2  0
  9  8  1  0
 10 11  2  0
 14 13  1  1
 13 12  1  0
 15 14  1  0
 15 10  1  0
 16 18  1  0
 16 14  1  0
 17 16  2  0
 19 18  1  0
 19 20  1  1
 21 20  1  0
 21 22  2  0
 23 22  1  0
 24 23  2  0
 25 26  2  0
 25 24  1  0
 26 21  1  0
 27 19  1  0
 28 27  1  0
 29 27  2  0
M  END
$$$$
