FSF.pdb
     RDKit          3D

 29 30  0  0  1  0  0  0  0  0999 V2000
    6.2412  -17.1764   21.2745 N   0  0  0  0  0  0  0  0  0  0  0  0
    7.2789  -16.3650   21.8722 C   0  0  1  0  0  0  0  0  0  0  0  0
    6.7488  -15.0063   22.2925 C   0  0  0  0  0  0  0  0  0  0  0  0
    7.2707  -14.0202   21.3217 C   0  0  0  0  0  0  0  0  0  0  0  0
    8.4766  -13.3979   21.5435 C   0  0  0  0  0  0  0  0  0  0  0  0
    8.9924  -12.4656   20.6471 C   0  0  0  0  0  0  0  0  0  0  0  0
    8.2532  -12.1658   19.4973 C   0  0  0  0  0  0  0  0  0  0  0  0
    7.0458  -12.7811   19.2636 C   0  0  0  0  0  0  0  0  0  0  0  0
    6.5686  -13.6990   20.1754 C   0  0  0  0  0  0  0  0  0  0  0  0
    7.9232  -16.9943   23.0188 C   0  0  0  0  0  0  0  0  0  0  0  0
    7.2371  -17.5462   23.9078 O   0  0  0  0  0  0  0  0  0  0  0  0
   11.9529  -17.3751   22.9711 O   0  0  0  0  0  0  0  0  0  0  0  0
   11.2562  -18.2338   23.8221 C   0  0  0  0  0  0  0  0  0  0  0  0
   10.0139  -17.5083   24.2814 C   0  0  2  0  0  0  0  0  0  0  0  0
    9.3354  -16.9750   23.1165 N   0  0  0  0  0  0  0  0  0  0  0  0
   10.4009  -16.4358   25.2298 C   0  0  0  0  0  0  0  0  0  0  0  0
   11.0834  -15.4334   24.8884 O   0  0  0  0  0  0  0  0  0  0  0  0
    9.9733  -16.5621   26.5805 N   0  0  0  0  0  0  0  0  0  0  0  0
   10.3845  -15.6437   27.6175 C   0  0  1  0  0  0  0  0  0  0  0  0
    9.1203  -15.0847   28.2388 C   0  0  0  0  0  0  0  0  0  0  0  0
    8.3990  -14.2570   27.2482 C   0  0  0  0  0  0  0  0  0  0  0  0
    7.3586  -14.8067   26.5327 C   0  0  0  0  0  0  0  0  0  0  0  0
    6.6867  -14.0100   25.5981 C   0  0  0  0  0  0  0  0  0  0  0  0
    7.0604  -12.7024   25.3998 C   0  0  0  0  0  0  0  0  0  0  0  0
    8.1039  -12.1560   26.1195 C   0  0  0  0  0  0  0  0  0  0  0  0
    8.7710  -12.9300   27.0403 C   0  0  0  0  0  0  0  0  0  0  0  0
   11.2190  -16.3799   28.5921 C   0  0  0  0  0  0  0  0  0  0  0  0
   11.4984  -17.7358   28.4993 O   0  0  0  0  0  0  0  0  0  0  0  0
   11.7105  -15.7540   29.5663 O   0  0  0  0  0  0  0  0  0  0  0  0
  2  1  1  1
  2 10  1  0
  2  3  1  0
  3  4  1  0
  4  9  2  0
  5  6  2  0
  5  4  1  0
  6  7  1  0
  7  8  2  0
  9  8  1  0
 10 11  2  0
 14 13  1  6
 13 12  1  0
 15 14  1  0
 15 10  1  0
 16 18  1  0
 16 14  1  0
 17 16  2  0
 19 18  1  0
 19 20  1  1
 21 20  1  0
 21 22  2  0
 23 22  1  0
 24 23  2  0
 25 26  2  0
 25 24  1  0
 26 21  1  0
 27 19  1  0
 28 27  1  0
 29 27  2  0
M  END
$$$$
