VEW.pdb
     RDKit          3D

 31 32  0  0  1  0  0  0  0  0999 V2000
   12.3642  -23.5517    1.4702 C   0  0  0  0  0  0  0  0  0  0  0  0
   13.5901  -24.3843    1.1808 C   0  0  1  0  0  0  0  0  0  0  0  0
   13.3683  -25.3373    0.0522 C   0  0  0  0  0  0  0  0  0  0  0  0
   14.8419  -23.5414    1.0540 C   0  0  2  0  0  0  0  0  0  0  0  0
   15.9396  -24.4038    0.5884 N   0  0  0  0  0  0  0  0  0  0  0  0
   15.2313  -22.8644    2.3077 C   0  0  0  0  0  0  0  0  0  0  0  0
   14.4540  -22.0171    2.8586 O   0  0  0  0  0  0  0  0  0  0  0  0
   16.4510  -23.0975    2.9664 N   0  0  0  0  0  0  0  0  0  0  0  0
   16.7994  -22.4732    4.2332 C   0  0  1  0  0  0  0  0  0  0  0  0
   17.7425  -23.2837    5.0381 C   0  0  0  0  0  0  0  0  0  0  0  0
   17.0465  -24.4770    5.6168 C   0  0  0  0  0  0  0  0  0  0  0  0
   16.8017  -24.2819    7.0525 C   0  0  0  0  0  0  0  0  0  0  0  0
   16.5587  -23.1738    7.5745 O   0  0  0  0  0  0  0  0  0  0  0  0
   17.3945  -21.1028    3.9600 C   0  0  0  0  0  0  0  0  0  0  0  0
   17.9065  -20.8839    2.8500 O   0  0  0  0  0  0  0  0  0  0  0  0
   16.8277  -25.3657    7.9461 O   0  0  0  0  0  0  0  0  0  0  0  0
   17.3833  -20.0692    4.9269 N   0  0  0  0  0  0  0  0  0  0  0  0
   17.7819  -18.6966    4.6550 C   0  0  1  0  0  0  0  0  0  0  0  0
   17.1435  -18.1665    3.4186 C   0  0  0  0  0  0  0  0  0  0  0  0
   17.6016  -16.8008    3.1129 C   0  0  0  0  0  0  0  0  0  0  0  0
   16.9412  -15.6012    3.4139 C   0  0  0  0  0  0  0  0  0  0  0  0
   17.6634  -14.5737    2.9370 N   0  0  0  0  0  0  0  0  0  0  0  0
   18.7764  -15.0152    2.3312 C   0  0  0  0  0  0  0  0  0  0  0  0
   19.8235  -14.3572    1.7133 C   0  0  0  0  0  0  0  0  0  0  0  0
   20.8676  -15.0813    1.1867 C   0  0  0  0  0  0  0  0  0  0  0  0
   20.8644  -16.4682    1.2785 C   0  0  0  0  0  0  0  0  0  0  0  0
   19.8089  -17.0861    1.8980 C   0  0  0  0  0  0  0  0  0  0  0  0
   18.7397  -16.3841    2.4390 C   0  0  0  0  0  0  0  0  0  0  0  0
   17.7721  -17.8406    5.8157 C   0  0  0  0  0  0  0  0  0  0  0  0
   16.8692  -18.0932    6.7025 O   0  0  0  0  0  0  0  0  0  0  0  0
   18.6032  -16.7966    6.0990 O   0  0  0  0  0  0  0  0  0  0  0  0
  2  1  1  6
  2  3  1  0
  4  2  1  0
  4  5  1  1
  6  4  1  0
  6  7  2  0
  8  6  1  0
  9  8  1  0
  9 10  1  6
 11 10  1  0
 12 13  2  0
 12 11  1  0
 14  9  1  0
 15 14  2  0
 16 12  1  0
 17 14  1  0
 18 19  1  6
 18 17  1  0
 20 19  1  0
 21 20  2  0
 22 23  1  0
 22 21  1  0
 23 28  2  0
 24 25  2  0
 24 23  1  0
 25 26  1  0
 26 27  2  0
 28 20  1  0
 28 27  1  0
 29 18  1  0
 30 29  2  0
 31 29  1  0
M  END
$$$$
