VEW.pdb
     RDKit          3D

 31 32  0  0  1  0  0  0  0  0999 V2000
   26.1842  -16.8012  -16.8995 C   0  0  0  0  0  0  0  0  0  0  0  0
   27.1961  -17.7526  -17.4916 C   0  0  1  0  0  0  0  0  0  0  0  0
   28.1221  -17.0674  -18.4426 C   0  0  0  0  0  0  0  0  0  0  0  0
   27.8874  -18.5888  -16.4349 C   0  0  2  0  0  0  0  0  0  0  0  0
   28.8049  -19.5232  -17.1061 N   0  0  0  0  0  0  0  0  0  0  0  0
   26.9559  -19.3359  -15.5656 C   0  0  0  0  0  0  0  0  0  0  0  0
   26.2380  -20.2777  -16.0382 O   0  0  0  0  0  0  0  0  0  0  0  0
   26.7968  -19.0718  -14.1942 N   0  0  0  0  0  0  0  0  0  0  0  0
   25.8306  -19.7690  -13.3598 C   0  0  1  0  0  0  0  0  0  0  0  0
   25.9120  -19.3814  -11.9324 C   0  0  0  0  0  0  0  0  0  0  0  0
   24.8699  -20.1019  -11.1333 C   0  0  0  0  0  0  0  0  0  0  0  0
   25.2432  -21.5120  -10.9562 C   0  0  0  0  0  0  0  0  0  0  0  0
   26.3542  -21.9848  -11.2748 O   0  0  0  0  0  0  0  0  0  0  0  0
   24.4340  -19.4991  -13.8924 C   0  0  0  0  0  0  0  0  0  0  0  0
   24.1268  -18.3365  -14.2024 O   0  0  0  0  0  0  0  0  0  0  0  0
   24.3424  -22.4360  -10.4007 O   0  0  0  0  0  0  0  0  0  0  0  0
   23.4742  -20.5276  -14.0477 N   0  0  0  0  0  0  0  0  0  0  0  0
   22.1174  -20.3087  -14.5252 C   0  0  1  0  0  0  0  0  0  0  0  0
   22.0742  -20.0907  -15.9976 C   0  0  0  0  0  0  0  0  0  0  0  0
   20.7147  -19.7633  -16.4590 C   0  0  0  0  0  0  0  0  0  0  0  0
   20.0299  -18.5532  -16.2782 C   0  0  0  0  0  0  0  0  0  0  0  0
   18.8013  -18.6633  -16.8101 N   0  0  0  0  0  0  0  0  0  0  0  0
   18.6202  -19.8822  -17.3411 C   0  0  0  0  0  0  0  0  0  0  0  0
   17.5535  -20.4596  -18.0044 C   0  0  0  0  0  0  0  0  0  0  0  0
   17.6579  -21.7497  -18.4700 C   0  0  0  0  0  0  0  0  0  0  0  0
   18.8333  -22.4646  -18.2713 C   0  0  0  0  0  0  0  0  0  0  0  0
   19.8698  -21.8594  -17.6089 C   0  0  0  0  0  0  0  0  0  0  0  0
   19.7959  -20.5593  -17.1261 C   0  0  0  0  0  0  0  0  0  0  0  0
   21.1446  -21.2166  -13.9689 C   0  0  0  0  0  0  0  0  0  0  0  0
   21.5728  -22.3963  -13.6678 O   0  0  0  0  0  0  0  0  0  0  0  0
   19.8247  -20.9842  -13.7146 O   0  0  0  0  0  0  0  0  0  0  0  0
  2  1  1  1
  2  3  1  0
  4  2  1  0
  4  5  1  6
  6  4  1  0
  6  7  2  0
  8  6  1  0
  9  8  1  0
  9 10  1  1
 11 10  1  0
 12 13  2  0
 12 11  1  0
 14  9  1  0
 15 14  2  0
 16 12  1  0
 17 14  1  0
 18 19  1  6
 18 17  1  0
 20 19  1  0
 21 20  2  0
 22 23  1  0
 22 21  1  0
 23 28  2  0
 24 25  2  0
 24 23  1  0
 25 26  1  0
 26 27  2  0
 28 20  1  0
 28 27  1  0
 29 18  1  0
 30 29  2  0
 31 29  1  0
M  END
$$$$
