VEW.pdb
     RDKit          3D

 31 32  0  0  1  0  0  0  0  0999 V2000
   26.2816  -15.0481  -16.9797 C   0  0  0  0  0  0  0  0  0  0  0  0
   26.0370  -16.5259  -16.7893 C   0  0  1  0  0  0  0  0  0  0  0  0
   24.7814  -16.9784  -17.4603 C   0  0  0  0  0  0  0  0  0  0  0  0
   27.2588  -17.3587  -17.1164 C   0  0  2  0  0  0  0  0  0  0  0  0
   27.5869  -17.1672  -18.5381 N   0  0  0  0  0  0  0  0  0  0  0  0
   27.0911  -18.7976  -16.8284 C   0  0  0  0  0  0  0  0  0  0  0  0
   26.1193  -19.4530  -17.3301 O   0  0  0  0  0  0  0  0  0  0  0  0
   27.9644  -19.5289  -16.0049 N   0  0  0  0  0  0  0  0  0  0  0  0
   27.7551  -20.9301  -15.6745 C   0  0  1  0  0  0  0  0  0  0  0  0
   28.9607  -21.7626  -15.8924 C   0  0  0  0  0  0  0  0  0  0  0  0
   29.2937  -21.8315  -17.3511 C   0  0  0  0  0  0  0  0  0  0  0  0
   28.5315  -22.9066  -18.0011 C   0  0  0  0  0  0  0  0  0  0  0  0
   27.9295  -22.7764  -19.0874 O   0  0  0  0  0  0  0  0  0  0  0  0
   27.3073  -21.0334  -14.2269 C   0  0  0  0  0  0  0  0  0  0  0  0
   28.1620  -20.9538  -13.3296 O   0  0  0  0  0  0  0  0  0  0  0  0
   28.4350  -24.1813  -17.4183 O   0  0  0  0  0  0  0  0  0  0  0  0
   25.9503  -21.2158  -13.8684 N   0  0  0  0  0  0  0  0  0  0  0  0
   25.4363  -21.0490  -12.5176 C   0  0  1  0  0  0  0  0  0  0  0  0
   26.0952  -19.9183  -11.8073 C   0  0  0  0  0  0  0  0  0  0  0  0
   26.3807  -20.2518  -10.4017 C   0  0  0  0  0  0  0  0  0  0  0  0
   25.5216  -20.0938   -9.3049 C   0  0  0  0  0  0  0  0  0  0  0  0
   26.1638  -20.4766   -8.1888 N   0  0  0  0  0  0  0  0  0  0  0  0
   27.4098  -20.8854   -8.4733 C   0  0  0  0  0  0  0  0  0  0  0  0
   28.4309  -21.3789   -7.6827 C   0  0  0  0  0  0  0  0  0  0  0  0
   29.6228  -21.7487   -8.2613 C   0  0  0  0  0  0  0  0  0  0  0  0
   29.7939  -21.6243   -9.6350 C   0  0  0  0  0  0  0  0  0  0  0  0
   28.7592  -21.1306  -10.3868 C   0  0  0  0  0  0  0  0  0  0  0  0
   27.5442  -20.7479   -9.8334 C   0  0  0  0  0  0  0  0  0  0  0  0
   23.9999  -21.1355  -12.4201 C   0  0  0  0  0  0  0  0  0  0  0  0
   23.5322  -21.6451  -11.3306 O   0  0  0  0  0  0  0  0  0  0  0  0
   23.0685  -20.7404  -13.3352 O   0  0  0  0  0  0  0  0  0  0  0  0
  2  1  1  6
  2  3  1  0
  4  2  1  0
  4  5  1  6
  6  4  1  0
  6  7  2  0
  8  6  1  0
  9  8  1  0
  9 10  1  1
 11 10  1  0
 12 13  2  0
 12 11  1  0
 14  9  1  0
 15 14  2  0
 16 12  1  0
 17 14  1  0
 18 19  1  6
 18 17  1  0
 20 19  1  0
 21 20  2  0
 22 23  1  0
 22 21  1  0
 23 28  2  0
 24 25  2  0
 24 23  1  0
 25 26  1  0
 26 27  2  0
 28 20  1  0
 28 27  1  0
 29 18  1  0
 30 29  2  0
 31 29  1  0
M  END
$$$$
