VEW.pdb
     RDKit          3D

 31 32  0  0  1  0  0  0  0  0999 V2000
   29.4712  -19.0059  -15.3072 C   0  0  0  0  0  0  0  0  0  0  0  0
   29.2616  -17.9183  -16.3333 C   0  0  1  0  0  0  0  0  0  0  0  0
   30.5252  -17.5716  -17.0505 C   0  0  0  0  0  0  0  0  0  0  0  0
   28.0825  -18.2020  -17.2404 C   0  0  2  0  0  0  0  0  0  0  0  0
   27.9614  -17.0987  -18.2067 N   0  0  0  0  0  0  0  0  0  0  0  0
   26.8067  -18.3797  -16.5176 C   0  0  0  0  0  0  0  0  0  0  0  0
   26.2033  -17.3797  -16.0062 O   0  0  0  0  0  0  0  0  0  0  0  0
   26.1820  -19.6271  -16.3456 N   0  0  0  0  0  0  0  0  0  0  0  0
   24.9523  -19.7998  -15.5879 C   0  0  1  0  0  0  0  0  0  0  0  0
   23.8395  -20.3368  -16.4048 C   0  0  0  0  0  0  0  0  0  0  0  0
   23.2923  -19.2748  -17.3081 C   0  0  0  0  0  0  0  0  0  0  0  0
   22.5078  -18.3000  -16.5375 C   0  0  0  0  0  0  0  0  0  0  0  0
   21.6046  -18.6111  -15.7333 O   0  0  0  0  0  0  0  0  0  0  0  0
   25.2240  -20.7206  -14.4109 C   0  0  0  0  0  0  0  0  0  0  0  0
   26.1409  -21.5532  -14.5025 O   0  0  0  0  0  0  0  0  0  0  0  0
   22.7379  -16.9201  -16.6666 O   0  0  0  0  0  0  0  0  0  0  0  0
   24.4686  -20.6598  -13.2156 N   0  0  0  0  0  0  0  0  0  0  0  0
   24.7437  -21.4679  -12.0374 C   0  0  1  0  0  0  0  0  0  0  0  0
   26.1760  -21.3975  -11.6366 C   0  0  0  0  0  0  0  0  0  0  0  0
   26.3343  -20.8502  -10.2788 C   0  0  0  0  0  0  0  0  0  0  0  0
   25.3368  -20.2759   -9.4780 C   0  0  0  0  0  0  0  0  0  0  0  0
   25.8871  -19.8630   -8.3242 N   0  0  0  0  0  0  0  0  0  0  0  0
   27.2023  -20.1285   -8.3026 C   0  0  0  0  0  0  0  0  0  0  0  0
   28.1794  -19.9159   -7.3479 C   0  0  0  0  0  0  0  0  0  0  0  0
   29.4711  -20.3200   -7.5931 C   0  0  0  0  0  0  0  0  0  0  0  0
   29.7866  -20.9387   -8.7971 C   0  0  0  0  0  0  0  0  0  0  0  0
   28.7915  -21.1324   -9.7201 C   0  0  0  0  0  0  0  0  0  0  0  0
   27.4783  -20.7356   -9.5035 C   0  0  0  0  0  0  0  0  0  0  0  0
   23.7628  -21.3317  -10.9889 C   0  0  0  0  0  0  0  0  0  0  0  0
   23.0681  -20.2441  -10.9961 O   0  0  0  0  0  0  0  0  0  0  0  0
   23.4712  -22.2127   -9.9891 O   0  0  0  0  0  0  0  0  0  0  0  0
  2  1  1  6
  2  3  1  0
  4  2  1  0
  4  5  1  6
  6  4  1  0
  6  7  2  0
  8  6  1  0
  9  8  1  0
  9 10  1  6
 11 10  1  0
 12 13  2  0
 12 11  1  0
 14  9  1  0
 15 14  2  0
 16 12  1  0
 17 14  1  0
 18 19  1  1
 18 17  1  0
 20 19  1  0
 21 20  2  0
 22 23  1  0
 22 21  1  0
 23 28  2  0
 24 25  2  0
 24 23  1  0
 25 26  1  0
 26 27  2  0
 28 20  1  0
 28 27  1  0
 29 18  1  0
 30 29  2  0
 31 29  1  0
M  END
$$$$
