VEW.pdb
     RDKit          3D

 31 32  0  0  1  0  0  0  0  0999 V2000
   25.2307  -24.3257  -15.3817 C   0  0  0  0  0  0  0  0  0  0  0  0
   25.9475  -24.0100  -16.6725 C   0  0  1  0  0  0  0  0  0  0  0  0
   25.2154  -24.5341  -17.8644 C   0  0  0  0  0  0  0  0  0  0  0  0
   26.3425  -22.5512  -16.7698 C   0  0  2  0  0  0  0  0  0  0  0  0
   27.2188  -22.3823  -17.9399 N   0  0  0  0  0  0  0  0  0  0  0  0
   27.0146  -22.0360  -15.5597 C   0  0  0  0  0  0  0  0  0  0  0  0
   28.2631  -21.7775  -15.5684 O   0  0  0  0  0  0  0  0  0  0  0  0
   26.3473  -21.7993  -14.3454 N   0  0  0  0  0  0  0  0  0  0  0  0
   26.8150  -20.8387  -13.3582 C   0  0  1  0  0  0  0  0  0  0  0  0
   26.7272  -19.4366  -13.8278 C   0  0  0  0  0  0  0  0  0  0  0  0
   28.0153  -19.0156  -14.4656 C   0  0  0  0  0  0  0  0  0  0  0  0
   27.7565  -18.1236  -15.6044 C   0  0  0  0  0  0  0  0  0  0  0  0
   26.9730  -17.1521  -15.5654 O   0  0  0  0  0  0  0  0  0  0  0  0
   26.0086  -21.0107  -12.0827 C   0  0  0  0  0  0  0  0  0  0  0  0
   24.7695  -21.0428  -12.1585 O   0  0  0  0  0  0  0  0  0  0  0  0
   28.3970  -18.3203  -16.8393 O   0  0  0  0  0  0  0  0  0  0  0  0
   26.6223  -21.1365  -10.8135 N   0  0  0  0  0  0  0  0  0  0  0  0
   25.8934  -21.3780   -9.5778 C   0  0  1  0  0  0  0  0  0  0  0  0
   26.8076  -21.6881   -8.4441 C   0  0  0  0  0  0  0  0  0  0  0  0
   27.1481  -20.4799   -7.6742 C   0  0  0  0  0  0  0  0  0  0  0  0
   26.7170  -19.1694   -7.9246 C   0  0  0  0  0  0  0  0  0  0  0  0
   27.2766  -18.3460   -7.0228 N   0  0  0  0  0  0  0  0  0  0  0  0
   28.0615  -19.0302   -6.1764 C   0  0  0  0  0  0  0  0  0  0  0  0
   28.8208  -18.6399   -5.0890 C   0  0  0  0  0  0  0  0  0  0  0  0
   29.5236  -19.5824   -4.3749 C   0  0  0  0  0  0  0  0  0  0  0  0
   29.4667  -20.9196   -4.7497 C   0  0  0  0  0  0  0  0  0  0  0  0
   28.7035  -21.2692   -5.8337 C   0  0  0  0  0  0  0  0  0  0  0  0
   27.9831  -20.3422   -6.5756 C   0  0  0  0  0  0  0  0  0  0  0  0
   24.8345  -20.4320   -9.3252 C   0  0  0  0  0  0  0  0  0  0  0  0
   24.9373  -19.2899   -9.9174 O   0  0  0  0  0  0  0  0  0  0  0  0
   23.7304  -20.5936   -8.5405 O   0  0  0  0  0  0  0  0  0  0  0  0
  2  1  1  1
  2  3  1  0
  4  2  1  0
  4  5  1  6
  6  4  1  0
  6  7  2  0
  8  6  1  0
  9  8  1  0
  9 10  1  6
 11 10  1  0
 12 13  2  0
 12 11  1  0
 14  9  1  0
 15 14  2  0
 16 12  1  0
 17 14  1  0
 18 19  1  1
 18 17  1  0
 20 19  1  0
 21 20  2  0
 22 23  1  0
 22 21  1  0
 23 28  2  0
 24 25  2  0
 24 23  1  0
 25 26  1  0
 26 27  2  0
 28 20  1  0
 28 27  1  0
 29 18  1  0
 30 29  2  0
 31 29  1  0
M  END
$$$$
