VEW.pdb
     RDKit          3D

 31 32  0  0  1  0  0  0  0  0999 V2000
   29.2148  -21.4998  -18.5879 C   0  0  0  0  0  0  0  0  0  0  0  0
   28.6062  -20.6527  -17.4962 C   0  0  1  0  0  0  0  0  0  0  0  0
   27.5809  -19.7047  -18.0265 C   0  0  0  0  0  0  0  0  0  0  0  0
   28.1446  -21.4804  -16.3149 C   0  0  2  0  0  0  0  0  0  0  0  0
   27.0552  -22.3634  -16.7613 N   0  0  0  0  0  0  0  0  0  0  0  0
   27.6967  -20.6724  -15.1625 C   0  0  0  0  0  0  0  0  0  0  0  0
   28.5160  -19.9243  -14.5342 O   0  0  0  0  0  0  0  0  0  0  0  0
   26.3737  -20.6683  -14.6877 N   0  0  0  0  0  0  0  0  0  0  0  0
   25.9568  -19.9235  -13.5098 C   0  0  1  0  0  0  0  0  0  0  0  0
   24.6181  -19.3070  -13.6584 C   0  0  0  0  0  0  0  0  0  0  0  0
   23.5755  -20.3617  -13.8678 C   0  0  0  0  0  0  0  0  0  0  0  0
   22.5456  -20.2797  -12.8229 C   0  0  0  0  0  0  0  0  0  0  0  0
   22.1372  -19.2081  -12.3285 O   0  0  0  0  0  0  0  0  0  0  0  0
   25.9700  -20.8532  -12.3088 C   0  0  0  0  0  0  0  0  0  0  0  0
   25.7694  -22.0654  -12.4889 O   0  0  0  0  0  0  0  0  0  0  0  0
   21.9437  -21.4391  -12.3058 O   0  0  0  0  0  0  0  0  0  0  0  0
   26.2042  -20.3839  -10.9942 N   0  0  0  0  0  0  0  0  0  0  0  0
   26.1578  -21.2267   -9.8092 C   0  0  1  0  0  0  0  0  0  0  0  0
   27.4849  -21.3200   -9.1404 C   0  0  0  0  0  0  0  0  0  0  0  0
   27.6729  -20.2438   -8.1531 C   0  0  0  0  0  0  0  0  0  0  0  0
   27.1214  -18.9553   -8.1928 C   0  0  0  0  0  0  0  0  0  0  0  0
   27.5612  -18.2593   -7.1314 N   0  0  0  0  0  0  0  0  0  0  0  0
   28.3792  -19.0090   -6.3767 C   0  0  0  0  0  0  0  0  0  0  0  0
   29.0543  -18.7520   -5.1979 C   0  0  0  0  0  0  0  0  0  0  0  0
   29.8217  -19.7383   -4.6231 C   0  0  0  0  0  0  0  0  0  0  0  0
   29.9139  -20.9857   -5.2292 C   0  0  0  0  0  0  0  0  0  0  0  0
   29.2307  -21.2038   -6.3976 C   0  0  0  0  0  0  0  0  0  0  0  0
   28.4484  -20.2292   -7.0036 C   0  0  0  0  0  0  0  0  0  0  0  0
   25.0136  -20.9899   -8.9637 C   0  0  0  0  0  0  0  0  0  0  0  0
   24.8792  -21.7800   -7.9521 O   0  0  0  0  0  0  0  0  0  0  0  0
   24.0541  -20.0291   -9.0949 O   0  0  0  0  0  0  0  0  0  0  0  0
  2  1  1  6
  2  3  1  0
  4  2  1  0
  4  5  1  6
  6  4  1  0
  6  7  2  0
  8  6  1  0
  9  8  1  0
  9 10  1  6
 11 10  1  0
 12 13  2  0
 12 11  1  0
 14  9  1  0
 15 14  2  0
 16 12  1  0
 17 14  1  0
 18 19  1  1
 18 17  1  0
 20 19  1  0
 21 20  2  0
 22 23  1  0
 22 21  1  0
 23 28  2  0
 24 25  2  0
 24 23  1  0
 25 26  1  0
 26 27  2  0
 28 20  1  0
 28 27  1  0
 29 18  1  0
 30 29  2  0
 31 29  1  0
M  END
$$$$
