VEW.pdb
     RDKit          3D

 31 32  0  0  1  0  0  0  0  0999 V2000
   33.8263  -34.8275  -16.4901 C   0  0  0  0  0  0  0  0  0  0  0  0
   33.7560  -33.3195  -16.4632 C   0  0  1  0  0  0  0  0  0  0  0  0
   35.1125  -32.6940  -16.4512 C   0  0  0  0  0  0  0  0  0  0  0  0
   32.8195  -32.7677  -17.5177 C   0  0  2  0  0  0  0  0  0  0  0  0
   33.3388  -33.1399  -18.8434 N   0  0  0  0  0  0  0  0  0  0  0  0
   32.6366  -31.3040  -17.4421 C   0  0  0  0  0  0  0  0  0  0  0  0
   32.1444  -30.7625  -16.3980 O   0  0  0  0  0  0  0  0  0  0  0  0
   32.9815  -30.4262  -18.4843 N   0  0  0  0  0  0  0  0  0  0  0  0
   32.7772  -28.9879  -18.4093 C   0  0  1  0  0  0  0  0  0  0  0  0
   33.5932  -28.2352  -19.3900 C   0  0  0  0  0  0  0  0  0  0  0  0
   33.3253  -26.7659  -19.2771 C   0  0  0  0  0  0  0  0  0  0  0  0
   34.1769  -26.0159  -20.2107 C   0  0  0  0  0  0  0  0  0  0  0  0
   34.8173  -26.5403  -21.1458 O   0  0  0  0  0  0  0  0  0  0  0  0
   31.3033  -28.6879  -18.6210 C   0  0  0  0  0  0  0  0  0  0  0  0
   30.7179  -29.2149  -19.5810 O   0  0  0  0  0  0  0  0  0  0  0  0
   34.3221  -24.6229  -20.1000 O   0  0  0  0  0  0  0  0  0  0  0  0
   30.5771  -27.8302  -17.7607 N   0  0  0  0  0  0  0  0  0  0  0  0
   29.1395  -27.9138  -17.5527 C   0  0  1  0  0  0  0  0  0  0  0  0
   28.6738  -29.3241  -17.4464 C   0  0  0  0  0  0  0  0  0  0  0  0
   27.2126  -29.4032  -17.2821 C   0  0  0  0  0  0  0  0  0  0  0  0
   26.2467  -28.6137  -17.9222 C   0  0  0  0  0  0  0  0  0  0  0  0
   25.0295  -28.9669  -17.4772 N   0  0  0  0  0  0  0  0  0  0  0  0
   25.1215  -29.9529  -16.5717 C   0  0  0  0  0  0  0  0  0  0  0  0
   24.1672  -30.6516  -15.8559 C   0  0  0  0  0  0  0  0  0  0  0  0
   24.5575  -31.6500  -14.9939 C   0  0  0  0  0  0  0  0  0  0  0  0
   25.9066  -31.9505  -14.8475 C   0  0  0  0  0  0  0  0  0  0  0  0
   26.8243  -31.2361  -15.5735 C   0  0  0  0  0  0  0  0  0  0  0  0
   26.4631  -30.2222  -16.4511 C   0  0  0  0  0  0  0  0  0  0  0  0
   28.6314  -26.9811  -16.5770 C   0  0  0  0  0  0  0  0  0  0  0  0
   29.4782  -26.5538  -15.7019 O   0  0  0  0  0  0  0  0  0  0  0  0
   27.3649  -26.4869  -16.4644 O   0  0  0  0  0  0  0  0  0  0  0  0
  2  1  1  6
  2  3  1  0
  4  2  1  0
  4  5  1  6
  6  4  1  0
  6  7  2  0
  8  6  1  0
  9  8  1  0
  9 10  1  6
 11 10  1  0
 12 13  2  0
 12 11  1  0
 14  9  1  0
 15 14  2  0
 16 12  1  0
 17 14  1  0
 18 19  1  1
 18 17  1  0
 20 19  1  0
 21 20  2  0
 22 23  1  0
 22 21  1  0
 23 28  2  0
 24 25  2  0
 24 23  1  0
 25 26  1  0
 26 27  2  0
 28 20  1  0
 28 27  1  0
 29 18  1  0
 30 29  2  0
 31 29  1  0
M  END
$$$$
