VEW.pdb
     RDKit          3D

 31 32  0  0  1  0  0  0  0  0999 V2000
   15.3197  -15.7528  -17.1408 C   0  0  0  0  0  0  0  0  0  0  0  0
   16.5945  -15.0467  -17.5359 C   0  0  1  0  0  0  0  0  0  0  0  0
   16.7048  -14.8723  -19.0154 C   0  0  0  0  0  0  0  0  0  0  0  0
   16.8238  -13.7814  -16.7358 C   0  0  2  0  0  0  0  0  0  0  0  0
   15.6944  -12.8684  -16.9733 N   0  0  0  0  0  0  0  0  0  0  0  0
   18.0958  -13.1009  -17.0525 C   0  0  0  0  0  0  0  0  0  0  0  0
   19.2132  -13.6373  -16.7535 O   0  0  0  0  0  0  0  0  0  0  0  0
   18.1664  -11.8492  -17.6883 N   0  0  0  0  0  0  0  0  0  0  0  0
   19.4245  -11.1934  -18.0097 C   0  0  1  0  0  0  0  0  0  0  0  0
   19.3672  -10.4168  -19.2697 C   0  0  0  0  0  0  0  0  0  0  0  0
   20.6843   -9.7565  -19.5389 C   0  0  0  0  0  0  0  0  0  0  0  0
   20.6459   -9.0385  -20.8205 C   0  0  0  0  0  0  0  0  0  0  0  0
   19.6432   -8.9903  -21.5632 O   0  0  0  0  0  0  0  0  0  0  0  0
   19.8152  -10.2850  -16.8569 C   0  0  0  0  0  0  0  0  0  0  0  0
   18.9200   -9.6920  -16.2332 O   0  0  0  0  0  0  0  0  0  0  0  0
   21.7706   -8.3439  -21.2961 O   0  0  0  0  0  0  0  0  0  0  0  0
   21.1634  -10.0939  -16.4707 N   0  0  0  0  0  0  0  0  0  0  0  0
   21.5883   -9.1701  -15.4301 C   0  0  1  0  0  0  0  0  0  0  0  0
   22.1393   -9.8829  -14.2445 C   0  0  0  0  0  0  0  0  0  0  0  0
   23.2709  -10.7514  -14.6097 C   0  0  0  0  0  0  0  0  0  0  0  0
   23.3131  -12.1518  -14.5542 C   0  0  0  0  0  0  0  0  0  0  0  0
   24.5333  -12.5671  -14.9325 N   0  0  0  0  0  0  0  0  0  0  0  0
   25.3168  -11.5225  -15.2414 C   0  0  0  0  0  0  0  0  0  0  0  0
   26.6214  -11.4381  -15.6912 C   0  0  0  0  0  0  0  0  0  0  0  0
   27.1734  -10.2059  -15.9539 C   0  0  0  0  0  0  0  0  0  0  0  0
   26.4180   -9.0544  -15.7661 C   0  0  0  0  0  0  0  0  0  0  0  0
   25.1280   -9.1771  -15.3186 C   0  0  0  0  0  0  0  0  0  0  0  0
   24.5418  -10.4057  -15.0437 C   0  0  0  0  0  0  0  0  0  0  0  0
   22.3355   -8.0374  -15.9187 C   0  0  0  0  0  0  0  0  0  0  0  0
   22.7921   -8.1320  -17.1221 O   0  0  0  0  0  0  0  0  0  0  0  0
   22.6176   -6.8713  -15.2694 O   0  0  0  0  0  0  0  0  0  0  0  0
  2  1  1  6
  2  3  1  0
  4  2  1  0
  4  5  1  6
  6  4  1  0
  6  7  2  0
  8  6  1  0
  9  8  1  0
  9 10  1  6
 11 10  1  0
 12 13  2  0
 12 11  1  0
 14  9  1  0
 15 14  2  0
 16 12  1  0
 17 14  1  0
 18 19  1  1
 18 17  1  0
 20 19  1  0
 21 20  2  0
 22 23  1  0
 22 21  1  0
 23 28  2  0
 24 25  2  0
 24 23  1  0
 25 26  1  0
 26 27  2  0
 28 20  1  0
 28 27  1  0
 29 18  1  0
 30 29  2  0
 31 29  1  0
M  END
$$$$
