VEW.pdb
     RDKit          3D

 31 32  0  0  1  0  0  0  0  0999 V2000
   26.3996  -13.2228  -15.5567 C   0  0  0  0  0  0  0  0  0  0  0  0
   26.5211  -14.5892  -16.1877 C   0  0  1  0  0  0  0  0  0  0  0  0
   27.5985  -15.4069  -15.5537 C   0  0  0  0  0  0  0  0  0  0  0  0
   25.1844  -15.2918  -16.3015 C   0  0  2  0  0  0  0  0  0  0  0  0
   25.4001  -16.6059  -16.9278 N   0  0  0  0  0  0  0  0  0  0  0  0
   24.1762  -14.5297  -17.0660 C   0  0  0  0  0  0  0  0  0  0  0  0
   24.2604  -14.4288  -18.3343 O   0  0  0  0  0  0  0  0  0  0  0  0
   23.0821  -13.8792  -16.4698 N   0  0  0  0  0  0  0  0  0  0  0  0
   22.0965  -13.1272  -17.2308 C   0  0  1  0  0  0  0  0  0  0  0  0
   20.7868  -13.8134  -17.3196 C   0  0  0  0  0  0  0  0  0  0  0  0
   19.8645  -13.0667  -18.2334 C   0  0  0  0  0  0  0  0  0  0  0  0
   18.5404  -13.7035  -18.2583 C   0  0  0  0  0  0  0  0  0  0  0  0
   17.4698  -13.0950  -18.0514 O   0  0  0  0  0  0  0  0  0  0  0  0
   21.9236  -11.7583  -16.5958 C   0  0  0  0  0  0  0  0  0  0  0  0
   21.8967  -11.6729  -15.3572 O   0  0  0  0  0  0  0  0  0  0  0  0
   18.4010  -15.0758  -18.5251 O   0  0  0  0  0  0  0  0  0  0  0  0
   21.7936  -10.5795  -17.3683 N   0  0  0  0  0  0  0  0  0  0  0  0
   21.6268   -9.2499  -16.8017 C   0  0  1  0  0  0  0  0  0  0  0  0
   22.4937   -8.2448  -17.4766 C   0  0  0  0  0  0  0  0  0  0  0  0
   22.3023   -6.8972  -16.9148 C   0  0  0  0  0  0  0  0  0  0  0  0
   22.8980   -6.3713  -15.7596 C   0  0  0  0  0  0  0  0  0  0  0  0
   22.4396   -5.1243  -15.5610 N   0  0  0  0  0  0  0  0  0  0  0  0
   21.5671   -4.7797  -16.5206 C   0  0  0  0  0  0  0  0  0  0  0  0
   20.8541   -3.6192  -16.7574 C   0  0  0  0  0  0  0  0  0  0  0  0
   20.0316   -3.5371  -17.8568 C   0  0  0  0  0  0  0  0  0  0  0  0
   19.9219   -4.6193  -18.7221 C   0  0  0  0  0  0  0  0  0  0  0  0
   20.6438   -5.7537  -18.4549 C   0  0  0  0  0  0  0  0  0  0  0  0
   21.4821   -5.8686  -17.3536 C   0  0  0  0  0  0  0  0  0  0  0  0
   20.2530   -8.8783  -16.5683 C   0  0  0  0  0  0  0  0  0  0  0  0
   19.3899   -9.3231  -17.4184 O   0  0  0  0  0  0  0  0  0  0  0  0
   19.7469   -8.1174  -15.5554 O   0  0  0  0  0  0  0  0  0  0  0  0
  2  1  1  1
  2  3  1  0
  4  2  1  0
  4  5  1  6
  6  4  1  0
  6  7  2  0
  8  6  1  0
  9  8  1  0
  9 10  1  1
 11 10  1  0
 12 13  2  0
 12 11  1  0
 14  9  1  0
 15 14  2  0
 16 12  1  0
 17 14  1  0
 18 19  1  6
 18 17  1  0
 20 19  1  0
 21 20  2  0
 22 23  1  0
 22 21  1  0
 23 28  2  0
 24 25  2  0
 24 23  1  0
 25 26  1  0
 26 27  2  0
 28 20  1  0
 28 27  1  0
 29 18  1  0
 30 29  2  0
 31 29  1  0
M  END
$$$$
