VEW.pdb
     RDKit          3D

 31 32  0  0  1  0  0  0  0  0999 V2000
   29.8785  -18.6151  -17.4102 C   0  0  0  0  0  0  0  0  0  0  0  0
   28.6652  -18.6808  -16.5139 C   0  0  1  0  0  0  0  0  0  0  0  0
   28.7597  -17.7255  -15.3694 C   0  0  0  0  0  0  0  0  0  0  0  0
   27.3688  -18.6008  -17.2929 C   0  0  2  0  0  0  0  0  0  0  0  0
   27.3650  -17.3478  -18.0647 N   0  0  0  0  0  0  0  0  0  0  0  0
   26.1614  -18.6732  -16.4454 C   0  0  0  0  0  0  0  0  0  0  0  0
   25.6752  -17.6212  -15.9136 O   0  0  0  0  0  0  0  0  0  0  0  0
   25.4793  -19.8711  -16.1708 N   0  0  0  0  0  0  0  0  0  0  0  0
   24.3304  -19.9430  -15.2815 C   0  0  1  0  0  0  0  0  0  0  0  0
   23.1637  -20.6175  -15.8962 C   0  0  0  0  0  0  0  0  0  0  0  0
   23.0597  -20.2656  -17.3483 C   0  0  0  0  0  0  0  0  0  0  0  0
   22.7034  -21.4516  -18.1394 C   0  0  0  0  0  0  0  0  0  0  0  0
   22.5752  -21.4489  -19.3816 O   0  0  0  0  0  0  0  0  0  0  0  0
   24.7369  -20.6654  -14.0088 C   0  0  0  0  0  0  0  0  0  0  0  0
   25.7344  -21.4045  -14.0335 O   0  0  0  0  0  0  0  0  0  0  0  0
   22.4806  -22.6941  -17.5227 O   0  0  0  0  0  0  0  0  0  0  0  0
   24.0178  -20.5226  -12.7980 N   0  0  0  0  0  0  0  0  0  0  0  0
   24.2102  -21.3722  -11.6327 C   0  0  1  0  0  0  0  0  0  0  0  0
   25.6427  -21.4551  -11.2350 C   0  0  0  0  0  0  0  0  0  0  0  0
   25.8279  -21.1581   -9.8047 C   0  0  0  0  0  0  0  0  0  0  0  0
   25.1341  -21.7269   -8.7272 C   0  0  0  0  0  0  0  0  0  0  0  0
   25.5654  -21.1658   -7.5853 N   0  0  0  0  0  0  0  0  0  0  0  0
   26.5137  -20.2496   -7.8340 C   0  0  0  0  0  0  0  0  0  0  0  0
   27.2611  -19.4346   -7.0042 C   0  0  0  0  0  0  0  0  0  0  0  0
   28.2003  -18.5882   -7.5460 C   0  0  0  0  0  0  0  0  0  0  0  0
   28.3925  -18.5569   -8.9223 C   0  0  0  0  0  0  0  0  0  0  0  0
   27.6326  -19.3791   -9.7136 C   0  0  0  0  0  0  0  0  0  0  0  0
   26.6762  -20.2441   -9.1979 C   0  0  0  0  0  0  0  0  0  0  0  0
   23.2500  -21.1519  -10.5794 C   0  0  0  0  0  0  0  0  0  0  0  0
   22.9215  -22.1868   -9.8819 O   0  0  0  0  0  0  0  0  0  0  0  0
   22.6461  -19.9821  -10.2217 O   0  0  0  0  0  0  0  0  0  0  0  0
  2  1  1  6
  2  3  1  0
  4  2  1  0
  4  5  1  1
  6  4  1  0
  6  7  2  0
  8  6  1  0
  9  8  1  0
  9 10  1  6
 11 10  1  0
 12 13  2  0
 12 11  1  0
 14  9  1  0
 15 14  2  0
 16 12  1  0
 17 14  1  0
 18 19  1  1
 18 17  1  0
 20 19  1  0
 21 20  2  0
 22 23  1  0
 22 21  1  0
 23 28  2  0
 24 25  2  0
 24 23  1  0
 25 26  1  0
 26 27  2  0
 28 20  1  0
 28 27  1  0
 29 18  1  0
 30 29  2  0
 31 29  1  0
M  END
$$$$
