VEW.pdb
     RDKit          3D

 31 32  0  0  1  0  0  0  0  0999 V2000
   28.1861  -23.2932  -18.7044 C   0  0  0  0  0  0  0  0  0  0  0  0
   27.5063  -22.3167  -17.7748 C   0  0  1  0  0  0  0  0  0  0  0  0
   26.1021  -22.0268  -18.1939 C   0  0  0  0  0  0  0  0  0  0  0  0
   27.6595  -22.7054  -16.3192 C   0  0  2  0  0  0  0  0  0  0  0  0
   27.0204  -24.0154  -16.1165 N   0  0  0  0  0  0  0  0  0  0  0  0
   27.0924  -21.7182  -15.3781 C   0  0  0  0  0  0  0  0  0  0  0  0
   27.5400  -20.5250  -15.3383 O   0  0  0  0  0  0  0  0  0  0  0  0
   26.0485  -22.0124  -14.4840 N   0  0  0  0  0  0  0  0  0  0  0  0
   25.4355  -21.0115  -13.6246 C   0  0  1  0  0  0  0  0  0  0  0  0
   23.9822  -20.8545  -13.8641 C   0  0  0  0  0  0  0  0  0  0  0  0
   23.4076  -19.8227  -12.9430 C   0  0  0  0  0  0  0  0  0  0  0  0
   21.9550  -19.7140  -13.1367 C   0  0  0  0  0  0  0  0  0  0  0  0
   21.3125  -20.3736  -13.9802 O   0  0  0  0  0  0  0  0  0  0  0  0
   25.6853  -21.3876  -12.1744 C   0  0  0  0  0  0  0  0  0  0  0  0
   25.2079  -22.4491  -11.7414 O   0  0  0  0  0  0  0  0  0  0  0  0
   21.1838  -18.8342  -12.3588 O   0  0  0  0  0  0  0  0  0  0  0  0
   26.4438  -20.5699  -11.3031 N   0  0  0  0  0  0  0  0  0  0  0  0
   26.6271  -20.8424   -9.8857 C   0  0  1  0  0  0  0  0  0  0  0  0
   27.8991  -20.2664   -9.3685 C   0  0  0  0  0  0  0  0  0  0  0  0
   27.7759  -19.8535   -7.9604 C   0  0  0  0  0  0  0  0  0  0  0  0
   26.8408  -18.9587   -7.4213 C   0  0  0  0  0  0  0  0  0  0  0  0
   27.0804  -18.8158   -6.1073 N   0  0  0  0  0  0  0  0  0  0  0  0
   28.1265  -19.5669   -5.7301 C   0  0  0  0  0  0  0  0  0  0  0  0
   28.7342  -19.7683   -4.5047 C   0  0  0  0  0  0  0  0  0  0  0  0
   29.8001  -20.6321   -4.4065 C   0  0  0  0  0  0  0  0  0  0  0  0
   30.2597  -21.2966   -5.5375 C   0  0  0  0  0  0  0  0  0  0  0  0
   29.6324  -21.0715   -6.7356 C   0  0  0  0  0  0  0  0  0  0  0  0
   28.5547  -20.2055   -6.8683 C   0  0  0  0  0  0  0  0  0  0  0  0
   25.4429  -20.6353   -9.0891 C   0  0  0  0  0  0  0  0  0  0  0  0
   24.6967  -19.6376   -9.4259 O   0  0  0  0  0  0  0  0  0  0  0  0
   25.0065  -21.3664   -8.0233 O   0  0  0  0  0  0  0  0  0  0  0  0
  2  1  1  6
  2  3  1  0
  4  2  1  0
  4  5  1  6
  6  4  1  0
  6  7  2  0
  8  6  1  0
  9  8  1  0
  9 10  1  1
 11 10  1  0
 12 13  2  0
 12 11  1  0
 14  9  1  0
 15 14  2  0
 16 12  1  0
 17 14  1  0
 18 19  1  1
 18 17  1  0
 20 19  1  0
 21 20  2  0
 22 23  1  0
 22 21  1  0
 23 28  2  0
 24 25  2  0
 24 23  1  0
 25 26  1  0
 26 27  2  0
 28 20  1  0
 28 27  1  0
 29 18  1  0
 30 29  2  0
 31 29  1  0
M  END
$$$$
