VEW.pdb
     RDKit          3D

 31 32  0  0  1  0  0  0  0  0999 V2000
   29.4149  -22.6798  -17.1289 C   0  0  0  0  0  0  0  0  0  0  0  0
   28.6470  -22.1492  -15.9421 C   0  0  1  0  0  0  0  0  0  0  0  0
   29.5414  -21.8427  -14.7857 C   0  0  0  0  0  0  0  0  0  0  0  0
   27.7042  -21.0263  -16.3215 C   0  0  2  0  0  0  0  0  0  0  0  0
   28.4809  -19.9721  -16.9930 N   0  0  0  0  0  0  0  0  0  0  0  0
   26.9684  -20.4559  -15.1749 C   0  0  0  0  0  0  0  0  0  0  0  0
   27.3733  -19.3882  -14.6076 O   0  0  0  0  0  0  0  0  0  0  0  0
   25.8022  -21.0305  -14.6406 N   0  0  0  0  0  0  0  0  0  0  0  0
   25.1155  -20.4928  -13.4764 C   0  0  1  0  0  0  0  0  0  0  0  0
   23.6411  -20.5949  -13.5754 C   0  0  0  0  0  0  0  0  0  0  0  0
   22.9916  -19.9944  -12.3668 C   0  0  0  0  0  0  0  0  0  0  0  0
   21.5283  -20.0645  -12.4825 C   0  0  0  0  0  0  0  0  0  0  0  0
   20.9275  -20.7839  -13.3076 O   0  0  0  0  0  0  0  0  0  0  0  0
   25.6043  -21.2208  -12.2362 C   0  0  0  0  0  0  0  0  0  0  0  0
   25.6963  -22.4588  -12.2670 O   0  0  0  0  0  0  0  0  0  0  0  0
   20.6977  -19.3021  -11.6443 O   0  0  0  0  0  0  0  0  0  0  0  0
   25.9587  -20.5352  -11.0498 N   0  0  0  0  0  0  0  0  0  0  0  0
   26.3203  -21.1964   -9.8052 C   0  0  1  0  0  0  0  0  0  0  0  0
   27.7182  -20.8869   -9.3965 C   0  0  0  0  0  0  0  0  0  0  0  0
   27.7598  -20.1118   -8.1452 C   0  0  0  0  0  0  0  0  0  0  0  0
   26.9484  -19.0217   -7.7995 C   0  0  0  0  0  0  0  0  0  0  0  0
   27.3214  -18.5654   -6.5924 N   0  0  0  0  0  0  0  0  0  0  0  0
   28.3402  -19.2894   -6.1040 C   0  0  0  0  0  0  0  0  0  0  0  0
   29.0447  -19.2224   -4.9164 C   0  0  0  0  0  0  0  0  0  0  0  0
   30.0485  -20.1292   -4.6674 C   0  0  0  0  0  0  0  0  0  0  0  0
   30.3486  -21.1062   -5.6094 C   0  0  0  0  0  0  0  0  0  0  0  0
   29.6290  -21.1415   -6.7757 C   0  0  0  0  0  0  0  0  0  0  0  0
   28.6104  -20.2405   -7.0576 C   0  0  0  0  0  0  0  0  0  0  0  0
   25.3066  -21.1190   -8.7822 C   0  0  0  0  0  0  0  0  0  0  0  0
   24.4183  -20.1944   -8.9289 O   0  0  0  0  0  0  0  0  0  0  0  0
   25.1637  -21.9060   -7.6772 O   0  0  0  0  0  0  0  0  0  0  0  0
  2  1  1  6
  2  3  1  0
  4  2  1  0
  4  5  1  1
  6  4  1  0
  6  7  2  0
  8  6  1  0
  9  8  1  0
  9 10  1  6
 11 10  1  0
 12 13  2  0
 12 11  1  0
 14  9  1  0
 15 14  2  0
 16 12  1  0
 17 14  1  0
 18 19  1  1
 18 17  1  0
 20 19  1  0
 21 20  2  0
 22 23  1  0
 22 21  1  0
 23 28  2  0
 24 25  2  0
 24 23  1  0
 25 26  1  0
 26 27  2  0
 28 20  1  0
 28 27  1  0
 29 18  1  0
 30 29  2  0
 31 29  1  0
M  END
$$$$
