TLE.pdb
     RDKit          3D

 25 24  0  0  1  0  0  0  0  0999 V2000
    7.4302  -16.8068   19.3399 C   0  0  0  0  0  0  0  0  0  0  0  0
    7.8810  -16.6646   20.7748 C   0  0  1  0  0  0  0  0  0  0  0  0
    8.8032  -17.6469   21.0960 O   0  0  0  0  0  0  0  0  0  0  0  0
    8.4165  -15.2906   21.0329 C   0  0  2  0  0  0  0  0  0  0  0  0
    9.5449  -15.0337   20.1887 N   0  0  0  0  0  0  0  0  0  0  0  0
    8.6971  -15.1435   22.4702 C   0  0  0  0  0  0  0  0  0  0  0  0
    9.9305  -15.2308   22.7865 O   0  0  0  0  0  0  0  0  0  0  0  0
    7.9391  -11.9079   26.1331 C   0  0  0  0  0  0  0  0  0  0  0  0
    6.9038  -12.8133   25.5698 C   0  0  2  0  0  0  0  0  0  0  0  0
    5.5359  -12.4801   26.1998 C   0  0  0  0  0  0  0  0  0  0  0  0
    7.1493  -14.2526   25.6928 C   0  0  0  0  0  0  0  0  0  0  0  0
    8.1634  -14.9478   24.8964 C   0  0  2  0  0  0  0  0  0  0  0  0
    7.7616  -14.9259   23.4700 N   0  0  0  0  0  0  0  0  0  0  0  0
    8.5275  -16.3097   25.2847 C   0  0  0  0  0  0  0  0  0  0  0  0
    8.2993  -17.3465   24.5868 O   0  0  0  0  0  0  0  0  0  0  0  0
    9.1953  -16.4958   26.5531 N   0  0  0  0  0  0  0  0  0  0  0  0
   10.2475  -17.5224   26.6411 C   0  0  1  0  0  0  0  0  0  0  0  0
   11.2751  -17.2684   25.5868 C   0  0  0  0  0  0  0  0  0  0  0  0
   11.3304  -18.3350   24.5615 C   0  0  0  0  0  0  0  0  0  0  0  0
   12.4320  -18.2758   23.6045 C   0  0  0  0  0  0  0  0  0  0  0  0
   12.5047  -18.9965   22.5862 O   0  0  0  0  0  0  0  0  0  0  0  0
   10.7874  -17.5586   28.0252 C   0  0  0  0  0  0  0  0  0  0  0  0
   10.6381  -16.6220   28.8372 O   0  0  0  0  0  0  0  0  0  0  0  0
   13.4570  -17.3696   23.8357 O   0  0  0  0  0  0  0  0  0  0  0  0
   11.4990  -18.6694   28.4798 O   0  0  0  0  0  0  0  0  0  0  0  0
  2  1  1  6
  3  2  1  0
  4  6  1  0
  4  2  1  0
  4  5  1  6
  6 13  1  0
  7  6  2  0
  9  8  1  1
  9 11  1  0
 10  9  1  0
 12 11  1  1
 13 12  1  0
 14 15  2  0
 14 12  1  0
 16 14  1  0
 17 16  1  0
 17 22  1  0
 17 18  1  6
 19 18  1  0
 20 19  1  0
 20 21  2  0
 22 25  1  0
 23 22  2  0
 24 20  1  0
M  END
$$$$
