TLE.pdb
     RDKit          3D

 25 24  0  0  1  0  0  0  0  0999 V2000
    6.4353  -16.9700   21.2065 C   0  0  0  0  0  0  0  0  0  0  0  0
    7.7177  -16.7431   20.4405 C   0  0  1  0  0  0  0  0  0  0  0  0
    7.5639  -17.1074   19.1131 O   0  0  0  0  0  0  0  0  0  0  0  0
    8.1799  -15.3260   20.5804 C   0  0  2  0  0  0  0  0  0  0  0  0
    9.2880  -15.0794   19.7069 N   0  0  0  0  0  0  0  0  0  0  0  0
    8.4602  -15.0470   21.9981 C   0  0  0  0  0  0  0  0  0  0  0  0
    9.6015  -15.4461   22.4067 O   0  0  0  0  0  0  0  0  0  0  0  0
    6.0155  -12.2061   26.9091 C   0  0  0  0  0  0  0  0  0  0  0  0
    7.2290  -12.8351   26.3256 C   0  0  2  0  0  0  0  0  0  0  0  0
    8.4514  -11.9338   26.5941 C   0  0  0  0  0  0  0  0  0  0  0  0
    7.1803  -13.1624   24.8981 C   0  0  0  0  0  0  0  0  0  0  0  0
    8.0202  -14.2037   24.3013 C   0  0  2  0  0  0  0  0  0  0  0  0
    7.6133  -14.4087   22.8911 N   0  0  0  0  0  0  0  0  0  0  0  0
    8.1026  -15.4947   24.9829 C   0  0  0  0  0  0  0  0  0  0  0  0
    7.1417  -16.3188   25.0902 O   0  0  0  0  0  0  0  0  0  0  0  0
    9.3660  -15.8652   25.5796 N   0  0  0  0  0  0  0  0  0  0  0  0
    9.4799  -17.1981   26.1956 C   0  0  1  0  0  0  0  0  0  0  0  0
   10.2734  -18.0910   25.2982 C   0  0  0  0  0  0  0  0  0  0  0  0
   11.6643  -17.6247   25.0981 C   0  0  0  0  0  0  0  0  0  0  0  0
   12.4982  -18.4038   24.1869 C   0  0  0  0  0  0  0  0  0  0  0  0
   13.6654  -18.0862   23.8732 O   0  0  0  0  0  0  0  0  0  0  0  0
   10.0336  -17.0620   27.5679 C   0  0  0  0  0  0  0  0  0  0  0  0
   10.2305  -18.0382   28.3209 O   0  0  0  0  0  0  0  0  0  0  0  0
   11.9681  -19.5623   23.6371 O   0  0  0  0  0  0  0  0  0  0  0  0
   10.3624  -15.8057   28.0783 O   0  0  0  0  0  0  0  0  0  0  0  0
  2  1  1  1
  3  2  1  0
  4  6  1  0
  4  2  1  0
  4  5  1  6
  6 13  1  0
  7  6  2  0
  9  8  1  6
  9 11  1  0
 10  9  1  0
 12 11  1  1
 13 12  1  0
 14 15  2  0
 14 12  1  0
 16 14  1  0
 17 16  1  0
 17 22  1  0
 17 18  1  6
 19 18  1  0
 20 19  1  0
 20 21  2  0
 22 25  1  0
 23 22  2  0
 24 20  1  0
M  END
$$$$
