TLE.pdb
     RDKit          3D

 25 24  0  0  1  0  0  0  0  0999 V2000
    6.9530  -15.0511   19.1786 C   0  0  0  0  0  0  0  0  0  0  0  0
    7.4399  -15.1011   20.6079 C   0  0  1  0  0  0  0  0  0  0  0  0
    8.5231  -15.9564   20.7246 O   0  0  0  0  0  0  0  0  0  0  0  0
    7.7565  -13.7276   21.1127 C   0  0  2  0  0  0  0  0  0  0  0  0
    8.6652  -13.0711   20.2211 N   0  0  0  0  0  0  0  0  0  0  0  0
    8.2403  -13.8222   22.4995 C   0  0  0  0  0  0  0  0  0  0  0  0
    9.4810  -13.5652   22.6523 O   0  0  0  0  0  0  0  0  0  0  0  0
    7.8829  -11.2823   26.4485 C   0  0  0  0  0  0  0  0  0  0  0  0
    6.7525  -12.1648   26.0585 C   0  0  2  0  0  0  0  0  0  0  0  0
    5.6009  -11.9979   27.0709 C   0  0  0  0  0  0  0  0  0  0  0  0
    7.0521  -13.5910   25.9056 C   0  0  0  0  0  0  0  0  0  0  0  0
    8.0664  -14.0853   24.9713 C   0  0  2  0  0  0  0  0  0  0  0  0
    7.4822  -14.1564   23.6112 N   0  0  0  0  0  0  0  0  0  0  0  0
    8.7348  -15.3469   25.2869 C   0  0  0  0  0  0  0  0  0  0  0  0
    9.1212  -15.6905   26.4474 O   0  0  0  0  0  0  0  0  0  0  0  0
    8.9761  -16.2739   24.2043 N   0  0  0  0  0  0  0  0  0  0  0  0
    9.5634  -17.5848   24.5291 C   0  0  1  0  0  0  0  0  0  0  0  0
    9.3652  -18.5144   23.3763 C   0  0  0  0  0  0  0  0  0  0  0  0
   10.2814  -18.2406   22.2460 C   0  0  0  0  0  0  0  0  0  0  0  0
   10.4507  -19.3041   21.2596 C   0  0  0  0  0  0  0  0  0  0  0  0
    9.7044  -19.4553   20.2687 O   0  0  0  0  0  0  0  0  0  0  0  0
   10.9824  -17.4038   24.9317 C   0  0  0  0  0  0  0  0  0  0  0  0
   11.6201  -16.3518   24.7185 O   0  0  0  0  0  0  0  0  0  0  0  0
   11.4980  -20.1984   21.4288 O   0  0  0  0  0  0  0  0  0  0  0  0
   11.6718  -18.4294   25.5798 O   0  0  0  0  0  0  0  0  0  0  0  0
  2  1  1  6
  3  2  1  0
  4  6  1  0
  4  2  1  0
  4  5  1  6
  6 13  1  0
  7  6  2  0
  9  8  1  1
  9 11  1  0
 10  9  1  0
 12 11  1  1
 13 12  1  0
 14 15  2  0
 14 12  1  0
 16 14  1  0
 17 16  1  0
 17 22  1  0
 17 18  1  6
 19 18  1  0
 20 19  1  0
 20 21  2  0
 22 25  1  0
 23 22  2  0
 24 20  1  0
M  END
$$$$
