TLE.pdb
     RDKit          3D

 25 24  0  0  1  0  0  0  0  0999 V2000
    6.2234  -16.5208   20.9025 C   0  0  0  0  0  0  0  0  0  0  0  0
    7.4810  -16.1504   20.1517 C   0  0  1  0  0  0  0  0  0  0  0  0
    7.3398  -16.4203   18.8005 O   0  0  0  0  0  0  0  0  0  0  0  0
    7.8498  -14.7207   20.3997 C   0  0  2  0  0  0  0  0  0  0  0  0
    8.8781  -14.3111   19.4906 N   0  0  0  0  0  0  0  0  0  0  0  0
    8.2017  -14.5518   21.8188 C   0  0  0  0  0  0  0  0  0  0  0  0
    9.4013  -14.8713   22.1145 O   0  0  0  0  0  0  0  0  0  0  0  0
    5.8994  -12.3070   27.1174 C   0  0  0  0  0  0  0  0  0  0  0  0
    7.0391  -12.9749   26.4364 C   0  0  2  0  0  0  0  0  0  0  0  0
    8.3451  -12.2262   26.7721 C   0  0  0  0  0  0  0  0  0  0  0  0
    6.9380  -13.1325   24.9831 C   0  0  0  0  0  0  0  0  0  0  0  0
    7.8418  -13.9980   24.2215 C   0  0  2  0  0  0  0  0  0  0  0  0
    7.3633  -14.0902   22.8220 N   0  0  0  0  0  0  0  0  0  0  0  0
    8.1088  -15.3387   24.7402 C   0  0  0  0  0  0  0  0  0  0  0  0
    7.2391  -16.2582   24.8509 O   0  0  0  0  0  0  0  0  0  0  0  0
    9.4578  -15.6459   25.1589 N   0  0  0  0  0  0  0  0  0  0  0  0
    9.7406  -17.0043   25.6526 C   0  0  1  0  0  0  0  0  0  0  0  0
   10.9587  -17.5347   24.9692 C   0  0  0  0  0  0  0  0  0  0  0  0
   10.7705  -17.7255   23.5132 C   0  0  0  0  0  0  0  0  0  0  0  0
   11.9331  -18.1688   22.7487 C   0  0  0  0  0  0  0  0  0  0  0  0
   13.1140  -17.9512   23.0947 O   0  0  0  0  0  0  0  0  0  0  0  0
    9.8325  -16.9814   27.1356 C   0  0  0  0  0  0  0  0  0  0  0  0
    9.9237  -15.9246   27.7943 O   0  0  0  0  0  0  0  0  0  0  0  0
   11.7181  -18.8714   21.5716 O   0  0  0  0  0  0  0  0  0  0  0  0
    9.8195  -18.1707   27.8652 O   0  0  0  0  0  0  0  0  0  0  0  0
  2  1  1  1
  3  2  1  0
  4  6  1  0
  4  2  1  0
  4  5  1  6
  6 13  1  0
  7  6  2  0
  9  8  1  6
  9 11  1  0
 10  9  1  0
 12 11  1  1
 13 12  1  0
 14 15  2  0
 14 12  1  0
 16 14  1  0
 17 16  1  0
 17 22  1  0
 17 18  1  6
 19 18  1  0
 20 19  1  0
 20 21  2  0
 22 25  1  0
 23 22  2  0
 24 20  1  0
M  END
$$$$
