TLE.pdb
     RDKit          3D

 25 24  0  0  1  0  0  0  0  0999 V2000
    6.4577  -16.8431   21.1810 C   0  0  0  0  0  0  0  0  0  0  0  0
    7.7582  -16.6938   20.4265 C   0  0  1  0  0  0  0  0  0  0  0  0
    7.6085  -17.1011   19.1112 O   0  0  0  0  0  0  0  0  0  0  0  0
    8.2728  -15.2911   20.5214 C   0  0  2  0  0  0  0  0  0  0  0  0
    9.4237  -15.1296   19.6841 N   0  0  0  0  0  0  0  0  0  0  0  0
    8.5082  -14.9574   21.9354 C   0  0  0  0  0  0  0  0  0  0  0  0
    9.6644  -15.2724   22.3744 O   0  0  0  0  0  0  0  0  0  0  0  0
    5.7512  -12.2420   26.7552 C   0  0  0  0  0  0  0  0  0  0  0  0
    6.9832  -12.9001   26.2472 C   0  0  2  0  0  0  0  0  0  0  0  0
    8.2143  -12.0665   26.6575 C   0  0  0  0  0  0  0  0  0  0  0  0
    7.0431  -13.1652   24.8073 C   0  0  0  0  0  0  0  0  0  0  0  0
    7.9332  -14.1756   24.2305 C   0  0  2  0  0  0  0  0  0  0  0  0
    7.6060  -14.3507   22.7957 N   0  0  0  0  0  0  0  0  0  0  0  0
    8.0036  -15.4824   24.8828 C   0  0  0  0  0  0  0  0  0  0  0  0
    7.0228  -16.2789   25.0146 O   0  0  0  0  0  0  0  0  0  0  0  0
    9.2785  -15.9034   25.4183 N   0  0  0  0  0  0  0  0  0  0  0  0
    9.3723  -17.2454   26.0174 C   0  0  1  0  0  0  0  0  0  0  0  0
   10.0611  -18.1656   25.0630 C   0  0  0  0  0  0  0  0  0  0  0  0
   11.3454  -17.6262   24.5615 C   0  0  0  0  0  0  0  0  0  0  0  0
   12.0274  -18.3978   23.5261 C   0  0  0  0  0  0  0  0  0  0  0  0
   13.0868  -19.0318   23.7191 O   0  0  0  0  0  0  0  0  0  0  0  0
   10.0233  -17.1469   27.3496 C   0  0  0  0  0  0  0  0  0  0  0  0
   10.2370  -18.1394   28.0764 O   0  0  0  0  0  0  0  0  0  0  0  0
   11.4705  -18.4310   22.2556 O   0  0  0  0  0  0  0  0  0  0  0  0
   10.4305  -15.9096   27.8499 O   0  0  0  0  0  0  0  0  0  0  0  0
  2  1  1  1
  3  2  1  0
  4  6  1  0
  4  2  1  0
  4  5  1  6
  6 13  1  0
  7  6  2  0
  9  8  1  6
  9 11  1  0
 10  9  1  0
 12 11  1  1
 13 12  1  0
 14 15  2  0
 14 12  1  0
 16 14  1  0
 17 16  1  0
 17 22  1  0
 17 18  1  6
 19 18  1  0
 20 19  1  0
 20 21  2  0
 22 25  1  0
 23 22  2  0
 24 20  1  0
M  END
$$$$
