TLE.pdb
     RDKit          3D

 25 24  0  0  1  0  0  0  0  0999 V2000
    7.0316  -15.9241   20.3370 C   0  0  0  0  0  0  0  0  0  0  0  0
    7.9759  -14.9719   19.6410 C   0  0  1  0  0  0  0  0  0  0  0  0
    7.8464  -15.0746   18.2659 O   0  0  0  0  0  0  0  0  0  0  0  0
    7.7666  -13.5683   20.1180 C   0  0  2  0  0  0  0  0  0  0  0  0
    8.5218  -12.6553   19.3130 N   0  0  0  0  0  0  0  0  0  0  0  0
    8.0739  -13.4957   21.5556 C   0  0  0  0  0  0  0  0  0  0  0  0
    9.3157  -13.3968   21.8332 O   0  0  0  0  0  0  0  0  0  0  0  0
    5.5460  -12.4637   27.0524 C   0  0  0  0  0  0  0  0  0  0  0  0
    6.7420  -12.9560   26.3203 C   0  0  2  0  0  0  0  0  0  0  0  0
    7.9957  -12.2202   26.8358 C   0  0  0  0  0  0  0  0  0  0  0  0
    6.7026  -12.8674   24.8582 C   0  0  0  0  0  0  0  0  0  0  0  0
    7.6082  -13.6347   23.9996 C   0  0  2  0  0  0  0  0  0  0  0  0
    7.1546  -13.5255   22.5929 N   0  0  0  0  0  0  0  0  0  0  0  0
    7.8466  -15.0383   24.3328 C   0  0  0  0  0  0  0  0  0  0  0  0
    6.9549  -15.9432   24.3339 O   0  0  0  0  0  0  0  0  0  0  0  0
    9.1920  -15.4303   24.6874 N   0  0  0  0  0  0  0  0  0  0  0  0
    9.4496  -16.8516   24.9740 C   0  0  1  0  0  0  0  0  0  0  0  0
   10.4789  -17.3690   24.0227 C   0  0  0  0  0  0  0  0  0  0  0  0
   11.7669  -16.6443   24.1110 C   0  0  0  0  0  0  0  0  0  0  0  0
   12.8256  -17.0637   23.1966 C   0  0  0  0  0  0  0  0  0  0  0  0
   12.7096  -18.0112   22.3902 O   0  0  0  0  0  0  0  0  0  0  0  0
    9.8079  -17.0090   26.4077 C   0  0  0  0  0  0  0  0  0  0  0  0
    9.9521  -16.0404   27.1821 O   0  0  0  0  0  0  0  0  0  0  0  0
   14.0291  -16.3734   23.2219 O   0  0  0  0  0  0  0  0  0  0  0  0
   10.0009  -18.2779   26.9550 O   0  0  0  0  0  0  0  0  0  0  0  0
  2  1  1  1
  3  2  1  0
  4  6  1  0
  4  2  1  0
  4  5  1  6
  6 13  1  0
  7  6  2  0
  9  8  1  1
  9 11  1  0
 10  9  1  0
 12 11  1  1
 13 12  1  0
 14 15  2  0
 14 12  1  0
 16 14  1  0
 17 16  1  0
 17 22  1  0
 17 18  1  6
 19 18  1  0
 20 19  1  0
 20 21  2  0
 22 25  1  0
 23 22  2  0
 24 20  1  0
M  END
$$$$
