TLE.pdb
     RDKit          3D

 25 24  0  0  1  0  0  0  0  0999 V2000
    6.9538  -17.1162   21.4985 C   0  0  0  0  0  0  0  0  0  0  0  0
    7.7421  -16.1467   20.6492 C   0  0  1  0  0  0  0  0  0  0  0  0
    7.4605  -16.3341   19.3061 O   0  0  0  0  0  0  0  0  0  0  0  0
    7.4930  -14.7346   21.0799 C   0  0  2  0  0  0  0  0  0  0  0  0
    8.0681  -13.8221   20.1373 N   0  0  0  0  0  0  0  0  0  0  0  0
    7.9774  -14.5573   22.4583 C   0  0  0  0  0  0  0  0  0  0  0  0
    9.2382  -14.3908   22.5654 O   0  0  0  0  0  0  0  0  0  0  0  0
    7.3686  -11.3567   25.7341 C   0  0  0  0  0  0  0  0  0  0  0  0
    6.3861  -12.4690   25.6537 C   0  0  2  0  0  0  0  0  0  0  0  0
    5.2318  -12.2039   26.6417 C   0  0  0  0  0  0  0  0  0  0  0  0
    6.9031  -13.8223   25.8738 C   0  0  0  0  0  0  0  0  0  0  0  0
    7.8321  -14.4697   24.9444 C   0  0  2  0  0  0  0  0  0  0  0  0
    7.2005  -14.5574   23.6067 N   0  0  0  0  0  0  0  0  0  0  0  0
    8.3801  -15.7731   25.3169 C   0  0  0  0  0  0  0  0  0  0  0  0
    7.7088  -16.8500   25.3762 O   0  0  0  0  0  0  0  0  0  0  0  0
    9.7866  -15.8477   25.6423 N   0  0  0  0  0  0  0  0  0  0  0  0
   10.3647  -17.1714   25.9297 C   0  0  1  0  0  0  0  0  0  0  0  0
   11.5532  -17.3927   25.0518 C   0  0  0  0  0  0  0  0  0  0  0  0
   12.7013  -16.5252   25.3998 C   0  0  0  0  0  0  0  0  0  0  0  0
   13.8101  -16.4834   24.4504 C   0  0  0  0  0  0  0  0  0  0  0  0
   13.8309  -15.7465   23.4413 O   0  0  0  0  0  0  0  0  0  0  0  0
   10.6500  -17.2801   27.3841 C   0  0  0  0  0  0  0  0  0  0  0  0
   10.5106  -16.3258   28.1769 O   0  0  0  0  0  0  0  0  0  0  0  0
   14.9036  -17.3066   24.6785 O   0  0  0  0  0  0  0  0  0  0  0  0
   11.0954  -18.4841   27.9310 O   0  0  0  0  0  0  0  0  0  0  0  0
  2  1  1  1
  3  2  1  0
  4  6  1  0
  4  2  1  0
  4  5  1  6
  6 13  1  0
  7  6  2  0
  9  8  1  1
  9 11  1  0
 10  9  1  0
 12 11  1  1
 13 12  1  0
 14 15  2  0
 14 12  1  0
 16 14  1  0
 17 16  1  0
 17 22  1  0
 17 18  1  6
 19 18  1  0
 20 19  1  0
 20 21  2  0
 22 25  1  0
 23 22  2  0
 24 20  1  0
M  END
$$$$
