TLE.pdb
     RDKit          3D

 25 24  0  0  1  0  0  0  0  0999 V2000
    7.8640  -18.1490   22.2499 C   0  0  0  0  0  0  0  0  0  0  0  0
    8.7157  -17.3987   21.2528 C   0  0  1  0  0  0  0  0  0  0  0  0
    8.8030  -18.0992   20.0612 O   0  0  0  0  0  0  0  0  0  0  0  0
    8.1978  -16.0091   21.0467 C   0  0  2  0  0  0  0  0  0  0  0  0
    8.7489  -15.4492   19.8490 N   0  0  0  0  0  0  0  0  0  0  0  0
    8.4581  -15.2121   22.2563 C   0  0  0  0  0  0  0  0  0  0  0  0
    9.5770  -14.5983   22.2624 O   0  0  0  0  0  0  0  0  0  0  0  0
    5.6204  -12.6630   27.0878 C   0  0  0  0  0  0  0  0  0  0  0  0
    6.9163  -12.9695   26.4277 C   0  0  2  0  0  0  0  0  0  0  0  0
    7.7081  -11.6617   26.2241 C   0  0  0  0  0  0  0  0  0  0  0  0
    6.8529  -13.6936   25.1554 C   0  0  0  0  0  0  0  0  0  0  0  0
    8.0343  -14.2987   24.5357 C   0  0  2  0  0  0  0  0  0  0  0  0
    7.6148  -15.0810   23.3489 N   0  0  0  0  0  0  0  0  0  0  0  0
    8.9112  -15.1118   25.3769 C   0  0  0  0  0  0  0  0  0  0  0  0
    9.5204  -14.6888   26.4084 O   0  0  0  0  0  0  0  0  0  0  0  0
    9.1026  -16.4978   25.0135 N   0  0  0  0  0  0  0  0  0  0  0  0
    9.9823  -17.3232   25.8584 C   0  0  1  0  0  0  0  0  0  0  0  0
    9.3268  -18.6411   26.1146 C   0  0  0  0  0  0  0  0  0  0  0  0
    8.3272  -18.5898   27.2055 C   0  0  0  0  0  0  0  0  0  0  0  0
    7.7256  -19.8571   27.6113 C   0  0  0  0  0  0  0  0  0  0  0  0
    7.9889  -20.9532   27.0721 O   0  0  0  0  0  0  0  0  0  0  0  0
   11.3241  -17.4200   25.2272 C   0  0  0  0  0  0  0  0  0  0  0  0
   12.2776  -18.0343   25.7491 O   0  0  0  0  0  0  0  0  0  0  0  0
    6.8101  -19.8472   28.6539 O   0  0  0  0  0  0  0  0  0  0  0  0
   11.5740  -16.8125   23.9962 O   0  0  0  0  0  0  0  0  0  0  0  0
  2  1  1  1
  3  2  1  0
  4  6  1  0
  4  2  1  0
  4  5  1  6
  6 13  1  0
  7  6  2  0
  9  8  1  6
  9 11  1  0
 10  9  1  0
 12 11  1  1
 13 12  1  0
 14 15  2  0
 14 12  1  0
 16 14  1  0
 17 16  1  0
 17 22  1  0
 17 18  1  6
 19 18  1  0
 20 19  1  0
 20 21  2  0
 22 25  1  0
 23 22  2  0
 24 20  1  0
M  END
$$$$
