TLE.pdb
     RDKit          3D

 25 24  0  0  1  0  0  0  0  0999 V2000
    7.9283  -18.6677   20.3225 C   0  0  0  0  0  0  0  0  0  0  0  0
    8.3115  -17.6505   21.3717 C   0  0  1  0  0  0  0  0  0  0  0  0
    9.6609  -17.7423   21.6703 O   0  0  0  0  0  0  0  0  0  0  0  0
    7.9279  -16.2688   20.9414 C   0  0  2  0  0  0  0  0  0  0  0  0
    8.5769  -15.9375   19.7081 N   0  0  0  0  0  0  0  0  0  0  0  0
    8.2062  -15.3267   22.0374 C   0  0  0  0  0  0  0  0  0  0  0  0
    9.2735  -14.6415   21.8962 O   0  0  0  0  0  0  0  0  0  0  0  0
    8.0252  -12.0672   26.2443 C   0  0  0  0  0  0  0  0  0  0  0  0
    6.6766  -12.5670   25.8699 C   0  0  2  0  0  0  0  0  0  0  0  0
    5.9480  -13.0678   27.1337 C   0  0  0  0  0  0  0  0  0  0  0  0
    6.6220  -13.6094   24.8415 C   0  0  0  0  0  0  0  0  0  0  0  0
    7.8249  -14.1391   24.1947 C   0  0  2  0  0  0  0  0  0  0  0  0
    7.4288  -15.1327   23.1689 N   0  0  0  0  0  0  0  0  0  0  0  0
    8.8723  -14.7011   25.0463 C   0  0  0  0  0  0  0  0  0  0  0  0
    9.3217  -14.1504   26.0992 O   0  0  0  0  0  0  0  0  0  0  0  0
    9.4411  -15.9749   24.6676 N   0  0  0  0  0  0  0  0  0  0  0  0
   10.4725  -16.5627   25.5392 C   0  0  1  0  0  0  0  0  0  0  0  0
    9.8808  -17.6988   26.3082 C   0  0  0  0  0  0  0  0  0  0  0  0
   10.9014  -18.5691   26.9349 C   0  0  0  0  0  0  0  0  0  0  0  0
   10.6750  -18.9592   28.3239 C   0  0  0  0  0  0  0  0  0  0  0  0
    9.7938  -18.4528   29.0510 O   0  0  0  0  0  0  0  0  0  0  0  0
   11.6587  -16.9291   24.7224 C   0  0  0  0  0  0  0  0  0  0  0  0
   11.5718  -17.3621   23.5545 O   0  0  0  0  0  0  0  0  0  0  0  0
   11.4816  -19.9474   28.8700 O   0  0  0  0  0  0  0  0  0  0  0  0
   12.9463  -16.7992   25.2441 O   0  0  0  0  0  0  0  0  0  0  0  0
  2  1  1  6
  3  2  1  0
  4  6  1  0
  4  2  1  0
  4  5  1  6
  6 13  1  0
  7  6  2  0
  9  8  1  1
  9 11  1  0
 10  9  1  0
 12 11  1  1
 13 12  1  0
 14 15  2  0
 14 12  1  0
 16 14  1  0
 17 16  1  0
 17 22  1  0
 17 18  1  6
 19 18  1  0
 20 19  1  0
 20 21  2  0
 22 25  1  0
 23 22  2  0
 24 20  1  0
M  END
$$$$
