TLE.pdb
     RDKit          3D

 25 24  0  0  1  0  0  0  0  0999 V2000
    7.0607  -15.4663   20.0382 C   0  0  0  0  0  0  0  0  0  0  0  0
    8.1904  -14.5915   19.5472 C   0  0  1  0  0  0  0  0  0  0  0  0
    8.1683  -14.4959   18.1656 O   0  0  0  0  0  0  0  0  0  0  0  0
    8.1461  -13.2451   20.2006 C   0  0  2  0  0  0  0  0  0  0  0  0
    8.9703  -12.3200   19.4818 N   0  0  0  0  0  0  0  0  0  0  0  0
    8.5014  -13.3859   21.6219 C   0  0  0  0  0  0  0  0  0  0  0  0
    9.7041  -13.0683   21.9070 O   0  0  0  0  0  0  0  0  0  0  0  0
    5.7882  -12.7226   27.0202 C   0  0  0  0  0  0  0  0  0  0  0  0
    7.0531  -13.0370   26.3060 C   0  0  2  0  0  0  0  0  0  0  0  0
    8.0972  -11.9433   26.6101 C   0  0  0  0  0  0  0  0  0  0  0  0
    6.9625  -13.2219   24.8552 C   0  0  0  0  0  0  0  0  0  0  0  0
    8.0829  -13.7226   24.0552 C   0  0  2  0  0  0  0  0  0  0  0  0
    7.6633  -13.8205   22.6372 N   0  0  0  0  0  0  0  0  0  0  0  0
    8.7177  -14.9733   24.4685 C   0  0  0  0  0  0  0  0  0  0  0  0
    8.9428  -15.3066   25.6736 O   0  0  0  0  0  0  0  0  0  0  0  0
    9.1204  -15.9011   23.4358 N   0  0  0  0  0  0  0  0  0  0  0  0
    9.7974  -17.1440   23.8429 C   0  0  1  0  0  0  0  0  0  0  0  0
    9.9662  -18.0281   22.6505 C   0  0  0  0  0  0  0  0  0  0  0  0
    8.6916  -18.3107   21.9525 C   0  0  0  0  0  0  0  0  0  0  0  0
    8.7579  -19.1791   20.7803 C   0  0  0  0  0  0  0  0  0  0  0  0
    9.7912  -19.7851   20.4245 O   0  0  0  0  0  0  0  0  0  0  0  0
   11.0662  -16.8092   24.5405 C   0  0  0  0  0  0  0  0  0  0  0  0
   11.8295  -17.6757   25.0151 O   0  0  0  0  0  0  0  0  0  0  0  0
    7.6110  -19.3428   20.0165 O   0  0  0  0  0  0  0  0  0  0  0  0
   11.4611  -15.4798   24.6944 O   0  0  0  0  0  0  0  0  0  0  0  0
  2  1  1  1
  3  2  1  0
  4  6  1  0
  4  2  1  0
  4  5  1  6
  6 13  1  0
  7  6  2  0
  9  8  1  6
  9 11  1  0
 10  9  1  0
 12 11  1  1
 13 12  1  0
 14 15  2  0
 14 12  1  0
 16 14  1  0
 17 16  1  0
 17 22  1  0
 17 18  1  6
 19 18  1  0
 20 19  1  0
 20 21  2  0
 22 25  1  0
 23 22  2  0
 24 20  1  0
M  END
$$$$
