TLE.pdb
     RDKit          3D

 25 24  0  0  1  0  0  0  0  0999 V2000
    6.8938  -16.2001   20.5461 C   0  0  0  0  0  0  0  0  0  0  0  0
    7.7557  -15.1214   19.9328 C   0  0  1  0  0  0  0  0  0  0  0  0
    7.5198  -15.0236   18.5715 O   0  0  0  0  0  0  0  0  0  0  0  0
    7.5503  -13.8126   20.6302 C   0  0  2  0  0  0  0  0  0  0  0  0
    8.1874  -12.7582   19.8994 N   0  0  0  0  0  0  0  0  0  0  0  0
    8.0019  -13.9328   22.0259 C   0  0  0  0  0  0  0  0  0  0  0  0
    9.2685  -13.9712   22.1772 O   0  0  0  0  0  0  0  0  0  0  0  0
    7.7416  -11.3325   25.8974 C   0  0  0  0  0  0  0  0  0  0  0  0
    6.6128  -12.2365   25.5549 C   0  0  2  0  0  0  0  0  0  0  0  0
    5.4474  -11.9933   26.5355 C   0  0  0  0  0  0  0  0  0  0  0  0
    6.9078  -13.6711   25.5088 C   0  0  0  0  0  0  0  0  0  0  0  0
    7.7722  -14.2633   24.4850 C   0  0  2  0  0  0  0  0  0  0  0  0
    7.1895  -14.0051   23.1471 N   0  0  0  0  0  0  0  0  0  0  0  0
    8.1130  -15.6798   24.6089 C   0  0  0  0  0  0  0  0  0  0  0  0
    7.3113  -16.6393   24.3839 O   0  0  0  0  0  0  0  0  0  0  0  0
    9.4578  -16.0189   25.0165 N   0  0  0  0  0  0  0  0  0  0  0  0
    9.8227  -17.4435   25.0942 C   0  0  1  0  0  0  0  0  0  0  0  0
   10.8912  -17.7353   24.0915 C   0  0  0  0  0  0  0  0  0  0  0  0
   12.0374  -16.8022   24.1768 C   0  0  0  0  0  0  0  0  0  0  0  0
   13.1851  -17.0844   23.3190 C   0  0  0  0  0  0  0  0  0  0  0  0
   14.1677  -16.3211   23.2028 O   0  0  0  0  0  0  0  0  0  0  0  0
   10.1881  -17.7839   26.4938 C   0  0  0  0  0  0  0  0  0  0  0  0
   10.6123  -18.9088   26.8308 O   0  0  0  0  0  0  0  0  0  0  0  0
   13.1881  -18.2656   22.5908 O   0  0  0  0  0  0  0  0  0  0  0  0
   10.0675  -16.8342   27.5089 O   0  0  0  0  0  0  0  0  0  0  0  0
  2  1  1  1
  3  2  1  0
  4  6  1  0
  4  2  1  0
  4  5  1  6
  6 13  1  0
  7  6  2  0
  9  8  1  1
  9 11  1  0
 10  9  1  0
 12 11  1  1
 13 12  1  0
 14 15  2  0
 14 12  1  0
 16 14  1  0
 17 16  1  0
 17 22  1  0
 17 18  1  6
 19 18  1  0
 20 19  1  0
 20 21  2  0
 22 25  1  0
 23 22  2  0
 24 20  1  0
M  END
$$$$
