TLE.pdb
     RDKit          3D

 25 24  0  0  1  0  0  0  0  0999 V2000
    6.4394  -16.6383   19.0519 C   0  0  0  0  0  0  0  0  0  0  0  0
    7.0331  -16.4200   20.4239 C   0  0  1  0  0  0  0  0  0  0  0  0
    7.8451  -17.4845   20.7790 O   0  0  0  0  0  0  0  0  0  0  0  0
    7.7639  -15.1150   20.4883 C   0  0  2  0  0  0  0  0  0  0  0  0
    8.8604  -15.1170   19.5665 N   0  0  0  0  0  0  0  0  0  0  0  0
    8.1529  -14.8473   21.8823 C   0  0  0  0  0  0  0  0  0  0  0  0
    9.3501  -15.1769   22.1767 O   0  0  0  0  0  0  0  0  0  0  0  0
    5.9374  -12.3767   27.1124 C   0  0  0  0  0  0  0  0  0  0  0  0
    7.1273  -12.9043   26.3949 C   0  0  2  0  0  0  0  0  0  0  0  0
    8.3071  -11.9271   26.5742 C   0  0  0  0  0  0  0  0  0  0  0  0
    6.9609  -13.1970   24.9688 C   0  0  0  0  0  0  0  0  0  0  0  0
    7.8697  -14.0827   24.2370 C   0  0  2  0  0  0  0  0  0  0  0  0
    7.3505  -14.2863   22.8640 N   0  0  0  0  0  0  0  0  0  0  0  0
    8.1998  -15.3753   24.8355 C   0  0  0  0  0  0  0  0  0  0  0  0
    7.4071  -16.3659   24.9007 O   0  0  0  0  0  0  0  0  0  0  0  0
    9.5218  -15.5438   25.3953 N   0  0  0  0  0  0  0  0  0  0  0  0
    9.9379  -16.8969   25.8014 C   0  0  1  0  0  0  0  0  0  0  0  0
   11.0230  -17.3739   24.8920 C   0  0  0  0  0  0  0  0  0  0  0  0
   11.5793  -18.6866   25.2910 C   0  0  0  0  0  0  0  0  0  0  0  0
   12.6521  -19.2297   24.4623 C   0  0  0  0  0  0  0  0  0  0  0  0
   13.1108  -18.6497   23.4550 O   0  0  0  0  0  0  0  0  0  0  0  0
   10.3061  -16.8888   27.2411 C   0  0  0  0  0  0  0  0  0  0  0  0
   10.6437  -15.8525   27.8501 O   0  0  0  0  0  0  0  0  0  0  0  0
   13.1951  -20.4583   24.8103 O   0  0  0  0  0  0  0  0  0  0  0  0
   10.2871  -18.0696   27.9843 O   0  0  0  0  0  0  0  0  0  0  0  0
  2  1  1  6
  3  2  1  0
  4  6  1  0
  4  2  1  0
  4  5  1  6
  6 13  1  0
  7  6  2  0
  9  8  1  6
  9 11  1  0
 10  9  1  0
 12 11  1  1
 13 12  1  0
 14 15  2  0
 14 12  1  0
 16 14  1  0
 17 16  1  0
 17 22  1  0
 17 18  1  6
 19 18  1  0
 20 19  1  0
 20 21  2  0
 22 25  1  0
 23 22  2  0
 24 20  1  0
M  END
$$$$
