TLE.pdb
     RDKit          3D

 25 24  0  0  1  0  0  0  0  0999 V2000
    6.5782  -16.2359   20.9221 C   0  0  0  0  0  0  0  0  0  0  0  0
    7.5474  -15.2765   20.2718 C   0  0  1  0  0  0  0  0  0  0  0  0
    7.3097  -15.1914   18.9099 O   0  0  0  0  0  0  0  0  0  0  0  0
    7.4946  -13.9341   20.9325 C   0  0  2  0  0  0  0  0  0  0  0  0
    8.2168  -12.9721   20.1548 N   0  0  0  0  0  0  0  0  0  0  0  0
    7.9675  -14.0599   22.3205 C   0  0  0  0  0  0  0  0  0  0  0  0
    9.2365  -14.0560   22.4561 O   0  0  0  0  0  0  0  0  0  0  0  0
    7.9086  -11.3795   26.1106 C   0  0  0  0  0  0  0  0  0  0  0  0
    6.7281  -12.2267   25.7983 C   0  0  2  0  0  0  0  0  0  0  0  0
    5.5856  -11.8930   26.7792 C   0  0  0  0  0  0  0  0  0  0  0  0
    6.9413  -13.6763   25.7875 C   0  0  0  0  0  0  0  0  0  0  0  0
    7.7846  -14.3394   24.7899 C   0  0  2  0  0  0  0  0  0  0  0  0
    7.1723  -14.1781   23.4501 N   0  0  0  0  0  0  0  0  0  0  0  0
    8.1318  -15.7430   25.0072 C   0  0  0  0  0  0  0  0  0  0  0  0
    7.2911  -16.6921   25.0882 O   0  0  0  0  0  0  0  0  0  0  0  0
    9.5309  -16.0811   25.1403 N   0  0  0  0  0  0  0  0  0  0  0  0
    9.8899  -17.4978   25.3221 C   0  0  1  0  0  0  0  0  0  0  0  0
   10.9895  -17.8543   24.3755 C   0  0  0  0  0  0  0  0  0  0  0  0
   12.2427  -17.1099   24.6351 C   0  0  0  0  0  0  0  0  0  0  0  0
   13.3529  -17.3430   23.7155 C   0  0  0  0  0  0  0  0  0  0  0  0
   13.8346  -16.4607   22.9731 O   0  0  0  0  0  0  0  0  0  0  0  0
   10.2091  -17.7465   26.7520 C   0  0  0  0  0  0  0  0  0  0  0  0
   10.2986  -16.8319   27.5971 O   0  0  0  0  0  0  0  0  0  0  0  0
   13.9064  -18.6142   23.6604 O   0  0  0  0  0  0  0  0  0  0  0  0
   10.4259  -19.0450   27.2144 O   0  0  0  0  0  0  0  0  0  0  0  0
  2  1  1  1
  3  2  1  0
  4  6  1  0
  4  2  1  0
  4  5  1  6
  6 13  1  0
  7  6  2  0
  9  8  1  1
  9 11  1  0
 10  9  1  0
 12 11  1  1
 13 12  1  0
 14 15  2  0
 14 12  1  0
 16 14  1  0
 17 16  1  0
 17 22  1  0
 17 18  1  6
 19 18  1  0
 20 19  1  0
 20 21  2  0
 22 25  1  0
 23 22  2  0
 24 20  1  0
M  END
$$$$
