TLE.pdb
     RDKit          3D

 25 24  0  0  1  0  0  0  0  0999 V2000
   14.6401  -17.5052   17.1439 C   0  0  0  0  0  0  0  0  0  0  0  0
   13.7609  -16.8135   18.1593 C   0  0  1  0  0  0  0  0  0  0  0  0
   14.2551  -16.9995   19.4398 O   0  0  0  0  0  0  0  0  0  0  0  0
   13.6019  -15.3622   17.8279 C   0  0  2  0  0  0  0  0  0  0  0  0
   14.8857  -14.7340   17.7320 N   0  0  0  0  0  0  0  0  0  0  0  0
   12.7008  -14.7382   18.8101 C   0  0  0  0  0  0  0  0  0  0  0  0
   13.2725  -13.9529   19.6378 O   0  0  0  0  0  0  0  0  0  0  0  0
    6.7856  -13.2992   19.6096 C   0  0  0  0  0  0  0  0  0  0  0  0
    8.1679  -13.2330   20.1515 C   0  0  2  0  0  0  0  0  0  0  0  0
    8.5572  -11.7582   20.3802 C   0  0  0  0  0  0  0  0  0  0  0  0
    9.2163  -13.8882   19.3649 C   0  0  0  0  0  0  0  0  0  0  0  0
   10.5351  -14.2021   19.9200 C   0  0  2  0  0  0  0  0  0  0  0  0
   11.3308  -14.9296   18.9032 N   0  0  0  0  0  0  0  0  0  0  0  0
   10.5920  -14.9172   21.1942 C   0  0  0  0  0  0  0  0  0  0  0  0
   10.0779  -14.5033   22.2797 O   0  0  0  0  0  0  0  0  0  0  0  0
   11.2818  -16.1871   21.2270 N   0  0  0  0  0  0  0  0  0  0  0  0
   11.2721  -16.9515   22.4858 C   0  0  1  0  0  0  0  0  0  0  0  0
   11.7081  -18.3546   22.2152 C   0  0  0  0  0  0  0  0  0  0  0  0
   10.9755  -18.9837   21.0930 C   0  0  0  0  0  0  0  0  0  0  0  0
   11.3992  -20.3234   20.6949 C   0  0  0  0  0  0  0  0  0  0  0  0
   11.8148  -20.6074   19.5511 O   0  0  0  0  0  0  0  0  0  0  0  0
   12.0927  -16.2411   23.5009 C   0  0  0  0  0  0  0  0  0  0  0  0
   12.8609  -15.2993   23.2153 O   0  0  0  0  0  0  0  0  0  0  0  0
   11.3385  -21.3402   21.6371 O   0  0  0  0  0  0  0  0  0  0  0  0
   12.0328  -16.6102   24.8452 O   0  0  0  0  0  0  0  0  0  0  0  0
  2  1  1  6
  3  2  1  0
  4  6  1  0
  4  2  1  0
  4  5  1  1
  6 13  1  0
  7  6  2  0
  9  8  1  6
  9 11  1  0
 10  9  1  0
 12 11  1  6
 13 12  1  0
 14 15  2  0
 14 12  1  0
 16 14  1  0
 17 16  1  0
 17 22  1  0
 17 18  1  6
 19 18  1  0
 20 19  1  0
 20 21  2  0
 22 25  1  0
 23 22  2  0
 24 20  1  0
M  END
$$$$
