TLE.pdb
     RDKit          3D

 25 24  0  0  1  0  0  0  0  0999 V2000
    6.7015  -17.6328   20.6725 C   0  0  0  0  0  0  0  0  0  0  0  0
    7.4144  -17.0048   21.8472 C   0  0  1  0  0  0  0  0  0  0  0  0
    8.6769  -17.5533   22.0015 O   0  0  0  0  0  0  0  0  0  0  0  0
    7.4665  -15.5152   21.7063 C   0  0  2  0  0  0  0  0  0  0  0  0
    8.0765  -15.1580   20.4604 N   0  0  0  0  0  0  0  0  0  0  0  0
    8.1328  -14.9413   22.8865 C   0  0  0  0  0  0  0  0  0  0  0  0
    9.3148  -14.5083   22.6762 O   0  0  0  0  0  0  0  0  0  0  0  0
    7.4738  -11.0715   25.5087 C   0  0  0  0  0  0  0  0  0  0  0  0
    6.6433  -12.2662   25.8116 C   0  0  2  0  0  0  0  0  0  0  0  0
    5.6638  -11.9313   26.9550 C   0  0  0  0  0  0  0  0  0  0  0  0
    7.3601  -13.5008   26.1419 C   0  0  0  0  0  0  0  0  0  0  0  0
    8.3272  -14.1162   25.2298 C   0  0  2  0  0  0  0  0  0  0  0  0
    7.5972  -14.8384   24.1612 N   0  0  0  0  0  0  0  0  0  0  0  0
    9.3527  -14.9877   25.8014 C   0  0  0  0  0  0  0  0  0  0  0  0
   10.0639  -14.7005   26.8142 O   0  0  0  0  0  0  0  0  0  0  0  0
    9.5783  -16.2697   25.1727 N   0  0  0  0  0  0  0  0  0  0  0  0
   10.6612  -17.1198   25.6956 C   0  0  1  0  0  0  0  0  0  0  0  0
   10.1208  -18.4803   25.9944 C   0  0  0  0  0  0  0  0  0  0  0  0
   11.1550  -19.4214   26.4808 C   0  0  0  0  0  0  0  0  0  0  0  0
   10.6875  -20.6070   27.1939 C   0  0  0  0  0  0  0  0  0  0  0  0
   10.7202  -20.7254   28.4374 O   0  0  0  0  0  0  0  0  0  0  0  0
   11.8006  -17.1103   24.7415 C   0  0  0  0  0  0  0  0  0  0  0  0
   12.9624  -17.4305   25.0678 O   0  0  0  0  0  0  0  0  0  0  0  0
   10.1774  -21.6629   26.4521 O   0  0  0  0  0  0  0  0  0  0  0  0
   11.6085  -16.7338   23.4118 O   0  0  0  0  0  0  0  0  0  0  0  0
  2  1  1  6
  3  2  1  0
  4  6  1  0
  4  2  1  0
  4  5  1  6
  6 13  1  0
  7  6  2  0
  9  8  1  1
  9 11  1  0
 10  9  1  0
 12 11  1  1
 13 12  1  0
 14 15  2  0
 14 12  1  0
 16 14  1  0
 17 16  1  0
 17 22  1  0
 17 18  1  6
 19 18  1  0
 20 19  1  0
 20 21  2  0
 22 25  1  0
 23 22  2  0
 24 20  1  0
M  END
$$$$
