TLE.pdb
     RDKit          3D

 25 24  0  0  1  0  0  0  0  0999 V2000
    8.5997  -20.5588   17.7891 C   0  0  0  0  0  0  0  0  0  0  0  0
    9.0584  -19.4896   18.7529 C   0  0  1  0  0  0  0  0  0  0  0  0
   10.2381  -19.8658   19.3734 O   0  0  0  0  0  0  0  0  0  0  0  0
    9.1880  -18.1677   18.0621 C   0  0  2  0  0  0  0  0  0  0  0  0
   10.1370  -18.2601   16.9932 N   0  0  0  0  0  0  0  0  0  0  0  0
    9.5053  -17.1313   19.0578 C   0  0  0  0  0  0  0  0  0  0  0  0
   10.7144  -16.7233   19.0391 O   0  0  0  0  0  0  0  0  0  0  0  0
    8.4263  -12.7293   19.7972 C   0  0  0  0  0  0  0  0  0  0  0  0
    7.4987  -13.7592   20.3335 C   0  0  2  0  0  0  0  0  0  0  0  0
    6.2509  -13.0677   20.9198 C   0  0  0  0  0  0  0  0  0  0  0  0
    8.0456  -14.6842   21.3297 C   0  0  0  0  0  0  0  0  0  0  0  0
    9.1105  -15.6394   21.0143 C   0  0  2  0  0  0  0  0  0  0  0  0
    8.6266  -16.5843   19.9802 N   0  0  0  0  0  0  0  0  0  0  0  0
    9.7147  -16.3842   22.1180 C   0  0  0  0  0  0  0  0  0  0  0  0
    9.3013  -17.5069   22.5453 O   0  0  0  0  0  0  0  0  0  0  0  0
   10.8656  -15.8060   22.7743 N   0  0  0  0  0  0  0  0  0  0  0  0
   11.4335  -16.5140   23.9341 C   0  0  1  0  0  0  0  0  0  0  0  0
   12.8666  -16.1245   24.0976 C   0  0  0  0  0  0  0  0  0  0  0  0
   13.7432  -16.6808   23.0422 C   0  0  0  0  0  0  0  0  0  0  0  0
   15.1537  -16.3053   23.0882 C   0  0  0  0  0  0  0  0  0  0  0  0
   15.8971  -16.5231   24.0688 O   0  0  0  0  0  0  0  0  0  0  0  0
   10.5899  -16.2580   25.1303 C   0  0  0  0  0  0  0  0  0  0  0  0
    9.6867  -15.3962   25.1528 O   0  0  0  0  0  0  0  0  0  0  0  0
   15.7026  -15.6711   21.9827 O   0  0  0  0  0  0  0  0  0  0  0  0
   10.7809  -16.9904   26.3025 O   0  0  0  0  0  0  0  0  0  0  0  0
  2  1  1  6
  3  2  1  0
  4  6  1  0
  4  2  1  0
  4  5  1  6
  6 13  1  0
  7  6  2  0
  9  8  1  1
  9 11  1  0
 10  9  1  0
 12 11  1  1
 13 12  1  0
 14 15  2  0
 14 12  1  0
 16 14  1  0
 17 16  1  0
 17 22  1  0
 17 18  1  1
 19 18  1  0
 20 19  1  0
 20 21  2  0
 22 25  1  0
 23 22  2  0
 24 20  1  0
M  END
$$$$
