CEE.pdb
     RDKit          3D

 25 24  0  0  1  0  0  0  0  0999 V2000
   13.9681  -11.3696  -10.5646 N   0  0  0  0  0  0  0  0  0  0  0  0
   15.2959  -10.9541  -10.1981 C   0  0  1  0  0  0  0  0  0  0  0  0
   16.3635  -11.7234  -10.9612 C   0  0  0  0  0  0  0  0  0  0  0  0
   16.5679  -13.3750  -10.2159 S   0  0  0  0  0  0  0  0  0  0  0  0
   15.4575   -9.5198  -10.5369 C   0  0  0  0  0  0  0  0  0  0  0  0
   15.0329   -9.0670  -11.6047 O   0  0  0  0  0  0  0  0  0  0  0  0
   16.1074   -8.6109   -9.6456 N   0  0  0  0  0  0  0  0  0  0  0  0
   16.2720   -7.2209   -9.9153 C   0  0  1  0  0  0  0  0  0  0  0  0
   15.6663   -6.3366   -8.8570 C   0  0  0  0  0  0  0  0  0  0  0  0
   15.8168   -4.8791   -9.2064 C   0  0  0  0  0  0  0  0  0  0  0  0
   15.0796   -4.0080   -8.2544 C   0  0  0  0  0  0  0  0  0  0  0  0
   14.2057   -3.2331   -8.7135 O   0  0  0  0  0  0  0  0  0  0  0  0
   17.6682   -6.8594  -10.2277 C   0  0  0  0  0  0  0  0  0  0  0  0
   18.5340   -7.0065   -9.3442 O   0  0  0  0  0  0  0  0  0  0  0  0
   15.3184   -4.0191   -6.8954 O   0  0  0  0  0  0  0  0  0  0  0  0
   18.0317   -6.3591  -11.4864 N   0  0  0  0  0  0  0  0  0  0  0  0
   19.4753   -6.2020  -11.7835 C   0  0  1  0  0  0  0  0  0  0  0  0
   19.9199   -7.3188  -12.6532 C   0  0  0  0  0  0  0  0  0  0  0  0
   21.3331   -7.2935  -13.0991 C   0  0  0  0  0  0  0  0  0  0  0  0
   21.7532   -8.4074  -13.9589 C   0  0  0  0  0  0  0  0  0  0  0  0
   22.4882   -8.2945  -14.9945 O   0  0  0  0  0  0  0  0  0  0  0  0
   19.6938   -4.8359  -12.2128 C   0  0  0  0  0  0  0  0  0  0  0  0
   20.9532   -4.2570  -12.1769 O   0  0  0  0  0  0  0  0  0  0  0  0
   21.3221   -9.6905  -13.6280 O   0  0  0  0  0  0  0  0  0  0  0  0
   18.7433   -4.1308  -12.6329 O   0  0  0  0  0  0  0  0  0  0  0  0
  2  5  1  0
  2  1  1  6
  3  2  1  0
  4  3  1  0
  5  6  2  0
  7  8  1  0
  7  5  1  0
  8  9  1  1
  9 10  1  0
 10 11  1  0
 11 15  1  0
 11 12  2  0
 13  8  1  0
 14 13  2  0
 16 13  1  0
 17 18  1  6
 17 16  1  0
 18 19  1  0
 20 19  1  0
 20 21  2  0
 22 23  1  0
 22 17  1  0
 24 20  1  0
 25 22  2  0
M  END
$$$$
