CEE.pdb
     RDKit          3D

 25 24  0  0  1  0  0  0  0  0999 V2000
   16.3361   -9.4489  -10.5301 N   0  0  0  0  0  0  0  0  0  0  0  0
   16.4346   -8.9648  -11.8813 C   0  0  1  0  0  0  0  0  0  0  0  0
   15.4982   -7.7931  -12.1354 C   0  0  0  0  0  0  0  0  0  0  0  0
   13.7702   -8.3611  -12.0074 S   0  0  0  0  0  0  0  0  0  0  0  0
   17.8174   -8.4844  -12.1163 C   0  0  0  0  0  0  0  0  0  0  0  0
   18.3828   -7.7503  -11.2995 O   0  0  0  0  0  0  0  0  0  0  0  0
   18.5453   -8.8504  -13.2906 N   0  0  0  0  0  0  0  0  0  0  0  0
   19.8630   -8.3897  -13.5797 C   0  0  1  0  0  0  0  0  0  0  0  0
   20.7022   -9.4110  -14.3017 C   0  0  0  0  0  0  0  0  0  0  0  0
   22.0819   -8.8815  -14.5937 C   0  0  0  0  0  0  0  0  0  0  0  0
   22.9037   -9.8723  -15.3364 C   0  0  0  0  0  0  0  0  0  0  0  0
   23.0736   -9.6988  -16.5676 O   0  0  0  0  0  0  0  0  0  0  0  0
   19.8764   -7.0713  -14.2425 C   0  0  0  0  0  0  0  0  0  0  0  0
   19.1848   -6.9118  -15.2663 O   0  0  0  0  0  0  0  0  0  0  0  0
   23.4820  -10.9673  -14.7277 O   0  0  0  0  0  0  0  0  0  0  0  0
   20.6451   -6.0088  -13.7456 N   0  0  0  0  0  0  0  0  0  0  0  0
   20.5568   -4.7013  -14.4380 C   0  0  1  0  0  0  0  0  0  0  0  0
   19.5356   -3.8602  -13.7663 C   0  0  0  0  0  0  0  0  0  0  0  0
   19.4338   -2.4513  -14.2148 C   0  0  0  0  0  0  0  0  0  0  0  0
   18.4518   -1.6226  -13.5038 C   0  0  0  0  0  0  0  0  0  0  0  0
   18.1761   -0.4106  -13.7875 O   0  0  0  0  0  0  0  0  0  0  0  0
   21.9036   -4.1926  -14.5985 C   0  0  0  0  0  0  0  0  0  0  0  0
   22.2202   -3.2794  -15.5928 O   0  0  0  0  0  0  0  0  0  0  0  0
   17.7621   -2.1933  -12.4359 O   0  0  0  0  0  0  0  0  0  0  0  0
   22.8302   -4.5655  -13.8374 O   0  0  0  0  0  0  0  0  0  0  0  0
  2  5  1  0
  2  1  1  1
  3  2  1  0
  4  3  1  0
  5  6  2  0
  7  8  1  0
  7  5  1  0
  8  9  1  6
  9 10  1  0
 10 11  1  0
 11 15  1  0
 11 12  2  0
 13  8  1  0
 14 13  2  0
 16 13  1  0
 17 18  1  1
 17 16  1  0
 18 19  1  0
 20 19  1  0
 20 21  2  0
 22 23  1  0
 22 17  1  0
 24 20  1  0
 25 22  2  0
M  END
$$$$
