CEE.pdb
     RDKit          3D

 25 24  0  0  1  0  0  0  0  0999 V2000
   18.1971  -11.8135  -16.8774 N   0  0  0  0  0  0  0  0  0  0  0  0
   17.4221  -11.1699  -15.8503 C   0  0  1  0  0  0  0  0  0  0  0  0
   17.9943  -11.4227  -14.4636 C   0  0  0  0  0  0  0  0  0  0  0  0
   17.6583  -13.1473  -13.9758 S   0  0  0  0  0  0  0  0  0  0  0  0
   17.4492   -9.7053  -16.0793 C   0  0  0  0  0  0  0  0  0  0  0  0
   18.4403   -9.1572  -16.5722 O   0  0  0  0  0  0  0  0  0  0  0  0
   16.3356   -8.8761  -15.7403 N   0  0  0  0  0  0  0  0  0  0  0  0
   16.2592   -7.4877  -16.0542 C   0  0  1  0  0  0  0  0  0  0  0  0
   14.8445   -6.9821  -16.1628 C   0  0  0  0  0  0  0  0  0  0  0  0
   14.8077   -5.5418  -16.6023 C   0  0  0  0  0  0  0  0  0  0  0  0
   13.4167   -5.0221  -16.6621 C   0  0  0  0  0  0  0  0  0  0  0  0
   12.9435   -4.4734  -15.6374 O   0  0  0  0  0  0  0  0  0  0  0  0
   17.0950   -6.6535  -15.1693 C   0  0  0  0  0  0  0  0  0  0  0  0
   17.3603   -7.0758  -14.0277 O   0  0  0  0  0  0  0  0  0  0  0  0
   12.6322   -5.1198  -17.7929 O   0  0  0  0  0  0  0  0  0  0  0  0
   17.5889   -5.4090  -15.5865 N   0  0  0  0  0  0  0  0  0  0  0  0
   18.5411   -4.7032  -14.6966 C   0  0  1  0  0  0  0  0  0  0  0  0
   19.8109   -5.4682  -14.6342 C   0  0  0  0  0  0  0  0  0  0  0  0
   20.9357   -4.8332  -13.9074 C   0  0  0  0  0  0  0  0  0  0  0  0
   22.1859   -5.6025  -13.8647 C   0  0  0  0  0  0  0  0  0  0  0  0
   23.2539   -5.2970  -14.4903 O   0  0  0  0  0  0  0  0  0  0  0  0
   18.5689   -3.3101  -15.0924 C   0  0  0  0  0  0  0  0  0  0  0  0
   18.3078   -2.9215  -16.3976 O   0  0  0  0  0  0  0  0  0  0  0  0
   22.2199   -6.7563  -13.0841 O   0  0  0  0  0  0  0  0  0  0  0  0
   18.8317   -2.4071  -14.2602 O   0  0  0  0  0  0  0  0  0  0  0  0
  2  5  1  0
  2  1  1  6
  3  2  1  0
  4  3  1  0
  5  6  2  0
  7  8  1  0
  7  5  1  0
  8  9  1  1
  9 10  1  0
 10 11  1  0
 11 15  1  0
 11 12  2  0
 13  8  1  0
 14 13  2  0
 16 13  1  0
 17 18  1  6
 17 16  1  0
 18 19  1  0
 20 19  1  0
 20 21  2  0
 22 23  1  0
 22 17  1  0
 24 20  1  0
 25 22  2  0
M  END
$$$$
