CEE.pdb
     RDKit          3D

 25 24  0  0  1  0  0  0  0  0999 V2000
   14.6144  -12.6353  -10.4782 N   0  0  0  0  0  0  0  0  0  0  0  0
   14.4328  -11.4110  -11.2116 C   0  0  1  0  0  0  0  0  0  0  0  0
   13.8208  -10.3171  -10.3496 C   0  0  0  0  0  0  0  0  0  0  0  0
   12.1459  -10.8200   -9.8331 S   0  0  0  0  0  0  0  0  0  0  0  0
   15.7581  -10.9260  -11.6660 C   0  0  0  0  0  0  0  0  0  0  0  0
   16.7040  -10.8289  -10.8777 O   0  0  0  0  0  0  0  0  0  0  0  0
   15.9907  -10.5543  -13.0264 N   0  0  0  0  0  0  0  0  0  0  0  0
   17.2538  -10.1170  -13.5215 C   0  0  1  0  0  0  0  0  0  0  0  0
   17.5781  -10.6680  -14.8854 C   0  0  0  0  0  0  0  0  0  0  0  0
   18.9658  -10.2757  -15.3208 C   0  0  0  0  0  0  0  0  0  0  0  0
   19.3039  -10.8439  -16.6518 C   0  0  0  0  0  0  0  0  0  0  0  0
   20.1684  -11.7520  -16.7073 O   0  0  0  0  0  0  0  0  0  0  0  0
   17.4237   -8.6532  -13.4443 C   0  0  0  0  0  0  0  0  0  0  0  0
   16.4138   -7.9300  -13.5395 O   0  0  0  0  0  0  0  0  0  0  0  0
   18.7080  -10.4135  -17.8195 O   0  0  0  0  0  0  0  0  0  0  0  0
   18.6869   -8.0701  -13.2683 N   0  0  0  0  0  0  0  0  0  0  0  0
   18.7479   -6.6813  -12.7541 C   0  0  1  0  0  0  0  0  0  0  0  0
   18.0787   -6.6198  -11.4313 C   0  0  0  0  0  0  0  0  0  0  0  0
   18.1999   -5.3466  -10.6825 C   0  0  0  0  0  0  0  0  0  0  0  0
   17.5650   -5.3197   -9.3585 C   0  0  0  0  0  0  0  0  0  0  0  0
   17.4842   -4.2927   -8.6075 O   0  0  0  0  0  0  0  0  0  0  0  0
   20.1154   -6.2208  -12.8815 C   0  0  0  0  0  0  0  0  0  0  0  0
   20.4537   -4.8902  -12.6874 O   0  0  0  0  0  0  0  0  0  0  0  0
   17.0044   -6.5004   -8.8756 O   0  0  0  0  0  0  0  0  0  0  0  0
   21.0411   -7.0178  -13.1731 O   0  0  0  0  0  0  0  0  0  0  0  0
  2  5  1  0
  2  1  1  1
  3  2  1  0
  4  3  1  0
  5  6  2  0
  7  8  1  0
  7  5  1  0
  8  9  1  6
  9 10  1  0
 10 11  1  0
 11 15  1  0
 11 12  2  0
 13  8  1  0
 14 13  2  0
 16 13  1  0
 17 18  1  1
 17 16  1  0
 18 19  1  0
 20 19  1  0
 20 21  2  0
 22 23  1  0
 22 17  1  0
 24 20  1  0
 25 22  2  0
M  END
$$$$
