CEE.pdb
     RDKit          3D

 25 24  0  0  1  0  0  0  0  0999 V2000
   27.7852  -20.4288  -16.2497 N   0  0  0  0  0  0  0  0  0  0  0  0
   27.1197  -20.5427  -14.9792 C   0  0  1  0  0  0  0  0  0  0  0  0
   27.0536  -19.2091  -14.2502 C   0  0  0  0  0  0  0  0  0  0  0  0
   28.7417  -18.6716  -13.8182 S   0  0  0  0  0  0  0  0  0  0  0  0
   25.7251  -20.9900  -15.2095 C   0  0  0  0  0  0  0  0  0  0  0  0
   25.0782  -20.5810  -16.1790 O   0  0  0  0  0  0  0  0  0  0  0  0
   25.0793  -21.9068  -14.3234 N   0  0  0  0  0  0  0  0  0  0  0  0
   23.7657  -22.4183  -14.5348 C   0  0  1  0  0  0  0  0  0  0  0  0
   23.6482  -23.8901  -14.2364 C   0  0  0  0  0  0  0  0  0  0  0  0
   22.2609  -24.4006  -14.5261 C   0  0  0  0  0  0  0  0  0  0  0  0
   22.1440  -25.8565  -14.2515 C   0  0  0  0  0  0  0  0  0  0  0  0
   23.1374  -26.4508  -13.7669 O   0  0  0  0  0  0  0  0  0  0  0  0
   22.7240  -21.6170  -13.8637 C   0  0  0  0  0  0  0  0  0  0  0  0
   22.9372  -21.2128  -12.7048 O   0  0  0  0  0  0  0  0  0  0  0  0
   20.9933  -26.5735  -14.5078 O   0  0  0  0  0  0  0  0  0  0  0  0
   21.5135  -21.3074  -14.5005 N   0  0  0  0  0  0  0  0  0  0  0  0
   20.5288  -20.4817  -13.7620 C   0  0  1  0  0  0  0  0  0  0  0  0
   20.2703  -19.2333  -14.5210 C   0  0  0  0  0  0  0  0  0  0  0  0
   19.2542  -18.3115  -13.9603 C   0  0  0  0  0  0  0  0  0  0  0  0
   18.8713  -17.1826  -14.8180 C   0  0  0  0  0  0  0  0  0  0  0  0
   19.6819  -16.3299  -15.3090 O   0  0  0  0  0  0  0  0  0  0  0  0
   19.4171  -21.3362  -13.3986 C   0  0  0  0  0  0  0  0  0  0  0  0
   18.7029  -21.1382  -12.2267 O   0  0  0  0  0  0  0  0  0  0  0  0
   17.5219  -17.0206  -15.1257 O   0  0  0  0  0  0  0  0  0  0  0  0
   19.0646  -22.2876  -14.1386 O   0  0  0  0  0  0  0  0  0  0  0  0
  2  5  1  0
  2  1  1  6
  3  2  1  0
  4  3  1  0
  5  6  2  0
  7  8  1  0
  7  5  1  0
  8  9  1  1
  9 10  1  0
 10 11  1  0
 11 15  1  0
 11 12  2  0
 13  8  1  0
 14 13  2  0
 16 13  1  0
 17 18  1  6
 17 16  1  0
 18 19  1  0
 20 19  1  0
 20 21  2  0
 22 23  1  0
 22 17  1  0
 24 20  1  0
 25 22  2  0
M  END
$$$$
