CEE.pdb
     RDKit          3D

 25 24  0  0  1  0  0  0  0  0999 V2000
   25.0309  -11.2900  -17.7842 N   0  0  0  0  0  0  0  0  0  0  0  0
   24.4350  -11.1639  -16.4808 C   0  0  1  0  0  0  0  0  0  0  0  0
   25.2285  -10.2289  -15.5807 C   0  0  0  0  0  0  0  0  0  0  0  0
   26.8229  -11.0059  -15.1569 S   0  0  0  0  0  0  0  0  0  0  0  0
   23.0776  -10.5867  -16.6306 C   0  0  0  0  0  0  0  0  0  0  0  0
   22.8449   -9.7220  -17.4814 O   0  0  0  0  0  0  0  0  0  0  0  0
   21.9922  -11.0065  -15.8009 N   0  0  0  0  0  0  0  0  0  0  0  0
   20.6584  -10.5232  -15.9393 C   0  0  1  0  0  0  0  0  0  0  0  0
   19.6158  -11.5722  -15.6538 C   0  0  0  0  0  0  0  0  0  0  0  0
   19.5390  -12.5872  -16.7643 C   0  0  0  0  0  0  0  0  0  0  0  0
   18.5014  -13.6166  -16.4953 C   0  0  0  0  0  0  0  0  0  0  0  0
   18.8159  -14.8245  -16.6255 O   0  0  0  0  0  0  0  0  0  0  0  0
   20.4230   -9.2703  -15.1960 C   0  0  0  0  0  0  0  0  0  0  0  0
   21.0591   -9.0734  -14.1431 O   0  0  0  0  0  0  0  0  0  0  0  0
   17.2153  -13.2965  -16.1112 O   0  0  0  0  0  0  0  0  0  0  0  0
   19.5067   -8.3102  -15.6492 N   0  0  0  0  0  0  0  0  0  0  0  0
   19.4624   -7.0043  -14.9495 C   0  0  1  0  0  0  0  0  0  0  0  0
   20.8242   -6.4156  -14.9263 C   0  0  0  0  0  0  0  0  0  0  0  0
   20.9519   -5.0558  -14.3508 C   0  0  0  0  0  0  0  0  0  0  0  0
   22.3141   -4.5101  -14.2937 C   0  0  0  0  0  0  0  0  0  0  0  0
   23.3544   -5.0928  -14.7450 O   0  0  0  0  0  0  0  0  0  0  0  0
   18.3663   -6.2391  -15.5074 C   0  0  0  0  0  0  0  0  0  0  0  0
   17.6927   -5.2856  -14.7592 O   0  0  0  0  0  0  0  0  0  0  0  0
   22.4964   -3.2610  -13.7036 O   0  0  0  0  0  0  0  0  0  0  0  0
   17.9910   -6.4175  -16.6924 O   0  0  0  0  0  0  0  0  0  0  0  0
  2  5  1  0
  2  1  1  6
  3  2  1  0
  4  3  1  0
  5  6  2  0
  7  8  1  0
  7  5  1  0
  8  9  1  1
  9 10  1  0
 10 11  1  0
 11 15  1  0
 11 12  2  0
 13  8  1  0
 14 13  2  0
 16 13  1  0
 17 18  1  6
 17 16  1  0
 18 19  1  0
 20 19  1  0
 20 21  2  0
 22 23  1  0
 22 17  1  0
 24 20  1  0
 25 22  2  0
M  END
$$$$
