CEE.pdb
     RDKit          3D

 25 24  0  0  1  0  0  0  0  0999 V2000
   16.7119  -11.6230  -15.2741 N   0  0  0  0  0  0  0  0  0  0  0  0
   16.9552  -10.3783  -15.9535 C   0  0  1  0  0  0  0  0  0  0  0  0
   15.8420   -9.3704  -15.7101 C   0  0  0  0  0  0  0  0  0  0  0  0
   14.3262   -9.9271  -16.5573 S   0  0  0  0  0  0  0  0  0  0  0  0
   18.2095   -9.7862  -15.4299 C   0  0  0  0  0  0  0  0  0  0  0  0
   18.3527   -9.5647  -14.2232 O   0  0  0  0  0  0  0  0  0  0  0  0
   19.2954   -9.4510  -16.2968 N   0  0  0  0  0  0  0  0  0  0  0  0
   20.5469   -8.9464  -15.8374 C   0  0  1  0  0  0  0  0  0  0  0  0
   21.7268   -9.5450  -16.5573 C   0  0  0  0  0  0  0  0  0  0  0  0
   22.1001  -10.8857  -15.9807 C   0  0  0  0  0  0  0  0  0  0  0  0
   23.2896  -11.4626  -16.6595 C   0  0  0  0  0  0  0  0  0  0  0  0
   23.6684  -12.6099  -16.3202 O   0  0  0  0  0  0  0  0  0  0  0  0
   20.5914   -7.4719  -15.8007 C   0  0  0  0  0  0  0  0  0  0  0  0
   20.0006   -6.8352  -16.6937 O   0  0  0  0  0  0  0  0  0  0  0  0
   23.9878  -10.7891  -17.6408 O   0  0  0  0  0  0  0  0  0  0  0  0
   21.2793   -6.7842  -14.7904 N   0  0  0  0  0  0  0  0  0  0  0  0
   21.2310   -5.3028  -14.7984 C   0  0  1  0  0  0  0  0  0  0  0  0
   19.8172   -4.8601  -14.8795 C   0  0  0  0  0  0  0  0  0  0  0  0
   19.5541   -3.4233  -14.6284 C   0  0  0  0  0  0  0  0  0  0  0  0
   18.1397   -3.0339  -14.5603 C   0  0  0  0  0  0  0  0  0  0  0  0
   17.1555   -3.8424  -14.6161 O   0  0  0  0  0  0  0  0  0  0  0  0
   22.0646   -4.8259  -13.7140 C   0  0  0  0  0  0  0  0  0  0  0  0
   22.5275   -3.5195  -13.6756 O   0  0  0  0  0  0  0  0  0  0  0  0
   17.8377   -1.6804  -14.4243 O   0  0  0  0  0  0  0  0  0  0  0  0
   22.3947   -5.5860  -12.7704 O   0  0  0  0  0  0  0  0  0  0  0  0
  2  5  1  0
  2  1  1  1
  3  2  1  0
  4  3  1  0
  5  6  2  0
  7  8  1  0
  7  5  1  0
  8  9  1  6
  9 10  1  0
 10 11  1  0
 11 15  1  0
 11 12  2  0
 13  8  1  0
 14 13  2  0
 16 13  1  0
 17 18  1  1
 17 16  1  0
 18 19  1  0
 20 19  1  0
 20 21  2  0
 22 23  1  0
 22 17  1  0
 24 20  1  0
 25 22  2  0
M  END
$$$$
