CEE.pdb
     RDKit          3D

 25 24  0  0  1  0  0  0  0  0999 V2000
   16.5026  -26.9642   -5.8137 N   0  0  0  0  0  0  0  0  0  0  0  0
   17.2856  -26.1338   -4.9379 C   0  0  1  0  0  0  0  0  0  0  0  0
   16.5536  -24.8543   -4.5623 C   0  0  0  0  0  0  0  0  0  0  0  0
   16.6730  -23.6631   -5.9378 S   0  0  0  0  0  0  0  0  0  0  0  0
   17.5473  -26.8780   -3.6825 C   0  0  0  0  0  0  0  0  0  0  0  0
   16.6185  -27.2446   -2.9555 O   0  0  0  0  0  0  0  0  0  0  0  0
   18.8771  -27.1981   -3.2678 N   0  0  0  0  0  0  0  0  0  0  0  0
   19.1802  -27.9487   -2.0945 C   0  0  1  0  0  0  0  0  0  0  0  0
   20.3729  -28.8533   -2.2620 C   0  0  0  0  0  0  0  0  0  0  0  0
   20.5280  -29.7818   -1.0860 C   0  0  0  0  0  0  0  0  0  0  0  0
   21.7732  -30.5870   -1.1837 C   0  0  0  0  0  0  0  0  0  0  0  0
   22.0046  -31.4334   -0.2864 O   0  0  0  0  0  0  0  0  0  0  0  0
   19.2688  -27.1090   -0.8843 C   0  0  0  0  0  0  0  0  0  0  0  0
   19.9273  -26.0528   -0.9384 O   0  0  0  0  0  0  0  0  0  0  0  0
   22.6774  -30.4398   -2.2155 O   0  0  0  0  0  0  0  0  0  0  0  0
   18.6326  -27.4756    0.3105 N   0  0  0  0  0  0  0  0  0  0  0  0
   18.7795  -26.5794    1.4818 C   0  0  1  0  0  0  0  0  0  0  0  0
   17.4596  -26.4127    2.1387 C   0  0  0  0  0  0  0  0  0  0  0  0
   16.5662  -25.3692    1.5826 C   0  0  0  0  0  0  0  0  0  0  0  0
   15.2675  -25.2157    2.2508 C   0  0  0  0  0  0  0  0  0  0  0  0
   14.1629  -25.6819    1.8174 O   0  0  0  0  0  0  0  0  0  0  0  0
   19.9073  -27.0484    2.2605 C   0  0  0  0  0  0  0  0  0  0  0  0
   20.5109  -26.2473    3.2179 O   0  0  0  0  0  0  0  0  0  0  0  0
   15.2266  -24.5089    3.4509 O   0  0  0  0  0  0  0  0  0  0  0  0
   20.3749  -28.2015    2.0908 O   0  0  0  0  0  0  0  0  0  0  0  0
  2  5  1  0
  2  1  1  6
  3  2  1  0
  4  3  1  0
  5  6  2  0
  7  8  1  0
  7  5  1  0
  8  9  1  6
  9 10  1  0
 10 11  1  0
 11 15  1  0
 11 12  2  0
 13  8  1  0
 14 13  2  0
 16 13  1  0
 17 18  1  1
 17 16  1  0
 18 19  1  0
 20 19  1  0
 20 21  2  0
 22 23  1  0
 22 17  1  0
 24 20  1  0
 25 22  2  0
M  END
$$$$
