CEE.pdb
     RDKit          3D

 25 24  0  0  1  0  0  0  0  0999 V2000
   20.0835  -13.3668  -18.0124 N   0  0  0  0  0  0  0  0  0  0  0  0
   20.3350  -12.5988  -16.8221 C   0  0  1  0  0  0  0  0  0  0  0  0
   21.7143  -11.9573  -16.8399 C   0  0  0  0  0  0  0  0  0  0  0  0
   22.9645  -13.1979  -16.3680 S   0  0  0  0  0  0  0  0  0  0  0  0
   19.3392  -11.5034  -16.7418 C   0  0  0  0  0  0  0  0  0  0  0  0
   19.0758  -10.8100  -17.7294 O   0  0  0  0  0  0  0  0  0  0  0  0
   18.6493  -11.2094  -15.5250 N   0  0  0  0  0  0  0  0  0  0  0  0
   17.6742  -10.1774  -15.3985 C   0  0  1  0  0  0  0  0  0  0  0  0
   16.3484  -10.6752  -14.8855 C   0  0  0  0  0  0  0  0  0  0  0  0
   15.6709  -11.5696  -15.8906 C   0  0  0  0  0  0  0  0  0  0  0  0
   14.3484  -12.0400  -15.4023 C   0  0  0  0  0  0  0  0  0  0  0  0
   13.9420  -11.6201  -14.2917 O   0  0  0  0  0  0  0  0  0  0  0  0
   18.1716   -9.0081  -14.6483 C   0  0  0  0  0  0  0  0  0  0  0  0
   19.1346   -9.1627  -13.8733 O   0  0  0  0  0  0  0  0  0  0  0  0
   13.5571  -12.9146  -16.1185 O   0  0  0  0  0  0  0  0  0  0  0  0
   17.5854   -7.7420  -14.7911 N   0  0  0  0  0  0  0  0  0  0  0  0
   18.2510   -6.5886  -14.1405 C   0  0  1  0  0  0  0  0  0  0  0  0
   19.6839   -6.5700  -14.5252 C   0  0  0  0  0  0  0  0  0  0  0  0
   20.4913   -5.4299  -14.0304 C   0  0  0  0  0  0  0  0  0  0  0  0
   21.9116   -5.4415  -14.4038 C   0  0  0  0  0  0  0  0  0  0  0  0
   22.4804   -6.3559  -15.0863 O   0  0  0  0  0  0  0  0  0  0  0  0
   17.4358   -5.4148  -14.3771 C   0  0  0  0  0  0  0  0  0  0  0  0
   17.4587   -4.3298  -13.5140 O   0  0  0  0  0  0  0  0  0  0  0  0
   22.7085   -4.3774  -13.9864 O   0  0  0  0  0  0  0  0  0  0  0  0
   16.6795   -5.3442  -15.3771 O   0  0  0  0  0  0  0  0  0  0  0  0
  2  5  1  0
  2  1  1  6
  3  2  1  0
  4  3  1  0
  5  6  2  0
  7  8  1  0
  7  5  1  0
  8  9  1  1
  9 10  1  0
 10 11  1  0
 11 15  1  0
 11 12  2  0
 13  8  1  0
 14 13  2  0
 16 13  1  0
 17 18  1  6
 17 16  1  0
 18 19  1  0
 20 19  1  0
 20 21  2  0
 22 23  1  0
 22 17  1  0
 24 20  1  0
 25 22  2  0
M  END
$$$$
