CEE.pdb
     RDKit          3D

 25 24  0  0  1  0  0  0  0  0999 V2000
   20.2320  -12.4238  -16.0158 N   0  0  0  0  0  0  0  0  0  0  0  0
   19.8680  -11.2345  -16.7390 C   0  0  1  0  0  0  0  0  0  0  0  0
   18.3854  -10.9202  -16.6072 C   0  0  0  0  0  0  0  0  0  0  0  0
   17.4210  -12.1456  -17.5524 S   0  0  0  0  0  0  0  0  0  0  0  0
   20.6152  -10.0853  -16.1742 C   0  0  0  0  0  0  0  0  0  0  0  0
   20.4621   -9.7440  -14.9970 O   0  0  0  0  0  0  0  0  0  0  0  0
   21.5366   -9.3323  -16.9660 N   0  0  0  0  0  0  0  0  0  0  0  0
   22.3491   -8.2816  -16.4485 C   0  0  1  0  0  0  0  0  0  0  0  0
   23.6166   -8.0713  -17.2346 C   0  0  0  0  0  0  0  0  0  0  0  0
   24.5189   -7.0683  -16.5644 C   0  0  0  0  0  0  0  0  0  0  0  0
   25.7914   -6.8904  -17.3113 C   0  0  0  0  0  0  0  0  0  0  0  0
   26.2757   -5.7355  -17.3923 O   0  0  0  0  0  0  0  0  0  0  0  0
   21.5983   -7.0294  -16.2344 C   0  0  0  0  0  0  0  0  0  0  0  0
   20.9909   -6.5262  -17.1987 O   0  0  0  0  0  0  0  0  0  0  0  0
   26.4547   -7.9392  -17.9146 O   0  0  0  0  0  0  0  0  0  0  0  0
   21.5580   -6.4042  -14.9797 N   0  0  0  0  0  0  0  0  0  0  0  0
   20.7481   -5.1707  -14.8413 C   0  0  1  0  0  0  0  0  0  0  0  0
   19.4046   -5.5237  -14.3199 C   0  0  0  0  0  0  0  0  0  0  0  0
   18.3887   -5.9315  -15.3190 C   0  0  0  0  0  0  0  0  0  0  0  0
   17.0369   -6.1696  -14.7969 C   0  0  0  0  0  0  0  0  0  0  0  0
   16.0548   -5.3657  -14.9173 O   0  0  0  0  0  0  0  0  0  0  0  0
   21.5493   -4.1906  -14.1372 C   0  0  0  0  0  0  0  0  0  0  0  0
   21.3073   -2.8310  -14.2622 O   0  0  0  0  0  0  0  0  0  0  0  0
   16.7970   -7.3616  -14.1164 O   0  0  0  0  0  0  0  0  0  0  0  0
   22.4926   -4.5451  -13.3879 O   0  0  0  0  0  0  0  0  0  0  0  0
  2  5  1  0
  2  1  1  1
  3  2  1  0
  4  3  1  0
  5  6  2  0
  7  8  1  0
  7  5  1  0
  8  9  1  6
  9 10  1  0
 10 11  1  0
 11 15  1  0
 11 12  2  0
 13  8  1  0
 14 13  2  0
 16 13  1  0
 17 18  1  1
 17 16  1  0
 18 19  1  0
 20 19  1  0
 20 21  2  0
 22 23  1  0
 22 17  1  0
 24 20  1  0
 25 22  2  0
M  END
$$$$
