CEE.pdb
     RDKit          3D

 25 24  0  0  1  0  0  0  0  0999 V2000
   23.7003    0.7025   -0.7139 N   0  0  0  0  0  0  0  0  0  0  0  0
   25.0936    0.5146   -1.0191 C   0  0  1  0  0  0  0  0  0  0  0  0
   25.3711   -0.8721   -1.5794 C   0  0  0  0  0  0  0  0  0  0  0  0
   25.2976   -2.0958   -0.2295 S   0  0  0  0  0  0  0  0  0  0  0  0
   25.4919    1.4977   -2.0550 C   0  0  0  0  0  0  0  0  0  0  0  0
   24.6808    1.8994   -2.8955 O   0  0  0  0  0  0  0  0  0  0  0  0
   26.8225    2.0154   -2.1205 N   0  0  0  0  0  0  0  0  0  0  0  0
   27.2263    3.0467   -3.0180 C   0  0  1  0  0  0  0  0  0  0  0  0
   28.2433    3.9849   -2.4228 C   0  0  0  0  0  0  0  0  0  0  0  0
   28.4401    5.2025   -3.2876 C   0  0  0  0  0  0  0  0  0  0  0  0
   29.5206    6.0782   -2.7637 C   0  0  0  0  0  0  0  0  0  0  0  0
   29.6774    7.2068   -3.2897 O   0  0  0  0  0  0  0  0  0  0  0  0
   27.6338    2.5296   -4.3386 C   0  0  0  0  0  0  0  0  0  0  0  0
   28.1205    1.3848   -4.4063 O   0  0  0  0  0  0  0  0  0  0  0  0
   30.3514    5.6997   -1.7291 O   0  0  0  0  0  0  0  0  0  0  0  0
   27.4848    3.2958   -5.5037 N   0  0  0  0  0  0  0  0  0  0  0  0
   27.7764    2.6492   -6.8051 C   0  0  1  0  0  0  0  0  0  0  0  0
   26.5387    2.6157   -7.6227 C   0  0  0  0  0  0  0  0  0  0  0  0
   26.0390    1.2782   -8.0197 C   0  0  0  0  0  0  0  0  0  0  0  0
   24.9156    1.2693   -8.9656 C   0  0  0  0  0  0  0  0  0  0  0  0
   24.2617    2.3000   -9.3335 O   0  0  0  0  0  0  0  0  0  0  0  0
   28.9709    3.2632   -7.3478 C   0  0  0  0  0  0  0  0  0  0  0  0
   29.6835    2.6744   -8.3813 O   0  0  0  0  0  0  0  0  0  0  0  0
   24.5254    0.0471   -9.5093 O   0  0  0  0  0  0  0  0  0  0  0  0
   29.3993    4.3536   -6.8957 O   0  0  0  0  0  0  0  0  0  0  0  0
  2  5  1  0
  2  1  1  6
  3  2  1  0
  4  3  1  0
  5  6  2  0
  7  8  1  0
  7  5  1  0
  8  9  1  1
  9 10  1  0
 10 11  1  0
 11 15  1  0
 11 12  2  0
 13  8  1  0
 14 13  2  0
 16 13  1  0
 17 18  1  6
 17 16  1  0
 18 19  1  0
 20 19  1  0
 20 21  2  0
 22 23  1  0
 22 17  1  0
 24 20  1  0
 25 22  2  0
M  END
$$$$
