CEE.pdb
     RDKit          3D

 25 24  0  0  1  0  0  0  0  0999 V2000
   23.5639  -12.2289  -16.7856 N   0  0  0  0  0  0  0  0  0  0  0  0
   22.7747  -11.2335  -17.4611 C   0  0  1  0  0  0  0  0  0  0  0  0
   21.8069  -11.8546  -18.4570 C   0  0  0  0  0  0  0  0  0  0  0  0
   22.7493  -12.6635  -19.7922 S   0  0  0  0  0  0  0  0  0  0  0  0
   21.9661  -10.5028  -16.4560 C   0  0  0  0  0  0  0  0  0  0  0  0
   21.1079  -11.0852  -15.7853 O   0  0  0  0  0  0  0  0  0  0  0  0
   22.1478   -9.1039  -16.2257 N   0  0  0  0  0  0  0  0  0  0  0  0
   21.3833   -8.3514  -15.2870 C   0  0  1  0  0  0  0  0  0  0  0  0
   22.1122   -7.1412  -14.7645 C   0  0  0  0  0  0  0  0  0  0  0  0
   21.2843   -6.3965  -13.7500 C   0  0  0  0  0  0  0  0  0  0  0  0
   21.9650   -5.1583  -13.2892 C   0  0  0  0  0  0  0  0  0  0  0  0
   21.8998   -4.1388  -14.0180 O   0  0  0  0  0  0  0  0  0  0  0  0
   20.0284   -8.0319  -15.7766 C   0  0  0  0  0  0  0  0  0  0  0  0
   19.8967   -7.6372  -16.9509 O   0  0  0  0  0  0  0  0  0  0  0  0
   22.6609   -5.0886  -12.0997 O   0  0  0  0  0  0  0  0  0  0  0  0
   18.9013   -8.1631  -14.9526 N   0  0  0  0  0  0  0  0  0  0  0  0
   17.5672   -7.9276  -15.5538 C   0  0  1  0  0  0  0  0  0  0  0  0
   16.6765   -9.0693  -15.2303 C   0  0  0  0  0  0  0  0  0  0  0  0
   15.2637   -8.9550  -15.6632 C   0  0  0  0  0  0  0  0  0  0  0  0
   14.3834  -10.0644  -15.2747 C   0  0  0  0  0  0  0  0  0  0  0  0
   13.1949   -9.9339  -14.8323 O   0  0  0  0  0  0  0  0  0  0  0  0
   17.1550   -6.5832  -15.2061 C   0  0  0  0  0  0  0  0  0  0  0  0
   16.3143   -5.8471  -16.0271 O   0  0  0  0  0  0  0  0  0  0  0  0
   14.8731  -11.3635  -15.3945 O   0  0  0  0  0  0  0  0  0  0  0  0
   17.5489   -6.0409  -14.1441 O   0  0  0  0  0  0  0  0  0  0  0  0
  2  5  1  0
  2  1  1  1
  3  2  1  0
  4  3  1  0
  5  6  2  0
  7  8  1  0
  7  5  1  0
  8  9  1  6
  9 10  1  0
 10 11  1  0
 11 15  1  0
 11 12  2  0
 13  8  1  0
 14 13  2  0
 16 13  1  0
 17 18  1  1
 17 16  1  0
 18 19  1  0
 20 19  1  0
 20 21  2  0
 22 23  1  0
 22 17  1  0
 24 20  1  0
 25 22  2  0
M  END
$$$$
