CEE.pdb
     RDKit          3D

 25 24  0  0  1  0  0  0  0  0999 V2000
   13.8627  -12.1518  -10.7409 N   0  0  0  0  0  0  0  0  0  0  0  0
   15.0859  -11.5933  -10.2291 C   0  0  1  0  0  0  0  0  0  0  0  0
   16.3099  -12.1779  -10.9177 C   0  0  0  0  0  0  0  0  0  0  0  0
   16.5095  -13.9206  -10.4197 S   0  0  0  0  0  0  0  0  0  0  0  0
   15.0886  -10.1334  -10.4875 C   0  0  0  0  0  0  0  0  0  0  0  0
   14.6155   -9.6715  -11.5309 O   0  0  0  0  0  0  0  0  0  0  0  0
   15.6356   -9.2093   -9.5442 N   0  0  0  0  0  0  0  0  0  0  0  0
   15.5650   -7.7934   -9.6924 C   0  0  1  0  0  0  0  0  0  0  0  0
   14.8697   -7.1116   -8.5433 C   0  0  0  0  0  0  0  0  0  0  0  0
   14.8003   -5.6210   -8.7492 C   0  0  0  0  0  0  0  0  0  0  0  0
   14.0379   -4.9524   -7.6627 C   0  0  0  0  0  0  0  0  0  0  0  0
   14.1797   -3.7144   -7.5131 O   0  0  0  0  0  0  0  0  0  0  0  0
   16.8717   -7.1847  -10.0083 C   0  0  0  0  0  0  0  0  0  0  0  0
   17.7965   -7.2953   -9.1810 O   0  0  0  0  0  0  0  0  0  0  0  0
   13.1870   -5.6364   -6.8189 O   0  0  0  0  0  0  0  0  0  0  0  0
   17.0868   -6.4923  -11.2088 N   0  0  0  0  0  0  0  0  0  0  0  0
   18.4485   -5.9737  -11.4799 C   0  0  1  0  0  0  0  0  0  0  0  0
   19.1860   -6.9508  -12.3182 C   0  0  0  0  0  0  0  0  0  0  0  0
   20.5106   -6.5243  -12.8283 C   0  0  0  0  0  0  0  0  0  0  0  0
   21.2409   -7.5195  -13.6238 C   0  0  0  0  0  0  0  0  0  0  0  0
   22.3993   -7.3457  -14.1271 O   0  0  0  0  0  0  0  0  0  0  0  0
   18.3196   -4.6034  -11.9316 C   0  0  0  0  0  0  0  0  0  0  0  0
   19.3451   -3.6853  -11.7649 O   0  0  0  0  0  0  0  0  0  0  0  0
   20.6318   -8.7516  -13.8529 O   0  0  0  0  0  0  0  0  0  0  0  0
   17.2688   -4.2037  -12.4912 O   0  0  0  0  0  0  0  0  0  0  0  0
  2  5  1  0
  2  1  1  6
  3  2  1  0
  4  3  1  0
  5  6  2  0
  7  8  1  0
  7  5  1  0
  8  9  1  1
  9 10  1  0
 10 11  1  0
 11 15  1  0
 11 12  2  0
 13  8  1  0
 14 13  2  0
 16 13  1  0
 17 18  1  6
 17 16  1  0
 18 19  1  0
 20 19  1  0
 20 21  2  0
 22 23  1  0
 22 17  1  0
 24 20  1  0
 25 22  2  0
M  END
$$$$
