CEE.pdb
     RDKit          3D

 25 24  0  0  1  0  0  0  0  0999 V2000
   22.8666  -21.4556   11.9279 N   0  0  0  0  0  0  0  0  0  0  0  0
   21.6782  -20.7436   12.3161 C   0  0  1  0  0  0  0  0  0  0  0  0
   21.9769  -19.6473   13.3276 C   0  0  0  0  0  0  0  0  0  0  0  0
   21.9914  -20.3605   15.0058 S   0  0  0  0  0  0  0  0  0  0  0  0
   21.0990  -20.0924   11.1168 C   0  0  0  0  0  0  0  0  0  0  0  0
   21.8254  -19.6018   10.2465 O   0  0  0  0  0  0  0  0  0  0  0  0
   19.6855  -20.0078   10.9225 N   0  0  0  0  0  0  0  0  0  0  0  0
   19.0795  -19.4761    9.7470 C   0  0  1  0  0  0  0  0  0  0  0  0
   17.9075  -20.2903    9.2649 C   0  0  0  0  0  0  0  0  0  0  0  0
   17.3713  -19.7626    7.9599 C   0  0  0  0  0  0  0  0  0  0  0  0
   16.2482  -20.5932    7.4526 C   0  0  0  0  0  0  0  0  0  0  0  0
   16.4252  -21.8313    7.3490 O   0  0  0  0  0  0  0  0  0  0  0  0
   18.7637  -18.0394    9.8650 C   0  0  0  0  0  0  0  0  0  0  0  0
   18.1809  -17.6395   10.8908 O   0  0  0  0  0  0  0  0  0  0  0  0
   15.0280  -20.0582    7.0937 O   0  0  0  0  0  0  0  0  0  0  0  0
   19.1041  -17.1286    8.8543 N   0  0  0  0  0  0  0  0  0  0  0  0
   18.8543  -15.6887    9.1009 C   0  0  1  0  0  0  0  0  0  0  0  0
   20.0953  -14.9231    8.8264 C   0  0  0  0  0  0  0  0  0  0  0  0
   20.1846  -13.5662    9.4159 C   0  0  0  0  0  0  0  0  0  0  0  0
   21.4200  -12.8249    9.1318 C   0  0  0  0  0  0  0  0  0  0  0  0
   22.3952  -13.2673    8.4399 O   0  0  0  0  0  0  0  0  0  0  0  0
   17.6297  -15.3274    8.4166 C   0  0  0  0  0  0  0  0  0  0  0  0
   16.9911  -14.1211    8.6611 O   0  0  0  0  0  0  0  0  0  0  0  0
   21.5479  -11.5387    9.6524 O   0  0  0  0  0  0  0  0  0  0  0  0
   17.1068  -16.1005    7.5764 O   0  0  0  0  0  0  0  0  0  0  0  0
  2  5  1  0
  2  1  1  6
  3  2  1  0
  4  3  1  0
  5  6  2  0
  7  8  1  0
  7  5  1  0
  8  9  1  1
  9 10  1  0
 10 11  1  0
 11 15  1  0
 11 12  2  0
 13  8  1  0
 14 13  2  0
 16 13  1  0
 17 18  1  6
 17 16  1  0
 18 19  1  0
 20 19  1  0
 20 21  2  0
 22 23  1  0
 22 17  1  0
 24 20  1  0
 25 22  2  0
M  END
$$$$
