CEE.pdb
     RDKit          3D

 25 24  0  0  1  0  0  0  0  0999 V2000
   17.6624  -11.8915  -15.2529 N   0  0  0  0  0  0  0  0  0  0  0  0
   18.0837  -10.8672  -16.1712 C   0  0  1  0  0  0  0  0  0  0  0  0
   17.1313  -10.7333  -17.3498 C   0  0  0  0  0  0  0  0  0  0  0  0
   17.2373  -12.2299  -18.3862 S   0  0  0  0  0  0  0  0  0  0  0  0
   18.0946   -9.5655  -15.4617 C   0  0  0  0  0  0  0  0  0  0  0  0
   17.2320   -9.2926  -14.6207 O   0  0  0  0  0  0  0  0  0  0  0  0
   19.0982   -8.5817  -15.7222 N   0  0  0  0  0  0  0  0  0  0  0  0
   19.1822   -7.3365  -15.0335 C   0  0  1  0  0  0  0  0  0  0  0  0
   20.5909   -6.9655  -14.6506 C   0  0  0  0  0  0  0  0  0  0  0  0
   20.6193   -5.7283  -13.7917 C   0  0  0  0  0  0  0  0  0  0  0  0
   22.0088   -5.3402  -13.4350 C   0  0  0  0  0  0  0  0  0  0  0  0
   22.2961   -4.1188  -13.4098 O   0  0  0  0  0  0  0  0  0  0  0  0
   18.4773   -6.2457  -15.7342 C   0  0  0  0  0  0  0  0  0  0  0  0
   18.6368   -6.1261  -16.9639 O   0  0  0  0  0  0  0  0  0  0  0  0
   22.9872   -6.2652  -13.1333 O   0  0  0  0  0  0  0  0  0  0  0  0
   17.6419   -5.3527  -15.0475 N   0  0  0  0  0  0  0  0  0  0  0  0
   16.9453   -4.3063  -15.8326 C   0  0  1  0  0  0  0  0  0  0  0  0
   15.5273   -4.2345  -15.4020 C   0  0  0  0  0  0  0  0  0  0  0  0
   14.7051   -3.1535  -15.9954 C   0  0  0  0  0  0  0  0  0  0  0  0
   13.3088   -3.0905  -15.5450 C   0  0  0  0  0  0  0  0  0  0  0  0
   12.7078   -2.0293  -15.1735 O   0  0  0  0  0  0  0  0  0  0  0  0
   17.7605   -3.1094  -15.7980 C   0  0  0  0  0  0  0  0  0  0  0  0
   18.5470   -2.7991  -14.6991 O   0  0  0  0  0  0  0  0  0  0  0  0
   12.5743   -4.2743  -15.5172 O   0  0  0  0  0  0  0  0  0  0  0  0
   17.7794   -2.3122  -16.7682 O   0  0  0  0  0  0  0  0  0  0  0  0
  2  5  1  0
  2  1  1  1
  3  2  1  0
  4  3  1  0
  5  6  2  0
  7  8  1  0
  7  5  1  0
  8  9  1  6
  9 10  1  0
 10 11  1  0
 11 15  1  0
 11 12  2  0
 13  8  1  0
 14 13  2  0
 16 13  1  0
 17 18  1  1
 17 16  1  0
 18 19  1  0
 20 19  1  0
 20 21  2  0
 22 23  1  0
 22 17  1  0
 24 20  1  0
 25 22  2  0
M  END
$$$$
