CEE.pdb
     RDKit          3D

 25 24  0  0  1  0  0  0  0  0999 V2000
   21.5050  -10.4710  -15.9517 N   0  0  0  0  0  0  0  0  0  0  0  0
   20.2468  -10.0078  -16.4734 C   0  0  1  0  0  0  0  0  0  0  0  0
   19.2387  -11.1383  -16.6142 C   0  0  0  0  0  0  0  0  0  0  0  0
   19.8397  -12.3339  -17.8529 S   0  0  0  0  0  0  0  0  0  0  0  0
   19.6734   -9.0195  -15.5288 C   0  0  0  0  0  0  0  0  0  0  0  0
   19.4853   -9.3086  -14.3427 O   0  0  0  0  0  0  0  0  0  0  0  0
   19.3183   -7.7012  -15.9519 N   0  0  0  0  0  0  0  0  0  0  0  0
   18.8942   -6.6723  -15.0612 C   0  0  1  0  0  0  0  0  0  0  0  0
   19.8993   -6.3740  -13.9798 C   0  0  0  0  0  0  0  0  0  0  0  0
   21.1432   -5.7400  -14.5453 C   0  0  0  0  0  0  0  0  0  0  0  0
   22.0758   -5.3090  -13.4715 C   0  0  0  0  0  0  0  0  0  0  0  0
   23.0269   -6.0704  -13.1704 O   0  0  0  0  0  0  0  0  0  0  0  0
   18.4380   -5.4579  -15.7645 C   0  0  0  0  0  0  0  0  0  0  0  0
   19.1350   -5.0108  -16.6952 O   0  0  0  0  0  0  0  0  0  0  0  0
   21.9359   -4.1128  -12.7982 O   0  0  0  0  0  0  0  0  0  0  0  0
   17.2485   -4.8068  -15.4068 N   0  0  0  0  0  0  0  0  0  0  0  0
   16.7709   -3.7026  -16.2725 C   0  0  1  0  0  0  0  0  0  0  0  0
   15.2874   -3.7045  -16.2938 C   0  0  0  0  0  0  0  0  0  0  0  0
   14.6027   -3.4362  -15.0070 C   0  0  0  0  0  0  0  0  0  0  0  0
   13.1358   -3.3902  -15.0597 C   0  0  0  0  0  0  0  0  0  0  0  0
   12.4485   -3.1823  -16.1131 O   0  0  0  0  0  0  0  0  0  0  0  0
   17.4751   -2.4979  -15.8838 C   0  0  0  0  0  0  0  0  0  0  0  0
   17.2551   -1.2896  -16.5275 O   0  0  0  0  0  0  0  0  0  0  0  0
   12.4302   -3.5876  -13.8745 O   0  0  0  0  0  0  0  0  0  0  0  0
   18.3108   -2.5118  -14.9466 O   0  0  0  0  0  0  0  0  0  0  0  0
  2  5  1  0
  2  1  1  1
  3  2  1  0
  4  3  1  0
  5  6  2  0
  7  8  1  0
  7  5  1  0
  8  9  1  1
  9 10  1  0
 10 11  1  0
 11 15  1  0
 11 12  2  0
 13  8  1  0
 14 13  2  0
 16 13  1  0
 17 18  1  1
 17 16  1  0
 18 19  1  0
 20 19  1  0
 20 21  2  0
 22 23  1  0
 22 17  1  0
 24 20  1  0
 25 22  2  0
M  END
$$$$
