LEY.pdb
     RDKit          3D

 30 30  0  0  1  0  0  0  0  0999 V2000
   28.5492  -11.0967  -16.7643 C   0  0  0  0  0  0  0  0  0  0  0  0
   27.4726  -12.1168  -17.1371 C   0  0  1  0  0  0  0  0  0  0  0  0
   27.4174  -13.1037  -15.9578 C   0  0  0  0  0  0  0  0  0  0  0  0
   26.1555  -11.3535  -17.1952 C   0  0  0  0  0  0  0  0  0  0  0  0
   24.9935  -12.2284  -17.6125 C   0  0  2  0  0  0  0  0  0  0  0  0
   25.2956  -12.7697  -18.9530 N   0  0  0  0  0  0  0  0  0  0  0  0
   23.7193  -11.5169  -17.7344 C   0  0  0  0  0  0  0  0  0  0  0  0
   23.4978  -10.6731  -18.6355 O   0  0  0  0  0  0  0  0  0  0  0  0
   22.6502  -11.7705  -16.8010 N   0  0  0  0  0  0  0  0  0  0  0  0
   21.3710  -11.0969  -16.8871 C   0  0  1  0  0  0  0  0  0  0  0  0
   20.2905  -11.8820  -16.1510 C   0  0  0  0  0  0  0  0  0  0  0  0
   19.9458  -13.1505  -16.9115 C   0  0  0  0  0  0  0  0  0  0  0  0
   19.1573  -13.9895  -15.9375 C   0  0  0  0  0  0  0  0  0  0  0  0
   19.4340  -15.2075  -15.7618 O   0  0  0  0  0  0  0  0  0  0  0  0
   21.4648   -9.7927  -16.2085 C   0  0  0  0  0  0  0  0  0  0  0  0
   22.2628   -9.6425  -15.2634 O   0  0  0  0  0  0  0  0  0  0  0  0
   18.0969  -13.4377  -15.1992 O   0  0  0  0  0  0  0  0  0  0  0  0
   22.1065   -1.2144  -15.0767 O   0  0  0  0  0  0  0  0  0  0  0  0
   22.0386   -2.5513  -15.4459 C   0  0  0  0  0  0  0  0  0  0  0  0
   21.4990   -2.9118  -16.6668 C   0  0  0  0  0  0  0  0  0  0  0  0
   21.4244   -4.2427  -17.0511 C   0  0  0  0  0  0  0  0  0  0  0  0
   21.8957   -5.2143  -16.2009 C   0  0  0  0  0  0  0  0  0  0  0  0
   21.8341   -6.6224  -16.5666 C   0  0  0  0  0  0  0  0  0  0  0  0
   20.7124   -7.4019  -15.9596 C   0  0  2  0  0  0  0  0  0  0  0  0
   20.6558   -8.6981  -16.6143 N   0  0  0  0  0  0  0  0  0  0  0  0
   19.3893   -6.7611  -16.1628 C   0  0  0  0  0  0  0  0  0  0  0  0
   18.5928   -7.0798  -17.1008 O   0  0  0  0  0  0  0  0  0  0  0  0
   22.4474   -4.8867  -14.9613 C   0  0  0  0  0  0  0  0  0  0  0  0
   22.5097   -3.5346  -14.5991 C   0  0  0  0  0  0  0  0  0  0  0  0
   18.9279   -5.7533  -15.3282 O   0  0  0  0  0  0  0  0  0  0  0  0
  2  3  1  1
  2  1  1  0
  4  2  1  0
  5  7  1  0
  5  4  1  0
  5  6  1  6
  7  8  2  0
  9 10  1  0
  9  7  1  0
 10 11  1  1
 12 11  1  0
 13 12  1  0
 13 17  1  0
 14 13  2  0
 15 16  2  0
 15 10  1  0
 19 20  2  0
 19 18  1  0
 21 20  1  0
 22 21  2  0
 23 22  1  0
 24 23  1  6
 24 25  1  0
 25 15  1  0
 26 24  1  0
 26 30  1  0
 27 26  2  0
 28 22  1  0
 28 29  2  0
 29 19  1  0
M  END
$$$$
