LEY.pdb
     RDKit          3D

 30 30  0  0  1  0  0  0  0  0999 V2000
   18.0919  -14.7055  -16.3080 C   0  0  0  0  0  0  0  0  0  0  0  0
   18.8978  -13.6439  -17.0577 C   0  0  1  0  0  0  0  0  0  0  0  0
   18.0534  -13.2853  -18.2932 C   0  0  0  0  0  0  0  0  0  0  0  0
   18.9648  -12.4268  -16.1440 C   0  0  0  0  0  0  0  0  0  0  0  0
   19.3912  -11.1725  -16.8752 C   0  0  2  0  0  0  0  0  0  0  0  0
   20.8474  -11.2588  -17.1063 N   0  0  0  0  0  0  0  0  0  0  0  0
   19.1669   -9.9345  -16.1257 C   0  0  0  0  0  0  0  0  0  0  0  0
   18.0653   -9.6526  -15.5968 O   0  0  0  0  0  0  0  0  0  0  0  0
   20.2321   -8.9761  -15.9651 N   0  0  0  0  0  0  0  0  0  0  0  0
   20.0606   -7.7454  -15.2213 C   0  0  1  0  0  0  0  0  0  0  0  0
   21.3782   -6.9851  -15.1135 C   0  0  0  0  0  0  0  0  0  0  0  0
   21.2267   -5.7902  -14.1889 C   0  0  0  0  0  0  0  0  0  0  0  0
   22.6224   -5.2438  -14.0223 C   0  0  0  0  0  0  0  0  0  0  0  0
   22.8293   -4.1889  -13.3625 O   0  0  0  0  0  0  0  0  0  0  0  0
   19.1362   -6.8626  -15.9539 C   0  0  0  0  0  0  0  0  0  0  0  0
   19.1716   -6.8255  -17.1989 O   0  0  0  0  0  0  0  0  0  0  0  0
   23.7281   -5.8950  -14.5945 O   0  0  0  0  0  0  0  0  0  0  0  0
   11.7313   -3.3040  -18.5885 O   0  0  0  0  0  0  0  0  0  0  0  0
   12.8592   -3.9645  -18.1198 C   0  0  0  0  0  0  0  0  0  0  0  0
   14.0892   -3.3328  -18.1212 C   0  0  0  0  0  0  0  0  0  0  0  0
   15.2255   -3.9782  -17.6558 C   0  0  0  0  0  0  0  0  0  0  0  0
   15.1216   -5.2660  -17.1870 C   0  0  0  0  0  0  0  0  0  0  0  0
   16.2909   -5.9785  -16.6915 C   0  0  0  0  0  0  0  0  0  0  0  0
   17.2898   -5.1495  -15.9503 C   0  0  2  0  0  0  0  0  0  0  0  0
   18.2013   -6.0478  -15.2617 N   0  0  0  0  0  0  0  0  0  0  0  0
   16.6684   -4.2905  -14.9118 C   0  0  0  0  0  0  0  0  0  0  0  0
   16.4823   -4.6653  -13.7115 O   0  0  0  0  0  0  0  0  0  0  0  0
   13.8961   -5.9341  -17.1702 C   0  0  0  0  0  0  0  0  0  0  0  0
   12.7651   -5.2580  -17.6465 C   0  0  0  0  0  0  0  0  0  0  0  0
   16.2413   -2.9997  -15.1886 O   0  0  0  0  0  0  0  0  0  0  0  0
  2  3  1  6
  2  1  1  0
  4  2  1  0
  5  7  1  0
  5  4  1  0
  5  6  1  1
  7  8  2  0
  9 10  1  0
  9  7  1  0
 10 11  1  6
 12 11  1  0
 13 12  1  0
 13 17  1  0
 14 13  2  0
 15 16  2  0
 15 10  1  0
 19 20  2  0
 19 18  1  0
 21 20  1  0
 22 21  2  0
 23 22  1  0
 24 23  1  1
 24 25  1  0
 25 15  1  0
 26 24  1  0
 26 30  1  0
 27 26  2  0
 28 22  1  0
 28 29  2  0
 29 19  1  0
M  END
$$$$
