LEY.pdb
     RDKit          3D

 30 30  0  0  1  0  0  0  0  0999 V2000
   13.9785   -5.1852  -21.5603 C   0  0  0  0  0  0  0  0  0  0  0  0
   14.4998   -6.5933  -21.8505 C   0  0  1  0  0  0  0  0  0  0  0  0
   15.8477   -6.3920  -22.5651 C   0  0  0  0  0  0  0  0  0  0  0  0
   14.7584   -7.2457  -20.4984 C   0  0  0  0  0  0  0  0  0  0  0  0
   15.4572   -8.5823  -20.6210 C   0  0  2  0  0  0  0  0  0  0  0  0
   14.4599   -9.5721  -21.0759 N   0  0  0  0  0  0  0  0  0  0  0  0
   15.9990   -9.0946  -19.3605 C   0  0  0  0  0  0  0  0  0  0  0  0
   15.3614   -9.8784  -18.6176 O   0  0  0  0  0  0  0  0  0  0  0  0
   17.3167   -8.7071  -18.9221 N   0  0  0  0  0  0  0  0  0  0  0  0
   17.9326   -9.2633  -17.7352 C   0  0  1  0  0  0  0  0  0  0  0  0
   18.4193  -10.6861  -17.9890 C   0  0  0  0  0  0  0  0  0  0  0  0
   19.0101  -11.2783  -16.7216 C   0  0  0  0  0  0  0  0  0  0  0  0
   19.4397  -12.6725  -17.1035 C   0  0  0  0  0  0  0  0  0  0  0  0
   18.8535  -13.2992  -18.0280 O   0  0  0  0  0  0  0  0  0  0  0  0
   19.1298   -8.4742  -17.3968 C   0  0  0  0  0  0  0  0  0  0  0  0
   19.9151   -8.1231  -18.2983 O   0  0  0  0  0  0  0  0  0  0  0  0
   20.5038  -13.3090  -16.4429 O   0  0  0  0  0  0  0  0  0  0  0  0
   17.8796   -9.1224  -10.1565 O   0  0  0  0  0  0  0  0  0  0  0  0
   18.4537   -8.4640  -11.2359 C   0  0  0  0  0  0  0  0  0  0  0  0
   17.6579   -7.9435  -12.2397 C   0  0  0  0  0  0  0  0  0  0  0  0
   18.2155   -7.2824  -13.3244 C   0  0  0  0  0  0  0  0  0  0  0  0
   19.5811   -7.1454  -13.3975 C   0  0  0  0  0  0  0  0  0  0  0  0
   20.2051   -6.4596  -14.5203 C   0  0  0  0  0  0  0  0  0  0  0  0
   20.5733   -7.3224  -15.6840 C   0  0  2  0  0  0  0  0  0  0  0  0
   19.4065   -8.1061  -16.0532 N   0  0  0  0  0  0  0  0  0  0  0  0
   21.6548   -8.2876  -15.3663 C   0  0  0  0  0  0  0  0  0  0  0  0
   21.4927   -9.5484  -15.3706 O   0  0  0  0  0  0  0  0  0  0  0  0
   20.4148   -7.6576  -12.4020 C   0  0  0  0  0  0  0  0  0  0  0  0
   19.8243   -8.3208  -11.3183 C   0  0  0  0  0  0  0  0  0  0  0  0
   22.9360   -7.8693  -15.0365 O   0  0  0  0  0  0  0  0  0  0  0  0
  2  3  1  6
  2  1  1  0
  4  2  1  0
  5  7  1  0
  5  4  1  0
  5  6  1  1
  7  8  2  0
  9 10  1  0
  9  7  1  0
 10 11  1  6
 12 11  1  0
 13 12  1  0
 13 17  1  0
 14 13  2  0
 15 16  2  0
 15 10  1  0
 19 20  2  0
 19 18  1  0
 21 20  1  0
 22 21  2  0
 23 22  1  0
 24 23  1  1
 24 25  1  0
 25 15  1  0
 26 24  1  0
 26 30  1  0
 27 26  2  0
 28 22  1  0
 28 29  2  0
 29 19  1  0
M  END
$$$$
