LEY.pdb
     RDKit          3D

 30 30  0  0  1  0  0  0  0  0999 V2000
   29.3867  -15.8280  -17.4648 C   0  0  0  0  0  0  0  0  0  0  0  0
   28.4910  -16.5897  -18.4426 C   0  0  1  0  0  0  0  0  0  0  0  0
   29.0475  -18.0240  -18.4757 C   0  0  0  0  0  0  0  0  0  0  0  0
   27.1007  -16.6212  -17.8206 C   0  0  0  0  0  0  0  0  0  0  0  0
   26.1318  -17.4799  -18.6039 C   0  0  2  0  0  0  0  0  0  0  0  0
   25.7435  -16.7303  -19.8158 N   0  0  0  0  0  0  0  0  0  0  0  0
   24.8881  -17.7837  -17.8928 C   0  0  0  0  0  0  0  0  0  0  0  0
   24.4401  -17.0603  -16.9715 O   0  0  0  0  0  0  0  0  0  0  0  0
   24.1173  -18.9521  -18.2383 N   0  0  0  0  0  0  0  0  0  0  0  0
   22.9129  -19.3240  -17.5250 C   0  0  1  0  0  0  0  0  0  0  0  0
   22.0711  -20.2954  -18.3455 C   0  0  0  0  0  0  0  0  0  0  0  0
   20.8306  -20.7061  -17.5719 C   0  0  0  0  0  0  0  0  0  0  0  0
   19.7418  -19.7828  -18.0580 C   0  0  0  0  0  0  0  0  0  0  0  0
   18.6554  -19.6752  -17.4260 O   0  0  0  0  0  0  0  0  0  0  0  0
   23.2830  -20.0414  -16.2926 C   0  0  0  0  0  0  0  0  0  0  0  0
   24.3628  -20.6606  -16.2373 O   0  0  0  0  0  0  0  0  0  0  0  0
   19.9085  -19.0171  -19.2241 O   0  0  0  0  0  0  0  0  0  0  0  0
   25.3568  -21.3266   -8.0612 O   0  0  0  0  0  0  0  0  0  0  0  0
   24.9609  -20.9322   -9.3324 C   0  0  0  0  0  0  0  0  0  0  0  0
   25.7618  -21.1997  -10.4273 C   0  0  0  0  0  0  0  0  0  0  0  0
   25.3807  -20.8132  -11.7040 C   0  0  0  0  0  0  0  0  0  0  0  0
   24.1871  -20.1543  -11.8776 C   0  0  0  0  0  0  0  0  0  0  0  0
   23.7521  -19.7307  -13.2011 C   0  0  0  0  0  0  0  0  0  0  0  0
   22.8009  -20.6503  -13.8966 C   0  0  2  0  0  0  0  0  0  0  0  0
   22.4247  -20.0404  -15.1610 N   0  0  0  0  0  0  0  0  0  0  0  0
   21.5458  -20.8651  -13.1343 C   0  0  0  0  0  0  0  0  0  0  0  0
   20.4997  -20.1607  -13.2936 O   0  0  0  0  0  0  0  0  0  0  0  0
   23.3534  -19.8684  -10.7953 C   0  0  0  0  0  0  0  0  0  0  0  0
   23.7637  -20.2702   -9.5173 C   0  0  0  0  0  0  0  0  0  0  0  0
   21.4309  -21.8657  -12.1800 O   0  0  0  0  0  0  0  0  0  0  0  0
  2  3  1  1
  2  1  1  0
  4  2  1  0
  5  7  1  0
  5  4  1  0
  5  6  1  6
  7  8  2  0
  9 10  1  0
  9  7  1  0
 10 11  1  6
 12 11  1  0
 13 12  1  0
 13 17  1  0
 14 13  2  0
 15 16  2  0
 15 10  1  0
 19 20  2  0
 19 18  1  0
 21 20  1  0
 22 21  2  0
 23 22  1  0
 24 23  1  1
 24 25  1  0
 25 15  1  0
 26 24  1  0
 26 30  1  0
 27 26  2  0
 28 22  1  0
 28 29  2  0
 29 19  1  0
M  END
$$$$
