LEY.pdb
     RDKit          3D

 30 30  0  0  1  0  0  0  0  0999 V2000
   36.5182   -6.6302   -7.9462 C   0  0  0  0  0  0  0  0  0  0  0  0
   37.7794   -6.0912   -7.2697 C   0  0  1  0  0  0  0  0  0  0  0  0
   37.6157   -6.4209   -5.7756 C   0  0  0  0  0  0  0  0  0  0  0  0
   38.9457   -6.9009   -7.8219 C   0  0  0  0  0  0  0  0  0  0  0  0
   40.2706   -6.5082   -7.2055 C   0  0  2  0  0  0  0  0  0  0  0  0
   40.4463   -5.0551   -7.4028 N   0  0  0  0  0  0  0  0  0  0  0  0
   41.4337   -7.1500   -7.8220 C   0  0  0  0  0  0  0  0  0  0  0  0
   41.9789   -6.7094   -8.8620 O   0  0  0  0  0  0  0  0  0  0  0  0
   42.0059   -8.3377   -7.2383 N   0  0  0  0  0  0  0  0  0  0  0  0
   43.1405   -9.0197   -7.8258 C   0  0  1  0  0  0  0  0  0  0  0  0
   43.8210   -9.9252   -6.8047 C   0  0  0  0  0  0  0  0  0  0  0  0
   45.0258  -10.6113   -7.4243 C   0  0  0  0  0  0  0  0  0  0  0  0
   45.6562  -11.3900   -6.2971 C   0  0  0  0  0  0  0  0  0  0  0  0
   45.5334  -12.6435   -6.2295 O   0  0  0  0  0  0  0  0  0  0  0  0
   42.6676   -9.9023   -8.9063 C   0  0  0  0  0  0  0  0  0  0  0  0
   41.6348  -10.5804   -8.7445 O   0  0  0  0  0  0  0  0  0  0  0  0
   46.3979  -10.7419   -5.2952 O   0  0  0  0  0  0  0  0  0  0  0  0
   39.6232  -12.8942  -16.2976 O   0  0  0  0  0  0  0  0  0  0  0  0
   40.1004  -12.3037  -15.1350 C   0  0  0  0  0  0  0  0  0  0  0  0
   39.6853  -12.7619  -13.8982 C   0  0  0  0  0  0  0  0  0  0  0  0
   40.1529  -12.1836  -12.7271 C   0  0  0  0  0  0  0  0  0  0  0  0
   41.0429  -11.1390  -12.8031 C   0  0  0  0  0  0  0  0  0  0  0  0
   41.5559  -10.5040  -11.5973 C   0  0  0  0  0  0  0  0  0  0  0  0
   42.9515  -10.8756  -11.2120 C   0  0  2  0  0  0  0  0  0  0  0  0
   43.3733   -9.9952  -10.1354 N   0  0  0  0  0  0  0  0  0  0  0  0
   43.9227  -10.6940  -12.3194 C   0  0  0  0  0  0  0  0  0  0  0  0
   44.4610   -9.5781  -12.6036 O   0  0  0  0  0  0  0  0  0  0  0  0
   41.4840  -10.6513  -14.0344 C   0  0  0  0  0  0  0  0  0  0  0  0
   40.9949  -11.2542  -15.2007 C   0  0  0  0  0  0  0  0  0  0  0  0
   44.3122  -11.7490  -13.1320 O   0  0  0  0  0  0  0  0  0  0  0  0
  2  3  1  1
  2  1  1  0
  4  2  1  0
  5  7  1  0
  5  4  1  0
  5  6  1  6
  7  8  2  0
  9 10  1  0
  9  7  1  0
 10 11  1  1
 12 11  1  0
 13 12  1  0
 13 17  1  0
 14 13  2  0
 15 16  2  0
 15 10  1  0
 19 20  2  0
 19 18  1  0
 21 20  1  0
 22 21  2  0
 23 22  1  0
 24 23  1  6
 24 25  1  0
 25 15  1  0
 26 24  1  0
 26 30  1  0
 27 26  2  0
 28 22  1  0
 28 29  2  0
 29 19  1  0
M  END
$$$$
