LEY.pdb
     RDKit          3D

 30 30  0  0  1  0  0  0  0  0999 V2000
   26.1084  -17.4100  -23.0024 C   0  0  0  0  0  0  0  0  0  0  0  0
   25.3076  -17.2732  -21.7068 C   0  0  1  0  0  0  0  0  0  0  0  0
   26.3180  -17.5197  -20.5727 C   0  0  0  0  0  0  0  0  0  0  0  0
   24.8419  -15.8244  -21.6375 C   0  0  0  0  0  0  0  0  0  0  0  0
   24.0640  -15.5227  -20.3751 C   0  0  2  0  0  0  0  0  0  0  0  0
   22.9272  -16.4633  -20.3107 N   0  0  0  0  0  0  0  0  0  0  0  0
   23.4869  -14.1774  -20.3322 C   0  0  0  0  0  0  0  0  0  0  0  0
   24.1729  -13.1401  -20.4946 O   0  0  0  0  0  0  0  0  0  0  0  0
   22.0758  -13.9963  -20.0983 N   0  0  0  0  0  0  0  0  0  0  0  0
   21.4455  -12.6930  -20.1368 C   0  0  1  0  0  0  0  0  0  0  0  0
   20.0215  -12.7915  -20.6735 C   0  0  0  0  0  0  0  0  0  0  0  0
   20.0356  -13.0478  -22.1702 C   0  0  0  0  0  0  0  0  0  0  0  0
   19.0392  -14.1589  -22.3872 C   0  0  0  0  0  0  0  0  0  0  0  0
   18.1169  -14.3720  -21.5535 O   0  0  0  0  0  0  0  0  0  0  0  0
   21.3314  -12.1705  -18.7641 C   0  0  0  0  0  0  0  0  0  0  0  0
   21.0847  -12.9496  -17.8235 O   0  0  0  0  0  0  0  0  0  0  0  0
   19.1096  -14.9834  -23.5226 O   0  0  0  0  0  0  0  0  0  0  0  0
   22.6209   -6.4416  -12.1436 O   0  0  0  0  0  0  0  0  0  0  0  0
   22.6340   -7.2303  -13.2864 C   0  0  0  0  0  0  0  0  0  0  0  0
   22.8486   -8.5929  -13.1917 C   0  0  0  0  0  0  0  0  0  0  0  0
   22.8641   -9.3951  -14.3235 C   0  0  0  0  0  0  0  0  0  0  0  0
   22.6624   -8.8211  -15.5559 C   0  0  0  0  0  0  0  0  0  0  0  0
   22.6727   -9.6284  -16.7678 C   0  0  0  0  0  0  0  0  0  0  0  0
   21.3615  -10.2314  -17.1568 C   0  0  2  0  0  0  0  0  0  0  0  0
   21.4974  -10.7861  -18.4932 N   0  0  0  0  0  0  0  0  0  0  0  0
   20.2638   -9.2344  -17.2162 C   0  0  0  0  0  0  0  0  0  0  0  0
   19.9610   -8.5871  -18.2675 O   0  0  0  0  0  0  0  0  0  0  0  0
   22.4421   -7.4492  -15.6887 C   0  0  0  0  0  0  0  0  0  0  0  0
   22.4320   -6.6633  -14.5289 C   0  0  0  0  0  0  0  0  0  0  0  0
   19.4835   -8.9375  -16.1081 O   0  0  0  0  0  0  0  0  0  0  0  0
  2  3  1  1
  2  1  1  0
  4  2  1  0
  5  7  1  0
  5  4  1  0
  5  6  1  6
  7  8  2  0
  9 10  1  0
  9  7  1  0
 10 11  1  1
 12 11  1  0
 13 12  1  0
 13 17  1  0
 14 13  2  0
 15 16  2  0
 15 10  1  0
 19 20  2  0
 19 18  1  0
 21 20  1  0
 22 21  2  0
 23 22  1  0
 24 23  1  6
 24 25  1  0
 25 15  1  0
 26 24  1  0
 26 30  1  0
 27 26  2  0
 28 22  1  0
 28 29  2  0
 29 19  1  0
M  END
$$$$
