LEY.pdb
     RDKit          3D

 30 30  0  0  1  0  0  0  0  0999 V2000
   14.4380  -13.4757  -19.7880 C   0  0  0  0  0  0  0  0  0  0  0  0
   15.8084  -13.5978  -19.1206 C   0  0  1  0  0  0  0  0  0  0  0  0
   16.8190  -13.0905  -20.1643 C   0  0  0  0  0  0  0  0  0  0  0  0
   15.8020  -12.6343  -17.9407 C   0  0  0  0  0  0  0  0  0  0  0  0
   17.1237  -12.6068  -17.2043 C   0  0  2  0  0  0  0  0  0  0  0  0
   17.2110  -13.8353  -16.3892 N   0  0  0  0  0  0  0  0  0  0  0  0
   17.2697  -11.4854  -16.2738 C   0  0  0  0  0  0  0  0  0  0  0  0
   16.5502  -11.3517  -15.2553 O   0  0  0  0  0  0  0  0  0  0  0  0
   18.2715  -10.4739  -16.5023 N   0  0  0  0  0  0  0  0  0  0  0  0
   18.4048   -9.3099  -15.6510 C   0  0  1  0  0  0  0  0  0  0  0  0
   19.8729   -8.9897  -15.3908 C   0  0  0  0  0  0  0  0  0  0  0  0
   19.9994   -7.7499  -14.5231 C   0  0  0  0  0  0  0  0  0  0  0  0
   21.4817   -7.5677  -14.3134 C   0  0  0  0  0  0  0  0  0  0  0  0
   22.1173   -6.6726  -14.9345 O   0  0  0  0  0  0  0  0  0  0  0  0
   17.8456   -8.1369  -16.3451 C   0  0  0  0  0  0  0  0  0  0  0  0
   17.9397   -8.0477  -17.5843 O   0  0  0  0  0  0  0  0  0  0  0  0
   22.1929   -8.3867  -13.4204 O   0  0  0  0  0  0  0  0  0  0  0  0
   12.2278   -1.8871  -18.5823 O   0  0  0  0  0  0  0  0  0  0  0  0
   12.9620   -2.9556  -18.0850 C   0  0  0  0  0  0  0  0  0  0  0  0
   13.7143   -3.7426  -18.9374 C   0  0  0  0  0  0  0  0  0  0  0  0
   14.4540   -4.8133  -18.4567 C   0  0  0  0  0  0  0  0  0  0  0  0
   14.4352   -5.0918  -17.1109 C   0  0  0  0  0  0  0  0  0  0  0  0
   15.1967   -6.2076  -16.5672 C   0  0  0  0  0  0  0  0  0  0  0  0
   16.6355   -5.9290  -16.2732 C   0  0  2  0  0  0  0  0  0  0  0  0
   17.1990   -7.0995  -15.6218 N   0  0  0  0  0  0  0  0  0  0  0  0
   16.8231   -4.7886  -15.3422 C   0  0  0  0  0  0  0  0  0  0  0  0
   17.0649   -4.9285  -14.1021 O   0  0  0  0  0  0  0  0  0  0  0  0
   13.6878   -4.3182  -16.2214 C   0  0  0  0  0  0  0  0  0  0  0  0
   12.9501   -3.2433  -16.7348 C   0  0  0  0  0  0  0  0  0  0  0  0
   16.7439   -3.4718  -15.7722 O   0  0  0  0  0  0  0  0  0  0  0  0
  2  3  1  6
  2  1  1  0
  4  2  1  0
  5  7  1  0
  5  4  1  0
  5  6  1  1
  7  8  2  0
  9 10  1  0
  9  7  1  0
 10 11  1  6
 12 11  1  0
 13 12  1  0
 13 17  1  0
 14 13  2  0
 15 16  2  0
 15 10  1  0
 19 20  2  0
 19 18  1  0
 21 20  1  0
 22 21  2  0
 23 22  1  0
 24 23  1  1
 24 25  1  0
 25 15  1  0
 26 24  1  0
 26 30  1  0
 27 26  2  0
 28 22  1  0
 28 29  2  0
 29 19  1  0
M  END
$$$$
