LEY.pdb
     RDKit          3D

 30 30  0  0  1  0  0  0  0  0999 V2000
   18.3285  -13.3635    2.8929 C   0  0  0  0  0  0  0  0  0  0  0  0
   17.5674  -14.6807    3.0494 C   0  0  1  0  0  0  0  0  0  0  0  0
   18.0653  -15.5801    1.9044 C   0  0  0  0  0  0  0  0  0  0  0  0
   18.0169  -15.2849    4.3737 C   0  0  0  0  0  0  0  0  0  0  0  0
   17.6631  -16.7512    4.4945 C   0  0  2  0  0  0  0  0  0  0  0  0
   16.2035  -16.8472    4.6986 N   0  0  0  0  0  0  0  0  0  0  0  0
   18.2829  -17.4265    5.6368 C   0  0  0  0  0  0  0  0  0  0  0  0
   19.5238  -17.5699    5.7476 O   0  0  0  0  0  0  0  0  0  0  0  0
   17.4669  -17.9600    6.6990 N   0  0  0  0  0  0  0  0  0  0  0  0
   18.0365  -18.5020    7.9152 C   0  0  1  0  0  0  0  0  0  0  0  0
   17.1630  -18.1718    9.1209 C   0  0  0  0  0  0  0  0  0  0  0  0
   17.8071  -18.6822   10.3979 C   0  0  0  0  0  0  0  0  0  0  0  0
   16.8721  -18.2615   11.5038 C   0  0  0  0  0  0  0  0  0  0  0  0
   15.7722  -17.7020   11.2427 O   0  0  0  0  0  0  0  0  0  0  0  0
   18.0677  -19.9719    7.8213 C   0  0  0  0  0  0  0  0  0  0  0  0
   17.0790  -20.5848    7.3748 O   0  0  0  0  0  0  0  0  0  0  0  0
   17.1991  -18.4832   12.8522 O   0  0  0  0  0  0  0  0  0  0  0  0
   16.8402  -24.0513    2.5840 O   0  0  0  0  0  0  0  0  0  0  0  0
   17.6231  -23.6873    3.6715 C   0  0  0  0  0  0  0  0  0  0  0  0
   18.1477  -24.6545    4.5089 C   0  0  0  0  0  0  0  0  0  0  0  0
   18.9324  -24.3078    5.5991 C   0  0  0  0  0  0  0  0  0  0  0  0
   19.1894  -22.9805    5.8461 C   0  0  0  0  0  0  0  0  0  0  0  0
   20.0071  -22.5754    6.9809 C   0  0  0  0  0  0  0  0  0  0  0  0
   19.2573  -22.1586    8.2050 C   0  0  2  0  0  0  0  0  0  0  0  0
   19.2110  -20.7064    8.2345 N   0  0  0  0  0  0  0  0  0  0  0  0
   19.9184  -22.5919    9.4610 C   0  0  0  0  0  0  0  0  0  0  0  0
   20.1496  -23.8085    9.7478 O   0  0  0  0  0  0  0  0  0  0  0  0
   18.6770  -21.9777    5.0214 C   0  0  0  0  0  0  0  0  0  0  0  0
   17.8875  -22.3568    3.9278 C   0  0  0  0  0  0  0  0  0  0  0  0
   20.3333  -21.6810   10.4220 O   0  0  0  0  0  0  0  0  0  0  0  0
  2  3  1  6
  2  1  1  0
  4  2  1  0
  5  7  1  0
  5  4  1  0
  5  6  1  1
  7  8  2  0
  9 10  1  0
  9  7  1  0
 10 11  1  1
 12 11  1  0
 13 12  1  0
 13 17  1  0
 14 13  2  0
 15 16  2  0
 15 10  1  0
 19 20  2  0
 19 18  1  0
 21 20  1  0
 22 21  2  0
 23 22  1  0
 24 23  1  6
 24 25  1  0
 25 15  1  0
 26 24  1  0
 26 30  1  0
 27 26  2  0
 28 22  1  0
 28 29  2  0
 29 19  1  0
M  END
$$$$
