LEY.pdb
     RDKit          3D

 30 30  0  0  1  0  0  0  0  0999 V2000
   18.6190  -15.6496  -16.7151 C   0  0  0  0  0  0  0  0  0  0  0  0
   19.2847  -14.8931  -17.8654 C   0  0  1  0  0  0  0  0  0  0  0  0
   18.1783  -14.0111  -18.4704 C   0  0  0  0  0  0  0  0  0  0  0  0
   20.3379  -13.9898  -17.2365 C   0  0  0  0  0  0  0  0  0  0  0  0
   20.9930  -13.0703  -18.2441 C   0  0  2  0  0  0  0  0  0  0  0  0
   22.0274  -13.8470  -18.9570 N   0  0  0  0  0  0  0  0  0  0  0  0
   21.6789  -11.9204  -17.6509 C   0  0  0  0  0  0  0  0  0  0  0  0
   22.5924  -12.0410  -16.8001 O   0  0  0  0  0  0  0  0  0  0  0  0
   21.3193  -10.5784  -18.0363 N   0  0  0  0  0  0  0  0  0  0  0  0
   21.9906   -9.4126  -17.4999 C   0  0  1  0  0  0  0  0  0  0  0  0
   22.3174   -8.4145  -18.6056 C   0  0  0  0  0  0  0  0  0  0  0  0
   21.0470   -7.9606  -19.3027 C   0  0  0  0  0  0  0  0  0  0  0  0
   21.5103   -7.0307  -20.3958 C   0  0  0  0  0  0  0  0  0  0  0  0
   21.3031   -5.7889  -20.3191 O   0  0  0  0  0  0  0  0  0  0  0  0
   21.0821   -8.7154  -16.5731 C   0  0  0  0  0  0  0  0  0  0  0  0
   19.8498   -8.8583  -16.6893 O   0  0  0  0  0  0  0  0  0  0  0  0
   22.1861   -7.5211  -21.5257 O   0  0  0  0  0  0  0  0  0  0  0  0
   18.6609   -5.3276   -8.7931 O   0  0  0  0  0  0  0  0  0  0  0  0
   19.3668   -5.7791   -9.9003 C   0  0  0  0  0  0  0  0  0  0  0  0
   19.8824   -4.8787  -10.8143 C   0  0  0  0  0  0  0  0  0  0  0  0
   20.5906   -5.3132  -11.9252 C   0  0  0  0  0  0  0  0  0  0  0  0
   20.7798   -6.6611  -12.1157 C   0  0  0  0  0  0  0  0  0  0  0  0
   21.5160   -7.1574  -13.2698 C   0  0  0  0  0  0  0  0  0  0  0  0
   20.7334   -7.2728  -14.5380 C   0  0  2  0  0  0  0  0  0  0  0  0
   21.5896   -7.8775  -15.5446 N   0  0  0  0  0  0  0  0  0  0  0  0
   20.3065   -5.9561  -15.0734 C   0  0  0  0  0  0  0  0  0  0  0  0
   21.0357   -5.2352  -15.8247 O   0  0  0  0  0  0  0  0  0  0  0  0
   20.2741   -7.5982  -11.2132 C   0  0  0  0  0  0  0  0  0  0  0  0
   19.5627   -7.1310  -10.1003 C   0  0  0  0  0  0  0  0  0  0  0  0
   19.0620   -5.4160  -14.7825 O   0  0  0  0  0  0  0  0  0  0  0  0
  2  3  1  1
  2  1  1  0
  4  2  1  0
  5  7  1  0
  5  4  1  0
  5  6  1  1
  7  8  2  0
  9 10  1  0
  9  7  1  0
 10 11  1  6
 12 11  1  0
 13 12  1  0
 13 17  1  0
 14 13  2  0
 15 16  2  0
 15 10  1  0
 19 20  2  0
 19 18  1  0
 21 20  1  0
 22 21  2  0
 23 22  1  0
 24 23  1  1
 24 25  1  0
 25 15  1  0
 26 24  1  0
 26 30  1  0
 27 26  2  0
 28 22  1  0
 28 29  2  0
 29 19  1  0
M  END
$$$$
