LEY.pdb
     RDKit          3D

 30 30  0  0  1  0  0  0  0  0999 V2000
   20.6948  -13.4596  -19.1648 C   0  0  0  0  0  0  0  0  0  0  0  0
   20.0990  -12.7742  -17.9344 C   0  0  1  0  0  0  0  0  0  0  0  0
   20.7376  -13.4778  -16.7240 C   0  0  0  0  0  0  0  0  0  0  0  0
   20.5817  -11.3297  -17.9682 C   0  0  0  0  0  0  0  0  0  0  0  0
   20.0636  -10.5154  -16.8027 C   0  0  2  0  0  0  0  0  0  0  0  0
   18.6232  -10.8064  -16.6547 N   0  0  0  0  0  0  0  0  0  0  0  0
   20.1730   -9.0666  -16.9865 C   0  0  0  0  0  0  0  0  0  0  0  0
   21.2364   -8.5075  -17.3466 O   0  0  0  0  0  0  0  0  0  0  0  0
   19.0334   -8.2141  -16.7558 N   0  0  0  0  0  0  0  0  0  0  0  0
   19.0548   -6.7963  -17.0503 C   0  0  1  0  0  0  0  0  0  0  0  0
   17.6451   -6.2688  -17.2956 C   0  0  0  0  0  0  0  0  0  0  0  0
   17.1226   -6.7555  -18.6358 C   0  0  0  0  0  0  0  0  0  0  0  0
   15.6982   -7.1749  -18.3725 C   0  0  0  0  0  0  0  0  0  0  0  0
   15.2541   -8.2693  -18.8151 O   0  0  0  0  0  0  0  0  0  0  0  0
   19.5677   -6.0666  -15.8778 C   0  0  0  0  0  0  0  0  0  0  0  0
   19.0676   -6.2697  -14.7548 O   0  0  0  0  0  0  0  0  0  0  0  0
   14.8296   -6.3606  -17.6264 O   0  0  0  0  0  0  0  0  0  0  0  0
   23.2733  -10.2852  -13.3266 O   0  0  0  0  0  0  0  0  0  0  0  0
   23.1038   -8.9476  -13.6587 C   0  0  0  0  0  0  0  0  0  0  0  0
   22.3557   -8.1159  -12.8461 C   0  0  0  0  0  0  0  0  0  0  0  0
   22.1773   -6.7772  -13.1630 C   0  0  0  0  0  0  0  0  0  0  0  0
   22.7556   -6.2747  -14.3041 C   0  0  0  0  0  0  0  0  0  0  0  0
   22.5907   -4.8756  -14.6726 C   0  0  0  0  0  0  0  0  0  0  0  0
   21.1812   -4.4176  -14.8670 C   0  0  2  0  0  0  0  0  0  0  0  0
   20.6273   -5.1295  -16.0065 N   0  0  0  0  0  0  0  0  0  0  0  0
   21.0836   -2.9697  -15.1775 C   0  0  0  0  0  0  0  0  0  0  0  0
   20.6227   -2.5172  -16.2724 O   0  0  0  0  0  0  0  0  0  0  0  0
   23.5178   -7.0851  -15.1472 C   0  0  0  0  0  0  0  0  0  0  0  0
   23.6810   -8.4333  -14.8025 C   0  0  0  0  0  0  0  0  0  0  0  0
   21.4976   -1.9983  -14.2776 O   0  0  0  0  0  0  0  0  0  0  0  0
  2  3  1  1
  2  1  1  0
  4  2  1  0
  5  7  1  0
  5  4  1  0
  5  6  1  6
  7  8  2  0
  9 10  1  0
  9  7  1  0
 10 11  1  1
 12 11  1  0
 13 12  1  0
 13 17  1  0
 14 13  2  0
 15 16  2  0
 15 10  1  0
 19 20  2  0
 19 18  1  0
 21 20  1  0
 22 21  2  0
 23 22  1  0
 24 23  1  6
 24 25  1  0
 25 15  1  0
 26 24  1  0
 26 30  1  0
 27 26  2  0
 28 22  1  0
 28 29  2  0
 29 19  1  0
M  END
$$$$
