LEY.pdb
     RDKit          3D

 30 30  0  0  1  0  0  0  0  0999 V2000
   18.9083  -16.4293  -17.7608 C   0  0  0  0  0  0  0  0  0  0  0  0
   20.1841  -15.8665  -17.1331 C   0  0  1  0  0  0  0  0  0  0  0  0
   19.7709  -15.3768  -15.7340 C   0  0  0  0  0  0  0  0  0  0  0  0
   21.1420  -17.0404  -16.9746 C   0  0  0  0  0  0  0  0  0  0  0  0
   22.4298  -16.6516  -16.2815 C   0  0  2  0  0  0  0  0  0  0  0  0
   22.9758  -15.4682  -16.9764 N   0  0  0  0  0  0  0  0  0  0  0  0
   23.4739  -17.6771  -16.3346 C   0  0  0  0  0  0  0  0  0  0  0  0
   23.3193  -18.8269  -15.8582 O   0  0  0  0  0  0  0  0  0  0  0  0
   24.7446  -17.3927  -16.9536 N   0  0  0  0  0  0  0  0  0  0  0  0
   25.7356  -18.4208  -17.1950 C   0  0  1  0  0  0  0  0  0  0  0  0
   26.6092  -18.0657  -18.3935 C   0  0  0  0  0  0  0  0  0  0  0  0
   25.9251  -18.4715  -19.6870 C   0  0  0  0  0  0  0  0  0  0  0  0
   26.8605  -18.0245  -20.7822 C   0  0  0  0  0  0  0  0  0  0  0  0
   27.8146  -18.7593  -21.1575 O   0  0  0  0  0  0  0  0  0  0  0  0
   26.6417  -18.5007  -16.0361 C   0  0  0  0  0  0  0  0  0  0  0  0
   27.1226  -17.4576  -15.5532 O   0  0  0  0  0  0  0  0  0  0  0  0
   26.6935  -16.7810  -21.4147 O   0  0  0  0  0  0  0  0  0  0  0  0
   22.5668  -21.2920  -10.8884 O   0  0  0  0  0  0  0  0  0  0  0  0
   23.7087  -20.7422  -11.4558 C   0  0  0  0  0  0  0  0  0  0  0  0
   23.6298  -20.0444  -12.6469 C   0  0  0  0  0  0  0  0  0  0  0  0
   24.7609  -19.4883  -13.2266 C   0  0  0  0  0  0  0  0  0  0  0  0
   25.9767  -19.6365  -12.6029 C   0  0  0  0  0  0  0  0  0  0  0  0
   27.1874  -19.0692  -13.1798 C   0  0  0  0  0  0  0  0  0  0  0  0
   27.8183  -19.8655  -14.2763 C   0  0  2  0  0  0  0  0  0  0  0  0
   26.9792  -19.7531  -15.4575 N   0  0  0  0  0  0  0  0  0  0  0  0
   27.9156  -21.3113  -13.9557 C   0  0  0  0  0  0  0  0  0  0  0  0
   27.1871  -22.2002  -14.4988 O   0  0  0  0  0  0  0  0  0  0  0  0
   26.0933  -20.3339  -11.3995 C   0  0  0  0  0  0  0  0  0  0  0  0
   24.9345  -20.8851  -10.8369 C   0  0  0  0  0  0  0  0  0  0  0  0
   28.8234  -21.7953  -13.0248 O   0  0  0  0  0  0  0  0  0  0  0  0
  2  3  1  1
  2  1  1  0
  4  2  1  0
  5  7  1  0
  5  4  1  0
  5  6  1  6
  7  8  2  0
  9 10  1  0
  9  7  1  0
 10 11  1  6
 12 11  1  0
 13 12  1  0
 13 17  1  0
 14 13  2  0
 15 16  2  0
 15 10  1  0
 19 20  2  0
 19 18  1  0
 21 20  1  0
 22 21  2  0
 23 22  1  0
 24 23  1  1
 24 25  1  0
 25 15  1  0
 26 24  1  0
 26 30  1  0
 27 26  2  0
 28 22  1  0
 28 29  2  0
 29 19  1  0
M  END
$$$$
