LEY.pdb
     RDKit          3D

 30 30  0  0  1  0  0  0  0  0999 V2000
   30.3338  -19.9507  -11.7186 C   0  0  0  0  0  0  0  0  0  0  0  0
   30.0112  -20.6737  -13.0269 C   0  0  1  0  0  0  0  0  0  0  0  0
   29.7504  -22.1380  -12.6323 C   0  0  0  0  0  0  0  0  0  0  0  0
   28.7119  -20.0704  -13.5452 C   0  0  0  0  0  0  0  0  0  0  0  0
   28.2423  -20.7160  -14.8307 C   0  0  2  0  0  0  0  0  0  0  0  0
   29.1588  -20.2925  -15.9086 N   0  0  0  0  0  0  0  0  0  0  0  0
   26.8992  -20.3107  -15.2507 C   0  0  0  0  0  0  0  0  0  0  0  0
   26.5535  -19.1091  -15.3486 O   0  0  0  0  0  0  0  0  0  0  0  0
   25.9058  -21.3039  -15.5755 N   0  0  0  0  0  0  0  0  0  0  0  0
   24.5569  -20.9509  -15.9669 C   0  0  1  0  0  0  0  0  0  0  0  0
   24.1107  -21.7620  -17.1787 C   0  0  0  0  0  0  0  0  0  0  0  0
   22.7058  -21.3635  -17.5953 C   0  0  0  0  0  0  0  0  0  0  0  0
   22.3747  -22.2578  -18.7636 C   0  0  0  0  0  0  0  0  0  0  0  0
   21.2127  -22.2773  -19.2539 O   0  0  0  0  0  0  0  0  0  0  0  0
   23.6302  -21.2994  -14.8760 C   0  0  0  0  0  0  0  0  0  0  0  0
   23.6054  -22.4637  -14.4329 O   0  0  0  0  0  0  0  0  0  0  0  0
   23.3502  -23.0900  -19.3380 O   0  0  0  0  0  0  0  0  0  0  0  0
   26.7171  -20.5792   -8.9053 O   0  0  0  0  0  0  0  0  0  0  0  0
   25.6082  -20.3237   -9.7010 C   0  0  0  0  0  0  0  0  0  0  0  0
   25.3925  -19.0570  -10.2119 C   0  0  0  0  0  0  0  0  0  0  0  0
   24.2901  -18.7852  -11.0090 C   0  0  0  0  0  0  0  0  0  0  0  0
   23.4013  -19.7946  -11.2922 C   0  0  0  0  0  0  0  0  0  0  0  0
   22.2313  -19.5495  -12.1237 C   0  0  0  0  0  0  0  0  0  0  0  0
   21.9354  -20.5938  -13.1514 C   0  0  2  0  0  0  0  0  0  0  0  0
   22.7589  -20.3260  -14.3185 N   0  0  0  0  0  0  0  0  0  0  0  0
   20.5236  -20.5690  -13.6082 C   0  0  0  0  0  0  0  0  0  0  0  0
   20.1314  -19.9367  -14.6389 O   0  0  0  0  0  0  0  0  0  0  0  0
   23.5880  -21.0851  -10.7942 C   0  0  0  0  0  0  0  0  0  0  0  0
   24.7099  -21.3309   -9.9916 C   0  0  0  0  0  0  0  0  0  0  0  0
   19.5217  -21.2453  -12.9272 O   0  0  0  0  0  0  0  0  0  0  0  0
  2  3  1  1
  2  1  1  0
  4  2  1  0
  5  7  1  0
  5  4  1  0
  5  6  1  6
  7  8  2  0
  9 10  1  0
  9  7  1  0
 10 11  1  6
 12 11  1  0
 13 12  1  0
 13 17  1  0
 14 13  2  0
 15 16  2  0
 15 10  1  0
 19 20  2  0
 19 18  1  0
 21 20  1  0
 22 21  2  0
 23 22  1  0
 24 23  1  1
 24 25  1  0
 25 15  1  0
 26 24  1  0
 26 30  1  0
 27 26  2  0
 28 22  1  0
 28 29  2  0
 29 19  1  0
M  END
$$$$
