WNK.pdb
     RDKit          3D

 32 33  0  0  1  0  0  0  0  0999 V2000
   24.1474  -19.5297  -18.9221 N   0  0  0  0  0  0  0  0  0  0  0  0
   24.2200  -19.7721  -17.4797 C   0  0  1  0  0  0  0  0  0  0  0  0
   23.9363  -18.4945  -16.7211 C   0  0  0  0  0  0  0  0  0  0  0  0
   24.9323  -17.4654  -17.0955 C   0  0  0  0  0  0  0  0  0  0  0  0
   24.7036  -16.1834  -17.5431 C   0  0  0  0  0  0  0  0  0  0  0  0
   25.8884  -15.5676  -17.7824 N   0  0  0  0  0  0  0  0  0  0  0  0
   26.8933  -16.3997  -17.5080 C   0  0  0  0  0  0  0  0  0  0  0  0
   28.2612  -16.2502  -17.5867 C   0  0  0  0  0  0  0  0  0  0  0  0
   29.0438  -17.3240  -17.2233 C   0  0  0  0  0  0  0  0  0  0  0  0
   28.4856  -18.5104  -16.7946 C   0  0  0  0  0  0  0  0  0  0  0  0
   27.1104  -18.6378  -16.7235 C   0  0  0  0  0  0  0  0  0  0  0  0
   26.3197  -17.5869  -17.0787 C   0  0  0  0  0  0  0  0  0  0  0  0
   23.2197  -20.7842  -17.0715 C   0  0  0  0  0  0  0  0  0  0  0  0
   22.2842  -21.0791  -17.8220 O   0  0  0  0  0  0  0  0  0  0  0  0
   21.6510  -25.0806  -14.4672 N   0  0  0  0  0  0  0  0  0  0  0  0
   23.0193  -24.8045  -14.3022 C   0  0  0  0  0  0  0  0  0  0  0  0
   23.7713  -25.6843  -13.8353 O   0  0  0  0  0  0  0  0  0  0  0  0
   23.5691  -23.4959  -14.6724 C   0  0  0  0  0  0  0  0  0  0  0  0
   22.6448  -22.5919  -15.4042 C   0  0  2  0  0  0  0  0  0  0  0  0
   23.3586  -21.4030  -15.8070 N   0  0  0  0  0  0  0  0  0  0  0  0
   21.4830  -22.1530  -14.5975 C   0  0  0  0  0  0  0  0  0  0  0  0
   21.6580  -21.6822  -13.4476 O   0  0  0  0  0  0  0  0  0  0  0  0
   20.1438  -22.2308  -15.0495 N   0  0  0  0  0  0  0  0  0  0  0  0
   19.0083  -21.7689  -14.2165 C   0  0  1  0  0  0  0  0  0  0  0  0
   17.7999  -21.5730  -15.0594 C   0  0  0  0  0  0  0  0  0  0  0  0
   16.6619  -21.0267  -14.2477 C   0  0  0  0  0  0  0  0  0  0  0  0
   15.4320  -20.8385  -15.1341 C   0  0  0  0  0  0  0  0  0  0  0  0
   14.2675  -20.3059  -14.3542 C   0  0  0  0  0  0  0  0  0  0  0  0
   14.4620  -18.9036  -14.0945 N   0  0  0  0  0  0  0  0  0  0  0  0
   18.7818  -22.8199  -13.2104 C   0  0  0  0  0  0  0  0  0  0  0  0
   19.1305  -24.0257  -13.3250 O   0  0  0  0  0  0  0  0  0  0  0  0
   18.1242  -22.4749  -12.0143 O   0  0  0  0  0  0  0  0  0  0  0  0
  2  1  1  6
  2  3  1  0
  3  4  1  0
  4  5  2  0
  5  6  1  0
  7  8  2  0
  7  6  1  0
  9  8  1  0
 10  9  2  0
 11 10  1  0
 11 12  2  0
 12  4  1  0
 12  7  1  0
 13  2  1  0
 13 20  1  0
 14 13  2  0
 15 16  1  0
 16 18  1  0
 16 17  2  0
 19 20  1  0
 19 18  1  1
 21 19  1  0
 22 21  2  0
 23 21  1  0
 24 23  1  0
 24 25  1  6
 25 26  1  0
 27 26  1  0
 27 28  1  0
 28 29  1  0
 30 24  1  0
 30 32  1  0
 31 30  2  0
M  END
$$$$
