WNK.pdb
     RDKit          3D

 32 33  0  0  1  0  0  0  0  0999 V2000
   27.3149  -21.9695  -16.1745 N   0  0  0  0  0  0  0  0  0  0  0  0
   25.9766  -21.4512  -15.8837 C   0  0  1  0  0  0  0  0  0  0  0  0
   25.0965  -21.5624  -17.1089 C   0  0  0  0  0  0  0  0  0  0  0  0
   25.2480  -20.3460  -17.9388 C   0  0  0  0  0  0  0  0  0  0  0  0
   26.2688  -20.0306  -18.8076 C   0  0  0  0  0  0  0  0  0  0  0  0
   26.0313  -18.8176  -19.3665 N   0  0  0  0  0  0  0  0  0  0  0  0
   24.8873  -18.3200  -18.8962 C   0  0  0  0  0  0  0  0  0  0  0  0
   24.2225  -17.1396  -19.1499 C   0  0  0  0  0  0  0  0  0  0  0  0
   23.0355  -16.9188  -18.4867 C   0  0  0  0  0  0  0  0  0  0  0  0
   22.5236  -17.8419  -17.5986 C   0  0  0  0  0  0  0  0  0  0  0  0
   23.2078  -19.0197  -17.3596 C   0  0  0  0  0  0  0  0  0  0  0  0
   24.3835  -19.2560  -18.0058 C   0  0  0  0  0  0  0  0  0  0  0  0
   25.3460  -22.2241  -14.7897 C   0  0  0  0  0  0  0  0  0  0  0  0
   25.7365  -23.3649  -14.5224 O   0  0  0  0  0  0  0  0  0  0  0  0
   24.7931  -19.9922  -11.7673 N   0  0  0  0  0  0  0  0  0  0  0  0
   25.1048  -21.2571  -11.2395 C   0  0  0  0  0  0  0  0  0  0  0  0
   25.8585  -21.3400  -10.2483 O   0  0  0  0  0  0  0  0  0  0  0  0
   24.5542  -22.4761  -11.8417 C   0  0  0  0  0  0  0  0  0  0  0  0
   23.6024  -22.2679  -12.9632 C   0  0  2  0  0  0  0  0  0  0  0  0
   24.2899  -21.6289  -14.0607 N   0  0  0  0  0  0  0  0  0  0  0  0
   22.4488  -21.4092  -12.6097 C   0  0  0  0  0  0  0  0  0  0  0  0
   21.9414  -21.4782  -11.4641 O   0  0  0  0  0  0  0  0  0  0  0  0
   21.8591  -20.4851  -13.5054 N   0  0  0  0  0  0  0  0  0  0  0  0
   20.3914  -20.4067  -13.6954 C   0  0  1  0  0  0  0  0  0  0  0  0
   20.0764  -19.9246  -15.0657 C   0  0  0  0  0  0  0  0  0  0  0  0
   18.5986  -19.9673  -15.3235 C   0  0  0  0  0  0  0  0  0  0  0  0
   18.3013  -19.4744  -16.7385 C   0  0  0  0  0  0  0  0  0  0  0  0
   16.8307  -19.4919  -17.0302 C   0  0  0  0  0  0  0  0  0  0  0  0
   16.5881  -18.9023  -18.3207 N   0  0  0  0  0  0  0  0  0  0  0  0
   19.8760  -21.7702  -13.4874 C   0  0  0  0  0  0  0  0  0  0  0  0
   20.3264  -22.8112  -14.0372 O   0  0  0  0  0  0  0  0  0  0  0  0
   18.7925  -21.9522  -12.6071 O   0  0  0  0  0  0  0  0  0  0  0  0
  2  1  1  6
  2  3  1  0
  3  4  1  0
  4  5  2  0
  5  6  1  0
  7  8  2  0
  7  6  1  0
  9  8  1  0
 10  9  2  0
 11 10  1  0
 11 12  2  0
 12  4  1  0
 12  7  1  0
 13  2  1  0
 13 20  1  0
 14 13  2  0
 15 16  1  0
 16 18  1  0
 16 17  2  0
 19 20  1  0
 19 18  1  1
 21 19  1  0
 22 21  2  0
 23 21  1  0
 24 23  1  0
 24 25  1  6
 25 26  1  0
 27 26  1  0
 27 28  1  0
 28 29  1  0
 30 24  1  0
 30 32  1  0
 31 30  2  0
M  END
$$$$
