WNK.pdb
     RDKit          3D

 32 33  0  0  1  0  0  0  0  0999 V2000
   28.7380  -21.9701  -11.3974 N   0  0  0  0  0  0  0  0  0  0  0  0
   27.4568  -21.4747  -10.8900 C   0  0  1  0  0  0  0  0  0  0  0  0
   27.6438  -20.1278  -10.2274 C   0  0  0  0  0  0  0  0  0  0  0  0
   27.0277  -20.1488   -8.8816 C   0  0  0  0  0  0  0  0  0  0  0  0
   25.6959  -20.2822   -8.5577 C   0  0  0  0  0  0  0  0  0  0  0  0
   25.5503  -20.2448   -7.2095 N   0  0  0  0  0  0  0  0  0  0  0  0
   26.7415  -20.0911   -6.6308 C   0  0  0  0  0  0  0  0  0  0  0  0
   27.1182  -19.9971   -5.3083 C   0  0  0  0  0  0  0  0  0  0  0  0
   28.4591  -19.8388   -5.0350 C   0  0  0  0  0  0  0  0  0  0  0  0
   29.3977  -19.7758   -6.0439 C   0  0  0  0  0  0  0  0  0  0  0  0
   28.9967  -19.8723   -7.3639 C   0  0  0  0  0  0  0  0  0  0  0  0
   27.6751  -20.0292   -7.6541 C   0  0  0  0  0  0  0  0  0  0  0  0
   26.4860  -21.3150  -11.9963 C   0  0  0  0  0  0  0  0  0  0  0  0
   26.8537  -21.4107  -13.1715 O   0  0  0  0  0  0  0  0  0  0  0  0
   20.3421  -21.4398  -12.3167 N   0  0  0  0  0  0  0  0  0  0  0  0
   21.6327  -21.7941  -12.7464 C   0  0  0  0  0  0  0  0  0  0  0  0
   21.7811  -22.3401  -13.8587 O   0  0  0  0  0  0  0  0  0  0  0  0
   22.8023  -21.5288  -11.9017 C   0  0  0  0  0  0  0  0  0  0  0  0
   24.0450  -21.1495  -12.6222 C   0  0  2  0  0  0  0  0  0  0  0  0
   25.1332  -21.0507  -11.6781 N   0  0  0  0  0  0  0  0  0  0  0  0
   23.9510  -19.8467  -13.3200 C   0  0  0  0  0  0  0  0  0  0  0  0
   24.5694  -18.8494  -12.8755 O   0  0  0  0  0  0  0  0  0  0  0  0
   23.1858  -19.6421  -14.4932 N   0  0  0  0  0  0  0  0  0  0  0  0
   23.5431  -18.6051  -15.4900 C   0  0  1  0  0  0  0  0  0  0  0  0
   24.2244  -17.4650  -14.8227 C   0  0  0  0  0  0  0  0  0  0  0  0
   24.1506  -16.2266  -15.6671 C   0  0  0  0  0  0  0  0  0  0  0  0
   24.8429  -15.0666  -14.9537 C   0  0  0  0  0  0  0  0  0  0  0  0
   24.8362  -13.8226  -15.7906 C   0  0  0  0  0  0  0  0  0  0  0  0
   25.3389  -12.7181  -15.0166 N   0  0  0  0  0  0  0  0  0  0  0  0
   24.4391  -19.2574  -16.4594 C   0  0  0  0  0  0  0  0  0  0  0  0
   24.2757  -20.4106  -16.9411 O   0  0  0  0  0  0  0  0  0  0  0  0
   25.5778  -18.5563  -16.8996 O   0  0  0  0  0  0  0  0  0  0  0  0
  2  1  1  6
  2  3  1  0
  3  4  1  0
  4  5  2  0
  5  6  1  0
  7  8  2  0
  7  6  1  0
  9  8  1  0
 10  9  2  0
 11 10  1  0
 11 12  2  0
 12  4  1  0
 12  7  1  0
 13  2  1  0
 13 20  1  0
 14 13  2  0
 15 16  1  0
 16 18  1  0
 16 17  2  0
 19 20  1  0
 19 18  1  1
 21 19  1  0
 22 21  2  0
 23 21  1  0
 24 23  1  0
 24 25  1  1
 25 26  1  0
 27 26  1  0
 27 28  1  0
 28 29  1  0
 30 24  1  0
 30 32  1  0
 31 30  2  0
M  END
$$$$
