WNK.pdb
     RDKit          3D

 32 33  0  0  1  0  0  0  0  0999 V2000
   26.9688  -21.8869  -15.6969 N   0  0  0  0  0  0  0  0  0  0  0  0
   26.0734  -21.7807  -14.5430 C   0  0  1  0  0  0  0  0  0  0  0  0
   26.1548  -20.3934  -13.9456 C   0  0  0  0  0  0  0  0  0  0  0  0
   27.5172  -20.1624  -13.4150 C   0  0  0  0  0  0  0  0  0  0  0  0
   28.5164  -19.3791  -13.9482 C   0  0  0  0  0  0  0  0  0  0  0  0
   29.6160  -19.4440  -13.1565 N   0  0  0  0  0  0  0  0  0  0  0  0
   29.3775  -20.2443  -12.1172 C   0  0  0  0  0  0  0  0  0  0  0  0
   30.1618  -20.6283  -11.0509 C   0  0  0  0  0  0  0  0  0  0  0  0
   29.6082  -21.4861  -10.1260 C   0  0  0  0  0  0  0  0  0  0  0  0
   28.3150  -21.9486  -10.2556 C   0  0  0  0  0  0  0  0  0  0  0  0
   27.5464  -21.5499  -11.3339 C   0  0  0  0  0  0  0  0  0  0  0  0
   28.0764  -20.7021  -12.2590 C   0  0  0  0  0  0  0  0  0  0  0  0
   24.6712  -22.0282  -14.9483 C   0  0  0  0  0  0  0  0  0  0  0  0
   24.2521  -21.6208  -16.0364 O   0  0  0  0  0  0  0  0  0  0  0  0
   20.8422  -26.0120  -15.4253 N   0  0  0  0  0  0  0  0  0  0  0  0
   21.0874  -25.2737  -14.2547 C   0  0  0  0  0  0  0  0  0  0  0  0
   20.1798  -25.1466  -13.4075 O   0  0  0  0  0  0  0  0  0  0  0  0
   22.3960  -24.6533  -14.0209 C   0  0  0  0  0  0  0  0  0  0  0  0
   22.5124  -23.2259  -14.4163 C   0  0  2  0  0  0  0  0  0  0  0  0
   23.8254  -22.7385  -14.0644 N   0  0  0  0  0  0  0  0  0  0  0  0
   21.5254  -22.3445  -13.7514 C   0  0  0  0  0  0  0  0  0  0  0  0
   21.7409  -21.9239  -12.5890 O   0  0  0  0  0  0  0  0  0  0  0  0
   20.3150  -21.9303  -14.3572 N   0  0  0  0  0  0  0  0  0  0  0  0
   19.3245  -21.0957  -13.6367 C   0  0  1  0  0  0  0  0  0  0  0  0
   18.7669  -20.0610  -14.5464 C   0  0  0  0  0  0  0  0  0  0  0  0
   19.0885  -18.6812  -14.0513 C   0  0  0  0  0  0  0  0  0  0  0  0
   18.5475  -17.6375  -15.0269 C   0  0  0  0  0  0  0  0  0  0  0  0
   18.8415  -16.2432  -14.5605 C   0  0  0  0  0  0  0  0  0  0  0  0
   18.3523  -15.2976  -15.5292 N   0  0  0  0  0  0  0  0  0  0  0  0
   18.2693  -22.0142  -13.1771 C   0  0  0  0  0  0  0  0  0  0  0  0
   17.8650  -22.1230  -11.9882 O   0  0  0  0  0  0  0  0  0  0  0  0
   17.6457  -22.8491  -14.1237 O   0  0  0  0  0  0  0  0  0  0  0  0
  2  1  1  6
  2  3  1  0
  3  4  1  0
  4  5  2  0
  5  6  1  0
  7  8  2  0
  7  6  1  0
  9  8  1  0
 10  9  2  0
 11 10  1  0
 11 12  2  0
 12  4  1  0
 12  7  1  0
 13  2  1  0
 13 20  1  0
 14 13  2  0
 15 16  1  0
 16 18  1  0
 16 17  2  0
 19 20  1  0
 19 18  1  1
 21 19  1  0
 22 21  2  0
 23 21  1  0
 24 23  1  0
 24 25  1  6
 25 26  1  0
 27 26  1  0
 27 28  1  0
 28 29  1  0
 30 24  1  0
 30 32  1  0
 31 30  2  0
M  END
$$$$
