WNK.pdb
     RDKit          3D

 32 33  0  0  1  0  0  0  0  0999 V2000
   27.6121  -21.2919  -10.8701 N   0  0  0  0  0  0  0  0  0  0  0  0
   26.4709  -20.7613  -10.1215 C   0  0  1  0  0  0  0  0  0  0  0  0
   26.9237  -19.6542   -9.1955 C   0  0  0  0  0  0  0  0  0  0  0  0
   28.0913  -20.1131   -8.4098 C   0  0  0  0  0  0  0  0  0  0  0  0
   29.1968  -20.8040   -8.8535 C   0  0  0  0  0  0  0  0  0  0  0  0
   30.0341  -21.0384   -7.8123 N   0  0  0  0  0  0  0  0  0  0  0  0
   29.5192  -20.5257   -6.6945 C   0  0  0  0  0  0  0  0  0  0  0  0
   29.9781  -20.5018   -5.3950 C   0  0  0  0  0  0  0  0  0  0  0  0
   29.1919  -19.8791   -4.4506 C   0  0  0  0  0  0  0  0  0  0  0  0
   27.9867  -19.2976   -4.7859 C   0  0  0  0  0  0  0  0  0  0  0  0
   27.5462  -19.3337   -6.0963 C   0  0  0  0  0  0  0  0  0  0  0  0
   28.3097  -19.9450   -7.0445 C   0  0  0  0  0  0  0  0  0  0  0  0
   25.4561  -20.2055  -11.0451 C   0  0  0  0  0  0  0  0  0  0  0  0
   25.6475  -19.1233  -11.6088 O   0  0  0  0  0  0  0  0  0  0  0  0
   22.6410  -18.7936  -15.0351 N   0  0  0  0  0  0  0  0  0  0  0  0
   22.8590  -20.1214  -14.6287 C   0  0  0  0  0  0  0  0  0  0  0  0
   22.2338  -21.0453  -15.1883 O   0  0  0  0  0  0  0  0  0  0  0  0
   23.8114  -20.4296  -13.5564 C   0  0  0  0  0  0  0  0  0  0  0  0
   23.2322  -20.5439  -12.1931 C   0  0  2  0  0  0  0  0  0  0  0  0
   24.2667  -20.9388  -11.2662 N   0  0  0  0  0  0  0  0  0  0  0  0
   22.1477  -21.5474  -12.0923 C   0  0  0  0  0  0  0  0  0  0  0  0
   22.4161  -22.7716  -12.1551 O   0  0  0  0  0  0  0  0  0  0  0  0
   20.7834  -21.2092  -11.9246 N   0  0  0  0  0  0  0  0  0  0  0  0
   19.7290  -22.2441  -11.8070 C   0  0  1  0  0  0  0  0  0  0  0  0
   18.4460  -21.6237  -11.3850 C   0  0  0  0  0  0  0  0  0  0  0  0
   17.3857  -22.6667  -11.1843 C   0  0  0  0  0  0  0  0  0  0  0  0
   16.1304  -22.0277  -10.5929 C   0  0  0  0  0  0  0  0  0  0  0  0
   15.0447  -23.0398  -10.3811 C   0  0  0  0  0  0  0  0  0  0  0  0
   13.8795  -22.3908   -9.8400 N   0  0  0  0  0  0  0  0  0  0  0  0
   19.6026  -22.8561  -13.1403 C   0  0  0  0  0  0  0  0  0  0  0  0
   19.6100  -22.2290  -14.2335 O   0  0  0  0  0  0  0  0  0  0  0  0
   19.4609  -24.2541  -13.2274 O   0  0  0  0  0  0  0  0  0  0  0  0
  2  1  1  6
  2  3  1  0
  3  4  1  0
  4  5  2  0
  5  6  1  0
  7  8  2  0
  7  6  1  0
  9  8  1  0
 10  9  2  0
 11 10  1  0
 11 12  2  0
 12  4  1  0
 12  7  1  0
 13  2  1  0
 13 20  1  0
 14 13  2  0
 15 16  1  0
 16 18  1  0
 16 17  2  0
 19 20  1  0
 19 18  1  6
 21 19  1  0
 22 21  2  0
 23 21  1  0
 24 23  1  0
 24 25  1  6
 25 26  1  0
 27 26  1  0
 27 28  1  0
 28 29  1  0
 30 24  1  0
 30 32  1  0
 31 30  2  0
M  END
$$$$
