WNK.pdb
     RDKit          3D

 32 33  0  0  1  0  0  0  0  0999 V2000
   27.4072  -19.1630  -16.8030 N   0  0  0  0  0  0  0  0  0  0  0  0
   26.3037  -20.0748  -16.4944 C   0  0  1  0  0  0  0  0  0  0  0  0
   26.8181  -21.2791  -15.7373 C   0  0  0  0  0  0  0  0  0  0  0  0
   27.8935  -21.9316  -16.5177 C   0  0  0  0  0  0  0  0  0  0  0  0
   29.1749  -22.2330  -16.1136 C   0  0  0  0  0  0  0  0  0  0  0  0
   29.8464  -22.8227  -17.1342 N   0  0  0  0  0  0  0  0  0  0  0  0
   29.0517  -22.9213  -18.2001 C   0  0  0  0  0  0  0  0  0  0  0  0
   29.2617  -23.4354  -19.4616 C   0  0  0  0  0  0  0  0  0  0  0  0
   28.2142  -23.3859  -20.3549 C   0  0  0  0  0  0  0  0  0  0  0  0
   26.9950  -22.8425  -20.0065 C   0  0  0  0  0  0  0  0  0  0  0  0
   26.8070  -22.3324  -18.7349 C   0  0  0  0  0  0  0  0  0  0  0  0
   27.8311  -22.3724  -17.8375 C   0  0  0  0  0  0  0  0  0  0  0  0
   25.2899  -19.3985  -15.6538 C   0  0  0  0  0  0  0  0  0  0  0  0
   25.6230  -18.5103  -14.8629 O   0  0  0  0  0  0  0  0  0  0  0  0
   20.6362  -16.9364  -14.7807 N   0  0  0  0  0  0  0  0  0  0  0  0
   20.5913  -18.1548  -15.4800 C   0  0  0  0  0  0  0  0  0  0  0  0
   19.5006  -18.7468  -15.6128 O   0  0  0  0  0  0  0  0  0  0  0  0
   21.8108  -18.7348  -16.0529 C   0  0  0  0  0  0  0  0  0  0  0  0
   22.8434  -19.1613  -15.0736 C   0  0  2  0  0  0  0  0  0  0  0  0
   23.9365  -19.7916  -15.7760 N   0  0  0  0  0  0  0  0  0  0  0  0
   22.3461  -20.1344  -14.0742 C   0  0  0  0  0  0  0  0  0  0  0  0
   21.7389  -21.1664  -14.4496 O   0  0  0  0  0  0  0  0  0  0  0  0
   22.5139  -19.9750  -12.6777 N   0  0  0  0  0  0  0  0  0  0  0  0
   21.9143  -20.9182  -11.7044 C   0  0  1  0  0  0  0  0  0  0  0  0
   22.2203  -20.4859  -10.3156 C   0  0  0  0  0  0  0  0  0  0  0  0
   21.6340  -21.4387   -9.3152 C   0  0  0  0  0  0  0  0  0  0  0  0
   21.8824  -20.9253   -7.8979 C   0  0  0  0  0  0  0  0  0  0  0  0
   21.3362  -21.8674   -6.8674 C   0  0  0  0  0  0  0  0  0  0  0  0
   21.7234  -21.4228   -5.5543 N   0  0  0  0  0  0  0  0  0  0  0  0
   20.4630  -20.8983  -11.9526 C   0  0  0  0  0  0  0  0  0  0  0  0
   19.7729  -19.8637  -12.1572 O   0  0  0  0  0  0  0  0  0  0  0  0
   19.7669  -22.1220  -11.9675 O   0  0  0  0  0  0  0  0  0  0  0  0
  2  1  1  1
  2  3  1  0
  3  4  1  0
  4  5  2  0
  5  6  1  0
  7  8  2  0
  7  6  1  0
  9  8  1  0
 10  9  2  0
 11 10  1  0
 11 12  2  0
 12  4  1  0
 12  7  1  0
 13  2  1  0
 13 20  1  0
 14 13  2  0
 15 16  1  0
 16 18  1  0
 16 17  2  0
 19 20  1  0
 19 18  1  6
 21 19  1  0
 22 21  2  0
 23 21  1  0
 24 23  1  0
 24 25  1  1
 25 26  1  0
 27 26  1  0
 27 28  1  0
 28 29  1  0
 30 24  1  0
 30 32  1  0
 31 30  2  0
M  END
$$$$
