WNK.pdb
     RDKit          3D

 32 33  0  0  1  0  0  0  0  0999 V2000
   15.9705  -14.7691    6.0317 N   0  0  0  0  0  0  0  0  0  0  0  0
   16.9750  -15.7755    5.6821 C   0  0  1  0  0  0  0  0  0  0  0  0
   18.3660  -15.2137    5.8766 C   0  0  0  0  0  0  0  0  0  0  0  0
   18.6819  -14.2815    4.7709 C   0  0  0  0  0  0  0  0  0  0  0  0
   18.6157  -12.9061    4.7727 C   0  0  0  0  0  0  0  0  0  0  0  0
   18.9821  -12.4320    3.5556 N   0  0  0  0  0  0  0  0  0  0  0  0
   19.2885  -13.4482    2.7488 C   0  0  0  0  0  0  0  0  0  0  0  0
   19.7094  -13.4886    1.4370 C   0  0  0  0  0  0  0  0  0  0  0  0
   19.9464  -14.7257    0.8792 C   0  0  0  0  0  0  0  0  0  0  0  0
   19.7710  -15.8876    1.6018 C   0  0  0  0  0  0  0  0  0  0  0  0
   19.3479  -15.8229    2.9168 C   0  0  0  0  0  0  0  0  0  0  0  0
   19.1083  -14.6087    3.4859 C   0  0  0  0  0  0  0  0  0  0  0  0
   16.8348  -16.9714    6.5435 C   0  0  0  0  0  0  0  0  0  0  0  0
   16.3969  -16.8675    7.6936 O   0  0  0  0  0  0  0  0  0  0  0  0
   16.3489  -21.8208    7.9466 N   0  0  0  0  0  0  0  0  0  0  0  0
   16.6943  -21.8265    6.5841 C   0  0  0  0  0  0  0  0  0  0  0  0
   16.5474  -22.8715    5.9178 O   0  0  0  0  0  0  0  0  0  0  0  0
   17.2242  -20.6193    5.9409 C   0  0  0  0  0  0  0  0  0  0  0  0
   17.3568  -19.4271    6.8174 C   0  0  2  0  0  0  0  0  0  0  0  0
   17.2127  -18.2308    6.0216 N   0  0  0  0  0  0  0  0  0  0  0  0
   18.6652  -19.3404    7.5056 C   0  0  0  0  0  0  0  0  0  0  0  0
   19.6897  -18.9974    6.8674 O   0  0  0  0  0  0  0  0  0  0  0  0
   18.8457  -19.6276    8.8799 N   0  0  0  0  0  0  0  0  0  0  0  0
   20.1713  -19.5218    9.5343 C   0  0  1  0  0  0  0  0  0  0  0  0
   20.1840  -18.3804   10.4862 C   0  0  0  0  0  0  0  0  0  0  0  0
   21.4538  -18.3621   11.2858 C   0  0  0  0  0  0  0  0  0  0  0  0
   21.3821  -17.2725   12.3542 C   0  0  0  0  0  0  0  0  0  0  0  0
   22.6449  -17.2072   13.1598 C   0  0  0  0  0  0  0  0  0  0  0  0
   22.5488  -16.1404   14.1213 N   0  0  0  0  0  0  0  0  0  0  0  0
   20.3847  -20.7963   10.2401 C   0  0  0  0  0  0  0  0  0  0  0  0
   19.4963  -21.6610   10.4674 O   0  0  0  0  0  0  0  0  0  0  0  0
   21.6778  -21.0967   10.7090 O   0  0  0  0  0  0  0  0  0  0  0  0
  2  1  1  1
  2  3  1  0
  3  4  1  0
  4  5  2  0
  5  6  1  0
  7  8  2  0
  7  6  1  0
  9  8  1  0
 10  9  2  0
 11 10  1  0
 11 12  2  0
 12  4  1  0
 12  7  1  0
 13  2  1  0
 13 20  1  0
 14 13  2  0
 15 16  1  0
 16 18  1  0
 16 17  2  0
 19 20  1  0
 19 18  1  6
 21 19  1  0
 22 21  2  0
 23 21  1  0
 24 23  1  0
 24 25  1  1
 25 26  1  0
 27 26  1  0
 27 28  1  0
 28 29  1  0
 30 24  1  0
 30 32  1  0
 31 30  2  0
M  END
$$$$
