WNK.pdb
     RDKit          3D

 32 33  0  0  1  0  0  0  0  0999 V2000
   26.1096  -19.6408  -11.2981 N   0  0  0  0  0  0  0  0  0  0  0  0
   25.2436  -20.8026  -11.0872 C   0  0  1  0  0  0  0  0  0  0  0  0
   25.2910  -21.2324   -9.6377 C   0  0  0  0  0  0  0  0  0  0  0  0
   26.5319  -20.7235   -9.0112 C   0  0  0  0  0  0  0  0  0  0  0  0
   26.6750  -19.6593   -8.1491 C   0  0  0  0  0  0  0  0  0  0  0  0
   27.9815  -19.5209   -7.8111 N   0  0  0  0  0  0  0  0  0  0  0  0
   28.7073  -20.4582   -8.4210 C   0  0  0  0  0  0  0  0  0  0  0  0
   30.0574  -20.7353   -8.4026 C   0  0  0  0  0  0  0  0  0  0  0  0
   30.5027  -21.7966   -9.1596 C   0  0  0  0  0  0  0  0  0  0  0  0
   29.6343  -22.5598   -9.9121 C   0  0  0  0  0  0  0  0  0  0  0  0
   28.2836  -22.2633   -9.9154 C   0  0  0  0  0  0  0  0  0  0  0  0
   27.8240  -21.2176   -9.1731 C   0  0  0  0  0  0  0  0  0  0  0  0
   23.8405  -20.4738  -11.4265 C   0  0  0  0  0  0  0  0  0  0  0  0
   23.2773  -19.5101  -10.8979 O   0  0  0  0  0  0  0  0  0  0  0  0
   21.6878  -18.1988  -13.1475 N   0  0  0  0  0  0  0  0  0  0  0  0
   21.8734  -18.9731  -14.3059 C   0  0  0  0  0  0  0  0  0  0  0  0
   21.9929  -18.4057  -15.4111 O   0  0  0  0  0  0  0  0  0  0  0  0
   21.9274  -20.4369  -14.2275 C   0  0  0  0  0  0  0  0  0  0  0  0
   21.8335  -21.0132  -12.8614 C   0  0  2  0  0  0  0  0  0  0  0  0
   23.1621  -21.2857  -12.3655 N   0  0  0  0  0  0  0  0  0  0  0  0
   21.0759  -22.2844  -12.8053 C   0  0  0  0  0  0  0  0  0  0  0  0
   21.4528  -23.2712  -13.4827 O   0  0  0  0  0  0  0  0  0  0  0  0
   19.9168  -22.4690  -12.0139 N   0  0  0  0  0  0  0  0  0  0  0  0
   19.0985  -23.7017  -12.0996 C   0  0  1  0  0  0  0  0  0  0  0  0
   18.7061  -24.1527  -10.7388 C   0  0  0  0  0  0  0  0  0  0  0  0
   19.9044  -24.2562   -9.8411 C   0  0  0  0  0  0  0  0  0  0  0  0
   19.4883  -24.8019   -8.4763 C   0  0  0  0  0  0  0  0  0  0  0  0
   18.8915  -23.7306   -7.6136 C   0  0  0  0  0  0  0  0  0  0  0  0
   18.5205  -24.2885   -6.3396 N   0  0  0  0  0  0  0  0  0  0  0  0
   17.9123  -23.3534  -12.8995 C   0  0  0  0  0  0  0  0  0  0  0  0
   17.3506  -22.2253  -12.9167 O   0  0  0  0  0  0  0  0  0  0  0  0
   17.3406  -24.3442  -13.7203 O   0  0  0  0  0  0  0  0  0  0  0  0
  2  1  1  1
  2  3  1  0
  3  4  1  0
  4  5  2  0
  5  6  1  0
  7  8  2  0
  7  6  1  0
  9  8  1  0
 10  9  2  0
 11 10  1  0
 11 12  2  0
 12  4  1  0
 12  7  1  0
 13  2  1  0
 13 20  1  0
 14 13  2  0
 15 16  1  0
 16 18  1  0
 16 17  2  0
 19 20  1  0
 19 18  1  6
 21 19  1  0
 22 21  2  0
 23 21  1  0
 24 23  1  0
 24 25  1  1
 25 26  1  0
 27 26  1  0
 27 28  1  0
 28 29  1  0
 30 24  1  0
 30 32  1  0
 31 30  2  0
M  END
$$$$
