WNK.pdb
     RDKit          3D

 32 33  0  0  1  0  0  0  0  0999 V2000
   29.0304  -21.1702  -10.7687 N   0  0  0  0  0  0  0  0  0  0  0  0
   27.6888  -21.2127  -10.1833 C   0  0  1  0  0  0  0  0  0  0  0  0
   27.5819  -20.2154   -9.0510 C   0  0  0  0  0  0  0  0  0  0  0  0
   28.5313  -20.5833   -7.9766 C   0  0  0  0  0  0  0  0  0  0  0  0
   29.6351  -21.4024   -8.0604 C   0  0  0  0  0  0  0  0  0  0  0  0
   30.2328  -21.4851   -6.8454 N   0  0  0  0  0  0  0  0  0  0  0  0
   29.5610  -20.7480   -5.9607 C   0  0  0  0  0  0  0  0  0  0  0  0
   29.7624  -20.5091   -4.6182 C   0  0  0  0  0  0  0  0  0  0  0  0
   28.8687  -19.6816   -3.9748 C   0  0  0  0  0  0  0  0  0  0  0  0
   27.8071  -19.1082   -4.6436 C   0  0  0  0  0  0  0  0  0  0  0  0
   27.6246  -19.3620   -5.9908 C   0  0  0  0  0  0  0  0  0  0  0  0
   28.4979  -20.1779   -6.6444 C   0  0  0  0  0  0  0  0  0  0  0  0
   26.6673  -20.8707  -11.1989 C   0  0  0  0  0  0  0  0  0  0  0  0
   26.8151  -19.8859  -11.9295 O   0  0  0  0  0  0  0  0  0  0  0  0
   23.3277  -24.6867  -14.4720 N   0  0  0  0  0  0  0  0  0  0  0  0
   23.7773  -23.3957  -14.1449 C   0  0  0  0  0  0  0  0  0  0  0  0
   23.4749  -22.4351  -14.8821 O   0  0  0  0  0  0  0  0  0  0  0  0
   24.5959  -23.1684  -12.9491 C   0  0  0  0  0  0  0  0  0  0  0  0
   24.6853  -21.7592  -12.4874 C   0  0  2  0  0  0  0  0  0  0  0  0
   25.5223  -21.6937  -11.3125 N   0  0  0  0  0  0  0  0  0  0  0  0
   23.3757  -21.1700  -12.1255 C   0  0  0  0  0  0  0  0  0  0  0  0
   22.7368  -21.6147  -11.1413 O   0  0  0  0  0  0  0  0  0  0  0  0
   22.7749  -20.1043  -12.8375 N   0  0  0  0  0  0  0  0  0  0  0  0
   21.3863  -19.6643  -12.5637 C   0  0  1  0  0  0  0  0  0  0  0  0
   20.9925  -18.5890  -13.5111 C   0  0  0  0  0  0  0  0  0  0  0  0
   19.6235  -18.0648  -13.1895 C   0  0  0  0  0  0  0  0  0  0  0  0
   19.2050  -17.0262  -14.2288 C   0  0  0  0  0  0  0  0  0  0  0  0
   17.8567  -16.4488  -13.9182 C   0  0  0  0  0  0  0  0  0  0  0  0
   16.8581  -17.0908  -14.7322 N   0  0  0  0  0  0  0  0  0  0  0  0
   20.5361  -20.8539  -12.7371 C   0  0  0  0  0  0  0  0  0  0  0  0
   20.6782  -21.7265  -13.6355 O   0  0  0  0  0  0  0  0  0  0  0  0
   19.4710  -21.0556  -11.8387 O   0  0  0  0  0  0  0  0  0  0  0  0
  2  1  1  6
  2  3  1  0
  3  4  1  0
  4  5  2  0
  5  6  1  0
  7  8  2  0
  7  6  1  0
  9  8  1  0
 10  9  2  0
 11 10  1  0
 11 12  2  0
 12  4  1  0
 12  7  1  0
 13  2  1  0
 13 20  1  0
 14 13  2  0
 15 16  1  0
 16 18  1  0
 16 17  2  0
 19 20  1  0
 19 18  1  1
 21 19  1  0
 22 21  2  0
 23 21  1  0
 24 23  1  0
 24 25  1  6
 25 26  1  0
 27 26  1  0
 27 28  1  0
 28 29  1  0
 30 24  1  0
 30 32  1  0
 31 30  2  0
M  END
$$$$
