WNK.pdb
     RDKit          3D

 32 33  0  0  1  0  0  0  0  0999 V2000
   22.8862  -19.4818  -13.2589 N   0  0  0  0  0  0  0  0  0  0  0  0
   22.8999  -20.8707  -13.7230 C   0  0  1  0  0  0  0  0  0  0  0  0
   24.0458  -21.6231  -13.0834 C   0  0  0  0  0  0  0  0  0  0  0  0
   25.1186  -21.8322  -14.0817 C   0  0  0  0  0  0  0  0  0  0  0  0
   25.9786  -20.8980  -14.6145 C   0  0  0  0  0  0  0  0  0  0  0  0
   26.8085  -21.4993  -15.5033 N   0  0  0  0  0  0  0  0  0  0  0  0
   26.5260  -22.8002  -15.5761 C   0  0  0  0  0  0  0  0  0  0  0  0
   27.0752  -23.8222  -16.3203 C   0  0  0  0  0  0  0  0  0  0  0  0
   26.5450  -25.0839  -16.1633 C   0  0  0  0  0  0  0  0  0  0  0  0
   25.5014  -25.3241  -15.2938 C   0  0  0  0  0  0  0  0  0  0  0  0
   24.9660  -24.2832  -14.5572 C   0  0  0  0  0  0  0  0  0  0  0  0
   25.4768  -23.0284  -14.6988 C   0  0  0  0  0  0  0  0  0  0  0  0
   21.6378  -21.5532  -13.3585 C   0  0  0  0  0  0  0  0  0  0  0  0
   21.1990  -21.4859  -12.2059 O   0  0  0  0  0  0  0  0  0  0  0  0
   18.5097  -21.2547  -12.2531 N   0  0  0  0  0  0  0  0  0  0  0  0
   17.9893  -21.2845  -13.5585 C   0  0  0  0  0  0  0  0  0  0  0  0
   17.0213  -20.5529  -13.8504 O   0  0  0  0  0  0  0  0  0  0  0  0
   18.5719  -22.1649  -14.5770 C   0  0  0  0  0  0  0  0  0  0  0  0
   19.7163  -22.9997  -14.1292 C   0  0  2  0  0  0  0  0  0  0  0  0
   20.9487  -22.2819  -14.3561 N   0  0  0  0  0  0  0  0  0  0  0  0
   19.8236  -24.2914  -14.8455 C   0  0  0  0  0  0  0  0  0  0  0  0
   20.1468  -24.3130  -16.0578 O   0  0  0  0  0  0  0  0  0  0  0  0
   19.5781  -25.5454  -14.2363 N   0  0  0  0  0  0  0  0  0  0  0  0
   19.6594  -26.8147  -14.9972 C   0  0  1  0  0  0  0  0  0  0  0  0
   19.5728  -27.9743  -14.0715 C   0  0  0  0  0  0  0  0  0  0  0  0
   20.6532  -27.9130  -13.0316 C   0  0  0  0  0  0  0  0  0  0  0  0
   20.5546  -29.1234  -12.1048 C   0  0  0  0  0  0  0  0  0  0  0  0
   21.6345  -29.1101  -11.0648 C   0  0  0  0  0  0  0  0  0  0  0  0
   21.5073  -30.2705  -10.2227 N   0  0  0  0  0  0  0  0  0  0  0  0
   18.5242  -26.8057  -15.9349 C   0  0  0  0  0  0  0  0  0  0  0  0
   17.3613  -26.3999  -15.6673 O   0  0  0  0  0  0  0  0  0  0  0  0
   18.7291  -27.2843  -17.2429 O   0  0  0  0  0  0  0  0  0  0  0  0
  2  1  1  1
  2  3  1  0
  3  4  1  0
  4  5  2  0
  5  6  1  0
  7  8  2  0
  7  6  1  0
  9  8  1  0
 10  9  2  0
 11 10  1  0
 11 12  2  0
 12  4  1  0
 12  7  1  0
 13  2  1  0
 13 20  1  0
 14 13  2  0
 15 16  1  0
 16 18  1  0
 16 17  2  0
 19 20  1  0
 19 18  1  6
 21 19  1  0
 22 21  2  0
 23 21  1  0
 24 23  1  0
 24 25  1  1
 25 26  1  0
 27 26  1  0
 27 28  1  0
 28 29  1  0
 30 24  1  0
 30 32  1  0
 31 30  2  0
M  END
$$$$
