WNK.pdb
     RDKit          3D

 32 33  0  0  1  0  0  0  0  0999 V2000
   25.3218  -24.2039  -13.9569 N   0  0  0  0  0  0  0  0  0  0  0  0
   24.4591  -23.3942  -14.8198 C   0  0  1  0  0  0  0  0  0  0  0  0
   24.1365  -24.1486  -16.0906 C   0  0  0  0  0  0  0  0  0  0  0  0
   25.3132  -24.1308  -16.9886 C   0  0  0  0  0  0  0  0  0  0  0  0
   26.2003  -25.1515  -17.2487 C   0  0  0  0  0  0  0  0  0  0  0  0
   27.1424  -24.7222  -18.1253 N   0  0  0  0  0  0  0  0  0  0  0  0
   26.9080  -23.4515  -18.4537 C   0  0  0  0  0  0  0  0  0  0  0  0
   27.5676  -22.5801  -19.2935 C   0  0  0  0  0  0  0  0  0  0  0  0
   27.0605  -21.3054  -19.4186 C   0  0  0  0  0  0  0  0  0  0  0  0
   25.9328  -20.9076  -18.7309 C   0  0  0  0  0  0  0  0  0  0  0  0
   25.2871  -21.7991  -17.8937 C   0  0  0  0  0  0  0  0  0  0  0  0
   25.7735  -23.0641  -17.7569 C   0  0  0  0  0  0  0  0  0  0  0  0
   23.1859  -23.0787  -14.1334 C   0  0  0  0  0  0  0  0  0  0  0  0
   22.7590  -23.8124  -13.2363 O   0  0  0  0  0  0  0  0  0  0  0  0
   19.1438  -20.0610  -12.6136 N   0  0  0  0  0  0  0  0  0  0  0  0
   20.2345  -19.3050  -13.0770 C   0  0  0  0  0  0  0  0  0  0  0  0
   20.2543  -18.0725  -12.8821 O   0  0  0  0  0  0  0  0  0  0  0  0
   21.3455  -19.9498  -13.7852 C   0  0  0  0  0  0  0  0  0  0  0  0
   21.2906  -21.4327  -13.8565 C   0  0  2  0  0  0  0  0  0  0  0  0
   22.4718  -21.9228  -14.5272 N   0  0  0  0  0  0  0  0  0  0  0  0
   20.1187  -21.9471  -14.6016 C   0  0  0  0  0  0  0  0  0  0  0  0
   19.9147  -21.5796  -15.7839 O   0  0  0  0  0  0  0  0  0  0  0  0
   19.1813  -22.8551  -14.0533 N   0  0  0  0  0  0  0  0  0  0  0  0
   18.0447  -23.3808  -14.8460 C   0  0  1  0  0  0  0  0  0  0  0  0
   17.5199  -24.6260  -14.2269 C   0  0  0  0  0  0  0  0  0  0  0  0
   16.3099  -25.1229  -14.9629 C   0  0  0  0  0  0  0  0  0  0  0  0
   15.7054  -26.3172  -14.2268 C   0  0  0  0  0  0  0  0  0  0  0  0
   14.5529  -26.9051  -14.9845 C   0  0  0  0  0  0  0  0  0  0  0  0
   13.8866  -27.8837  -14.1657 N   0  0  0  0  0  0  0  0  0  0  0  0
   17.0201  -22.3233  -14.8476 C   0  0  0  0  0  0  0  0  0  0  0  0
   16.2028  -22.1020  -15.7811 O   0  0  0  0  0  0  0  0  0  0  0  0
   16.9257  -21.4773  -13.7262 O   0  0  0  0  0  0  0  0  0  0  0  0
  2  1  1  1
  2  3  1  0
  3  4  1  0
  4  5  2  0
  5  6  1  0
  7  8  2  0
  7  6  1  0
  9  8  1  0
 10  9  2  0
 11 10  1  0
 11 12  2  0
 12  4  1  0
 12  7  1  0
 13  2  1  0
 13 20  1  0
 14 13  2  0
 15 16  1  0
 16 18  1  0
 16 17  2  0
 19 20  1  0
 19 18  1  6
 21 19  1  0
 22 21  2  0
 23 21  1  0
 24 23  1  0
 24 25  1  1
 25 26  1  0
 27 26  1  0
 27 28  1  0
 28 29  1  0
 30 24  1  0
 30 32  1  0
 31 30  2  0
M  END
$$$$
