WNK.pdb
     RDKit          3D

 32 33  0  0  1  0  0  0  0  0999 V2000
   25.2908  -19.8030   -9.4596 N   0  0  0  0  0  0  0  0  0  0  0  0
   26.5880  -20.2904   -9.9330 C   0  0  1  0  0  0  0  0  0  0  0  0
   27.2965  -21.0440   -8.8293 C   0  0  0  0  0  0  0  0  0  0  0  0
   27.5008  -20.1466   -7.6699 C   0  0  0  0  0  0  0  0  0  0  0  0
   26.9041  -18.9312   -7.4193 C   0  0  0  0  0  0  0  0  0  0  0  0
   27.3721  -18.4277   -6.2498 N   0  0  0  0  0  0  0  0  0  0  0  0
   28.2587  -19.2698   -5.7184 C   0  0  0  0  0  0  0  0  0  0  0  0
   29.0022  -19.2143   -4.5592 C   0  0  0  0  0  0  0  0  0  0  0  0
   29.8468  -20.2688   -4.2901 C   0  0  0  0  0  0  0  0  0  0  0  0
   29.9503  -21.3459   -5.1458 C   0  0  0  0  0  0  0  0  0  0  0  0
   29.1945  -21.3801   -6.3034 C   0  0  0  0  0  0  0  0  0  0  0  0
   28.3535  -20.3466   -6.5868 C   0  0  0  0  0  0  0  0  0  0  0  0
   26.4112  -21.2089  -11.0805 C   0  0  0  0  0  0  0  0  0  0  0  0
   26.7516  -22.3930  -10.9937 O   0  0  0  0  0  0  0  0  0  0  0  0
   23.2852  -23.2464  -13.1000 N   0  0  0  0  0  0  0  0  0  0  0  0
   23.0686  -21.9893  -13.6903 C   0  0  0  0  0  0  0  0  0  0  0  0
   21.9075  -21.6440  -13.9909 O   0  0  0  0  0  0  0  0  0  0  0  0
   24.1912  -21.0831  -13.9554 C   0  0  0  0  0  0  0  0  0  0  0  0
   25.5079  -21.5139  -13.4191 C   0  0  2  0  0  0  0  0  0  0  0  0
   25.8462  -20.7016  -12.2741 N   0  0  0  0  0  0  0  0  0  0  0  0
   26.6161  -21.3817  -14.3926 C   0  0  0  0  0  0  0  0  0  0  0  0
   26.9749  -20.2455  -14.7863 O   0  0  0  0  0  0  0  0  0  0  0  0
   27.3220  -22.4859  -14.9275 N   0  0  0  0  0  0  0  0  0  0  0  0
   28.4325  -22.3117  -15.8935 C   0  0  1  0  0  0  0  0  0  0  0  0
   28.9938  -23.6342  -16.2740 C   0  0  0  0  0  0  0  0  0  0  0  0
   30.0939  -23.4804  -17.2832 C   0  0  0  0  0  0  0  0  0  0  0  0
   31.3826  -24.1034  -16.7494 C   0  0  0  0  0  0  0  0  0  0  0  0
   32.4981  -24.0000  -17.7459 C   0  0  0  0  0  0  0  0  0  0  0  0
   33.6762  -24.6372  -17.2186 N   0  0  0  0  0  0  0  0  0  0  0  0
   27.8561  -21.6296  -17.0643 C   0  0  0  0  0  0  0  0  0  0  0  0
   26.7243  -21.8707  -17.5640 O   0  0  0  0  0  0  0  0  0  0  0  0
   28.6111  -20.6222  -17.6945 O   0  0  0  0  0  0  0  0  0  0  0  0
  2  1  1  1
  2  3  1  0
  3  4  1  0
  4  5  2  0
  5  6  1  0
  7  8  2  0
  7  6  1  0
  9  8  1  0
 10  9  2  0
 11 10  1  0
 11 12  2  0
 12  4  1  0
 12  7  1  0
 13  2  1  0
 13 20  1  0
 14 13  2  0
 15 16  1  0
 16 18  1  0
 16 17  2  0
 19 20  1  0
 19 18  1  6
 21 19  1  0
 22 21  2  0
 23 21  1  0
 24 23  1  0
 24 25  1  6
 25 26  1  0
 27 26  1  0
 27 28  1  0
 28 29  1  0
 30 24  1  0
 30 32  1  0
 31 30  2  0
M  END
$$$$
