WNK.pdb
     RDKit          3D

 32 33  0  0  1  0  0  0  0  0999 V2000
   26.6328  -22.3945  -13.4097 N   0  0  0  0  0  0  0  0  0  0  0  0
   25.8128  -21.5210  -12.5677 C   0  0  1  0  0  0  0  0  0  0  0  0
   26.5071  -20.1928  -12.3623 C   0  0  0  0  0  0  0  0  0  0  0  0
   27.5690  -20.3424  -11.3419 C   0  0  0  0  0  0  0  0  0  0  0  0
   28.9134  -20.5652  -11.5396 C   0  0  0  0  0  0  0  0  0  0  0  0
   29.5415  -20.6476  -10.3400 N   0  0  0  0  0  0  0  0  0  0  0  0
   28.6571  -20.4868   -9.3554 C   0  0  0  0  0  0  0  0  0  0  0  0
   28.7949  -20.4867   -7.9840 C   0  0  0  0  0  0  0  0  0  0  0  0
   27.6609  -20.2892   -7.2273 C   0  0  0  0  0  0  0  0  0  0  0  0
   26.4272  -20.0976   -7.8141 C   0  0  0  0  0  0  0  0  0  0  0  0
   26.3127  -20.1016   -9.1923 C   0  0  0  0  0  0  0  0  0  0  0  0
   27.4229  -20.2954   -9.9575 C   0  0  0  0  0  0  0  0  0  0  0  0
   24.5022  -21.2638  -13.2064 C   0  0  0  0  0  0  0  0  0  0  0  0
   24.4209  -21.1053  -14.4286 O   0  0  0  0  0  0  0  0  0  0  0  0
   19.2310  -21.0572  -13.5101 N   0  0  0  0  0  0  0  0  0  0  0  0
   19.6365  -21.5708  -12.2661 C   0  0  0  0  0  0  0  0  0  0  0  0
   18.7903  -22.0938  -11.5124 O   0  0  0  0  0  0  0  0  0  0  0  0
   21.0405  -21.4975  -11.8473 C   0  0  0  0  0  0  0  0  0  0  0  0
   22.0038  -21.0686  -12.8939 C   0  0  2  0  0  0  0  0  0  0  0  0
   23.3497  -21.2033  -12.3883 N   0  0  0  0  0  0  0  0  0  0  0  0
   21.8330  -19.6589  -13.3144 C   0  0  0  0  0  0  0  0  0  0  0  0
   22.0865  -18.7283  -12.5117 O   0  0  0  0  0  0  0  0  0  0  0  0
   21.3883  -19.2763  -14.6027 N   0  0  0  0  0  0  0  0  0  0  0  0
   21.2753  -17.8532  -15.0012 C   0  0  1  0  0  0  0  0  0  0  0  0
   22.4010  -17.4804  -15.8973 C   0  0  0  0  0  0  0  0  0  0  0  0
   21.8948  -16.8479  -17.1606 C   0  0  0  0  0  0  0  0  0  0  0  0
   22.5993  -17.4608  -18.3697 C   0  0  0  0  0  0  0  0  0  0  0  0
   22.1268  -16.8456  -19.6527 C   0  0  0  0  0  0  0  0  0  0  0  0
   22.8975  -17.3679  -20.7504 N   0  0  0  0  0  0  0  0  0  0  0  0
   19.9845  -17.7222  -15.6975 C   0  0  0  0  0  0  0  0  0  0  0  0
   19.2578  -16.6924  -15.6975 O   0  0  0  0  0  0  0  0  0  0  0  0
   19.5012  -18.8231  -16.4300 O   0  0  0  0  0  0  0  0  0  0  0  0
  2  1  1  6
  2  3  1  0
  3  4  1  0
  4  5  2  0
  5  6  1  0
  7  8  2  0
  7  6  1  0
  9  8  1  0
 10  9  2  0
 11 10  1  0
 11 12  2  0
 12  4  1  0
 12  7  1  0
 13  2  1  0
 13 20  1  0
 14 13  2  0
 15 16  1  0
 16 18  1  0
 16 17  2  0
 19 20  1  0
 19 18  1  1
 21 19  1  0
 22 21  2  0
 23 21  1  0
 24 23  1  0
 24 25  1  6
 25 26  1  0
 27 26  1  0
 27 28  1  0
 28 29  1  0
 30 24  1  0
 30 32  1  0
 31 30  2  0
M  END
$$$$
