WNK.pdb
     RDKit          3D

 32 33  0  0  1  0  0  0  0  0999 V2000
   26.1604  -22.4912  -11.1842 N   0  0  0  0  0  0  0  0  0  0  0  0
   25.9106  -21.0491  -11.1393 C   0  0  1  0  0  0  0  0  0  0  0  0
   27.1987  -20.2892  -11.3666 C   0  0  0  0  0  0  0  0  0  0  0  0
   28.1564  -20.6037  -10.2826 C   0  0  0  0  0  0  0  0  0  0  0  0
   29.3438  -21.2955  -10.3707 C   0  0  0  0  0  0  0  0  0  0  0  0
   29.9178  -21.3708   -9.1439 N   0  0  0  0  0  0  0  0  0  0  0  0
   29.1495  -20.7518   -8.2471 C   0  0  0  0  0  0  0  0  0  0  0  0
   29.2920  -20.5561   -6.8902 C   0  0  0  0  0  0  0  0  0  0  0  0
   28.2991  -19.8597   -6.2369 C   0  0  0  0  0  0  0  0  0  0  0  0
   27.1981  -19.3722   -6.9100 C   0  0  0  0  0  0  0  0  0  0  0  0
   27.0762  -19.5806   -8.2717 C   0  0  0  0  0  0  0  0  0  0  0  0
   28.0478  -20.2670   -8.9354 C   0  0  0  0  0  0  0  0  0  0  0  0
   24.9489  -20.6548  -12.1935 C   0  0  0  0  0  0  0  0  0  0  0  0
   25.0703  -19.5749  -12.7805 O   0  0  0  0  0  0  0  0  0  0  0  0
   24.7437  -23.3449  -13.4033 N   0  0  0  0  0  0  0  0  0  0  0  0
   23.9948  -23.1561  -14.5777 C   0  0  0  0  0  0  0  0  0  0  0  0
   24.1320  -23.9532  -15.5282 O   0  0  0  0  0  0  0  0  0  0  0  0
   23.0570  -22.0343  -14.6956 C   0  0  0  0  0  0  0  0  0  0  0  0
   22.8428  -21.2404  -13.4583 C   0  0  2  0  0  0  0  0  0  0  0  0
   23.8915  -21.5391  -12.5116 N   0  0  0  0  0  0  0  0  0  0  0  0
   21.5534  -21.5247  -12.7876 C   0  0  0  0  0  0  0  0  0  0  0  0
   21.4009  -22.5916  -12.1450 O   0  0  0  0  0  0  0  0  0  0  0  0
   20.4440  -20.6463  -12.8230 N   0  0  0  0  0  0  0  0  0  0  0  0
   19.0973  -21.1025  -13.2413 C   0  0  1  0  0  0  0  0  0  0  0  0
   18.9684  -21.0327  -14.7204 C   0  0  0  0  0  0  0  0  0  0  0  0
   19.6285  -22.2119  -15.3731 C   0  0  0  0  0  0  0  0  0  0  0  0
   20.3987  -21.7590  -16.6122 C   0  0  0  0  0  0  0  0  0  0  0  0
   21.0648  -22.9134  -17.2990 C   0  0  0  0  0  0  0  0  0  0  0  0
   21.8052  -22.4352  -18.4370 N   0  0  0  0  0  0  0  0  0  0  0  0
   18.9677  -22.4908  -12.7680 C   0  0  0  0  0  0  0  0  0  0  0  0
   18.9332  -23.5120  -13.5060 O   0  0  0  0  0  0  0  0  0  0  0  0
   18.8732  -22.7225  -11.3826 O   0  0  0  0  0  0  0  0  0  0  0  0
  2  1  1  6
  2  3  1  0
  3  4  1  0
  4  5  2  0
  5  6  1  0
  7  8  2  0
  7  6  1  0
  9  8  1  0
 10  9  2  0
 11 10  1  0
 11 12  2  0
 12  4  1  0
 12  7  1  0
 13  2  1  0
 13 20  1  0
 14 13  2  0
 15 16  1  0
 16 18  1  0
 16 17  2  0
 19 20  1  0
 19 18  1  6
 21 19  1  0
 22 21  2  0
 23 21  1  0
 24 23  1  0
 24 25  1  6
 25 26  1  0
 27 26  1  0
 27 28  1  0
 28 29  1  0
 30 24  1  0
 30 32  1  0
 31 30  2  0
M  END
$$$$
