WNK.pdb
     RDKit          3D

 32 33  0  0  1  0  0  0  0  0999 V2000
   22.7720  -16.9640  -18.5248 N   0  0  0  0  0  0  0  0  0  0  0  0
   21.7718  -17.0356  -17.4577 C   0  0  1  0  0  0  0  0  0  0  0  0
   20.3999  -16.7109  -18.0061 C   0  0  0  0  0  0  0  0  0  0  0  0
   20.2937  -15.2534  -18.2419 C   0  0  0  0  0  0  0  0  0  0  0  0
   20.5498  -14.5586  -19.4029 C   0  0  0  0  0  0  0  0  0  0  0  0
   20.3380  -13.2347  -19.1963 N   0  0  0  0  0  0  0  0  0  0  0  0
   19.9502  -13.0307  -17.9371 C   0  0  0  0  0  0  0  0  0  0  0  0
   19.6198  -11.8829  -17.2493 C   0  0  0  0  0  0  0  0  0  0  0  0
   19.2527  -12.0126  -15.9279 C   0  0  0  0  0  0  0  0  0  0  0  0
   19.2147  -13.2443  -15.3079 C   0  0  0  0  0  0  0  0  0  0  0  0
   19.5505  -14.3826  -16.0179 C   0  0  0  0  0  0  0  0  0  0  0  0
   19.9162  -14.2746  -17.3256 C   0  0  0  0  0  0  0  0  0  0  0  0
   21.7274  -18.3967  -16.8770 C   0  0  0  0  0  0  0  0  0  0  0  0
   22.0739  -19.3752  -17.5462 O   0  0  0  0  0  0  0  0  0  0  0  0
   21.4541  -22.1032  -13.1839 N   0  0  0  0  0  0  0  0  0  0  0  0
   22.2226  -20.9719  -12.8596 C   0  0  0  0  0  0  0  0  0  0  0  0
   23.0258  -21.0281  -11.9059 O   0  0  0  0  0  0  0  0  0  0  0  0
   22.0892  -19.7302  -13.6291 C   0  0  0  0  0  0  0  0  0  0  0  0
   21.2384  -19.8131  -14.8441 C   0  0  2  0  0  0  0  0  0  0  0  0
   21.2804  -18.5505  -15.5437 N   0  0  0  0  0  0  0  0  0  0  0  0
   19.8161  -20.1052  -14.5527 C   0  0  0  0  0  0  0  0  0  0  0  0
   19.1477  -19.3221  -13.8354 O   0  0  0  0  0  0  0  0  0  0  0  0
   19.1361  -21.2454  -15.0439 N   0  0  0  0  0  0  0  0  0  0  0  0
   17.6940  -21.4690  -14.7846 C   0  0  1  0  0  0  0  0  0  0  0  0
   17.1534  -22.4800  -15.7304 C   0  0  0  0  0  0  0  0  0  0  0  0
   16.2489  -21.8392  -16.7422 C   0  0  0  0  0  0  0  0  0  0  0  0
   15.8225  -22.8688  -17.7871 C   0  0  0  0  0  0  0  0  0  0  0  0
   14.9056  -22.2680  -18.8100 C   0  0  0  0  0  0  0  0  0  0  0  0
   14.6899  -23.2101  -19.8766 N   0  0  0  0  0  0  0  0  0  0  0  0
   17.5948  -21.9446  -13.3946 C   0  0  0  0  0  0  0  0  0  0  0  0
   18.4628  -22.6366  -12.7975 O   0  0  0  0  0  0  0  0  0  0  0  0
   16.4465  -21.6124  -12.6509 O   0  0  0  0  0  0  0  0  0  0  0  0
  2  1  1  6
  2  3  1  0
  3  4  1  0
  4  5  2  0
  5  6  1  0
  7  8  2  0
  7  6  1  0
  9  8  1  0
 10  9  2  0
 11 10  1  0
 11 12  2  0
 12  4  1  0
 12  7  1  0
 13  2  1  0
 13 20  1  0
 14 13  2  0
 15 16  1  0
 16 18  1  0
 16 17  2  0
 19 20  1  0
 19 18  1  1
 21 19  1  0
 22 21  2  0
 23 21  1  0
 24 23  1  0
 24 25  1  6
 25 26  1  0
 27 26  1  0
 27 28  1  0
 28 29  1  0
 30 24  1  0
 30 32  1  0
 31 30  2  0
M  END
$$$$
