WNK.pdb
     RDKit          3D

 32 33  0  0  1  0  0  0  0  0999 V2000
   27.8537  -22.3882  -13.6729 N   0  0  0  0  0  0  0  0  0  0  0  0
   26.7632  -21.6795  -12.9998 C   0  0  1  0  0  0  0  0  0  0  0  0
   27.2373  -20.3242  -12.5238 C   0  0  0  0  0  0  0  0  0  0  0  0
   28.1064  -20.4929  -11.3374 C   0  0  0  0  0  0  0  0  0  0  0  0
   29.4821  -20.5335  -11.2895 C   0  0  0  0  0  0  0  0  0  0  0  0
   29.8870  -20.7097  -10.0069 N   0  0  0  0  0  0  0  0  0  0  0  0
   28.8249  -20.7872   -9.2047 C   0  0  0  0  0  0  0  0  0  0  0  0
   28.7100  -20.9612   -7.8423 C   0  0  0  0  0  0  0  0  0  0  0  0
   27.4411  -20.9992   -7.3073 C   0  0  0  0  0  0  0  0  0  0  0  0
   26.3202  -20.8683   -8.1006 C   0  0  0  0  0  0  0  0  0  0  0  0
   26.4596  -20.6946   -9.4655 C   0  0  0  0  0  0  0  0  0  0  0  0
   27.7063  -20.6545  -10.0131 C   0  0  0  0  0  0  0  0  0  0  0  0
   25.6273  -21.4727  -13.9265 C   0  0  0  0  0  0  0  0  0  0  0  0
   25.8244  -21.0897  -15.0840 O   0  0  0  0  0  0  0  0  0  0  0  0
   24.0586  -23.8943  -15.9764 N   0  0  0  0  0  0  0  0  0  0  0  0
   23.0827  -24.1871  -15.0081 C   0  0  0  0  0  0  0  0  0  0  0  0
   22.6961  -25.3648  -14.8626 O   0  0  0  0  0  0  0  0  0  0  0  0
   22.5165  -23.1244  -14.1703 C   0  0  0  0  0  0  0  0  0  0  0  0
   23.1508  -21.7880  -14.3082 C   0  0  2  0  0  0  0  0  0  0  0  0
   24.3161  -21.7224  -13.4578 N   0  0  0  0  0  0  0  0  0  0  0  0
   22.2627  -20.6679  -13.9212 C   0  0  0  0  0  0  0  0  0  0  0  0
   21.6645  -20.6920  -12.8184 O   0  0  0  0  0  0  0  0  0  0  0  0
   22.0344  -19.5340  -14.7373 N   0  0  0  0  0  0  0  0  0  0  0  0
   20.8706  -18.6405  -14.5281 C   0  0  1  0  0  0  0  0  0  0  0  0
   20.5795  -17.8777  -15.7702 C   0  0  0  0  0  0  0  0  0  0  0  0
   19.3654  -17.0127  -15.5970 C   0  0  0  0  0  0  0  0  0  0  0  0
   19.0903  -16.2360  -16.8834 C   0  0  0  0  0  0  0  0  0  0  0  0
   17.9794  -15.2456  -16.7018 C   0  0  0  0  0  0  0  0  0  0  0  0
   17.8571  -14.4359  -17.8856 N   0  0  0  0  0  0  0  0  0  0  0  0
   19.7400  -19.5139  -14.1715 C   0  0  0  0  0  0  0  0  0  0  0  0
   18.9716  -19.3456  -13.1868 O   0  0  0  0  0  0  0  0  0  0  0  0
   19.4753  -20.6349  -14.9811 O   0  0  0  0  0  0  0  0  0  0  0  0
  2  1  1  6
  2  3  1  0
  3  4  1  0
  4  5  2  0
  5  6  1  0
  7  8  2  0
  7  6  1  0
  9  8  1  0
 10  9  2  0
 11 10  1  0
 11 12  2  0
 12  4  1  0
 12  7  1  0
 13  2  1  0
 13 20  1  0
 14 13  2  0
 15 16  1  0
 16 18  1  0
 16 17  2  0
 19 20  1  0
 19 18  1  1
 21 19  1  0
 22 21  2  0
 23 21  1  0
 24 23  1  0
 24 25  1  6
 25 26  1  0
 27 26  1  0
 27 28  1  0
 28 29  1  0
 30 24  1  0
 30 32  1  0
 31 30  2  0
M  END
$$$$
