ENT.pdb
     RDKit          3D

 25 24  0  0  1  0  0  0  0  0999 V2000
   10.3801  -17.9930   18.1723 N   0  0  0  0  0  0  0  0  0  0  0  0
   11.2011  -16.8820   17.8408 C   0  0  1  0  0  0  0  0  0  0  0  0
   11.2544  -16.4565   16.4204 C   0  0  0  0  0  0  0  0  0  0  0  0
   10.2238  -16.9628   15.4967 C   0  0  0  0  0  0  0  0  0  0  0  0
    9.7975  -15.9668   14.5029 C   0  0  0  0  0  0  0  0  0  0  0  0
   10.1938  -14.7864   14.3975 O   0  0  0  0  0  0  0  0  0  0  0  0
   10.7468  -15.7281   18.6900 C   0  0  0  0  0  0  0  0  0  0  0  0
   11.3589  -14.6514   18.6944 O   0  0  0  0  0  0  0  0  0  0  0  0
    8.8311  -16.3307   13.5314 O   0  0  0  0  0  0  0  0  0  0  0  0
    7.5370  -12.6472   18.2659 N   0  0  0  0  0  0  0  0  0  0  0  0
    7.5943  -14.0019   18.7117 C   0  0  0  0  0  0  0  0  0  0  0  0
    7.4501  -14.8685   17.8129 O   0  0  0  0  0  0  0  0  0  0  0  0
    7.8092  -14.3553   20.1362 C   0  0  0  0  0  0  0  0  0  0  0  0
    9.1819  -14.7978   20.4451 C   0  0  2  0  0  0  0  0  0  0  0  0
    9.5964  -15.8254   19.5222 N   0  0  0  0  0  0  0  0  0  0  0  0
    9.4433  -15.1398   21.8499 C   0  0  0  0  0  0  0  0  0  0  0  0
    9.0016  -14.3579   22.7322 O   0  0  0  0  0  0  0  0  0  0  0  0
    8.5043  -17.8720   24.1517 C   0  0  0  0  0  0  0  0  0  0  0  0
   10.0375  -17.9192   24.0975 C   0  0  1  0  0  0  0  0  0  0  0  0
   10.3367  -18.9097   23.1456 O   0  0  0  0  0  0  0  0  0  0  0  0
   10.5004  -16.5964   23.6198 C   0  0  2  0  0  0  0  0  0  0  0  0
   10.1473  -16.2715   22.2695 N   0  0  0  0  0  0  0  0  0  0  0  0
   11.9741  -16.4626   23.8057 C   0  0  0  0  0  0  0  0  0  0  0  0
   12.5817  -16.6216   25.0415 O   0  0  0  0  0  0  0  0  0  0  0  0
   12.7285  -16.1962   22.8289 O   0  0  0  0  0  0  0  0  0  0  0  0
  2  7  1  0
  2  1  1  6
  3  2  1  0
  4  3  1  0
  5  6  2  0
  5  4  1  0
  7  8  2  0
  9  5  1  0
 10 11  1  0
 11 12  2  0
 14 13  1  1
 13 11  1  0
 15 14  1  0
 15  7  1  0
 16 17  2  0
 16 14  1  0
 19 18  1  6
 19 21  1  0
 20 19  1  0
 21 23  1  0
 21 22  1  6
 22 16  1  0
 23 24  1  0
 25 23  2  0
M  END
$$$$
