ENT.pdb
     RDKit          3D

 25 24  0  0  1  0  0  0  0  0999 V2000
    8.6428  -13.9340   18.7150 N   0  0  0  0  0  0  0  0  0  0  0  0
    9.1109  -15.0206   19.5014 C   0  0  1  0  0  0  0  0  0  0  0  0
   10.5724  -15.1339   19.7305 C   0  0  0  0  0  0  0  0  0  0  0  0
   11.3675  -13.8961   19.8173 C   0  0  0  0  0  0  0  0  0  0  0  0
   12.7975  -14.1422   20.0542 C   0  0  0  0  0  0  0  0  0  0  0  0
   13.7095  -14.1816   19.2009 O   0  0  0  0  0  0  0  0  0  0  0  0
    8.4035  -14.9446   20.8254 C   0  0  0  0  0  0  0  0  0  0  0  0
    7.8668  -13.8967   21.2096 O   0  0  0  0  0  0  0  0  0  0  0  0
   13.2492  -14.3662   21.3794 O   0  0  0  0  0  0  0  0  0  0  0  0
    6.9084  -17.5407   25.6788 N   0  0  0  0  0  0  0  0  0  0  0  0
    6.2539  -17.5876   24.4113 C   0  0  0  0  0  0  0  0  0  0  0  0
    5.0094  -17.7568   24.4566 O   0  0  0  0  0  0  0  0  0  0  0  0
    6.9958  -17.4460   23.1346 C   0  0  0  0  0  0  0  0  0  0  0  0
    7.5489  -16.0977   22.9074 C   0  0  2  0  0  0  0  0  0  0  0  0
    8.3216  -16.0720   21.6901 N   0  0  0  0  0  0  0  0  0  0  0  0
    8.2456  -15.4910   24.0499 C   0  0  0  0  0  0  0  0  0  0  0  0
    9.4676  -15.7560   24.1953 O   0  0  0  0  0  0  0  0  0  0  0  0
    7.1624  -11.9001   25.8964 C   0  0  0  0  0  0  0  0  0  0  0  0
    7.4623  -13.0572   26.8593 C   0  0  1  0  0  0  0  0  0  0  0  0
    6.2056  -13.6056   27.1700 O   0  0  0  0  0  0  0  0  0  0  0  0
    8.2802  -14.0439   26.1179 C   0  0  2  0  0  0  0  0  0  0  0  0
    7.6431  -14.6424   24.9823 N   0  0  0  0  0  0  0  0  0  0  0  0
    8.7767  -15.1058   27.0400 C   0  0  0  0  0  0  0  0  0  0  0  0
    9.4322  -14.8098   28.2250 O   0  0  0  0  0  0  0  0  0  0  0  0
    8.6140  -16.3279   26.7676 O   0  0  0  0  0  0  0  0  0  0  0  0
  2  7  1  0
  2  1  1  6
  3  2  1  0
  4  3  1  0
  5  6  2  0
  5  4  1  0
  7  8  2  0
  9  5  1  0
 10 11  1  0
 11 12  2  0
 14 13  1  1
 13 11  1  0
 15 14  1  0
 15  7  1  0
 16 17  2  0
 16 14  1  0
 19 18  1  6
 19 21  1  0
 20 19  1  0
 21 23  1  0
 21 22  1  6
 22 16  1  0
 23 24  1  0
 25 23  2  0
M  END
$$$$
