ENT.pdb
     RDKit          3D

 25 24  0  0  1  0  0  0  0  0999 V2000
   -2.0234  -26.9740   28.0428 N   0  0  0  0  0  0  0  0  0  0  0  0
   -2.1575  -26.6092   29.4093 C   0  0  1  0  0  0  0  0  0  0  0  0
   -0.9190  -26.4418   30.2088 C   0  0  0  0  0  0  0  0  0  0  0  0
    0.1674  -27.4222   30.0340 C   0  0  0  0  0  0  0  0  0  0  0  0
    1.3270  -27.1615   30.8993 C   0  0  0  0  0  0  0  0  0  0  0  0
    2.4839  -26.8539   30.5408 O   0  0  0  0  0  0  0  0  0  0  0  0
   -2.9530  -25.3345   29.4500 C   0  0  0  0  0  0  0  0  0  0  0  0
   -3.2495  -24.7944   30.5244 O   0  0  0  0  0  0  0  0  0  0  0  0
    1.1738  -27.2551   32.3057 O   0  0  0  0  0  0  0  0  0  0  0  0
   -5.3694  -20.9112   27.8478 N   0  0  0  0  0  0  0  0  0  0  0  0
   -4.2691  -21.2793   27.0165 C   0  0  0  0  0  0  0  0  0  0  0  0
   -3.8800  -20.3906   26.2175 O   0  0  0  0  0  0  0  0  0  0  0  0
   -3.6341  -22.6176   27.0950 C   0  0  0  0  0  0  0  0  0  0  0  0
   -4.0960  -23.4362   28.2318 C   0  0  2  0  0  0  0  0  0  0  0  0
   -3.3971  -24.6972   28.2575 N   0  0  0  0  0  0  0  0  0  0  0  0
   -5.5521  -23.5768   28.3691 C   0  0  0  0  0  0  0  0  0  0  0  0
   -6.2019  -23.9341   27.3519 O   0  0  0  0  0  0  0  0  0  0  0  0
   -7.5825  -25.8769   30.0570 C   0  0  0  0  0  0  0  0  0  0  0  0
   -8.1031  -24.5572   30.6429 C   0  0  1  0  0  0  0  0  0  0  0  0
   -7.4532  -24.4293   31.8831 O   0  0  0  0  0  0  0  0  0  0  0  0
   -7.6761  -23.4731   29.7292 C   0  0  2  0  0  0  0  0  0  0  0  0
   -6.2604  -23.3408   29.5503 N   0  0  0  0  0  0  0  0  0  0  0  0
   -8.2574  -22.1694   30.1613 C   0  0  0  0  0  0  0  0  0  0  0  0
   -9.6231  -21.9317   30.1611 O   0  0  0  0  0  0  0  0  0  0  0  0
   -7.5138  -21.2249   30.5474 O   0  0  0  0  0  0  0  0  0  0  0  0
  2  7  1  0
  2  1  1  6
  3  2  1  0
  4  3  1  0
  5  6  2  0
  5  4  1  0
  7  8  2  0
  9  5  1  0
 10 11  1  0
 11 12  2  0
 14 13  1  6
 13 11  1  0
 15 14  1  0
 15  7  1  0
 16 17  2  0
 16 14  1  0
 19 18  1  6
 19 21  1  0
 20 19  1  0
 21 23  1  0
 21 22  1  1
 22 16  1  0
 23 24  1  0
 25 23  2  0
M  END
$$$$
