ENT.pdb
     RDKit          3D

 25 24  0  0  1  0  0  0  0  0999 V2000
    7.8192  -13.3347   18.5668 N   0  0  0  0  0  0  0  0  0  0  0  0
    8.7237  -14.1146   19.3361 C   0  0  1  0  0  0  0  0  0  0  0  0
   10.1121  -13.6158   19.4930 C   0  0  0  0  0  0  0  0  0  0  0  0
   11.0532  -14.4033   20.3091 C   0  0  0  0  0  0  0  0  0  0  0  0
   12.3774  -13.7768   20.4319 C   0  0  0  0  0  0  0  0  0  0  0  0
   12.7451  -12.9482   21.2920 O   0  0  0  0  0  0  0  0  0  0  0  0
    8.1042  -14.2990   20.6932 C   0  0  0  0  0  0  0  0  0  0  0  0
    7.5199  -13.3694   21.2661 O   0  0  0  0  0  0  0  0  0  0  0  0
   13.3895  -14.1129   19.4975 O   0  0  0  0  0  0  0  0  0  0  0  0
    5.0057  -17.8866   24.0531 N   0  0  0  0  0  0  0  0  0  0  0  0
    6.4001  -17.5980   23.9555 C   0  0  0  0  0  0  0  0  0  0  0  0
    7.0435  -17.6922   25.0311 O   0  0  0  0  0  0  0  0  0  0  0  0
    7.0386  -17.2147   22.6726 C   0  0  0  0  0  0  0  0  0  0  0  0
    7.4980  -15.8139   22.6250 C   0  0  2  0  0  0  0  0  0  0  0  0
    8.1636  -15.5474   21.3738 N   0  0  0  0  0  0  0  0  0  0  0  0
    8.2546  -15.3484   23.7954 C   0  0  0  0  0  0  0  0  0  0  0  0
    9.5071  -15.4716   23.7668 O   0  0  0  0  0  0  0  0  0  0  0  0
    7.4952  -11.9595   25.8719 C   0  0  0  0  0  0  0  0  0  0  0  0
    7.6453  -13.1726   26.8003 C   0  0  1  0  0  0  0  0  0  0  0  0
    6.3300  -13.5984   27.0565 O   0  0  0  0  0  0  0  0  0  0  0  0
    8.3806  -14.2134   26.0466 C   0  0  2  0  0  0  0  0  0  0  0  0
    7.6773  -14.7802   24.9341 N   0  0  0  0  0  0  0  0  0  0  0  0
    8.8360  -15.2968   26.9649 C   0  0  0  0  0  0  0  0  0  0  0  0
    8.5954  -16.6370   26.7051 O   0  0  0  0  0  0  0  0  0  0  0  0
    9.4650  -15.0249   28.0254 O   0  0  0  0  0  0  0  0  0  0  0  0
  2  7  1  0
  2  1  1  6
  3  2  1  0
  4  3  1  0
  5  6  2  0
  5  4  1  0
  7  8  2  0
  9  5  1  0
 10 11  1  0
 11 12  2  0
 14 13  1  1
 13 11  1  0
 15 14  1  0
 15  7  1  0
 16 17  2  0
 16 14  1  0
 19 18  1  6
 19 21  1  0
 20 19  1  0
 21 23  1  0
 21 22  1  6
 22 16  1  0
 23 24  1  0
 25 23  2  0
M  END
$$$$
