ENT.pdb
     RDKit          3D

 25 24  0  0  1  0  0  0  0  0999 V2000
    8.7793  -16.3468   18.4254 N   0  0  0  0  0  0  0  0  0  0  0  0
    8.5887  -17.7540   18.4665 C   0  0  1  0  0  0  0  0  0  0  0  0
    9.3719  -18.5892   17.5229 C   0  0  0  0  0  0  0  0  0  0  0  0
   10.2779  -17.9163   16.5752 C   0  0  0  0  0  0  0  0  0  0  0  0
   10.9814  -18.8505   15.6844 C   0  0  0  0  0  0  0  0  0  0  0  0
   10.6802  -19.1454   14.5080 O   0  0  0  0  0  0  0  0  0  0  0  0
    8.8698  -18.1967   19.8751 C   0  0  0  0  0  0  0  0  0  0  0  0
    8.9016  -19.3970   20.1788 O   0  0  0  0  0  0  0  0  0  0  0  0
   12.1371  -19.5202   16.1600 O   0  0  0  0  0  0  0  0  0  0  0  0
   10.9692  -20.0158   24.4362 N   0  0  0  0  0  0  0  0  0  0  0  0
   10.0978  -19.7533   23.3367 C   0  0  0  0  0  0  0  0  0  0  0  0
    9.0703  -20.4751   23.2829 O   0  0  0  0  0  0  0  0  0  0  0  0
   10.3898  -18.7016   22.3321 C   0  0  0  0  0  0  0  0  0  0  0  0
    9.3858  -17.6222   22.2831 C   0  0  2  0  0  0  0  0  0  0  0  0
    9.1105  -17.2562   20.9157 N   0  0  0  0  0  0  0  0  0  0  0  0
    9.6458  -16.4664   23.1522 C   0  0  0  0  0  0  0  0  0  0  0  0
   10.8450  -16.1244   23.3243 O   0  0  0  0  0  0  0  0  0  0  0  0
    7.6161  -12.9639   23.3822 C   0  0  0  0  0  0  0  0  0  0  0  0
    7.7381  -13.6459   24.7519 C   0  0  1  0  0  0  0  0  0  0  0  0
    6.5256  -14.3371   24.9223 O   0  0  0  0  0  0  0  0  0  0  0  0
    8.8636  -14.6040   24.6660 C   0  0  2  0  0  0  0  0  0  0  0  0
    8.6531  -15.7246   23.7979 N   0  0  0  0  0  0  0  0  0  0  0  0
    9.2462  -15.0804   26.0265 C   0  0  0  0  0  0  0  0  0  0  0  0
    9.5671  -14.2064   27.0536 O   0  0  0  0  0  0  0  0  0  0  0  0
    9.2913  -16.3139   26.2919 O   0  0  0  0  0  0  0  0  0  0  0  0
  2  7  1  0
  2  1  1  1
  3  2  1  0
  4  3  1  0
  5  6  2  0
  5  4  1  0
  7  8  2  0
  9  5  1  0
 10 11  1  0
 11 12  2  0
 14 13  1  6
 13 11  1  0
 15 14  1  0
 15  7  1  0
 16 17  2  0
 16 14  1  0
 19 18  1  6
 19 21  1  0
 20 19  1  0
 21 23  1  0
 21 22  1  6
 22 16  1  0
 23 24  1  0
 25 23  2  0
M  END
$$$$
