ENT.pdb
     RDKit          3D

 25 24  0  0  1  0  0  0  0  0999 V2000
    9.5828  -17.5140   17.3061 N   0  0  0  0  0  0  0  0  0  0  0  0
   10.9859  -17.3114   17.3984 C   0  0  1  0  0  0  0  0  0  0  0  0
   11.7529  -17.1744   16.1358 C   0  0  0  0  0  0  0  0  0  0  0  0
   11.2386  -16.2641   15.0971 C   0  0  0  0  0  0  0  0  0  0  0  0
   12.0294  -16.2941   13.8581 C   0  0  0  0  0  0  0  0  0  0  0  0
   12.3310  -17.2979   13.1777 O   0  0  0  0  0  0  0  0  0  0  0  0
   11.2008  -16.0896   18.2470 C   0  0  0  0  0  0  0  0  0  0  0  0
   12.3395  -15.6745   18.5018 O   0  0  0  0  0  0  0  0  0  0  0  0
   12.5314  -15.0778   13.3300 O   0  0  0  0  0  0  0  0  0  0  0  0
    7.5125  -14.8808   19.2373 N   0  0  0  0  0  0  0  0  0  0  0  0
    7.9541  -13.5291   19.1140 C   0  0  0  0  0  0  0  0  0  0  0  0
    7.0572  -12.6961   18.8291 O   0  0  0  0  0  0  0  0  0  0  0  0
    9.3726  -13.1415   19.3095 C   0  0  0  0  0  0  0  0  0  0  0  0
   10.2509  -14.2574   19.7082 C   0  0  2  0  0  0  0  0  0  0  0  0
   10.1062  -15.3609   18.7913 N   0  0  0  0  0  0  0  0  0  0  0  0
   10.1726  -14.6609   21.1189 C   0  0  0  0  0  0  0  0  0  0  0  0
    9.1752  -14.2729   21.7818 O   0  0  0  0  0  0  0  0  0  0  0  0
    8.8206  -16.8617   22.8827 C   0  0  0  0  0  0  0  0  0  0  0  0
   10.2651  -17.1719   23.2992 C   0  0  1  0  0  0  0  0  0  0  0  0
   10.6996  -18.1574   22.3953 O   0  0  0  0  0  0  0  0  0  0  0  0
   11.0505  -15.9302   23.1164 C   0  0  2  0  0  0  0  0  0  0  0  0
   11.1289  -15.4440   21.7707 N   0  0  0  0  0  0  0  0  0  0  0  0
   12.4224  -16.0951   23.6776 C   0  0  0  0  0  0  0  0  0  0  0  0
   13.5621  -15.9408   22.9037 O   0  0  0  0  0  0  0  0  0  0  0  0
   12.5937  -16.3850   24.8945 O   0  0  0  0  0  0  0  0  0  0  0  0
  2  7  1  0
  2  1  1  6
  3  2  1  0
  4  3  1  0
  5  6  2  0
  5  4  1  0
  7  8  2  0
  9  5  1  0
 10 11  1  0
 11 12  2  0
 14 13  1  6
 13 11  1  0
 15 14  1  0
 15  7  1  0
 16 17  2  0
 16 14  1  0
 19 18  1  6
 19 21  1  0
 20 19  1  0
 21 23  1  0
 21 22  1  6
 22 16  1  0
 23 24  1  0
 25 23  2  0
M  END
$$$$
