ENT.pdb
     RDKit          3D

 25 24  0  0  1  0  0  0  0  0999 V2000
   11.1375  -15.5996   20.7155 N   0  0  0  0  0  0  0  0  0  0  0  0
    9.7234  -15.7353   20.7001 C   0  0  1  0  0  0  0  0  0  0  0  0
    9.0934  -16.3081   19.4851 C   0  0  0  0  0  0  0  0  0  0  0  0
    9.5936  -17.5976   18.9762 C   0  0  0  0  0  0  0  0  0  0  0  0
    8.8549  -18.0819   17.8010 C   0  0  0  0  0  0  0  0  0  0  0  0
    9.0137  -17.7332   16.6116 O   0  0  0  0  0  0  0  0  0  0  0  0
    9.3463  -16.5651   21.8953 C   0  0  0  0  0  0  0  0  0  0  0  0
    8.5139  -17.4781   21.8088 O   0  0  0  0  0  0  0  0  0  0  0  0
    7.8374  -19.0534   17.9774 O   0  0  0  0  0  0  0  0  0  0  0  0
   11.1565  -20.6694   24.9753 N   0  0  0  0  0  0  0  0  0  0  0  0
   10.1586  -19.6531   24.8837 C   0  0  0  0  0  0  0  0  0  0  0  0
    9.2754  -19.6870   25.7773 O   0  0  0  0  0  0  0  0  0  0  0  0
   10.1687  -18.6321   23.8077 C   0  0  0  0  0  0  0  0  0  0  0  0
    9.8533  -17.2677   24.2709 C   0  0  2  0  0  0  0  0  0  0  0  0
    9.9296  -16.3359   23.1731 N   0  0  0  0  0  0  0  0  0  0  0  0
   10.5761  -16.8152   25.4675 C   0  0  0  0  0  0  0  0  0  0  0  0
   11.7016  -17.3297   25.6983 O   0  0  0  0  0  0  0  0  0  0  0  0
    8.8221  -14.2089   28.3958 C   0  0  0  0  0  0  0  0  0  0  0  0
   10.3143  -14.0816   28.0592 C   0  0  1  0  0  0  0  0  0  0  0  0
   10.9404  -13.8008   29.2863 O   0  0  0  0  0  0  0  0  0  0  0  0
   10.7621  -15.3967   27.5472 C   0  0  2  0  0  0  0  0  0  0  0  0
   10.0980  -15.8548   26.3629 N   0  0  0  0  0  0  0  0  0  0  0  0
   10.6650  -16.4318   28.6166 C   0  0  0  0  0  0  0  0  0  0  0  0
   11.4294  -16.3765   29.7717 O   0  0  0  0  0  0  0  0  0  0  0  0
    9.8714  -17.4073   28.5035 O   0  0  0  0  0  0  0  0  0  0  0  0
  2  7  1  0
  2  1  1  6
  3  2  1  0
  4  3  1  0
  5  6  2  0
  5  4  1  0
  7  8  2  0
  9  5  1  0
 10 11  1  0
 11 12  2  0
 14 13  1  6
 13 11  1  0
 15 14  1  0
 15  7  1  0
 16 17  2  0
 16 14  1  0
 19 18  1  1
 19 21  1  0
 20 19  1  0
 21 23  1  0
 21 22  1  6
 22 16  1  0
 23 24  1  0
 25 23  2  0
M  END
$$$$
