ENT.pdb
     RDKit          3D

 25 24  0  0  1  0  0  0  0  0999 V2000
    9.8102  -18.4594   21.2767 N   0  0  0  0  0  0  0  0  0  0  0  0
    9.5336  -17.1231   20.8817 C   0  0  1  0  0  0  0  0  0  0  0  0
    9.0486  -16.8935   19.4985 C   0  0  0  0  0  0  0  0  0  0  0  0
    9.4453  -17.8478   18.4479 C   0  0  0  0  0  0  0  0  0  0  0  0
    8.8265  -17.5644   17.1448 C   0  0  0  0  0  0  0  0  0  0  0  0
    9.1883  -16.7125   16.3052 O   0  0  0  0  0  0  0  0  0  0  0  0
    8.5329  -16.5720   21.8585 C   0  0  0  0  0  0  0  0  0  0  0  0
    7.8970  -15.5376   21.6145 O   0  0  0  0  0  0  0  0  0  0  0  0
    7.6894  -18.3103   16.7437 O   0  0  0  0  0  0  0  0  0  0  0  0
    6.9267  -19.1091   22.7032 N   0  0  0  0  0  0  0  0  0  0  0  0
    6.5268  -19.0057   24.0694 C   0  0  0  0  0  0  0  0  0  0  0  0
    5.9615  -20.0245   24.5410 O   0  0  0  0  0  0  0  0  0  0  0  0
    6.7644  -17.7801   24.8706 C   0  0  0  0  0  0  0  0  0  0  0  0
    7.4005  -16.6835   24.1167 C   0  0  2  0  0  0  0  0  0  0  0  0
    8.2756  -17.2154   23.1016 N   0  0  0  0  0  0  0  0  0  0  0  0
    8.0250  -15.6284   24.9265 C   0  0  0  0  0  0  0  0  0  0  0  0
    9.2827  -15.5781   24.9491 O   0  0  0  0  0  0  0  0  0  0  0  0
    6.7461  -11.8237   25.2691 C   0  0  0  0  0  0  0  0  0  0  0  0
    7.0080  -12.4415   26.6497 C   0  0  1  0  0  0  0  0  0  0  0  0
    5.7444  -12.8538   27.1082 O   0  0  0  0  0  0  0  0  0  0  0  0
    7.8848  -13.6168   26.4450 C   0  0  2  0  0  0  0  0  0  0  0  0
    7.3173  -14.6807   25.6706 N   0  0  0  0  0  0  0  0  0  0  0  0
    8.3643  -14.1426   27.7557 C   0  0  0  0  0  0  0  0  0  0  0  0
    9.0100  -13.3402   28.6835 O   0  0  0  0  0  0  0  0  0  0  0  0
    8.1956  -15.3543   28.0683 O   0  0  0  0  0  0  0  0  0  0  0  0
  2  7  1  0
  2  1  1  1
  3  2  1  0
  4  3  1  0
  5  6  2  0
  5  4  1  0
  7  8  2  0
  9  5  1  0
 10 11  1  0
 11 12  2  0
 14 13  1  1
 13 11  1  0
 15 14  1  0
 15  7  1  0
 16 17  2  0
 16 14  1  0
 19 18  1  6
 19 21  1  0
 20 19  1  0
 21 23  1  0
 21 22  1  1
 22 16  1  0
 23 24  1  0
 25 23  2  0
M  END
$$$$
