ENT.pdb
     RDKit          3D

 25 24  0  0  1  0  0  0  0  0999 V2000
    9.6311  -17.6269   20.1824 N   0  0  0  0  0  0  0  0  0  0  0  0
   10.3622  -17.9863   21.3462 C   0  0  1  0  0  0  0  0  0  0  0  0
   11.7686  -17.5260   21.4532 C   0  0  0  0  0  0  0  0  0  0  0  0
   12.0364  -16.0769   21.4363 C   0  0  0  0  0  0  0  0  0  0  0  0
   13.4703  -15.7530   21.4555 C   0  0  0  0  0  0  0  0  0  0  0  0
   14.2152  -15.5605   20.4709 O   0  0  0  0  0  0  0  0  0  0  0  0
    9.5827  -17.4855   22.5298 C   0  0  0  0  0  0  0  0  0  0  0  0
    8.6882  -16.6387   22.4003 O   0  0  0  0  0  0  0  0  0  0  0  0
   14.1343  -15.6332   22.7025 O   0  0  0  0  0  0  0  0  0  0  0  0
    6.4589  -18.4932   26.9511 N   0  0  0  0  0  0  0  0  0  0  0  0
    7.8800  -18.6265   26.9593 C   0  0  0  0  0  0  0  0  0  0  0  0
    8.4215  -18.5235   28.0888 O   0  0  0  0  0  0  0  0  0  0  0  0
    8.6568  -18.8693   25.7191 C   0  0  0  0  0  0  0  0  0  0  0  0
    9.0272  -17.6407   24.9918 C   0  0  2  0  0  0  0  0  0  0  0  0
    9.8402  -17.9633   23.8454 N   0  0  0  0  0  0  0  0  0  0  0  0
    9.5837  -16.5553   25.8110 C   0  0  0  0  0  0  0  0  0  0  0  0
   10.8367  -16.4803   25.9062 O   0  0  0  0  0  0  0  0  0  0  0  0
    8.2002  -12.7332   26.1007 C   0  0  0  0  0  0  0  0  0  0  0  0
    8.3927  -13.3874   27.4758 C   0  0  1  0  0  0  0  0  0  0  0  0
    7.1161  -13.8516   27.8387 O   0  0  0  0  0  0  0  0  0  0  0  0
    9.3175  -14.5291   27.2927 C   0  0  2  0  0  0  0  0  0  0  0  0
    8.8163  -15.6044   26.4889 N   0  0  0  0  0  0  0  0  0  0  0  0
    9.7681  -15.0508   28.6152 C   0  0  0  0  0  0  0  0  0  0  0  0
   10.3548  -14.2364   29.5713 O   0  0  0  0  0  0  0  0  0  0  0  0
    9.6281  -16.2700   28.9123 O   0  0  0  0  0  0  0  0  0  0  0  0
  2  7  1  0
  2  1  1  6
  3  2  1  0
  4  3  1  0
  5  6  2  0
  5  4  1  0
  7  8  2  0
  9  5  1  0
 10 11  1  0
 11 12  2  0
 14 13  1  1
 13 11  1  0
 15 14  1  0
 15  7  1  0
 16 17  2  0
 16 14  1  0
 19 18  1  6
 19 21  1  0
 20 19  1  0
 21 23  1  0
 21 22  1  1
 22 16  1  0
 23 24  1  0
 25 23  2  0
M  END
$$$$
