ENT.pdb
     RDKit          3D

 25 24  0  0  1  0  0  0  0  0999 V2000
    9.1975  -16.7704   19.1654 N   0  0  0  0  0  0  0  0  0  0  0  0
   10.3624  -17.4563   19.6023 C   0  0  1  0  0  0  0  0  0  0  0  0
   11.5352  -17.4825   18.6940 C   0  0  0  0  0  0  0  0  0  0  0  0
   11.3174  -17.2297   17.2585 C   0  0  0  0  0  0  0  0  0  0  0  0
   12.0345  -18.1737   16.3892 C   0  0  0  0  0  0  0  0  0  0  0  0
   12.7938  -19.1007   16.7436 O   0  0  0  0  0  0  0  0  0  0  0  0
   10.7644  -16.8503   20.9177 C   0  0  0  0  0  0  0  0  0  0  0  0
   11.9357  -16.8969   21.3172 O   0  0  0  0  0  0  0  0  0  0  0  0
   11.8852  -18.0675   14.9832 O   0  0  0  0  0  0  0  0  0  0  0  0
    7.4787  -15.2161   22.1259 N   0  0  0  0  0  0  0  0  0  0  0  0
    8.1896  -14.1950   22.8252 C   0  0  0  0  0  0  0  0  0  0  0  0
    7.5542  -13.1253   23.0033 O   0  0  0  0  0  0  0  0  0  0  0  0
    9.5797  -14.3888   23.3054 C   0  0  0  0  0  0  0  0  0  0  0  0
   10.1027  -15.7522   23.0974 C   0  0  2  0  0  0  0  0  0  0  0  0
    9.8168  -16.1991   21.7565 N   0  0  0  0  0  0  0  0  0  0  0  0
    9.7455  -16.7385   24.1263 C   0  0  0  0  0  0  0  0  0  0  0  0
    8.5291  -16.8489   24.4308 O   0  0  0  0  0  0  0  0  0  0  0  0
    9.3500  -20.0869   24.0636 C   0  0  0  0  0  0  0  0  0  0  0  0
   10.4199  -19.9816   25.1591 C   0  0  1  0  0  0  0  0  0  0  0  0
   11.6425  -20.1744   24.4920 O   0  0  0  0  0  0  0  0  0  0  0  0
   10.3502  -18.6090   25.7097 C   0  0  2  0  0  0  0  0  0  0  0  0
   10.6640  -17.5588   24.7866 N   0  0  0  0  0  0  0  0  0  0  0  0
   11.2084  -18.4913   26.9238 C   0  0  0  0  0  0  0  0  0  0  0  0
   11.0651  -19.3331   28.0159 O   0  0  0  0  0  0  0  0  0  0  0  0
   12.1073  -17.6078   26.9983 O   0  0  0  0  0  0  0  0  0  0  0  0
  2  7  1  0
  2  1  1  6
  3  2  1  0
  4  3  1  0
  5  6  2  0
  5  4  1  0
  7  8  2  0
  9  5  1  0
 10 11  1  0
 11 12  2  0
 14 13  1  1
 13 11  1  0
 15 14  1  0
 15  7  1  0
 16 17  2  0
 16 14  1  0
 19 18  1  6
 19 21  1  0
 20 19  1  0
 21 23  1  0
 21 22  1  6
 22 16  1  0
 23 24  1  0
 25 23  2  0
M  END
$$$$
