ENT.pdb
     RDKit          3D

 25 24  0  0  1  0  0  0  0  0999 V2000
    9.4663  -12.5910   19.8305 N   0  0  0  0  0  0  0  0  0  0  0  0
    8.1391  -13.0906   19.7454 C   0  0  1  0  0  0  0  0  0  0  0  0
    7.7049  -13.6947   18.4618 C   0  0  0  0  0  0  0  0  0  0  0  0
    8.7047  -14.4090   17.6481 C   0  0  0  0  0  0  0  0  0  0  0  0
    8.1242  -15.0816   16.4768 C   0  0  0  0  0  0  0  0  0  0  0  0
    7.7621  -14.5533   15.4038 O   0  0  0  0  0  0  0  0  0  0  0  0
    7.9741  -14.0961   20.8504 C   0  0  0  0  0  0  0  0  0  0  0  0
    6.8850  -14.6459   21.0635 O   0  0  0  0  0  0  0  0  0  0  0  0
    7.9307  -16.4857   16.5126 O   0  0  0  0  0  0  0  0  0  0  0  0
    8.1995  -18.1688   21.5032 N   0  0  0  0  0  0  0  0  0  0  0  0
    9.3938  -17.3875   21.4869 C   0  0  0  0  0  0  0  0  0  0  0  0
   10.0773  -17.4752   20.4357 O   0  0  0  0  0  0  0  0  0  0  0  0
    9.7944  -16.5344   22.6324 C   0  0  0  0  0  0  0  0  0  0  0  0
    8.9415  -15.3464   22.8240 C   0  0  2  0  0  0  0  0  0  0  0  0
    9.0609  -14.4569   21.6954 N   0  0  0  0  0  0  0  0  0  0  0  0
    9.0767  -14.6636   24.1180 C   0  0  0  0  0  0  0  0  0  0  0  0
   10.2265  -14.2791   24.4571 O   0  0  0  0  0  0  0  0  0  0  0  0
    6.7332  -11.8100   25.5736 C   0  0  0  0  0  0  0  0  0  0  0  0
    6.8877  -12.9341   26.6073 C   0  0  1  0  0  0  0  0  0  0  0  0
    5.7382  -13.7290   26.4534 O   0  0  0  0  0  0  0  0  0  0  0  0
    8.0953  -13.7068   26.2378 C   0  0  2  0  0  0  0  0  0  0  0  0
    8.0169  -14.4139   24.9938 N   0  0  0  0  0  0  0  0  0  0  0  0
    8.4668  -14.6473   27.3340 C   0  0  0  0  0  0  0  0  0  0  0  0
    8.7223  -14.2142   28.6259 O   0  0  0  0  0  0  0  0  0  0  0  0
    8.5624  -15.8877   27.1185 O   0  0  0  0  0  0  0  0  0  0  0  0
  2  7  1  0
  2  1  1  6
  3  2  1  0
  4  3  1  0
  5  6  2  0
  5  4  1  0
  7  8  2  0
  9  5  1  0
 10 11  1  0
 11 12  2  0
 14 13  1  6
 13 11  1  0
 15 14  1  0
 15  7  1  0
 16 17  2  0
 16 14  1  0
 19 18  1  6
 19 21  1  0
 20 19  1  0
 21 23  1  0
 21 22  1  6
 22 16  1  0
 23 24  1  0
 25 23  2  0
M  END
$$$$
