KRG.pdb
     RDKit          3D

 25 24  0  0  1  0  0  0  0  0999 V2000
    9.6241  -24.5427   29.2487 N   0  0  0  0  0  0  0  0  0  0  0  0
   11.0156  -24.7195   29.4880 C   0  0  1  0  0  0  0  0  0  0  0  0
   11.6190  -25.9184   28.8258 C   0  0  0  0  0  0  0  0  0  0  0  0
   10.8878  -26.4878   27.6785 C   0  0  0  0  0  0  0  0  0  0  0  0
   11.5292  -27.7180   27.1225 C   0  0  0  0  0  0  0  0  0  0  0  0
   10.7112  -28.2405   25.9732 C   0  0  0  0  0  0  0  0  0  0  0  0
   11.3147  -29.4614   25.4212 N   0  0  0  0  0  0  0  0  0  0  0  0
   11.8449  -23.5554   29.1544 C   0  0  0  0  0  0  0  0  0  0  0  0
   11.6336  -22.9375   28.0807 O   0  0  0  0  0  0  0  0  0  0  0  0
   13.0230  -18.7037   33.4762 N   0  0  0  0  0  0  0  0  0  0  0  0
   11.8355  -19.4063   33.7665 C   0  0  0  0  0  0  0  0  0  0  0  0
   10.8072  -18.8169   34.2701 N   0  0  0  0  0  0  0  0  0  0  0  0
   11.7016  -20.8190   33.5175 N   0  0  0  0  0  0  0  0  0  0  0  0
   12.7291  -21.5473   32.8104 C   0  0  0  0  0  0  0  0  0  0  0  0
   13.2822  -20.6549   31.7218 C   0  0  0  0  0  0  0  0  0  0  0  0
   14.2989  -21.4298   30.9338 C   0  0  0  0  0  0  0  0  0  0  0  0
   13.6485  -21.9588   29.6775 C   0  0  2  0  0  0  0  0  0  0  0  0
   12.8692  -23.1200   30.0140 N   0  0  0  0  0  0  0  0  0  0  0  0
   14.6772  -22.2360   28.6642 C   0  0  0  0  0  0  0  0  0  0  0  0
   15.4894  -23.2121   28.7416 O   0  0  0  0  0  0  0  0  0  0  0  0
    9.9012  -19.2356   34.4810 N   0  0  0  0  0  0  0  0  0  0  0  0
   14.7865  -21.3839   27.5354 C   0  0  0  0  0  0  0  0  0  0  0  0
   15.7984  -21.6536   26.5340 C   0  0  0  0  0  0  0  0  0  0  0  0
   15.6951  -20.6814   25.4438 O   0  0  0  0  0  0  0  0  0  0  0  0
   14.6775  -19.7461   25.4483 O   0  0  0  0  0  0  0  0  0  0  0  0
  2  1  1  6
  3  2  1  0
  4  3  1  0
  5  4  1  0
  5  6  1  0
  7  6  1  0
  8  2  1  0
  8  9  2  0
 10 11  1  0
 11 12  2  0
 13 11  1  0
 13 14  1  0
 15 14  1  0
 17 16  1  1
 16 15  1  0
 17 18  1  0
 18  8  1  0
 19 17  1  0
 20 19  2  0
 21 19  1  0
 22 21  1  0
 23 22  1  0
 24 23  1  0
 25 23  2  0
M  END
$$$$
