KRG.pdb
     RDKit          3D

 25 24  0  0  1  0  0  0  0  0999 V2000
   10.0735  -19.8248   18.8369 N   0  0  0  0  0  0  0  0  0  0  0  0
    9.2504  -19.2262   19.8314 C   0  0  1  0  0  0  0  0  0  0  0  0
    8.9285  -20.1104   20.9953 C   0  0  0  0  0  0  0  0  0  0  0  0
    9.0004  -21.5661   20.7695 C   0  0  0  0  0  0  0  0  0  0  0  0
    8.7758  -22.3670   22.0112 C   0  0  0  0  0  0  0  0  0  0  0  0
    8.8470  -23.8343   21.6874 C   0  0  0  0  0  0  0  0  0  0  0  0
    8.7371  -24.6404   22.9112 N   0  0  0  0  0  0  0  0  0  0  0  0
    9.7580  -17.9540   20.3589 C   0  0  0  0  0  0  0  0  0  0  0  0
   10.9599  -17.6434   20.1639 O   0  0  0  0  0  0  0  0  0  0  0  0
    7.4298  -14.7364   17.2383 N   0  0  0  0  0  0  0  0  0  0  0  0
    7.5524  -13.3321   17.2678 C   0  0  0  0  0  0  0  0  0  0  0  0
    7.6998  -12.6435   16.1896 N   0  0  0  0  0  0  0  0  0  0  0  0
    7.5195  -12.5865   18.5002 N   0  0  0  0  0  0  0  0  0  0  0  0
    7.3219  -13.2549   19.7653 C   0  0  0  0  0  0  0  0  0  0  0  0
    8.5646  -14.0577   20.0792 C   0  0  0  0  0  0  0  0  0  0  0  0
    8.3616  -14.7685   21.3864 C   0  0  0  0  0  0  0  0  0  0  0  0
    9.4351  -15.8187   21.5472 C   0  0  2  0  0  0  0  0  0  0  0  0
    8.9240  -17.0782   21.0766 N   0  0  0  0  0  0  0  0  0  0  0  0
    9.8749  -15.8693   22.9492 C   0  0  0  0  0  0  0  0  0  0  0  0
    9.0728  -15.9882   23.9294 O   0  0  0  0  0  0  0  0  0  0  0  0
    7.9239  -11.6508   16.1206 N   0  0  0  0  0  0  0  0  0  0  0  0
   11.2594  -15.7825   23.2456 C   0  0  0  0  0  0  0  0  0  0  0  0
   11.6991  -15.8542   24.6244 C   0  0  0  0  0  0  0  0  0  0  0  0
   12.8227  -16.7856   24.7434 O   0  0  0  0  0  0  0  0  0  0  0  0
   13.4853  -16.9160   25.9494 O   0  0  0  0  0  0  0  0  0  0  0  0
  2  1  1  6
  3  2  1  0
  4  3  1  0
  5  4  1  0
  5  6  1  0
  7  6  1  0
  8  2  1  0
  8  9  2  0
 10 11  1  0
 11 12  2  0
 13 11  1  0
 13 14  1  0
 15 14  1  0
 17 16  1  1
 16 15  1  0
 17 18  1  0
 18  8  1  0
 19 17  1  0
 20 19  2  0
 21 19  1  0
 22 21  1  0
 23 22  1  0
 24 23  1  0
 25 23  2  0
M  END
$$$$
