KRG.pdb
     RDKit          3D

 25 24  0  0  1  0  0  0  0  0999 V2000
   17.2895  -24.8763   37.6571 N   0  0  0  0  0  0  0  0  0  0  0  0
   16.6238  -25.1253   36.4244 C   0  0  1  0  0  0  0  0  0  0  0  0
   15.5967  -26.2128   36.4741 C   0  0  0  0  0  0  0  0  0  0  0  0
   16.0806  -27.5974   36.3194 C   0  0  0  0  0  0  0  0  0  0  0  0
   16.3953  -27.9570   34.9032 C   0  0  0  0  0  0  0  0  0  0  0  0
   16.7748  -29.4104   34.8219 C   0  0  0  0  0  0  0  0  0  0  0  0
   17.1765  -29.7647   33.4535 N   0  0  0  0  0  0  0  0  0  0  0  0
   15.9994  -23.9432   35.8184 C   0  0  0  0  0  0  0  0  0  0  0  0
   15.3567  -23.1460   36.5468 O   0  0  0  0  0  0  0  0  0  0  0  0
   21.2334  -19.6375   31.8684 N   0  0  0  0  0  0  0  0  0  0  0  0
   21.0727  -19.8022   33.2595 C   0  0  0  0  0  0  0  0  0  0  0  0
   21.9597  -19.3880   34.0962 N   0  0  0  0  0  0  0  0  0  0  0  0
   19.9116  -20.4401   33.8258 N   0  0  0  0  0  0  0  0  0  0  0  0
   18.7731  -20.7725   33.0016 C   0  0  0  0  0  0  0  0  0  0  0  0
   17.7319  -21.4383   33.8733 C   0  0  0  0  0  0  0  0  0  0  0  0
   16.5538  -21.8089   33.0189 C   0  0  0  0  0  0  0  0  0  0  0  0
   15.5217  -22.5006   33.8777 C   0  0  2  0  0  0  0  0  0  0  0  0
   16.1083  -23.6876   34.4399 N   0  0  0  0  0  0  0  0  0  0  0  0
   14.3188  -22.7813   33.0801 C   0  0  0  0  0  0  0  0  0  0  0  0
   14.0900  -23.9068   32.5330 O   0  0  0  0  0  0  0  0  0  0  0  0
   21.9330  -19.4737   35.1123 N   0  0  0  0  0  0  0  0  0  0  0  0
   13.3522  -21.7590   32.8992 C   0  0  0  0  0  0  0  0  0  0  0  0
   12.1479  -22.0422   32.1448 C   0  0  0  0  0  0  0  0  0  0  0  0
   12.3817  -21.7998   30.7197 O   0  0  0  0  0  0  0  0  0  0  0  0
   11.3425  -21.9333   29.8182 O   0  0  0  0  0  0  0  0  0  0  0  0
  2  1  1  1
  3  2  1  0
  4  3  1  0
  5  4  1  0
  5  6  1  0
  7  6  1  0
  8  2  1  0
  8  9  2  0
 10 11  1  0
 11 12  2  0
 13 11  1  0
 13 14  1  0
 15 14  1  0
 17 16  1  6
 16 15  1  0
 17 18  1  0
 18  8  1  0
 19 17  1  0
 20 19  2  0
 21 19  1  0
 22 21  1  0
 23 22  1  0
 24 23  1  0
 25 23  2  0
M  END
$$$$
