KRG.pdb
     RDKit          3D

 25 24  0  0  1  0  0  0  0  0999 V2000
   11.0307  -17.9446   16.2975 N   0  0  0  0  0  0  0  0  0  0  0  0
   10.8883  -18.5590   17.5730 C   0  0  1  0  0  0  0  0  0  0  0  0
   11.9144  -19.6030   17.8850 C   0  0  0  0  0  0  0  0  0  0  0  0
   12.8215  -19.9973   16.7911 C   0  0  0  0  0  0  0  0  0  0  0  0
   14.0648  -20.6738   17.2711 C   0  0  0  0  0  0  0  0  0  0  0  0
   14.9167  -21.0628   16.0939 C   0  0  0  0  0  0  0  0  0  0  0  0
   16.1912  -21.6387   16.5451 N   0  0  0  0  0  0  0  0  0  0  0  0
   10.8428  -17.6207   18.7007 C   0  0  0  0  0  0  0  0  0  0  0  0
   11.5500  -16.5825   18.6655 O   0  0  0  0  0  0  0  0  0  0  0  0
    8.8191  -12.4154   19.2200 N   0  0  0  0  0  0  0  0  0  0  0  0
    7.6847  -13.2276   19.4240 C   0  0  0  0  0  0  0  0  0  0  0  0
    6.5621  -12.9789   18.8442 N   0  0  0  0  0  0  0  0  0  0  0  0
    7.7135  -14.3796   20.2888 N   0  0  0  0  0  0  0  0  0  0  0  0
    8.3830  -14.3292   21.5676 C   0  0  0  0  0  0  0  0  0  0  0  0
    8.2380  -15.6787   22.2348 C   0  0  0  0  0  0  0  0  0  0  0  0
    8.4079  -16.7503   21.1965 C   0  0  0  0  0  0  0  0  0  0  0  0
    9.8699  -16.8545   20.8320 C   0  0  2  0  0  0  0  0  0  0  0  0
   10.0227  -17.8625   19.8172 N   0  0  0  0  0  0  0  0  0  0  0  0
   10.6641  -17.1334   22.0375 C   0  0  0  0  0  0  0  0  0  0  0  0
   10.3461  -18.0180   22.8947 O   0  0  0  0  0  0  0  0  0  0  0  0
    5.7030  -13.5250   18.9090 N   0  0  0  0  0  0  0  0  0  0  0  0
   11.8482  -16.3895   22.2756 C   0  0  0  0  0  0  0  0  0  0  0  0
   12.5823  -16.5934   23.5082 C   0  0  0  0  0  0  0  0  0  0  0  0
   13.9933  -16.8515   23.2133 O   0  0  0  0  0  0  0  0  0  0  0  0
   14.8972  -17.0032   24.2478 O   0  0  0  0  0  0  0  0  0  0  0  0
  2  1  1  6
  3  2  1  0
  4  3  1  0
  5  4  1  0
  5  6  1  0
  7  6  1  0
  8  2  1  0
  8  9  2  0
 10 11  1  0
 11 12  2  0
 13 11  1  0
 13 14  1  0
 15 14  1  0
 17 16  1  1
 16 15  1  0
 17 18  1  0
 18  8  1  0
 19 17  1  0
 20 19  2  0
 21 19  1  0
 22 21  1  0
 23 22  1  0
 24 23  1  0
 25 23  2  0
M  END
$$$$
