KRG.pdb
     RDKit          3D

 25 24  0  0  1  0  0  0  0  0999 V2000
    8.6677  -20.0614   20.9490 N   0  0  0  0  0  0  0  0  0  0  0  0
    9.7517  -19.5757   20.1655 C   0  0  1  0  0  0  0  0  0  0  0  0
    9.4787  -19.4982   18.6959 C   0  0  0  0  0  0  0  0  0  0  0  0
    8.8757  -20.6866   18.0640 C   0  0  0  0  0  0  0  0  0  0  0  0
    8.6374  -20.5177   16.5983 C   0  0  0  0  0  0  0  0  0  0  0  0
    7.9300  -21.7300   16.0570 C   0  0  0  0  0  0  0  0  0  0  0  0
    7.8740  -21.6844   14.5893 N   0  0  0  0  0  0  0  0  0  0  0  0
   10.2806  -18.2756   20.5947 C   0  0  0  0  0  0  0  0  0  0  0  0
   11.2943  -17.8044   20.0205 O   0  0  0  0  0  0  0  0  0  0  0  0
    8.0561  -14.5090   18.1924 N   0  0  0  0  0  0  0  0  0  0  0  0
    7.8646  -13.2954   18.8842 C   0  0  0  0  0  0  0  0  0  0  0  0
    8.4154  -12.1994   18.4920 N   0  0  0  0  0  0  0  0  0  0  0  0
    7.0446  -13.2089   20.0657 N   0  0  0  0  0  0  0  0  0  0  0  0
    7.4865  -13.7779   21.3174 C   0  0  0  0  0  0  0  0  0  0  0  0
    8.6314  -14.7243   21.0328 C   0  0  0  0  0  0  0  0  0  0  0  0
    9.0890  -15.3303   22.3284 C   0  0  0  0  0  0  0  0  0  0  0  0
   10.2241  -16.2870   22.0501 C   0  0  2  0  0  0  0  0  0  0  0  0
    9.6734  -17.5493   21.6346 N   0  0  0  0  0  0  0  0  0  0  0  0
   11.0804  -16.4019   23.2398 C   0  0  0  0  0  0  0  0  0  0  0  0
   10.6382  -16.7109   24.3919 O   0  0  0  0  0  0  0  0  0  0  0  0
    8.3215  -11.2777   18.9188 N   0  0  0  0  0  0  0  0  0  0  0  0
   12.4727  -16.1597   23.1183 C   0  0  0  0  0  0  0  0  0  0  0  0
   13.3326  -16.3512   24.2689 C   0  0  0  0  0  0  0  0  0  0  0  0
   14.7248  -16.0821   23.9033 O   0  0  0  0  0  0  0  0  0  0  0  0
   15.0444  -15.7571   22.5985 O   0  0  0  0  0  0  0  0  0  0  0  0
  2  1  1  1
  3  2  1  0
  4  3  1  0
  5  4  1  0
  5  6  1  0
  7  6  1  0
  8  2  1  0
  8  9  2  0
 10 11  1  0
 11 12  2  0
 13 11  1  0
 13 14  1  0
 15 14  1  0
 17 16  1  1
 16 15  1  0
 17 18  1  0
 18  8  1  0
 19 17  1  0
 20 19  2  0
 21 19  1  0
 22 21  1  0
 23 22  1  0
 24 23  1  0
 25 23  2  0
M  END
$$$$
