KRG.pdb
     RDKit          3D

 25 24  0  0  1  0  0  0  0  0999 V2000
    5.5473  -20.5463   21.8982 N   0  0  0  0  0  0  0  0  0  0  0  0
    6.3826  -21.1437   22.8831 C   0  0  1  0  0  0  0  0  0  0  0  0
    7.8475  -20.9018   22.6944 C   0  0  0  0  0  0  0  0  0  0  0  0
    8.3950  -21.1325   21.3445 C   0  0  0  0  0  0  0  0  0  0  0  0
    9.8866  -21.0534   21.2920 C   0  0  0  0  0  0  0  0  0  0  0  0
   10.3540  -21.2359   19.8738 C   0  0  0  0  0  0  0  0  0  0  0  0
   11.8202  -21.1707   19.7996 N   0  0  0  0  0  0  0  0  0  0  0  0
    6.0424  -20.7917   24.2669 C   0  0  0  0  0  0  0  0  0  0  0  0
    5.5814  -19.6493   24.5150 O   0  0  0  0  0  0  0  0  0  0  0  0
    2.1124  -25.7008   26.6756 N   0  0  0  0  0  0  0  0  0  0  0  0
    2.1949  -25.3250   25.3191 C   0  0  0  0  0  0  0  0  0  0  0  0
    1.1841  -25.4244   24.5274 N   0  0  0  0  0  0  0  0  0  0  0  0
    3.4092  -24.8091   24.7402 N   0  0  0  0  0  0  0  0  0  0  0  0
    4.4972  -24.3613   25.5779 C   0  0  0  0  0  0  0  0  0  0  0  0
    4.0222  -23.1704   26.3800 C   0  0  0  0  0  0  0  0  0  0  0  0
    5.1569  -22.6802   27.2327 C   0  0  0  0  0  0  0  0  0  0  0  0
    5.7133  -21.4122   26.6296 C   0  0  2  0  0  0  0  0  0  0  0  0
    6.2225  -21.7091   25.3174 N   0  0  0  0  0  0  0  0  0  0  0  0
    6.7337  -20.8433   27.5224 C   0  0  0  0  0  0  0  0  0  0  0  0
    6.5435  -20.6454   28.7646 O   0  0  0  0  0  0  0  0  0  0  0  0
    1.1372  -25.1315   23.5514 N   0  0  0  0  0  0  0  0  0  0  0  0
    8.0008  -20.4901   26.9917 C   0  0  0  0  0  0  0  0  0  0  0  0
    9.0360  -20.0041   27.8815 C   0  0  0  0  0  0  0  0  0  0  0  0
   10.2790  -19.7954   27.1362 O   0  0  0  0  0  0  0  0  0  0  0  0
   11.4070  -19.3380   27.7911 O   0  0  0  0  0  0  0  0  0  0  0  0
  2  1  1  6
  3  2  1  0
  4  3  1  0
  5  4  1  0
  5  6  1  0
  7  6  1  0
  8  2  1  0
  8  9  2  0
 10 11  1  0
 11 12  2  0
 13 11  1  0
 13 14  1  0
 15 14  1  0
 17 16  1  1
 16 15  1  0
 17 18  1  0
 18  8  1  0
 19 17  1  0
 20 19  2  0
 21 19  1  0
 22 21  1  0
 23 22  1  0
 24 23  1  0
 25 23  2  0
M  END
$$$$
