KRG.pdb
     RDKit          3D

 25 24  0  0  1  0  0  0  0  0999 V2000
    7.9053  -12.4916   18.3281 N   0  0  0  0  0  0  0  0  0  0  0  0
    7.8582  -13.8426   18.7725 C   0  0  1  0  0  0  0  0  0  0  0  0
    8.4897  -14.8315   17.8433 C   0  0  0  0  0  0  0  0  0  0  0  0
    7.9232  -14.9294   16.4852 C   0  0  0  0  0  0  0  0  0  0  0  0
    7.7458  -16.3389   16.0208 C   0  0  0  0  0  0  0  0  0  0  0  0
    7.0612  -16.3487   14.6813 C   0  0  0  0  0  0  0  0  0  0  0  0
    6.7885  -17.7265   14.2494 N   0  0  0  0  0  0  0  0  0  0  0  0
    8.4150  -14.0640   20.1124 C   0  0  0  0  0  0  0  0  0  0  0  0
    9.5420  -13.5860   20.3965 O   0  0  0  0  0  0  0  0  0  0  0  0
    8.8240  -19.5171   26.2108 N   0  0  0  0  0  0  0  0  0  0  0  0
    7.8009  -18.7673   26.8265 C   0  0  0  0  0  0  0  0  0  0  0  0
    6.9644  -19.3078   27.6429 N   0  0  0  0  0  0  0  0  0  0  0  0
    7.6310  -17.3578   26.5809 N   0  0  0  0  0  0  0  0  0  0  0  0
    6.9689  -16.8887   25.3861 C   0  0  0  0  0  0  0  0  0  0  0  0
    8.0112  -16.2927   24.4664 C   0  0  0  0  0  0  0  0  0  0  0  0
    7.3217  -15.7321   23.2559 C   0  0  0  0  0  0  0  0  0  0  0  0
    8.3622  -15.1959   22.3014 C   0  0  2  0  0  0  0  0  0  0  0  0
    7.7104  -14.7997   21.0818 N   0  0  0  0  0  0  0  0  0  0  0  0
    9.4081  -16.2068   22.0872 C   0  0  0  0  0  0  0  0  0  0  0  0
    9.2140  -17.2880   21.4455 O   0  0  0  0  0  0  0  0  0  0  0  0
    6.2214  -18.8388   28.1611 N   0  0  0  0  0  0  0  0  0  0  0  0
   10.7060  -15.9848   22.6145 C   0  0  0  0  0  0  0  0  0  0  0  0
   11.7288  -16.9963   22.4405 C   0  0  0  0  0  0  0  0  0  0  0  0
   12.9835  -16.5490   23.0487 O   0  0  0  0  0  0  0  0  0  0  0  0
   14.1042  -17.3559   22.9900 O   0  0  0  0  0  0  0  0  0  0  0  0
  2  1  1  6
  3  2  1  0
  4  3  1  0
  5  4  1  0
  5  6  1  0
  7  6  1  0
  8  2  1  0
  8  9  2  0
 10 11  1  0
 11 12  2  0
 13 11  1  0
 13 14  1  0
 15 14  1  0
 17 16  1  1
 16 15  1  0
 17 18  1  0
 18  8  1  0
 19 17  1  0
 20 19  2  0
 21 19  1  0
 22 21  1  0
 23 22  1  0
 24 23  1  0
 25 23  2  0
M  END
$$$$
