KRG.pdb
     RDKit          3D

 25 24  0  0  1  0  0  0  0  0999 V2000
    9.8596  -19.4551   20.2297 N   0  0  0  0  0  0  0  0  0  0  0  0
   11.0146  -18.6332   20.3528 C   0  0  1  0  0  0  0  0  0  0  0  0
   11.4692  -17.9945   19.0778 C   0  0  0  0  0  0  0  0  0  0  0  0
   11.6564  -18.8819   17.9148 C   0  0  0  0  0  0  0  0  0  0  0  0
   12.0497  -18.1502   16.6723 C   0  0  0  0  0  0  0  0  0  0  0  0
   12.2094  -19.1261   15.5387 C   0  0  0  0  0  0  0  0  0  0  0  0
   12.5597  -18.4236   14.2964 N   0  0  0  0  0  0  0  0  0  0  0  0
   10.9095  -17.5814   21.3711 C   0  0  0  0  0  0  0  0  0  0  0  0
   11.8925  -16.8266   21.5790 O   0  0  0  0  0  0  0  0  0  0  0  0
    9.0380  -13.0365   17.7999 N   0  0  0  0  0  0  0  0  0  0  0  0
    8.4402  -12.8652   19.0653 C   0  0  0  0  0  0  0  0  0  0  0  0
    8.7366  -11.8673   19.8235 N   0  0  0  0  0  0  0  0  0  0  0  0
    7.4659  -13.7914   19.5835 N   0  0  0  0  0  0  0  0  0  0  0  0
    7.4093  -14.0949   20.9944 C   0  0  0  0  0  0  0  0  0  0  0  0
    8.6352  -14.9029   21.3575 C   0  0  0  0  0  0  0  0  0  0  0  0
    8.4442  -15.4766   22.7322 C   0  0  0  0  0  0  0  0  0  0  0  0
    9.6372  -16.3366   23.0762 C   0  0  2  0  0  0  0  0  0  0  0  0
    9.7301  -17.4037   22.1161 N   0  0  0  0  0  0  0  0  0  0  0  0
    9.5178  -16.8219   24.4590 C   0  0  0  0  0  0  0  0  0  0  0  0
    8.4023  -17.0646   25.0206 O   0  0  0  0  0  0  0  0  0  0  0  0
    8.3924  -11.6892   20.7671 N   0  0  0  0  0  0  0  0  0  0  0  0
   10.6936  -17.0367   25.2228 C   0  0  0  0  0  0  0  0  0  0  0  0
   10.5819  -17.5412   26.5766 C   0  0  0  0  0  0  0  0  0  0  0  0
   11.9146  -17.7996   27.1257 O   0  0  0  0  0  0  0  0  0  0  0  0
   12.0472  -18.2938   28.4097 O   0  0  0  0  0  0  0  0  0  0  0  0
  2  1  1  6
  3  2  1  0
  4  3  1  0
  5  4  1  0
  5  6  1  0
  7  6  1  0
  8  2  1  0
  8  9  2  0
 10 11  1  0
 11 12  2  0
 13 11  1  0
 13 14  1  0
 15 14  1  0
 17 16  1  6
 16 15  1  0
 17 18  1  0
 18  8  1  0
 19 17  1  0
 20 19  2  0
 21 19  1  0
 22 21  1  0
 23 22  1  0
 24 23  1  0
 25 23  2  0
M  END
$$$$
