KRG.pdb
     RDKit          3D

 25 24  0  0  1  0  0  0  0  0999 V2000
    5.7080  -21.4055   22.4403 N   0  0  0  0  0  0  0  0  0  0  0  0
    6.1771  -20.5072   23.4392 C   0  0  1  0  0  0  0  0  0  0  0  0
    6.8364  -21.1619   24.6126 C   0  0  0  0  0  0  0  0  0  0  0  0
    6.4846  -22.5694   24.8782 C   0  0  0  0  0  0  0  0  0  0  0  0
    5.2736  -22.7215   25.7408 C   0  0  0  0  0  0  0  0  0  0  0  0
    4.9374  -24.1803   25.8892 C   0  0  0  0  0  0  0  0  0  0  0  0
    3.6301  -24.3466   26.5395 N   0  0  0  0  0  0  0  0  0  0  0  0
    7.0773  -19.4593   22.9434 C   0  0  0  0  0  0  0  0  0  0  0  0
    8.0803  -19.7835   22.2593 O   0  0  0  0  0  0  0  0  0  0  0  0
    8.0675  -14.0002   18.6994 N   0  0  0  0  0  0  0  0  0  0  0  0
    8.3974  -12.8459   19.4389 C   0  0  0  0  0  0  0  0  0  0  0  0
    9.1104  -11.9001   18.9334 N   0  0  0  0  0  0  0  0  0  0  0  0
    7.9581  -12.6558   20.7978 N   0  0  0  0  0  0  0  0  0  0  0  0
    7.0748  -13.6072   21.4307 C   0  0  0  0  0  0  0  0  0  0  0  0
    7.8763  -14.8402   21.7835 C   0  0  0  0  0  0  0  0  0  0  0  0
    6.9600  -15.8442   22.4218 C   0  0  0  0  0  0  0  0  0  0  0  0
    7.7448  -17.0955   22.7374 C   0  0  2  0  0  0  0  0  0  0  0  0
    6.8368  -18.1016   23.2195 N   0  0  0  0  0  0  0  0  0  0  0  0
    8.8129  -16.7831   23.6984 C   0  0  0  0  0  0  0  0  0  0  0  0
    8.5901  -16.4150   24.8956 O   0  0  0  0  0  0  0  0  0  0  0  0
    9.4140  -11.0443   19.3981 N   0  0  0  0  0  0  0  0  0  0  0  0
   10.1670  -16.8912   23.2900 C   0  0  0  0  0  0  0  0  0  0  0  0
   11.2210  -16.5079   24.2074 C   0  0  0  0  0  0  0  0  0  0  0  0
   12.5290  -16.7277   23.5868 O   0  0  0  0  0  0  0  0  0  0  0  0
   13.6807  -16.3636   24.2586 O   0  0  0  0  0  0  0  0  0  0  0  0
  2  1  1  6
  3  2  1  0
  4  3  1  0
  5  4  1  0
  5  6  1  0
  7  6  1  0
  8  2  1  0
  8  9  2  0
 10 11  1  0
 11 12  2  0
 13 11  1  0
 13 14  1  0
 15 14  1  0
 17 16  1  1
 16 15  1  0
 17 18  1  0
 18  8  1  0
 19 17  1  0
 20 19  2  0
 21 19  1  0
 22 21  1  0
 23 22  1  0
 24 23  1  0
 25 23  2  0
M  END
$$$$
