KRG.pdb
     RDKit          3D

 25 24  0  0  1  0  0  0  0  0999 V2000
    6.0545  -13.1092   19.4340 N   0  0  0  0  0  0  0  0  0  0  0  0
    6.9739  -14.1952   19.4417 C   0  0  1  0  0  0  0  0  0  0  0  0
    8.0958  -14.0748   18.4584 C   0  0  0  0  0  0  0  0  0  0  0  0
    7.8079  -14.4610   17.0645 C   0  0  0  0  0  0  0  0  0  0  0  0
    8.9760  -14.2809   16.1497 C   0  0  0  0  0  0  0  0  0  0  0  0
    8.5915  -14.6829   14.7519 C   0  0  0  0  0  0  0  0  0  0  0  0
    9.7355  -14.5435   13.8401 N   0  0  0  0  0  0  0  0  0  0  0  0
    7.5564  -14.4923   20.7558 C   0  0  0  0  0  0  0  0  0  0  0  0
    7.7901  -13.5487   21.5522 O   0  0  0  0  0  0  0  0  0  0  0  0
    6.5048  -20.4879   27.0377 N   0  0  0  0  0  0  0  0  0  0  0  0
    7.5597  -19.6275   27.4048 C   0  0  0  0  0  0  0  0  0  0  0  0
    8.0842  -19.6642   28.5804 N   0  0  0  0  0  0  0  0  0  0  0  0
    8.1122  -18.6605   26.4908 N   0  0  0  0  0  0  0  0  0  0  0  0
    7.4632  -18.3755   25.2323 C   0  0  0  0  0  0  0  0  0  0  0  0
    8.2768  -17.3301   24.5026 C   0  0  0  0  0  0  0  0  0  0  0  0
    7.6361  -17.0643   23.1706 C   0  0  0  0  0  0  0  0  0  0  0  0
    8.4804  -16.0707   22.4083 C   0  0  2  0  0  0  0  0  0  0  0  0
    7.8562  -15.8119   21.1384 N   0  0  0  0  0  0  0  0  0  0  0  0
    9.8524  -16.5825   22.2761 C   0  0  0  0  0  0  0  0  0  0  0  0
   10.2292  -17.3333   21.3207 O   0  0  0  0  0  0  0  0  0  0  0  0
    8.8506  -19.0885   28.9294 N   0  0  0  0  0  0  0  0  0  0  0  0
   10.8201  -16.2333   23.2526 C   0  0  0  0  0  0  0  0  0  0  0  0
   12.1770  -16.7238   23.1187 C   0  0  0  0  0  0  0  0  0  0  0  0
   13.0238  -16.1447   24.1636 O   0  0  0  0  0  0  0  0  0  0  0  0
   14.3650  -16.4729   24.2247 O   0  0  0  0  0  0  0  0  0  0  0  0
  2  1  1  1
  3  2  1  0
  4  3  1  0
  5  4  1  0
  5  6  1  0
  7  6  1  0
  8  2  1  0
  8  9  2  0
 10 11  1  0
 11 12  2  0
 13 11  1  0
 13 14  1  0
 15 14  1  0
 17 16  1  6
 16 15  1  0
 17 18  1  0
 18  8  1  0
 19 17  1  0
 20 19  2  0
 21 19  1  0
 22 21  1  0
 23 22  1  0
 24 23  1  0
 25 23  2  0
M  END
$$$$
