DRR.pdb
     RDKit          3D

 31 30  0  0  1  0  0  0  0  0999 V2000
   12.3398  -19.3625   17.9449 N   0  0  0  0  0  0  0  0  0  0  0  0
   13.2713  -18.2666   17.9807 C   0  0  1  0  0  0  0  0  0  0  0  0
   13.4588  -17.6406   16.6261 C   0  0  0  0  0  0  0  0  0  0  0  0
   14.6581  -18.1858   15.9581 C   0  0  0  0  0  0  0  0  0  0  0  0
   14.9980  -19.3893   16.1969 O   0  0  0  0  0  0  0  0  0  0  0  0
   12.7486  -17.2677   18.9706 C   0  0  0  0  0  0  0  0  0  0  0  0
   13.3764  -16.2139   19.2317 O   0  0  0  0  0  0  0  0  0  0  0  0
   15.4376  -17.4557   15.0810 O   0  0  0  0  0  0  0  0  0  0  0  0
    7.2331  -11.8788   19.4664 N   0  0  0  0  0  0  0  0  0  0  0  0
    7.5966  -13.0447   18.7414 C   0  0  0  0  0  0  0  0  0  0  0  0
    7.5287  -13.0707   17.4549 N   0  0  0  0  0  0  0  0  0  0  0  0
    8.0491  -14.2322   19.3831 N   0  0  0  0  0  0  0  0  0  0  0  0
    8.2259  -14.2600   20.8144 C   0  0  0  0  0  0  0  0  0  0  0  0
    8.6681  -15.6595   21.2193 C   0  0  0  0  0  0  0  0  0  0  0  0
    9.5298  -16.2234   20.1374 C   0  0  0  0  0  0  0  0  0  0  0  0
   10.9467  -16.4884   20.5708 C   0  0  2  0  0  0  0  0  0  0  0  0
   11.5235  -17.4662   19.6574 N   0  0  0  0  0  0  0  0  0  0  0  0
   11.0621  -16.9681   21.9842 C   0  0  0  0  0  0  0  0  0  0  0  0
   10.4966  -18.0216   22.3701 O   0  0  0  0  0  0  0  0  0  0  0  0
    7.8521  -13.9113   16.9574 N   0  0  0  0  0  0  0  0  0  0  0  0
    9.6700  -13.4198   29.4758 C   0  0  0  0  0  0  0  0  0  0  0  0
   10.1152  -14.7424   29.7619 N   0  0  0  0  0  0  0  0  0  0  0  0
   10.7343  -15.0259   30.8442 N   0  0  0  0  0  0  0  0  0  0  0  0
    9.8506  -15.7441   28.8036 C   0  0  0  0  0  0  0  0  0  0  0  0
    9.6514  -15.3000   27.3913 C   0  0  0  0  0  0  0  0  0  0  0  0
   10.6123  -16.0615   26.5661 C   0  0  0  0  0  0  0  0  0  0  0  0
   10.8390  -15.7984   25.1443 C   0  0  1  0  0  0  0  0  0  0  0  0
   11.8142  -16.5798   24.4006 N   0  0  0  0  0  0  0  0  0  0  0  0
   11.8106  -16.2617   22.9556 C   0  0  0  0  0  0  0  0  0  0  0  0
   12.0225  -17.9975   24.6170 O   0  0  0  0  0  0  0  0  0  0  0  0
   12.3191  -18.7569   23.5770 O   0  0  0  0  0  0  0  0  0  0  0  0
  2  1  1  6
  3  2  1  0
  3  4  1  0
  4  8  1  0
  4  5  2  0
  6  7  2  0
  6  2  1  0
  9 10  1  0
 10 12  1  0
 11 10  2  0
 12 13  1  0
 13 14  1  0
 14 15  1  0
 16 15  1  6
 16 17  1  0
 17  6  1  0
 18 19  2  0
 18 16  1  0
 20 21  1  0
 21 23  1  0
 21 22  2  0
 23 24  1  0
 25 24  1  0
 25 26  1  0
 27 26  1  1
 27 29  1  0
 27 28  1  0
 28 18  1  0
 29 31  1  0
 30 29  2  0
M  END
$$$$
