DRR.pdb
     RDKit          3D

 31 30  0  0  1  0  0  0  0  0999 V2000
   11.4936  -18.9960   17.2239 N   0  0  0  0  0  0  0  0  0  0  0  0
   10.6629  -19.5037   18.2833 C   0  0  1  0  0  0  0  0  0  0  0  0
   11.1602  -20.8225   18.8079 C   0  0  0  0  0  0  0  0  0  0  0  0
   11.7110  -21.6480   17.7138 C   0  0  0  0  0  0  0  0  0  0  0  0
   11.7535  -21.1583   16.5394 O   0  0  0  0  0  0  0  0  0  0  0  0
   10.6359  -18.4660   19.3664 C   0  0  0  0  0  0  0  0  0  0  0  0
   11.6900  -18.0603   19.9115 O   0  0  0  0  0  0  0  0  0  0  0  0
   12.1865  -22.9327   17.8963 O   0  0  0  0  0  0  0  0  0  0  0  0
    7.5924  -12.8385   17.8431 N   0  0  0  0  0  0  0  0  0  0  0  0
    7.6564  -12.8228   19.2619 C   0  0  0  0  0  0  0  0  0  0  0  0
    7.7829  -11.7136   19.9053 N   0  0  0  0  0  0  0  0  0  0  0  0
    7.5862  -14.0116   20.0421 N   0  0  0  0  0  0  0  0  0  0  0  0
    7.6832  -13.9416   21.4796 C   0  0  0  0  0  0  0  0  0  0  0  0
    7.7406  -15.3602   22.0293 C   0  0  0  0  0  0  0  0  0  0  0  0
    7.9825  -16.3050   20.8980 C   0  0  0  0  0  0  0  0  0  0  0  0
    9.3459  -16.9423   20.9249 C   0  0  2  0  0  0  0  0  0  0  0  0
    9.4210  -17.8958   19.8258 N   0  0  0  0  0  0  0  0  0  0  0  0
    9.6663  -17.6192   22.2212 C   0  0  0  0  0  0  0  0  0  0  0  0
    9.0560  -18.6526   22.5927 O   0  0  0  0  0  0  0  0  0  0  0  0
    7.9516  -11.7445   20.9198 N   0  0  0  0  0  0  0  0  0  0  0  0
   14.8499  -22.0269   23.7977 C   0  0  0  0  0  0  0  0  0  0  0  0
   15.5211  -21.3692   24.8685 N   0  0  0  0  0  0  0  0  0  0  0  0
   16.7892  -21.4419   25.0149 N   0  0  0  0  0  0  0  0  0  0  0  0
   14.7357  -20.6258   25.7752 C   0  0  0  0  0  0  0  0  0  0  0  0
   13.2829  -20.4819   25.4591 C   0  0  0  0  0  0  0  0  0  0  0  0
   12.9928  -19.0329   25.4402 C   0  0  0  0  0  0  0  0  0  0  0  0
   12.4192  -18.3410   24.2850 C   0  0  1  0  0  0  0  0  0  0  0  0
   11.0742  -17.7923   24.3527 N   0  0  0  0  0  0  0  0  0  0  0  0
   10.6690  -17.1311   23.0926 C   0  0  0  0  0  0  0  0  0  0  0  0
   10.5736  -17.0651   25.5019 O   0  0  0  0  0  0  0  0  0  0  0  0
   10.5698  -15.7444   25.4592 O   0  0  0  0  0  0  0  0  0  0  0  0
  2  1  1  6
  3  2  1  0
  3  4  1  0
  4  8  1  0
  4  5  2  0
  6  7  2  0
  6  2  1  0
  9 10  1  0
 10 12  1  0
 11 10  2  0
 12 13  1  0
 13 14  1  0
 14 15  1  0
 16 15  1  1
 16 17  1  0
 17  6  1  0
 18 19  2  0
 18 16  1  0
 20 21  1  0
 21 23  1  0
 21 22  2  0
 23 24  1  0
 25 24  1  0
 25 26  1  0
 27 26  1  6
 27 29  1  0
 27 28  1  0
 28 18  1  0
 29 31  1  0
 30 29  2  0
M  END
$$$$
