DRR.pdb
     RDKit          3D

 31 30  0  0  1  0  0  0  0  0999 V2000
    9.7490  -20.2647   18.3039 N   0  0  0  0  0  0  0  0  0  0  0  0
   10.8069  -19.4365   17.7890 C   0  0  1  0  0  0  0  0  0  0  0  0
   10.6406  -19.1561   16.3208 C   0  0  0  0  0  0  0  0  0  0  0  0
   10.5150  -20.4146   15.5576 C   0  0  0  0  0  0  0  0  0  0  0  0
   10.4850  -21.5164   16.1947 O   0  0  0  0  0  0  0  0  0  0  0  0
   10.8075  -18.1654   18.5858 C   0  0  0  0  0  0  0  0  0  0  0  0
   11.6507  -17.2610   18.3760 O   0  0  0  0  0  0  0  0  0  0  0  0
   10.4275  -20.4620   14.1792 O   0  0  0  0  0  0  0  0  0  0  0  0
    7.8495  -10.2576   21.0714 N   0  0  0  0  0  0  0  0  0  0  0  0
    7.8873  -11.5399   20.4620 C   0  0  0  0  0  0  0  0  0  0  0  0
    8.5974  -11.7495   19.4074 N   0  0  0  0  0  0  0  0  0  0  0  0
    7.1551  -12.6492   20.9721 N   0  0  0  0  0  0  0  0  0  0  0  0
    7.2342  -13.9323   20.3178 C   0  0  0  0  0  0  0  0  0  0  0  0
    8.5445  -14.5974   20.7162 C   0  0  0  0  0  0  0  0  0  0  0  0
    8.5604  -15.9901   20.1765 C   0  0  0  0  0  0  0  0  0  0  0  0
    9.8499  -16.7225   20.4340 C   0  0  2  0  0  0  0  0  0  0  0  0
    9.8584  -17.9257   19.6124 N   0  0  0  0  0  0  0  0  0  0  0  0
   10.0620  -17.0761   21.8732 C   0  0  0  0  0  0  0  0  0  0  0  0
    9.2696  -17.8318   22.4892 O   0  0  0  0  0  0  0  0  0  0  0  0
    8.5789  -12.6824   18.9736 N   0  0  0  0  0  0  0  0  0  0  0  0
   13.4512  -23.8614   23.5588 C   0  0  0  0  0  0  0  0  0  0  0  0
   13.8378  -23.1956   24.7575 N   0  0  0  0  0  0  0  0  0  0  0  0
   14.3442  -23.8282   25.7465 N   0  0  0  0  0  0  0  0  0  0  0  0
   13.6425  -21.7995   24.8232 C   0  0  0  0  0  0  0  0  0  0  0  0
   12.9345  -21.1560   23.6760 C   0  0  0  0  0  0  0  0  0  0  0  0
   12.7756  -19.7277   24.0209 C   0  0  0  0  0  0  0  0  0  0  0  0
   12.1353  -18.7519   23.1377 C   0  0  2  0  0  0  0  0  0  0  0  0
   11.9509  -17.3774   23.5752 N   0  0  0  0  0  0  0  0  0  0  0  0
   11.1617  -16.5783   22.6120 C   0  0  0  0  0  0  0  0  0  0  0  0
   13.0145  -16.5831   24.1565 O   0  0  0  0  0  0  0  0  0  0  0  0
   13.6830  -15.7552   23.3731 O   0  0  0  0  0  0  0  0  0  0  0  0
  2  1  1  1
  3  2  1  0
  3  4  1  0
  4  8  1  0
  4  5  2  0
  6  7  2  0
  6  2  1  0
  9 10  1  0
 10 12  1  0
 11 10  2  0
 12 13  1  0
 13 14  1  0
 14 15  1  0
 16 15  1  1
 16 17  1  0
 17  6  1  0
 18 19  2  0
 18 16  1  0
 20 21  1  0
 21 23  1  0
 21 22  2  0
 23 24  1  0
 25 24  1  0
 25 26  1  0
 27 26  1  1
 27 29  1  0
 27 28  1  0
 28 18  1  0
 29 31  1  0
 30 29  2  0
M  END
$$$$
