DRR.pdb
     RDKit          3D

 31 30  0  0  1  0  0  0  0  0999 V2000
    5.2255  -29.0836   18.1623 N   0  0  0  0  0  0  0  0  0  0  0  0
    4.7835  -28.5483   19.4226 C   0  0  1  0  0  0  0  0  0  0  0  0
    5.5379  -29.1381   20.5822 C   0  0  0  0  0  0  0  0  0  0  0  0
    5.2011  -30.5658   20.7553 C   0  0  0  0  0  0  0  0  0  0  0  0
    4.2405  -31.0546   20.0777 O   0  0  0  0  0  0  0  0  0  0  0  0
    4.9605  -27.0598   19.3627 C   0  0  0  0  0  0  0  0  0  0  0  0
    6.0271  -26.5427   18.9528 O   0  0  0  0  0  0  0  0  0  0  0  0
    5.8769  -31.4069   21.6189 O   0  0  0  0  0  0  0  0  0  0  0  0
   -1.1497  -20.8145   18.6766 N   0  0  0  0  0  0  0  0  0  0  0  0
    0.1073  -20.4222   18.1445 C   0  0  0  0  0  0  0  0  0  0  0  0
    0.1890  -19.4823   17.2669 N   0  0  0  0  0  0  0  0  0  0  0  0
    1.3293  -21.0345   18.5430 N   0  0  0  0  0  0  0  0  0  0  0  0
    1.3233  -22.0941   19.5218 C   0  0  0  0  0  0  0  0  0  0  0  0
    2.7481  -22.6036   19.6904 C   0  0  0  0  0  0  0  0  0  0  0  0
    2.7266  -24.0971   19.7007 C   0  0  0  0  0  0  0  0  0  0  0  0
    4.0936  -24.7197   19.7960 C   0  0  2  0  0  0  0  0  0  0  0  0
    3.9340  -26.1677   19.7661 N   0  0  0  0  0  0  0  0  0  0  0  0
    4.8571  -24.3074   21.0160 C   0  0  0  0  0  0  0  0  0  0  0  0
    4.6592  -24.8508   22.1313 O   0  0  0  0  0  0  0  0  0  0  0  0
    1.0998  -19.2900   16.8286 N   0  0  0  0  0  0  0  0  0  0  0  0
   12.9586  -25.4988   23.7839 C   0  0  0  0  0  0  0  0  0  0  0  0
   11.6027  -25.9330   23.8352 N   0  0  0  0  0  0  0  0  0  0  0  0
   11.2864  -27.1114   24.2178 N   0  0  0  0  0  0  0  0  0  0  0  0
   10.6056  -25.0134   23.4459 C   0  0  0  0  0  0  0  0  0  0  0  0
    9.2906  -25.0960   24.1497 C   0  0  0  0  0  0  0  0  0  0  0  0
    8.4674  -23.9764   23.6468 C   0  0  0  0  0  0  0  0  0  0  0  0
    7.5447  -24.0985   22.5172 C   0  0  2  0  0  0  0  0  0  0  0  0
    6.7460  -22.9584   22.0966 N   0  0  0  0  0  0  0  0  0  0  0  0
    5.8371  -23.2871   20.9763 C   0  0  0  0  0  0  0  0  0  0  0  0
    7.2904  -21.6239   21.9457 O   0  0  0  0  0  0  0  0  0  0  0  0
    7.0881  -20.9858   20.8064 O   0  0  0  0  0  0  0  0  0  0  0  0
  2  1  1  6
  3  2  1  0
  3  4  1  0
  4  8  1  0
  4  5  2  0
  6  7  2  0
  6  2  1  0
  9 10  1  0
 10 12  1  0
 11 10  2  0
 12 13  1  0
 13 14  1  0
 14 15  1  0
 16 15  1  1
 16 17  1  0
 17  6  1  0
 18 19  2  0
 18 16  1  0
 20 21  1  0
 21 23  1  0
 21 22  2  0
 23 24  1  0
 25 24  1  0
 25 26  1  0
 27 26  1  1
 27 29  1  0
 27 28  1  0
 28 18  1  0
 29 31  1  0
 30 29  2  0
M  END
$$$$
