DRR.pdb
     RDKit          3D

 31 30  0  0  1  0  0  0  0  0999 V2000
    9.5331  -15.4294   17.3053 N   0  0  0  0  0  0  0  0  0  0  0  0
    8.8071  -14.3918   17.9883 C   0  0  1  0  0  0  0  0  0  0  0  0
    7.8769  -13.6527   17.0661 C   0  0  0  0  0  0  0  0  0  0  0  0
    8.2721  -13.8478   15.6562 C   0  0  0  0  0  0  0  0  0  0  0  0
    9.1256  -14.7508   15.3790 O   0  0  0  0  0  0  0  0  0  0  0  0
    8.0532  -15.0392   19.1122 C   0  0  0  0  0  0  0  0  0  0  0  0
    7.4510  -14.3574   19.9756 O   0  0  0  0  0  0  0  0  0  0  0  0
    7.7619  -13.0981   14.6133 O   0  0  0  0  0  0  0  0  0  0  0  0
    8.2477  -21.6625   22.8192 N   0  0  0  0  0  0  0  0  0  0  0  0
    6.8679  -21.9960   22.8629 C   0  0  0  0  0  0  0  0  0  0  0  0
    6.3929  -22.7195   23.8176 N   0  0  0  0  0  0  0  0  0  0  0  0
    5.9451  -21.5581   21.8711 N   0  0  0  0  0  0  0  0  0  0  0  0
    6.4048  -20.7795   20.7473 C   0  0  0  0  0  0  0  0  0  0  0  0
    6.8077  -19.3995   21.2484 C   0  0  0  0  0  0  0  0  0  0  0  0
    7.1713  -18.5491   20.0755 C   0  0  0  0  0  0  0  0  0  0  0  0
    7.4501  -17.1140   20.4337 C   0  0  2  0  0  0  0  0  0  0  0  0
    7.9856  -16.4491   19.2530 N   0  0  0  0  0  0  0  0  0  0  0  0
    8.3893  -16.9554   21.5887 C   0  0  0  0  0  0  0  0  0  0  0  0
    9.5962  -17.2946   21.5072 O   0  0  0  0  0  0  0  0  0  0  0  0
    5.3921  -22.9582   23.8090 N   0  0  0  0  0  0  0  0  0  0  0  0
   10.4660  -13.3966   28.9627 C   0  0  0  0  0  0  0  0  0  0  0  0
    9.9293  -14.6524   29.3682 N   0  0  0  0  0  0  0  0  0  0  0  0
   10.1493  -15.1353   30.5315 N   0  0  0  0  0  0  0  0  0  0  0  0
    9.1380  -15.3578   28.4366 C   0  0  0  0  0  0  0  0  0  0  0  0
    9.7717  -15.7048   27.1292 C   0  0  0  0  0  0  0  0  0  0  0  0
    9.1007  -14.8839   26.0996 C   0  0  0  0  0  0  0  0  0  0  0  0
    8.2535  -15.4461   25.0468 C   0  0  2  0  0  0  0  0  0  0  0  0
    8.8272  -16.3100   24.0274 N   0  0  0  0  0  0  0  0  0  0  0  0
    7.9674  -16.4180   22.8281 C   0  0  0  0  0  0  0  0  0  0  0  0
    9.4547  -17.5809   24.3293 O   0  0  0  0  0  0  0  0  0  0  0  0
    8.6994  -18.6647   24.3618 O   0  0  0  0  0  0  0  0  0  0  0  0
  2  1  1  6
  3  2  1  0
  3  4  1  0
  4  8  1  0
  4  5  2  0
  6  7  2  0
  6  2  1  0
  9 10  1  0
 10 12  1  0
 11 10  2  0
 12 13  1  0
 13 14  1  0
 14 15  1  0
 16 15  1  6
 16 17  1  0
 17  6  1  0
 18 19  2  0
 18 16  1  0
 20 21  1  0
 21 23  1  0
 21 22  2  0
 23 24  1  0
 25 24  1  0
 25 26  1  0
 27 26  1  6
 27 29  1  0
 27 28  1  0
 28 18  1  0
 29 31  1  0
 30 29  2  0
M  END
$$$$
