DRR.pdb
     RDKit          3D

 31 30  0  0  1  0  0  0  0  0999 V2000
    9.4598  -19.2217   18.7207 N   0  0  0  0  0  0  0  0  0  0  0  0
   10.6566  -18.4714   18.4474 C   0  0  1  0  0  0  0  0  0  0  0  0
   10.6884  -17.9537   17.0357 C   0  0  0  0  0  0  0  0  0  0  0  0
   11.9993  -17.3457   16.7296 C   0  0  0  0  0  0  0  0  0  0  0  0
   12.0773  -16.5076   15.7744 O   0  0  0  0  0  0  0  0  0  0  0  0
   10.7147  -17.3460   19.4378 C   0  0  0  0  0  0  0  0  0  0  0  0
   11.8073  -16.9206   19.8828 O   0  0  0  0  0  0  0  0  0  0  0  0
   13.1548  -17.6388   17.4287 O   0  0  0  0  0  0  0  0  0  0  0  0
    7.3011  -14.8450   16.6844 N   0  0  0  0  0  0  0  0  0  0  0  0
    7.5097  -13.4442   16.5771 C   0  0  0  0  0  0  0  0  0  0  0  0
    7.6730  -12.8867   15.4269 N   0  0  0  0  0  0  0  0  0  0  0  0
    7.5500  -12.5893   17.7148 N   0  0  0  0  0  0  0  0  0  0  0  0
    7.4290  -13.1426   19.0414 C   0  0  0  0  0  0  0  0  0  0  0  0
    8.6395  -14.0266   19.3082 C   0  0  0  0  0  0  0  0  0  0  0  0
    8.4670  -14.6905   20.6351 C   0  0  0  0  0  0  0  0  0  0  0  0
    9.5474  -15.6883   20.9557 C   0  0  2  0  0  0  0  0  0  0  0  0
    9.5407  -16.7110   19.9180 N   0  0  0  0  0  0  0  0  0  0  0  0
    9.4007  -16.3185   22.3057 C   0  0  0  0  0  0  0  0  0  0  0  0
    8.4241  -17.0581   22.5844 O   0  0  0  0  0  0  0  0  0  0  0  0
    7.9054  -11.8851   15.3891 N   0  0  0  0  0  0  0  0  0  0  0  0
   11.8313  -24.0207   26.4235 C   0  0  0  0  0  0  0  0  0  0  0  0
   11.6529  -23.1983   25.2739 N   0  0  0  0  0  0  0  0  0  0  0  0
   11.6939  -23.6778   24.0893 N   0  0  0  0  0  0  0  0  0  0  0  0
   11.4272  -21.8210   25.4828 C   0  0  0  0  0  0  0  0  0  0  0  0
   11.1340  -20.9883   24.2778 C   0  0  0  0  0  0  0  0  0  0  0  0
   11.0312  -19.5890   24.7419 C   0  0  0  0  0  0  0  0  0  0  0  0
   10.7882  -18.4583   23.8449 C   0  0  2  0  0  0  0  0  0  0  0  0
   10.6791  -17.1098   24.3782 N   0  0  0  0  0  0  0  0  0  0  0  0
   10.3507  -16.1137   23.3345 C   0  0  0  0  0  0  0  0  0  0  0  0
   11.6144  -16.5615   25.3397 O   0  0  0  0  0  0  0  0  0  0  0  0
   12.6477  -15.8710   24.8907 O   0  0  0  0  0  0  0  0  0  0  0  0
  2  1  1  6
  3  2  1  0
  3  4  1  0
  4  8  1  0
  4  5  2  0
  6  7  2  0
  6  2  1  0
  9 10  1  0
 10 12  1  0
 11 10  2  0
 12 13  1  0
 13 14  1  0
 14 15  1  0
 16 15  1  6
 16 17  1  0
 17  6  1  0
 18 19  2  0
 18 16  1  0
 20 21  1  0
 21 23  1  0
 21 22  2  0
 23 24  1  0
 25 24  1  0
 25 26  1  0
 27 26  1  1
 27 29  1  0
 27 28  1  0
 28 18  1  0
 29 31  1  0
 30 29  2  0
M  END
$$$$
