DRR.pdb
     RDKit          3D

 31 30  0  0  1  0  0  0  0  0999 V2000
   12.5230  -16.6396   16.0617 N   0  0  0  0  0  0  0  0  0  0  0  0
   11.1297  -16.5073   16.3950 C   0  0  1  0  0  0  0  0  0  0  0  0
   10.2379  -17.1021   15.3401 C   0  0  0  0  0  0  0  0  0  0  0  0
   10.1614  -16.2183   14.1590 C   0  0  0  0  0  0  0  0  0  0  0  0
   11.2230  -15.6437   13.7547 O   0  0  0  0  0  0  0  0  0  0  0  0
   10.9214  -17.1781   17.7206 C   0  0  0  0  0  0  0  0  0  0  0  0
    9.8006  -17.1835   18.2834 O   0  0  0  0  0  0  0  0  0  0  0  0
    8.9915  -15.9793   13.4631 O   0  0  0  0  0  0  0  0  0  0  0  0
   13.9504  -22.0305   21.4658 N   0  0  0  0  0  0  0  0  0  0  0  0
   14.3095  -22.8964   20.3988 C   0  0  0  0  0  0  0  0  0  0  0  0
   14.4719  -24.1589   20.5986 N   0  0  0  0  0  0  0  0  0  0  0  0
   14.5079  -22.4274   19.0693 N   0  0  0  0  0  0  0  0  0  0  0  0
   14.3546  -21.0258   18.7650 C   0  0  0  0  0  0  0  0  0  0  0  0
   12.9374  -20.6049   19.1286 C   0  0  0  0  0  0  0  0  0  0  0  0
   13.0012  -19.3567   19.9465 C   0  0  0  0  0  0  0  0  0  0  0  0
   11.8373  -18.4288   19.7236 C   0  0  2  0  0  0  0  0  0  0  0  0
   11.9786  -17.8361   18.4001 N   0  0  0  0  0  0  0  0  0  0  0  0
   11.7172  -17.3567   20.7616 C   0  0  0  0  0  0  0  0  0  0  0  0
   12.6455  -16.5365   20.9713 O   0  0  0  0  0  0  0  0  0  0  0  0
   14.7334  -24.7578   19.8038 N   0  0  0  0  0  0  0  0  0  0  0  0
    8.5977  -12.2861   20.0658 C   0  0  0  0  0  0  0  0  0  0  0  0
    7.7348  -13.0124   19.1956 N   0  0  0  0  0  0  0  0  0  0  0  0
    7.5850  -12.6860   17.9684 N   0  0  0  0  0  0  0  0  0  0  0  0
    7.0403  -14.1168   19.7340 C   0  0  0  0  0  0  0  0  0  0  0  0
    7.2393  -14.4044   21.1862 C   0  0  0  0  0  0  0  0  0  0  0  0
    8.5673  -15.0398   21.3163 C   0  0  0  0  0  0  0  0  0  0  0  0
    9.0964  -15.5489   22.5824 C   0  0  2  0  0  0  0  0  0  0  0  0
   10.3959  -16.2001   22.6249 N   0  0  0  0  0  0  0  0  0  0  0  0
   10.5563  -17.2128   21.5582 C   0  0  0  0  0  0  0  0  0  0  0  0
   11.0184  -16.6436   23.8561 O   0  0  0  0  0  0  0  0  0  0  0  0
   11.0560  -17.9394   24.1122 O   0  0  0  0  0  0  0  0  0  0  0  0
  2  1  1  6
  3  2  1  0
  3  4  1  0
  4  8  1  0
  4  5  2  0
  6  7  2  0
  6  2  1  0
  9 10  1  0
 10 12  1  0
 11 10  2  0
 12 13  1  0
 13 14  1  0
 14 15  1  0
 16 15  1  1
 16 17  1  0
 17  6  1  0
 18 19  2  0
 18 16  1  0
 20 21  1  0
 21 23  1  0
 21 22  2  0
 23 24  1  0
 25 24  1  0
 25 26  1  0
 27 26  1  6
 27 29  1  0
 27 28  1  0
 28 18  1  0
 29 31  1  0
 30 29  2  0
M  END
$$$$
