DRR.pdb
     RDKit          3D

 31 30  0  0  1  0  0  0  0  0999 V2000
    6.4126  -20.5043   20.2622 N   0  0  0  0  0  0  0  0  0  0  0  0
    7.7017  -20.5270   19.6236 C   0  0  1  0  0  0  0  0  0  0  0  0
    7.5944  -20.7737   18.1439 C   0  0  0  0  0  0  0  0  0  0  0  0
    6.2580  -21.2975   17.7952 C   0  0  0  0  0  0  0  0  0  0  0  0
    5.3712  -21.3673   18.7059 O   0  0  0  0  0  0  0  0  0  0  0  0
    8.3637  -19.2107   19.9061 C   0  0  0  0  0  0  0  0  0  0  0  0
    9.5782  -19.0214   19.6570 O   0  0  0  0  0  0  0  0  0  0  0  0
    5.9148  -21.7193   16.5247 O   0  0  0  0  0  0  0  0  0  0  0  0
   10.1373  -12.3274   18.2846 N   0  0  0  0  0  0  0  0  0  0  0  0
    8.7213  -12.4348   18.3037 C   0  0  0  0  0  0  0  0  0  0  0  0
    8.0639  -12.6964   17.2268 N   0  0  0  0  0  0  0  0  0  0  0  0
    7.9588  -12.2624   19.4937 N   0  0  0  0  0  0  0  0  0  0  0  0
    7.1166  -13.3297   19.9755 C   0  0  0  0  0  0  0  0  0  0  0  0
    7.9992  -14.3829   20.6310 C   0  0  0  0  0  0  0  0  0  0  0  0
    7.4575  -15.7358   20.3036 C   0  0  0  0  0  0  0  0  0  0  0  0
    8.2801  -16.8664   20.8611 C   0  0  2  0  0  0  0  0  0  0  0  0
    7.6510  -18.1202   20.4673 N   0  0  0  0  0  0  0  0  0  0  0  0
    8.4434  -16.8131   22.3483 C   0  0  0  0  0  0  0  0  0  0  0  0
    7.5151  -17.1498   23.1250 O   0  0  0  0  0  0  0  0  0  0  0  0
    7.0458  -12.8329   17.2872 N   0  0  0  0  0  0  0  0  0  0  0  0
   11.0510  -22.4314   25.8830 C   0  0  0  0  0  0  0  0  0  0  0  0
   12.3207  -22.3084   25.2486 N   0  0  0  0  0  0  0  0  0  0  0  0
   13.3291  -23.0017   25.6190 N   0  0  0  0  0  0  0  0  0  0  0  0
   12.4352  -21.3868   24.1860 C   0  0  0  0  0  0  0  0  0  0  0  0
   12.3871  -19.9352   24.5352 C   0  0  0  0  0  0  0  0  0  0  0  0
   10.9592  -19.5591   24.5965 C   0  0  0  0  0  0  0  0  0  0  0  0
   10.3365  -18.6067   23.6758 C   0  0  2  0  0  0  0  0  0  0  0  0
   10.4234  -17.1776   23.9301 N   0  0  0  0  0  0  0  0  0  0  0  0
    9.6474  -16.3812   22.9540 C   0  0  0  0  0  0  0  0  0  0  0  0
   11.6626  -16.5093   24.2733 O   0  0  0  0  0  0  0  0  0  0  0  0
   12.3047  -15.8472   23.3270 O   0  0  0  0  0  0  0  0  0  0  0  0
  2  1  1  6
  3  2  1  0
  3  4  1  0
  4  8  1  0
  4  5  2  0
  6  7  2  0
  6  2  1  0
  9 10  1  0
 10 12  1  0
 11 10  2  0
 12 13  1  0
 13 14  1  0
 14 15  1  0
 16 15  1  1
 16 17  1  0
 17  6  1  0
 18 19  2  0
 18 16  1  0
 20 21  1  0
 21 23  1  0
 21 22  2  0
 23 24  1  0
 25 24  1  0
 25 26  1  0
 27 26  1  1
 27 29  1  0
 27 28  1  0
 28 18  1  0
 29 31  1  0
 30 29  2  0
M  END
$$$$
