DRR.pdb
     RDKit          3D

 31 30  0  0  1  0  0  0  0  0999 V2000
    8.8434  -15.8015   14.5528 N   0  0  0  0  0  0  0  0  0  0  0  0
   10.2684  -15.9673   14.6623 C   0  0  1  0  0  0  0  0  0  0  0  0
   10.9949  -15.4100   13.4691 C   0  0  0  0  0  0  0  0  0  0  0  0
   11.3174  -16.4811   12.5045 C   0  0  0  0  0  0  0  0  0  0  0  0
   10.4061  -17.3096   12.1823 O   0  0  0  0  0  0  0  0  0  0  0  0
   10.7018  -15.2857   15.9265 C   0  0  0  0  0  0  0  0  0  0  0  0
   11.8906  -15.3354   16.3232 O   0  0  0  0  0  0  0  0  0  0  0  0
   12.5640  -16.6344   11.9277 O   0  0  0  0  0  0  0  0  0  0  0  0
    6.9358  -16.3612   21.9950 N   0  0  0  0  0  0  0  0  0  0  0  0
    6.7892  -14.9569   22.1486 C   0  0  0  0  0  0  0  0  0  0  0  0
    6.8116  -14.4142   23.3171 N   0  0  0  0  0  0  0  0  0  0  0  0
    6.6118  -14.0822   21.0394 N   0  0  0  0  0  0  0  0  0  0  0  0
    7.7422  -13.3812   20.4814 C   0  0  0  0  0  0  0  0  0  0  0  0
    7.8563  -13.7450   19.0074 C   0  0  0  0  0  0  0  0  0  0  0  0
    9.0362  -13.0363   18.4271 C   0  0  0  0  0  0  0  0  0  0  0  0
   10.1506  -13.9591   18.0124 C   0  0  2  0  0  0  0  0  0  0  0  0
    9.7914  -14.5551   16.7323 N   0  0  0  0  0  0  0  0  0  0  0  0
   10.4492  -15.0285   19.0166 C   0  0  0  0  0  0  0  0  0  0  0  0
   10.1106  -16.2234   18.8262 O   0  0  0  0  0  0  0  0  0  0  0  0
    6.8117  -13.3877   23.3880 N   0  0  0  0  0  0  0  0  0  0  0  0
   19.1577  -14.2091   19.8338 C   0  0  0  0  0  0  0  0  0  0  0  0
   17.7611  -13.9862   19.6624 N   0  0  0  0  0  0  0  0  0  0  0  0
   17.3145  -13.0683   18.8925 N   0  0  0  0  0  0  0  0  0  0  0  0
   16.8728  -14.8182   20.3768 C   0  0  0  0  0  0  0  0  0  0  0  0
   16.0103  -15.7393   19.5773 C   0  0  0  0  0  0  0  0  0  0  0  0
   14.7536  -15.9114   20.3357 C   0  0  0  0  0  0  0  0  0  0  0  0
   13.5020  -15.2387   19.9847 C   0  0  2  0  0  0  0  0  0  0  0  0
   12.2860  -15.5161   20.7323 N   0  0  0  0  0  0  0  0  0  0  0  0
   11.1250  -14.7497   20.2284 C   0  0  0  0  0  0  0  0  0  0  0  0
   12.2516  -15.6154   22.1777 O   0  0  0  0  0  0  0  0  0  0  0  0
   11.6198  -14.6759   22.8591 O   0  0  0  0  0  0  0  0  0  0  0  0
  2  1  1  6
  3  2  1  0
  3  4  1  0
  4  8  1  0
  4  5  2  0
  6  7  2  0
  6  2  1  0
  9 10  1  0
 10 12  1  0
 11 10  2  0
 12 13  1  0
 13 14  1  0
 14 15  1  0
 16 15  1  1
 16 17  1  0
 17  6  1  0
 18 19  2  0
 18 16  1  0
 20 21  1  0
 21 23  1  0
 21 22  2  0
 23 24  1  0
 25 24  1  0
 25 26  1  0
 27 26  1  6
 27 29  1  0
 27 28  1  0
 28 18  1  0
 29 31  1  0
 30 29  2  0
M  END
$$$$
