DRR.pdb
     RDKit          3D

 31 30  0  0  1  0  0  0  0  0999 V2000
   14.5431  -16.0532   18.2084 N   0  0  0  0  0  0  0  0  0  0  0  0
   14.8312  -15.1680   19.3054 C   0  0  1  0  0  0  0  0  0  0  0  0
   15.4365  -13.8719   18.8410 C   0  0  0  0  0  0  0  0  0  0  0  0
   16.7514  -14.1041   18.2092 C   0  0  0  0  0  0  0  0  0  0  0  0
   17.5486  -14.9400   18.7443 O   0  0  0  0  0  0  0  0  0  0  0  0
   13.5441  -14.9317   20.0391 C   0  0  0  0  0  0  0  0  0  0  0  0
   13.4911  -14.1854   21.0456 O   0  0  0  0  0  0  0  0  0  0  0  0
   17.1669  -13.4587   17.0599 O   0  0  0  0  0  0  0  0  0  0  0  0
    6.7977  -13.3180   18.7015 N   0  0  0  0  0  0  0  0  0  0  0  0
    7.2517  -13.4329   17.3607 C   0  0  0  0  0  0  0  0  0  0  0  0
    7.1667  -12.4376   16.5468 N   0  0  0  0  0  0  0  0  0  0  0  0
    7.8171  -14.6342   16.8467 N   0  0  0  0  0  0  0  0  0  0  0  0
    8.3515  -15.6265   17.7470 C   0  0  0  0  0  0  0  0  0  0  0  0
    9.3910  -14.9604   18.6379 C   0  0  0  0  0  0  0  0  0  0  0  0
    9.9752  -15.9904   19.5483 C   0  0  0  0  0  0  0  0  0  0  0  0
   11.0968  -15.4706   20.4069 C   0  0  2  0  0  0  0  0  0  0  0  0
   12.3287  -15.5393   19.6319 N   0  0  0  0  0  0  0  0  0  0  0  0
   11.2554  -16.2098   21.6991 C   0  0  0  0  0  0  0  0  0  0  0  0
   11.9422  -17.2589   21.7774 O   0  0  0  0  0  0  0  0  0  0  0  0
    7.5230  -12.5484   15.5879 N   0  0  0  0  0  0  0  0  0  0  0  0
    9.7903  -14.4610   30.5489 C   0  0  0  0  0  0  0  0  0  0  0  0
   10.7803  -15.4657   30.3489 N   0  0  0  0  0  0  0  0  0  0  0  0
   11.5843  -15.8145   31.2799 N   0  0  0  0  0  0  0  0  0  0  0  0
   10.8496  -16.0726   29.0766 C   0  0  0  0  0  0  0  0  0  0  0  0
   10.6426  -15.1906   27.8890 C   0  0  0  0  0  0  0  0  0  0  0  0
   10.7704  -16.0496   26.6932 C   0  0  0  0  0  0  0  0  0  0  0  0
   10.6299  -15.5512   25.3243 C   0  0  2  0  0  0  0  0  0  0  0  0
   10.7513  -16.4615   24.1967 N   0  0  0  0  0  0  0  0  0  0  0  0
   10.6412  -15.7670   22.8948 C   0  0  0  0  0  0  0  0  0  0  0  0
   10.0976  -17.7540   24.1498 O   0  0  0  0  0  0  0  0  0  0  0  0
    9.0176  -17.8871   23.4002 O   0  0  0  0  0  0  0  0  0  0  0  0
  2  1  1  6
  3  2  1  0
  3  4  1  0
  4  8  1  0
  4  5  2  0
  6  7  2  0
  6  2  1  0
  9 10  1  0
 10 12  1  0
 11 10  2  0
 12 13  1  0
 13 14  1  0
 14 15  1  0
 16 15  1  6
 16 17  1  0
 17  6  1  0
 18 19  2  0
 18 16  1  0
 20 21  1  0
 21 23  1  0
 21 22  2  0
 23 24  1  0
 25 24  1  0
 25 26  1  0
 27 26  1  6
 27 29  1  0
 27 28  1  0
 28 18  1  0
 29 31  1  0
 30 29  2  0
M  END
$$$$
