DRR.pdb
     RDKit          3D

 31 30  0  0  1  0  0  0  0  0999 V2000
   14.5243  -14.1093   18.4337 N   0  0  0  0  0  0  0  0  0  0  0  0
   13.4183  -15.0184   18.5769 C   0  0  1  0  0  0  0  0  0  0  0  0
   13.8746  -16.4440   18.7224 C   0  0  0  0  0  0  0  0  0  0  0  0
   14.1917  -17.0302   17.4042 C   0  0  0  0  0  0  0  0  0  0  0  0
   15.4095  -17.2615   17.1141 O   0  0  0  0  0  0  0  0  0  0  0  0
   12.6298  -14.5778   19.7747 C   0  0  0  0  0  0  0  0  0  0  0  0
   13.1934  -14.2521   20.8466 O   0  0  0  0  0  0  0  0  0  0  0  0
   13.2315  -17.3440   16.4611 O   0  0  0  0  0  0  0  0  0  0  0  0
    8.9416  -15.0252   16.7314 N   0  0  0  0  0  0  0  0  0  0  0  0
    8.1818  -13.9410   16.2173 C   0  0  0  0  0  0  0  0  0  0  0  0
    8.0403  -13.7771   14.9471 N   0  0  0  0  0  0  0  0  0  0  0  0
    7.5436  -12.9885   17.0612 N   0  0  0  0  0  0  0  0  0  0  0  0
    7.5840  -13.1482   18.4942 C   0  0  0  0  0  0  0  0  0  0  0  0
    8.9756  -13.6237   18.8880 C   0  0  0  0  0  0  0  0  0  0  0  0
    9.1140  -13.5290   20.3723 C   0  0  0  0  0  0  0  0  0  0  0  0
   10.4120  -14.0845   20.8941 C   0  0  2  0  0  0  0  0  0  0  0  0
   11.2131  -14.5090   19.7535 N   0  0  0  0  0  0  0  0  0  0  0  0
   10.2360  -15.2190   21.8550 C   0  0  0  0  0  0  0  0  0  0  0  0
   10.2652  -16.4156   21.4732 O   0  0  0  0  0  0  0  0  0  0  0  0
    7.5495  -12.9394   14.6062 N   0  0  0  0  0  0  0  0  0  0  0  0
   10.9535  -16.3162   30.8638 C   0  0  0  0  0  0  0  0  0  0  0  0
   11.6939  -17.1800   30.0064 N   0  0  0  0  0  0  0  0  0  0  0  0
   12.7434  -17.7903   30.4077 N   0  0  0  0  0  0  0  0  0  0  0  0
   11.2301  -17.3445   28.6837 C   0  0  0  0  0  0  0  0  0  0  0  0
   10.4333  -16.2255   28.0971 C   0  0  0  0  0  0  0  0  0  0  0  0
   10.1429  -16.5980   26.6968 C   0  0  0  0  0  0  0  0  0  0  0  0
   10.1742  -15.6450   25.5864 C   0  0  2  0  0  0  0  0  0  0  0  0
    9.8598  -16.0826   24.2357 N   0  0  0  0  0  0  0  0  0  0  0  0
   10.0274  -15.0029   23.2379 C   0  0  0  0  0  0  0  0  0  0  0  0
    8.7099  -16.9054   23.9184 O   0  0  0  0  0  0  0  0  0  0  0  0
    7.5935  -16.3088   23.5390 O   0  0  0  0  0  0  0  0  0  0  0  0
  2  1  1  1
  3  2  1  0
  3  4  1  0
  4  8  1  0
  4  5  2  0
  6  7  2  0
  6  2  1  0
  9 10  1  0
 10 12  1  0
 11 10  2  0
 12 13  1  0
 13 14  1  0
 14 15  1  0
 16 15  1  6
 16 17  1  0
 17  6  1  0
 18 19  2  0
 18 16  1  0
 20 21  1  0
 21 23  1  0
 21 22  2  0
 23 24  1  0
 25 24  1  0
 25 26  1  0
 27 26  1  6
 27 29  1  0
 27 28  1  0
 28 18  1  0
 29 31  1  0
 30 29  2  0
M  END
$$$$
