DRR.pdb
     RDKit          3D

 31 30  0  0  1  0  0  0  0  0999 V2000
   11.2720  -17.8234   19.1016 N   0  0  0  0  0  0  0  0  0  0  0  0
   12.2172  -17.5543   20.1525 C   0  0  1  0  0  0  0  0  0  0  0  0
   13.4873  -16.9442   19.6268 C   0  0  0  0  0  0  0  0  0  0  0  0
   14.3427  -17.9725   19.0000 C   0  0  0  0  0  0  0  0  0  0  0  0
   13.8002  -19.0411   18.5703 O   0  0  0  0  0  0  0  0  0  0  0  0
   11.5450  -16.6417   21.1354 C   0  0  0  0  0  0  0  0  0  0  0  0
   12.1712  -16.1435   22.1010 O   0  0  0  0  0  0  0  0  0  0  0  0
   15.7102  -17.8372   18.8531 O   0  0  0  0  0  0  0  0  0  0  0  0
    8.4625  -12.4716   17.5865 N   0  0  0  0  0  0  0  0  0  0  0  0
    7.7962  -13.7252   17.6267 C   0  0  0  0  0  0  0  0  0  0  0  0
    7.9244  -14.5727   16.6646 N   0  0  0  0  0  0  0  0  0  0  0  0
    6.9619  -14.1114   18.7138 N   0  0  0  0  0  0  0  0  0  0  0  0
    7.0544  -13.4233   19.9782 C   0  0  0  0  0  0  0  0  0  0  0  0
    8.3727  -13.8022   20.6387 C   0  0  0  0  0  0  0  0  0  0  0  0
    8.1701  -15.0487   21.4365 C   0  0  0  0  0  0  0  0  0  0  0  0
    9.4351  -15.5830   22.0530 C   0  0  2  0  0  0  0  0  0  0  0  0
   10.1731  -16.2997   21.0213 N   0  0  0  0  0  0  0  0  0  0  0  0
    9.1980  -16.4726   23.2335 C   0  0  0  0  0  0  0  0  0  0  0  0
    8.9381  -17.6940   23.0957 O   0  0  0  0  0  0  0  0  0  0  0  0
    7.4086  -15.4617   16.7140 N   0  0  0  0  0  0  0  0  0  0  0  0
   12.0729  -20.6667   29.2953 C   0  0  0  0  0  0  0  0  0  0  0  0
   11.0585  -20.1346   30.1423 N   0  0  0  0  0  0  0  0  0  0  0  0
   10.8279  -20.6180   31.3034 N   0  0  0  0  0  0  0  0  0  0  0  0
   10.3052  -19.0445   29.6566 C   0  0  0  0  0  0  0  0  0  0  0  0
   10.7608  -18.4166   28.3801 C   0  0  0  0  0  0  0  0  0  0  0  0
    9.8153  -17.3200   28.0838 C   0  0  0  0  0  0  0  0  0  0  0  0
    9.8683  -16.5190   26.8600 C   0  0  2  0  0  0  0  0  0  0  0  0
    8.9568  -16.7974   25.7617 N   0  0  0  0  0  0  0  0  0  0  0  0
    9.2531  -15.9851   24.5610 C   0  0  0  0  0  0  0  0  0  0  0  0
    7.5271  -16.9528   25.9404 O   0  0  0  0  0  0  0  0  0  0  0  0
    6.7257  -16.0258   25.4458 O   0  0  0  0  0  0  0  0  0  0  0  0
  2  1  1  6
  3  2  1  0
  3  4  1  0
  4  8  1  0
  4  5  2  0
  6  7  2  0
  6  2  1  0
  9 10  1  0
 10 12  1  0
 11 10  2  0
 12 13  1  0
 13 14  1  0
 14 15  1  0
 16 15  1  6
 16 17  1  0
 17  6  1  0
 18 19  2  0
 18 16  1  0
 20 21  1  0
 21 23  1  0
 21 22  2  0
 23 24  1  0
 25 24  1  0
 25 26  1  0
 27 26  1  6
 27 29  1  0
 27 28  1  0
 28 18  1  0
 29 31  1  0
 30 29  2  0
M  END
$$$$
