DRR.pdb
     RDKit          3D

 31 30  0  0  1  0  0  0  0  0999 V2000
    8.4628  -16.5664   16.6388 N   0  0  0  0  0  0  0  0  0  0  0  0
    9.0022  -15.6592   17.6166 C   0  0  1  0  0  0  0  0  0  0  0  0
    8.2487  -14.3582   17.6560 C   0  0  0  0  0  0  0  0  0  0  0  0
    8.3518  -13.6534   16.3620 C   0  0  0  0  0  0  0  0  0  0  0  0
    8.9997  -14.2043   15.4147 O   0  0  0  0  0  0  0  0  0  0  0  0
    8.9528  -16.3535   18.9457 C   0  0  0  0  0  0  0  0  0  0  0  0
    7.8903  -16.8558   19.3834 O   0  0  0  0  0  0  0  0  0  0  0  0
    7.7788  -12.4190   16.1212 O   0  0  0  0  0  0  0  0  0  0  0  0
   14.9790  -21.5365   19.4849 N   0  0  0  0  0  0  0  0  0  0  0  0
   13.7200  -21.8134   18.8888 C   0  0  0  0  0  0  0  0  0  0  0  0
   13.5652  -22.8319   18.1147 N   0  0  0  0  0  0  0  0  0  0  0  0
   12.5755  -20.9955   19.1079 N   0  0  0  0  0  0  0  0  0  0  0  0
   12.6203  -19.9326   20.0821 C   0  0  0  0  0  0  0  0  0  0  0  0
   11.2951  -19.1844   20.0417 C   0  0  0  0  0  0  0  0  0  0  0  0
   11.3333  -18.0837   21.0508 C   0  0  0  0  0  0  0  0  0  0  0  0
   10.1123  -17.2038   21.0307 C   0  0  2  0  0  0  0  0  0  0  0  0
   10.1013  -16.4746   19.7694 N   0  0  0  0  0  0  0  0  0  0  0  0
   10.0414  -16.2494   22.1820 C   0  0  0  0  0  0  0  0  0  0  0  0
   10.7951  -15.2467   22.2532 O   0  0  0  0  0  0  0  0  0  0  0  0
   12.6396  -23.0038   17.6994 N   0  0  0  0  0  0  0  0  0  0  0  0
    4.9002   -9.7657   25.4605 C   0  0  0  0  0  0  0  0  0  0  0  0
    5.5265  -10.8395   26.1563 N   0  0  0  0  0  0  0  0  0  0  0  0
    5.3723  -11.0084   27.4144 N   0  0  0  0  0  0  0  0  0  0  0  0
    6.3333  -11.7228   25.4076 C   0  0  0  0  0  0  0  0  0  0  0  0
    6.0824  -13.1853   25.5788 C   0  0  0  0  0  0  0  0  0  0  0  0
    7.3930  -13.8585   25.4639 C   0  0  0  0  0  0  0  0  0  0  0  0
    7.7455  -14.7531   24.3605 C   0  0  1  0  0  0  0  0  0  0  0  0
    8.9905  -15.5037   24.3944 N   0  0  0  0  0  0  0  0  0  0  0  0
    9.1257  -16.4272   23.2463 C   0  0  0  0  0  0  0  0  0  0  0  0
    9.5210  -16.1014   25.6034 O   0  0  0  0  0  0  0  0  0  0  0  0
    9.2557  -17.3728   25.8467 O   0  0  0  0  0  0  0  0  0  0  0  0
  2  1  1  6
  3  2  1  0
  3  4  1  0
  4  8  1  0
  4  5  2  0
  6  7  2  0
  6  2  1  0
  9 10  1  0
 10 12  1  0
 11 10  2  0
 12 13  1  0
 13 14  1  0
 14 15  1  0
 16 15  1  1
 16 17  1  0
 17  6  1  0
 18 19  2  0
 18 16  1  0
 20 21  1  0
 21 23  1  0
 21 22  2  0
 23 24  1  0
 25 24  1  0
 25 26  1  0
 27 26  1  6
 27 29  1  0
 27 28  1  0
 28 18  1  0
 29 31  1  0
 30 29  2  0
M  END
$$$$
