WGT.pdb
     RDKit          3D

 26 27  0  0  1  0  0  0  0  0999 V2000
   25.1869  -20.3834  -11.4101 N   0  0  0  0  0  0  0  0  0  0  0  0
   26.6322  -20.3171  -11.2603 C   0  0  1  0  0  0  0  0  0  0  0  0
   26.9975  -21.2976  -10.1623 C   0  0  0  0  0  0  0  0  0  0  0  0
   26.6073  -20.8259   -8.8228 C   0  0  0  0  0  0  0  0  0  0  0  0
   25.3344  -20.6513   -8.3473 C   0  0  0  0  0  0  0  0  0  0  0  0
   25.3631  -20.2060   -7.0749 N   0  0  0  0  0  0  0  0  0  0  0  0
   26.6674  -20.0898   -6.7192 C   0  0  0  0  0  0  0  0  0  0  0  0
   27.2356  -19.6762   -5.5275 C   0  0  0  0  0  0  0  0  0  0  0  0
   28.6104  -19.6429   -5.4071 C   0  0  0  0  0  0  0  0  0  0  0  0
   29.4142  -20.0154   -6.4567 C   0  0  0  0  0  0  0  0  0  0  0  0
   28.8103  -20.4228   -7.6313 C   0  0  0  0  0  0  0  0  0  0  0  0
   27.4526  -20.4721   -7.7970 C   0  0  0  0  0  0  0  0  0  0  0  0
   27.3338  -20.6055  -12.5201 C   0  0  0  0  0  0  0  0  0  0  0  0
   27.9671  -21.6821  -12.6403 O   0  0  0  0  0  0  0  0  0  0  0  0
   27.3227  -19.7069  -13.6143 N   0  0  0  0  0  0  0  0  0  0  0  0
   28.0708  -19.9062  -14.8260 C   0  0  0  0  0  0  0  0  0  0  0  0
   27.2941  -20.7370  -15.7727 C   0  0  0  0  0  0  0  0  0  0  0  0
   27.7623  -20.9930  -16.9442 O   0  0  0  0  0  0  0  0  0  0  0  0
   26.0821  -24.3102  -15.4845 C   0  0  0  0  0  0  0  0  0  0  0  0
   24.9016  -23.4605  -15.8760 C   0  0  1  0  0  0  0  0  0  0  0  0
   24.1567  -23.2295  -14.7202 O   0  0  0  0  0  0  0  0  0  0  0  0
   25.3382  -22.1481  -16.4964 C   0  0  2  0  0  0  0  0  0  0  0  0
   26.0302  -21.3155  -15.5222 N   0  0  0  0  0  0  0  0  0  0  0  0
   24.2213  -21.4381  -17.1358 C   0  0  0  0  0  0  0  0  0  0  0  0
   23.4290  -21.9829  -18.1288 O   0  0  0  0  0  0  0  0  0  0  0  0
   23.9642  -20.2651  -16.7634 O   0  0  0  0  0  0  0  0  0  0  0  0
  2  1  1  6
  3  2  1  0
  4  3  1  0
  5  4  2  0
  6  7  1  0
  6  5  1  0
  7 12  2  0
  8  7  1  0
  8  9  2  0
  9 10  1  0
 10 11  2  0
 12  4  1  0
 12 11  1  0
 13 15  1  0
 13  2  1  0
 14 13  2  0
 16 15  1  0
 17 16  1  0
 18 17  2  0
 20 19  1  1
 20 22  1  0
 21 20  1  0
 22 24  1  0
 22 23  1  1
 23 17  1  0
 24 25  1  0
 26 24  2  0
M  END
$$$$
