WGT.pdb
     RDKit          3D

 26 27  0  0  1  0  0  0  0  0999 V2000
   25.1761  -19.8381  -11.7812 N   0  0  0  0  0  0  0  0  0  0  0  0
   26.0352  -20.9923  -11.9951 C   0  0  1  0  0  0  0  0  0  0  0  0
   26.0177  -21.7881  -10.7040 C   0  0  0  0  0  0  0  0  0  0  0  0
   26.4261  -20.9896   -9.5358 C   0  0  0  0  0  0  0  0  0  0  0  0
   25.6068  -20.3129   -8.6710 C   0  0  0  0  0  0  0  0  0  0  0  0
   26.3340  -19.6932   -7.7197 N   0  0  0  0  0  0  0  0  0  0  0  0
   27.6392  -19.9694   -7.9679 C   0  0  0  0  0  0  0  0  0  0  0  0
   28.7804  -19.5768   -7.2916 C   0  0  0  0  0  0  0  0  0  0  0  0
   30.0154  -19.9940   -7.7458 C   0  0  0  0  0  0  0  0  0  0  0  0
   30.1188  -20.7921   -8.8587 C   0  0  0  0  0  0  0  0  0  0  0  0
   28.9567  -21.1640   -9.5080 C   0  0  0  0  0  0  0  0  0  0  0  0
   27.7112  -20.7751   -9.0949 C   0  0  0  0  0  0  0  0  0  0  0  0
   25.6070  -21.7957  -13.1499 C   0  0  0  0  0  0  0  0  0  0  0  0
   24.4104  -21.7475  -13.5244 O   0  0  0  0  0  0  0  0  0  0  0  0
   26.5011  -22.6301  -13.8634 N   0  0  0  0  0  0  0  0  0  0  0  0
   26.1758  -23.2839  -15.1021 C   0  0  0  0  0  0  0  0  0  0  0  0
   25.0207  -24.1890  -14.9117 C   0  0  0  0  0  0  0  0  0  0  0  0
   25.1064  -25.1867  -14.1028 O   0  0  0  0  0  0  0  0  0  0  0  0
   21.0589  -23.2470  -14.4834 C   0  0  0  0  0  0  0  0  0  0  0  0
   21.3273  -24.3097  -15.5166 C   0  0  1  0  0  0  0  0  0  0  0  0
   21.3053  -23.6884  -16.7646 O   0  0  0  0  0  0  0  0  0  0  0  0
   22.6627  -24.9891  -15.2862 C   0  0  2  0  0  0  0  0  0  0  0  0
   23.7654  -24.0745  -15.5487 N   0  0  0  0  0  0  0  0  0  0  0  0
   22.7881  -26.2391  -16.0493 C   0  0  0  0  0  0  0  0  0  0  0  0
   21.9830  -27.3455  -15.8540 O   0  0  0  0  0  0  0  0  0  0  0  0
   23.6778  -26.3149  -16.9345 O   0  0  0  0  0  0  0  0  0  0  0  0
  2  1  1  1
  3  2  1  0
  4  3  1  0
  5  4  2  0
  6  7  1  0
  6  5  1  0
  7 12  2  0
  8  7  1  0
  8  9  2  0
  9 10  1  0
 10 11  2  0
 12  4  1  0
 12 11  1  0
 13 15  1  0
 13  2  1  0
 14 13  2  0
 16 15  1  0
 17 16  1  0
 18 17  2  0
 20 19  1  1
 20 22  1  0
 21 20  1  0
 22 24  1  0
 22 23  1  6
 23 17  1  0
 24 25  1  0
 26 24  2  0
M  END
$$$$
