WGT.pdb
     RDKit          3D

 26 27  0  0  1  0  0  0  0  0999 V2000
   24.7143  -20.6218   -8.9234 N   0  0  0  0  0  0  0  0  0  0  0  0
   26.0892  -20.2408   -9.2069 C   0  0  1  0  0  0  0  0  0  0  0  0
   26.9626  -21.0406   -8.2592 C   0  0  0  0  0  0  0  0  0  0  0  0
   26.8218  -20.6145   -6.8565 C   0  0  0  0  0  0  0  0  0  0  0  0
   25.6616  -20.5244   -6.1334 C   0  0  0  0  0  0  0  0  0  0  0  0
   25.9187  -20.0984   -4.8802 N   0  0  0  0  0  0  0  0  0  0  0  0
   27.2592  -19.9095   -4.7871 C   0  0  0  0  0  0  0  0  0  0  0  0
   28.0298  -19.4815   -3.7208 C   0  0  0  0  0  0  0  0  0  0  0  0
   29.3969  -19.3674   -3.8744 C   0  0  0  0  0  0  0  0  0  0  0  0
   29.9946  -19.6742   -5.0723 C   0  0  0  0  0  0  0  0  0  0  0  0
   29.1922  -20.0985   -6.1147 C   0  0  0  0  0  0  0  0  0  0  0  0
   27.8337  -20.2268   -6.0092 C   0  0  0  0  0  0  0  0  0  0  0  0
   26.4470  -20.4641  -10.6157 C   0  0  0  0  0  0  0  0  0  0  0  0
   26.0258  -21.4896  -11.2034 O   0  0  0  0  0  0  0  0  0  0  0  0
   27.2564  -19.5580  -11.3427 N   0  0  0  0  0  0  0  0  0  0  0  0
   27.6545  -19.7545  -12.7104 C   0  0  0  0  0  0  0  0  0  0  0  0
   26.8413  -18.9010  -13.6048 C   0  0  0  0  0  0  0  0  0  0  0  0
   25.8517  -18.2267  -13.1326 O   0  0  0  0  0  0  0  0  0  0  0  0
   28.1106  -17.6744  -17.5139 C   0  0  0  0  0  0  0  0  0  0  0  0
   27.2678  -16.8647  -16.5637 C   0  0  1  0  0  0  0  0  0  0  0  0
   26.5603  -15.9363  -17.3264 O   0  0  0  0  0  0  0  0  0  0  0  0
   26.3137  -17.7410  -15.7765 C   0  0  2  0  0  0  0  0  0  0  0  0
   27.0404  -18.7302  -14.9925 N   0  0  0  0  0  0  0  0  0  0  0  0
   25.2916  -18.3579  -16.6339 C   0  0  0  0  0  0  0  0  0  0  0  0
   24.3138  -17.6455  -17.3023 O   0  0  0  0  0  0  0  0  0  0  0  0
   25.3000  -19.6075  -16.7733 O   0  0  0  0  0  0  0  0  0  0  0  0
  2  1  1  6
  3  2  1  0
  4  3  1  0
  5  4  2  0
  6  7  1  0
  6  5  1  0
  7 12  2  0
  8  7  1  0
  8  9  2  0
  9 10  1  0
 10 11  2  0
 12  4  1  0
 12 11  1  0
 13 15  1  0
 13  2  1  0
 14 13  2  0
 16 15  1  0
 17 16  1  0
 18 17  2  0
 20 19  1  6
 20 22  1  0
 21 20  1  0
 22 24  1  0
 22 23  1  6
 23 17  1  0
 24 25  1  0
 26 24  2  0
M  END
$$$$
