WGT.pdb
     RDKit          3D

 26 27  0  0  1  0  0  0  0  0999 V2000
   25.2914  -19.9475   -9.0611 N   0  0  0  0  0  0  0  0  0  0  0  0
   26.6369  -20.2391   -9.5308 C   0  0  1  0  0  0  0  0  0  0  0  0
   27.2893  -21.0980   -8.4644 C   0  0  0  0  0  0  0  0  0  0  0  0
   27.5952  -20.3472   -7.2350 C   0  0  0  0  0  0  0  0  0  0  0  0
   26.8531  -19.3402   -6.6763 C   0  0  0  0  0  0  0  0  0  0  0  0
   27.4430  -18.8878   -5.5513 N   0  0  0  0  0  0  0  0  0  0  0  0
   28.5800  -19.6076   -5.3765 C   0  0  0  0  0  0  0  0  0  0  0  0
   29.5383  -19.5373   -4.3812 C   0  0  0  0  0  0  0  0  0  0  0  0
   30.6229  -20.3902   -4.4225 C   0  0  0  0  0  0  0  0  0  0  0  0
   30.7569  -21.3035   -5.4396 C   0  0  0  0  0  0  0  0  0  0  0  0
   29.7794  -21.3441   -6.4159 C   0  0  0  0  0  0  0  0  0  0  0  0
   28.6873  -20.5192   -6.4166 C   0  0  0  0  0  0  0  0  0  0  0  0
   26.6347  -20.8931  -10.8478 C   0  0  0  0  0  0  0  0  0  0  0  0
   27.6644  -21.4936  -11.2396 O   0  0  0  0  0  0  0  0  0  0  0  0
   25.5044  -20.8717  -11.7004 N   0  0  0  0  0  0  0  0  0  0  0  0
   25.4601  -20.1792  -12.9598 C   0  0  0  0  0  0  0  0  0  0  0  0
   24.1208  -20.3225  -13.5726 C   0  0  0  0  0  0  0  0  0  0  0  0
   23.1115  -19.6963  -13.0765 O   0  0  0  0  0  0  0  0  0  0  0  0
   21.1519  -21.8317  -17.3043 C   0  0  0  0  0  0  0  0  0  0  0  0
   22.5207  -21.7755  -16.6782 C   0  0  1  0  0  0  0  0  0  0  0  0
   23.3415  -21.0515  -17.5421 O   0  0  0  0  0  0  0  0  0  0  0  0
   22.4839  -21.1224  -15.3106 C   0  0  2  0  0  0  0  0  0  0  0  0
   23.8077  -21.1083  -14.7036 N   0  0  0  0  0  0  0  0  0  0  0  0
   21.4789  -21.7352  -14.4303 C   0  0  0  0  0  0  0  0  0  0  0  0
   20.1665  -21.3097  -14.3454 O   0  0  0  0  0  0  0  0  0  0  0  0
   21.8249  -22.7045  -13.7083 O   0  0  0  0  0  0  0  0  0  0  0  0
  2  1  1  1
  3  2  1  0
  4  3  1  0
  5  4  2  0
  6  7  1  0
  6  5  1  0
  7 12  2  0
  8  7  1  0
  8  9  2  0
  9 10  1  0
 10 11  2  0
 12  4  1  0
 12 11  1  0
 13 15  1  0
 13  2  1  0
 14 13  2  0
 16 15  1  0
 17 16  1  0
 18 17  2  0
 20 19  1  6
 20 22  1  0
 21 20  1  0
 22 24  1  0
 22 23  1  1
 23 17  1  0
 24 25  1  0
 26 24  2  0
M  END
$$$$
