WGT.pdb
     RDKit          3D

 26 27  0  0  1  0  0  0  0  0999 V2000
   27.9059  -22.6339  -10.2895 N   0  0  0  0  0  0  0  0  0  0  0  0
   26.9455  -21.5417  -10.2671 C   0  0  1  0  0  0  0  0  0  0  0  0
   27.7138  -20.3001   -9.8566 C   0  0  0  0  0  0  0  0  0  0  0  0
   28.5481  -20.5142   -8.6619 C   0  0  0  0  0  0  0  0  0  0  0  0
   29.8102  -21.0455   -8.6206 C   0  0  0  0  0  0  0  0  0  0  0  0
   30.2627  -21.0883   -7.3512 N   0  0  0  0  0  0  0  0  0  0  0  0
   29.2854  -20.5799   -6.5589 C   0  0  0  0  0  0  0  0  0  0  0  0
   29.2482  -20.4026   -5.1874 C   0  0  0  0  0  0  0  0  0  0  0  0
   28.1228  -19.8558   -4.6043 C   0  0  0  0  0  0  0  0  0  0  0  0
   27.0450  -19.4883   -5.3722 C   0  0  0  0  0  0  0  0  0  0  0  0
   27.1189  -19.6806   -6.7389 C   0  0  0  0  0  0  0  0  0  0  0  0
   28.2128  -20.2186   -7.3611 C   0  0  0  0  0  0  0  0  0  0  0  0
   26.2669  -21.3738  -11.5609 C   0  0  0  0  0  0  0  0  0  0  0  0
   26.8601  -21.7054  -12.6156 O   0  0  0  0  0  0  0  0  0  0  0  0
   24.9566  -20.8472  -11.6643 N   0  0  0  0  0  0  0  0  0  0  0  0
   24.2668  -20.6462  -12.9099 C   0  0  0  0  0  0  0  0  0  0  0  0
   22.9180  -20.0909  -12.6608 C   0  0  0  0  0  0  0  0  0  0  0  0
   22.4496  -20.0407  -11.4628 O   0  0  0  0  0  0  0  0  0  0  0  0
   18.9785  -17.4290  -14.0726 C   0  0  0  0  0  0  0  0  0  0  0  0
   20.1303  -18.3032  -14.4943 C   0  0  1  0  0  0  0  0  0  0  0  0
   21.0921  -17.4723  -15.0676 O   0  0  0  0  0  0  0  0  0  0  0  0
   20.7168  -19.0609  -13.3197 C   0  0  2  0  0  0  0  0  0  0  0  0
   22.0397  -19.5784  -13.6409 N   0  0  0  0  0  0  0  0  0  0  0  0
   19.8146  -20.1143  -12.8330 C   0  0  0  0  0  0  0  0  0  0  0  0
   18.9329  -19.9489  -11.7814 O   0  0  0  0  0  0  0  0  0  0  0  0
   19.8397  -21.2355  -13.4013 O   0  0  0  0  0  0  0  0  0  0  0  0
  2  1  1  6
  3  2  1  0
  4  3  1  0
  5  4  2  0
  6  7  1  0
  6  5  1  0
  7 12  2  0
  8  7  1  0
  8  9  2  0
  9 10  1  0
 10 11  2  0
 12  4  1  0
 12 11  1  0
 13 15  1  0
 13  2  1  0
 14 13  2  0
 16 15  1  0
 17 16  1  0
 18 17  2  0
 20 19  1  1
 20 22  1  0
 21 20  1  0
 22 24  1  0
 22 23  1  6
 23 17  1  0
 24 25  1  0
 26 24  2  0
M  END
$$$$
