WGT.pdb
     RDKit          3D

 26 27  0  0  1  0  0  0  0  0999 V2000
   23.2597  -18.5231  -17.8911 N   0  0  0  0  0  0  0  0  0  0  0  0
   23.6624  -17.7932  -16.6991 C   0  0  1  0  0  0  0  0  0  0  0  0
   22.4299  -17.6868  -15.8216 C   0  0  0  0  0  0  0  0  0  0  0  0
   21.3881  -16.8233  -16.4029 C   0  0  0  0  0  0  0  0  0  0  0  0
   20.0754  -17.1475  -16.6238 C   0  0  0  0  0  0  0  0  0  0  0  0
   19.4176  -16.1052  -17.1707 N   0  0  0  0  0  0  0  0  0  0  0  0
   20.3111  -15.0930  -17.3068 C   0  0  0  0  0  0  0  0  0  0  0  0
   20.1450  -13.8158  -17.8119 C   0  0  0  0  0  0  0  0  0  0  0  0
   21.2230  -12.9543  -17.8459 C   0  0  0  0  0  0  0  0  0  0  0  0
   22.4532  -13.3539  -17.3842 C   0  0  0  0  0  0  0  0  0  0  0  0
   22.5806  -14.6372  -16.8869 C   0  0  0  0  0  0  0  0  0  0  0  0
   21.5411  -15.5258  -16.8332 C   0  0  0  0  0  0  0  0  0  0  0  0
   24.7854  -18.4412  -16.0052 C   0  0  0  0  0  0  0  0  0  0  0  0
   25.0097  -19.6602  -16.2006 O   0  0  0  0  0  0  0  0  0  0  0  0
   25.6325  -17.7364  -15.1161 N   0  0  0  0  0  0  0  0  0  0  0  0
   26.7189  -18.3395  -14.3926 C   0  0  0  0  0  0  0  0  0  0  0  0
   26.1933  -19.2466  -13.3482 C   0  0  0  0  0  0  0  0  0  0  0  0
   24.9952  -19.7091  -13.4354 O   0  0  0  0  0  0  0  0  0  0  0  0
   28.7481  -20.9600  -10.3393 C   0  0  0  0  0  0  0  0  0  0  0  0
   27.7246  -21.7295  -11.1326 C   0  0  1  0  0  0  0  0  0  0  0  0
   27.3533  -22.8344  -10.3676 O   0  0  0  0  0  0  0  0  0  0  0  0
   26.5130  -20.8783  -11.4572 C   0  0  2  0  0  0  0  0  0  0  0  0
   26.8963  -19.6894  -12.2060 N   0  0  0  0  0  0  0  0  0  0  0  0
   25.7302  -20.5474  -10.2580 C   0  0  0  0  0  0  0  0  0  0  0  0
   24.9814  -21.4672   -9.5481 O   0  0  0  0  0  0  0  0  0  0  0  0
   25.7366  -19.3594   -9.8462 O   0  0  0  0  0  0  0  0  0  0  0  0
  2  1  1  6
  3  2  1  0
  4  3  1  0
  5  4  2  0
  6  7  1  0
  6  5  1  0
  7 12  2  0
  8  7  1  0
  8  9  2  0
  9 10  1  0
 10 11  2  0
 12  4  1  0
 12 11  1  0
 13 15  1  0
 13  2  1  0
 14 13  2  0
 16 15  1  0
 17 16  1  0
 18 17  2  0
 20 19  1  1
 20 22  1  0
 21 20  1  0
 22 24  1  0
 22 23  1  1
 23 17  1  0
 24 25  1  0
 26 24  2  0
M  END
$$$$
