WGT.pdb
     RDKit          3D

 26 27  0  0  1  0  0  0  0  0999 V2000
   19.1104  -21.1905  -11.7401 N   0  0  0  0  0  0  0  0  0  0  0  0
   19.8738  -22.2538  -12.3747 C   0  0  1  0  0  0  0  0  0  0  0  0
   21.2842  -21.7251  -12.5525 C   0  0  0  0  0  0  0  0  0  0  0  0
   21.3441  -20.5414  -13.4266 C   0  0  0  0  0  0  0  0  0  0  0  0
   21.1058  -19.2398  -13.0714 C   0  0  0  0  0  0  0  0  0  0  0  0
   21.2543  -18.4256  -14.1358 N   0  0  0  0  0  0  0  0  0  0  0  0
   21.5925  -19.2051  -15.1939 C   0  0  0  0  0  0  0  0  0  0  0  0
   21.8555  -18.8630  -16.5083 C   0  0  0  0  0  0  0  0  0  0  0  0
   22.1837  -19.8519  -17.4139 C   0  0  0  0  0  0  0  0  0  0  0  0
   22.2505  -21.1663  -17.0212 C   0  0  0  0  0  0  0  0  0  0  0  0
   21.9813  -21.4695  -15.6999 C   0  0  0  0  0  0  0  0  0  0  0  0
   21.6520  -20.5236  -14.7671 C   0  0  0  0  0  0  0  0  0  0  0  0
   19.8408  -23.5006  -11.5957 C   0  0  0  0  0  0  0  0  0  0  0  0
   20.5180  -24.4850  -11.9791 O   0  0  0  0  0  0  0  0  0  0  0  0
   19.0670  -23.6356  -10.4177 N   0  0  0  0  0  0  0  0  0  0  0  0
   19.1048  -24.7879   -9.5584 C   0  0  0  0  0  0  0  0  0  0  0  0
   18.1087  -24.6464   -8.4732 C   0  0  0  0  0  0  0  0  0  0  0  0
   17.4162  -23.5665   -8.3668 O   0  0  0  0  0  0  0  0  0  0  0  0
   15.7412  -27.6217   -7.1276 C   0  0  0  0  0  0  0  0  0  0  0  0
   16.2498  -26.7675   -5.9960 C   0  0  1  0  0  0  0  0  0  0  0  0
   17.2679  -27.4807   -5.3645 O   0  0  0  0  0  0  0  0  0  0  0  0
   16.7674  -25.4319   -6.4923 C   0  0  2  0  0  0  0  0  0  0  0  0
   17.8128  -25.6156   -7.4895 N   0  0  0  0  0  0  0  0  0  0  0  0
   17.2015  -24.5613   -5.3905 C   0  0  0  0  0  0  0  0  0  0  0  0
   16.3430  -24.0165   -4.4543 O   0  0  0  0  0  0  0  0  0  0  0  0
   18.4250  -24.2909   -5.2860 O   0  0  0  0  0  0  0  0  0  0  0  0
  2  1  1  1
  3  2  1  0
  4  3  1  0
  5  4  2  0
  6  7  1  0
  6  5  1  0
  7 12  2  0
  8  7  1  0
  8  9  2  0
  9 10  1  0
 10 11  2  0
 12  4  1  0
 12 11  1  0
 13 15  1  0
 13  2  1  0
 14 13  2  0
 16 15  1  0
 17 16  1  0
 18 17  2  0
 20 19  1  6
 20 22  1  0
 21 20  1  0
 22 24  1  0
 22 23  1  6
 23 17  1  0
 24 25  1  0
 26 24  2  0
M  END
$$$$
