WGT.pdb
     RDKit          3D

 26 27  0  0  1  0  0  0  0  0999 V2000
   27.0140  -22.8069  -11.2221 N   0  0  0  0  0  0  0  0  0  0  0  0
   26.2942  -21.5431  -11.2448 C   0  0  1  0  0  0  0  0  0  0  0  0
   27.3343  -20.4513  -11.0816 C   0  0  0  0  0  0  0  0  0  0  0  0
   28.2304  -20.6834   -9.9361 C   0  0  0  0  0  0  0  0  0  0  0  0
   29.4204  -21.3623   -9.9431 C   0  0  0  0  0  0  0  0  0  0  0  0
   29.9648  -21.3725   -8.7095 N   0  0  0  0  0  0  0  0  0  0  0  0
   29.1208  -20.6936   -7.8922 C   0  0  0  0  0  0  0  0  0  0  0  0
   29.2147  -20.4185   -6.5396 C   0  0  0  0  0  0  0  0  0  0  0  0
   28.2118  -19.6978   -5.9228 C   0  0  0  0  0  0  0  0  0  0  0  0
   27.1268  -19.2542   -6.6386 C   0  0  0  0  0  0  0  0  0  0  0  0
   27.0679  -19.5485   -7.9878 C   0  0  0  0  0  0  0  0  0  0  0  0
   28.0375  -20.2592   -8.6419 C   0  0  0  0  0  0  0  0  0  0  0  0
   25.5023  -21.3782  -12.4729 C   0  0  0  0  0  0  0  0  0  0  0  0
   25.9793  -21.7582  -13.5695 O   0  0  0  0  0  0  0  0  0  0  0  0
   24.2091  -20.8016  -12.4667 N   0  0  0  0  0  0  0  0  0  0  0  0
   23.4417  -20.5354  -13.6533 C   0  0  0  0  0  0  0  0  0  0  0  0
   22.1081  -20.0075  -13.2890 C   0  0  0  0  0  0  0  0  0  0  0  0
   21.7669  -19.9083  -12.0517 O   0  0  0  0  0  0  0  0  0  0  0  0
   17.9379  -17.5717  -14.4037 C   0  0  0  0  0  0  0  0  0  0  0  0
   19.0586  -18.4455  -14.9028 C   0  0  1  0  0  0  0  0  0  0  0  0
   19.9180  -17.6340  -15.6425 O   0  0  0  0  0  0  0  0  0  0  0  0
   19.8051  -19.1051  -13.7601 C   0  0  2  0  0  0  0  0  0  0  0  0
   21.1143  -19.5731  -14.1936 N   0  0  0  0  0  0  0  0  0  0  0  0
   19.0184  -20.1730  -13.1269 C   0  0  0  0  0  0  0  0  0  0  0  0
   18.2434  -19.9929  -11.9966 O   0  0  0  0  0  0  0  0  0  0  0  0
   19.0462  -21.3218  -13.6371 O   0  0  0  0  0  0  0  0  0  0  0  0
  2  1  1  6
  3  2  1  0
  4  3  1  0
  5  4  2  0
  6  7  1  0
  6  5  1  0
  7 12  2  0
  8  7  1  0
  8  9  2  0
  9 10  1  0
 10 11  2  0
 12  4  1  0
 12 11  1  0
 13 15  1  0
 13  2  1  0
 14 13  2  0
 16 15  1  0
 17 16  1  0
 18 17  2  0
 20 19  1  1
 20 22  1  0
 21 20  1  0
 22 24  1  0
 22 23  1  6
 23 17  1  0
 24 25  1  0
 26 24  2  0
M  END
$$$$
