WGT.pdb
     RDKit          3D

 26 27  0  0  1  0  0  0  0  0999 V2000
   27.9541  -22.3414  -10.2899 N   0  0  0  0  0  0  0  0  0  0  0  0
   27.0709  -21.1869  -10.2332 C   0  0  1  0  0  0  0  0  0  0  0  0
   27.7799  -20.1424   -9.3926 C   0  0  0  0  0  0  0  0  0  0  0  0
   27.2425  -20.0498   -8.0245 C   0  0  0  0  0  0  0  0  0  0  0  0
   25.9498  -20.2713   -7.6285 C   0  0  0  0  0  0  0  0  0  0  0  0
   25.8273  -20.0941   -6.2975 N   0  0  0  0  0  0  0  0  0  0  0  0
   27.0523  -19.7540   -5.8230 C   0  0  0  0  0  0  0  0  0  0  0  0
   27.4633  -19.4668   -4.5336 C   0  0  0  0  0  0  0  0  0  0  0  0
   28.7845  -19.1426   -4.2992 C   0  0  0  0  0  0  0  0  0  0  0  0
   29.6894  -19.1033   -5.3318 C   0  0  0  0  0  0  0  0  0  0  0  0
   29.2416  -19.3962   -6.6062 C   0  0  0  0  0  0  0  0  0  0  0  0
   27.9424  -19.7227   -6.8864 C   0  0  0  0  0  0  0  0  0  0  0  0
   26.7283  -20.6849  -11.5722 C   0  0  0  0  0  0  0  0  0  0  0  0
   27.6465  -20.4305  -12.3887 O   0  0  0  0  0  0  0  0  0  0  0  0
   25.3890  -20.4752  -11.9810 N   0  0  0  0  0  0  0  0  0  0  0  0
   25.0113  -19.9962  -13.2831 C   0  0  0  0  0  0  0  0  0  0  0  0
   23.5508  -19.7639  -13.3359 C   0  0  0  0  0  0  0  0  0  0  0  0
   22.8736  -19.6493  -12.2472 O   0  0  0  0  0  0  0  0  0  0  0  0
   21.5732  -17.2268  -15.8031 C   0  0  0  0  0  0  0  0  0  0  0  0
   20.9321  -18.5880  -15.7318 C   0  0  1  0  0  0  0  0  0  0  0  0
   21.3196  -19.2882  -16.8735 O   0  0  0  0  0  0  0  0  0  0  0  0
   21.3497  -19.3383  -14.4825 C   0  0  2  0  0  0  0  0  0  0  0  0
   22.7735  -19.6435  -14.5090 N   0  0  0  0  0  0  0  0  0  0  0  0
   20.5315  -20.5382  -14.2566 C   0  0  0  0  0  0  0  0  0  0  0  0
   19.1981  -20.5049  -13.8938 O   0  0  0  0  0  0  0  0  0  0  0  0
   21.0683  -21.6661  -14.3997 O   0  0  0  0  0  0  0  0  0  0  0  0
  2  1  1  6
  3  2  1  0
  4  3  1  0
  5  4  2  0
  6  7  1  0
  6  5  1  0
  7 12  2  0
  8  7  1  0
  8  9  2  0
  9 10  1  0
 10 11  2  0
 12  4  1  0
 12 11  1  0
 13 15  1  0
 13  2  1  0
 14 13  2  0
 16 15  1  0
 17 16  1  0
 18 17  2  0
 20 19  1  6
 20 22  1  0
 21 20  1  0
 22 24  1  0
 22 23  1  6
 23 17  1  0
 24 25  1  0
 26 24  2  0
M  END
$$$$
