WGT.pdb
     RDKit          3D

 26 27  0  0  1  0  0  0  0  0999 V2000
   25.3102  -20.2701   -9.3032 N   0  0  0  0  0  0  0  0  0  0  0  0
   26.6989  -20.4277   -9.7062 C   0  0  1  0  0  0  0  0  0  0  0  0
   27.4359  -20.9872   -8.5044 C   0  0  0  0  0  0  0  0  0  0  0  0
   27.5240  -20.0271   -7.3911 C   0  0  0  0  0  0  0  0  0  0  0  0
   26.7503  -18.9129   -7.1984 C   0  0  0  0  0  0  0  0  0  0  0  0
   27.1172  -18.2733   -6.0696 N   0  0  0  0  0  0  0  0  0  0  0  0
   28.1395  -18.9782   -5.5225 C   0  0  0  0  0  0  0  0  0  0  0  0
   28.8671  -18.7483   -4.3685 C   0  0  0  0  0  0  0  0  0  0  0  0
   29.8752  -19.6231   -4.0166 C   0  0  0  0  0  0  0  0  0  0  0  0
   30.1597  -20.7148   -4.8000 C   0  0  0  0  0  0  0  0  0  0  0  0
   29.4114  -20.9116   -5.9453 C   0  0  0  0  0  0  0  0  0  0  0  0
   28.4031  -20.0719   -6.3341 C   0  0  0  0  0  0  0  0  0  0  0  0
   26.8379  -21.2849  -10.8929 C   0  0  0  0  0  0  0  0  0  0  0  0
   25.9366  -22.1152  -11.1624 O   0  0  0  0  0  0  0  0  0  0  0  0
   27.9605  -21.2094  -11.7526 N   0  0  0  0  0  0  0  0  0  0  0  0
   27.9473  -20.5642  -13.0376 C   0  0  0  0  0  0  0  0  0  0  0  0
   26.9435  -21.2030  -13.9174 C   0  0  0  0  0  0  0  0  0  0  0  0
   27.2589  -22.2384  -14.6143 O   0  0  0  0  0  0  0  0  0  0  0  0
   23.0191  -22.1306  -13.2111 C   0  0  0  0  0  0  0  0  0  0  0  0
   23.2475  -21.3309  -14.4669 C   0  0  1  0  0  0  0  0  0  0  0  0
   22.9658  -19.9989  -14.1662 O   0  0  0  0  0  0  0  0  0  0  0  0
   24.6712  -21.4714  -14.9684 C   0  0  2  0  0  0  0  0  0  0  0  0
   25.6050  -20.7854  -14.0861 N   0  0  0  0  0  0  0  0  0  0  0  0
   24.8121  -21.0387  -16.3660 C   0  0  0  0  0  0  0  0  0  0  0  0
   24.1917  -21.6622  -17.4323 O   0  0  0  0  0  0  0  0  0  0  0  0
   25.5383  -20.0431  -16.6155 O   0  0  0  0  0  0  0  0  0  0  0  0
  2  1  1  1
  3  2  1  0
  4  3  1  0
  5  4  2  0
  6  7  1  0
  6  5  1  0
  7 12  2  0
  8  7  1  0
  8  9  2  0
  9 10  1  0
 10 11  2  0
 12  4  1  0
 12 11  1  0
 13 15  1  0
 13  2  1  0
 14 13  2  0
 16 15  1  0
 17 16  1  0
 18 17  2  0
 20 19  1  1
 20 22  1  0
 21 20  1  0
 22 24  1  0
 22 23  1  1
 23 17  1  0
 24 25  1  0
 26 24  2  0
M  END
$$$$
