WGT.pdb
     RDKit          3D

 26 27  0  0  1  0  0  0  0  0999 V2000
   24.7946  -22.1259  -13.1506 N   0  0  0  0  0  0  0  0  0  0  0  0
   24.8761  -20.6754  -13.0786 C   0  0  1  0  0  0  0  0  0  0  0  0
   23.5381  -20.1938  -12.5513 C   0  0  0  0  0  0  0  0  0  0  0  0
   22.4285  -20.4590  -13.4827 C   0  0  0  0  0  0  0  0  0  0  0  0
   21.4347  -21.3909  -13.3390 C   0  0  0  0  0  0  0  0  0  0  0  0
   20.5918  -21.3478  -14.3905 N   0  0  0  0  0  0  0  0  0  0  0  0
   21.0418  -20.3782  -15.2266 C   0  0  0  0  0  0  0  0  0  0  0  0
   20.5386  -19.9379  -16.4377 C   0  0  0  0  0  0  0  0  0  0  0  0
   21.1844  -18.9204  -17.1109 C   0  0  0  0  0  0  0  0  0  0  0  0
   22.3173  -18.3449  -16.5895 C   0  0  0  0  0  0  0  0  0  0  0  0
   22.7901  -18.8113  -15.3773 C   0  0  0  0  0  0  0  0  0  0  0  0
   22.1838  -19.8169  -14.6743 C   0  0  0  0  0  0  0  0  0  0  0  0
   25.9988  -20.2242  -12.2429 C   0  0  0  0  0  0  0  0  0  0  0  0
   26.1088  -19.0057  -11.9641 O   0  0  0  0  0  0  0  0  0  0  0  0
   26.9707  -21.1199  -11.7350 N   0  0  0  0  0  0  0  0  0  0  0  0
   28.0455  -20.7302  -10.8628 C   0  0  0  0  0  0  0  0  0  0  0  0
   27.6816  -21.0015   -9.4543 C   0  0  0  0  0  0  0  0  0  0  0  0
   26.6996  -21.7869   -9.1791 O   0  0  0  0  0  0  0  0  0  0  0  0
   30.0702  -20.5943   -6.0046 C   0  0  0  0  0  0  0  0  0  0  0  0
   28.7032  -19.9643   -5.9487 C   0  0  1  0  0  0  0  0  0  0  0  0
   28.8667  -18.5995   -6.1826 O   0  0  0  0  0  0  0  0  0  0  0  0
   27.7660  -20.5694   -6.9751 C   0  0  2  0  0  0  0  0  0  0  0  0
   28.3267  -20.4705   -8.3156 N   0  0  0  0  0  0  0  0  0  0  0  0
   26.4145  -19.9968   -6.8979 C   0  0  0  0  0  0  0  0  0  0  0  0
   25.5367  -20.2304   -5.8560 O   0  0  0  0  0  0  0  0  0  0  0  0
   26.0256  -19.2488   -7.8307 O   0  0  0  0  0  0  0  0  0  0  0  0
  2  1  1  1
  3  2  1  0
  4  3  1  0
  5  4  2  0
  6  7  1  0
  6  5  1  0
  7 12  2  0
  8  7  1  0
  8  9  2  0
  9 10  1  0
 10 11  2  0
 12  4  1  0
 12 11  1  0
 13 15  1  0
 13  2  1  0
 14 13  2  0
 16 15  1  0
 17 16  1  0
 18 17  2  0
 20 19  1  6
 20 22  1  0
 21 20  1  0
 22 24  1  0
 22 23  1  6
 23 17  1  0
 24 25  1  0
 26 24  2  0
M  END
$$$$
