WGT.pdb
     RDKit          3D

 26 27  0  0  1  0  0  0  0  0999 V2000
   25.1930  -19.7226   -8.7003 N   0  0  0  0  0  0  0  0  0  0  0  0
   26.4991  -19.9787   -9.2871 C   0  0  1  0  0  0  0  0  0  0  0  0
   27.2467  -20.8622   -8.3068 C   0  0  0  0  0  0  0  0  0  0  0  0
   27.5680  -20.1716   -7.0463 C   0  0  0  0  0  0  0  0  0  0  0  0
   26.7879  -19.2633   -6.3804 C   0  0  0  0  0  0  0  0  0  0  0  0
   27.4077  -18.8409   -5.2599 N   0  0  0  0  0  0  0  0  0  0  0  0
   28.6027  -19.4807   -5.1963 C   0  0  0  0  0  0  0  0  0  0  0  0
   29.6098  -19.4016   -4.2511 C   0  0  0  0  0  0  0  0  0  0  0  0
   30.7498  -20.1638   -4.4091 C   0  0  0  0  0  0  0  0  0  0  0  0
   30.8907  -20.9960   -5.4927 C   0  0  0  0  0  0  0  0  0  0  0  0
   29.8635  -21.0483   -6.4160 C   0  0  0  0  0  0  0  0  0  0  0  0
   28.7157  -20.3117   -6.3012 C   0  0  0  0  0  0  0  0  0  0  0  0
   26.3974  -20.5894  -10.6210 C   0  0  0  0  0  0  0  0  0  0  0  0
   27.3728  -21.2307  -11.0812 O   0  0  0  0  0  0  0  0  0  0  0  0
   25.2299  -20.4811  -11.4148 N   0  0  0  0  0  0  0  0  0  0  0  0
   25.1338  -20.9481  -12.7714 C   0  0  0  0  0  0  0  0  0  0  0  0
   23.7884  -20.6581  -13.3152 C   0  0  0  0  0  0  0  0  0  0  0  0
   23.1368  -19.6233  -12.9133 O   0  0  0  0  0  0  0  0  0  0  0  0
   22.7165  -20.4494  -17.0698 C   0  0  0  0  0  0  0  0  0  0  0  0
   21.7359  -21.3034  -16.3097 C   0  0  1  0  0  0  0  0  0  0  0  0
   22.0456  -22.6346  -16.5858 O   0  0  0  0  0  0  0  0  0  0  0  0
   21.8049  -21.0416  -14.8181 C   0  0  2  0  0  0  0  0  0  0  0  0
   23.1021  -21.4277  -14.2803 N   0  0  0  0  0  0  0  0  0  0  0  0
   20.6950  -21.6749  -14.0919 C   0  0  0  0  0  0  0  0  0  0  0  0
   19.3685  -21.3195  -14.2491 O   0  0  0  0  0  0  0  0  0  0  0  0
   20.9588  -22.5957  -13.2773 O   0  0  0  0  0  0  0  0  0  0  0  0
  2  1  1  1
  3  2  1  0
  4  3  1  0
  5  4  2  0
  6  7  1  0
  6  5  1  0
  7 12  2  0
  8  7  1  0
  8  9  2  0
  9 10  1  0
 10 11  2  0
 12  4  1  0
 12 11  1  0
 13 15  1  0
 13  2  1  0
 14 13  2  0
 16 15  1  0
 17 16  1  0
 18 17  2  0
 20 19  1  6
 20 22  1  0
 21 20  1  0
 22 24  1  0
 22 23  1  1
 23 17  1  0
 24 25  1  0
 26 24  2  0
M  END
$$$$
