TYD.pdb
     RDKit          3D

 28 28  0  0  1  0  0  0  0  0999 V2000
    9.6894  -20.4235   20.8919 C   0  0  0  0  0  0  0  0  0  0  0  0
   10.3991  -19.6805   19.7648 C   0  0  1  0  0  0  0  0  0  0  0  0
   10.3070  -20.3558   18.5527 O   0  0  0  0  0  0  0  0  0  0  0  0
    9.7188  -18.3224   19.5621 C   0  0  2  0  0  0  0  0  0  0  0  0
   10.3177  -17.6676   18.4042 N   0  0  0  0  0  0  0  0  0  0  0  0
    9.8909  -17.4279   20.7226 C   0  0  0  0  0  0  0  0  0  0  0  0
   11.0273  -16.9125   20.9841 O   0  0  0  0  0  0  0  0  0  0  0  0
    7.7096  -12.0758   18.1485 O   0  0  0  0  0  0  0  0  0  0  0  0
    7.7533  -12.8611   19.2983 C   0  0  0  0  0  0  0  0  0  0  0  0
    8.6787  -12.6256   20.2985 C   0  0  0  0  0  0  0  0  0  0  0  0
    8.7239  -13.4019   21.4377 C   0  0  0  0  0  0  0  0  0  0  0  0
    7.8408  -14.4541   21.6284 C   0  0  0  0  0  0  0  0  0  0  0  0
    7.9092  -15.2694   22.8554 C   0  0  0  0  0  0  0  0  0  0  0  0
    9.0395  -16.2753   22.8197 C   0  0  2  0  0  0  0  0  0  0  0  0
    8.8560  -17.0646   21.6267 N   0  0  0  0  0  0  0  0  0  0  0  0
    9.1566  -17.0878   24.0425 C   0  0  0  0  0  0  0  0  0  0  0  0
    8.2878  -17.9584   24.2722 O   0  0  0  0  0  0  0  0  0  0  0  0
    6.9178  -14.6953   20.6397 C   0  0  0  0  0  0  0  0  0  0  0  0
    6.8743  -13.9069   19.4861 C   0  0  0  0  0  0  0  0  0  0  0  0
   10.2159  -16.9207   24.9647 N   0  0  0  0  0  0  0  0  0  0  0  0
   10.4955  -17.9855   25.9424 C   0  0  1  0  0  0  0  0  0  0  0  0
   10.8817  -19.2358   25.1739 C   0  0  0  0  0  0  0  0  0  0  0  0
   11.3277  -20.3302   26.0629 C   0  0  0  0  0  0  0  0  0  0  0  0
   10.8554  -20.5605   27.2030 O   0  0  0  0  0  0  0  0  0  0  0  0
   11.6142  -17.5610   26.8171 C   0  0  0  0  0  0  0  0  0  0  0  0
   11.9774  -18.2300   27.8154 O   0  0  0  0  0  0  0  0  0  0  0  0
   12.3443  -21.1720   25.6132 O   0  0  0  0  0  0  0  0  0  0  0  0
   12.3425  -16.3822   26.5863 O   0  0  0  0  0  0  0  0  0  0  0  0
  2  1  1  1
  2  3  1  0
  4  2  1  0
  4  5  1  6
  6  4  1  0
  6  7  2  0
  8  9  1  0
  9 10  2  0
 10 11  1  0
 12 13  1  0
 12 11  2  0
 14 13  1  1
 14 15  1  0
 15  6  1  0
 16 14  1  0
 17 16  2  0
 18 12  1  0
 19 18  2  0
 19  9  1  0
 20 16  1  0
 21 20  1  0
 21 25  1  0
 21 22  1  6
 23 22  1  0
 24 23  2  0
 25 26  2  0
 25 28  1  0
 27 23  1  0
M  END
$$$$
