TYD.pdb
     RDKit          3D

 28 28  0  0  1  0  0  0  0  0999 V2000
    6.7377  -16.1677   20.2132 C   0  0  0  0  0  0  0  0  0  0  0  0
    7.4309  -15.0121   19.4990 C   0  0  1  0  0  0  0  0  0  0  0  0
    6.8190  -14.7009   18.2898 O   0  0  0  0  0  0  0  0  0  0  0  0
    7.3323  -13.7586   20.3749 C   0  0  2  0  0  0  0  0  0  0  0  0
    7.7688  -12.6066   19.5935 N   0  0  0  0  0  0  0  0  0  0  0  0
    8.1899  -13.8398   21.5725 C   0  0  0  0  0  0  0  0  0  0  0  0
    9.4533  -13.6975   21.4790 O   0  0  0  0  0  0  0  0  0  0  0  0
   10.5518  -15.0813   30.0963 O   0  0  0  0  0  0  0  0  0  0  0  0
    9.8672  -14.8104   28.9136 C   0  0  0  0  0  0  0  0  0  0  0  0
    9.0949  -15.7731   28.2900 C   0  0  0  0  0  0  0  0  0  0  0  0
    8.4163  -15.5072   27.1190 C   0  0  0  0  0  0  0  0  0  0  0  0
    8.4802  -14.2599   26.5162 C   0  0  0  0  0  0  0  0  0  0  0  0
    7.7453  -14.0004   25.2642 C   0  0  0  0  0  0  0  0  0  0  0  0
    8.5570  -14.3456   24.0343 C   0  0  2  0  0  0  0  0  0  0  0  0
    7.7184  -14.0736   22.8930 N   0  0  0  0  0  0  0  0  0  0  0  0
    9.1031  -15.7134   24.0421 C   0  0  0  0  0  0  0  0  0  0  0  0
    8.3167  -16.6764   23.9013 O   0  0  0  0  0  0  0  0  0  0  0  0
    9.2453  -13.2972   27.1289 C   0  0  0  0  0  0  0  0  0  0  0  0
    9.9320  -13.5695   28.3158 C   0  0  0  0  0  0  0  0  0  0  0  0
   10.4836  -15.9772   24.2010 N   0  0  0  0  0  0  0  0  0  0  0  0
   10.9495  -17.3729   24.2551 C   0  0  1  0  0  0  0  0  0  0  0  0
   12.1949  -17.4834   23.3950 C   0  0  0  0  0  0  0  0  0  0  0  0
   11.9030  -17.3191   21.9546 C   0  0  0  0  0  0  0  0  0  0  0  0
   10.9537  -17.8762   21.3510 O   0  0  0  0  0  0  0  0  0  0  0  0
   11.2688  -17.7249   25.6590 C   0  0  0  0  0  0  0  0  0  0  0  0
   11.2996  -16.8681   26.5760 O   0  0  0  0  0  0  0  0  0  0  0  0
   12.7348  -16.4889   21.2040 O   0  0  0  0  0  0  0  0  0  0  0  0
   11.5573  -19.0410   26.0564 O   0  0  0  0  0  0  0  0  0  0  0  0
  2  1  1  1
  2  3  1  0
  4  2  1  0
  4  5  1  6
  6  4  1  0
  6  7  2  0
  8  9  1  0
  9 10  2  0
 10 11  1  0
 12 13  1  0
 12 11  2  0
 14 13  1  1
 14 15  1  0
 15  6  1  0
 16 14  1  0
 17 16  2  0
 18 12  1  0
 19 18  2  0
 19  9  1  0
 20 16  1  0
 21 20  1  0
 21 25  1  0
 21 22  1  6
 23 22  1  0
 24 23  2  0
 25 26  2  0
 25 28  1  0
 27 23  1  0
M  END
$$$$
