TYD.pdb
     RDKit          3D

 28 28  0  0  1  0  0  0  0  0999 V2000
    7.8431  -18.5285   20.2572 C   0  0  0  0  0  0  0  0  0  0  0  0
    9.1223  -18.2526   19.4738 C   0  0  1  0  0  0  0  0  0  0  0  0
    9.0718  -18.7768   18.1869 O   0  0  0  0  0  0  0  0  0  0  0  0
    9.2930  -16.7372   19.3229 C   0  0  2  0  0  0  0  0  0  0  0  0
   10.4965  -16.4779   18.5403 N   0  0  0  0  0  0  0  0  0  0  0  0
    9.4470  -16.0559   20.6223 C   0  0  0  0  0  0  0  0  0  0  0  0
   10.5573  -16.0905   21.2477 O   0  0  0  0  0  0  0  0  0  0  0  0
    6.7310  -12.3203   28.2753 O   0  0  0  0  0  0  0  0  0  0  0  0
    6.8587  -12.7296   26.9498 C   0  0  0  0  0  0  0  0  0  0  0  0
    7.7439  -12.1115   26.0857 C   0  0  0  0  0  0  0  0  0  0  0  0
    7.8720  -12.5150   24.7730 C   0  0  0  0  0  0  0  0  0  0  0  0
    7.1164  -13.5601   24.2631 C   0  0  0  0  0  0  0  0  0  0  0  0
    7.2718  -13.9728   22.8558 C   0  0  0  0  0  0  0  0  0  0  0  0
    8.4883  -14.8470   22.6399 C   0  0  2  0  0  0  0  0  0  0  0  0
    8.4214  -15.3241   21.2806 N   0  0  0  0  0  0  0  0  0  0  0  0
    8.6316  -15.9283   23.6296 C   0  0  0  0  0  0  0  0  0  0  0  0
    7.8309  -16.8890   23.5916 O   0  0  0  0  0  0  0  0  0  0  0  0
    6.2342  -14.1800   25.1146 C   0  0  0  0  0  0  0  0  0  0  0  0
    6.1065  -13.7691   26.4447 C   0  0  0  0  0  0  0  0  0  0  0  0
    9.6420  -15.9206   24.6194 N   0  0  0  0  0  0  0  0  0  0  0  0
    9.7930  -17.0873   25.5048 C   0  0  1  0  0  0  0  0  0  0  0  0
   10.8670  -17.9839   24.9170 C   0  0  0  0  0  0  0  0  0  0  0  0
   11.1981  -19.1228   25.8005 C   0  0  0  0  0  0  0  0  0  0  0  0
   10.5718  -19.4190   26.8473 O   0  0  0  0  0  0  0  0  0  0  0  0
   10.1990  -16.6251   26.8532 C   0  0  0  0  0  0  0  0  0  0  0  0
   10.6922  -15.4882   27.0533 O   0  0  0  0  0  0  0  0  0  0  0  0
   12.2805  -19.9314   25.4559 O   0  0  0  0  0  0  0  0  0  0  0  0
   10.0581  -17.4288   27.9967 O   0  0  0  0  0  0  0  0  0  0  0  0
  2  1  1  6
  2  3  1  0
  4  2  1  0
  4  5  1  6
  6  4  1  0
  6  7  2  0
  8  9  1  0
  9 10  2  0
 10 11  1  0
 12 13  1  0
 12 11  2  0
 14 13  1  1
 14 15  1  0
 15  6  1  0
 16 14  1  0
 17 16  2  0
 18 12  1  0
 19 18  2  0
 19  9  1  0
 20 16  1  0
 21 20  1  0
 21 25  1  0
 21 22  1  6
 23 22  1  0
 24 23  2  0
 25 26  2  0
 25 28  1  0
 27 23  1  0
M  END
$$$$
