TYD.pdb
     RDKit          3D

 28 28  0  0  1  0  0  0  0  0999 V2000
    7.9055  -13.8129   20.8518 C   0  0  0  0  0  0  0  0  0  0  0  0
    6.9599  -14.7581   21.5856 C   0  0  1  0  0  0  0  0  0  0  0  0
    5.9842  -15.2807   20.7439 O   0  0  0  0  0  0  0  0  0  0  0  0
    7.7643  -15.9495   22.1162 C   0  0  2  0  0  0  0  0  0  0  0  0
    6.8374  -16.9285   22.6736 N   0  0  0  0  0  0  0  0  0  0  0  0
    8.7049  -15.5625   23.1847 C   0  0  0  0  0  0  0  0  0  0  0  0
    9.8070  -14.9863   22.9043 O   0  0  0  0  0  0  0  0  0  0  0  0
    5.5339  -10.3330   25.7335 O   0  0  0  0  0  0  0  0  0  0  0  0
    6.2793  -11.4802   25.9965 C   0  0  0  0  0  0  0  0  0  0  0  0
    7.6281  -11.4122   26.2934 C   0  0  0  0  0  0  0  0  0  0  0  0
    8.3680  -12.5467   26.5541 C   0  0  0  0  0  0  0  0  0  0  0  0
    7.7889  -13.8065   26.5292 C   0  0  0  0  0  0  0  0  0  0  0  0
    8.6015  -15.0044   26.8116 C   0  0  0  0  0  0  0  0  0  0  0  0
    9.4233  -15.4409   25.6179 C   0  0  2  0  0  0  0  0  0  0  0  0
    8.4897  -15.7813   24.5727 N   0  0  0  0  0  0  0  0  0  0  0  0
   10.3833  -16.5179   25.9138 C   0  0  0  0  0  0  0  0  0  0  0  0
   11.2237  -16.3419   26.8239 O   0  0  0  0  0  0  0  0  0  0  0  0
    6.4491  -13.8835   26.2350 C   0  0  0  0  0  0  0  0  0  0  0  0
    5.7015  -12.7321   25.9713 C   0  0  0  0  0  0  0  0  0  0  0  0
   10.3882  -17.7436   25.2080 N   0  0  0  0  0  0  0  0  0  0  0  0
   11.3391  -18.7974   25.5995 C   0  0  1  0  0  0  0  0  0  0  0  0
   10.5457  -19.9423   26.2018 C   0  0  0  0  0  0  0  0  0  0  0  0
   11.3964  -21.1049   26.5360 C   0  0  0  0  0  0  0  0  0  0  0  0
   12.6357  -21.1606   26.3440 O   0  0  0  0  0  0  0  0  0  0  0  0
   12.0707  -19.2633   24.3976 C   0  0  0  0  0  0  0  0  0  0  0  0
   11.5436  -19.2894   23.2586 O   0  0  0  0  0  0  0  0  0  0  0  0
   10.7896  -22.2239   27.1051 O   0  0  0  0  0  0  0  0  0  0  0  0
   13.4027  -19.7058   24.4537 O   0  0  0  0  0  0  0  0  0  0  0  0
  2  1  1  6
  2  3  1  0
  4  2  1  0
  4  5  1  1
  6  4  1  0
  6  7  2  0
  8  9  1  0
  9 10  2  0
 10 11  1  0
 12 13  1  0
 12 11  2  0
 14 13  1  1
 14 15  1  0
 15  6  1  0
 16 14  1  0
 17 16  2  0
 18 12  1  0
 19 18  2  0
 19  9  1  0
 20 16  1  0
 21 20  1  0
 21 25  1  0
 21 22  1  6
 23 22  1  0
 24 23  2  0
 25 26  2  0
 25 28  1  0
 27 23  1  0
M  END
$$$$
