TYD.pdb
     RDKit          3D

 28 28  0  0  1  0  0  0  0  0999 V2000
    7.4401  -15.1999   16.9754 C   0  0  0  0  0  0  0  0  0  0  0  0
    7.8915  -15.1325   18.4307 C   0  0  1  0  0  0  0  0  0  0  0  0
    9.2548  -15.3695   18.5678 O   0  0  0  0  0  0  0  0  0  0  0  0
    7.6372  -13.7181   18.9626 C   0  0  2  0  0  0  0  0  0  0  0  0
    8.3706  -12.7679   18.1335 N   0  0  0  0  0  0  0  0  0  0  0  0
    8.0977  -13.5488   20.3539 C   0  0  0  0  0  0  0  0  0  0  0  0
    9.2008  -12.9622   20.6075 O   0  0  0  0  0  0  0  0  0  0  0  0
    7.8499  -13.1398   29.2485 O   0  0  0  0  0  0  0  0  0  0  0  0
    7.5463  -13.2914   27.8973 C   0  0  0  0  0  0  0  0  0  0  0  0
    7.3652  -14.5412   27.3341 C   0  0  0  0  0  0  0  0  0  0  0  0
    7.0646  -14.6936   25.9966 C   0  0  0  0  0  0  0  0  0  0  0  0
    6.9311  -13.5970   25.1582 C   0  0  0  0  0  0  0  0  0  0  0  0
    6.6091  -13.7863   23.7315 C   0  0  0  0  0  0  0  0  0  0  0  0
    7.8467  -13.8541   22.8629 C   0  0  2  0  0  0  0  0  0  0  0  0
    7.3919  -14.0005   21.5022 N   0  0  0  0  0  0  0  0  0  0  0  0
    8.8076  -14.8933   23.2701 C   0  0  0  0  0  0  0  0  0  0  0  0
    9.3337  -14.8162   24.4026 O   0  0  0  0  0  0  0  0  0  0  0  0
    7.1094  -12.3512   25.7094 C   0  0  0  0  0  0  0  0  0  0  0  0
    7.4139  -12.1996   27.0653 C   0  0  0  0  0  0  0  0  0  0  0  0
    9.1553  -15.9754   22.4282 N   0  0  0  0  0  0  0  0  0  0  0  0
   10.1610  -16.9494   22.8841 C   0  0  1  0  0  0  0  0  0  0  0  0
   11.5345  -16.3545   22.6341 C   0  0  0  0  0  0  0  0  0  0  0  0
   12.6210  -17.1858   23.1957 C   0  0  0  0  0  0  0  0  0  0  0  0
   12.5198  -18.4089   23.4594 O   0  0  0  0  0  0  0  0  0  0  0  0
    9.9725  -17.2014   24.3324 C   0  0  0  0  0  0  0  0  0  0  0  0
    9.7328  -18.3457   24.7895 O   0  0  0  0  0  0  0  0  0  0  0  0
   13.8492  -16.5784   23.4545 O   0  0  0  0  0  0  0  0  0  0  0  0
   10.0503  -16.1762   25.2896 O   0  0  0  0  0  0  0  0  0  0  0  0
  2  1  1  6
  2  3  1  0
  4  2  1  0
  4  5  1  6
  6  4  1  0
  6  7  2  0
  8  9  1  0
  9 10  2  0
 10 11  1  0
 12 13  1  0
 12 11  2  0
 14 13  1  1
 14 15  1  0
 15  6  1  0
 16 14  1  0
 17 16  2  0
 18 12  1  0
 19 18  2  0
 19  9  1  0
 20 16  1  0
 21 20  1  0
 21 25  1  0
 21 22  1  1
 23 22  1  0
 24 23  2  0
 25 26  2  0
 25 28  1  0
 27 23  1  0
M  END
$$$$
