TYD.pdb
     RDKit          3D

 28 28  0  0  1  0  0  0  0  0999 V2000
    7.6230  -17.5949   19.1569 C   0  0  0  0  0  0  0  0  0  0  0  0
    8.3256  -17.3775   20.4930 C   0  0  1  0  0  0  0  0  0  0  0  0
    9.4321  -18.2060   20.6438 O   0  0  0  0  0  0  0  0  0  0  0  0
    8.8460  -15.9373   20.5498 C   0  0  2  0  0  0  0  0  0  0  0  0
    9.7822  -15.7347   19.4495 N   0  0  0  0  0  0  0  0  0  0  0  0
    9.5610  -15.6464   21.8070 C   0  0  0  0  0  0  0  0  0  0  0  0
   10.8352  -15.6565   21.8484 O   0  0  0  0  0  0  0  0  0  0  0  0
   10.6679  -14.4671   30.6002 O   0  0  0  0  0  0  0  0  0  0  0  0
   10.1579  -14.5287   29.3052 C   0  0  0  0  0  0  0  0  0  0  0  0
    9.5926  -15.6879   28.8065 C   0  0  0  0  0  0  0  0  0  0  0  0
    9.0871  -15.7512   27.5247 C   0  0  0  0  0  0  0  0  0  0  0  0
    9.1246  -14.6520   26.6800 C   0  0  0  0  0  0  0  0  0  0  0  0
    8.5773  -14.7449   25.3137 C   0  0  0  0  0  0  0  0  0  0  0  0
    9.6210  -15.1590   24.2990 C   0  0  2  0  0  0  0  0  0  0  0  0
    8.9328  -15.3386   23.0445 N   0  0  0  0  0  0  0  0  0  0  0  0
   10.4138  -16.3333   24.7010 C   0  0  0  0  0  0  0  0  0  0  0  0
   11.2661  -16.2026   25.6076 O   0  0  0  0  0  0  0  0  0  0  0  0
    9.6845  -13.4958   27.1673 C   0  0  0  0  0  0  0  0  0  0  0  0
   10.1960  -13.4345   28.4668 C   0  0  0  0  0  0  0  0  0  0  0  0
   10.2450  -17.6029   24.1008 N   0  0  0  0  0  0  0  0  0  0  0  0
   10.9584  -18.7644   24.6577 C   0  0  1  0  0  0  0  0  0  0  0  0
   10.2938  -20.0203   24.1249 C   0  0  0  0  0  0  0  0  0  0  0  0
   10.9689  -20.5491   22.9201 C   0  0  0  0  0  0  0  0  0  0  0  0
   11.3416  -19.8498   21.9464 O   0  0  0  0  0  0  0  0  0  0  0  0
   12.3756  -18.7174   24.2262 C   0  0  0  0  0  0  0  0  0  0  0  0
   12.7837  -17.9204   23.3463 O   0  0  0  0  0  0  0  0  0  0  0  0
   11.2140  -21.9200   22.8499 O   0  0  0  0  0  0  0  0  0  0  0  0
   13.3559  -19.5613   24.7739 O   0  0  0  0  0  0  0  0  0  0  0  0
  2  1  1  6
  2  3  1  0
  4  2  1  0
  4  5  1  6
  6  4  1  0
  6  7  2  0
  8  9  1  0
  9 10  2  0
 10 11  1  0
 12 13  1  0
 12 11  2  0
 14 13  1  1
 14 15  1  0
 15  6  1  0
 16 14  1  0
 17 16  2  0
 18 12  1  0
 19 18  2  0
 19  9  1  0
 20 16  1  0
 21 20  1  0
 21 25  1  0
 21 22  1  6
 23 22  1  0
 24 23  2  0
 25 26  2  0
 25 28  1  0
 27 23  1  0
M  END
$$$$
