TYD.pdb
     RDKit          3D

 28 28  0  0  1  0  0  0  0  0999 V2000
    6.3535  -14.1232   18.1355 C   0  0  0  0  0  0  0  0  0  0  0  0
    7.1268  -14.5087   19.3923 C   0  0  1  0  0  0  0  0  0  0  0  0
    8.3055  -15.1840   19.0956 O   0  0  0  0  0  0  0  0  0  0  0  0
    7.5296  -13.2313   20.1368 C   0  0  2  0  0  0  0  0  0  0  0  0
    8.3575  -12.4169   19.2539 N   0  0  0  0  0  0  0  0  0  0  0  0
    8.3137  -13.5129   21.3542 C   0  0  0  0  0  0  0  0  0  0  0  0
    9.5856  -13.5857   21.3068 O   0  0  0  0  0  0  0  0  0  0  0  0
   10.3239  -14.8698   29.9380 O   0  0  0  0  0  0  0  0  0  0  0  0
    9.6879  -14.5853   28.7316 C   0  0  0  0  0  0  0  0  0  0  0  0
    9.1506  -13.3372   28.4757 C   0  0  0  0  0  0  0  0  0  0  0  0
    8.5205  -13.0534   27.2820 C   0  0  0  0  0  0  0  0  0  0  0  0
    8.3990  -14.0104   26.2857 C   0  0  0  0  0  0  0  0  0  0  0  0
    7.7209  -13.6822   25.0178 C   0  0  0  0  0  0  0  0  0  0  0  0
    8.5017  -14.1455   23.8069 C   0  0  2  0  0  0  0  0  0  0  0  0
    7.7584  -13.7219   22.6460 N   0  0  0  0  0  0  0  0  0  0  0  0
    8.8083  -15.5860   23.8077 C   0  0  0  0  0  0  0  0  0  0  0  0
    8.0240  -16.3687   23.2265 O   0  0  0  0  0  0  0  0  0  0  0  0
    8.9301  -15.2534   26.5314 C   0  0  0  0  0  0  0  0  0  0  0  0
    9.5683  -15.5383   27.7421 C   0  0  0  0  0  0  0  0  0  0  0  0
    9.9575  -16.1158   24.4397 N   0  0  0  0  0  0  0  0  0  0  0  0
   10.4282  -17.4610   24.0699 C   0  0  1  0  0  0  0  0  0  0  0  0
   10.8057  -17.4364   22.6003 C   0  0  0  0  0  0  0  0  0  0  0  0
   11.4557  -18.6907   22.1629 C   0  0  0  0  0  0  0  0  0  0  0  0
   10.9897  -19.8403   22.3554 O   0  0  0  0  0  0  0  0  0  0  0  0
   11.6120  -17.8052   24.8928 C   0  0  0  0  0  0  0  0  0  0  0  0
   12.2144  -18.9005   24.7778 O   0  0  0  0  0  0  0  0  0  0  0  0
   12.6725  -18.6019   21.4879 O   0  0  0  0  0  0  0  0  0  0  0  0
   12.1383  -16.9280   25.8554 O   0  0  0  0  0  0  0  0  0  0  0  0
  2  1  1  6
  2  3  1  0
  4  2  1  0
  4  5  1  6
  6  4  1  0
  6  7  2  0
  8  9  1  0
  9 10  2  0
 10 11  1  0
 12 13  1  0
 12 11  2  0
 14 13  1  1
 14 15  1  0
 15  6  1  0
 16 14  1  0
 17 16  2  0
 18 12  1  0
 19 18  2  0
 19  9  1  0
 20 16  1  0
 21 20  1  0
 21 25  1  0
 21 22  1  6
 23 22  1  0
 24 23  2  0
 25 26  2  0
 25 28  1  0
 27 23  1  0
M  END
$$$$
