TYD.pdb
     RDKit          3D

 28 28  0  0  1  0  0  0  0  0999 V2000
    8.1305  -12.8066   18.1012 C   0  0  0  0  0  0  0  0  0  0  0  0
    7.7130  -14.2674   18.2341 C   0  0  1  0  0  0  0  0  0  0  0  0
    7.5777  -14.8882   16.9972 O   0  0  0  0  0  0  0  0  0  0  0  0
    8.8084  -15.0285   18.9884 C   0  0  2  0  0  0  0  0  0  0  0  0
    8.4454  -16.4405   19.0408 N   0  0  0  0  0  0  0  0  0  0  0  0
    8.9695  -14.5546   20.3762 C   0  0  0  0  0  0  0  0  0  0  0  0
    9.8564  -13.6868   20.6687 O   0  0  0  0  0  0  0  0  0  0  0  0
    6.8886  -12.2683   28.6784 O   0  0  0  0  0  0  0  0  0  0  0  0
    6.9031  -12.8001   27.3908 C   0  0  0  0  0  0  0  0  0  0  0  0
    6.7508  -14.1563   27.1683 C   0  0  0  0  0  0  0  0  0  0  0  0
    6.7649  -14.6850   25.8944 C   0  0  0  0  0  0  0  0  0  0  0  0
    6.9329  -13.8765   24.7803 C   0  0  0  0  0  0  0  0  0  0  0  0
    6.9442  -14.4660   23.4285 C   0  0  0  0  0  0  0  0  0  0  0  0
    8.3353  -14.5275   22.8355 C   0  0  2  0  0  0  0  0  0  0  0  0
    8.1887  -14.9953   21.4792 N   0  0  0  0  0  0  0  0  0  0  0  0
    9.2882  -15.3251   23.6261 C   0  0  0  0  0  0  0  0  0  0  0  0
    9.4277  -15.0647   24.8419 O   0  0  0  0  0  0  0  0  0  0  0  0
    7.0850  -12.5276   24.9920 C   0  0  0  0  0  0  0  0  0  0  0  0
    7.0703  -11.9944   26.2842 C   0  0  0  0  0  0  0  0  0  0  0  0
   10.0492  -16.3750   23.0612 N   0  0  0  0  0  0  0  0  0  0  0  0
   10.9792  -17.1320   23.9156 C   0  0  1  0  0  0  0  0  0  0  0  0
   10.8344  -18.6036   23.5744 C   0  0  0  0  0  0  0  0  0  0  0  0
    9.4611  -19.1035   23.8008 C   0  0  0  0  0  0  0  0  0  0  0  0
    8.8014  -18.9247   24.8537 O   0  0  0  0  0  0  0  0  0  0  0  0
   12.3650  -16.6816   23.6444 C   0  0  0  0  0  0  0  0  0  0  0  0
   12.6434  -15.8904   22.7104 O   0  0  0  0  0  0  0  0  0  0  0  0
    8.8458  -19.8260   22.7792 O   0  0  0  0  0  0  0  0  0  0  0  0
   13.4584  -17.1100   24.4152 O   0  0  0  0  0  0  0  0  0  0  0  0
  2  1  1  6
  2  3  1  0
  4  2  1  0
  4  5  1  1
  6  4  1  0
  6  7  2  0
  8  9  1  0
  9 10  2  0
 10 11  1  0
 12 13  1  0
 12 11  2  0
 14 13  1  1
 14 15  1  0
 15  6  1  0
 16 14  1  0
 17 16  2  0
 18 12  1  0
 19 18  2  0
 19  9  1  0
 20 16  1  0
 21 20  1  0
 21 25  1  0
 21 22  1  6
 23 22  1  0
 24 23  2  0
 25 26  2  0
 25 28  1  0
 27 23  1  0
M  END
$$$$
