TYD.pdb
     RDKit          3D

 28 28  0  0  1  0  0  0  0  0999 V2000
    7.0829  -16.8025   20.4288 C   0  0  0  0  0  0  0  0  0  0  0  0
    7.4995  -15.5567   19.6539 C   0  0  1  0  0  0  0  0  0  0  0  0
    6.7575  -15.3915   18.4896 O   0  0  0  0  0  0  0  0  0  0  0  0
    7.2332  -14.3221   20.5216 C   0  0  2  0  0  0  0  0  0  0  0  0
    7.4941  -13.1269   19.7268 N   0  0  0  0  0  0  0  0  0  0  0  0
    8.1060  -14.2703   21.7098 C   0  0  0  0  0  0  0  0  0  0  0  0
    9.3323  -13.9387   21.6027 O   0  0  0  0  0  0  0  0  0  0  0  0
   10.6244  -15.1955   30.2378 O   0  0  0  0  0  0  0  0  0  0  0  0
    9.9115  -15.0143   29.0547 C   0  0  0  0  0  0  0  0  0  0  0  0
    9.8865  -13.7929   28.4070 C   0  0  0  0  0  0  0  0  0  0  0  0
    9.1813  -13.6112   27.2356 C   0  0  0  0  0  0  0  0  0  0  0  0
    8.4659  -14.6486   26.6566 C   0  0  0  0  0  0  0  0  0  0  0  0
    7.7199  -14.4291   25.4035 C   0  0  0  0  0  0  0  0  0  0  0  0
    8.5679  -14.6756   24.1743 C   0  0  2  0  0  0  0  0  0  0  0  0
    7.6894  -14.5703   23.0354 N   0  0  0  0  0  0  0  0  0  0  0  0
    9.3229  -15.9395   24.2117 C   0  0  0  0  0  0  0  0  0  0  0  0
    8.7010  -17.0165   24.0750 O   0  0  0  0  0  0  0  0  0  0  0  0
    8.4851  -15.8658   27.2934 C   0  0  0  0  0  0  0  0  0  0  0  0
    9.2007  -16.0472   28.4806 C   0  0  0  0  0  0  0  0  0  0  0  0
   10.7249  -15.9795   24.3946 N   0  0  0  0  0  0  0  0  0  0  0  0
   11.4028  -17.2830   24.4903 C   0  0  1  0  0  0  0  0  0  0  0  0
   12.6974  -17.1953   23.7034 C   0  0  0  0  0  0  0  0  0  0  0  0
   12.5044  -17.4789   22.2649 C   0  0  0  0  0  0  0  0  0  0  0  0
   11.4839  -18.0220   21.7755 O   0  0  0  0  0  0  0  0  0  0  0  0
   11.6925  -17.5771   25.9139 C   0  0  0  0  0  0  0  0  0  0  0  0
   11.2686  -18.6110   26.4859 O   0  0  0  0  0  0  0  0  0  0  0  0
   13.5216  -17.1221   21.3804 O   0  0  0  0  0  0  0  0  0  0  0  0
   12.4613  -16.7184   26.7169 O   0  0  0  0  0  0  0  0  0  0  0  0
  2  1  1  1
  2  3  1  0
  4  2  1  0
  4  5  1  6
  6  4  1  0
  6  7  2  0
  8  9  1  0
  9 10  2  0
 10 11  1  0
 12 13  1  0
 12 11  2  0
 14 13  1  1
 14 15  1  0
 15  6  1  0
 16 14  1  0
 17 16  2  0
 18 12  1  0
 19 18  2  0
 19  9  1  0
 20 16  1  0
 21 20  1  0
 21 25  1  0
 21 22  1  6
 23 22  1  0
 24 23  2  0
 25 26  2  0
 25 28  1  0
 27 23  1  0
M  END
$$$$
