TYD.pdb
     RDKit          3D

 28 28  0  0  1  0  0  0  0  0999 V2000
    8.0335  -16.6510   18.9278 C   0  0  0  0  0  0  0  0  0  0  0  0
    8.6125  -15.4322   18.2169 C   0  0  1  0  0  0  0  0  0  0  0  0
    8.3854  -15.4686   16.8455 O   0  0  0  0  0  0  0  0  0  0  0  0
    7.9138  -14.1740   18.7431 C   0  0  2  0  0  0  0  0  0  0  0  0
    8.3007  -13.0410   17.9096 N   0  0  0  0  0  0  0  0  0  0  0  0
    8.2936  -13.8590   20.1334 C   0  0  0  0  0  0  0  0  0  0  0  0
    9.3947  -13.2698   20.3896 O   0  0  0  0  0  0  0  0  0  0  0  0
    7.6251  -12.8486   28.9732 O   0  0  0  0  0  0  0  0  0  0  0  0
    7.3822  -13.0739   27.6201 C   0  0  0  0  0  0  0  0  0  0  0  0
    7.1566  -12.0286   26.7434 C   0  0  0  0  0  0  0  0  0  0  0  0
    6.9158  -12.2493   25.4034 C   0  0  0  0  0  0  0  0  0  0  0  0
    6.8896  -13.5323   24.8775 C   0  0  0  0  0  0  0  0  0  0  0  0
    6.6301  -13.7421   23.4410 C   0  0  0  0  0  0  0  0  0  0  0  0
    7.9036  -13.9190   22.6425 C   0  0  2  0  0  0  0  0  0  0  0  0
    7.5077  -14.1649   21.2777 N   0  0  0  0  0  0  0  0  0  0  0  0
    8.8090  -14.9487   23.1801 C   0  0  0  0  0  0  0  0  0  0  0  0
    9.2399  -14.8211   24.3478 O   0  0  0  0  0  0  0  0  0  0  0  0
    7.1127  -14.5771   25.7413 C   0  0  0  0  0  0  0  0  0  0  0  0
    7.3566  -14.3505   27.0991 C   0  0  0  0  0  0  0  0  0  0  0  0
    9.2071  -16.0766   22.4251 N   0  0  0  0  0  0  0  0  0  0  0  0
   10.1146  -17.0657   23.0302 C   0  0  1  0  0  0  0  0  0  0  0  0
    9.6095  -18.4489   22.6637 C   0  0  0  0  0  0  0  0  0  0  0  0
    9.4282  -18.6161   21.2055 C   0  0  0  0  0  0  0  0  0  0  0  0
   10.2171  -18.1766   20.3336 O   0  0  0  0  0  0  0  0  0  0  0  0
   11.4811  -16.8648   22.4923 C   0  0  0  0  0  0  0  0  0  0  0  0
   12.4533  -17.5756   22.8462 O   0  0  0  0  0  0  0  0  0  0  0  0
    8.3050  -19.3095   20.7561 O   0  0  0  0  0  0  0  0  0  0  0  0
   11.7782  -15.8660   21.5504 O   0  0  0  0  0  0  0  0  0  0  0  0
  2  1  1  1
  2  3  1  0
  4  2  1  0
  4  5  1  6
  6  4  1  0
  6  7  2  0
  8  9  1  0
  9 10  2  0
 10 11  1  0
 12 13  1  0
 12 11  2  0
 14 13  1  1
 14 15  1  0
 15  6  1  0
 16 14  1  0
 17 16  2  0
 18 12  1  0
 19 18  2  0
 19  9  1  0
 20 16  1  0
 21 20  1  0
 21 25  1  0
 21 22  1  6
 23 22  1  0
 24 23  2  0
 25 26  2  0
 25 28  1  0
 27 23  1  0
M  END
$$$$
