TYD.pdb
     RDKit          3D

 28 28  0  0  1  0  0  0  0  0999 V2000
    6.3233  -14.2524   18.4618 C   0  0  0  0  0  0  0  0  0  0  0  0
    7.1422  -14.6722   19.6780 C   0  0  1  0  0  0  0  0  0  0  0  0
    8.3198  -15.3185   19.3189 O   0  0  0  0  0  0  0  0  0  0  0  0
    7.5513  -13.4173   20.4564 C   0  0  2  0  0  0  0  0  0  0  0  0
    8.3669  -12.5743   19.5890 N   0  0  0  0  0  0  0  0  0  0  0  0
    8.3505  -13.7340   21.6552 C   0  0  0  0  0  0  0  0  0  0  0  0
    9.6233  -13.6675   21.6251 O   0  0  0  0  0  0  0  0  0  0  0  0
   10.5699  -15.1379   30.1425 O   0  0  0  0  0  0  0  0  0  0  0  0
    9.8966  -14.8713   28.9524 C   0  0  0  0  0  0  0  0  0  0  0  0
   10.0258  -13.6554   28.3067 C   0  0  0  0  0  0  0  0  0  0  0  0
    9.3601  -13.3893   27.1284 C   0  0  0  0  0  0  0  0  0  0  0  0
    8.5309  -14.3324   26.5401 C   0  0  0  0  0  0  0  0  0  0  0  0
    7.8301  -14.0238   25.2797 C   0  0  0  0  0  0  0  0  0  0  0  0
    8.5876  -14.5087   24.0625 C   0  0  2  0  0  0  0  0  0  0  0  0
    7.8097  -14.1273   22.9096 N   0  0  0  0  0  0  0  0  0  0  0  0
    8.9154  -15.9442   24.0941 C   0  0  0  0  0  0  0  0  0  0  0  0
    8.4651  -16.6440   25.0285 O   0  0  0  0  0  0  0  0  0  0  0  0
    8.3966  -15.5435   27.1748 C   0  0  0  0  0  0  0  0  0  0  0  0
    9.0725  -15.8106   28.3689 C   0  0  0  0  0  0  0  0  0  0  0  0
    9.7186  -16.5600   23.1061 N   0  0  0  0  0  0  0  0  0  0  0  0
   10.8952  -17.3433   23.5184 C   0  0  1  0  0  0  0  0  0  0  0  0
   12.1358  -16.5445   23.1641 C   0  0  0  0  0  0  0  0  0  0  0  0
   12.5526  -16.7418   21.7590 C   0  0  0  0  0  0  0  0  0  0  0  0
   11.9285  -17.4371   20.9207 O   0  0  0  0  0  0  0  0  0  0  0  0
   10.8388  -17.5718   24.9818 C   0  0  0  0  0  0  0  0  0  0  0  0
   10.3965  -16.7094   25.7796 O   0  0  0  0  0  0  0  0  0  0  0  0
   13.7200  -16.1157   21.3236 O   0  0  0  0  0  0  0  0  0  0  0  0
   11.2760  -18.7689   25.5725 O   0  0  0  0  0  0  0  0  0  0  0  0
  2  1  1  6
  2  3  1  0
  4  2  1  0
  4  5  1  6
  6  4  1  0
  6  7  2  0
  8  9  1  0
  9 10  2  0
 10 11  1  0
 12 13  1  0
 12 11  2  0
 14 13  1  1
 14 15  1  0
 15  6  1  0
 16 14  1  0
 17 16  2  0
 18 12  1  0
 19 18  2  0
 19  9  1  0
 20 16  1  0
 21 20  1  0
 21 25  1  0
 21 22  1  1
 23 22  1  0
 24 23  2  0
 25 26  2  0
 25 28  1  0
 27 23  1  0
M  END
$$$$
