TYD.pdb
     RDKit          3D

 28 28  0  0  1  0  0  0  0  0999 V2000
    7.6640  -14.9484   16.6845 C   0  0  0  0  0  0  0  0  0  0  0  0
    8.1387  -14.9752   18.1336 C   0  0  1  0  0  0  0  0  0  0  0  0
    9.5089  -15.1905   18.2321 O   0  0  0  0  0  0  0  0  0  0  0  0
    7.8633  -13.6087   18.7700 C   0  0  2  0  0  0  0  0  0  0  0  0
    8.6132  -12.5929   18.0391 N   0  0  0  0  0  0  0  0  0  0  0  0
    8.2863  -13.5498   20.1820 C   0  0  0  0  0  0  0  0  0  0  0  0
    9.4284  -13.0810   20.5002 O   0  0  0  0  0  0  0  0  0  0  0  0
    7.5632  -12.6564   28.9418 O   0  0  0  0  0  0  0  0  0  0  0  0
    7.3502  -13.0043   27.6097 C   0  0  0  0  0  0  0  0  0  0  0  0
    6.9136  -14.2674   27.2546 C   0  0  0  0  0  0  0  0  0  0  0  0
    6.7021  -14.6141   25.9364 C   0  0  0  0  0  0  0  0  0  0  0  0
    6.9189  -13.7080   24.9091 C   0  0  0  0  0  0  0  0  0  0  0  0
    6.6853  -14.1029   23.5075 C   0  0  0  0  0  0  0  0  0  0  0  0
    7.9331  -13.9894   22.6585 C   0  0  2  0  0  0  0  0  0  0  0  0
    7.5010  -13.9886   21.2826 N   0  0  0  0  0  0  0  0  0  0  0  0
    8.9496  -15.0150   22.9485 C   0  0  0  0  0  0  0  0  0  0  0  0
   10.1054  -14.8622   22.4944 O   0  0  0  0  0  0  0  0  0  0  0  0
    7.3527  -12.4506   25.2528 C   0  0  0  0  0  0  0  0  0  0  0  0
    7.5663  -12.1019   26.5896 C   0  0  0  0  0  0  0  0  0  0  0  0
    8.6668  -16.1645   23.7226 N   0  0  0  0  0  0  0  0  0  0  0  0
    9.7726  -17.0420   24.1412 C   0  0  1  0  0  0  0  0  0  0  0  0
   11.0498  -16.5161   23.5126 C   0  0  0  0  0  0  0  0  0  0  0  0
   12.1187  -17.5371   23.4665 C   0  0  0  0  0  0  0  0  0  0  0  0
   12.0317  -18.6842   23.9690 O   0  0  0  0  0  0  0  0  0  0  0  0
    9.8841  -17.0125   25.6189 C   0  0  0  0  0  0  0  0  0  0  0  0
    9.1602  -16.2760   26.3325 O   0  0  0  0  0  0  0  0  0  0  0  0
   13.3119  -17.2136   22.8216 O   0  0  0  0  0  0  0  0  0  0  0  0
   10.8070  -17.8076   26.3185 O   0  0  0  0  0  0  0  0  0  0  0  0
  2  1  1  6
  2  3  1  0
  4  2  1  0
  4  5  1  6
  6  4  1  0
  6  7  2  0
  8  9  1  0
  9 10  2  0
 10 11  1  0
 12 13  1  0
 12 11  2  0
 14 13  1  1
 14 15  1  0
 15  6  1  0
 16 14  1  0
 17 16  2  0
 18 12  1  0
 19 18  2  0
 19  9  1  0
 20 16  1  0
 21 20  1  0
 21 25  1  0
 21 22  1  6
 23 22  1  0
 24 23  2  0
 25 26  2  0
 25 28  1  0
 27 23  1  0
M  END
$$$$
