TYD.pdb
     RDKit          3D

 28 28  0  0  1  0  0  0  0  0999 V2000
    7.2135  -16.4386   20.0887 C   0  0  0  0  0  0  0  0  0  0  0  0
    7.7892  -15.1758   19.4563 C   0  0  1  0  0  0  0  0  0  0  0  0
    7.1962  -14.8856   18.2325 O   0  0  0  0  0  0  0  0  0  0  0  0
    7.4993  -13.9852   20.3765 C   0  0  2  0  0  0  0  0  0  0  0  0
    7.8233  -12.7540   19.6642 N   0  0  0  0  0  0  0  0  0  0  0  0
    8.3085  -14.0168   21.6096 C   0  0  0  0  0  0  0  0  0  0  0  0
    9.5427  -13.6980   21.5864 O   0  0  0  0  0  0  0  0  0  0  0  0
   10.3969  -15.1527   30.2213 O   0  0  0  0  0  0  0  0  0  0  0  0
    9.7390  -14.9690   29.0071 C   0  0  0  0  0  0  0  0  0  0  0  0
    9.0978  -16.0144   28.3682 C   0  0  0  0  0  0  0  0  0  0  0  0
    8.4459  -15.8349   27.1661 C   0  0  0  0  0  0  0  0  0  0  0  0
    8.4058  -14.5951   26.5459 C   0  0  0  0  0  0  0  0  0  0  0  0
    7.7020  -14.4288   25.2606 C   0  0  0  0  0  0  0  0  0  0  0  0
    8.6312  -14.5491   24.0720 C   0  0  2  0  0  0  0  0  0  0  0  0
    7.8189  -14.3881   22.8914 N   0  0  0  0  0  0  0  0  0  0  0  0
    9.4336  -15.7841   24.0621 C   0  0  0  0  0  0  0  0  0  0  0  0
    8.8770  -16.8610   23.7524 O   0  0  0  0  0  0  0  0  0  0  0  0
    9.0403  -13.5506   27.1736 C   0  0  0  0  0  0  0  0  0  0  0  0
    9.7003  -13.7354   28.3920 C   0  0  0  0  0  0  0  0  0  0  0  0
   10.8099  -15.7961   24.3881 N   0  0  0  0  0  0  0  0  0  0  0  0
   11.5736  -17.0470   24.2464 C   0  0  1  0  0  0  0  0  0  0  0  0
   12.9017  -16.7121   23.5930 C   0  0  0  0  0  0  0  0  0  0  0  0
   13.0171  -17.2714   22.2288 C   0  0  0  0  0  0  0  0  0  0  0  0
   13.9703  -17.0460   21.4438 O   0  0  0  0  0  0  0  0  0  0  0  0
   11.8012  -17.6325   25.5889 C   0  0  0  0  0  0  0  0  0  0  0  0
   12.4262  -18.7084   25.7552 O   0  0  0  0  0  0  0  0  0  0  0  0
   12.0008  -18.1096   21.7719 O   0  0  0  0  0  0  0  0  0  0  0  0
   11.3330  -17.0216   26.7640 O   0  0  0  0  0  0  0  0  0  0  0  0
  2  1  1  1
  2  3  1  0
  4  2  1  0
  4  5  1  6
  6  4  1  0
  6  7  2  0
  8  9  1  0
  9 10  2  0
 10 11  1  0
 12 13  1  0
 12 11  2  0
 14 13  1  1
 14 15  1  0
 15  6  1  0
 16 14  1  0
 17 16  2  0
 18 12  1  0
 19 18  2  0
 19  9  1  0
 20 16  1  0
 21 20  1  0
 21 25  1  0
 21 22  1  1
 23 22  1  0
 24 23  2  0
 25 26  2  0
 25 28  1  0
 27 23  1  0
M  END
$$$$
