TYD.pdb
     RDKit          3D

 28 28  0  0  1  0  0  0  0  0999 V2000
    8.1934  -12.9292   18.5397 C   0  0  0  0  0  0  0  0  0  0  0  0
    7.8298  -14.4076   18.6302 C   0  0  1  0  0  0  0  0  0  0  0  0
    7.6547  -14.9817   17.3758 O   0  0  0  0  0  0  0  0  0  0  0  0
    8.9842  -15.1612   19.2992 C   0  0  2  0  0  0  0  0  0  0  0  0
    8.6911  -16.5899   19.2668 N   0  0  0  0  0  0  0  0  0  0  0  0
    9.1673  -14.7723   20.7104 C   0  0  0  0  0  0  0  0  0  0  0  0
   10.3119  -14.4155   21.1439 O   0  0  0  0  0  0  0  0  0  0  0  0
    6.8458  -11.8179   28.8065 O   0  0  0  0  0  0  0  0  0  0  0  0
    6.8555  -12.3213   27.5076 C   0  0  0  0  0  0  0  0  0  0  0  0
    6.5971  -13.6548   27.2485 C   0  0  0  0  0  0  0  0  0  0  0  0
    6.6062  -14.1555   25.9633 C   0  0  0  0  0  0  0  0  0  0  0  0
    6.8756  -13.3405   24.8740 C   0  0  0  0  0  0  0  0  0  0  0  0
    6.8793  -13.8997   23.5095 C   0  0  0  0  0  0  0  0  0  0  0  0
    8.2728  -14.2410   23.0275 C   0  0  2  0  0  0  0  0  0  0  0  0
    8.1348  -14.7554   21.6873 N   0  0  0  0  0  0  0  0  0  0  0  0
    9.0116  -15.1458   23.9246 C   0  0  0  0  0  0  0  0  0  0  0  0
    9.2580  -14.7674   25.0915 O   0  0  0  0  0  0  0  0  0  0  0  0
    7.1335  -12.0140   25.1222 C   0  0  0  0  0  0  0  0  0  0  0  0
    7.1235  -11.5092   26.4258 C   0  0  0  0  0  0  0  0  0  0  0  0
    9.4504  -16.4266   23.5154 N   0  0  0  0  0  0  0  0  0  0  0  0
   10.1753  -17.2800   24.4715 C   0  0  1  0  0  0  0  0  0  0  0  0
    9.6706  -18.7014   24.3050 C   0  0  0  0  0  0  0  0  0  0  0  0
   10.3522  -19.6525   25.2094 C   0  0  0  0  0  0  0  0  0  0  0  0
   11.2130  -19.3314   26.0648 O   0  0  0  0  0  0  0  0  0  0  0  0
   11.6263  -17.2182   24.1754 C   0  0  0  0  0  0  0  0  0  0  0  0
   12.4780  -17.8391   24.8572 O   0  0  0  0  0  0  0  0  0  0  0  0
   10.0231  -21.0041   25.1139 O   0  0  0  0  0  0  0  0  0  0  0  0
   12.1442  -16.4611   23.1115 O   0  0  0  0  0  0  0  0  0  0  0  0
  2  1  1  6
  2  3  1  0
  4  2  1  0
  4  5  1  1
  6  4  1  0
  6  7  2  0
  8  9  1  0
  9 10  2  0
 10 11  1  0
 12 13  1  0
 12 11  2  0
 14 13  1  1
 14 15  1  0
 15  6  1  0
 16 14  1  0
 17 16  2  0
 18 12  1  0
 19 18  2  0
 19  9  1  0
 20 16  1  0
 21 20  1  0
 21 25  1  0
 21 22  1  6
 23 22  1  0
 24 23  2  0
 25 26  2  0
 25 28  1  0
 27 23  1  0
M  END
$$$$
