TYD.pdb
     RDKit          3D

 28 28  0  0  1  0  0  0  0  0999 V2000
    9.0347  -19.4995   18.8959 C   0  0  0  0  0  0  0  0  0  0  0  0
    9.1291  -18.6074   20.1293 C   0  0  1  0  0  0  0  0  0  0  0  0
   10.2448  -18.9022   20.9049 O   0  0  0  0  0  0  0  0  0  0  0  0
    9.2830  -17.1516   19.6763 C   0  0  2  0  0  0  0  0  0  0  0  0
   10.5065  -17.0332   18.8906 N   0  0  0  0  0  0  0  0  0  0  0  0
    9.3870  -16.2166   20.8127 C   0  0  0  0  0  0  0  0  0  0  0  0
   10.5214  -15.7721   21.1880 O   0  0  0  0  0  0  0  0  0  0  0  0
    6.7122  -11.1815   27.7052 O   0  0  0  0  0  0  0  0  0  0  0  0
    6.7767  -11.9598   26.5516 C   0  0  0  0  0  0  0  0  0  0  0  0
    7.0646  -11.4019   25.3196 C   0  0  0  0  0  0  0  0  0  0  0  0
    7.1289  -12.1706   24.1762 C   0  0  0  0  0  0  0  0  0  0  0  0
    6.9070  -13.5390   24.2141 C   0  0  0  0  0  0  0  0  0  0  0  0
    6.9816  -14.3392   22.9776 C   0  0  0  0  0  0  0  0  0  0  0  0
    8.3827  -14.8359   22.6932 C   0  0  2  0  0  0  0  0  0  0  0  0
    8.2847  -15.7363   21.5710 N   0  0  0  0  0  0  0  0  0  0  0  0
    9.0548  -15.4320   23.8603 C   0  0  0  0  0  0  0  0  0  0  0  0
    9.3212  -14.7007   24.8400 O   0  0  0  0  0  0  0  0  0  0  0  0
    6.6203  -14.1019   25.4342 C   0  0  0  0  0  0  0  0  0  0  0  0
    6.5558  -13.3205   26.5915 C   0  0  0  0  0  0  0  0  0  0  0  0
    9.4079  -16.8006   23.9141 N   0  0  0  0  0  0  0  0  0  0  0  0
   10.1461  -17.3094   25.0821 C   0  0  1  0  0  0  0  0  0  0  0  0
    9.5012  -18.6148   25.5099 C   0  0  0  0  0  0  0  0  0  0  0  0
   10.2233  -19.2625   26.6261 C   0  0  0  0  0  0  0  0  0  0  0  0
   10.9134  -18.6523   27.4789 O   0  0  0  0  0  0  0  0  0  0  0  0
   11.5593  -17.5420   24.7006 C   0  0  0  0  0  0  0  0  0  0  0  0
   12.4236  -17.9251   25.5266 O   0  0  0  0  0  0  0  0  0  0  0  0
   10.1387  -20.6488   26.7498 O   0  0  0  0  0  0  0  0  0  0  0  0
   12.0247  -17.3498   23.3893 O   0  0  0  0  0  0  0  0  0  0  0  0
  2  1  1  6
  2  3  1  0
  4  2  1  0
  4  5  1  6
  6  4  1  0
  6  7  2  0
  8  9  1  0
  9 10  2  0
 10 11  1  0
 12 13  1  0
 12 11  2  0
 14 13  1  1
 14 15  1  0
 15  6  1  0
 16 14  1  0
 17 16  2  0
 18 12  1  0
 19 18  2  0
 19  9  1  0
 20 16  1  0
 21 20  1  0
 21 25  1  0
 21 22  1  6
 23 22  1  0
 24 23  2  0
 25 26  2  0
 25 28  1  0
 27 23  1  0
M  END
$$$$
