WLQ.pdb
     RDKit          3D

 32 33  0  0  1  0  0  0  0  0999 V2000
   10.8444  -15.3669   21.6313 N   0  0  0  0  0  0  0  0  0  0  0  0
    9.5525  -15.3350   22.2649 C   0  0  1  0  0  0  0  0  0  0  0  0
    8.6774  -16.3984   21.6765 C   0  0  0  0  0  0  0  0  0  0  0  0
    7.8812  -15.8137   20.5707 C   0  0  0  0  0  0  0  0  0  0  0  0
    6.8967  -16.4719   19.8151 C   0  0  0  0  0  0  0  0  0  0  0  0
    6.3553  -15.6313   18.9239 N   0  0  0  0  0  0  0  0  0  0  0  0
    6.9365  -14.4184   19.0431 C   0  0  0  0  0  0  0  0  0  0  0  0
    6.7324  -13.2315   18.3493 C   0  0  0  0  0  0  0  0  0  0  0  0
    7.4774  -12.1131   18.6587 C   0  0  0  0  0  0  0  0  0  0  0  0
    8.4110  -12.2276   19.6645 C   0  0  0  0  0  0  0  0  0  0  0  0
    8.6110  -13.4201   20.3568 C   0  0  0  0  0  0  0  0  0  0  0  0
    7.8732  -14.5304   20.0532 C   0  0  0  0  0  0  0  0  0  0  0  0
    9.6818  -15.4709   23.7460 C   0  0  0  0  0  0  0  0  0  0  0  0
   10.7583  -15.8840   24.2397 O   0  0  0  0  0  0  0  0  0  0  0  0
    8.5304  -12.2252   26.9332 C   0  0  0  0  0  0  0  0  0  0  0  0
    7.4013  -13.0510   26.3629 C   0  0  2  0  0  0  0  0  0  0  0  0
    6.0939  -12.4030   26.6207 C   0  0  0  0  0  0  0  0  0  0  0  0
    7.5081  -14.5022   26.5684 C   0  0  0  0  0  0  0  0  0  0  0  0
    8.6682  -15.2550   26.0653 C   0  0  2  0  0  0  0  0  0  0  0  0
    8.6306  -15.1489   24.6019 N   0  0  0  0  0  0  0  0  0  0  0  0
    8.8446  -16.6523   26.4818 C   0  0  0  0  0  0  0  0  0  0  0  0
    7.9287  -17.4981   26.5860 O   0  0  0  0  0  0  0  0  0  0  0  0
   13.3197  -18.2613   24.6979 N   0  0  0  0  0  0  0  0  0  0  0  0
   12.2786  -19.1033   24.2647 C   0  0  0  0  0  0  0  0  0  0  0  0
   12.1773  -19.4106   23.0652 O   0  0  0  0  0  0  0  0  0  0  0  0
   11.2727  -19.6463   25.2369 C   0  0  0  0  0  0  0  0  0  0  0  0
   11.5551  -19.1531   26.6275 C   0  0  0  0  0  0  0  0  0  0  0  0
   10.3753  -18.5374   27.2578 C   0  0  2  0  0  0  0  0  0  0  0  0
   10.1628  -17.1603   26.8169 N   0  0  0  0  0  0  0  0  0  0  0  0
   10.3325  -18.6683   28.7078 C   0  0  0  0  0  0  0  0  0  0  0  0
   10.4946  -19.7451   29.3057 O   0  0  0  0  0  0  0  0  0  0  0  0
   10.0978  -17.5575   29.5564 O   0  0  0  0  0  0  0  0  0  0  0  0
  2  1  1  6
  2 13  1  0
  3  2  1  0
  4  3  1  0
  5  4  2  0
  6  5  1  0
  7  6  1  0
  7 12  2  0
  8  7  1  0
  9  8  2  0
  9 10  1  0
 10 11  2  0
 11 12  1  0
 12  4  1  0
 13 14  2  0
 13 20  1  0
 16 18  1  0
 16 15  1  1
 16 17  1  0
 19 18  1  1
 19 21  1  0
 20 19  1  0
 21 29  1  0
 22 21  2  0
 24 23  1  0
 25 24  2  0
 26 24  1  0
 27 26  1  0
 28 27  1  1
 28 30  1  0
 29 28  1  0
 30 31  2  0
 30 32  1  0
M  END
$$$$
