WLQ.pdb
     RDKit          3D

 32 33  0  0  1  0  0  0  0  0999 V2000
    8.7959  -16.8779   22.3897 N   0  0  0  0  0  0  0  0  0  0  0  0
   10.0639  -16.2895   22.7325 C   0  0  1  0  0  0  0  0  0  0  0  0
   10.6002  -15.5308   21.5580 C   0  0  0  0  0  0  0  0  0  0  0  0
   10.7184  -16.4499   20.4005 C   0  0  0  0  0  0  0  0  0  0  0  0
    9.8864  -16.4749   19.2689 C   0  0  0  0  0  0  0  0  0  0  0  0
   10.3050  -17.4086   18.4046 N   0  0  0  0  0  0  0  0  0  0  0  0
   11.3964  -18.0251   18.9065 C   0  0  0  0  0  0  0  0  0  0  0  0
   12.1821  -19.0541   18.4010 C   0  0  0  0  0  0  0  0  0  0  0  0
   13.2563  -19.5240   19.1269 C   0  0  0  0  0  0  0  0  0  0  0  0
   13.5058  -18.9377   20.3477 C   0  0  0  0  0  0  0  0  0  0  0  0
   12.7148  -17.9062   20.8491 C   0  0  0  0  0  0  0  0  0  0  0  0
   11.6498  -17.4373   20.1314 C   0  0  0  0  0  0  0  0  0  0  0  0
    9.9415  -15.4301   23.9471 C   0  0  0  0  0  0  0  0  0  0  0  0
   10.9161  -14.7304   24.3131 O   0  0  0  0  0  0  0  0  0  0  0  0
    7.9071  -11.9737   26.2150 C   0  0  0  0  0  0  0  0  0  0  0  0
    6.9332  -13.0612   25.8268 C   0  0  2  0  0  0  0  0  0  0  0  0
    5.5357  -12.6115   26.0278 C   0  0  0  0  0  0  0  0  0  0  0  0
    7.2927  -14.4197   26.2565 C   0  0  0  0  0  0  0  0  0  0  0  0
    8.6616  -14.9313   26.0840 C   0  0  2  0  0  0  0  0  0  0  0  0
    8.7647  -15.3838   24.6916 N   0  0  0  0  0  0  0  0  0  0  0  0
    9.1571  -15.9627   27.0048 C   0  0  0  0  0  0  0  0  0  0  0  0
    9.1204  -15.8967   28.2536 O   0  0  0  0  0  0  0  0  0  0  0  0
   12.6100  -21.1957   25.4320 N   0  0  0  0  0  0  0  0  0  0  0  0
   11.3969  -20.8065   24.8344 C   0  0  0  0  0  0  0  0  0  0  0  0
   11.0883  -21.2283   23.7072 O   0  0  0  0  0  0  0  0  0  0  0  0
   10.4533  -19.8784   25.5416 C   0  0  0  0  0  0  0  0  0  0  0  0
   11.1454  -19.1764   26.6752 C   0  0  0  0  0  0  0  0  0  0  0  0
   10.2615  -18.2301   27.3761 C   0  0  2  0  0  0  0  0  0  0  0  0
    9.7523  -17.1837   26.4920 N   0  0  0  0  0  0  0  0  0  0  0  0
   10.8167  -17.6917   28.6103 C   0  0  0  0  0  0  0  0  0  0  0  0
   10.7935  -18.2960   29.6954 O   0  0  0  0  0  0  0  0  0  0  0  0
   11.4336  -16.4167   28.6638 O   0  0  0  0  0  0  0  0  0  0  0  0
  2  1  1  6
  2 13  1  0
  3  2  1  0
  4  3  1  0
  5  4  2  0
  6  5  1  0
  7  6  1  0
  7 12  2  0
  8  7  1  0
  9  8  2  0
  9 10  1  0
 10 11  2  0
 11 12  1  0
 12  4  1  0
 13 14  2  0
 13 20  1  0
 16 18  1  0
 16 15  1  1
 16 17  1  0
 19 18  1  1
 19 21  1  0
 20 19  1  0
 21 29  1  0
 22 21  2  0
 24 23  1  0
 25 24  2  0
 26 24  1  0
 27 26  1  0
 28 27  1  6
 28 30  1  0
 29 28  1  0
 30 31  2  0
 30 32  1  0
M  END
$$$$
