WLQ.pdb
     RDKit          3D

 32 33  0  0  1  0  0  0  0  0999 V2000
    8.3540  -17.4569   22.5287 N   0  0  0  0  0  0  0  0  0  0  0  0
    8.4850  -16.0241   22.4933 C   0  0  1  0  0  0  0  0  0  0  0  0
    7.2036  -15.4135   22.0159 C   0  0  0  0  0  0  0  0  0  0  0  0
    7.3341  -15.0757   20.5780 C   0  0  0  0  0  0  0  0  0  0  0  0
    7.0411  -15.9204   19.4944 C   0  0  0  0  0  0  0  0  0  0  0  0
    7.2388  -15.2768   18.3366 N   0  0  0  0  0  0  0  0  0  0  0  0
    7.6584  -14.0187   18.5904 C   0  0  0  0  0  0  0  0  0  0  0  0
    8.0015  -12.9767   17.7371 C   0  0  0  0  0  0  0  0  0  0  0  0
    8.4194  -11.7687   18.2545 C   0  0  0  0  0  0  0  0  0  0  0  0
    8.4787  -11.6489   19.6251 C   0  0  0  0  0  0  0  0  0  0  0  0
    8.1332  -12.6969   20.4755 C   0  0  0  0  0  0  0  0  0  0  0  0
    7.7174  -13.8954   19.9657 C   0  0  0  0  0  0  0  0  0  0  0  0
    8.8965  -15.4935   23.8268 C   0  0  0  0  0  0  0  0  0  0  0  0
    9.7459  -14.5729   23.8933 O   0  0  0  0  0  0  0  0  0  0  0  0
    8.1162  -12.4406   26.7314 C   0  0  0  0  0  0  0  0  0  0  0  0
    7.1381  -13.5578   26.4541 C   0  0  2  0  0  0  0  0  0  0  0  0
    5.7484  -13.1181   26.7208 C   0  0  0  0  0  0  0  0  0  0  0  0
    7.5452  -14.8902   26.9218 C   0  0  0  0  0  0  0  0  0  0  0  0
    8.7288  -15.5608   26.3607 C   0  0  2  0  0  0  0  0  0  0  0  0
    8.3586  -15.9973   25.0092 N   0  0  0  0  0  0  0  0  0  0  0  0
    9.3465  -16.6610   27.1125 C   0  0  0  0  0  0  0  0  0  0  0  0
    9.2641  -16.8287   28.3495 O   0  0  0  0  0  0  0  0  0  0  0  0
   11.0460  -22.3864   24.7000 N   0  0  0  0  0  0  0  0  0  0  0  0
   10.8291  -21.1049   24.1606 C   0  0  0  0  0  0  0  0  0  0  0  0
   11.0211  -20.8914   22.9518 O   0  0  0  0  0  0  0  0  0  0  0  0
   10.3630  -19.9731   25.0288 C   0  0  0  0  0  0  0  0  0  0  0  0
   11.2381  -19.8367   26.2423 C   0  0  0  0  0  0  0  0  0  0  0  0
   10.7880  -18.7634   27.1442 C   0  0  2  0  0  0  0  0  0  0  0  0
   10.1327  -17.6712   26.4274 N   0  0  0  0  0  0  0  0  0  0  0  0
   11.8093  -18.2869   28.0669 C   0  0  0  0  0  0  0  0  0  0  0  0
   12.1201  -17.0905   28.1898 O   0  0  0  0  0  0  0  0  0  0  0  0
   12.5358  -19.1692   28.9052 O   0  0  0  0  0  0  0  0  0  0  0  0
  2  1  1  1
  2 13  1  0
  3  2  1  0
  4  3  1  0
  5  4  2  0
  6  5  1  0
  7  6  1  0
  7 12  2  0
  8  7  1  0
  9  8  2  0
  9 10  1  0
 10 11  2  0
 11 12  1  0
 12  4  1  0
 13 14  2  0
 13 20  1  0
 16 18  1  0
 16 15  1  1
 16 17  1  0
 19 18  1  1
 19 21  1  0
 20 19  1  0
 21 29  1  0
 22 21  2  0
 24 23  1  0
 25 24  2  0
 26 24  1  0
 27 26  1  0
 28 27  1  6
 28 30  1  0
 29 28  1  0
 30 31  2  0
 30 32  1  0
M  END
$$$$
