WLQ.pdb
     RDKit          3D

 32 33  0  0  1  0  0  0  0  0999 V2000
    6.6210  -18.4722   24.8685 N   0  0  0  0  0  0  0  0  0  0  0  0
    6.9222  -17.1307   24.4429 C   0  0  1  0  0  0  0  0  0  0  0  0
    7.8411  -16.4835   25.4325 C   0  0  0  0  0  0  0  0  0  0  0  0
    7.1732  -15.2899   26.0052 C   0  0  0  0  0  0  0  0  0  0  0  0
    5.8365  -15.2072   26.4293 C   0  0  0  0  0  0  0  0  0  0  0  0
    5.5812  -13.9902   26.9271 N   0  0  0  0  0  0  0  0  0  0  0  0
    6.6986  -13.2355   26.8577 C   0  0  0  0  0  0  0  0  0  0  0  0
    6.9410  -11.9192   27.2326 C   0  0  0  0  0  0  0  0  0  0  0  0
    8.1894  -11.3652   27.0428 C   0  0  0  0  0  0  0  0  0  0  0  0
    9.1605  -12.1612   26.4772 C   0  0  0  0  0  0  0  0  0  0  0  0
    8.9117  -13.4802   26.1037 C   0  0  0  0  0  0  0  0  0  0  0  0
    7.6754  -14.0327   26.2916 C   0  0  0  0  0  0  0  0  0  0  0  0
    7.4905  -17.1246   23.0623 C   0  0  0  0  0  0  0  0  0  0  0  0
    8.2055  -18.0821   22.6812 O   0  0  0  0  0  0  0  0  0  0  0  0
    8.6019  -12.0554   19.8098 C   0  0  0  0  0  0  0  0  0  0  0  0
    8.5211  -13.5611   19.7196 C   0  0  2  0  0  0  0  0  0  0  0  0
    7.9586  -13.9800   18.4143 C   0  0  0  0  0  0  0  0  0  0  0  0
    8.0472  -14.2461   20.9303 C   0  0  0  0  0  0  0  0  0  0  0  0
    8.0992  -15.7126   21.0402 C   0  0  2  0  0  0  0  0  0  0  0  0
    7.2467  -16.0755   22.1785 N   0  0  0  0  0  0  0  0  0  0  0  0
    9.4074  -16.3729   21.1381 C   0  0  0  0  0  0  0  0  0  0  0  0
    9.7107  -17.4623   20.6028 O   0  0  0  0  0  0  0  0  0  0  0  0
   13.7131  -14.0339   19.0413 N   0  0  0  0  0  0  0  0  0  0  0  0
   13.7451  -15.4283   18.8546 C   0  0  0  0  0  0  0  0  0  0  0  0
   14.2020  -15.9111   17.8049 O   0  0  0  0  0  0  0  0  0  0  0  0
   13.2309  -16.3587   19.9138 C   0  0  0  0  0  0  0  0  0  0  0  0
   12.7864  -15.5921   21.1268 C   0  0  0  0  0  0  0  0  0  0  0  0
   11.8243  -16.3454   21.9485 C   0  0  2  0  0  0  0  0  0  0  0  0
   10.4822  -15.7685   21.9047 N   0  0  0  0  0  0  0  0  0  0  0  0
   12.2719  -16.6053   23.3100 C   0  0  0  0  0  0  0  0  0  0  0  0
   11.6055  -16.3199   24.3187 O   0  0  0  0  0  0  0  0  0  0  0  0
   13.5224  -17.2122   23.5874 O   0  0  0  0  0  0  0  0  0  0  0  0
  2  1  1  1
  2 13  1  0
  3  2  1  0
  4  3  1  0
  5  4  2  0
  6  5  1  0
  7  6  1  0
  7 12  2  0
  8  7  1  0
  9  8  2  0
  9 10  1  0
 10 11  2  0
 11 12  1  0
 12  4  1  0
 13 14  2  0
 13 20  1  0
 16 18  1  0
 16 15  1  1
 16 17  1  0
 19 18  1  1
 19 21  1  0
 20 19  1  0
 21 29  1  0
 22 21  2  0
 24 23  1  0
 25 24  2  0
 26 24  1  0
 27 26  1  0
 28 27  1  1
 28 30  1  0
 29 28  1  0
 30 31  2  0
 30 32  1  0
M  END
$$$$
