WLQ.pdb
     RDKit          3D

 32 33  0  0  1  0  0  0  0  0999 V2000
    6.4100  -17.6263   24.3729 N   0  0  0  0  0  0  0  0  0  0  0  0
    7.2283  -16.4542   24.2061 C   0  0  1  0  0  0  0  0  0  0  0  0
    8.1952  -16.3496   25.3450 C   0  0  0  0  0  0  0  0  0  0  0  0
    7.6608  -15.3974   26.3481 C   0  0  0  0  0  0  0  0  0  0  0  0
    7.3042  -15.6973   27.6734 C   0  0  0  0  0  0  0  0  0  0  0  0
    6.8938  -14.5904   28.3062 N   0  0  0  0  0  0  0  0  0  0  0  0
    6.9567  -13.5414   27.4583 C   0  0  0  0  0  0  0  0  0  0  0  0
    6.6348  -12.2006   27.6328 C   0  0  0  0  0  0  0  0  0  0  0  0
    6.7790  -11.3134   26.5870 C   0  0  0  0  0  0  0  0  0  0  0  0
    7.2463  -11.8096   25.3904 C   0  0  0  0  0  0  0  0  0  0  0  0
    7.5676  -13.1547   25.2215 C   0  0  0  0  0  0  0  0  0  0  0  0
    7.4268  -14.0366   26.2567 C   0  0  0  0  0  0  0  0  0  0  0  0
    7.9198  -16.4709   22.8830 C   0  0  0  0  0  0  0  0  0  0  0  0
    8.1726  -17.5673   22.3286 O   0  0  0  0  0  0  0  0  0  0  0  0
    6.5345  -14.2838   19.4681 C   0  0  0  0  0  0  0  0  0  0  0  0
    7.4618  -13.3569   20.2183 C   0  0  2  0  0  0  0  0  0  0  0  0
    7.3067  -11.9615   19.7443 C   0  0  0  0  0  0  0  0  0  0  0  0
    8.8221  -13.8647   20.4448 C   0  0  0  0  0  0  0  0  0  0  0  0
    9.0462  -15.2157   20.9832 C   0  0  2  0  0  0  0  0  0  0  0  0
    8.2954  -15.2922   22.2421 N   0  0  0  0  0  0  0  0  0  0  0  0
   10.4244  -15.6879   21.1694 C   0  0  0  0  0  0  0  0  0  0  0  0
   11.2517  -15.8875   20.2523 O   0  0  0  0  0  0  0  0  0  0  0  0
   11.9491  -16.1787   26.8211 N   0  0  0  0  0  0  0  0  0  0  0  0
   11.9460  -17.4768   26.2776 C   0  0  0  0  0  0  0  0  0  0  0  0
   11.6881  -18.4576   26.9953 O   0  0  0  0  0  0  0  0  0  0  0  0
   12.2522  -17.7043   24.8262 C   0  0  0  0  0  0  0  0  0  0  0  0
   12.6612  -16.4215   24.1601 C   0  0  0  0  0  0  0  0  0  0  0  0
   12.3132  -16.3931   22.7296 C   0  0  2  0  0  0  0  0  0  0  0  0
   10.9340  -15.9677   22.4999 N   0  0  0  0  0  0  0  0  0  0  0  0
   12.6447  -17.6134   22.0069 C   0  0  0  0  0  0  0  0  0  0  0  0
   13.7999  -17.9180   21.6662 O   0  0  0  0  0  0  0  0  0  0  0  0
   11.6562  -18.5578   21.6326 O   0  0  0  0  0  0  0  0  0  0  0  0
  2  1  1  1
  2 13  1  0
  3  2  1  0
  4  3  1  0
  5  4  2  0
  6  5  1  0
  7  6  1  0
  7 12  2  0
  8  7  1  0
  9  8  2  0
  9 10  1  0
 10 11  2  0
 11 12  1  0
 12  4  1  0
 13 14  2  0
 13 20  1  0
 16 18  1  0
 16 15  1  6
 16 17  1  0
 19 18  1  1
 19 21  1  0
 20 19  1  0
 21 29  1  0
 22 21  2  0
 24 23  1  0
 25 24  2  0
 26 24  1  0
 27 26  1  0
 28 27  1  1
 28 30  1  0
 29 28  1  0
 30 31  2  0
 30 32  1  0
M  END
$$$$
