WLQ.pdb
     RDKit          3D

 32 33  0  0  1  0  0  0  0  0999 V2000
    5.8902  -17.6822   24.3069 N   0  0  0  0  0  0  0  0  0  0  0  0
    6.9046  -16.6742   24.1450 C   0  0  1  0  0  0  0  0  0  0  0  0
    7.8988  -16.7774   25.2602 C   0  0  0  0  0  0  0  0  0  0  0  0
    7.8252  -15.5507   26.0899 C   0  0  0  0  0  0  0  0  0  0  0  0
    6.6704  -14.7991   26.3641 C   0  0  0  0  0  0  0  0  0  0  0  0
    6.9639  -13.7759   27.1771 N   0  0  0  0  0  0  0  0  0  0  0  0
    8.2820  -13.8007   27.4690 C   0  0  0  0  0  0  0  0  0  0  0  0
    9.0636  -12.9601   28.2527 C   0  0  0  0  0  0  0  0  0  0  0  0
   10.4157  -13.1974   28.3844 C   0  0  0  0  0  0  0  0  0  0  0  0
   10.9402  -14.2819   27.7172 C   0  0  0  0  0  0  0  0  0  0  0  0
   10.1515  -15.1212   26.9332 C   0  0  0  0  0  0  0  0  0  0  0  0
    8.8106  -14.8893   26.8015 C   0  0  0  0  0  0  0  0  0  0  0  0
    7.5526  -16.7807   22.8042 C   0  0  0  0  0  0  0  0  0  0  0  0
    7.6812  -17.9058   22.2647 O   0  0  0  0  0  0  0  0  0  0  0  0
    7.5427  -12.3171   19.3063 C   0  0  0  0  0  0  0  0  0  0  0  0
    7.4885  -13.7698   19.7166 C   0  0  2  0  0  0  0  0  0  0  0  0
    6.1905  -14.0871   20.3569 C   0  0  0  0  0  0  0  0  0  0  0  0
    8.7127  -14.3034   20.3300 C   0  0  0  0  0  0  0  0  0  0  0  0
    8.7580  -15.6753   20.8605 C   0  0  2  0  0  0  0  0  0  0  0  0
    8.0225  -15.6553   22.1304 N   0  0  0  0  0  0  0  0  0  0  0  0
   10.0614  -16.3323   21.0238 C   0  0  0  0  0  0  0  0  0  0  0  0
   10.7024  -16.9056   20.1151 O   0  0  0  0  0  0  0  0  0  0  0  0
   14.6080  -14.5488   24.8921 N   0  0  0  0  0  0  0  0  0  0  0  0
   15.1295  -15.7500   24.3768 C   0  0  0  0  0  0  0  0  0  0  0  0
   16.2997  -16.0848   24.6262 O   0  0  0  0  0  0  0  0  0  0  0  0
   14.2882  -16.6491   23.5190 C   0  0  0  0  0  0  0  0  0  0  0  0
   12.9404  -16.0359   23.2654 C   0  0  0  0  0  0  0  0  0  0  0  0
   12.0495  -16.9276   22.5044 C   0  0  2  0  0  0  0  0  0  0  0  0
   10.7163  -16.3580   22.3194 N   0  0  0  0  0  0  0  0  0  0  0  0
   12.0036  -18.2963   23.0005 C   0  0  0  0  0  0  0  0  0  0  0  0
   11.0407  -18.7680   23.6277 O   0  0  0  0  0  0  0  0  0  0  0  0
   13.0732  -19.2047   22.8008 O   0  0  0  0  0  0  0  0  0  0  0  0
  2  1  1  1
  2 13  1  0
  3  2  1  0
  4  3  1  0
  5  4  2  0
  6  5  1  0
  7  6  1  0
  7 12  2  0
  8  7  1  0
  9  8  2  0
  9 10  1  0
 10 11  2  0
 11 12  1  0
 12  4  1  0
 13 14  2  0
 13 20  1  0
 16 18  1  0
 16 15  1  1
 16 17  1  0
 19 18  1  1
 19 21  1  0
 20 19  1  0
 21 29  1  0
 22 21  2  0
 24 23  1  0
 25 24  2  0
 26 24  1  0
 27 26  1  0
 28 27  1  1
 28 30  1  0
 29 28  1  0
 30 31  2  0
 30 32  1  0
M  END
$$$$
