WLQ.pdb
     RDKit          3D

 32 33  0  0  1  0  0  0  0  0999 V2000
    6.6242  -16.8333   25.0312 N   0  0  0  0  0  0  0  0  0  0  0  0
    7.3681  -15.8084   24.3475 C   0  0  1  0  0  0  0  0  0  0  0  0
    8.6213  -15.5039   25.1088 C   0  0  0  0  0  0  0  0  0  0  0  0
    8.2714  -14.7471   26.3349 C   0  0  0  0  0  0  0  0  0  0  0  0
    8.6114  -15.0942   27.6530 C   0  0  0  0  0  0  0  0  0  0  0  0
    8.1642  -14.1656   28.5084 N   0  0  0  0  0  0  0  0  0  0  0  0
    7.5282  -13.1934   27.8204 C   0  0  0  0  0  0  0  0  0  0  0  0
    6.8915  -12.0340   28.2474 C   0  0  0  0  0  0  0  0  0  0  0  0
    6.2955  -11.1947   27.3298 C   0  0  0  0  0  0  0  0  0  0  0  0
    6.3607  -11.5534   26.0019 C   0  0  0  0  0  0  0  0  0  0  0  0
    7.0006  -12.7167   25.5797 C   0  0  0  0  0  0  0  0  0  0  0  0
    7.5934  -13.5504   26.4868 C   0  0  0  0  0  0  0  0  0  0  0  0
    7.6516  -16.2068   22.9369 C   0  0  0  0  0  0  0  0  0  0  0  0
    7.2156  -17.2991   22.5009 O   0  0  0  0  0  0  0  0  0  0  0  0
    6.2164  -13.8917   19.9743 C   0  0  0  0  0  0  0  0  0  0  0  0
    7.6266  -13.4011   20.2036 C   0  0  2  0  0  0  0  0  0  0  0  0
    7.8067  -12.0398   19.6466 C   0  0  0  0  0  0  0  0  0  0  0  0
    8.6891  -14.3900   19.9740 C   0  0  0  0  0  0  0  0  0  0  0  0
    8.6844  -15.6835   20.6757 C   0  0  2  0  0  0  0  0  0  0  0  0
    8.3937  -15.3919   22.0845 N   0  0  0  0  0  0  0  0  0  0  0  0
    9.8554  -16.5619   20.5566 C   0  0  0  0  0  0  0  0  0  0  0  0
   10.2242  -17.1392   19.5097 O   0  0  0  0  0  0  0  0  0  0  0  0
   15.2777  -16.3548   23.7428 N   0  0  0  0  0  0  0  0  0  0  0  0
   14.6887  -15.4808   22.8103 C   0  0  0  0  0  0  0  0  0  0  0  0
   15.1197  -14.3234   22.6751 O   0  0  0  0  0  0  0  0  0  0  0  0
   13.5330  -15.9249   21.9623 C   0  0  0  0  0  0  0  0  0  0  0  0
   12.9836  -17.2340   22.4532 C   0  0  0  0  0  0  0  0  0  0  0  0
   11.8567  -17.7144   21.6361 C   0  0  2  0  0  0  0  0  0  0  0  0
   10.6974  -16.8276   21.7093 N   0  0  0  0  0  0  0  0  0  0  0  0
   11.5030  -19.1091   21.8622 C   0  0  0  0  0  0  0  0  0  0  0  0
   10.3640  -19.4857   22.1846 O   0  0  0  0  0  0  0  0  0  0  0  0
   12.4495  -20.1559   21.7293 O   0  0  0  0  0  0  0  0  0  0  0  0
  2  1  1  1
  2 13  1  0
  3  2  1  0
  4  3  1  0
  5  4  2  0
  6  5  1  0
  7  6  1  0
  7 12  2  0
  8  7  1  0
  9  8  2  0
  9 10  1  0
 10 11  2  0
 11 12  1  0
 12  4  1  0
 13 14  2  0
 13 20  1  0
 16 18  1  0
 16 15  1  6
 16 17  1  0
 19 18  1  6
 19 21  1  0
 20 19  1  0
 21 29  1  0
 22 21  2  0
 24 23  1  0
 25 24  2  0
 26 24  1  0
 27 26  1  0
 28 27  1  1
 28 30  1  0
 29 28  1  0
 30 31  2  0
 30 32  1  0
M  END
$$$$
