WLQ.pdb
     RDKit          3D

 32 33  0  0  1  0  0  0  0  0999 V2000
    6.1071  -17.8339   24.2225 N   0  0  0  0  0  0  0  0  0  0  0  0
    6.9316  -16.6627   24.0816 C   0  0  1  0  0  0  0  0  0  0  0  0
    7.9144  -16.6009   25.2099 C   0  0  0  0  0  0  0  0  0  0  0  0
    7.4811  -15.5604   26.1734 C   0  0  0  0  0  0  0  0  0  0  0  0
    6.9470  -15.7819   27.4537 C   0  0  0  0  0  0  0  0  0  0  0  0
    6.7003  -14.6148   28.0628 N   0  0  0  0  0  0  0  0  0  0  0  0
    7.0471  -13.6002   27.2421 C   0  0  0  0  0  0  0  0  0  0  0  0
    6.9763  -12.2220   27.4073 C   0  0  0  0  0  0  0  0  0  0  0  0
    7.3902  -11.3824   26.3947 C   0  0  0  0  0  0  0  0  0  0  0  0
    7.8652  -11.9628   25.2398 C   0  0  0  0  0  0  0  0  0  0  0  0
    7.9340  -13.3452   25.0801 C   0  0  0  0  0  0  0  0  0  0  0  0
    7.5256  -14.1803   26.0826 C   0  0  0  0  0  0  0  0  0  0  0  0
    7.6051  -16.6421   22.7494 C   0  0  0  0  0  0  0  0  0  0  0  0
    7.8006  -17.7186   22.1360 O   0  0  0  0  0  0  0  0  0  0  0  0
    6.8026  -13.7963   18.9449 C   0  0  0  0  0  0  0  0  0  0  0  0
    7.5614  -13.1618   20.0866 C   0  0  2  0  0  0  0  0  0  0  0  0
    7.6787  -11.6978   19.8906 C   0  0  0  0  0  0  0  0  0  0  0  0
    8.7476  -13.8965   20.5478 C   0  0  0  0  0  0  0  0  0  0  0  0
    8.6765  -15.3343   20.8533 C   0  0  2  0  0  0  0  0  0  0  0  0
    8.0261  -15.4499   22.1640 N   0  0  0  0  0  0  0  0  0  0  0  0
    9.9087  -16.1324   20.8113 C   0  0  0  0  0  0  0  0  0  0  0  0
   10.2629  -16.8683   19.8635 O   0  0  0  0  0  0  0  0  0  0  0  0
   14.2249  -14.0669   18.8568 N   0  0  0  0  0  0  0  0  0  0  0  0
   14.9689  -15.0817   19.4870 C   0  0  0  0  0  0  0  0  0  0  0  0
   16.1711  -15.2396   19.2158 O   0  0  0  0  0  0  0  0  0  0  0  0
   14.3304  -15.9910   20.4957 C   0  0  0  0  0  0  0  0  0  0  0  0
   12.9046  -15.5905   20.7474 C   0  0  0  0  0  0  0  0  0  0  0  0
   12.2538  -16.4323   21.7652 C   0  0  2  0  0  0  0  0  0  0  0  0
   10.8365  -16.1146   21.9280 N   0  0  0  0  0  0  0  0  0  0  0  0
   12.9592  -16.4884   23.0382 C   0  0  0  0  0  0  0  0  0  0  0  0
   12.4613  -16.1240   24.1164 O   0  0  0  0  0  0  0  0  0  0  0  0
   14.2883  -16.9702   23.1408 O   0  0  0  0  0  0  0  0  0  0  0  0
  2  1  1  1
  2 13  1  0
  3  2  1  0
  4  3  1  0
  5  4  2  0
  6  5  1  0
  7  6  1  0
  7 12  2  0
  8  7  1  0
  9  8  2  0
  9 10  1  0
 10 11  2  0
 11 12  1  0
 12  4  1  0
 13 14  2  0
 13 20  1  0
 16 18  1  0
 16 15  1  6
 16 17  1  0
 19 18  1  1
 19 21  1  0
 20 19  1  0
 21 29  1  0
 22 21  2  0
 24 23  1  0
 25 24  2  0
 26 24  1  0
 27 26  1  0
 28 27  1  6
 28 30  1  0
 29 28  1  0
 30 31  2  0
 30 32  1  0
M  END
$$$$
