WLQ.pdb
     RDKit          3D

 32 33  0  0  1  0  0  0  0  0999 V2000
    7.5341  -16.9513   25.1305 N   0  0  0  0  0  0  0  0  0  0  0  0
    8.7142  -16.3311   24.5882 C   0  0  1  0  0  0  0  0  0  0  0  0
    9.9321  -16.9177   25.2328 C   0  0  0  0  0  0  0  0  0  0  0  0
   10.0702  -16.3641   26.6013 C   0  0  0  0  0  0  0  0  0  0  0  0
   10.6428  -17.0128   27.7080 C   0  0  0  0  0  0  0  0  0  0  0  0
   10.6344  -16.2048   28.7761 N   0  0  0  0  0  0  0  0  0  0  0  0
   10.0743  -15.0234   28.4386 C   0  0  0  0  0  0  0  0  0  0  0  0
    9.8309  -13.8771   29.1859 C   0  0  0  0  0  0  0  0  0  0  0  0
    9.2229  -12.7866   28.6005 C   0  0  0  0  0  0  0  0  0  0  0  0
    8.8771  -12.8871   27.2713 C   0  0  0  0  0  0  0  0  0  0  0  0
    9.1240  -14.0388   26.5272 C   0  0  0  0  0  0  0  0  0  0  0  0
    9.7276  -15.1213   27.1043 C   0  0  0  0  0  0  0  0  0  0  0  0
    8.7490  -16.4607   23.1013 C   0  0  0  0  0  0  0  0  0  0  0  0
    8.5583  -17.5814   22.5713 O   0  0  0  0  0  0  0  0  0  0  0  0
    6.4378  -14.0442   20.4391 C   0  0  0  0  0  0  0  0  0  0  0  0
    7.7366  -13.3056   20.6612 C   0  0  2  0  0  0  0  0  0  0  0  0
    7.6268  -11.9002   20.2046 C   0  0  0  0  0  0  0  0  0  0  0  0
    8.9575  -14.0506   20.3236 C   0  0  0  0  0  0  0  0  0  0  0  0
    9.1736  -15.4174   20.8243 C   0  0  2  0  0  0  0  0  0  0  0  0
    8.9898  -15.3616   22.2795 N   0  0  0  0  0  0  0  0  0  0  0  0
   10.4224  -16.1110   20.4833 C   0  0  0  0  0  0  0  0  0  0  0  0
   10.5977  -16.8346   19.4779 O   0  0  0  0  0  0  0  0  0  0  0  0
   14.2353  -15.1871   17.3823 N   0  0  0  0  0  0  0  0  0  0  0  0
   14.4418  -14.5611   18.6256 C   0  0  0  0  0  0  0  0  0  0  0  0
   15.4339  -13.8354   18.8063 O   0  0  0  0  0  0  0  0  0  0  0  0
   13.4731  -14.7547   19.7553 C   0  0  0  0  0  0  0  0  0  0  0  0
   13.9273  -15.8621   20.6632 C   0  0  0  0  0  0  0  0  0  0  0  0
   12.8198  -16.7369   21.0831 C   0  0  2  0  0  0  0  0  0  0  0  0
   11.5885  -15.9928   21.3403 N   0  0  0  0  0  0  0  0  0  0  0  0
   13.1537  -17.6487   22.1687 C   0  0  0  0  0  0  0  0  0  0  0  0
   12.5129  -17.7165   23.2308 O   0  0  0  0  0  0  0  0  0  0  0  0
   14.2535  -18.5395   22.0912 O   0  0  0  0  0  0  0  0  0  0  0  0
  2  1  1  1
  2 13  1  0
  3  2  1  0
  4  3  1  0
  5  4  2  0
  6  5  1  0
  7  6  1  0
  7 12  2  0
  8  7  1  0
  9  8  2  0
  9 10  1  0
 10 11  2  0
 11 12  1  0
 12  4  1  0
 13 14  2  0
 13 20  1  0
 16 18  1  0
 16 15  1  6
 16 17  1  0
 19 18  1  1
 19 21  1  0
 20 19  1  0
 21 29  1  0
 22 21  2  0
 24 23  1  0
 25 24  2  0
 26 24  1  0
 27 26  1  0
 28 27  1  1
 28 30  1  0
 29 28  1  0
 30 31  2  0
 30 32  1  0
M  END
$$$$
