WLQ.pdb
     RDKit          3D

 32 33  0  0  1  0  0  0  0  0999 V2000
    6.0034  -19.3830   23.2212 N   0  0  0  0  0  0  0  0  0  0  0  0
    6.5242  -18.5405   24.2655 C   0  0  1  0  0  0  0  0  0  0  0  0
    7.7701  -19.1506   24.8295 C   0  0  0  0  0  0  0  0  0  0  0  0
    7.4217  -19.9307   26.0414 C   0  0  0  0  0  0  0  0  0  0  0  0
    6.8058  -21.1930   26.0703 C   0  0  0  0  0  0  0  0  0  0  0  0
    6.6743  -21.6172   27.3339 N   0  0  0  0  0  0  0  0  0  0  0  0
    7.1793  -20.6872   28.1725 C   0  0  0  0  0  0  0  0  0  0  0  0
    7.2685  -20.6546   29.5592 C   0  0  0  0  0  0  0  0  0  0  0  0
    7.8277  -19.5634   30.1903 C   0  0  0  0  0  0  0  0  0  0  0  0
    8.2821  -18.5327   29.3980 C   0  0  0  0  0  0  0  0  0  0  0  0
    8.1902  -18.5713   28.0083 C   0  0  0  0  0  0  0  0  0  0  0  0
    7.6374  -19.6521   27.3795 C   0  0  0  0  0  0  0  0  0  0  0  0
    6.7558  -17.1531   23.7651 C   0  0  0  0  0  0  0  0  0  0  0  0
    7.2950  -16.9788   22.6461 O   0  0  0  0  0  0  0  0  0  0  0  0
    6.3234  -11.8837   27.0297 C   0  0  0  0  0  0  0  0  0  0  0  0
    6.9325  -12.5600   25.8241 C   0  0  2  0  0  0  0  0  0  0  0  0
    7.0051  -11.6243   24.6773 C   0  0  0  0  0  0  0  0  0  0  0  0
    6.4792  -13.9345   25.5694 C   0  0  0  0  0  0  0  0  0  0  0  0
    7.0648  -14.7360   24.4830 C   0  0  2  0  0  0  0  0  0  0  0  0
    6.3867  -16.0373   24.5135 N   0  0  0  0  0  0  0  0  0  0  0  0
    8.5224  -14.9094   24.4328 C   0  0  0  0  0  0  0  0  0  0  0  0
    9.3303  -14.1035   23.9198 O   0  0  0  0  0  0  0  0  0  0  0  0
   12.1561  -19.7091   27.1591 N   0  0  0  0  0  0  0  0  0  0  0  0
   12.9478  -18.6636   26.6488 C   0  0  0  0  0  0  0  0  0  0  0  0
   14.0623  -18.4215   27.1419 O   0  0  0  0  0  0  0  0  0  0  0  0
   12.4665  -17.8221   25.5033 C   0  0  0  0  0  0  0  0  0  0  0  0
   10.9923  -17.5572   25.6188 C   0  0  0  0  0  0  0  0  0  0  0  0
   10.5814  -16.3361   24.9062 C   0  0  2  0  0  0  0  0  0  0  0  0
    9.1440  -16.0905   25.0043 N   0  0  0  0  0  0  0  0  0  0  0  0
   11.0665  -16.2489   23.5355 C   0  0  0  0  0  0  0  0  0  0  0  0
   10.3846  -16.5582   22.5443 O   0  0  0  0  0  0  0  0  0  0  0  0
   12.3746  -15.7981   23.2281 O   0  0  0  0  0  0  0  0  0  0  0  0
  2  1  1  6
  2 13  1  0
  3  2  1  0
  4  3  1  0
  5  4  2  0
  6  5  1  0
  7  6  1  0
  7 12  2  0
  8  7  1  0
  9  8  2  0
  9 10  1  0
 10 11  2  0
 11 12  1  0
 12  4  1  0
 13 14  2  0
 13 20  1  0
 16 18  1  0
 16 15  1  1
 16 17  1  0
 19 18  1  1
 19 21  1  0
 20 19  1  0
 21 29  1  0
 22 21  2  0
 24 23  1  0
 25 24  2  0
 26 24  1  0
 27 26  1  0
 28 27  1  6
 28 30  1  0
 29 28  1  0
 30 31  2  0
 30 32  1  0
M  END
$$$$
