WLQ.pdb
     RDKit          3D

 32 33  0  0  1  0  0  0  0  0999 V2000
    5.7884  -18.3311   24.7506 N   0  0  0  0  0  0  0  0  0  0  0  0
    6.7145  -18.2381   23.6528 C   0  0  1  0  0  0  0  0  0  0  0  0
    6.1716  -18.9828   22.4724 C   0  0  0  0  0  0  0  0  0  0  0  0
    5.6902  -20.3125   22.9180 C   0  0  0  0  0  0  0  0  0  0  0  0
    4.3506  -20.7261   23.0069 C   0  0  0  0  0  0  0  0  0  0  0  0
    4.2836  -22.0013   23.4111 N   0  0  0  0  0  0  0  0  0  0  0  0
    5.5331  -22.4756   23.6030 C   0  0  0  0  0  0  0  0  0  0  0  0
    5.9871  -23.7201   24.0238 C   0  0  0  0  0  0  0  0  0  0  0  0
    7.3397  -23.9546   24.1539 C   0  0  0  0  0  0  0  0  0  0  0  0
    8.1976  -22.9200   23.8538 C   0  0  0  0  0  0  0  0  0  0  0  0
    7.7366  -21.6747   23.4321 C   0  0  0  0  0  0  0  0  0  0  0  0
    6.3963  -21.4393   23.3009 C   0  0  0  0  0  0  0  0  0  0  0  0
    7.0137  -16.8121   23.3273 C   0  0  0  0  0  0  0  0  0  0  0  0
    7.6500  -16.5343   22.2826 O   0  0  0  0  0  0  0  0  0  0  0  0
    6.2516  -11.8989   27.0135 C   0  0  0  0  0  0  0  0  0  0  0  0
    7.0348  -12.4453   25.8431 C   0  0  2  0  0  0  0  0  0  0  0  0
    7.4296  -11.3554   24.9200 C   0  0  0  0  0  0  0  0  0  0  0  0
    6.5217  -13.6938   25.2620 C   0  0  0  0  0  0  0  0  0  0  0  0
    7.3985  -14.5834   24.4840 C   0  0  2  0  0  0  0  0  0  0  0  0
    6.6024  -15.7729   24.1593 N   0  0  0  0  0  0  0  0  0  0  0  0
    8.7015  -14.9657   25.0438 C   0  0  0  0  0  0  0  0  0  0  0  0
    9.8083  -14.5113   24.6781 O   0  0  0  0  0  0  0  0  0  0  0  0
    9.8692  -18.9335   30.0255 N   0  0  0  0  0  0  0  0  0  0  0  0
    9.7110  -19.5374   28.7643 C   0  0  0  0  0  0  0  0  0  0  0  0
    9.5638  -20.7675   28.6709 O   0  0  0  0  0  0  0  0  0  0  0  0
    9.7161  -18.7132   27.5102 C   0  0  0  0  0  0  0  0  0  0  0  0
    9.9137  -17.2586   27.8289 C   0  0  0  0  0  0  0  0  0  0  0  0
   10.0669  -16.4322   26.6199 C   0  0  2  0  0  0  0  0  0  0  0  0
    8.7858  -15.9476   26.1100 N   0  0  0  0  0  0  0  0  0  0  0  0
   10.8847  -17.0384   25.5781 C   0  0  0  0  0  0  0  0  0  0  0  0
   11.9508  -16.5489   25.1695 O   0  0  0  0  0  0  0  0  0  0  0  0
   10.5166  -18.2512   24.9436 O   0  0  0  0  0  0  0  0  0  0  0  0
  2  1  1  1
  2 13  1  0
  3  2  1  0
  4  3  1  0
  5  4  2  0
  6  5  1  0
  7  6  1  0
  7 12  2  0
  8  7  1  0
  9  8  2  0
  9 10  1  0
 10 11  2  0
 11 12  1  0
 12  4  1  0
 13 14  2  0
 13 20  1  0
 16 18  1  0
 16 15  1  1
 16 17  1  0
 19 18  1  1
 19 21  1  0
 20 19  1  0
 21 29  1  0
 22 21  2  0
 24 23  1  0
 25 24  2  0
 26 24  1  0
 27 26  1  0
 28 27  1  1
 28 30  1  0
 29 28  1  0
 30 31  2  0
 30 32  1  0
M  END
$$$$
