WLQ.pdb
     RDKit          3D

 32 33  0  0  1  0  0  0  0  0999 V2000
    6.3844  -18.6879   24.7607 N   0  0  0  0  0  0  0  0  0  0  0  0
    6.6979  -17.2866   24.6630 C   0  0  1  0  0  0  0  0  0  0  0  0
    7.3602  -16.8301   25.9262 C   0  0  0  0  0  0  0  0  0  0  0  0
    6.8284  -15.4968   26.2975 C   0  0  0  0  0  0  0  0  0  0  0  0
    5.4765  -15.1607   26.4790 C   0  0  0  0  0  0  0  0  0  0  0  0
    5.3617  -13.8778   26.8463 N   0  0  0  0  0  0  0  0  0  0  0  0
    6.5902  -13.3228   26.9221 C   0  0  0  0  0  0  0  0  0  0  0  0
    6.9958  -12.0340   27.2479 C   0  0  0  0  0  0  0  0  0  0  0  0
    8.3358  -11.7085   27.2408 C   0  0  0  0  0  0  0  0  0  0  0  0
    9.2304  -12.6995   26.9031 C   0  0  0  0  0  0  0  0  0  0  0  0
    8.8179  -13.9898   26.5777 C   0  0  0  0  0  0  0  0  0  0  0  0
    7.4902  -14.3160   26.5849 C   0  0  0  0  0  0  0  0  0  0  0  0
    7.5362  -17.0108   23.4588 C   0  0  0  0  0  0  0  0  0  0  0  0
    8.4172  -17.8343   23.1140 O   0  0  0  0  0  0  0  0  0  0  0  0
    7.8087  -12.0159   19.7621 C   0  0  0  0  0  0  0  0  0  0  0  0
    8.2805  -13.4311   19.9997 C   0  0  2  0  0  0  0  0  0  0  0  0
    8.2248  -14.2211   18.7473 C   0  0  0  0  0  0  0  0  0  0  0  0
    7.8027  -14.0611   21.2383 C   0  0  0  0  0  0  0  0  0  0  0  0
    8.2649  -15.4012   21.6335 C   0  0  2  0  0  0  0  0  0  0  0  0
    7.3654  -15.8538   22.7014 N   0  0  0  0  0  0  0  0  0  0  0  0
    9.6691  -15.5832   22.0234 C   0  0  0  0  0  0  0  0  0  0  0  0
   10.2003  -15.1174   23.0559 O   0  0  0  0  0  0  0  0  0  0  0  0
   12.4010  -21.0468   22.0709 N   0  0  0  0  0  0  0  0  0  0  0  0
   13.2440  -20.1590   22.7648 C   0  0  0  0  0  0  0  0  0  0  0  0
   13.9860  -20.5755   23.6701 O   0  0  0  0  0  0  0  0  0  0  0  0
   13.2659  -18.6967   22.4284 C   0  0  0  0  0  0  0  0  0  0  0  0
   11.9112  -18.2341   21.9728 C   0  0  0  0  0  0  0  0  0  0  0  0
   11.8823  -16.7954   21.6606 C   0  0  2  0  0  0  0  0  0  0  0  0
   10.5719  -16.3540   21.1873 N   0  0  0  0  0  0  0  0  0  0  0  0
   12.9644  -16.3471   20.7948 C   0  0  0  0  0  0  0  0  0  0  0  0
   14.0543  -15.9277   21.2182 O   0  0  0  0  0  0  0  0  0  0  0  0
   12.8499  -16.3563   19.3820 O   0  0  0  0  0  0  0  0  0  0  0  0
  2  1  1  1
  2 13  1  0
  3  2  1  0
  4  3  1  0
  5  4  2  0
  6  5  1  0
  7  6  1  0
  7 12  2  0
  8  7  1  0
  9  8  2  0
  9 10  1  0
 10 11  2  0
 11 12  1  0
 12  4  1  0
 13 14  2  0
 13 20  1  0
 16 18  1  0
 16 15  1  6
 16 17  1  0
 19 18  1  1
 19 21  1  0
 20 19  1  0
 21 29  1  0
 22 21  2  0
 24 23  1  0
 25 24  2  0
 26 24  1  0
 27 26  1  0
 28 27  1  6
 28 30  1  0
 29 28  1  0
 30 31  2  0
 30 32  1  0
M  END
$$$$
