SDY.pdb
     RDKit          3D

 27 27  0  0  1  0  0  0  0  0999 V2000
   13.5318  -17.8078   20.1134 O   0  0  0  0  0  0  0  0  0  0  0  0
   12.7897  -18.3661   19.0775 C   0  0  0  0  0  0  0  0  0  0  0  0
   11.8703  -17.3378   18.4394 C   0  0  2  0  0  0  0  0  0  0  0  0
   12.6965  -16.2792   17.8928 N   0  0  0  0  0  0  0  0  0  0  0  0
   10.9235  -16.8101   19.4581 C   0  0  0  0  0  0  0  0  0  0  0  0
   10.9886  -15.6190   19.8079 O   0  0  0  0  0  0  0  0  0  0  0  0
    9.9341  -17.6434   20.0492 N   0  0  0  0  0  0  0  0  0  0  0  0
    9.0613  -17.1723   21.1003 C   0  0  1  0  0  0  0  0  0  0  0  0
    7.8736  -18.0495   21.3216 C   0  0  0  0  0  0  0  0  0  0  0  0
    8.2052  -19.4728   21.5226 C   0  0  0  0  0  0  0  0  0  0  0  0
    9.3948  -19.8365   21.5116 O   0  0  0  0  0  0  0  0  0  0  0  0
    9.7810  -17.0065   22.3882 C   0  0  0  0  0  0  0  0  0  0  0  0
   10.8810  -17.5221   22.6452 O   0  0  0  0  0  0  0  0  0  0  0  0
    7.1943  -20.3844   21.7205 O   0  0  0  0  0  0  0  0  0  0  0  0
   10.9505  -14.4970   30.7895 O   0  0  0  0  0  0  0  0  0  0  0  0
   10.4550  -14.6075   29.4919 C   0  0  0  0  0  0  0  0  0  0  0  0
   10.1964  -13.5085   28.6999 C   0  0  0  0  0  0  0  0  0  0  0  0
    9.7081  -13.6473   27.4241 C   0  0  0  0  0  0  0  0  0  0  0  0
    9.4613  -14.9125   26.8985 C   0  0  0  0  0  0  0  0  0  0  0  0
    8.9361  -15.1356   25.5561 C   0  0  0  0  0  0  0  0  0  0  0  0
    9.8399  -15.9641   24.6716 C   0  0  2  0  0  0  0  0  0  0  0  0
    9.1748  -16.2068   23.3932 N   0  0  0  0  0  0  0  0  0  0  0  0
   10.0988  -17.2641   25.2930 C   0  0  0  0  0  0  0  0  0  0  0  0
    9.1672  -18.2732   25.1966 O   0  0  0  0  0  0  0  0  0  0  0  0
    9.7276  -16.0129   27.7104 C   0  0  0  0  0  0  0  0  0  0  0  0
   10.2108  -15.8678   28.9718 C   0  0  0  0  0  0  0  0  0  0  0  0
   11.1575  -17.4737   25.9147 O   0  0  0  0  0  0  0  0  0  0  0  0
  1  2  1  0
  3  2  1  0
  3  4  1  1
  5  3  1  0
  5  7  1  0
  6  5  2  0
  7  8  1  0
  8  9  1  1
  9 10  1  0
 10 14  1  0
 11 10  2  0
 12  8  1  0
 13 12  2  0
 16 15  1  0
 16 17  2  0
 18 17  1  0
 19 18  2  0
 20 19  1  0
 21 22  1  0
 21 20  1  1
 22 12  1  0
 23 21  1  0
 24 23  1  0
 25 26  2  0
 25 19  1  0
 26 16  1  0
 27 23  2  0
M  END
$$$$
