SDY.pdb
     RDKit          3D

 27 27  0  0  1  0  0  0  0  0999 V2000
    6.5051  -16.0053   21.7092 O   0  0  0  0  0  0  0  0  0  0  0  0
    7.3243  -15.4060   20.7578 C   0  0  0  0  0  0  0  0  0  0  0  0
    8.2193  -16.4279   20.0763 C   0  0  2  0  0  0  0  0  0  0  0  0
    7.3741  -17.4851   19.5569 N   0  0  0  0  0  0  0  0  0  0  0  0
    9.2079  -16.9596   21.0523 C   0  0  0  0  0  0  0  0  0  0  0  0
    9.0273  -18.0731   21.5745 O   0  0  0  0  0  0  0  0  0  0  0  0
   10.3682  -16.2177   21.4075 N   0  0  0  0  0  0  0  0  0  0  0  0
   11.2881  -16.6715   22.4256 C   0  0  1  0  0  0  0  0  0  0  0  0
   12.6910  -16.2113   22.2038 C   0  0  0  0  0  0  0  0  0  0  0  0
   13.2375  -16.5617   20.8791 C   0  0  0  0  0  0  0  0  0  0  0  0
   13.2448  -17.7495   20.5094 O   0  0  0  0  0  0  0  0  0  0  0  0
   10.8586  -16.2608   23.7861 C   0  0  0  0  0  0  0  0  0  0  0  0
   11.4986  -15.4875   24.5170 O   0  0  0  0  0  0  0  0  0  0  0  0
   13.7339  -15.5701   20.0652 O   0  0  0  0  0  0  0  0  0  0  0  0
    6.5619  -10.5552   26.2357 O   0  0  0  0  0  0  0  0  0  0  0  0
    6.8148  -11.9176   26.0893 C   0  0  0  0  0  0  0  0  0  0  0  0
    6.5901  -12.8273   27.1012 C   0  0  0  0  0  0  0  0  0  0  0  0
    6.8485  -14.1648   26.9288 C   0  0  0  0  0  0  0  0  0  0  0  0
    7.3477  -14.6349   25.7173 C   0  0  0  0  0  0  0  0  0  0  0  0
    7.6526  -16.0389   25.4654 C   0  0  0  0  0  0  0  0  0  0  0  0
    9.1194  -16.3825   25.5928 C   0  0  2  0  0  0  0  0  0  0  0  0
    9.6369  -16.7843   24.2866 N   0  0  0  0  0  0  0  0  0  0  0  0
    9.2943  -17.5119   26.5078 C   0  0  0  0  0  0  0  0  0  0  0  0
    9.2901  -17.3048   27.8689 O   0  0  0  0  0  0  0  0  0  0  0  0
    7.5693  -13.7040   24.7047 C   0  0  0  0  0  0  0  0  0  0  0  0
    7.3112  -12.3821   24.8825 C   0  0  0  0  0  0  0  0  0  0  0  0
    9.4502  -18.6678   26.0708 O   0  0  0  0  0  0  0  0  0  0  0  0
  1  2  1  0
  3  2  1  0
  3  4  1  1
  5  3  1  0
  5  7  1  0
  6  5  2  0
  7  8  1  0
  8  9  1  6
  9 10  1  0
 10 14  1  0
 11 10  2  0
 12  8  1  0
 13 12  2  0
 16 15  1  0
 16 17  2  0
 18 17  1  0
 19 18  2  0
 20 19  1  0
 21 22  1  0
 21 20  1  6
 22 12  1  0
 23 21  1  0
 24 23  1  0
 25 26  2  0
 25 19  1  0
 26 16  1  0
 27 23  2  0
M  END
$$$$
