SDY.pdb
     RDKit          3D

 27 27  0  0  1  0  0  0  0  0999 V2000
    8.7160  -14.4273   19.1892 O   0  0  0  0  0  0  0  0  0  0  0  0
    7.7424  -15.3913   18.9480 C   0  0  0  0  0  0  0  0  0  0  0  0
    8.3406  -16.7883   18.9283 C   0  0  2  0  0  0  0  0  0  0  0  0
    7.2803  -17.7230   18.6061 N   0  0  0  0  0  0  0  0  0  0  0  0
    8.9442  -17.0947   20.2529 C   0  0  0  0  0  0  0  0  0  0  0  0
    8.2209  -17.4643   21.1939 O   0  0  0  0  0  0  0  0  0  0  0  0
   10.3441  -16.9741   20.4729 N   0  0  0  0  0  0  0  0  0  0  0  0
   10.9454  -17.2430   21.7592 C   0  0  1  0  0  0  0  0  0  0  0  0
   12.4228  -17.4475   21.6912 C   0  0  0  0  0  0  0  0  0  0  0  0
   12.8427  -18.4962   20.7424 C   0  0  0  0  0  0  0  0  0  0  0  0
   12.3688  -19.6422   20.8405 O   0  0  0  0  0  0  0  0  0  0  0  0
   10.6550  -16.1704   22.7439 C   0  0  0  0  0  0  0  0  0  0  0  0
   11.1819  -15.0462   22.7280 O   0  0  0  0  0  0  0  0  0  0  0  0
   13.7549  -18.1956   19.7578 O   0  0  0  0  0  0  0  0  0  0  0  0
    6.0157  -11.1844   28.2519 O   0  0  0  0  0  0  0  0  0  0  0  0
    6.5436  -12.0691   27.3136 C   0  0  0  0  0  0  0  0  0  0  0  0
    7.7224  -11.8223   26.6417 C   0  0  0  0  0  0  0  0  0  0  0  0
    8.2192  -12.7124   25.7218 C   0  0  0  0  0  0  0  0  0  0  0  0
    7.5366  -13.8937   25.4454 C   0  0  0  0  0  0  0  0  0  0  0  0
    7.9999  -14.8805   24.4762 C   0  0  0  0  0  0  0  0  0  0  0  0
    9.3728  -15.4389   24.7748 C   0  0  2  0  0  0  0  0  0  0  0  0
    9.7140  -16.4451   23.7715 N   0  0  0  0  0  0  0  0  0  0  0  0
    9.3757  -16.0956   26.0832 C   0  0  0  0  0  0  0  0  0  0  0  0
    9.6208  -15.3631   27.2228 O   0  0  0  0  0  0  0  0  0  0  0  0
    6.3476  -14.1290   26.1321 C   0  0  0  0  0  0  0  0  0  0  0  0
    5.8621  -13.2438   27.0411 C   0  0  0  0  0  0  0  0  0  0  0  0
    9.1596  -17.3182   26.1831 O   0  0  0  0  0  0  0  0  0  0  0  0
  1  2  1  0
  3  2  1  0
  3  4  1  1
  5  3  1  0
  5  7  1  0
  6  5  2  0
  7  8  1  0
  8  9  1  6
  9 10  1  0
 10 14  1  0
 11 10  2  0
 12  8  1  0
 13 12  2  0
 16 15  1  0
 16 17  2  0
 18 17  1  0
 19 18  2  0
 20 19  1  0
 21 22  1  0
 21 20  1  6
 22 12  1  0
 23 21  1  0
 24 23  1  0
 25 26  2  0
 25 19  1  0
 26 16  1  0
 27 23  2  0
M  END
$$$$
