SDY.pdb
     RDKit          3D

 27 27  0  0  1  0  0  0  0  0999 V2000
    7.3967  -12.8576   21.9520 O   0  0  0  0  0  0  0  0  0  0  0  0
    7.9403  -13.1905   20.7155 C   0  0  0  0  0  0  0  0  0  0  0  0
    7.6008  -14.6207   20.3292 C   0  0  2  0  0  0  0  0  0  0  0  0
    6.1576  -14.7292   20.2446 N   0  0  0  0  0  0  0  0  0  0  0  0
    8.1525  -15.5590   21.3431 C   0  0  0  0  0  0  0  0  0  0  0  0
    7.3858  -16.1574   22.1173 O   0  0  0  0  0  0  0  0  0  0  0  0
    9.5515  -15.7917   21.4507 N   0  0  0  0  0  0  0  0  0  0  0  0
   10.0986  -16.7800   22.3522 C   0  0  1  0  0  0  0  0  0  0  0  0
   11.4199  -17.3172   21.9108 C   0  0  0  0  0  0  0  0  0  0  0  0
   11.3609  -18.1211   20.6753 C   0  0  0  0  0  0  0  0  0  0  0  0
   10.5207  -19.0327   20.5721 O   0  0  0  0  0  0  0  0  0  0  0  0
   10.2317  -16.2577   23.7355 C   0  0  0  0  0  0  0  0  0  0  0  0
   11.0002  -15.3397   24.0647 O   0  0  0  0  0  0  0  0  0  0  0  0
   12.2367  -17.8541   19.6488 O   0  0  0  0  0  0  0  0  0  0  0  0
    6.4662  -10.8765   26.0000 O   0  0  0  0  0  0  0  0  0  0  0  0
    6.8755  -12.2002   26.1483 C   0  0  0  0  0  0  0  0  0  0  0  0
    6.4115  -13.2158   25.3389 C   0  0  0  0  0  0  0  0  0  0  0  0
    6.8324  -14.5119   25.5080 C   0  0  0  0  0  0  0  0  0  0  0  0
    7.7449  -14.8307   26.5098 C   0  0  0  0  0  0  0  0  0  0  0  0
    8.2299  -16.1848   26.7526 C   0  0  0  0  0  0  0  0  0  0  0  0
    9.5886  -16.4685   26.1533 C   0  0  2  0  0  0  0  0  0  0  0  0
    9.4291  -16.8439   24.7501 N   0  0  0  0  0  0  0  0  0  0  0  0
   10.2197  -17.5931   26.8464 C   0  0  0  0  0  0  0  0  0  0  0  0
   10.5991  -17.4672   28.1638 O   0  0  0  0  0  0  0  0  0  0  0  0
    8.2046  -13.7941   27.3191 C   0  0  0  0  0  0  0  0  0  0  0  0
    7.7838  -12.5140   27.1459 C   0  0  0  0  0  0  0  0  0  0  0  0
   10.4225  -18.6717   26.2574 O   0  0  0  0  0  0  0  0  0  0  0  0
  1  2  1  0
  3  2  1  0
  3  4  1  1
  5  3  1  0
  5  7  1  0
  6  5  2  0
  7  8  1  0
  8  9  1  6
  9 10  1  0
 10 14  1  0
 11 10  2  0
 12  8  1  0
 13 12  2  0
 16 15  1  0
 16 17  2  0
 18 17  1  0
 19 18  2  0
 20 19  1  0
 21 22  1  0
 21 20  1  1
 22 12  1  0
 23 21  1  0
 24 23  1  0
 25 26  2  0
 25 19  1  0
 26 16  1  0
 27 23  2  0
M  END
$$$$
