SDY.pdb
     RDKit          3D

 27 27  0  0  1  0  0  0  0  0999 V2000
    6.3748  -17.9077   24.1869 O   0  0  0  0  0  0  0  0  0  0  0  0
    6.2390  -18.8094   23.1363 C   0  0  0  0  0  0  0  0  0  0  0  0
    7.0349  -18.3650   21.9201 C   0  0  2  0  0  0  0  0  0  0  0  0
    6.8575  -19.3619   20.8825 N   0  0  0  0  0  0  0  0  0  0  0  0
    8.4694  -18.2176   22.2853 C   0  0  0  0  0  0  0  0  0  0  0  0
    9.1469  -19.2235   22.5580 O   0  0  0  0  0  0  0  0  0  0  0  0
    9.0928  -16.9401   22.3310 N   0  0  0  0  0  0  0  0  0  0  0  0
   10.4547  -16.7659   22.7820 C   0  0  1  0  0  0  0  0  0  0  0  0
   11.1878  -15.6903   22.0506 C   0  0  0  0  0  0  0  0  0  0  0  0
   11.3900  -15.9679   20.6159 C   0  0  0  0  0  0  0  0  0  0  0  0
   11.6930  -17.1165   20.2466 O   0  0  0  0  0  0  0  0  0  0  0  0
   10.5269  -16.4893   24.2389 C   0  0  0  0  0  0  0  0  0  0  0  0
   11.5571  -16.1293   24.8314 O   0  0  0  0  0  0  0  0  0  0  0  0
   11.2414  -14.9523   19.7001 O   0  0  0  0  0  0  0  0  0  0  0  0
    5.9936  -11.0443   25.5236 O   0  0  0  0  0  0  0  0  0  0  0  0
    6.5166  -12.2841   25.8854 C   0  0  0  0  0  0  0  0  0  0  0  0
    7.7919  -12.4337   26.3885 C   0  0  0  0  0  0  0  0  0  0  0  0
    8.2814  -13.6684   26.7368 C   0  0  0  0  0  0  0  0  0  0  0  0
    7.4929  -14.8060   26.5876 C   0  0  0  0  0  0  0  0  0  0  0  0
    7.9487  -16.1489   26.9288 C   0  0  0  0  0  0  0  0  0  0  0  0
    9.3506  -16.4614   26.4568 C   0  0  2  0  0  0  0  0  0  0  0  0
    9.3427  -16.6454   25.0072 N   0  0  0  0  0  0  0  0  0  0  0  0
    9.8190  -17.7096   27.0617 C   0  0  0  0  0  0  0  0  0  0  0  0
    9.9836  -18.8342   26.2847 O   0  0  0  0  0  0  0  0  0  0  0  0
    6.2070  -14.6389   26.0783 C   0  0  0  0  0  0  0  0  0  0  0  0
    5.7294  -13.4140   25.7359 C   0  0  0  0  0  0  0  0  0  0  0  0
   10.0719  -17.7719   28.2797 O   0  0  0  0  0  0  0  0  0  0  0  0
  1  2  1  0
  3  2  1  0
  3  4  1  6
  5  3  1  0
  5  7  1  0
  6  5  2  0
  7  8  1  0
  8  9  1  6
  9 10  1  0
 10 14  1  0
 11 10  2  0
 12  8  1  0
 13 12  2  0
 16 15  1  0
 16 17  2  0
 18 17  1  0
 19 18  2  0
 20 19  1  0
 21 22  1  0
 21 20  1  1
 22 12  1  0
 23 21  1  0
 24 23  1  0
 25 26  2  0
 25 19  1  0
 26 16  1  0
 27 23  2  0
M  END
$$$$
