SDY.pdb
     RDKit          3D

 27 27  0  0  1  0  0  0  0  0999 V2000
    8.4542  -12.9192   21.4549 O   0  0  0  0  0  0  0  0  0  0  0  0
    8.3272  -13.5069   20.2004 C   0  0  0  0  0  0  0  0  0  0  0  0
    7.4260  -14.7298   20.2515 C   0  0  2  0  0  0  0  0  0  0  0  0
    6.0512  -14.2702   20.2709 N   0  0  0  0  0  0  0  0  0  0  0  0
    7.7413  -15.5355   21.4615 C   0  0  0  0  0  0  0  0  0  0  0  0
    6.9258  -15.5944   22.3978 O   0  0  0  0  0  0  0  0  0  0  0  0
    8.9666  -16.2486   21.5759 N   0  0  0  0  0  0  0  0  0  0  0  0
    9.2415  -17.1296   22.6881 C   0  0  1  0  0  0  0  0  0  0  0  0
   10.1801  -18.2394   22.3464 C   0  0  0  0  0  0  0  0  0  0  0  0
    9.5643  -19.5796   22.3762 C   0  0  0  0  0  0  0  0  0  0  0  0
    8.3316  -19.6894   22.5026 O   0  0  0  0  0  0  0  0  0  0  0  0
    9.7764  -16.3939   23.8614 C   0  0  0  0  0  0  0  0  0  0  0  0
   10.6989  -15.5647   23.8048 O   0  0  0  0  0  0  0  0  0  0  0  0
   10.3606  -20.6956   22.2639 O   0  0  0  0  0  0  0  0  0  0  0  0
    6.0820  -10.8028   25.7320 O   0  0  0  0  0  0  0  0  0  0  0  0
    6.7435  -11.9679   26.1149 C   0  0  0  0  0  0  0  0  0  0  0  0
    8.0687  -11.9778   26.4965 C   0  0  0  0  0  0  0  0  0  0  0  0
    8.6952  -13.1415   26.8692 C   0  0  0  0  0  0  0  0  0  0  0  0
    7.9991  -14.3470   26.8692 C   0  0  0  0  0  0  0  0  0  0  0  0
    8.6011  -15.6215   27.2447 C   0  0  0  0  0  0  0  0  0  0  0  0
    9.7400  -16.0519   26.3485 C   0  0  2  0  0  0  0  0  0  0  0  0
    9.1973  -16.6529   25.1321 N   0  0  0  0  0  0  0  0  0  0  0  0
   10.5546  -17.0656   27.0209 C   0  0  0  0  0  0  0  0  0  0  0  0
   11.3713  -16.7101   28.0707 O   0  0  0  0  0  0  0  0  0  0  0  0
    6.6613  -14.3209   26.4814 C   0  0  0  0  0  0  0  0  0  0  0  0
    6.0479  -13.1657   26.1141 C   0  0  0  0  0  0  0  0  0  0  0  0
   10.5217  -18.2556   26.6543 O   0  0  0  0  0  0  0  0  0  0  0  0
  1  2  1  0
  3  2  1  0
  3  4  1  1
  5  3  1  0
  5  7  1  0
  6  5  2  0
  7  8  1  0
  8  9  1  6
  9 10  1  0
 10 14  1  0
 11 10  2  0
 12  8  1  0
 13 12  2  0
 16 15  1  0
 16 17  2  0
 18 17  1  0
 19 18  2  0
 20 19  1  0
 21 22  1  0
 21 20  1  1
 22 12  1  0
 23 21  1  0
 24 23  1  0
 25 26  2  0
 25 19  1  0
 26 16  1  0
 27 23  2  0
M  END
$$$$
