SDY.pdb
     RDKit          3D

 27 27  0  0  1  0  0  0  0  0999 V2000
    8.8607  -13.3860   21.7949 O   0  0  0  0  0  0  0  0  0  0  0  0
    8.7607  -14.4379   20.8900 C   0  0  0  0  0  0  0  0  0  0  0  0
    7.6612  -15.4082   21.2896 C   0  0  2  0  0  0  0  0  0  0  0  0
    6.4018  -14.6905   21.2634 N   0  0  0  0  0  0  0  0  0  0  0  0
    7.9415  -15.9542   22.6447 C   0  0  0  0  0  0  0  0  0  0  0  0
    7.2602  -15.5837   23.6162 O   0  0  0  0  0  0  0  0  0  0  0  0
    8.9814  -16.9004   22.8596 N   0  0  0  0  0  0  0  0  0  0  0  0
    9.2199  -17.4988   24.1533 C   0  0  1  0  0  0  0  0  0  0  0  0
    9.9837  -18.7797   24.0815 C   0  0  0  0  0  0  0  0  0  0  0  0
    9.4054  -19.7749   23.1588 C   0  0  0  0  0  0  0  0  0  0  0  0
    8.3356  -20.3384   23.4510 O   0  0  0  0  0  0  0  0  0  0  0  0
    9.9250  -16.5715   25.0736 C   0  0  0  0  0  0  0  0  0  0  0  0
   10.8803  -15.8508   24.7424 O   0  0  0  0  0  0  0  0  0  0  0  0
   10.0560  -20.0699   21.9833 O   0  0  0  0  0  0  0  0  0  0  0  0
    6.1443  -11.2432   25.0346 O   0  0  0  0  0  0  0  0  0  0  0  0
    6.9262  -12.1113   25.7940 C   0  0  0  0  0  0  0  0  0  0  0  0
    8.3036  -12.0450   25.8140 C   0  0  0  0  0  0  0  0  0  0  0  0
    9.0489  -12.9140   26.5721 C   0  0  0  0  0  0  0  0  0  0  0  0
    8.4237  -13.8896   27.3436 C   0  0  0  0  0  0  0  0  0  0  0  0
    9.1506  -14.8503   28.1660 C   0  0  0  0  0  0  0  0  0  0  0  0
   10.1684  -15.6676   27.4033 C   0  0  2  0  0  0  0  0  0  0  0  0
    9.4800  -16.5017   26.4205 N   0  0  0  0  0  0  0  0  0  0  0  0
   10.8870  -16.5573   28.3173 C   0  0  0  0  0  0  0  0  0  0  0  0
   11.6906  -16.0311   29.3036 O   0  0  0  0  0  0  0  0  0  0  0  0
    7.0320  -13.9440   27.3132 C   0  0  0  0  0  0  0  0  0  0  0  0
    6.3010  -13.0808   26.5608 C   0  0  0  0  0  0  0  0  0  0  0  0
   10.7835  -17.7943   28.2153 O   0  0  0  0  0  0  0  0  0  0  0  0
  1  2  1  0
  3  2  1  0
  3  4  1  1
  5  3  1  0
  5  7  1  0
  6  5  2  0
  7  8  1  0
  8  9  1  6
  9 10  1  0
 10 14  1  0
 11 10  2  0
 12  8  1  0
 13 12  2  0
 16 15  1  0
 16 17  2  0
 18 17  1  0
 19 18  2  0
 20 19  1  0
 21 22  1  0
 21 20  1  1
 22 12  1  0
 23 21  1  0
 24 23  1  0
 25 26  2  0
 25 19  1  0
 26 16  1  0
 27 23  2  0
M  END
$$$$
