SDY.pdb
     RDKit          3D

 27 27  0  0  1  0  0  0  0  0999 V2000
    8.3057  -12.1452   19.5802 O   0  0  0  0  0  0  0  0  0  0  0  0
    8.3682  -13.0720   20.6158 C   0  0  0  0  0  0  0  0  0  0  0  0
    8.0121  -14.4678   20.1309 C   0  0  2  0  0  0  0  0  0  0  0  0
    6.6128  -14.4647   19.7520 N   0  0  0  0  0  0  0  0  0  0  0  0
    8.2753  -15.4566   21.2106 C   0  0  0  0  0  0  0  0  0  0  0  0
    7.3462  -15.8370   21.9437 O   0  0  0  0  0  0  0  0  0  0  0  0
    9.5780  -15.9842   21.4280 N   0  0  0  0  0  0  0  0  0  0  0  0
    9.8398  -16.9971   22.4251 C   0  0  1  0  0  0  0  0  0  0  0  0
   11.0301  -17.8424   22.1122 C   0  0  0  0  0  0  0  0  0  0  0  0
   10.9465  -18.5446   20.8175 C   0  0  0  0  0  0  0  0  0  0  0  0
   10.0090  -19.3337   20.6033 O   0  0  0  0  0  0  0  0  0  0  0  0
   10.0096  -16.4133   23.7796 C   0  0  0  0  0  0  0  0  0  0  0  0
   10.8035  -15.4982   24.0514 O   0  0  0  0  0  0  0  0  0  0  0  0
   11.9073  -18.3194   19.8594 O   0  0  0  0  0  0  0  0  0  0  0  0
    6.4434  -10.8001   25.8827 O   0  0  0  0  0  0  0  0  0  0  0  0
    6.7922  -12.1337   26.0858 C   0  0  0  0  0  0  0  0  0  0  0  0
    5.9741  -13.1799   25.7140 C   0  0  0  0  0  0  0  0  0  0  0  0
    6.3438  -14.4852   25.9265 C   0  0  0  0  0  0  0  0  0  0  0  0
    7.5637  -14.7824   26.5277 C   0  0  0  0  0  0  0  0  0  0  0  0
    8.0180  -16.1431   26.7916 C   0  0  0  0  0  0  0  0  0  0  0  0
    9.3759  -16.4625   26.2085 C   0  0  2  0  0  0  0  0  0  0  0  0
    9.2134  -16.9330   24.8346 N   0  0  0  0  0  0  0  0  0  0  0  0
   10.0131  -17.5353   26.9743 C   0  0  0  0  0  0  0  0  0  0  0  0
   10.4390  -17.3046   28.2630 O   0  0  0  0  0  0  0  0  0  0  0  0
    8.3791  -13.7151   26.8975 C   0  0  0  0  0  0  0  0  0  0  0  0
    8.0068  -12.4261   26.6840 C   0  0  0  0  0  0  0  0  0  0  0  0
   10.1793  -18.6636   26.4736 O   0  0  0  0  0  0  0  0  0  0  0  0
  1  2  1  0
  3  2  1  0
  3  4  1  1
  5  3  1  0
  5  7  1  0
  6  5  2  0
  7  8  1  0
  8  9  1  6
  9 10  1  0
 10 14  1  0
 11 10  2  0
 12  8  1  0
 13 12  2  0
 16 15  1  0
 16 17  2  0
 18 17  1  0
 19 18  2  0
 20 19  1  0
 21 22  1  0
 21 20  1  1
 22 12  1  0
 23 21  1  0
 24 23  1  0
 25 26  2  0
 25 19  1  0
 26 16  1  0
 27 23  2  0
M  END
$$$$
