FIS.pdb
     RDKit          3D

 26 26  0  0  1  0  0  0  0  0999 V2000
    5.7019  -17.9157   25.5385 N   0  0  0  0  0  0  0  0  0  0  0  0
    6.1982  -16.5767   25.3661 C   0  0  1  0  0  0  0  0  0  0  0  0
    6.8201  -16.0870   26.6556 C   0  0  0  0  0  0  0  0  0  0  0  0
    7.0171  -14.6381   26.6951 C   0  0  0  0  0  0  0  0  0  0  0  0
    8.3191  -14.1537   26.7729 C   0  0  0  0  0  0  0  0  0  0  0  0
    8.6159  -12.8147   26.8154 C   0  0  0  0  0  0  0  0  0  0  0  0
    7.5640  -11.9057   26.7788 C   0  0  0  0  0  0  0  0  0  0  0  0
    6.2744  -12.3470   26.7026 C   0  0  0  0  0  0  0  0  0  0  0  0
    6.0092  -13.7184   26.6610 C   0  0  0  0  0  0  0  0  0  0  0  0
    7.2786  -16.5795   24.3418 C   0  0  0  0  0  0  0  0  0  0  0  0
    7.9683  -17.6219   24.1489 O   0  0  0  0  0  0  0  0  0  0  0  0
    7.0194  -13.0346   19.9295 C   0  0  0  0  0  0  0  0  0  0  0  0
    7.1304  -14.2236   20.8481 C   0  0  0  0  0  0  0  0  0  0  0  0
    8.4439  -14.3947   21.5094 C   0  0  2  0  0  0  0  0  0  0  0  0
    9.5541  -14.5349   20.4708 C   0  0  0  0  0  0  0  0  0  0  0  0
    8.5621  -15.4928   22.5083 C   0  0  2  0  0  0  0  0  0  0  0  0
    7.5842  -15.4452   23.5493 N   0  0  0  0  0  0  0  0  0  0  0  0
    9.9467  -15.6370   23.0465 C   0  0  0  0  0  0  0  0  0  0  0  0
   10.4484  -14.7652   23.7730 O   0  0  0  0  0  0  0  0  0  0  0  0
   13.6866  -18.6352   23.9661 O   0  0  0  0  0  0  0  0  0  0  0  0
   12.4062  -18.4603   23.4495 C   0  0  0  0  0  0  0  0  0  0  0  0
   12.0666  -16.9904   23.3447 C   0  0  2  0  0  0  0  0  0  0  0  0
   10.7601  -16.7819   22.7517 N   0  0  0  0  0  0  0  0  0  0  0  0
   13.0986  -16.3714   22.4784 C   0  0  0  0  0  0  0  0  0  0  0  0
   12.8812  -16.2624   21.2480 O   0  0  0  0  0  0  0  0  0  0  0  0
   14.3028  -15.9015   22.9559 O   0  0  0  0  0  0  0  0  0  0  0  0
  2  1  1  1
  3  2  1  0
  4  5  2  0
  4  3  1  0
  6  5  1  0
  7  6  2  0
  8  7  1  0
  8  9  2  0
  9  4  1  0
 10 17  1  0
 10  2  1  0
 11 10  2  0
 13 12  1  0
 14 16  1  0
 14 13  1  0
 14 15  1  6
 16 17  1  1
 18 16  1  0
 19 18  2  0
 21 20  1  0
 22 21  1  6
 22 23  1  0
 23 18  1  0
 24 22  1  0
 25 24  2  0
 26 24  1  0
M  END
$$$$
