FIS.pdb
     RDKit          3D

 26 26  0  0  1  0  0  0  0  0999 V2000
    5.7472  -17.9801   25.3438 N   0  0  0  0  0  0  0  0  0  0  0  0
    6.1616  -16.6059   25.2495 C   0  0  1  0  0  0  0  0  0  0  0  0
    6.6779  -16.1297   26.5896 C   0  0  0  0  0  0  0  0  0  0  0  0
    6.8551  -14.6796   26.6649 C   0  0  0  0  0  0  0  0  0  0  0  0
    5.7291  -13.8723   26.5369 C   0  0  0  0  0  0  0  0  0  0  0  0
    5.7829  -12.5023   26.5922 C   0  0  0  0  0  0  0  0  0  0  0  0
    7.0210  -11.8992   26.7850 C   0  0  0  0  0  0  0  0  0  0  0  0
    8.1461  -12.6616   26.9144 C   0  0  0  0  0  0  0  0  0  0  0  0
    8.0539  -14.0547   26.8530 C   0  0  0  0  0  0  0  0  0  0  0  0
    7.2943  -16.4975   24.2893 C   0  0  0  0  0  0  0  0  0  0  0  0
    8.0980  -17.4630   24.1434 O   0  0  0  0  0  0  0  0  0  0  0  0
    7.1161  -12.6547   20.0779 C   0  0  0  0  0  0  0  0  0  0  0  0
    7.2028  -13.9072   20.9108 C   0  0  0  0  0  0  0  0  0  0  0  0
    8.4878  -14.1126   21.6168 C   0  0  2  0  0  0  0  0  0  0  0  0
    9.6445  -14.1678   20.6219 C   0  0  0  0  0  0  0  0  0  0  0  0
    8.5755  -15.2780   22.5396 C   0  0  2  0  0  0  0  0  0  0  0  0
    7.5267  -15.3380   23.5084 N   0  0  0  0  0  0  0  0  0  0  0  0
    9.9238  -15.4196   23.1642 C   0  0  0  0  0  0  0  0  0  0  0  0
   10.3831  -14.5399   23.9089 O   0  0  0  0  0  0  0  0  0  0  0  0
   11.8173  -19.0336   23.0095 O   0  0  0  0  0  0  0  0  0  0  0  0
   12.3669  -18.1314   23.9154 C   0  0  0  0  0  0  0  0  0  0  0  0
   12.0793  -16.7073   23.4954 C   0  0  2  0  0  0  0  0  0  0  0  0
   10.7492  -16.5708   22.9350 N   0  0  0  0  0  0  0  0  0  0  0  0
   13.0816  -16.3533   22.4617 C   0  0  0  0  0  0  0  0  0  0  0  0
   12.7016  -16.1473   21.2844 O   0  0  0  0  0  0  0  0  0  0  0  0
   14.4291  -16.2357   22.7251 O   0  0  0  0  0  0  0  0  0  0  0  0
  2  1  1  1
  3  2  1  0
  4  5  2  0
  4  3  1  0
  6  5  1  0
  7  6  2  0
  8  7  1  0
  8  9  2  0
  9  4  1  0
 10 17  1  0
 10  2  1  0
 11 10  2  0
 13 12  1  0
 14 16  1  0
 14 13  1  0
 14 15  1  6
 16 17  1  1
 18 16  1  0
 19 18  2  0
 21 20  1  0
 22 21  1  6
 22 23  1  0
 23 18  1  0
 24 22  1  0
 25 24  2  0
 26 24  1  0
M  END
$$$$
