FIS.pdb
     RDKit          3D

 26 26  0  0  1  0  0  0  0  0999 V2000
    6.5481  -17.5912   25.6937 N   0  0  0  0  0  0  0  0  0  0  0  0
    6.7379  -16.2389   25.2415 C   0  0  1  0  0  0  0  0  0  0  0  0
    7.6909  -15.5145   26.1669 C   0  0  0  0  0  0  0  0  0  0  0  0
    7.2077  -14.2001   26.5896 C   0  0  0  0  0  0  0  0  0  0  0  0
    6.2682  -13.5568   25.7898 C   0  0  0  0  0  0  0  0  0  0  0  0
    5.7494  -12.3232   26.0931 C   0  0  0  0  0  0  0  0  0  0  0  0
    6.1860  -11.6924   27.2531 C   0  0  0  0  0  0  0  0  0  0  0  0
    7.1070  -12.2955   28.0604 C   0  0  0  0  0  0  0  0  0  0  0  0
    7.6139  -13.5526   27.7203 C   0  0  0  0  0  0  0  0  0  0  0  0
    7.3741  -16.2541   23.8955 C   0  0  0  0  0  0  0  0  0  0  0  0
    7.8172  -17.3366   23.4145 O   0  0  0  0  0  0  0  0  0  0  0  0
    7.9262  -12.6537   18.7857 C   0  0  0  0  0  0  0  0  0  0  0  0
    8.2229  -13.9103   19.5622 C   0  0  0  0  0  0  0  0  0  0  0  0
    7.7918  -13.8983   20.9785 C   0  0  2  0  0  0  0  0  0  0  0  0
    8.4018  -12.7085   21.7156 C   0  0  0  0  0  0  0  0  0  0  0  0
    8.0241  -15.1390   21.7685 C   0  0  2  0  0  0  0  0  0  0  0  0
    7.5138  -15.0881   23.1024 N   0  0  0  0  0  0  0  0  0  0  0  0
    9.4463  -15.5903   21.7296 C   0  0  0  0  0  0  0  0  0  0  0  0
   10.2817  -15.1543   22.5368 O   0  0  0  0  0  0  0  0  0  0  0  0
   10.4550  -19.2348   20.9709 O   0  0  0  0  0  0  0  0  0  0  0  0
   11.4445  -18.3522   21.3937 C   0  0  0  0  0  0  0  0  0  0  0  0
   11.2868  -17.0074   20.7202 C   0  0  2  0  0  0  0  0  0  0  0  0
    9.9142  -16.5425   20.7634 N   0  0  0  0  0  0  0  0  0  0  0  0
   11.6963  -17.1842   19.3061 C   0  0  0  0  0  0  0  0  0  0  0  0
   10.8661  -16.9558   18.3942 O   0  0  0  0  0  0  0  0  0  0  0  0
   12.9580  -17.5920   18.9305 O   0  0  0  0  0  0  0  0  0  0  0  0
  2  1  1  1
  3  2  1  0
  4  5  2  0
  4  3  1  0
  6  5  1  0
  7  6  2  0
  8  7  1  0
  8  9  2  0
  9  4  1  0
 10 17  1  0
 10  2  1  0
 11 10  2  0
 13 12  1  0
 14 16  1  0
 14 13  1  0
 14 15  1  1
 16 17  1  1
 18 16  1  0
 19 18  2  0
 21 20  1  0
 22 21  1  1
 22 23  1  0
 23 18  1  0
 24 22  1  0
 25 24  2  0
 26 24  1  0
M  END
$$$$
