FIS.pdb
     RDKit          3D

 26 26  0  0  1  0  0  0  0  0999 V2000
    5.7763  -18.0194   25.2563 N   0  0  0  0  0  0  0  0  0  0  0  0
    6.1072  -16.6224   25.1669 C   0  0  1  0  0  0  0  0  0  0  0  0
    6.6130  -16.1254   26.5035 C   0  0  0  0  0  0  0  0  0  0  0  0
    6.7435  -14.6701   26.5736 C   0  0  0  0  0  0  0  0  0  0  0  0
    7.9962  -14.1356   26.8581 C   0  0  0  0  0  0  0  0  0  0  0  0
    8.2291  -12.7862   26.9472 C   0  0  0  0  0  0  0  0  0  0  0  0
    7.1613  -11.9189   26.7429 C   0  0  0  0  0  0  0  0  0  0  0  0
    5.9189  -12.4100   26.4618 C   0  0  0  0  0  0  0  0  0  0  0  0
    5.7183  -13.7905   26.3788 C   0  0  0  0  0  0  0  0  0  0  0  0
    7.2179  -16.4403   24.1924 C   0  0  0  0  0  0  0  0  0  0  0  0
    8.1106  -17.3283   24.0735 O   0  0  0  0  0  0  0  0  0  0  0  0
    6.7506  -12.6366   19.9635 C   0  0  0  0  0  0  0  0  0  0  0  0
    6.9491  -13.9005   20.7593 C   0  0  0  0  0  0  0  0  0  0  0  0
    8.2301  -13.9923   21.4960 C   0  0  2  0  0  0  0  0  0  0  0  0
    9.4104  -13.9502   20.5286 C   0  0  0  0  0  0  0  0  0  0  0  0
    8.3962  -15.1433   22.4261 C   0  0  2  0  0  0  0  0  0  0  0  0
    7.3318  -15.2935   23.3678 N   0  0  0  0  0  0  0  0  0  0  0  0
    9.7349  -15.1639   23.0858 C   0  0  0  0  0  0  0  0  0  0  0  0
    9.9160  -14.6279   24.1901 O   0  0  0  0  0  0  0  0  0  0  0  0
   12.6912  -17.9683   24.8116 O   0  0  0  0  0  0  0  0  0  0  0  0
   11.5807  -17.4207   24.1761 C   0  0  0  0  0  0  0  0  0  0  0  0
   11.9926  -16.3000   23.2480 C   0  0  2  0  0  0  0  0  0  0  0  0
   10.8700  -15.7989   22.4795 N   0  0  0  0  0  0  0  0  0  0  0  0
   13.0056  -16.8598   22.3211 C   0  0  0  0  0  0  0  0  0  0  0  0
   12.6363  -17.3191   21.2141 O   0  0  0  0  0  0  0  0  0  0  0  0
   14.3519  -16.9049   22.6115 O   0  0  0  0  0  0  0  0  0  0  0  0
  2  1  1  1
  3  2  1  0
  4  5  2  0
  4  3  1  0
  6  5  1  0
  7  6  2  0
  8  7  1  0
  8  9  2  0
  9  4  1  0
 10 17  1  0
 10  2  1  0
 11 10  2  0
 13 12  1  0
 14 16  1  0
 14 13  1  0
 14 15  1  6
 16 17  1  1
 18 16  1  0
 19 18  2  0
 21 20  1  0
 22 21  1  1
 22 23  1  0
 23 18  1  0
 24 22  1  0
 25 24  2  0
 26 24  1  0
M  END
$$$$
