FIS.pdb
     RDKit          3D

 26 26  0  0  1  0  0  0  0  0999 V2000
    5.6049  -17.8998   25.3571 N   0  0  0  0  0  0  0  0  0  0  0  0
    6.1161  -16.5567   25.2946 C   0  0  1  0  0  0  0  0  0  0  0  0
    6.7271  -16.1748   26.6251 C   0  0  0  0  0  0  0  0  0  0  0  0
    7.0705  -14.7564   26.7239 C   0  0  0  0  0  0  0  0  0  0  0  0
    6.0373  -13.8404   26.8951 C   0  0  0  0  0  0  0  0  0  0  0  0
    6.2481  -12.4885   26.9992 C   0  0  0  0  0  0  0  0  0  0  0  0
    7.5552  -12.0187   26.9298 C   0  0  0  0  0  0  0  0  0  0  0  0
    8.5926  -12.8902   26.7622 C   0  0  0  0  0  0  0  0  0  0  0  0
    8.3407  -14.2609   26.6599 C   0  0  0  0  0  0  0  0  0  0  0  0
    7.2089  -16.4917   24.2854 C   0  0  0  0  0  0  0  0  0  0  0  0
    7.9673  -17.4877   24.1055 O   0  0  0  0  0  0  0  0  0  0  0  0
    6.9976  -12.5826   20.1653 C   0  0  0  0  0  0  0  0  0  0  0  0
    7.0760  -13.8612   20.9585 C   0  0  0  0  0  0  0  0  0  0  0  0
    8.3926  -14.1481   21.5720 C   0  0  2  0  0  0  0  0  0  0  0  0
    9.4690  -14.2790   20.4972 C   0  0  0  0  0  0  0  0  0  0  0  0
    8.4713  -15.3156   22.4930 C   0  0  2  0  0  0  0  0  0  0  0  0
    7.4514  -15.3418   23.4937 N   0  0  0  0  0  0  0  0  0  0  0  0
    9.8329  -15.5003   23.0758 C   0  0  0  0  0  0  0  0  0  0  0  0
   10.3112  -14.6733   23.8675 O   0  0  0  0  0  0  0  0  0  0  0  0
   11.7600  -19.0967   22.5415 O   0  0  0  0  0  0  0  0  0  0  0  0
   12.2248  -18.3143   23.5945 C   0  0  0  0  0  0  0  0  0  0  0  0
   11.9616  -16.8487   23.3302 C   0  0  2  0  0  0  0  0  0  0  0  0
   10.6501  -16.6343   22.7508 N   0  0  0  0  0  0  0  0  0  0  0  0
   12.9973  -16.3919   22.3724 C   0  0  0  0  0  0  0  0  0  0  0  0
   14.1987  -16.3718   22.7318 O   0  0  0  0  0  0  0  0  0  0  0  0
   12.7103  -15.9815   21.0885 O   0  0  0  0  0  0  0  0  0  0  0  0
  2  1  1  1
  3  2  1  0
  4  5  2  0
  4  3  1  0
  6  5  1  0
  7  6  2  0
  8  7  1  0
  8  9  2  0
  9  4  1  0
 10 17  1  0
 10  2  1  0
 11 10  2  0
 13 12  1  0
 14 16  1  0
 14 13  1  0
 14 15  1  6
 16 17  1  1
 18 16  1  0
 19 18  2  0
 21 20  1  0
 22 21  1  6
 22 23  1  0
 23 18  1  0
 24 22  1  0
 25 24  2  0
 26 24  1  0
M  END
$$$$
