FIS.pdb
     RDKit          3D

 26 26  0  0  1  0  0  0  0  0999 V2000
    5.6691  -18.1428   25.1727 N   0  0  0  0  0  0  0  0  0  0  0  0
    6.0041  -16.7458   25.1000 C   0  0  1  0  0  0  0  0  0  0  0  0
    6.3811  -16.2336   26.4729 C   0  0  0  0  0  0  0  0  0  0  0  0
    6.5103  -14.7780   26.5375 C   0  0  0  0  0  0  0  0  0  0  0  0
    5.3893  -14.0053   26.2507 C   0  0  0  0  0  0  0  0  0  0  0  0
    5.4006  -12.6335   26.2818 C   0  0  0  0  0  0  0  0  0  0  0  0
    6.5886  -11.9923   26.6155 C   0  0  0  0  0  0  0  0  0  0  0  0
    7.7074  -12.7202   26.9026 C   0  0  0  0  0  0  0  0  0  0  0  0
    7.6592  -14.1162   26.8612 C   0  0  0  0  0  0  0  0  0  0  0  0
    7.2012  -16.5706   24.2323 C   0  0  0  0  0  0  0  0  0  0  0  0
    8.0630  -17.4921   24.1452 O   0  0  0  0  0  0  0  0  0  0  0  0
    7.0510  -12.5154   20.2150 C   0  0  0  0  0  0  0  0  0  0  0  0
    7.1236  -13.8309   20.9460 C   0  0  0  0  0  0  0  0  0  0  0  0
    8.4053  -14.1047   21.6347 C   0  0  2  0  0  0  0  0  0  0  0  0
    9.5574  -14.1352   20.6333 C   0  0  0  0  0  0  0  0  0  0  0  0
    8.4672  -15.3192   22.4941 C   0  0  2  0  0  0  0  0  0  0  0  0
    7.4332  -15.3937   23.4778 N   0  0  0  0  0  0  0  0  0  0  0  0
    9.8198  -15.5398   23.0852 C   0  0  0  0  0  0  0  0  0  0  0  0
   10.2881  -14.7597   23.9287 O   0  0  0  0  0  0  0  0  0  0  0  0
   11.7053  -19.1184   22.5107 O   0  0  0  0  0  0  0  0  0  0  0  0
   12.2692  -18.3117   23.4946 C   0  0  0  0  0  0  0  0  0  0  0  0
   11.9815  -16.8523   23.2212 C   0  0  2  0  0  0  0  0  0  0  0  0
   10.6395  -16.6561   22.7092 N   0  0  0  0  0  0  0  0  0  0  0  0
   12.9614  -16.4046   22.2024 C   0  0  0  0  0  0  0  0  0  0  0  0
   12.5541  -16.0770   21.0624 O   0  0  0  0  0  0  0  0  0  0  0  0
   14.3165  -16.3265   22.4407 O   0  0  0  0  0  0  0  0  0  0  0  0
  2  1  1  1
  3  2  1  0
  4  5  2  0
  4  3  1  0
  6  5  1  0
  7  6  2  0
  8  7  1  0
  8  9  2  0
  9  4  1  0
 10 17  1  0
 10  2  1  0
 11 10  2  0
 13 12  1  0
 14 16  1  0
 14 13  1  0
 14 15  1  6
 16 17  1  1
 18 16  1  0
 19 18  2  0
 21 20  1  0
 22 21  1  6
 22 23  1  0
 23 18  1  0
 24 22  1  0
 25 24  2  0
 26 24  1  0
M  END
$$$$
