FIS.pdb
     RDKit          3D

 26 26  0  0  1  0  0  0  0  0999 V2000
    5.6677  -17.8213   25.3565 N   0  0  0  0  0  0  0  0  0  0  0  0
    6.1476  -16.4749   25.1947 C   0  0  1  0  0  0  0  0  0  0  0  0
    6.7328  -15.9758   26.4977 C   0  0  0  0  0  0  0  0  0  0  0  0
    6.8709  -14.5207   26.5559 C   0  0  0  0  0  0  0  0  0  0  0  0
    5.7244  -13.7455   26.4128 C   0  0  0  0  0  0  0  0  0  0  0  0
    5.7413  -12.3739   26.4515 C   0  0  0  0  0  0  0  0  0  0  0  0
    6.9619  -11.7356   26.6426 C   0  0  0  0  0  0  0  0  0  0  0  0
    8.1063  -12.4661   26.7865 C   0  0  0  0  0  0  0  0  0  0  0  0
    8.0516  -13.8618   26.7418 C   0  0  0  0  0  0  0  0  0  0  0  0
    7.2509  -16.4617   24.1951 C   0  0  0  0  0  0  0  0  0  0  0  0
    8.0086  -17.4669   24.0720 O   0  0  0  0  0  0  0  0  0  0  0  0
    7.2222  -12.5674   20.0294 C   0  0  0  0  0  0  0  0  0  0  0  0
    7.2344  -13.8599   20.8036 C   0  0  0  0  0  0  0  0  0  0  0  0
    8.5253  -14.2064   21.4405 C   0  0  2  0  0  0  0  0  0  0  0  0
    9.6143  -14.3841   20.3853 C   0  0  0  0  0  0  0  0  0  0  0  0
    8.5346  -15.3775   22.3602 C   0  0  2  0  0  0  0  0  0  0  0  0
    7.5048  -15.3524   23.3507 N   0  0  0  0  0  0  0  0  0  0  0  0
    9.8790  -15.6327   22.9563 C   0  0  0  0  0  0  0  0  0  0  0  0
   10.4026  -14.8198   23.7337 O   0  0  0  0  0  0  0  0  0  0  0  0
   11.6273  -19.3010   22.3909 O   0  0  0  0  0  0  0  0  0  0  0  0
   12.1822  -18.5557   23.4270 C   0  0  0  0  0  0  0  0  0  0  0  0
   11.9430  -17.0779   23.2121 C   0  0  2  0  0  0  0  0  0  0  0  0
   10.6269  -16.8213   22.6609 N   0  0  0  0  0  0  0  0  0  0  0  0
   12.9721  -16.6111   22.2520 C   0  0  0  0  0  0  0  0  0  0  0  0
   12.6176  -16.2262   21.1123 O   0  0  0  0  0  0  0  0  0  0  0  0
   14.3181  -16.5755   22.5456 O   0  0  0  0  0  0  0  0  0  0  0  0
  2  1  1  1
  3  2  1  0
  4  5  2  0
  4  3  1  0
  6  5  1  0
  7  6  2  0
  8  7  1  0
  8  9  2  0
  9  4  1  0
 10 17  1  0
 10  2  1  0
 11 10  2  0
 13 12  1  0
 14 16  1  0
 14 13  1  0
 14 15  1  6
 16 17  1  1
 18 16  1  0
 19 18  2  0
 21 20  1  0
 22 21  1  6
 22 23  1  0
 23 18  1  0
 24 22  1  0
 25 24  2  0
 26 24  1  0
M  END
$$$$
