FIS.pdb
     RDKit          3D

 26 26  0  0  1  0  0  0  0  0999 V2000
    6.0137  -18.0544   25.6148 N   0  0  0  0  0  0  0  0  0  0  0  0
    6.3386  -16.6779   25.3523 C   0  0  1  0  0  0  0  0  0  0  0  0
    6.8574  -16.0209   26.6127 C   0  0  0  0  0  0  0  0  0  0  0  0
    6.7632  -14.5613   26.5911 C   0  0  0  0  0  0  0  0  0  0  0  0
    7.9187  -13.8245   26.8321 C   0  0  0  0  0  0  0  0  0  0  0  0
    7.9418  -12.4525   26.8352 C   0  0  0  0  0  0  0  0  0  0  0  0
    6.7542  -11.7734   26.5856 C   0  0  0  0  0  0  0  0  0  0  0  0
    5.6022  -12.4655   26.3452 C   0  0  0  0  0  0  0  0  0  0  0  0
    5.6157  -13.8629   26.3498 C   0  0  0  0  0  0  0  0  0  0  0  0
    7.4380  -16.6134   24.3503 C   0  0  0  0  0  0  0  0  0  0  0  0
    8.1873  -17.6151   24.1642 O   0  0  0  0  0  0  0  0  0  0  0  0
    7.0731  -12.9574   20.0380 C   0  0  0  0  0  0  0  0  0  0  0  0
    7.2127  -14.1626   20.9314 C   0  0  0  0  0  0  0  0  0  0  0  0
    8.5397  -14.3327   21.5654 C   0  0  2  0  0  0  0  0  0  0  0  0
    9.6318  -14.4431   20.5042 C   0  0  0  0  0  0  0  0  0  0  0  0
    8.6867  -15.4476   22.5416 C   0  0  2  0  0  0  0  0  0  0  0  0
    7.6969  -15.4576   23.5723 N   0  0  0  0  0  0  0  0  0  0  0  0
   10.0700  -15.5542   23.0921 C   0  0  0  0  0  0  0  0  0  0  0  0
   10.6272  -14.5815   23.6238 O   0  0  0  0  0  0  0  0  0  0  0  0
   11.9110  -19.2054   22.9893 O   0  0  0  0  0  0  0  0  0  0  0  0
   12.5345  -18.3197   23.8631 C   0  0  0  0  0  0  0  0  0  0  0  0
   12.1782  -16.8900   23.5220 C   0  0  2  0  0  0  0  0  0  0  0  0
   10.8180  -16.7773   23.0331 N   0  0  0  0  0  0  0  0  0  0  0  0
   13.1153  -16.4557   22.4581 C   0  0  0  0  0  0  0  0  0  0  0  0
   14.3466  -16.4377   22.6955 O   0  0  0  0  0  0  0  0  0  0  0  0
   12.7035  -16.0642   21.2026 O   0  0  0  0  0  0  0  0  0  0  0  0
  2  1  1  1
  3  2  1  0
  4  5  2  0
  4  3  1  0
  6  5  1  0
  7  6  2  0
  8  7  1  0
  8  9  2  0
  9  4  1  0
 10 17  1  0
 10  2  1  0
 11 10  2  0
 13 12  1  0
 14 16  1  0
 14 13  1  0
 14 15  1  6
 16 17  1  1
 18 16  1  0
 19 18  2  0
 21 20  1  0
 22 21  1  6
 22 23  1  0
 23 18  1  0
 24 22  1  0
 25 24  2  0
 26 24  1  0
M  END
$$$$
