FIS.pdb
     RDKit          3D

 26 26  0  0  1  0  0  0  0  0999 V2000
    5.9055  -17.9704   25.7530 N   0  0  0  0  0  0  0  0  0  0  0  0
    6.2936  -16.6064   25.5121 C   0  0  1  0  0  0  0  0  0  0  0  0
    6.9310  -16.0243   26.7548 C   0  0  0  0  0  0  0  0  0  0  0  0
    6.9568  -14.5618   26.7669 C   0  0  0  0  0  0  0  0  0  0  0  0
    8.1892  -13.9271   26.8863 C   0  0  0  0  0  0  0  0  0  0  0  0
    8.3266  -12.5620   26.9082 C   0  0  0  0  0  0  0  0  0  0  0  0
    7.1792  -11.7830   26.8062 C   0  0  0  0  0  0  0  0  0  0  0  0
    5.9539  -12.3734   26.6879 C   0  0  0  0  0  0  0  0  0  0  0  0
    5.8515  -13.7670   26.6690 C   0  0  0  0  0  0  0  0  0  0  0  0
    7.3276  -16.5699   24.4415 C   0  0  0  0  0  0  0  0  0  0  0  0
    8.2111  -17.4728   24.3806 O   0  0  0  0  0  0  0  0  0  0  0  0
    8.1402  -12.1694   20.5410 C   0  0  0  0  0  0  0  0  0  0  0  0
    8.3976  -13.1669   21.6405 C   0  0  0  0  0  0  0  0  0  0  0  0
    8.0534  -14.5703   21.3180 C   0  0  2  0  0  0  0  0  0  0  0  0
    6.6037  -14.6740   20.8503 C   0  0  0  0  0  0  0  0  0  0  0  0
    8.3046  -15.5898   22.3739 C   0  0  2  0  0  0  0  0  0  0  0  0
    7.3762  -15.5493   23.4596 N   0  0  0  0  0  0  0  0  0  0  0  0
    9.7202  -15.5939   22.8472 C   0  0  0  0  0  0  0  0  0  0  0  0
   10.1145  -14.7867   23.7030 O   0  0  0  0  0  0  0  0  0  0  0  0
   11.8546  -18.8781   22.7178 O   0  0  0  0  0  0  0  0  0  0  0  0
   12.5227  -17.8184   23.3239 C   0  0  0  0  0  0  0  0  0  0  0  0
   12.0830  -16.4983   22.7315 C   0  0  2  0  0  0  0  0  0  0  0  0
   10.6876  -16.5238   22.3388 N   0  0  0  0  0  0  0  0  0  0  0  0
   12.9220  -16.2650   21.5313 C   0  0  0  0  0  0  0  0  0  0  0  0
   12.3699  -16.1393   20.4123 O   0  0  0  0  0  0  0  0  0  0  0  0
   14.2965  -16.1769   21.5762 O   0  0  0  0  0  0  0  0  0  0  0  0
  2  1  1  1
  3  2  1  0
  4  5  2  0
  4  3  1  0
  6  5  1  0
  7  6  2  0
  8  7  1  0
  8  9  2  0
  9  4  1  0
 10 17  1  0
 10  2  1  0
 11 10  2  0
 13 12  1  0
 14 16  1  0
 14 13  1  0
 14 15  1  1
 16 17  1  1
 18 16  1  0
 19 18  2  0
 21 20  1  0
 22 21  1  6
 22 23  1  0
 23 18  1  0
 24 22  1  0
 25 24  2  0
 26 24  1  0
M  END
$$$$
