FIS.pdb
     RDKit          3D

 26 26  0  0  1  0  0  0  0  0999 V2000
    5.8778  -17.8891   25.8221 N   0  0  0  0  0  0  0  0  0  0  0  0
    6.3372  -16.5578   25.5293 C   0  0  1  0  0  0  0  0  0  0  0  0
    7.0978  -16.0023   26.7135 C   0  0  0  0  0  0  0  0  0  0  0  0
    7.1928  -14.5426   26.7133 C   0  0  0  0  0  0  0  0  0  0  0  0
    8.4558  -13.9662   26.8060 C   0  0  0  0  0  0  0  0  0  0  0  0
    8.6578  -12.6090   26.8145 C   0  0  0  0  0  0  0  0  0  0  0  0
    7.5468  -11.7774   26.7263 C   0  0  0  0  0  0  0  0  0  0  0  0
    6.2931  -12.3099   26.6342 C   0  0  0  0  0  0  0  0  0  0  0  0
    6.1247  -13.6972   26.6284 C   0  0  0  0  0  0  0  0  0  0  0  0
    7.2931  -16.6060   24.3888 C   0  0  0  0  0  0  0  0  0  0  0  0
    8.0553  -17.6043   24.2407 O   0  0  0  0  0  0  0  0  0  0  0  0
    8.0770  -12.2868   20.3782 C   0  0  0  0  0  0  0  0  0  0  0  0
    8.3831  -13.2337   21.5095 C   0  0  0  0  0  0  0  0  0  0  0  0
    8.0532  -14.6544   21.2553 C   0  0  2  0  0  0  0  0  0  0  0  0
    6.5993  -14.7972   20.8117 C   0  0  0  0  0  0  0  0  0  0  0  0
    8.3307  -15.6217   22.3530 C   0  0  2  0  0  0  0  0  0  0  0  0
    7.3976  -15.5643   23.4339 N   0  0  0  0  0  0  0  0  0  0  0  0
    9.7440  -15.5642   22.8295 C   0  0  0  0  0  0  0  0  0  0  0  0
   10.1442  -14.6328   23.5447 O   0  0  0  0  0  0  0  0  0  0  0  0
   11.9792  -18.9039   23.0494 O   0  0  0  0  0  0  0  0  0  0  0  0
   12.4943  -17.7658   23.6628 C   0  0  0  0  0  0  0  0  0  0  0  0
   12.0882  -16.5197   22.9081 C   0  0  2  0  0  0  0  0  0  0  0  0
   10.7025  -16.5753   22.4854 N   0  0  0  0  0  0  0  0  0  0  0  0
   12.9593  -16.4393   21.7109 C   0  0  0  0  0  0  0  0  0  0  0  0
   14.2025  -16.3704   21.8608 O   0  0  0  0  0  0  0  0  0  0  0  0
   12.4726  -16.4359   20.4216 O   0  0  0  0  0  0  0  0  0  0  0  0
  2  1  1  1
  3  2  1  0
  4  5  2  0
  4  3  1  0
  6  5  1  0
  7  6  2  0
  8  7  1  0
  8  9  2  0
  9  4  1  0
 10 17  1  0
 10  2  1  0
 11 10  2  0
 13 12  1  0
 14 16  1  0
 14 13  1  0
 14 15  1  1
 16 17  1  1
 18 16  1  0
 19 18  2  0
 21 20  1  0
 22 21  1  6
 22 23  1  0
 23 18  1  0
 24 22  1  0
 25 24  2  0
 26 24  1  0
M  END
$$$$
