FIS.pdb
     RDKit          3D

 26 26  0  0  1  0  0  0  0  0999 V2000
    5.4788  -17.9049   25.2203 N   0  0  0  0  0  0  0  0  0  0  0  0
    6.0294  -16.5764   25.1878 C   0  0  1  0  0  0  0  0  0  0  0  0
    6.6296  -16.2337   26.5337 C   0  0  0  0  0  0  0  0  0  0  0  0
    6.9626  -14.8169   26.6804 C   0  0  0  0  0  0  0  0  0  0  0  0
    5.9181  -13.9030   26.7796 C   0  0  0  0  0  0  0  0  0  0  0  0
    6.1186  -12.5528   26.9198 C   0  0  0  0  0  0  0  0  0  0  0  0
    7.4265  -12.0825   26.9641 C   0  0  0  0  0  0  0  0  0  0  0  0
    8.4749  -12.9519   26.8696 C   0  0  0  0  0  0  0  0  0  0  0  0
    8.2333  -14.3210   26.7276 C   0  0  0  0  0  0  0  0  0  0  0  0
    7.1396  -16.5271   24.1970 C   0  0  0  0  0  0  0  0  0  0  0  0
    7.8863  -17.5340   24.0290 O   0  0  0  0  0  0  0  0  0  0  0  0
    6.9896  -12.6702   20.0394 C   0  0  0  0  0  0  0  0  0  0  0  0
    7.0551  -13.9318   20.8605 C   0  0  0  0  0  0  0  0  0  0  0  0
    8.3703  -14.2215   21.4756 C   0  0  2  0  0  0  0  0  0  0  0  0
    9.4424  -14.3823   20.4006 C   0  0  0  0  0  0  0  0  0  0  0  0
    8.4395  -15.3734   22.4167 C   0  0  2  0  0  0  0  0  0  0  0  0
    7.4122  -15.3805   23.4101 N   0  0  0  0  0  0  0  0  0  0  0  0
    9.7963  -15.5512   23.0127 C   0  0  0  0  0  0  0  0  0  0  0  0
   10.2890  -14.6906   23.7585 O   0  0  0  0  0  0  0  0  0  0  0  0
   11.9043  -18.9644   22.1012 O   0  0  0  0  0  0  0  0  0  0  0  0
   12.3468  -18.3507   23.2693 C   0  0  0  0  0  0  0  0  0  0  0  0
   11.9190  -16.9006   23.3083 C   0  0  2  0  0  0  0  0  0  0  0  0
   10.5922  -16.7169   22.7537 N   0  0  0  0  0  0  0  0  0  0  0  0
   12.8970  -16.1419   22.4918 C   0  0  0  0  0  0  0  0  0  0  0  0
   12.5194  -15.6092   21.4211 O   0  0  0  0  0  0  0  0  0  0  0  0
   14.2190  -15.9862   22.8483 O   0  0  0  0  0  0  0  0  0  0  0  0
  2  1  1  1
  3  2  1  0
  4  5  2  0
  4  3  1  0
  6  5  1  0
  7  6  2  0
  8  7  1  0
  8  9  2  0
  9  4  1  0
 10 17  1  0
 10  2  1  0
 11 10  2  0
 13 12  1  0
 14 16  1  0
 14 13  1  0
 14 15  1  6
 16 17  1  1
 18 16  1  0
 19 18  2  0
 21 20  1  0
 22 21  1  6
 22 23  1  0
 23 18  1  0
 24 22  1  0
 25 24  2  0
 26 24  1  0
M  END
$$$$
