FIS.pdb
     RDKit          3D

 26 26  0  0  1  0  0  0  0  0999 V2000
    5.6447  -17.9382   25.4745 N   0  0  0  0  0  0  0  0  0  0  0  0
    6.1748  -16.6115   25.3080 C   0  0  1  0  0  0  0  0  0  0  0  0
    6.8807  -16.1754   26.5732 C   0  0  0  0  0  0  0  0  0  0  0  0
    7.0532  -14.7264   26.6754 C   0  0  0  0  0  0  0  0  0  0  0  0
    8.3448  -14.2259   26.8068 C   0  0  0  0  0  0  0  0  0  0  0  0
    8.6187  -12.8853   26.9103 C   0  0  0  0  0  0  0  0  0  0  0  0
    7.5536  -11.9916   26.8821 C   0  0  0  0  0  0  0  0  0  0  0  0
    6.2736  -12.4489   26.7542 C   0  0  0  0  0  0  0  0  0  0  0  0
    6.0318  -13.8214   26.6512 C   0  0  0  0  0  0  0  0  0  0  0  0
    7.1982  -16.6218   24.2267 C   0  0  0  0  0  0  0  0  0  0  0  0
    7.8518  -17.6762   23.9807 O   0  0  0  0  0  0  0  0  0  0  0  0
    7.0214  -12.6548   20.2126 C   0  0  0  0  0  0  0  0  0  0  0  0
    7.0937  -13.9953   20.8967 C   0  0  0  0  0  0  0  0  0  0  0  0
    8.4121  -14.3435   21.4734 C   0  0  2  0  0  0  0  0  0  0  0  0
    9.4511  -14.5227   20.3691 C   0  0  0  0  0  0  0  0  0  0  0  0
    8.4623  -15.5145   22.3919 C   0  0  2  0  0  0  0  0  0  0  0  0
    7.4874  -15.4816   23.4363 N   0  0  0  0  0  0  0  0  0  0  0  0
    9.8349  -15.7794   22.9150 C   0  0  0  0  0  0  0  0  0  0  0  0
   10.3777  -15.0050   23.7181 O   0  0  0  0  0  0  0  0  0  0  0  0
   11.8723  -19.1304   21.5926 O   0  0  0  0  0  0  0  0  0  0  0  0
   12.2771  -18.6817   22.8463 C   0  0  0  0  0  0  0  0  0  0  0  0
   11.9087  -17.2278   23.0400 C   0  0  2  0  0  0  0  0  0  0  0  0
   10.5889  -16.9337   22.5171 N   0  0  0  0  0  0  0  0  0  0  0  0
   12.9145  -16.4273   22.3007 C   0  0  0  0  0  0  0  0  0  0  0  0
   12.5683  -15.8165   21.2615 O   0  0  0  0  0  0  0  0  0  0  0  0
   14.2295  -16.3145   22.6970 O   0  0  0  0  0  0  0  0  0  0  0  0
  2  1  1  1
  3  2  1  0
  4  5  2  0
  4  3  1  0
  6  5  1  0
  7  6  2  0
  8  7  1  0
  8  9  2  0
  9  4  1  0
 10 17  1  0
 10  2  1  0
 11 10  2  0
 13 12  1  0
 14 16  1  0
 14 13  1  0
 14 15  1  6
 16 17  1  1
 18 16  1  0
 19 18  2  0
 21 20  1  0
 22 21  1  6
 22 23  1  0
 23 18  1  0
 24 22  1  0
 25 24  2  0
 26 24  1  0
M  END
$$$$
