FIS.pdb
     RDKit          3D

 26 26  0  0  1  0  0  0  0  0999 V2000
    7.4674  -19.5207   27.1683 N   0  0  0  0  0  0  0  0  0  0  0  0
    7.9266  -18.2024   27.5152 C   0  0  1  0  0  0  0  0  0  0  0  0
    9.4066  -18.2373   27.8279 C   0  0  0  0  0  0  0  0  0  0  0  0
    9.9157  -16.9828   28.3817 C   0  0  0  0  0  0  0  0  0  0  0  0
   10.3571  -16.0046   27.4961 C   0  0  0  0  0  0  0  0  0  0  0  0
   10.8529  -14.7934   27.9085 C   0  0  0  0  0  0  0  0  0  0  0  0
   10.9144  -14.5376   29.2740 C   0  0  0  0  0  0  0  0  0  0  0  0
   10.4896  -15.4755   30.1705 C   0  0  0  0  0  0  0  0  0  0  0  0
    9.9904  -16.6986   29.7146 C   0  0  0  0  0  0  0  0  0  0  0  0
    7.7558  -17.2973   26.3455 C   0  0  0  0  0  0  0  0  0  0  0  0
    7.8381  -17.7563   25.1698 O   0  0  0  0  0  0  0  0  0  0  0  0
    5.7488  -11.5529   24.8498 C   0  0  0  0  0  0  0  0  0  0  0  0
    6.4590  -12.8372   24.5090 C   0  0  0  0  0  0  0  0  0  0  0  0
    6.7238  -13.7391   25.6529 C   0  0  2  0  0  0  0  0  0  0  0  0
    7.5438  -13.0229   26.7231 C   0  0  0  0  0  0  0  0  0  0  0  0
    7.3529  -15.0540   25.3479 C   0  0  2  0  0  0  0  0  0  0  0  0
    7.4987  -15.9105   26.4825 N   0  0  0  0  0  0  0  0  0  0  0  0
    8.6254  -14.9206   24.5794 C   0  0  0  0  0  0  0  0  0  0  0  0
    9.6724  -14.5449   25.1291 O   0  0  0  0  0  0  0  0  0  0  0  0
    9.8842  -17.6168   22.4614 O   0  0  0  0  0  0  0  0  0  0  0  0
   10.7131  -16.5152   22.6520 C   0  0  0  0  0  0  0  0  0  0  0  0
    9.9494  -15.2269   22.4422 C   0  0  2  0  0  0  0  0  0  0  0  0
    8.6998  -15.2173   23.1773 N   0  0  0  0  0  0  0  0  0  0  0  0
    9.6609  -15.1297   20.9910 C   0  0  0  0  0  0  0  0  0  0  0  0
    8.4685  -15.1109   20.6028 O   0  0  0  0  0  0  0  0  0  0  0  0
   10.6446  -15.0577   20.0286 O   0  0  0  0  0  0  0  0  0  0  0  0
  2  1  1  6
  3  2  1  0
  4  5  2  0
  4  3  1  0
  6  5  1  0
  7  6  2  0
  8  7  1  0
  8  9  2  0
  9  4  1  0
 10 17  1  0
 10  2  1  0
 11 10  2  0
 13 12  1  0
 14 16  1  0
 14 13  1  0
 14 15  1  1
 16 17  1  1
 18 16  1  0
 19 18  2  0
 21 20  1  0
 22 21  1  6
 22 23  1  0
 23 18  1  0
 24 22  1  0
 25 24  2  0
 26 24  1  0
M  END
$$$$
