FIS.pdb
     RDKit          3D

 26 26  0  0  1  0  0  0  0  0999 V2000
    5.0743  -19.4636   23.8425 N   0  0  0  0  0  0  0  0  0  0  0  0
    5.8175  -18.8503   24.9105 C   0  0  1  0  0  0  0  0  0  0  0  0
    6.8721  -19.8076   25.4212 C   0  0  0  0  0  0  0  0  0  0  0  0
    6.3804  -20.7220   26.4516 C   0  0  0  0  0  0  0  0  0  0  0  0
    6.5532  -20.3638   27.7849 C   0  0  0  0  0  0  0  0  0  0  0  0
    6.1300  -21.1473   28.8290 C   0  0  0  0  0  0  0  0  0  0  0  0
    5.5009  -22.3522   28.5351 C   0  0  0  0  0  0  0  0  0  0  0  0
    5.3153  -22.7341   27.2376 C   0  0  0  0  0  0  0  0  0  0  0  0
    5.7592  -21.9109   26.1993 C   0  0  0  0  0  0  0  0  0  0  0  0
    6.5376  -17.6566   24.3878 C   0  0  0  0  0  0  0  0  0  0  0  0
    6.9300  -17.6274   23.1859 O   0  0  0  0  0  0  0  0  0  0  0  0
    5.9517  -12.6008   26.5873 C   0  0  0  0  0  0  0  0  0  0  0  0
    6.2058  -13.5983   25.4871 C   0  0  0  0  0  0  0  0  0  0  0  0
    7.5572  -14.2029   25.4780 C   0  0  2  0  0  0  0  0  0  0  0  0
    8.5886  -13.2052   24.9566 C   0  0  0  0  0  0  0  0  0  0  0  0
    7.7161  -15.4970   24.7585 C   0  0  2  0  0  0  0  0  0  0  0  0
    6.8146  -16.5197   25.1871 N   0  0  0  0  0  0  0  0  0  0  0  0
    9.1306  -15.9726   24.7313 C   0  0  0  0  0  0  0  0  0  0  0  0
    9.6919  -16.3803   25.7599 O   0  0  0  0  0  0  0  0  0  0  0  0
   10.6780  -17.1740   21.2129 O   0  0  0  0  0  0  0  0  0  0  0  0
   11.7059  -16.6947   22.0194 C   0  0  0  0  0  0  0  0  0  0  0  0
   11.2391  -16.5442   23.4500 C   0  0  2  0  0  0  0  0  0  0  0  0
    9.9054  -15.9805   23.5235 N   0  0  0  0  0  0  0  0  0  0  0  0
   12.1927  -15.6268   24.1190 C   0  0  0  0  0  0  0  0  0  0  0  0
   11.7703  -14.5493   24.6024 O   0  0  0  0  0  0  0  0  0  0  0  0
   13.5388  -15.8949   24.2420 O   0  0  0  0  0  0  0  0  0  0  0  0
  2  1  1  6
  3  2  1  0
  4  5  2  0
  4  3  1  0
  6  5  1  0
  7  6  2  0
  8  7  1  0
  8  9  2  0
  9  4  1  0
 10 17  1  0
 10  2  1  0
 11 10  2  0
 13 12  1  0
 14 16  1  0
 14 13  1  0
 14 15  1  6
 16 17  1  1
 18 16  1  0
 19 18  2  0
 21 20  1  0
 22 21  1  6
 22 23  1  0
 23 18  1  0
 24 22  1  0
 25 24  2  0
 26 24  1  0
M  END
$$$$
