FIS.pdb
     RDKit          3D

 26 26  0  0  1  0  0  0  0  0999 V2000
    7.2565  -17.5761   27.0311 N   0  0  0  0  0  0  0  0  0  0  0  0
    6.7958  -16.6208   26.0594 C   0  0  1  0  0  0  0  0  0  0  0  0
    6.8331  -15.2274   26.6479 C   0  0  0  0  0  0  0  0  0  0  0  0
    8.1097  -14.8949   27.2799 C   0  0  0  0  0  0  0  0  0  0  0  0
    8.6141  -15.7660   28.2405 C   0  0  0  0  0  0  0  0  0  0  0  0
    9.8010  -15.5499   28.8942 C   0  0  0  0  0  0  0  0  0  0  0  0
   10.5281  -14.4073   28.5783 C   0  0  0  0  0  0  0  0  0  0  0  0
   10.0621  -13.5314   27.6404 C   0  0  0  0  0  0  0  0  0  0  0  0
    8.8488  -13.7836   26.9944 C   0  0  0  0  0  0  0  0  0  0  0  0
    7.7207  -16.6194   24.8926 C   0  0  0  0  0  0  0  0  0  0  0  0
    8.3829  -17.6580   24.6058 O   0  0  0  0  0  0  0  0  0  0  0  0
    6.8709  -12.8515   20.7085 C   0  0  0  0  0  0  0  0  0  0  0  0
    7.0462  -14.0523   21.6014 C   0  0  0  0  0  0  0  0  0  0  0  0
    8.4468  -14.3950   21.9370 C   0  0  2  0  0  0  0  0  0  0  0  0
    9.2692  -14.5984   20.6669 C   0  0  0  0  0  0  0  0  0  0  0  0
    8.6615  -15.5492   22.8531 C   0  0  2  0  0  0  0  0  0  0  0  0
    7.9039  -15.4852   24.0632 N   0  0  0  0  0  0  0  0  0  0  0  0
   10.1064  -15.8209   23.1106 C   0  0  0  0  0  0  0  0  0  0  0  0
   10.8215  -14.9945   23.6979 O   0  0  0  0  0  0  0  0  0  0  0  0
   11.4061  -19.5779   22.6780 O   0  0  0  0  0  0  0  0  0  0  0  0
   12.3841  -18.7695   23.2498 C   0  0  0  0  0  0  0  0  0  0  0  0
   12.1417  -17.3152   22.9132 C   0  0  2  0  0  0  0  0  0  0  0  0
   10.7350  -17.0418   22.6937 N   0  0  0  0  0  0  0  0  0  0  0  0
   12.8928  -17.0316   21.6665 C   0  0  0  0  0  0  0  0  0  0  0  0
   12.2605  -16.8234   20.6037 O   0  0  0  0  0  0  0  0  0  0  0  0
   14.2688  -16.9831   21.6082 O   0  0  0  0  0  0  0  0  0  0  0  0
  2  1  1  1
  3  2  1  0
  4  5  2  0
  4  3  1  0
  6  5  1  0
  7  6  2  0
  8  7  1  0
  8  9  2  0
  9  4  1  0
 10 17  1  0
 10  2  1  0
 11 10  2  0
 13 12  1  0
 14 16  1  0
 14 13  1  0
 14 15  1  6
 16 17  1  1
 18 16  1  0
 19 18  2  0
 21 20  1  0
 22 21  1  6
 22 23  1  0
 23 18  1  0
 24 22  1  0
 25 24  2  0
 26 24  1  0
M  END
$$$$
