PWD.pdb
     RDKit          3D

 30 32  0  0  1  0  0  0  0  0999 V2000
   27.3208  -19.1810  -14.6548 N   0  0  0  0  0  0  0  0  0  0  0  0
   28.2584  -18.6770  -15.6124 C   0  0  0  0  0  0  0  0  0  0  0  0
   29.4026  -19.6416  -15.7035 C   0  0  0  0  0  0  0  0  0  0  0  0
   29.1621  -20.5328  -14.4824 C   0  0  0  0  0  0  0  0  0  0  0  0
   27.6295  -20.5717  -14.4918 C   0  0  1  0  0  0  0  0  0  0  0  0
   27.1104  -21.1275  -13.2173 C   0  0  0  0  0  0  0  0  0  0  0  0
   26.4051  -22.1666  -13.2076 O   0  0  0  0  0  0  0  0  0  0  0  0
   27.3958  -20.5041  -11.9881 N   0  0  0  0  0  0  0  0  0  0  0  0
   26.7252  -20.7416  -10.7562 C   0  0  1  0  0  0  0  0  0  0  0  0
   27.5210  -20.2300   -9.6013 C   0  0  0  0  0  0  0  0  0  0  0  0
   26.9286  -20.4631   -8.2764 C   0  0  0  0  0  0  0  0  0  0  0  0
   25.7190  -21.0809   -8.0065 C   0  0  0  0  0  0  0  0  0  0  0  0
   25.5315  -21.1388   -6.6893 N   0  0  0  0  0  0  0  0  0  0  0  0
   26.5963  -20.5695   -6.0945 C   0  0  0  0  0  0  0  0  0  0  0  0
   26.9183  -20.3564   -4.7826 C   0  0  0  0  0  0  0  0  0  0  0  0
   28.0707  -19.7379   -4.3578 C   0  0  0  0  0  0  0  0  0  0  0  0
   28.9419  -19.3145   -5.3465 C   0  0  0  0  0  0  0  0  0  0  0  0
   28.6570  -19.5091   -6.6692 C   0  0  0  0  0  0  0  0  0  0  0  0
   27.4808  -20.1403   -7.0701 C   0  0  0  0  0  0  0  0  0  0  0  0
   25.3407  -20.2442  -10.7245 C   0  0  0  0  0  0  0  0  0  0  0  0
   25.1443  -18.9892  -10.7210 O   0  0  0  0  0  0  0  0  0  0  0  0
   24.2129  -21.1027  -10.6976 N   0  0  0  0  0  0  0  0  0  0  0  0
   22.8662  -20.6439  -11.0074 C   0  0  1  0  0  0  0  0  0  0  0  0
   22.2578  -21.4227  -12.1311 C   0  0  0  0  0  0  0  0  0  0  0  0
   22.6421  -20.8355  -13.4158 C   0  0  0  0  0  0  0  0  0  0  0  0
   22.4233  -19.6197  -13.6916 O   0  0  0  0  0  0  0  0  0  0  0  0
   22.0296  -20.5530   -9.8010 C   0  0  0  0  0  0  0  0  0  0  0  0
   20.8766  -19.8312   -9.6898 O   0  0  0  0  0  0  0  0  0  0  0  0
   23.2722  -21.6413  -14.3727 O   0  0  0  0  0  0  0  0  0  0  0  0
   22.4144  -21.2031   -8.7704 O   0  0  0  0  0  0  0  0  0  0  0  0
  1  2  1  0
  1  5  1  0
  2  3  1  0
  3  4  1  0
  5  4  1  0
  6  7  2  0
  5  6  1  1
  8  6  1  0
  9  8  1  0
  9 10  1  1
 10 11  1  0
 11 12  2  0
 11 19  1  0
 12 13  1  0
 13 14  1  0
 14 15  2  0
 15 16  1  0
 17 16  2  0
 18 17  1  0
 19 18  2  0
 19 14  1  0
 20  9  1  0
 21 20  2  0
 22 20  1  0
 23 22  1  0
 24 25  1  0
 23 24  1  6
 25 29  1  0
 26 25  2  0
 27 28  1  0
 27 23  1  0
 30 27  2  0
M  END
$$$$
