PWD.pdb
     RDKit          3D

 30 32  0  0  1  0  0  0  0  0999 V2000
   15.3604  -18.5138    4.5277 N   0  0  0  0  0  0  0  0  0  0  0  0
   14.4981  -18.7360    3.4064 C   0  0  0  0  0  0  0  0  0  0  0  0
   15.3500  -19.0340    2.2093 C   0  0  0  0  0  0  0  0  0  0  0  0
   16.7415  -18.6310    2.7039 C   0  0  0  0  0  0  0  0  0  0  0  0
   16.6307  -19.0730    4.1678 C   0  0  1  0  0  0  0  0  0  0  0  0
   17.7487  -18.5171    4.9702 C   0  0  0  0  0  0  0  0  0  0  0  0
   18.9393  -18.8260    4.7167 O   0  0  0  0  0  0  0  0  0  0  0  0
   17.5024  -17.6303    6.0350 N   0  0  0  0  0  0  0  0  0  0  0  0
   18.4808  -17.0914    6.9158 C   0  0  1  0  0  0  0  0  0  0  0  0
   18.0843  -15.7352    7.3979 C   0  0  0  0  0  0  0  0  0  0  0  0
   18.2912  -14.6409    6.4385 C   0  0  0  0  0  0  0  0  0  0  0  0
   17.4259  -14.2468    5.4317 C   0  0  0  0  0  0  0  0  0  0  0  0
   17.9386  -13.2004    4.7869 N   0  0  0  0  0  0  0  0  0  0  0  0
   19.1230  -12.9048    5.3539 C   0  0  0  0  0  0  0  0  0  0  0  0
   20.0608  -11.9453    5.0895 C   0  0  0  0  0  0  0  0  0  0  0  0
   21.2383  -11.7996    5.7847 C   0  0  0  0  0  0  0  0  0  0  0  0
   21.4602  -12.6984    6.8138 C   0  0  0  0  0  0  0  0  0  0  0  0
   20.5474  -13.6718    7.1100 C   0  0  0  0  0  0  0  0  0  0  0  0
   19.3614  -13.7946    6.3882 C   0  0  0  0  0  0  0  0  0  0  0  0
   18.8349  -17.9824    8.0319 C   0  0  0  0  0  0  0  0  0  0  0  0
   17.8995  -18.5197    8.7027 O   0  0  0  0  0  0  0  0  0  0  0  0
   20.1749  -18.2699    8.3944 N   0  0  0  0  0  0  0  0  0  0  0  0
   20.5198  -19.1284    9.5188 C   0  0  1  0  0  0  0  0  0  0  0  0
   20.8141  -20.5285    9.0800 C   0  0  0  0  0  0  0  0  0  0  0  0
   20.9504  -21.4028   10.2463 C   0  0  0  0  0  0  0  0  0  0  0  0
   20.4601  -21.1012   11.3736 O   0  0  0  0  0  0  0  0  0  0  0  0
   21.5547  -18.5226   10.3706 C   0  0  0  0  0  0  0  0  0  0  0  0
   22.2530  -17.3864   10.0810 O   0  0  0  0  0  0  0  0  0  0  0  0
   21.6444  -22.6123   10.1144 O   0  0  0  0  0  0  0  0  0  0  0  0
   21.8233  -19.1091   11.4736 O   0  0  0  0  0  0  0  0  0  0  0  0
  1  2  1  0
  1  5  1  0
  2  3  1  0
  3  4  1  0
  5  4  1  0
  6  7  2  0
  5  6  1  1
  8  6  1  0
  9  8  1  0
  9 10  1  1
 10 11  1  0
 11 12  2  0
 11 19  1  0
 12 13  1  0
 13 14  1  0
 14 15  2  0
 15 16  1  0
 17 16  2  0
 18 17  1  0
 19 18  2  0
 19 14  1  0
 20  9  1  0
 21 20  2  0
 22 20  1  0
 23 22  1  0
 24 25  1  0
 23 24  1  6
 25 29  1  0
 26 25  2  0
 27 28  1  0
 27 23  1  0
 30 27  2  0
M  END
$$$$
