PWD.pdb
     RDKit          3D

 30 32  0  0  1  0  0  0  0  0999 V2000
   28.4474  -20.1572  -15.0090 N   0  0  0  0  0  0  0  0  0  0  0  0
   29.5409  -20.3126  -15.9202 C   0  0  0  0  0  0  0  0  0  0  0  0
   29.8918  -21.7685  -15.9901 C   0  0  0  0  0  0  0  0  0  0  0  0
   29.1176  -22.3375  -14.7985 C   0  0  0  0  0  0  0  0  0  0  0  0
   27.8631  -21.4586  -14.8652 C   0  0  1  0  0  0  0  0  0  0  0  0
   27.0617  -21.5921  -13.6231 C   0  0  0  0  0  0  0  0  0  0  0  0
   26.0929  -22.3890  -13.5641 O   0  0  0  0  0  0  0  0  0  0  0  0
   27.3677  -20.8290  -12.4806 N   0  0  0  0  0  0  0  0  0  0  0  0
   26.6672  -20.8617  -11.2430 C   0  0  1  0  0  0  0  0  0  0  0  0
   27.5831  -20.5841  -10.0972 C   0  0  0  0  0  0  0  0  0  0  0  0
   26.9415  -20.5387   -8.7754 C   0  0  0  0  0  0  0  0  0  0  0  0
   25.6051  -20.7688   -8.4945 C   0  0  0  0  0  0  0  0  0  0  0  0
   25.4016  -20.6702   -7.1821 N   0  0  0  0  0  0  0  0  0  0  0  0
   26.5804  -20.3792   -6.6013 C   0  0  0  0  0  0  0  0  0  0  0  0
   26.9421  -20.1649   -5.3001 C   0  0  0  0  0  0  0  0  0  0  0  0
   28.2198  -19.8646   -4.8899 C   0  0  0  0  0  0  0  0  0  0  0  0
   29.1807  -19.7806   -5.8826 C   0  0  0  0  0  0  0  0  0  0  0  0
   28.8599  -19.9883   -7.1950 C   0  0  0  0  0  0  0  0  0  0  0  0
   27.5556  -20.2923   -7.5811 C   0  0  0  0  0  0  0  0  0  0  0  0
   25.4764  -19.9980  -11.2079 C   0  0  0  0  0  0  0  0  0  0  0  0
   25.6074  -18.7681  -11.4972 O   0  0  0  0  0  0  0  0  0  0  0  0
   24.1865  -20.4759  -10.8652 N   0  0  0  0  0  0  0  0  0  0  0  0
   22.9882  -20.1094  -11.6066 C   0  0  1  0  0  0  0  0  0  0  0  0
   23.1784  -20.2639  -13.0829 C   0  0  0  0  0  0  0  0  0  0  0  0
   22.3432  -19.2996  -13.8012 C   0  0  0  0  0  0  0  0  0  0  0  0
   22.0525  -18.1680  -13.3143 O   0  0  0  0  0  0  0  0  0  0  0  0
   21.7901  -20.7731  -11.0701 C   0  0  0  0  0  0  0  0  0  0  0  0
   21.6295  -22.1206  -10.9256 O   0  0  0  0  0  0  0  0  0  0  0  0
   21.8482  -19.6363  -15.0675 O   0  0  0  0  0  0  0  0  0  0  0  0
   20.8180  -20.0261  -10.7099 O   0  0  0  0  0  0  0  0  0  0  0  0
  1  2  1  0
  1  5  1  0
  2  3  1  0
  3  4  1  0
  5  4  1  0
  6  7  2  0
  5  6  1  1
  8  6  1  0
  9  8  1  0
  9 10  1  1
 10 11  1  0
 11 12  2  0
 11 19  1  0
 12 13  1  0
 13 14  1  0
 14 15  2  0
 15 16  1  0
 17 16  2  0
 18 17  1  0
 19 18  2  0
 19 14  1  0
 20  9  1  0
 21 20  2  0
 22 20  1  0
 23 22  1  0
 24 25  1  0
 23 24  1  6
 25 29  1  0
 26 25  2  0
 27 28  1  0
 27 23  1  0
 30 27  2  0
M  END
$$$$
