PWD.pdb
     RDKit          3D

 30 32  0  0  1  0  0  0  0  0999 V2000
   15.5612  -20.4734    1.2199 N   0  0  0  0  0  0  0  0  0  0  0  0
   15.3661  -21.4994    0.2404 C   0  0  0  0  0  0  0  0  0  0  0  0
   15.8851  -22.7896    0.8005 C   0  0  0  0  0  0  0  0  0  0  0  0
   16.6699  -22.3096    2.0240 C   0  0  0  0  0  0  0  0  0  0  0  0
   15.7698  -21.1501    2.4666 C   0  0  1  0  0  0  0  0  0  0  0  0
   16.4611  -20.3020    3.4695 C   0  0  0  0  0  0  0  0  0  0  0  0
   16.8348  -20.7797    4.5692 O   0  0  0  0  0  0  0  0  0  0  0  0
   16.7148  -18.9415    3.2130 N   0  0  0  0  0  0  0  0  0  0  0  0
   17.4443  -18.0556    4.0536 C   0  0  1  0  0  0  0  0  0  0  0  0
   17.9237  -16.8632    3.2939 C   0  0  0  0  0  0  0  0  0  0  0  0
   18.6973  -15.8881    4.0759 C   0  0  0  0  0  0  0  0  0  0  0  0
   19.5402  -16.1611    5.1402 C   0  0  0  0  0  0  0  0  0  0  0  0
   20.0902  -15.0291    5.5756 N   0  0  0  0  0  0  0  0  0  0  0  0
   19.6212  -14.0222    4.8155 C   0  0  0  0  0  0  0  0  0  0  0  0
   19.8448  -12.6731    4.8274 C   0  0  0  0  0  0  0  0  0  0  0  0
   19.2571  -11.7822    3.9603 C   0  0  0  0  0  0  0  0  0  0  0  0
   18.3870  -12.3164    3.0256 C   0  0  0  0  0  0  0  0  0  0  0  0
   18.1370  -13.6595    2.9806 C   0  0  0  0  0  0  0  0  0  0  0  0
   18.7485  -14.5390    3.8723 C   0  0  0  0  0  0  0  0  0  0  0  0
   16.7260  -17.6668    5.2775 C   0  0  0  0  0  0  0  0  0  0  0  0
   15.4852  -17.4064    5.1989 O   0  0  0  0  0  0  0  0  0  0  0  0
   17.3560  -17.5691    6.5437 N   0  0  0  0  0  0  0  0  0  0  0  0
   16.6284  -17.2445    7.7625 C   0  0  1  0  0  0  0  0  0  0  0  0
   17.0634  -18.0960    8.9136 C   0  0  0  0  0  0  0  0  0  0  0  0
   16.1587  -17.9071   10.0490 C   0  0  0  0  0  0  0  0  0  0  0  0
   15.9651  -16.7711   10.5726 O   0  0  0  0  0  0  0  0  0  0  0  0
   16.6341  -15.7986    8.0328 C   0  0  0  0  0  0  0  0  0  0  0  0
   15.5609  -15.0677    8.4529 O   0  0  0  0  0  0  0  0  0  0  0  0
   15.4839  -19.0161   10.5751 O   0  0  0  0  0  0  0  0  0  0  0  0
   17.7353  -15.1741    7.8591 O   0  0  0  0  0  0  0  0  0  0  0  0
  1  2  1  0
  1  5  1  0
  2  3  1  0
  3  4  1  0
  5  4  1  0
  6  7  2  0
  5  6  1  1
  8  6  1  0
  9  8  1  0
  9 10  1  6
 10 11  1  0
 11 12  2  0
 11 19  1  0
 12 13  1  0
 13 14  1  0
 14 15  2  0
 15 16  1  0
 17 16  2  0
 18 17  1  0
 19 18  2  0
 19 14  1  0
 20  9  1  0
 21 20  2  0
 22 20  1  0
 23 22  1  0
 24 25  1  0
 23 24  1  1
 25 29  1  0
 26 25  2  0
 27 28  1  0
 27 23  1  0
 30 27  2  0
M  END
$$$$
