PWD.pdb
     RDKit          3D

 30 32  0  0  1  0  0  0  0  0999 V2000
   27.7139  -19.0563  -14.5347 N   0  0  0  0  0  0  0  0  0  0  0  0
   28.9136  -18.6449  -15.1993 C   0  0  0  0  0  0  0  0  0  0  0  0
   29.8000  -19.8439  -15.3553 C   0  0  0  0  0  0  0  0  0  0  0  0
   29.1230  -20.8594  -14.4313 C   0  0  0  0  0  0  0  0  0  0  0  0
   27.6559  -20.4826  -14.6684 C   0  0  1  0  0  0  0  0  0  0  0  0
   26.7799  -21.1175  -13.6522 C   0  0  0  0  0  0  0  0  0  0  0  0
   26.5098  -22.3427  -13.7097 O   0  0  0  0  0  0  0  0  0  0  0  0
   26.2303  -20.3624  -12.5993 N   0  0  0  0  0  0  0  0  0  0  0  0
   25.2446  -20.8105  -11.6767 C   0  0  1  0  0  0  0  0  0  0  0  0
   25.5530  -20.3488  -10.2909 C   0  0  0  0  0  0  0  0  0  0  0  0
   26.8983  -20.6822   -9.8013 C   0  0  0  0  0  0  0  0  0  0  0  0
   27.9001  -21.3286  -10.5059 C   0  0  0  0  0  0  0  0  0  0  0  0
   28.9889  -21.4263   -9.7454 N   0  0  0  0  0  0  0  0  0  0  0  0
   28.7160  -20.8563   -8.5570 C   0  0  0  0  0  0  0  0  0  0  0  0
   29.4580  -20.6859   -7.4211 C   0  0  0  0  0  0  0  0  0  0  0  0
   28.9977  -20.0743   -6.2787 C   0  0  0  0  0  0  0  0  0  0  0  0
   27.6936  -19.6114   -6.3117 C   0  0  0  0  0  0  0  0  0  0  0  0
   26.9191  -19.7618   -7.4280 C   0  0  0  0  0  0  0  0  0  0  0  0
   27.4135  -20.3855   -8.5722 C   0  0  0  0  0  0  0  0  0  0  0  0
   23.8659  -20.4754  -12.0665 C   0  0  0  0  0  0  0  0  0  0  0  0
   23.6563  -19.3892  -12.6908 O   0  0  0  0  0  0  0  0  0  0  0  0
   22.7576  -21.3107  -11.7769 N   0  0  0  0  0  0  0  0  0  0  0  0
   21.4572  -21.1414  -12.4097 C   0  0  1  0  0  0  0  0  0  0  0  0
   21.2462  -22.1234  -13.5189 C   0  0  0  0  0  0  0  0  0  0  0  0
   19.9421  -21.9013  -14.1460 C   0  0  0  0  0  0  0  0  0  0  0  0
   19.6803  -20.8484  -14.7980 O   0  0  0  0  0  0  0  0  0  0  0  0
   20.3706  -21.0923  -11.4194 C   0  0  0  0  0  0  0  0  0  0  0  0
   19.1924  -20.4204  -11.5699 O   0  0  0  0  0  0  0  0  0  0  0  0
   18.9502  -22.8825  -14.0229 O   0  0  0  0  0  0  0  0  0  0  0  0
   20.5443  -21.7311  -10.3265 O   0  0  0  0  0  0  0  0  0  0  0  0
  1  2  1  0
  1  5  1  0
  2  3  1  0
  3  4  1  0
  5  4  1  0
  6  7  2  0
  5  6  1  1
  8  6  1  0
  9  8  1  0
  9 10  1  1
 10 11  1  0
 11 12  2  0
 11 19  1  0
 12 13  1  0
 13 14  1  0
 14 15  2  0
 15 16  1  0
 17 16  2  0
 18 17  1  0
 19 18  2  0
 19 14  1  0
 20  9  1  0
 21 20  2  0
 22 20  1  0
 23 22  1  0
 24 25  1  0
 23 24  1  6
 25 29  1  0
 26 25  2  0
 27 28  1  0
 27 23  1  0
 30 27  2  0
M  END
$$$$
