PWD.pdb
     RDKit          3D

 30 32  0  0  1  0  0  0  0  0999 V2000
   27.9269  -20.4970  -16.0965 N   0  0  0  0  0  0  0  0  0  0  0  0
   29.0790  -20.5086  -16.9465 C   0  0  0  0  0  0  0  0  0  0  0  0
   29.7721  -21.8278  -16.7819 C   0  0  0  0  0  0  0  0  0  0  0  0
   29.0858  -22.3915  -15.5352 C   0  0  0  0  0  0  0  0  0  0  0  0
   27.6638  -21.8673  -15.7668 C   0  0  1  0  0  0  0  0  0  0  0  0
   26.8438  -22.0131  -14.5382 C   0  0  0  0  0  0  0  0  0  0  0  0
   26.4178  -23.1382  -14.1778 O   0  0  0  0  0  0  0  0  0  0  0  0
   26.5233  -20.8941  -13.7468 N   0  0  0  0  0  0  0  0  0  0  0  0
   25.7065  -20.9019  -12.5822 C   0  0  1  0  0  0  0  0  0  0  0  0
   26.2364  -19.9676  -11.5453 C   0  0  0  0  0  0  0  0  0  0  0  0
   27.3141  -20.5071  -10.7038 C   0  0  0  0  0  0  0  0  0  0  0  0
   28.4528  -21.1657  -11.1367 C   0  0  0  0  0  0  0  0  0  0  0  0
   29.2128  -21.4789  -10.0889 N   0  0  0  0  0  0  0  0  0  0  0  0
   28.5907  -21.0374   -8.9800 C   0  0  0  0  0  0  0  0  0  0  0  0
   28.9149  -21.0956   -7.6527 C   0  0  0  0  0  0  0  0  0  0  0  0
   28.1348  -20.5866   -6.6411 C   0  0  0  0  0  0  0  0  0  0  0  0
   26.9498  -19.9819   -7.0230 C   0  0  0  0  0  0  0  0  0  0  0  0
   26.5897  -19.9030   -8.3393 C   0  0  0  0  0  0  0  0  0  0  0  0
   27.4016  -20.4274   -9.3436 C   0  0  0  0  0  0  0  0  0  0  0  0
   24.2801  -20.6616  -12.8517 C   0  0  0  0  0  0  0  0  0  0  0  0
   23.9542  -19.6551  -13.5547 O   0  0  0  0  0  0  0  0  0  0  0  0
   23.2499  -21.5033  -12.3618 N   0  0  0  0  0  0  0  0  0  0  0  0
   21.8446  -21.2961  -12.6818 C   0  0  1  0  0  0  0  0  0  0  0  0
   21.0562  -22.5632  -12.5715 C   0  0  0  0  0  0  0  0  0  0  0  0
   19.6605  -22.3209  -12.9410 C   0  0  0  0  0  0  0  0  0  0  0  0
   18.7381  -22.2543  -12.0768 O   0  0  0  0  0  0  0  0  0  0  0  0
   21.2792  -20.1560  -11.9441 C   0  0  0  0  0  0  0  0  0  0  0  0
   20.2479  -19.3705  -12.3704 O   0  0  0  0  0  0  0  0  0  0  0  0
   19.3316  -22.1569  -14.2927 O   0  0  0  0  0  0  0  0  0  0  0  0
   21.7971  -19.8769  -10.8098 O   0  0  0  0  0  0  0  0  0  0  0  0
  1  2  1  0
  1  5  1  0
  2  3  1  0
  3  4  1  0
  5  4  1  0
  6  7  2  0
  5  6  1  1
  8  6  1  0
  9  8  1  0
  9 10  1  1
 10 11  1  0
 11 12  2  0
 11 19  1  0
 12 13  1  0
 13 14  1  0
 14 15  2  0
 15 16  1  0
 17 16  2  0
 18 17  1  0
 19 18  2  0
 19 14  1  0
 20  9  1  0
 21 20  2  0
 22 20  1  0
 23 22  1  0
 24 25  1  0
 23 24  1  1
 25 29  1  0
 26 25  2  0
 27 28  1  0
 27 23  1  0
 30 27  2  0
M  END
$$$$
