PWD.pdb
     RDKit          3D

 30 32  0  0  1  0  0  0  0  0999 V2000
   28.0091  -20.6023  -16.3838 N   0  0  0  0  0  0  0  0  0  0  0  0
   29.1118  -20.7020  -17.2916 C   0  0  0  0  0  0  0  0  0  0  0  0
   29.6832  -22.0842  -17.1881 C   0  0  0  0  0  0  0  0  0  0  0  0
   29.0082  -22.6106  -15.9191 C   0  0  0  0  0  0  0  0  0  0  0  0
   27.6330  -21.9493  -16.0676 C   0  0  1  0  0  0  0  0  0  0  0  0
   26.8640  -22.0466  -14.8018 C   0  0  0  0  0  0  0  0  0  0  0  0
   26.4912  -23.1610  -14.3586 O   0  0  0  0  0  0  0  0  0  0  0  0
   26.5336  -20.8926  -14.0669 N   0  0  0  0  0  0  0  0  0  0  0  0
   25.7653  -20.8566  -12.8702 C   0  0  1  0  0  0  0  0  0  0  0  0
   26.3672  -19.9256  -11.8704 C   0  0  0  0  0  0  0  0  0  0  0  0
   27.5000  -20.4686  -11.1070 C   0  0  0  0  0  0  0  0  0  0  0  0
   28.6196  -21.1002  -11.6219 C   0  0  0  0  0  0  0  0  0  0  0  0
   29.4444  -21.4264  -10.6285 N   0  0  0  0  0  0  0  0  0  0  0  0
   28.8833  -21.0199   -9.4746 C   0  0  0  0  0  0  0  0  0  0  0  0
   29.2863  -21.1041   -8.1705 C   0  0  0  0  0  0  0  0  0  0  0  0
   28.5608  -20.6302   -7.1028 C   0  0  0  0  0  0  0  0  0  0  0  0
   27.3473  -20.0342   -7.3996 C   0  0  0  0  0  0  0  0  0  0  0  0
   26.9089  -19.9302   -8.6901 C   0  0  0  0  0  0  0  0  0  0  0  0
   27.6667  -20.4191   -9.7528 C   0  0  0  0  0  0  0  0  0  0  0  0
   24.3376  -20.5731  -13.0857 C   0  0  0  0  0  0  0  0  0  0  0  0
   24.0164  -19.5992  -13.8352 O   0  0  0  0  0  0  0  0  0  0  0  0
   23.3012  -21.3383  -12.4940 N   0  0  0  0  0  0  0  0  0  0  0  0
   21.8945  -21.1381  -12.8119 C   0  0  1  0  0  0  0  0  0  0  0  0
   21.2606  -22.3860  -13.3413 C   0  0  0  0  0  0  0  0  0  0  0  0
   19.8631  -22.1296  -13.6940 C   0  0  0  0  0  0  0  0  0  0  0  0
   19.5334  -21.2393  -14.5311 O   0  0  0  0  0  0  0  0  0  0  0  0
   21.1683  -20.5057  -11.7000 C   0  0  0  0  0  0  0  0  0  0  0  0
   21.6643  -20.3016  -10.4450 O   0  0  0  0  0  0  0  0  0  0  0  0
   18.8560  -22.8916  -13.0880 O   0  0  0  0  0  0  0  0  0  0  0  0
   19.9729  -20.1155  -11.9272 O   0  0  0  0  0  0  0  0  0  0  0  0
  1  2  1  0
  1  5  1  0
  2  3  1  0
  3  4  1  0
  5  4  1  0
  6  7  2  0
  5  6  1  1
  8  6  1  0
  9  8  1  0
  9 10  1  1
 10 11  1  0
 11 12  2  0
 11 19  1  0
 12 13  1  0
 13 14  1  0
 14 15  2  0
 15 16  1  0
 17 16  2  0
 18 17  1  0
 19 18  2  0
 19 14  1  0
 20  9  1  0
 21 20  2  0
 22 20  1  0
 23 22  1  0
 24 25  1  0
 23 24  1  1
 25 29  1  0
 26 25  2  0
 27 28  1  0
 27 23  1  0
 30 27  2  0
M  END
$$$$
