PWD.pdb
     RDKit          3D

 30 32  0  0  1  0  0  0  0  0999 V2000
   27.6351  -19.5836  -14.6715 N   0  0  0  0  0  0  0  0  0  0  0  0
   28.6728  -19.4186  -15.6442 C   0  0  0  0  0  0  0  0  0  0  0  0
   29.4717  -20.6861  -15.6997 C   0  0  0  0  0  0  0  0  0  0  0  0
   28.9841  -21.4216  -14.4489 C   0  0  0  0  0  0  0  0  0  0  0  0
   27.5111  -20.9963  -14.4599 C   0  0  1  0  0  0  0  0  0  0  0  0
   26.8596  -21.3265  -13.1679 C   0  0  0  0  0  0  0  0  0  0  0  0
   25.9244  -22.1630  -13.1133 O   0  0  0  0  0  0  0  0  0  0  0  0
   27.2734  -20.7103  -11.9720 N   0  0  0  0  0  0  0  0  0  0  0  0
   26.6302  -20.8242  -10.7084 C   0  0  1  0  0  0  0  0  0  0  0  0
   27.5058  -20.3192   -9.6097 C   0  0  0  0  0  0  0  0  0  0  0  0
   26.9654  -20.4761   -8.2517 C   0  0  0  0  0  0  0  0  0  0  0  0
   25.7340  -21.0071   -7.9061 C   0  0  0  0  0  0  0  0  0  0  0  0
   25.6079  -21.0154   -6.5804 N   0  0  0  0  0  0  0  0  0  0  0  0
   26.7341  -20.4989   -6.0544 C   0  0  0  0  0  0  0  0  0  0  0  0
   27.1325  -20.2697   -4.7665 C   0  0  0  0  0  0  0  0  0  0  0  0
   28.3408  -19.7146   -4.4159 C   0  0  0  0  0  0  0  0  0  0  0  0
   29.1875  -19.3763   -5.4572 C   0  0  0  0  0  0  0  0  0  0  0  0
   28.8266  -19.5896   -6.7583 C   0  0  0  0  0  0  0  0  0  0  0  0
   27.5950  -20.1553   -7.0835 C   0  0  0  0  0  0  0  0  0  0  0  0
   25.2929  -20.2121  -10.6618 C   0  0  0  0  0  0  0  0  0  0  0  0
   25.1971  -18.9496  -10.7640 O   0  0  0  0  0  0  0  0  0  0  0  0
   24.1034  -20.9678  -10.5077 N   0  0  0  0  0  0  0  0  0  0  0  0
   22.8166  -20.5253  -11.0257 C   0  0  1  0  0  0  0  0  0  0  0  0
   22.4032  -21.3084  -12.2320 C   0  0  0  0  0  0  0  0  0  0  0  0
   21.0834  -20.8694  -12.6887 C   0  0  0  0  0  0  0  0  0  0  0  0
   20.8633  -19.6811  -13.0652 O   0  0  0  0  0  0  0  0  0  0  0  0
   21.7990  -20.4487   -9.9662 C   0  0  0  0  0  0  0  0  0  0  0  0
   20.7395  -19.5887   -9.9471 O   0  0  0  0  0  0  0  0  0  0  0  0
   20.0284  -21.7904  -12.7113 O   0  0  0  0  0  0  0  0  0  0  0  0
   21.9169  -21.2537   -8.9809 O   0  0  0  0  0  0  0  0  0  0  0  0
  1  2  1  0
  1  5  1  0
  2  3  1  0
  3  4  1  0
  5  4  1  0
  6  7  2  0
  5  6  1  1
  8  6  1  0
  9  8  1  0
  9 10  1  1
 10 11  1  0
 11 12  2  0
 11 19  1  0
 12 13  1  0
 13 14  1  0
 14 15  2  0
 15 16  1  0
 17 16  2  0
 18 17  1  0
 19 18  2  0
 19 14  1  0
 20  9  1  0
 21 20  2  0
 22 20  1  0
 23 22  1  0
 24 25  1  0
 23 24  1  6
 25 29  1  0
 26 25  2  0
 27 28  1  0
 27 23  1  0
 30 27  2  0
M  END
$$$$
