PWD.pdb
     RDKit          3D

 30 32  0  0  1  0  0  0  0  0999 V2000
   22.2637  -23.6545  -17.3226 N   0  0  0  0  0  0  0  0  0  0  0  0
   22.4094  -24.6589  -18.3326 C   0  0  0  0  0  0  0  0  0  0  0  0
   21.5730  -25.8411  -17.9449 C   0  0  0  0  0  0  0  0  0  0  0  0
   21.2281  -25.5198  -16.4885 C   0  0  0  0  0  0  0  0  0  0  0  0
   21.0794  -23.9973  -16.5907 C   0  0  1  0  0  0  0  0  0  0  0  0
   21.0425  -23.3814  -15.2408 C   0  0  0  0  0  0  0  0  0  0  0  0
   22.0716  -23.3434  -14.5218 O   0  0  0  0  0  0  0  0  0  0  0  0
   19.8537  -22.8248  -14.7330 N   0  0  0  0  0  0  0  0  0  0  0  0
   19.6905  -22.2337  -13.4495 C   0  0  1  0  0  0  0  0  0  0  0  0
   19.1136  -20.8610  -13.5570 C   0  0  0  0  0  0  0  0  0  0  0  0
   20.0651  -19.8064  -13.9356 C   0  0  0  0  0  0  0  0  0  0  0  0
   21.0628  -19.8947  -14.8918 C   0  0  0  0  0  0  0  0  0  0  0  0
   21.7021  -18.7297  -14.9786 N   0  0  0  0  0  0  0  0  0  0  0  0
   21.1404  -17.8828  -14.0961 C   0  0  0  0  0  0  0  0  0  0  0  0
   21.4028  -16.5815  -13.7676 C   0  0  0  0  0  0  0  0  0  0  0  0
   20.7142  -15.8684  -12.8147 C   0  0  0  0  0  0  0  0  0  0  0  0
   19.6942  -16.5392  -12.1623 C   0  0  0  0  0  0  0  0  0  0  0  0
   19.4002  -17.8401  -12.4618 C   0  0  0  0  0  0  0  0  0  0  0  0
   20.1152  -18.5376  -13.4338 C   0  0  0  0  0  0  0  0  0  0  0  0
   18.9360  -23.0670  -12.4999 C   0  0  0  0  0  0  0  0  0  0  0  0
   17.9827  -23.7815  -12.9406 O   0  0  0  0  0  0  0  0  0  0  0  0
   19.2242  -23.1094  -11.1125 N   0  0  0  0  0  0  0  0  0  0  0  0
   18.4860  -23.9494  -10.1801 C   0  0  1  0  0  0  0  0  0  0  0  0
   19.2767  -24.2344   -8.9420 C   0  0  0  0  0  0  0  0  0  0  0  0
   18.5270  -25.1328   -8.0622 C   0  0  0  0  0  0  0  0  0  0  0  0
   18.1287  -26.2715   -8.4456 O   0  0  0  0  0  0  0  0  0  0  0  0
   17.1302  -23.4335   -9.9365 C   0  0  0  0  0  0  0  0  0  0  0  0
   16.7687  -22.1177   -9.9559 O   0  0  0  0  0  0  0  0  0  0  0  0
   18.2394  -24.7230   -6.7540 O   0  0  0  0  0  0  0  0  0  0  0  0
   16.2142  -24.2882   -9.6849 O   0  0  0  0  0  0  0  0  0  0  0  0
  1  2  1  0
  1  5  1  0
  2  3  1  0
  3  4  1  0
  5  4  1  0
  6  7  2  0
  5  6  1  1
  8  6  1  0
  9  8  1  0
  9 10  1  6
 10 11  1  0
 11 12  2  0
 11 19  1  0
 12 13  1  0
 13 14  1  0
 14 15  2  0
 15 16  1  0
 17 16  2  0
 18 17  1  0
 19 18  2  0
 19 14  1  0
 20  9  1  0
 21 20  2  0
 22 20  1  0
 23 22  1  0
 24 25  1  0
 23 24  1  1
 25 29  1  0
 26 25  2  0
 27 28  1  0
 27 23  1  0
 30 27  2  0
M  END
$$$$
