PWD.pdb
     RDKit          3D

 30 32  0  0  1  0  0  0  0  0999 V2000
   28.1831  -19.0585  -13.1938 N   0  0  0  0  0  0  0  0  0  0  0  0
   29.3399  -18.7348  -13.9730 C   0  0  0  0  0  0  0  0  0  0  0  0
   30.1410  -19.9868  -14.1687 C   0  0  0  0  0  0  0  0  0  0  0  0
   29.4936  -20.9370  -13.1581 C   0  0  0  0  0  0  0  0  0  0  0  0
   28.0344  -20.4821  -13.2777 C   0  0  1  0  0  0  0  0  0  0  0  0
   27.2184  -21.0385  -12.1698 C   0  0  0  0  0  0  0  0  0  0  0  0
   27.0035  -22.2730  -12.0851 O   0  0  0  0  0  0  0  0  0  0  0  0
   26.6652  -20.1967  -11.1868 N   0  0  0  0  0  0  0  0  0  0  0  0
   25.7073  -20.5760  -10.2059 C   0  0  1  0  0  0  0  0  0  0  0  0
   26.0531  -20.0119   -8.8676 C   0  0  0  0  0  0  0  0  0  0  0  0
   27.3880  -20.3634   -8.3625 C   0  0  0  0  0  0  0  0  0  0  0  0
   28.3675  -21.0751   -9.0345 C   0  0  0  0  0  0  0  0  0  0  0  0
   29.4540  -21.1697   -8.2703 N   0  0  0  0  0  0  0  0  0  0  0  0
   29.2014  -20.5335   -7.1114 C   0  0  0  0  0  0  0  0  0  0  0  0
   29.9505  -20.3310   -5.9854 C   0  0  0  0  0  0  0  0  0  0  0  0
   29.5118  -19.6496   -4.8745 C   0  0  0  0  0  0  0  0  0  0  0  0
   28.2230  -19.1477   -4.9300 C   0  0  0  0  0  0  0  0  0  0  0  0
   27.4421  -19.3283   -6.0373 C   0  0  0  0  0  0  0  0  0  0  0  0
   27.9145  -20.0229   -7.1496 C   0  0  0  0  0  0  0  0  0  0  0  0
   24.3171  -20.2724  -10.5804 C   0  0  0  0  0  0  0  0  0  0  0  0
   23.9568  -19.0564  -10.6507 O   0  0  0  0  0  0  0  0  0  0  0  0
   23.3584  -21.2767  -10.8671 N   0  0  0  0  0  0  0  0  0  0  0  0
   22.0708  -20.9842  -11.4806 C   0  0  1  0  0  0  0  0  0  0  0  0
   21.6871  -22.0204  -12.4898 C   0  0  0  0  0  0  0  0  0  0  0  0
   20.3946  -21.6842  -13.0894 C   0  0  0  0  0  0  0  0  0  0  0  0
   19.7744  -20.6201  -12.7972 O   0  0  0  0  0  0  0  0  0  0  0  0
   21.0384  -20.6982  -10.4726 C   0  0  0  0  0  0  0  0  0  0  0  0
   19.8577  -20.0559  -10.7091 O   0  0  0  0  0  0  0  0  0  0  0  0
   19.8229  -22.5652  -14.0162 O   0  0  0  0  0  0  0  0  0  0  0  0
   21.2658  -21.0822   -9.2753 O   0  0  0  0  0  0  0  0  0  0  0  0
  1  2  1  0
  1  5  1  0
  2  3  1  0
  3  4  1  0
  5  4  1  0
  6  7  2  0
  5  6  1  1
  8  6  1  0
  9  8  1  0
  9 10  1  1
 10 11  1  0
 11 12  2  0
 11 19  1  0
 12 13  1  0
 13 14  1  0
 14 15  2  0
 15 16  1  0
 17 16  2  0
 18 17  1  0
 19 18  2  0
 19 14  1  0
 20  9  1  0
 21 20  2  0
 22 20  1  0
 23 22  1  0
 24 25  1  0
 23 24  1  1
 25 29  1  0
 26 25  2  0
 27 28  1  0
 27 23  1  0
 30 27  2  0
M  END
$$$$
