PWD.pdb
     RDKit          3D

 30 32  0  0  1  0  0  0  0  0999 V2000
   27.6324  -18.6487  -14.8809 N   0  0  0  0  0  0  0  0  0  0  0  0
   28.8057  -18.0633  -15.4559 C   0  0  0  0  0  0  0  0  0  0  0  0
   29.8489  -19.1321  -15.5871 C   0  0  0  0  0  0  0  0  0  0  0  0
   29.2562  -20.2580  -14.7362 C   0  0  0  0  0  0  0  0  0  0  0  0
   27.7693  -20.0652  -15.0565 C   0  0  1  0  0  0  0  0  0  0  0  0
   26.9244  -20.8427  -14.1160 C   0  0  0  0  0  0  0  0  0  0  0  0
   26.9056  -22.0979  -14.1541 O   0  0  0  0  0  0  0  0  0  0  0  0
   26.1234  -20.1928  -13.1584 N   0  0  0  0  0  0  0  0  0  0  0  0
   25.2554  -20.8274  -12.2271 C   0  0  1  0  0  0  0  0  0  0  0  0
   25.4885  -20.3224  -10.8416 C   0  0  0  0  0  0  0  0  0  0  0  0
   26.7924  -20.6675  -10.2572 C   0  0  0  0  0  0  0  0  0  0  0  0
   27.8685  -21.2420  -10.9127 C   0  0  0  0  0  0  0  0  0  0  0  0
   28.8870  -21.3767  -10.0654 N   0  0  0  0  0  0  0  0  0  0  0  0
   28.4952  -20.9014   -8.8687 C   0  0  0  0  0  0  0  0  0  0  0  0
   29.1285  -20.8028   -7.6606 C   0  0  0  0  0  0  0  0  0  0  0  0
   28.5532  -20.2860   -6.5236 C   0  0  0  0  0  0  0  0  0  0  0  0
   27.2464  -19.8450   -6.6414 C   0  0  0  0  0  0  0  0  0  0  0  0
   26.5786  -19.9257   -7.8314 C   0  0  0  0  0  0  0  0  0  0  0  0
   27.1882  -20.4538   -8.9681 C   0  0  0  0  0  0  0  0  0  0  0  0
   23.8326  -20.7619  -12.5967 C   0  0  0  0  0  0  0  0  0  0  0  0
   23.3214  -19.6276  -12.8526 O   0  0  0  0  0  0  0  0  0  0  0  0
   23.0037  -21.9090  -12.6806 N   0  0  0  0  0  0  0  0  0  0  0  0
   21.5905  -21.8360  -13.0234 C   0  0  1  0  0  0  0  0  0  0  0  0
   21.0457  -23.1708  -13.4245 C   0  0  0  0  0  0  0  0  0  0  0  0
   19.6371  -23.0458  -13.8033 C   0  0  0  0  0  0  0  0  0  0  0  0
   19.2714  -22.3995  -14.8283 O   0  0  0  0  0  0  0  0  0  0  0  0
   20.8122  -21.1430  -11.9853 C   0  0  0  0  0  0  0  0  0  0  0  0
   21.1962  -20.9777  -10.6861 O   0  0  0  0  0  0  0  0  0  0  0  0
   18.6602  -23.6596  -13.0089 O   0  0  0  0  0  0  0  0  0  0  0  0
   19.6818  -20.6555  -12.3276 O   0  0  0  0  0  0  0  0  0  0  0  0
  1  2  1  0
  1  5  1  0
  2  3  1  0
  3  4  1  0
  5  4  1  0
  6  7  2  0
  5  6  1  1
  8  6  1  0
  9  8  1  0
  9 10  1  1
 10 11  1  0
 11 12  2  0
 11 19  1  0
 12 13  1  0
 13 14  1  0
 14 15  2  0
 15 16  1  0
 17 16  2  0
 18 17  1  0
 19 18  2  0
 19 14  1  0
 20  9  1  0
 21 20  2  0
 22 20  1  0
 23 22  1  0
 24 25  1  0
 23 24  1  1
 25 29  1  0
 26 25  2  0
 27 28  1  0
 27 23  1  0
 30 27  2  0
M  END
$$$$
