PWD.pdb
     RDKit          3D

 30 32  0  0  1  0  0  0  0  0999 V2000
   28.3999  -19.4521  -14.4470 N   0  0  0  0  0  0  0  0  0  0  0  0
   29.4340  -19.3175  -15.4282 C   0  0  0  0  0  0  0  0  0  0  0  0
   29.8968  -20.6899  -15.8154 C   0  0  0  0  0  0  0  0  0  0  0  0
   29.2595  -21.5569  -14.7267 C   0  0  0  0  0  0  0  0  0  0  0  0
   27.9359  -20.8053  -14.5432 C   0  0  1  0  0  0  0  0  0  0  0  0
   27.2396  -21.2603  -13.3140 C   0  0  0  0  0  0  0  0  0  0  0  0
   26.3926  -22.1865  -13.3588 O   0  0  0  0  0  0  0  0  0  0  0  0
   27.5112  -20.6653  -12.0677 N   0  0  0  0  0  0  0  0  0  0  0  0
   26.8188  -20.9214  -10.8518 C   0  0  1  0  0  0  0  0  0  0  0  0
   27.6797  -20.6269   -9.6683 C   0  0  0  0  0  0  0  0  0  0  0  0
   26.9869  -20.6220   -8.3718 C   0  0  0  0  0  0  0  0  0  0  0  0
   25.6649  -20.9613   -8.1373 C   0  0  0  0  0  0  0  0  0  0  0  0
   25.4042  -20.8665   -6.8348 N   0  0  0  0  0  0  0  0  0  0  0  0
   26.5315  -20.4708   -6.2149 C   0  0  0  0  0  0  0  0  0  0  0  0
   26.8243  -20.2131   -4.9042 C   0  0  0  0  0  0  0  0  0  0  0  0
   28.0557  -19.8016   -4.4513 C   0  0  0  0  0  0  0  0  0  0  0  0
   29.0431  -19.6471   -5.4090 C   0  0  0  0  0  0  0  0  0  0  0  0
   28.7909  -19.8949   -6.7294 C   0  0  0  0  0  0  0  0  0  0  0  0
   27.5323  -20.3121   -7.1591 C   0  0  0  0  0  0  0  0  0  0  0  0
   25.5137  -20.2487  -10.7549 C   0  0  0  0  0  0  0  0  0  0  0  0
   25.4848  -18.9797  -10.7049 O   0  0  0  0  0  0  0  0  0  0  0  0
   24.2839  -20.9528  -10.7145 N   0  0  0  0  0  0  0  0  0  0  0  0
   23.0457  -20.4067  -11.2518 C   0  0  1  0  0  0  0  0  0  0  0  0
   22.7650  -20.9161  -12.6306 C   0  0  0  0  0  0  0  0  0  0  0  0
   21.4822  -20.3962  -13.1073 C   0  0  0  0  0  0  0  0  0  0  0  0
   20.4448  -21.1188  -13.1683 O   0  0  0  0  0  0  0  0  0  0  0  0
   21.9291  -20.5521  -10.3053 C   0  0  0  0  0  0  0  0  0  0  0  0
   21.9752  -21.2374   -9.1260 O   0  0  0  0  0  0  0  0  0  0  0  0
   21.3961  -19.0572  -13.5095 O   0  0  0  0  0  0  0  0  0  0  0  0
   20.8231  -19.9908  -10.6129 O   0  0  0  0  0  0  0  0  0  0  0  0
  1  2  1  0
  1  5  1  0
  2  3  1  0
  3  4  1  0
  5  4  1  0
  6  7  2  0
  5  6  1  1
  8  6  1  0
  9  8  1  0
  9 10  1  1
 10 11  1  0
 11 12  2  0
 11 19  1  0
 12 13  1  0
 13 14  1  0
 14 15  2  0
 15 16  1  0
 17 16  2  0
 18 17  1  0
 19 18  2  0
 19 14  1  0
 20  9  1  0
 21 20  2  0
 22 20  1  0
 23 22  1  0
 24 25  1  0
 23 24  1  6
 25 29  1  0
 26 25  2  0
 27 28  1  0
 27 23  1  0
 30 27  2  0
M  END
$$$$
