PWD.pdb
     RDKit          3D

 30 32  0  0  1  0  0  0  0  0999 V2000
   14.7247  -19.4572    3.5020 N   0  0  0  0  0  0  0  0  0  0  0  0
   14.1113  -19.9188    2.2934 C   0  0  0  0  0  0  0  0  0  0  0  0
   15.1782  -20.5047    1.4182 C   0  0  0  0  0  0  0  0  0  0  0  0
   16.4551  -20.0240    2.1122 C   0  0  0  0  0  0  0  0  0  0  0  0
   15.9996  -20.1092    3.5736 C   0  0  1  0  0  0  0  0  0  0  0  0
   16.9546  -19.4026    4.4634 C   0  0  0  0  0  0  0  0  0  0  0  0
   18.1533  -19.7691    4.5424 O   0  0  0  0  0  0  0  0  0  0  0  0
   16.5407  -18.3045    5.2404 N   0  0  0  0  0  0  0  0  0  0  0  0
   17.3651  -17.5418    6.1135 C   0  0  1  0  0  0  0  0  0  0  0  0
   17.0363  -16.0878    6.0329 C   0  0  0  0  0  0  0  0  0  0  0  0
   17.4521  -15.4164    4.7930 C   0  0  0  0  0  0  0  0  0  0  0  0
   17.0898  -15.7619    3.5019 C   0  0  0  0  0  0  0  0  0  0  0  0
   17.6355  -14.9049    2.6409 N   0  0  0  0  0  0  0  0  0  0  0  0
   18.3478  -14.0068    3.3463 C   0  0  0  0  0  0  0  0  0  0  0  0
   19.1040  -12.9295    2.9753 C   0  0  0  0  0  0  0  0  0  0  0  0
   19.7795  -12.1166    3.8550 C   0  0  0  0  0  0  0  0  0  0  0  0
   19.6674  -12.4354    5.1972 C   0  0  0  0  0  0  0  0  0  0  0  0
   18.9209  -13.5040    5.6090 C   0  0  0  0  0  0  0  0  0  0  0  0
   18.2459  -14.3100    4.6939 C   0  0  0  0  0  0  0  0  0  0  0  0
   17.3665  -18.0219    7.5044 C   0  0  0  0  0  0  0  0  0  0  0  0
   16.2721  -18.4182    8.0131 O   0  0  0  0  0  0  0  0  0  0  0  0
   18.5355  -18.0628    8.3053 N   0  0  0  0  0  0  0  0  0  0  0  0
   18.5383  -18.5722    9.6693 C   0  0  1  0  0  0  0  0  0  0  0  0
   19.8251  -19.2587   10.0042 C   0  0  0  0  0  0  0  0  0  0  0  0
   19.7670  -19.8013   11.3627 C   0  0  0  0  0  0  0  0  0  0  0  0
   18.9426  -20.7038   11.6914 O   0  0  0  0  0  0  0  0  0  0  0  0
   18.1216  -17.5451   10.6363 C   0  0  0  0  0  0  0  0  0  0  0  0
   17.6474  -17.7870   11.8929 O   0  0  0  0  0  0  0  0  0  0  0  0
   20.6499  -19.3087   12.3322 O   0  0  0  0  0  0  0  0  0  0  0  0
   18.2101  -16.3243   10.2694 O   0  0  0  0  0  0  0  0  0  0  0  0
  1  2  1  0
  1  5  1  0
  2  3  1  0
  3  4  1  0
  5  4  1  0
  6  7  2  0
  5  6  1  1
  8  6  1  0
  9  8  1  0
  9 10  1  1
 10 11  1  0
 11 12  2  0
 11 19  1  0
 12 13  1  0
 13 14  1  0
 14 15  2  0
 15 16  1  0
 17 16  2  0
 18 17  1  0
 19 18  2  0
 19 14  1  0
 20  9  1  0
 21 20  2  0
 22 20  1  0
 23 22  1  0
 24 25  1  0
 23 24  1  1
 25 29  1  0
 26 25  2  0
 27 28  1  0
 27 23  1  0
 30 27  2  0
M  END
$$$$
