PWD.pdb
     RDKit          3D

 30 32  0  0  1  0  0  0  0  0999 V2000
   24.7635   -9.9325  -20.6593 N   0  0  0  0  0  0  0  0  0  0  0  0
   24.9923  -10.7934  -21.7803 C   0  0  0  0  0  0  0  0  0  0  0  0
   24.2152  -12.0579  -21.5689 C   0  0  0  0  0  0  0  0  0  0  0  0
   23.8154  -11.9402  -20.0960 C   0  0  0  0  0  0  0  0  0  0  0  0
   23.5824  -10.4271  -20.0143 C   0  0  1  0  0  0  0  0  0  0  0  0
   23.4758   -9.9878  -18.6005 C   0  0  0  0  0  0  0  0  0  0  0  0
   22.5394  -10.3938  -17.8687 O   0  0  0  0  0  0  0  0  0  0  0  0
   24.4214   -9.1055  -18.0451 N   0  0  0  0  0  0  0  0  0  0  0  0
   24.4550   -8.6603  -16.6945 C   0  0  1  0  0  0  0  0  0  0  0  0
   25.8355   -8.7454  -16.1326 C   0  0  0  0  0  0  0  0  0  0  0  0
   26.4059  -10.0986  -16.0668 C   0  0  0  0  0  0  0  0  0  0  0  0
   27.6329  -10.5058  -16.5632 C   0  0  0  0  0  0  0  0  0  0  0  0
   27.8194  -11.7956  -16.2891 N   0  0  0  0  0  0  0  0  0  0  0  0
   26.7363  -12.2380  -15.6236 C   0  0  0  0  0  0  0  0  0  0  0  0
   26.3996  -13.4619  -15.1151 C   0  0  0  0  0  0  0  0  0  0  0  0
   25.2210  -13.7318  -14.4601 C   0  0  0  0  0  0  0  0  0  0  0  0
   24.3379  -12.6749  -14.3223 C   0  0  0  0  0  0  0  0  0  0  0  0
   24.6372  -11.4359  -14.8163 C   0  0  0  0  0  0  0  0  0  0  0  0
   25.8409  -11.1917  -15.4752 C   0  0  0  0  0  0  0  0  0  0  0  0
   23.8669   -7.3271  -16.4905 C   0  0  0  0  0  0  0  0  0  0  0  0
   24.0658   -6.4325  -17.3701 O   0  0  0  0  0  0  0  0  0  0  0  0
   23.0866   -6.9936  -15.3548 N   0  0  0  0  0  0  0  0  0  0  0  0
   22.4303   -5.7029  -15.2017 C   0  0  1  0  0  0  0  0  0  0  0  0
   21.4488   -5.4438  -16.3012 C   0  0  0  0  0  0  0  0  0  0  0  0
   20.8232   -4.1329  -16.1184 C   0  0  0  0  0  0  0  0  0  0  0  0
   21.5056   -3.0774  -15.9689 O   0  0  0  0  0  0  0  0  0  0  0  0
   21.8925   -5.5217  -13.8446 C   0  0  0  0  0  0  0  0  0  0  0  0
   21.6796   -4.3213  -13.2313 O   0  0  0  0  0  0  0  0  0  0  0  0
   19.4257   -4.0397  -16.1082 O   0  0  0  0  0  0  0  0  0  0  0  0
   21.6010   -6.5759  -13.1840 O   0  0  0  0  0  0  0  0  0  0  0  0
  1  2  1  0
  1  5  1  0
  2  3  1  0
  3  4  1  0
  5  4  1  0
  6  7  2  0
  5  6  1  1
  8  6  1  0
  9  8  1  0
  9 10  1  6
 10 11  1  0
 11 12  2  0
 11 19  1  0
 12 13  1  0
 13 14  1  0
 14 15  2  0
 15 16  1  0
 17 16  2  0
 18 17  1  0
 19 18  2  0
 19 14  1  0
 20  9  1  0
 21 20  2  0
 22 20  1  0
 23 22  1  0
 24 25  1  0
 23 24  1  6
 25 29  1  0
 26 25  2  0
 27 28  1  0
 27 23  1  0
 30 27  2  0
M  END
$$$$
