QAW.pdb
     RDKit          3D

 29 30  0  0  1  0  0  0  0  0999 V2000
   28.2659  -23.2777  -15.6945 N   0  0  0  0  0  0  0  0  0  0  0  0
   28.8723  -22.4524  -16.6547 C   0  0  0  0  0  0  0  0  0  0  0  0
   30.1259  -22.4499  -16.7559 O   0  0  0  0  0  0  0  0  0  0  0  0
   28.1019  -21.5826  -17.5659 C   0  0  0  0  0  0  0  0  0  0  0  0
   26.6228  -21.5922  -17.3338 C   0  0  0  0  0  0  0  0  0  0  0  0
   25.9650  -20.2647  -17.3406 C   0  0  2  0  0  0  0  0  0  0  0  0
   26.8827  -19.2855  -17.9853 N   0  0  0  0  0  0  0  0  0  0  0  0
   25.5239  -19.7090  -16.0681 C   0  0  0  0  0  0  0  0  0  0  0  0
   26.3528  -19.2581  -15.2033 O   0  0  0  0  0  0  0  0  0  0  0  0
   22.4255  -18.3113  -14.7365 C   0  0  0  0  0  0  0  0  0  0  0  0
   23.7326  -19.0206  -14.4826 C   0  0  2  0  0  0  0  0  0  0  0  0
   24.1482  -19.6403  -15.7249 N   0  0  0  0  0  0  0  0  0  0  0  0
   23.6215  -20.0560  -13.4396 C   0  0  0  0  0  0  0  0  0  0  0  0
   23.4173  -21.2537  -13.7594 O   0  0  0  0  0  0  0  0  0  0  0  0
   23.7334  -19.7833  -12.0511 N   0  0  0  0  0  0  0  0  0  0  0  0
   23.5127  -20.8200  -11.0643 C   0  0  1  0  0  0  0  0  0  0  0  0
   24.1508  -20.2886   -9.7722 C   0  0  0  0  0  0  0  0  0  0  0  0
   25.5939  -20.6356   -9.8409 C   0  0  0  0  0  0  0  0  0  0  0  0
   26.2411  -21.4092  -10.7986 C   0  0  0  0  0  0  0  0  0  0  0  0
   27.5415  -21.4722  -10.4801 N   0  0  0  0  0  0  0  0  0  0  0  0
   27.8123  -20.7790   -9.3516 C   0  0  0  0  0  0  0  0  0  0  0  0
   28.9747  -20.5479   -8.6356 C   0  0  0  0  0  0  0  0  0  0  0  0
   28.9412  -19.7802   -7.4930 C   0  0  0  0  0  0  0  0  0  0  0  0
   27.7293  -19.2589   -7.0941 C   0  0  0  0  0  0  0  0  0  0  0  0
   26.5707  -19.4909   -7.8102 C   0  0  0  0  0  0  0  0  0  0  0  0
   26.5930  -20.2598   -8.9583 C   0  0  0  0  0  0  0  0  0  0  0  0
   22.0799  -21.0896  -10.8489 C   0  0  0  0  0  0  0  0  0  0  0  0
   21.6936  -22.2135  -10.1368 O   0  0  0  0  0  0  0  0  0  0  0  0
   21.1906  -20.3254  -11.2945 O   0  0  0  0  0  0  0  0  0  0  0  0
  2  3  2  0
  2  1  1  0
  4  2  1  0
  5  6  1  0
  5  4  1  0
  6  7  1  1
  8 12  1  0
  8  6  1  0
  9  8  2  0
 11 10  1  6
 11 13  1  0
 11 12  1  0
 13 14  2  0
 15 16  1  0
 15 13  1  0
 16 17  1  1
 18 17  1  0
 19 18  2  0
 20 19  1  0
 21 20  1  0
 21 26  2  0
 22 23  2  0
 22 21  1  0
 23 24  1  0
 24 25  2  0
 26 25  1  0
 26 18  1  0
 27 16  1  0
 27 28  1  0
 29 27  2  0
M  END
$$$$
