QAW.pdb
     RDKit          3D

 29 30  0  0  1  0  0  0  0  0999 V2000
   35.6799  -30.4716  -15.9469 N   0  0  0  0  0  0  0  0  0  0  0  0
   35.5174  -29.5835  -17.0219 C   0  0  0  0  0  0  0  0  0  0  0  0
   36.4832  -29.3843  -17.8026 O   0  0  0  0  0  0  0  0  0  0  0  0
   34.2528  -28.8693  -17.2878 C   0  0  0  0  0  0  0  0  0  0  0  0
   33.6674  -29.1224  -18.6423 C   0  0  0  0  0  0  0  0  0  0  0  0
   33.1630  -30.4960  -18.8753 C   0  0  2  0  0  0  0  0  0  0  0  0
   34.1631  -31.2343  -19.6947 N   0  0  0  0  0  0  0  0  0  0  0  0
   31.8556  -30.6522  -19.4990 C   0  0  0  0  0  0  0  0  0  0  0  0
   31.6945  -30.5567  -20.7652 O   0  0  0  0  0  0  0  0  0  0  0  0
   28.4603  -31.6798  -18.3463 C   0  0  0  0  0  0  0  0  0  0  0  0
   29.4182  -31.1434  -19.3810 C   0  0  2  0  0  0  0  0  0  0  0  0
   30.6930  -30.9191  -18.7295 N   0  0  0  0  0  0  0  0  0  0  0  0
   28.9535  -29.8802  -19.9816 C   0  0  0  0  0  0  0  0  0  0  0  0
   29.0371  -28.8064  -19.3348 O   0  0  0  0  0  0  0  0  0  0  0  0
   28.3992  -29.7908  -21.2853 N   0  0  0  0  0  0  0  0  0  0  0  0
   27.8971  -28.5341  -21.8007 C   0  0  1  0  0  0  0  0  0  0  0  0
   27.8931  -28.6979  -23.3279 C   0  0  0  0  0  0  0  0  0  0  0  0
   27.6364  -27.3491  -23.8960 C   0  0  0  0  0  0  0  0  0  0  0  0
   28.3369  -26.1727  -23.6517 C   0  0  0  0  0  0  0  0  0  0  0  0
   27.7702  -25.1896  -24.3653 N   0  0  0  0  0  0  0  0  0  0  0  0
   26.7174  -25.6390  -25.0842 C   0  0  0  0  0  0  0  0  0  0  0  0
   25.8313  -25.0262  -25.9542 C   0  0  0  0  0  0  0  0  0  0  0  0
   24.8332  -25.7606  -26.5544 C   0  0  0  0  0  0  0  0  0  0  0  0
   24.7489  -27.1051  -26.2631 C   0  0  0  0  0  0  0  0  0  0  0  0
   25.6342  -27.7142  -25.3946 C   0  0  0  0  0  0  0  0  0  0  0  0
   26.6396  -26.9867  -24.7868 C   0  0  0  0  0  0  0  0  0  0  0  0
   26.5362  -28.2370  -21.3189 C   0  0  0  0  0  0  0  0  0  0  0  0
   26.1709  -26.9253  -21.0634 O   0  0  0  0  0  0  0  0  0  0  0  0
   25.6903  -29.1439  -21.1313 O   0  0  0  0  0  0  0  0  0  0  0  0
  2  3  2  0
  2  1  1  0
  4  2  1  0
  5  6  1  0
  5  4  1  0
  6  7  1  6
  8 12  1  0
  8  6  1  0
  9  8  2  0
 11 10  1  1
 11 13  1  0
 11 12  1  0
 13 14  2  0
 15 16  1  0
 15 13  1  0
 16 17  1  6
 18 17  1  0
 19 18  2  0
 20 19  1  0
 21 20  1  0
 21 26  2  0
 22 23  2  0
 22 21  1  0
 23 24  1  0
 24 25  2  0
 26 25  1  0
 26 18  1  0
 27 16  1  0
 27 28  1  0
 29 27  2  0
M  END
$$$$
