QAW.pdb
     RDKit          3D

 29 30  0  0  1  0  0  0  0  0999 V2000
   31.2006  -24.2449  -15.3735 N   0  0  0  0  0  0  0  0  0  0  0  0
   31.0154  -23.7459  -16.6726 C   0  0  0  0  0  0  0  0  0  0  0  0
   31.4462  -24.4094  -17.6503 O   0  0  0  0  0  0  0  0  0  0  0  0
   30.3265  -22.4699  -16.9507 C   0  0  0  0  0  0  0  0  0  0  0  0
   29.8333  -21.7502  -15.7340 C   0  0  0  0  0  0  0  0  0  0  0  0
   28.4149  -21.9900  -15.3792 C   0  0  2  0  0  0  0  0  0  0  0  0
   27.5743  -21.7096  -16.5756 N   0  0  0  0  0  0  0  0  0  0  0  0
   27.8566  -21.2627  -14.2470 C   0  0  0  0  0  0  0  0  0  0  0  0
   28.5116  -21.0973  -13.1599 O   0  0  0  0  0  0  0  0  0  0  0  0
   24.6451  -19.4896  -13.5204 C   0  0  0  0  0  0  0  0  0  0  0  0
   26.0195  -19.9900  -13.1508 C   0  0  2  0  0  0  0  0  0  0  0  0
   26.5542  -20.7002  -14.2953 N   0  0  0  0  0  0  0  0  0  0  0  0
   25.9987  -20.8945  -11.9873 C   0  0  0  0  0  0  0  0  0  0  0  0
   25.8679  -22.1329  -12.1538 O   0  0  0  0  0  0  0  0  0  0  0  0
   26.1204  -20.4469  -10.6458 N   0  0  0  0  0  0  0  0  0  0  0  0
   25.9903  -21.3667   -9.5349 C   0  0  1  0  0  0  0  0  0  0  0  0
   27.3443  -21.3188   -8.8115 C   0  0  0  0  0  0  0  0  0  0  0  0
   27.2995  -20.1382   -7.9105 C   0  0  0  0  0  0  0  0  0  0  0  0
   26.5869  -18.9568   -8.0865 C   0  0  0  0  0  0  0  0  0  0  0  0
   26.8319  -18.1575   -7.0388 N   0  0  0  0  0  0  0  0  0  0  0  0
   27.6769  -18.7368   -6.1570 C   0  0  0  0  0  0  0  0  0  0  0  0
   28.2182  -18.3256   -4.9506 C   0  0  0  0  0  0  0  0  0  0  0  0
   29.0719  -19.1548   -4.2581 C   0  0  0  0  0  0  0  0  0  0  0  0
   29.3637  -20.3881   -4.7998 C   0  0  0  0  0  0  0  0  0  0  0  0
   28.8225  -20.7961   -6.0037 C   0  0  0  0  0  0  0  0  0  0  0  0
   27.9645  -19.9720   -6.7070 C   0  0  0  0  0  0  0  0  0  0  0  0
   24.9083  -20.9784   -8.6125 C   0  0  0  0  0  0  0  0  0  0  0  0
   24.2560  -19.7694   -8.7918 O   0  0  0  0  0  0  0  0  0  0  0  0
   24.5564  -21.7160   -7.6610 O   0  0  0  0  0  0  0  0  0  0  0  0
  2  3  2  0
  2  1  1  0
  4  2  1  0
  5  6  1  0
  5  4  1  0
  6  7  1  6
  8 12  1  0
  8  6  1  0
  9  8  2  0
 11 10  1  6
 11 13  1  0
 11 12  1  0
 13 14  2  0
 15 16  1  0
 15 13  1  0
 16 17  1  1
 18 17  1  0
 19 18  2  0
 20 19  1  0
 21 20  1  0
 21 26  2  0
 22 23  2  0
 22 21  1  0
 23 24  1  0
 24 25  2  0
 26 25  1  0
 26 18  1  0
 27 16  1  0
 27 28  1  0
 29 27  2  0
M  END
$$$$
