QAW.pdb
     RDKit          3D

 29 30  0  0  1  0  0  0  0  0999 V2000
   24.4277  -24.9967  -16.8364 N   0  0  0  0  0  0  0  0  0  0  0  0
   24.3556  -24.0746  -17.8926 C   0  0  0  0  0  0  0  0  0  0  0  0
   23.8630  -24.4391  -18.9909 O   0  0  0  0  0  0  0  0  0  0  0  0
   24.8290  -22.6810  -17.7740 C   0  0  0  0  0  0  0  0  0  0  0  0
   25.2562  -22.2835  -16.3952 C   0  0  0  0  0  0  0  0  0  0  0  0
   26.5870  -21.6395  -16.2979 C   0  0  2  0  0  0  0  0  0  0  0  0
   27.5229  -22.3473  -17.2142 N   0  0  0  0  0  0  0  0  0  0  0  0
   27.2130  -21.5487  -14.9854 C   0  0  0  0  0  0  0  0  0  0  0  0
   27.5131  -22.5909  -14.3056 O   0  0  0  0  0  0  0  0  0  0  0  0
   28.5904  -18.8509  -12.8196 C   0  0  0  0  0  0  0  0  0  0  0  0
   28.0093  -20.2268  -13.0323 C   0  0  2  0  0  0  0  0  0  0  0  0
   27.5217  -20.2951  -14.3952 N   0  0  0  0  0  0  0  0  0  0  0  0
   26.9008  -20.5223  -12.1070 C   0  0  0  0  0  0  0  0  0  0  0  0
   25.7142  -20.2955  -12.4519 O   0  0  0  0  0  0  0  0  0  0  0  0
   27.0885  -21.0642  -10.8086 N   0  0  0  0  0  0  0  0  0  0  0  0
   25.9811  -21.1951   -9.8847 C   0  0  1  0  0  0  0  0  0  0  0  0
   26.6085  -21.6830   -8.5704 C   0  0  0  0  0  0  0  0  0  0  0  0
   27.1490  -20.4785   -7.8885 C   0  0  0  0  0  0  0  0  0  0  0  0
   26.8880  -19.1438   -8.1795 C   0  0  0  0  0  0  0  0  0  0  0  0
   27.5834  -18.3826   -7.3230 N   0  0  0  0  0  0  0  0  0  0  0  0
   28.3058  -19.1338   -6.4622 C   0  0  0  0  0  0  0  0  0  0  0  0
   29.1618  -18.8232   -5.4190 C   0  0  0  0  0  0  0  0  0  0  0  0
   29.7694  -19.8287   -4.7010 C   0  0  0  0  0  0  0  0  0  0  0  0
   29.4996  -21.1340   -5.0521 C   0  0  0  0  0  0  0  0  0  0  0  0
   28.6452  -21.4415   -6.0935 C   0  0  0  0  0  0  0  0  0  0  0  0
   28.0301  -20.4401   -6.8206 C   0  0  0  0  0  0  0  0  0  0  0  0
   25.2804  -19.9166   -9.6684 C   0  0  0  0  0  0  0  0  0  0  0  0
   23.9802  -19.9202   -9.1900 O   0  0  0  0  0  0  0  0  0  0  0  0
   25.8303  -18.8146   -9.9064 O   0  0  0  0  0  0  0  0  0  0  0  0
  2  3  2  0
  2  1  1  0
  4  2  1  0
  5  6  1  0
  5  4  1  0
  6  7  1  6
  8 12  1  0
  8  6  1  0
  9  8  2  0
 11 10  1  1
 11 13  1  0
 11 12  1  0
 13 14  2  0
 15 16  1  0
 15 13  1  0
 16 17  1  1
 18 17  1  0
 19 18  2  0
 20 19  1  0
 21 20  1  0
 21 26  2  0
 22 23  2  0
 22 21  1  0
 23 24  1  0
 24 25  2  0
 26 25  1  0
 26 18  1  0
 27 16  1  0
 27 28  1  0
 29 27  2  0
M  END
$$$$
