QAW.pdb
     RDKit          3D

 29 30  0  0  1  0  0  0  0  0999 V2000
   31.0322  -21.6576  -18.4663 N   0  0  0  0  0  0  0  0  0  0  0  0
   29.7570  -22.1048  -18.8466 C   0  0  0  0  0  0  0  0  0  0  0  0
   29.6480  -22.8762  -19.8339 O   0  0  0  0  0  0  0  0  0  0  0  0
   28.5247  -21.7149  -18.1327 C   0  0  0  0  0  0  0  0  0  0  0  0
   28.7313  -20.7251  -17.0285 C   0  0  0  0  0  0  0  0  0  0  0  0
   28.5618  -21.2537  -15.6547 C   0  0  2  0  0  0  0  0  0  0  0  0
   27.9934  -22.6270  -15.7433 N   0  0  0  0  0  0  0  0  0  0  0  0
   27.7554  -20.4845  -14.7163 C   0  0  0  0  0  0  0  0  0  0  0  0
   27.9555  -19.2359  -14.5178 O   0  0  0  0  0  0  0  0  0  0  0  0
   24.4997  -20.2184  -13.6633 C   0  0  0  0  0  0  0  0  0  0  0  0
   25.8896  -20.2870  -13.0805 C   0  0  2  0  0  0  0  0  0  0  0  0
   26.7049  -21.0850  -13.9740 N   0  0  0  0  0  0  0  0  0  0  0  0
   25.9107  -20.8923  -11.7369 C   0  0  0  0  0  0  0  0  0  0  0  0
   25.8312  -22.1392  -11.6057 O   0  0  0  0  0  0  0  0  0  0  0  0
   26.0185  -20.1370  -10.5399 N   0  0  0  0  0  0  0  0  0  0  0  0
   25.6567  -20.7079   -9.2592 C   0  0  1  0  0  0  0  0  0  0  0  0
   26.1242  -19.6833   -8.2148 C   0  0  0  0  0  0  0  0  0  0  0  0
   27.4877  -20.0998   -7.7964 C   0  0  0  0  0  0  0  0  0  0  0  0
   28.3748  -20.9257   -8.4785 C   0  0  0  0  0  0  0  0  0  0  0  0
   29.4902  -21.0426   -7.7444 N   0  0  0  0  0  0  0  0  0  0  0  0
   29.4064  -20.3363   -6.5950 C   0  0  0  0  0  0  0  0  0  0  0  0
   30.2752  -20.1434   -5.5340 C   0  0  0  0  0  0  0  0  0  0  0  0
   29.9042  -19.3480   -4.4731 C   0  0  0  0  0  0  0  0  0  0  0  0
   28.6578  -18.7605   -4.5044 C   0  0  0  0  0  0  0  0  0  0  0  0
   27.7927  -18.9545   -5.5640 C   0  0  0  0  0  0  0  0  0  0  0  0
   28.1548  -19.7507   -6.6339 C   0  0  0  0  0  0  0  0  0  0  0  0
   24.2048  -20.9301   -9.1373 C   0  0  0  0  0  0  0  0  0  0  0  0
   23.7288  -21.8732   -8.2409 O   0  0  0  0  0  0  0  0  0  0  0  0
   23.3787  -20.2855   -9.8268 O   0  0  0  0  0  0  0  0  0  0  0  0
  2  3  2  0
  2  1  1  0
  4  2  1  0
  5  6  1  0
  5  4  1  0
  6  7  1  6
  8 12  1  0
  8  6  1  0
  9  8  2  0
 11 10  1  6
 11 13  1  0
 11 12  1  0
 13 14  2  0
 15 16  1  0
 15 13  1  0
 16 17  1  1
 18 17  1  0
 19 18  2  0
 20 19  1  0
 21 20  1  0
 21 26  2  0
 22 23  2  0
 22 21  1  0
 23 24  1  0
 24 25  2  0
 26 25  1  0
 26 18  1  0
 27 16  1  0
 27 28  1  0
 29 27  2  0
M  END
$$$$
