QAW.pdb
     RDKit          3D

 29 30  0  0  1  0  0  0  0  0999 V2000
   23.7494  -16.5417  -13.8607 N   0  0  0  0  0  0  0  0  0  0  0  0
   23.6265  -16.5341  -15.2592 C   0  0  0  0  0  0  0  0  0  0  0  0
   22.4841  -16.4200  -15.7726 O   0  0  0  0  0  0  0  0  0  0  0  0
   24.7857  -16.6483  -16.1665 C   0  0  0  0  0  0  0  0  0  0  0  0
   26.1102  -16.7476  -15.4756 C   0  0  0  0  0  0  0  0  0  0  0  0
   26.9327  -17.9266  -15.8342 C   0  0  2  0  0  0  0  0  0  0  0  0
   26.6052  -18.3244  -17.2311 N   0  0  0  0  0  0  0  0  0  0  0  0
   26.8444  -19.1099  -14.9890 C   0  0  0  0  0  0  0  0  0  0  0  0
   26.0137  -20.0533  -15.2307 O   0  0  0  0  0  0  0  0  0  0  0  0
   29.0653  -20.8441  -12.7015 C   0  0  0  0  0  0  0  0  0  0  0  0
   27.6474  -20.5080  -13.0924 C   0  0  2  0  0  0  0  0  0  0  0  0
   27.6788  -19.2745  -13.8524 N   0  0  0  0  0  0  0  0  0  0  0  0
   26.7645  -20.3341  -11.9252 C   0  0  0  0  0  0  0  0  0  0  0  0
   26.3787  -19.1858  -11.5919 O   0  0  0  0  0  0  0  0  0  0  0  0
   26.3043  -21.4121  -11.1245 N   0  0  0  0  0  0  0  0  0  0  0  0
   25.5087  -21.1767   -9.9376 C   0  0  1  0  0  0  0  0  0  0  0  0
   26.1527  -19.9605   -9.2556 C   0  0  0  0  0  0  0  0  0  0  0  0
   27.4195  -20.4409   -8.6454 C   0  0  0  0  0  0  0  0  0  0  0  0
   28.3798  -21.2707   -9.2142 C   0  0  0  0  0  0  0  0  0  0  0  0
   29.3600  -21.4554   -8.3188 N   0  0  0  0  0  0  0  0  0  0  0  0
   29.1144  -20.7916   -7.1671 C   0  0  0  0  0  0  0  0  0  0  0  0
   29.8079  -20.6708   -5.9747 C   0  0  0  0  0  0  0  0  0  0  0  0
   29.2955  -19.9045   -4.9520 C   0  0  0  0  0  0  0  0  0  0  0  0
   28.0875  -19.2724   -5.1542 C   0  0  0  0  0  0  0  0  0  0  0  0
   27.3973  -19.3944   -6.3448 C   0  0  0  0  0  0  0  0  0  0  0  0
   27.9024  -20.1609   -7.3778 C   0  0  0  0  0  0  0  0  0  0  0  0
   24.0989  -20.8909  -10.2584 C   0  0  0  0  0  0  0  0  0  0  0  0
   23.1763  -20.7579   -9.2334 O   0  0  0  0  0  0  0  0  0  0  0  0
   23.7046  -20.7630  -11.4422 O   0  0  0  0  0  0  0  0  0  0  0  0
  2  3  2  0
  2  1  1  0
  4  2  1  0
  5  6  1  0
  5  4  1  0
  6  7  1  6
  8 12  1  0
  8  6  1  0
  9  8  2  0
 11 10  1  1
 11 13  1  0
 11 12  1  0
 13 14  2  0
 15 16  1  0
 15 13  1  0
 16 17  1  6
 18 17  1  0
 19 18  2  0
 20 19  1  0
 21 20  1  0
 21 26  2  0
 22 23  2  0
 22 21  1  0
 23 24  1  0
 24 25  2  0
 26 25  1  0
 26 18  1  0
 27 16  1  0
 27 28  1  0
 29 27  2  0
M  END
$$$$
