QAW.pdb
     RDKit          3D

 29 30  0  0  1  0  0  0  0  0999 V2000
   27.8229  -17.2614  -17.4598 N   0  0  0  0  0  0  0  0  0  0  0  0
   26.7562  -17.5994  -18.3075 C   0  0  0  0  0  0  0  0  0  0  0  0
   26.9801  -17.7759  -19.5325 O   0  0  0  0  0  0  0  0  0  0  0  0
   25.3706  -17.7660  -17.8254 C   0  0  0  0  0  0  0  0  0  0  0  0
   25.1940  -17.5573  -16.3534 C   0  0  0  0  0  0  0  0  0  0  0  0
   25.6279  -18.6810  -15.4907 C   0  0  2  0  0  0  0  0  0  0  0  0
   25.4694  -19.9504  -16.2524 N   0  0  0  0  0  0  0  0  0  0  0  0
   24.9830  -18.8418  -14.1943 C   0  0  0  0  0  0  0  0  0  0  0  0
   24.6870  -17.8383  -13.4570 O   0  0  0  0  0  0  0  0  0  0  0  0
   22.8585  -21.2181  -12.5428 C   0  0  0  0  0  0  0  0  0  0  0  0
   24.0102  -20.2554  -12.3910 C   0  0  2  0  0  0  0  0  0  0  0  0
   24.6504  -20.1242  -13.6844 N   0  0  0  0  0  0  0  0  0  0  0  0
   25.0043  -20.7132  -11.4039 C   0  0  0  0  0  0  0  0  0  0  0  0
   25.8137  -21.6268  -11.7014 O   0  0  0  0  0  0  0  0  0  0  0  0
   25.1135  -20.1741  -10.0953 N   0  0  0  0  0  0  0  0  0  0  0  0
   26.0587  -20.7134   -9.1399 C   0  0  1  0  0  0  0  0  0  0  0  0
   26.9603  -19.5314   -8.7540 C   0  0  0  0  0  0  0  0  0  0  0  0
   28.0479  -20.0889   -7.9090 C   0  0  0  0  0  0  0  0  0  0  0  0
   28.9567  -21.0890   -8.2380 C   0  0  0  0  0  0  0  0  0  0  0  0
   29.7632  -21.2874   -7.1859 N   0  0  0  0  0  0  0  0  0  0  0  0
   29.4482  -20.4708   -6.1557 C   0  0  0  0  0  0  0  0  0  0  0  0
   29.9732  -20.2991   -4.8859 C   0  0  0  0  0  0  0  0  0  0  0  0
   29.4294  -19.3638   -4.0342 C   0  0  0  0  0  0  0  0  0  0  0  0
   28.3616  -18.6171   -4.4834 C   0  0  0  0  0  0  0  0  0  0  0  0
   27.8395  -18.7902   -5.7507 C   0  0  0  0  0  0  0  0  0  0  0  0
   28.3775  -19.7260   -6.6136 C   0  0  0  0  0  0  0  0  0  0  0  0
   25.3933  -21.2561   -7.9420 C   0  0  0  0  0  0  0  0  0  0  0  0
   26.0016  -22.2704   -7.2205 O   0  0  0  0  0  0  0  0  0  0  0  0
   24.2824  -20.8237   -7.5517 O   0  0  0  0  0  0  0  0  0  0  0  0
  2  3  2  0
  2  1  1  0
  4  2  1  0
  5  6  1  0
  5  4  1  0
  6  7  1  6
  8 12  1  0
  8  6  1  0
  9  8  2  0
 11 10  1  6
 11 13  1  0
 11 12  1  0
 13 14  2  0
 15 16  1  0
 15 13  1  0
 16 17  1  1
 18 17  1  0
 19 18  2  0
 20 19  1  0
 21 20  1  0
 21 26  2  0
 22 23  2  0
 22 21  1  0
 23 24  1  0
 24 25  2  0
 26 25  1  0
 26 18  1  0
 27 16  1  0
 27 28  1  0
 29 27  2  0
M  END
$$$$
