QAW.pdb
     RDKit          3D

 29 30  0  0  1  0  0  0  0  0999 V2000
   26.8026  -17.7142  -17.6613 N   0  0  0  0  0  0  0  0  0  0  0  0
   28.1413  -17.6448  -17.2442 C   0  0  0  0  0  0  0  0  0  0  0  0
   28.9874  -17.0908  -17.9918 O   0  0  0  0  0  0  0  0  0  0  0  0
   28.6084  -18.1904  -15.9541 C   0  0  0  0  0  0  0  0  0  0  0  0
   27.5290  -18.7771  -15.0985 C   0  0  0  0  0  0  0  0  0  0  0  0
   27.6911  -20.2095  -14.7559 C   0  0  2  0  0  0  0  0  0  0  0  0
   27.9895  -20.9635  -16.0046 N   0  0  0  0  0  0  0  0  0  0  0  0
   26.5965  -20.8802  -14.0670 C   0  0  0  0  0  0  0  0  0  0  0  0
   25.6811  -21.5091  -14.7034 O   0  0  0  0  0  0  0  0  0  0  0  0
   25.7230  -21.6792  -10.5390 C   0  0  0  0  0  0  0  0  0  0  0  0
   25.3665  -21.5019  -11.9942 C   0  0  2  0  0  0  0  0  0  0  0  0
   26.4922  -20.8688  -12.6514 N   0  0  0  0  0  0  0  0  0  0  0  0
   24.1649  -20.6700  -12.1853 C   0  0  0  0  0  0  0  0  0  0  0  0
   24.1705  -19.4640  -11.8332 O   0  0  0  0  0  0  0  0  0  0  0  0
   22.9607  -21.1547  -12.7595 N   0  0  0  0  0  0  0  0  0  0  0  0
   21.7715  -20.3300  -12.8124 C   0  0  1  0  0  0  0  0  0  0  0  0
   22.1266  -19.1711  -13.7557 C   0  0  0  0  0  0  0  0  0  0  0  0
   22.4804  -19.7841  -15.0622 C   0  0  0  0  0  0  0  0  0  0  0  0
   21.9284  -20.9169  -15.6508 C   0  0  0  0  0  0  0  0  0  0  0  0
   22.5399  -21.1208  -16.8260 N   0  0  0  0  0  0  0  0  0  0  0  0
   23.4820  -20.1819  -17.0671 C   0  0  0  0  0  0  0  0  0  0  0  0
   24.3594  -19.9650  -18.1162 C   0  0  0  0  0  0  0  0  0  0  0  0
   25.2262  -18.8957  -18.0822 C   0  0  0  0  0  0  0  0  0  0  0  0
   25.1900  -18.0629  -16.9846 C   0  0  0  0  0  0  0  0  0  0  0  0
   24.3137  -18.2813  -15.9390 C   0  0  0  0  0  0  0  0  0  0  0  0
   23.4395  -19.3513  -15.9628 C   0  0  0  0  0  0  0  0  0  0  0  0
   20.6043  -21.0662  -13.3302 C   0  0  0  0  0  0  0  0  0  0  0  0
   19.3559  -20.4656  -13.3202 O   0  0  0  0  0  0  0  0  0  0  0  0
   20.7074  -22.2309  -13.7841 O   0  0  0  0  0  0  0  0  0  0  0  0
  2  3  2  0
  2  1  1  0
  4  2  1  0
  5  6  1  0
  5  4  1  0
  6  7  1  6
  8 12  1  0
  8  6  1  0
  9  8  2  0
 11 10  1  1
 11 13  1  0
 11 12  1  0
 13 14  2  0
 15 16  1  0
 15 13  1  0
 16 17  1  6
 18 17  1  0
 19 18  2  0
 20 19  1  0
 21 20  1  0
 21 26  2  0
 22 23  2  0
 22 21  1  0
 23 24  1  0
 24 25  2  0
 26 25  1  0
 26 18  1  0
 27 16  1  0
 27 28  1  0
 29 27  2  0
M  END
$$$$
