QAW.pdb
     RDKit          3D

 29 30  0  0  1  0  0  0  0  0999 V2000
   31.0633  -24.9145  -18.2071 N   0  0  0  0  0  0  0  0  0  0  0  0
   30.9613  -23.8930  -19.1646 C   0  0  0  0  0  0  0  0  0  0  0  0
   31.1412  -24.1711  -20.3779 O   0  0  0  0  0  0  0  0  0  0  0  0
   30.6433  -22.4943  -18.8142 C   0  0  0  0  0  0  0  0  0  0  0  0
   30.4269  -22.2522  -17.3527 C   0  0  0  0  0  0  0  0  0  0  0  0
   29.0142  -22.2505  -16.9062 C   0  0  2  0  0  0  0  0  0  0  0  0
   28.1744  -21.6821  -17.9963 N   0  0  0  0  0  0  0  0  0  0  0  0
   28.6851  -21.5584  -15.6671 C   0  0  0  0  0  0  0  0  0  0  0  0
   29.2633  -21.8407  -14.5606 O   0  0  0  0  0  0  0  0  0  0  0  0
   26.6565  -18.5801  -14.7337 C   0  0  0  0  0  0  0  0  0  0  0  0
   27.4281  -19.8303  -14.3904 C   0  0  2  0  0  0  0  0  0  0  0  0
   27.7036  -20.5336  -15.6271 N   0  0  0  0  0  0  0  0  0  0  0  0
   26.6856  -20.7223  -13.4821 C   0  0  0  0  0  0  0  0  0  0  0  0
   26.0551  -21.7070  -13.9417 O   0  0  0  0  0  0  0  0  0  0  0  0
   26.6323  -20.5389  -12.0756 N   0  0  0  0  0  0  0  0  0  0  0  0
   25.8779  -21.4414  -11.2309 C   0  0  1  0  0  0  0  0  0  0  0  0
   26.8464  -21.8488  -10.1106 C   0  0  0  0  0  0  0  0  0  0  0  0
   26.8457  -20.7353   -9.1268 C   0  0  0  0  0  0  0  0  0  0  0  0
   25.9346  -19.6897   -9.0220 C   0  0  0  0  0  0  0  0  0  0  0  0
   26.3078  -18.9072   -7.9998 N   0  0  0  0  0  0  0  0  0  0  0  0
   27.4292  -19.3688   -7.4026 C   0  0  0  0  0  0  0  0  0  0  0  0
   28.1867  -18.9235   -6.3323 C   0  0  0  0  0  0  0  0  0  0  0  0
   29.3078  -19.6209   -5.9418 C   0  0  0  0  0  0  0  0  0  0  0  0
   29.6436  -20.7592   -6.6427 C   0  0  0  0  0  0  0  0  0  0  0  0
   28.8863  -21.2015   -7.7103 C   0  0  0  0  0  0  0  0  0  0  0  0
   27.7592  -20.5093   -8.1106 C   0  0  0  0  0  0  0  0  0  0  0  0
   24.6807  -20.8003  -10.6582 C   0  0  0  0  0  0  0  0  0  0  0  0
   23.6761  -21.5853  -10.1161 O   0  0  0  0  0  0  0  0  0  0  0  0
   24.5420  -19.5537  -10.6463 O   0  0  0  0  0  0  0  0  0  0  0  0
  2  3  2  0
  2  1  1  0
  4  2  1  0
  5  6  1  0
  5  4  1  0
  6  7  1  6
  8 12  1  0
  8  6  1  0
  9  8  2  0
 11 10  1  6
 11 13  1  0
 11 12  1  0
 13 14  2  0
 15 16  1  0
 15 13  1  0
 16 17  1  1
 18 17  1  0
 19 18  2  0
 20 19  1  0
 21 20  1  0
 21 26  2  0
 22 23  2  0
 22 21  1  0
 23 24  1  0
 24 25  2  0
 26 25  1  0
 26 18  1  0
 27 16  1  0
 27 28  1  0
 29 27  2  0
M  END
$$$$
