QAW.pdb
     RDKit          3D

 29 30  0  0  1  0  0  0  0  0999 V2000
   29.1554  -16.7172  -19.0478 N   0  0  0  0  0  0  0  0  0  0  0  0
   28.1526  -15.8325  -19.4751 C   0  0  0  0  0  0  0  0  0  0  0  0
   28.0498  -15.5696  -20.7007 O   0  0  0  0  0  0  0  0  0  0  0  0
   27.1983  -15.1937  -18.5470 C   0  0  0  0  0  0  0  0  0  0  0  0
   27.0801  -15.8662  -17.2146 C   0  0  0  0  0  0  0  0  0  0  0  0
   26.2897  -17.1193  -17.1977 C   0  0  2  0  0  0  0  0  0  0  0  0
   25.0528  -16.9090  -17.9994 N   0  0  0  0  0  0  0  0  0  0  0  0
   25.9086  -17.6750  -15.9060 C   0  0  0  0  0  0  0  0  0  0  0  0
   26.7480  -17.7949  -14.9471 O   0  0  0  0  0  0  0  0  0  0  0  0
   22.7233  -18.7957  -14.3116 C   0  0  0  0  0  0  0  0  0  0  0  0
   24.2222  -18.6269  -14.3420 C   0  0  2  0  0  0  0  0  0  0  0  0
   24.5829  -18.1117  -15.6475 N   0  0  0  0  0  0  0  0  0  0  0  0
   24.9393  -19.8928  -14.1070 C   0  0  0  0  0  0  0  0  0  0  0  0
   25.1295  -20.6951  -15.0549 O   0  0  0  0  0  0  0  0  0  0  0  0
   25.4472  -20.2810  -12.8396 N   0  0  0  0  0  0  0  0  0  0  0  0
   26.1048  -21.5580  -12.6557 C   0  0  1  0  0  0  0  0  0  0  0  0
   27.2267  -21.2911  -11.6412 C   0  0  0  0  0  0  0  0  0  0  0  0
   26.5692  -20.7827  -10.4095 C   0  0  0  0  0  0  0  0  0  0  0  0
   25.2226  -20.4920  -10.2188 C   0  0  0  0  0  0  0  0  0  0  0  0
   25.0601  -20.0562   -8.9616 N   0  0  0  0  0  0  0  0  0  0  0  0
   26.2308  -20.0361   -8.2861 C   0  0  0  0  0  0  0  0  0  0  0  0
   26.5750  -19.6758   -6.9941 C   0  0  0  0  0  0  0  0  0  0  0  0
   27.8845  -19.7640   -6.5779 C   0  0  0  0  0  0  0  0  0  0  0  0
   28.8249  -20.2162   -7.4785 C   0  0  0  0  0  0  0  0  0  0  0  0
   28.4790  -20.5750   -8.7671 C   0  0  0  0  0  0  0  0  0  0  0  0
   27.1678  -20.4904   -9.1952 C   0  0  0  0  0  0  0  0  0  0  0  0
   25.1874  -22.5888  -12.1379 C   0  0  0  0  0  0  0  0  0  0  0  0
   23.8808  -22.2493  -11.8265 O   0  0  0  0  0  0  0  0  0  0  0  0
   25.5566  -23.7756  -11.9688 O   0  0  0  0  0  0  0  0  0  0  0  0
  2  3  2  0
  2  1  1  0
  4  2  1  0
  5  6  1  0
  5  4  1  0
  6  7  1  6
  8 12  1  0
  8  6  1  0
  9  8  2  0
 11 10  1  6
 11 13  1  0
 11 12  1  0
 13 14  2  0
 15 16  1  0
 15 13  1  0
 16 17  1  1
 18 17  1  0
 19 18  2  0
 20 19  1  0
 21 20  1  0
 21 26  2  0
 22 23  2  0
 22 21  1  0
 23 24  1  0
 24 25  2  0
 26 25  1  0
 26 18  1  0
 27 16  1  0
 27 28  1  0
 29 27  2  0
M  END
$$$$
