QAW.pdb
     RDKit          3D

 29 30  0  0  1  0  0  0  0  0999 V2000
   30.6824  -24.1024  -17.8284 N   0  0  0  0  0  0  0  0  0  0  0  0
   30.3008  -23.0384  -18.6609 C   0  0  0  0  0  0  0  0  0  0  0  0
   30.4091  -23.1671  -19.9073 O   0  0  0  0  0  0  0  0  0  0  0  0
   29.7668  -21.7643  -18.1398 C   0  0  0  0  0  0  0  0  0  0  0  0
   29.7265  -21.6704  -16.6461 C   0  0  0  0  0  0  0  0  0  0  0  0
   28.4111  -21.9460  -16.0224 C   0  0  2  0  0  0  0  0  0  0  0  0
   27.3435  -21.6288  -17.0106 N   0  0  0  0  0  0  0  0  0  0  0  0
   28.0893  -21.2748  -14.7701 C   0  0  0  0  0  0  0  0  0  0  0  0
   28.9212  -21.2201  -13.7988 O   0  0  0  0  0  0  0  0  0  0  0  0
   25.3863  -18.9942  -13.6234 C   0  0  0  0  0  0  0  0  0  0  0  0
   26.5876  -19.8702  -13.3671 C   0  0  2  0  0  0  0  0  0  0  0  0
   26.8329  -20.6464  -14.5659 N   0  0  0  0  0  0  0  0  0  0  0  0
   26.3877  -20.7867  -12.2303 C   0  0  0  0  0  0  0  0  0  0  0  0
   25.9454  -21.9463  -12.4256 O   0  0  0  0  0  0  0  0  0  0  0  0
   26.6703  -20.4369  -10.8840 N   0  0  0  0  0  0  0  0  0  0  0  0
   26.3776  -21.3476   -9.7967 C   0  0  1  0  0  0  0  0  0  0  0  0
   27.6844  -21.4530   -8.9966 C   0  0  0  0  0  0  0  0  0  0  0  0
   27.6372  -20.3811   -7.9686 C   0  0  0  0  0  0  0  0  0  0  0  0
   26.8594  -19.2282   -7.9730 C   0  0  0  0  0  0  0  0  0  0  0  0
   27.1283  -18.5349   -6.8577 N   0  0  0  0  0  0  0  0  0  0  0  0
   28.0516  -19.1596   -6.0933 C   0  0  0  0  0  0  0  0  0  0  0  0
   28.6441  -18.8528   -4.8799 C   0  0  0  0  0  0  0  0  0  0  0  0
   29.5768  -19.7044   -4.3316 C   0  0  0  0  0  0  0  0  0  0  0  0
   29.8944  -20.8540   -5.0223 C   0  0  0  0  0  0  0  0  0  0  0  0
   29.3020  -21.1580   -6.2328 C   0  0  0  0  0  0  0  0  0  0  0  0
   28.3647  -20.3104   -6.7922 C   0  0  0  0  0  0  0  0  0  0  0  0
   25.2916  -20.8531   -8.9315 C   0  0  0  0  0  0  0  0  0  0  0  0
   24.7240  -21.6995   -7.9929 O   0  0  0  0  0  0  0  0  0  0  0  0
   24.8612  -19.6783   -9.0195 O   0  0  0  0  0  0  0  0  0  0  0  0
  2  3  2  0
  2  1  1  0
  4  2  1  0
  5  6  1  0
  5  4  1  0
  6  7  1  6
  8 12  1  0
  8  6  1  0
  9  8  2  0
 11 10  1  6
 11 13  1  0
 11 12  1  0
 13 14  2  0
 15 16  1  0
 15 13  1  0
 16 17  1  1
 18 17  1  0
 19 18  2  0
 20 19  1  0
 21 20  1  0
 21 26  2  0
 22 23  2  0
 22 21  1  0
 23 24  1  0
 24 25  2  0
 26 25  1  0
 26 18  1  0
 27 16  1  0
 27 28  1  0
 29 27  2  0
M  END
$$$$
