QAW.pdb
     RDKit          3D

 29 30  0  0  1  0  0  0  0  0999 V2000
   31.2797  -25.3865  -15.4886 N   0  0  0  0  0  0  0  0  0  0  0  0
   32.1986  -25.2134  -16.5357 C   0  0  0  0  0  0  0  0  0  0  0  0
   33.1185  -26.0573  -16.6886 O   0  0  0  0  0  0  0  0  0  0  0  0
   32.1334  -24.0806  -17.4806 C   0  0  0  0  0  0  0  0  0  0  0  0
   30.9975  -23.1350  -17.2419 C   0  0  0  0  0  0  0  0  0  0  0  0
   29.7192  -23.4902  -17.9017 C   0  0  2  0  0  0  0  0  0  0  0  0
   29.8957  -23.3619  -19.3745 N   0  0  0  0  0  0  0  0  0  0  0  0
   28.5203  -22.7562  -17.5190 C   0  0  0  0  0  0  0  0  0  0  0  0
   28.3522  -21.5261  -17.8301 O   0  0  0  0  0  0  0  0  0  0  0  0
   25.1087  -23.2575  -17.0796 C   0  0  0  0  0  0  0  0  0  0  0  0
   26.2976  -22.6171  -16.4070 C   0  0  2  0  0  0  0  0  0  0  0  0
   27.4767  -23.3725  -16.7799 N   0  0  0  0  0  0  0  0  0  0  0  0
   26.1773  -22.6028  -14.9382 C   0  0  0  0  0  0  0  0  0  0  0  0
   26.3331  -23.6631  -14.2825 O   0  0  0  0  0  0  0  0  0  0  0  0
   25.8877  -21.4331  -14.1879 N   0  0  0  0  0  0  0  0  0  0  0  0
   25.7328  -21.4858  -12.7491 C   0  0  1  0  0  0  0  0  0  0  0  0
   26.8902  -20.6460  -12.1884 C   0  0  0  0  0  0  0  0  0  0  0  0
   26.6548  -20.5266  -10.7261 C   0  0  0  0  0  0  0  0  0  0  0  0
   25.4649  -20.2177  -10.0757 C   0  0  0  0  0  0  0  0  0  0  0  0
   25.6964  -20.2112   -8.7554 N   0  0  0  0  0  0  0  0  0  0  0  0
   26.9865  -20.5008   -8.4744 C   0  0  0  0  0  0  0  0  0  0  0  0
   27.6981  -20.6138   -7.2919 C   0  0  0  0  0  0  0  0  0  0  0  0
   29.0379  -20.9299   -7.3193 C   0  0  0  0  0  0  0  0  0  0  0  0
   29.6356  -21.1265   -8.5456 C   0  0  0  0  0  0  0  0  0  0  0  0
   28.9236  -21.0131   -9.7242 C   0  0  0  0  0  0  0  0  0  0  0  0
   27.5785  -20.6964   -9.7082 C   0  0  0  0  0  0  0  0  0  0  0  0
   24.4417  -20.9302  -12.3059 C   0  0  0  0  0  0  0  0  0  0  0  0
   23.8148  -21.4596  -11.1895 O   0  0  0  0  0  0  0  0  0  0  0  0
   23.8874  -19.9835  -12.9141 O   0  0  0  0  0  0  0  0  0  0  0  0
  2  3  2  0
  2  1  1  0
  4  2  1  0
  5  6  1  0
  5  4  1  0
  6  7  1  6
  8 12  1  0
  8  6  1  0
  9  8  2  0
 11 10  1  6
 11 13  1  0
 11 12  1  0
 13 14  2  0
 15 16  1  0
 15 13  1  0
 16 17  1  1
 18 17  1  0
 19 18  2  0
 20 19  1  0
 21 20  1  0
 21 26  2  0
 22 23  2  0
 22 21  1  0
 23 24  1  0
 24 25  2  0
 26 25  1  0
 26 18  1  0
 27 16  1  0
 27 28  1  0
 29 27  2  0
M  END
$$$$
