QAW.pdb
     RDKit          3D

 29 30  0  0  1  0  0  0  0  0999 V2000
   29.5825  -19.2615  -18.2887 N   0  0  0  0  0  0  0  0  0  0  0  0
   28.6858  -19.8707  -19.1807 C   0  0  0  0  0  0  0  0  0  0  0  0
   28.3329  -19.2479  -20.2148 O   0  0  0  0  0  0  0  0  0  0  0  0
   28.1358  -21.2240  -18.9653 C   0  0  0  0  0  0  0  0  0  0  0  0
   28.6527  -21.9194  -17.7444 C   0  0  0  0  0  0  0  0  0  0  0  0
   27.6867  -22.0588  -16.6297 C   0  0  2  0  0  0  0  0  0  0  0  0
   26.3546  -21.5849  -17.0963 N   0  0  0  0  0  0  0  0  0  0  0  0
   27.9916  -21.3967  -15.3682 C   0  0  0  0  0  0  0  0  0  0  0  0
   29.0426  -21.6777  -14.6937 O   0  0  0  0  0  0  0  0  0  0  0  0
   26.9393  -18.3442  -13.6291 C   0  0  0  0  0  0  0  0  0  0  0  0
   27.4656  -19.7569  -13.5708 C   0  0  2  0  0  0  0  0  0  0  0  0
   27.1347  -20.4043  -14.8244 N   0  0  0  0  0  0  0  0  0  0  0  0
   26.8860  -20.5316  -12.4591 C   0  0  0  0  0  0  0  0  0  0  0  0
   25.7953  -21.1359  -12.6130 O   0  0  0  0  0  0  0  0  0  0  0  0
   27.4965  -20.6457  -11.1827 N   0  0  0  0  0  0  0  0  0  0  0  0
   26.8273  -21.3209  -10.0903 C   0  0  1  0  0  0  0  0  0  0  0  0
   27.9227  -21.5802   -9.0454 C   0  0  0  0  0  0  0  0  0  0  0  0
   27.7153  -20.5855   -7.9612 C   0  0  0  0  0  0  0  0  0  0  0  0
   26.7243  -19.6137   -7.8727 C   0  0  0  0  0  0  0  0  0  0  0  0
   26.9061  -18.9297   -6.7344 N   0  0  0  0  0  0  0  0  0  0  0  0
   27.9730  -19.3883   -6.0426 C   0  0  0  0  0  0  0  0  0  0  0  0
   28.5534  -19.0215   -4.8401 C   0  0  0  0  0  0  0  0  0  0  0  0
   29.6637  -19.6908   -4.3763 C   0  0  0  0  0  0  0  0  0  0  0  0
   30.1683  -20.7219   -5.1392 C   0  0  0  0  0  0  0  0  0  0  0  0
   29.5875  -21.0860   -6.3387 C   0  0  0  0  0  0  0  0  0  0  0  0
   28.4730  -20.4210   -6.8136 C   0  0  0  0  0  0  0  0  0  0  0  0
   25.7507  -20.5025   -9.5042 C   0  0  0  0  0  0  0  0  0  0  0  0
   25.7815  -19.1249   -9.6478 O   0  0  0  0  0  0  0  0  0  0  0  0
   24.7980  -21.0199   -8.8731 O   0  0  0  0  0  0  0  0  0  0  0  0
  2  3  2  0
  2  1  1  0
  4  2  1  0
  5  6  1  0
  5  4  1  0
  6  7  1  6
  8 12  1  0
  8  6  1  0
  9  8  2  0
 11 10  1  6
 11 13  1  0
 11 12  1  0
 13 14  2  0
 15 16  1  0
 15 13  1  0
 16 17  1  1
 18 17  1  0
 19 18  2  0
 20 19  1  0
 21 20  1  0
 21 26  2  0
 22 23  2  0
 22 21  1  0
 23 24  1  0
 24 25  2  0
 26 25  1  0
 26 18  1  0
 27 16  1  0
 27 28  1  0
 29 27  2  0
M  END
$$$$
