PLN.pdb
     RDKit          3D

 24 24  0  0  1  0  0  0  0  0999 V2000
   42.7861   -9.8726   -7.9124 N   0  0  0  0  0  0  0  0  0  0  0  0
   43.5367  -11.0540   -7.5782 C   0  0  0  0  0  0  0  0  0  0  0  0
   44.1441  -11.5774   -8.8539 C   0  0  0  0  0  0  0  0  0  0  0  0
   43.2471  -11.0315   -9.9395 C   0  0  0  0  0  0  0  0  0  0  0  0
   42.6037   -9.8167   -9.3226 C   0  0  1  0  0  0  0  0  0  0  0  0
   41.1669   -9.6767   -9.6643 C   0  0  0  0  0  0  0  0  0  0  0  0
   40.8379   -9.5268  -10.8852 O   0  0  0  0  0  0  0  0  0  0  0  0
   37.4537  -12.0101   -6.3889 C   0  0  0  0  0  0  0  0  0  0  0  0
   38.2276  -11.4888   -7.5694 C   0  0  1  0  0  0  0  0  0  0  0  0
   37.9130  -12.4542   -8.7243 C   0  0  0  0  0  0  0  0  0  0  0  0
   37.8341  -10.1301   -8.0383 C   0  0  0  0  0  0  0  0  0  0  0  0
   38.7317   -9.4693   -9.0208 C   0  0  2  0  0  0  0  0  0  0  0  0
   40.1258   -9.6974   -8.7292 N   0  0  0  0  0  0  0  0  0  0  0  0
   38.3680   -8.0532   -9.1980 C   0  0  0  0  0  0  0  0  0  0  0  0
   37.2213   -7.7820   -9.6190 O   0  0  0  0  0  0  0  0  0  0  0  0
   38.2486   -2.8836   -9.2097 N   0  0  0  0  0  0  0  0  0  0  0  0
   39.3299   -3.2634   -8.3664 C   0  0  0  0  0  0  0  0  0  0  0  0
   39.8957   -2.3913   -7.6880 O   0  0  0  0  0  0  0  0  0  0  0  0
   39.8188   -4.6712   -8.2586 C   0  0  0  0  0  0  0  0  0  0  0  0
   38.9137   -5.5767   -9.0712 C   0  0  2  0  0  0  0  0  0  0  0  0
   39.2575   -6.9637   -8.9157 N   0  0  0  0  0  0  0  0  0  0  0  0
   39.1089   -5.1994  -10.4989 C   0  0  0  0  0  0  0  0  0  0  0  0
   40.0977   -5.6227  -11.1568 O   0  0  0  0  0  0  0  0  0  0  0  0
   38.2252   -4.3715  -11.1771 O   0  0  0  0  0  0  0  0  0  0  0  0
  2  1  1  0
  3  2  1  0
  4  3  1  0
  4  5  1  0
  5  6  1  1
  5  1  1  0
  6  7  2  0
  9  8  1  1
  9 10  1  0
 11  9  1  0
 12 11  1  1
 13 12  1  0
 13  6  1  0
 14 15  2  0
 14 12  1  0
 16 17  1  0
 17 19  1  0
 17 18  2  0
 20 19  1  1
 20 21  1  0
 21 14  1  0
 22 20  1  0
 22 24  1  0
 23 22  2  0
M  END
$$$$
