PLN.pdb
     RDKit          3D

 24 24  0  0  1  0  0  0  0  0999 V2000
   19.9971  -10.3683  -18.2274 N   0  0  0  0  0  0  0  0  0  0  0  0
   20.2527  -11.6579  -18.8127 C   0  0  0  0  0  0  0  0  0  0  0  0
   19.3729  -12.6558  -18.1051 C   0  0  0  0  0  0  0  0  0  0  0  0
   19.0932  -12.0152  -16.7662 C   0  0  0  0  0  0  0  0  0  0  0  0
   19.2907  -10.5406  -17.0043 C   0  0  1  0  0  0  0  0  0  0  0  0
   19.9892   -9.8550  -15.8895 C   0  0  0  0  0  0  0  0  0  0  0  0
   19.4713   -9.8890  -14.7268 O   0  0  0  0  0  0  0  0  0  0  0  0
   25.3426  -10.1464  -15.4818 C   0  0  0  0  0  0  0  0  0  0  0  0
   23.8577  -10.0289  -15.2678 C   0  0  1  0  0  0  0  0  0  0  0  0
   23.5642  -10.8252  -13.9855 C   0  0  0  0  0  0  0  0  0  0  0  0
   23.3571   -8.6459  -15.0277 C   0  0  0  0  0  0  0  0  0  0  0  0
   21.8840   -8.4639  -14.9611 C   0  0  2  0  0  0  0  0  0  0  0  0
   21.1973   -9.1606  -16.0210 N   0  0  0  0  0  0  0  0  0  0  0  0
   21.5340   -7.0384  -14.8394 C   0  0  0  0  0  0  0  0  0  0  0  0
   22.0225   -6.3851  -13.8907 O   0  0  0  0  0  0  0  0  0  0  0  0
   22.7510   -4.3121  -18.4092 N   0  0  0  0  0  0  0  0  0  0  0  0
   22.0676   -4.0284  -17.1938 C   0  0  0  0  0  0  0  0  0  0  0  0
   22.7120   -3.5699  -16.2370 O   0  0  0  0  0  0  0  0  0  0  0  0
   20.6021   -4.2578  -17.0145 C   0  0  0  0  0  0  0  0  0  0  0  0
   20.3647   -4.9497  -15.6862 C   0  0  2  0  0  0  0  0  0  0  0  0
   20.6604   -6.3549  -15.7492 N   0  0  0  0  0  0  0  0  0  0  0  0
   18.9171   -4.7856  -15.3762 C   0  0  0  0  0  0  0  0  0  0  0  0
   18.0697   -5.6452  -15.7407 O   0  0  0  0  0  0  0  0  0  0  0  0
   18.4251   -3.6918  -14.6777 O   0  0  0  0  0  0  0  0  0  0  0  0
  2  1  1  0
  3  2  1  0
  4  3  1  0
  4  5  1  0
  5  6  1  1
  5  1  1  0
  6  7  2  0
  9  8  1  1
  9 10  1  0
 11  9  1  0
 12 11  1  6
 13 12  1  0
 13  6  1  0
 14 15  2  0
 14 12  1  0
 16 17  1  0
 17 19  1  0
 17 18  2  0
 20 19  1  6
 20 21  1  0
 21 14  1  0
 22 20  1  0
 22 24  1  0
 23 22  2  0
M  END
$$$$
