PLN.pdb
     RDKit          3D

 24 24  0  0  1  0  0  0  0  0999 V2000
   26.7348  -19.2273  -14.5449 N   0  0  0  0  0  0  0  0  0  0  0  0
   28.0985  -18.7713  -14.4872 C   0  0  0  0  0  0  0  0  0  0  0  0
   28.9729  -19.9066  -14.9530 C   0  0  0  0  0  0  0  0  0  0  0  0
   28.1419  -21.1410  -14.6941 C   0  0  0  0  0  0  0  0  0  0  0  0
   26.7198  -20.6435  -14.6828 C   0  0  1  0  0  0  0  0  0  0  0  0
   25.8882  -21.2686  -13.6252 C   0  0  0  0  0  0  0  0  0  0  0  0
   25.5383  -22.4856  -13.7581 O   0  0  0  0  0  0  0  0  0  0  0  0
   26.3539  -19.7212   -8.4138 C   0  0  0  0  0  0  0  0  0  0  0  0
   26.1546  -20.4520   -9.7141 C   0  0  1  0  0  0  0  0  0  0  0  0
   26.6937  -21.8718   -9.4729 C   0  0  0  0  0  0  0  0  0  0  0  0
   24.7367  -20.6083  -10.1451 C   0  0  0  0  0  0  0  0  0  0  0  0
   24.5021  -21.1300  -11.5164 C   0  0  2  0  0  0  0  0  0  0  0  0
   25.4509  -20.6099  -12.4703 N   0  0  0  0  0  0  0  0  0  0  0  0
   23.0913  -20.9691  -11.9075 C   0  0  0  0  0  0  0  0  0  0  0  0
   22.2089  -21.4482  -11.1608 O   0  0  0  0  0  0  0  0  0  0  0  0
   18.6690  -19.6868  -14.2722 N   0  0  0  0  0  0  0  0  0  0  0  0
   19.6935  -18.9526  -14.9325 C   0  0  0  0  0  0  0  0  0  0  0  0
   19.3795  -18.1807  -15.8526 O   0  0  0  0  0  0  0  0  0  0  0  0
   21.1379  -19.0678  -14.5678 C   0  0  0  0  0  0  0  0  0  0  0  0
   21.2985  -20.1301  -13.4977 C   0  0  2  0  0  0  0  0  0  0  0  0
   22.6703  -20.2933  -13.1008 N   0  0  0  0  0  0  0  0  0  0  0  0
   20.8252  -21.4092  -14.0966 C   0  0  0  0  0  0  0  0  0  0  0  0
   21.6297  -22.2106  -14.6446 O   0  0  0  0  0  0  0  0  0  0  0  0
   19.4896  -21.7865  -14.0857 O   0  0  0  0  0  0  0  0  0  0  0  0
  2  1  1  0
  3  2  1  0
  4  3  1  0
  4  5  1  0
  5  6  1  1
  5  1  1  0
  6  7  2  0
  9  8  1  1
  9 10  1  0
 11  9  1  0
 12 11  1  1
 13 12  1  0
 13  6  1  0
 14 15  2  0
 14 12  1  0
 16 17  1  0
 17 19  1  0
 17 18  2  0
 20 19  1  6
 20 21  1  0
 21 14  1  0
 22 20  1  0
 22 24  1  0
 23 22  2  0
M  END
$$$$
