PLN.pdb
     RDKit          3D

 24 24  0  0  1  0  0  0  0  0999 V2000
   27.3955  -19.6159  -15.1132 N   0  0  0  0  0  0  0  0  0  0  0  0
   28.7885  -19.3621  -15.3699 C   0  0  0  0  0  0  0  0  0  0  0  0
   29.4135  -20.6667  -15.7917 C   0  0  0  0  0  0  0  0  0  0  0  0
   28.5083  -21.7182  -15.1949 C   0  0  0  0  0  0  0  0  0  0  0  0
   27.1853  -21.0199  -15.0152 C   0  0  1  0  0  0  0  0  0  0  0  0
   26.5081  -21.3652  -13.7413 C   0  0  0  0  0  0  0  0  0  0  0  0
   25.8790  -22.4693  -13.6598 O   0  0  0  0  0  0  0  0  0  0  0  0
   25.3003  -21.6882   -8.3337 C   0  0  0  0  0  0  0  0  0  0  0  0
   25.5952  -20.3361   -8.9246 C   0  0  1  0  0  0  0  0  0  0  0  0
   26.4465  -19.6059   -7.8725 C   0  0  0  0  0  0  0  0  0  0  0  0
   26.3996  -20.3517  -10.1790 C   0  0  0  0  0  0  0  0  0  0  0  0
   25.7000  -20.7619  -11.4239 C   0  0  2  0  0  0  0  0  0  0  0  0
   26.5082  -20.5544  -12.6004 N   0  0  0  0  0  0  0  0  0  0  0  0
   24.3549  -20.1661  -11.4934 C   0  0  0  0  0  0  0  0  0  0  0  0
   24.2489  -18.9236  -11.3903 O   0  0  0  0  0  0  0  0  0  0  0  0
   21.6949  -18.8796  -15.8871 N   0  0  0  0  0  0  0  0  0  0  0  0
   21.5430  -19.2988  -14.5358 C   0  0  0  0  0  0  0  0  0  0  0  0
   20.6899  -18.7407  -13.8276 O   0  0  0  0  0  0  0  0  0  0  0  0
   22.3672  -20.3858  -13.9262 C   0  0  0  0  0  0  0  0  0  0  0  0
   22.0281  -20.5017  -12.4527 C   0  0  2  0  0  0  0  0  0  0  0  0
   23.1553  -20.9324  -11.6718 N   0  0  0  0  0  0  0  0  0  0  0  0
   20.9578  -21.5320  -12.3445 C   0  0  0  0  0  0  0  0  0  0  0  0
   21.2250  -22.7617  -12.4225 O   0  0  0  0  0  0  0  0  0  0  0  0
   19.6233  -21.2013  -12.1543 O   0  0  0  0  0  0  0  0  0  0  0  0
  2  1  1  0
  3  2  1  0
  4  3  1  0
  4  5  1  0
  5  6  1  1
  5  1  1  0
  6  7  2  0
  9  8  1  1
  9 10  1  0
 11  9  1  0
 12 11  1  1
 13 12  1  0
 13  6  1  0
 14 15  2  0
 14 12  1  0
 16 17  1  0
 17 19  1  0
 17 18  2  0
 20 19  1  6
 20 21  1  0
 21 14  1  0
 22 20  1  0
 22 24  1  0
 23 22  2  0
M  END
$$$$
