PLN.pdb
     RDKit          3D

 24 24  0  0  1  0  0  0  0  0999 V2000
   28.1776  -20.0414  -12.9797 N   0  0  0  0  0  0  0  0  0  0  0  0
   29.5052  -19.4872  -12.9469 C   0  0  0  0  0  0  0  0  0  0  0  0
   30.4683  -20.6348  -12.7863 C   0  0  0  0  0  0  0  0  0  0  0  0
   29.6404  -21.7227  -12.1442 C   0  0  0  0  0  0  0  0  0  0  0  0
   28.2200  -21.3867  -12.5179 C   0  0  1  0  0  0  0  0  0  0  0  0
   27.2568  -21.5954  -11.4091 C   0  0  0  0  0  0  0  0  0  0  0  0
   26.8776  -22.7807  -11.1399 O   0  0  0  0  0  0  0  0  0  0  0  0
   27.1597  -18.3670   -6.9901 C   0  0  0  0  0  0  0  0  0  0  0  0
   27.0434  -19.5587   -7.9015 C   0  0  1  0  0  0  0  0  0  0  0  0
   27.2206  -20.7874   -6.9940 C   0  0  0  0  0  0  0  0  0  0  0  0
   25.7230  -19.7194   -8.5733 C   0  0  0  0  0  0  0  0  0  0  0  0
   25.6434  -20.7123   -9.6758 C   0  0  2  0  0  0  0  0  0  0  0  0
   26.7232  -20.5690  -10.6213 N   0  0  0  0  0  0  0  0  0  0  0  0
   24.2999  -20.7235  -10.2792 C   0  0  0  0  0  0  0  0  0  0  0  0
   23.3136  -20.5140   -9.5384 O   0  0  0  0  0  0  0  0  0  0  0  0
   21.1476  -19.0894  -14.0719 N   0  0  0  0  0  0  0  0  0  0  0  0
   22.5169  -18.9671  -14.4392 C   0  0  0  0  0  0  0  0  0  0  0  0
   22.8092  -18.3137  -15.4534 O   0  0  0  0  0  0  0  0  0  0  0  0
   23.6257  -19.5921  -13.6566 C   0  0  0  0  0  0  0  0  0  0  0  0
   23.0456  -20.2956  -12.4450 C   0  0  2  0  0  0  0  0  0  0  0  0
   24.0574  -20.9632  -11.6727 N   0  0  0  0  0  0  0  0  0  0  0  0
   22.0962  -21.3192  -12.9642 C   0  0  0  0  0  0  0  0  0  0  0  0
   22.5046  -22.4373  -13.3799 O   0  0  0  0  0  0  0  0  0  0  0  0
   20.7263  -21.1034  -13.0191 O   0  0  0  0  0  0  0  0  0  0  0  0
  2  1  1  0
  3  2  1  0
  4  3  1  0
  4  5  1  0
  5  6  1  1
  5  1  1  0
  6  7  2  0
  9  8  1  1
  9 10  1  0
 11  9  1  0
 12 11  1  1
 13 12  1  0
 13  6  1  0
 14 15  2  0
 14 12  1  0
 16 17  1  0
 17 19  1  0
 17 18  2  0
 20 19  1  6
 20 21  1  0
 21 14  1  0
 22 20  1  0
 22 24  1  0
 23 22  2  0
M  END
$$$$
