PLN.pdb
     RDKit          3D

 24 24  0  0  1  0  0  0  0  0999 V2000
   15.8528  -26.4247   -6.8845 N   0  0  0  0  0  0  0  0  0  0  0  0
   14.6730  -25.7650   -7.3783 C   0  0  0  0  0  0  0  0  0  0  0  0
   14.7429  -24.3264   -6.9356 C   0  0  0  0  0  0  0  0  0  0  0  0
   15.6425  -24.3581   -5.7226 C   0  0  0  0  0  0  0  0  0  0  0  0
   16.4699  -25.6049   -5.8986 C   0  0  1  0  0  0  0  0  0  0  0  0
   16.6718  -26.3577   -4.6363 C   0  0  0  0  0  0  0  0  0  0  0  0
   15.7645  -27.1633   -4.2499 O   0  0  0  0  0  0  0  0  0  0  0  0
   19.7036  -28.8594   -0.6954 C   0  0  0  0  0  0  0  0  0  0  0  0
   19.6332  -27.3563   -0.6832 C   0  0  1  0  0  0  0  0  0  0  0  0
   21.0375  -26.8836   -0.2717 C   0  0  0  0  0  0  0  0  0  0  0  0
   19.3455  -26.7222   -2.0007 C   0  0  0  0  0  0  0  0  0  0  0  0
   17.9524  -26.8219   -2.5074 C   0  0  2  0  0  0  0  0  0  0  0  0
   17.8052  -26.2480   -3.8226 N   0  0  0  0  0  0  0  0  0  0  0  0
   16.9915  -26.3199   -1.5104 C   0  0  0  0  0  0  0  0  0  0  0  0
   16.6580  -25.1149   -1.5603 O   0  0  0  0  0  0  0  0  0  0  0  0
   13.4983  -25.7491    2.2222 N   0  0  0  0  0  0  0  0  0  0  0  0
   13.0857  -26.5620    1.1296 C   0  0  0  0  0  0  0  0  0  0  0  0
   11.8839  -26.8524    1.0191 O   0  0  0  0  0  0  0  0  0  0  0  0
   14.0371  -27.0852    0.1031 C   0  0  0  0  0  0  0  0  0  0  0  0
   15.4480  -26.6719    0.4746 C   0  0  2  0  0  0  0  0  0  0  0  0
   16.4158  -27.1366   -0.4811 N   0  0  0  0  0  0  0  0  0  0  0  0
   15.7420  -27.3055    1.7902 C   0  0  0  0  0  0  0  0  0  0  0  0
   15.9636  -28.5432    1.8838 O   0  0  0  0  0  0  0  0  0  0  0  0
   15.7882  -26.5793    2.9720 O   0  0  0  0  0  0  0  0  0  0  0  0
  2  1  1  0
  3  2  1  0
  4  3  1  0
  4  5  1  0
  5  6  1  1
  5  1  1  0
  6  7  2  0
  9  8  1  6
  9 10  1  0
 11  9  1  0
 12 11  1  1
 13 12  1  0
 13  6  1  0
 14 15  2  0
 14 12  1  0
 16 17  1  0
 17 19  1  0
 17 18  2  0
 20 19  1  6
 20 21  1  0
 21 14  1  0
 22 20  1  0
 22 24  1  0
 23 22  2  0
M  END
$$$$
