PLN.pdb
     RDKit          3D

 24 24  0  0  1  0  0  0  0  0999 V2000
   23.0697  -22.1562  -14.5734 N   0  0  0  0  0  0  0  0  0  0  0  0
   23.2474  -23.1553  -13.5531 C   0  0  0  0  0  0  0  0  0  0  0  0
   22.4068  -22.7464  -12.3713 C   0  0  0  0  0  0  0  0  0  0  0  0
   22.2527  -21.2522  -12.5289 C   0  0  0  0  0  0  0  0  0  0  0  0
   22.4628  -21.0039  -14.0001 C   0  0  1  0  0  0  0  0  0  0  0  0
   23.2659  -19.7886  -14.2809 C   0  0  0  0  0  0  0  0  0  0  0  0
   22.9073  -18.6822  -13.7626 O   0  0  0  0  0  0  0  0  0  0  0  0
   28.6792  -20.1326  -14.6460 C   0  0  0  0  0  0  0  0  0  0  0  0
   27.2513  -19.7160  -14.4183 C   0  0  1  0  0  0  0  0  0  0  0  0
   27.2807  -18.8165  -13.1714 C   0  0  0  0  0  0  0  0  0  0  0  0
   26.6442  -18.9024  -15.5093 C   0  0  0  0  0  0  0  0  0  0  0  0
   25.1950  -18.5953  -15.3953 C   0  0  2  0  0  0  0  0  0  0  0  0
   24.4095  -19.7653  -15.0873 N   0  0  0  0  0  0  0  0  0  0  0  0
   24.7240  -17.8332  -16.5643 C   0  0  0  0  0  0  0  0  0  0  0  0
   24.4184  -18.4634  -17.6012 O   0  0  0  0  0  0  0  0  0  0  0  0
   22.7632  -14.1653  -19.6425 N   0  0  0  0  0  0  0  0  0  0  0  0
   22.7963  -13.6249  -18.3266 C   0  0  0  0  0  0  0  0  0  0  0  0
   22.2597  -12.5253  -18.1167 O   0  0  0  0  0  0  0  0  0  0  0  0
   23.4504  -14.3233  -17.1790 C   0  0  0  0  0  0  0  0  0  0  0  0
   23.9920  -15.6585  -17.6514 C   0  0  2  0  0  0  0  0  0  0  0  0
   24.5970  -16.4043  -16.5820 N   0  0  0  0  0  0  0  0  0  0  0  0
   25.0391  -15.3553  -18.6665 C   0  0  0  0  0  0  0  0  0  0  0  0
   26.2557  -15.2745  -18.3455 O   0  0  0  0  0  0  0  0  0  0  0  0
   24.7391  -15.1472  -20.0055 O   0  0  0  0  0  0  0  0  0  0  0  0
  2  1  1  0
  3  2  1  0
  4  3  1  0
  4  5  1  0
  5  6  1  1
  5  1  1  0
  6  7  2  0
  9  8  1  6
  9 10  1  0
 11  9  1  0
 12 11  1  6
 13 12  1  0
 13  6  1  0
 14 15  2  0
 14 12  1  0
 16 17  1  0
 17 19  1  0
 17 18  2  0
 20 19  1  1
 20 21  1  0
 21 14  1  0
 22 20  1  0
 22 24  1  0
 23 22  2  0
M  END
$$$$
