PLN.pdb
     RDKit          3D

 24 24  0  0  1  0  0  0  0  0999 V2000
   30.3629  -20.9406  -10.5971 N   0  0  0  0  0  0  0  0  0  0  0  0
   31.7279  -20.9563  -10.1416 C   0  0  0  0  0  0  0  0  0  0  0  0
   32.0752  -22.3844   -9.8092 C   0  0  0  0  0  0  0  0  0  0  0  0
   30.7404  -23.0304   -9.5222 C   0  0  0  0  0  0  0  0  0  0  0  0
   29.7409  -22.1742  -10.2557 C   0  0  1  0  0  0  0  0  0  0  0  0
   28.4926  -21.9420   -9.4885 C   0  0  0  0  0  0  0  0  0  0  0  0
   27.6995  -22.9192   -9.2958 O   0  0  0  0  0  0  0  0  0  0  0  0
   28.4514  -18.4622   -5.4028 C   0  0  0  0  0  0  0  0  0  0  0  0
   28.1544  -19.6317   -6.3018 C   0  0  1  0  0  0  0  0  0  0  0  0
   27.8189  -20.7989   -5.3585 C   0  0  0  0  0  0  0  0  0  0  0  0
   26.9752  -19.4626   -7.1972 C   0  0  0  0  0  0  0  0  0  0  0  0
   26.8446  -20.4172   -8.3282 C   0  0  2  0  0  0  0  0  0  0  0  0
   28.1134  -20.7070   -8.9500 N   0  0  0  0  0  0  0  0  0  0  0  0
   25.7902  -19.9869   -9.2622 C   0  0  0  0  0  0  0  0  0  0  0  0
   25.3734  -18.8095   -9.1868 O   0  0  0  0  0  0  0  0  0  0  0  0
   26.3424  -19.7620  -12.8763 N   0  0  0  0  0  0  0  0  0  0  0  0
   25.4844  -20.8243  -13.2765 C   0  0  0  0  0  0  0  0  0  0  0  0
   25.7395  -21.4380  -14.3249 O   0  0  0  0  0  0  0  0  0  0  0  0
   24.2838  -21.2379  -12.4890 C   0  0  0  0  0  0  0  0  0  0  0  0
   24.2221  -20.4249  -11.2105 C   0  0  2  0  0  0  0  0  0  0  0  0
   25.2112  -20.8445  -10.2557 N   0  0  0  0  0  0  0  0  0  0  0  0
   22.8724  -20.6583  -10.6252 C   0  0  0  0  0  0  0  0  0  0  0  0
   21.8340  -20.2028  -11.1765 O   0  0  0  0  0  0  0  0  0  0  0  0
   22.6835  -21.3808   -9.4553 O   0  0  0  0  0  0  0  0  0  0  0  0
  2  1  1  0
  3  2  1  0
  4  3  1  0
  4  5  1  0
  5  6  1  1
  5  1  1  0
  6  7  2  0
  9  8  1  1
  9 10  1  0
 11  9  1  0
 12 11  1  1
 13 12  1  0
 13  6  1  0
 14 15  2  0
 14 12  1  0
 16 17  1  0
 17 19  1  0
 17 18  2  0
 20 19  1  6
 20 21  1  0
 21 14  1  0
 22 20  1  0
 22 24  1  0
 23 22  2  0
M  END
$$$$
