PLN.pdb
     RDKit          3D

 24 24  0  0  1  0  0  0  0  0999 V2000
   27.0020  -19.6072  -13.6694 N   0  0  0  0  0  0  0  0  0  0  0  0
   28.2850  -19.0532  -14.0128 C   0  0  0  0  0  0  0  0  0  0  0  0
   29.1950  -20.2041  -14.3561 C   0  0  0  0  0  0  0  0  0  0  0  0
   28.5871  -21.3823  -13.6325 C   0  0  0  0  0  0  0  0  0  0  0  0
   27.1400  -21.0059  -13.4471 C   0  0  1  0  0  0  0  0  0  0  0  0
   26.6009  -21.3854  -12.1180 C   0  0  0  0  0  0  0  0  0  0  0  0
   26.4419  -22.6199  -11.8495 O   0  0  0  0  0  0  0  0  0  0  0  0
   27.5461  -18.6971   -7.4983 C   0  0  0  0  0  0  0  0  0  0  0  0
   27.2195  -19.7435   -8.5292 C   0  0  1  0  0  0  0  0  0  0  0  0
   27.7435  -21.0678   -7.9491 C   0  0  0  0  0  0  0  0  0  0  0  0
   25.7667  -19.9455   -8.7924 C   0  0  0  0  0  0  0  0  0  0  0  0
   25.4033  -20.7563   -9.9833 C   0  0  2  0  0  0  0  0  0  0  0  0
   26.2474  -20.4724  -11.1179 N   0  0  0  0  0  0  0  0  0  0  0  0
   23.9591  -20.6701  -10.2590 C   0  0  0  0  0  0  0  0  0  0  0  0
   23.1609  -20.8629   -9.3149 O   0  0  0  0  0  0  0  0  0  0  0  0
   19.5705  -17.9984  -12.2756 N   0  0  0  0  0  0  0  0  0  0  0  0
   20.3547  -18.8629  -13.0894 C   0  0  0  0  0  0  0  0  0  0  0  0
   19.8037  -19.4737  -14.0191 O   0  0  0  0  0  0  0  0  0  0  0  0
   21.8188  -19.0709  -12.8760 C   0  0  0  0  0  0  0  0  0  0  0  0
   22.0216  -20.1282  -11.8080 C   0  0  2  0  0  0  0  0  0  0  0  0
   23.4140  -20.3782  -11.5535 N   0  0  0  0  0  0  0  0  0  0  0  0
   21.4049  -21.3799  -12.3291 C   0  0  0  0  0  0  0  0  0  0  0  0
   22.0488  -22.1611  -13.0807 O   0  0  0  0  0  0  0  0  0  0  0  0
   20.1040  -21.7526  -12.0211 O   0  0  0  0  0  0  0  0  0  0  0  0
  2  1  1  0
  3  2  1  0
  4  3  1  0
  4  5  1  0
  5  6  1  1
  5  1  1  0
  6  7  2  0
  9  8  1  1
  9 10  1  0
 11  9  1  0
 12 11  1  1
 13 12  1  0
 13  6  1  0
 14 15  2  0
 14 12  1  0
 16 17  1  0
 17 19  1  0
 17 18  2  0
 20 19  1  6
 20 21  1  0
 21 14  1  0
 22 20  1  0
 22 24  1  0
 23 22  2  0
M  END
$$$$
