PLN.pdb
     RDKit          3D

 24 24  0  0  1  0  0  0  0  0999 V2000
   26.7475  -19.0473  -15.1066 N   0  0  0  0  0  0  0  0  0  0  0  0
   28.0756  -18.5176  -14.9436 C   0  0  0  0  0  0  0  0  0  0  0  0
   29.0383  -19.5405  -15.4891 C   0  0  0  0  0  0  0  0  0  0  0  0
   28.2811  -20.8441  -15.3972 C   0  0  0  0  0  0  0  0  0  0  0  0
   26.8300  -20.4386  -15.3935 C   0  0  1  0  0  0  0  0  0  0  0  0
   26.0040  -21.2238  -14.4438 C   0  0  0  0  0  0  0  0  0  0  0  0
   25.8237  -22.4644  -14.6670 O   0  0  0  0  0  0  0  0  0  0  0  0
   26.0420  -20.0738   -9.2225 C   0  0  0  0  0  0  0  0  0  0  0  0
   25.9653  -20.5457  -10.6493 C   0  0  1  0  0  0  0  0  0  0  0  0
   27.0691  -21.6070  -10.7898 C   0  0  0  0  0  0  0  0  0  0  0  0
   24.6889  -21.2136  -11.0307 C   0  0  0  0  0  0  0  0  0  0  0  0
   24.4159  -21.3676  -12.4830 C   0  0  2  0  0  0  0  0  0  0  0  0
   25.3965  -20.6948  -13.2993 N   0  0  0  0  0  0  0  0  0  0  0  0
   23.0189  -21.0222  -12.7964 C   0  0  0  0  0  0  0  0  0  0  0  0
   22.1130  -21.4959  -12.0747 O   0  0  0  0  0  0  0  0  0  0  0  0
   19.1522  -19.0512  -16.2485 N   0  0  0  0  0  0  0  0  0  0  0  0
   19.6785  -18.2791  -15.1754 C   0  0  0  0  0  0  0  0  0  0  0  0
   18.9558  -17.4213  -14.6436 O   0  0  0  0  0  0  0  0  0  0  0  0
   21.0684  -18.4539  -14.6556 C   0  0  0  0  0  0  0  0  0  0  0  0
   21.2763  -19.9046  -14.2665 C   0  0  2  0  0  0  0  0  0  0  0  0
   22.6366  -20.1719  -13.8867 N   0  0  0  0  0  0  0  0  0  0  0  0
   20.9551  -20.7167  -15.4732 C   0  0  0  0  0  0  0  0  0  0  0  0
   21.8674  -21.1891  -16.2042 O   0  0  0  0  0  0  0  0  0  0  0  0
   19.6507  -20.9959  -15.8566 O   0  0  0  0  0  0  0  0  0  0  0  0
  2  1  1  0
  3  2  1  0
  4  3  1  0
  4  5  1  0
  5  6  1  1
  5  1  1  0
  6  7  2  0
  9  8  1  1
  9 10  1  0
 11  9  1  0
 12 11  1  1
 13 12  1  0
 13  6  1  0
 14 15  2  0
 14 12  1  0
 16 17  1  0
 17 19  1  0
 17 18  2  0
 20 19  1  6
 20 21  1  0
 21 14  1  0
 22 20  1  0
 22 24  1  0
 23 22  2  0
M  END
$$$$
