PLN.pdb
     RDKit          3D

 24 24  0  0  1  0  0  0  0  0999 V2000
   26.8381  -19.1013  -15.5094 N   0  0  0  0  0  0  0  0  0  0  0  0
   28.0540  -18.3906  -15.2139 C   0  0  0  0  0  0  0  0  0  0  0  0
   29.1785  -19.3934  -15.2363 C   0  0  0  0  0  0  0  0  0  0  0  0
   28.4997  -20.7136  -14.9573 C   0  0  0  0  0  0  0  0  0  0  0  0
   27.0693  -20.4994  -15.3794 C   0  0  1  0  0  0  0  0  0  0  0  0
   26.0863  -21.1137  -14.4535 C   0  0  0  0  0  0  0  0  0  0  0  0
   25.7798  -22.3398  -14.6083 O   0  0  0  0  0  0  0  0  0  0  0  0
   26.9967  -21.2873  -10.8634 C   0  0  0  0  0  0  0  0  0  0  0  0
   25.5792  -21.3945  -10.3698 C   0  0  1  0  0  0  0  0  0  0  0  0
   25.5934  -20.8016   -8.9511 C   0  0  0  0  0  0  0  0  0  0  0  0
   24.5753  -20.6103  -11.1431 C   0  0  0  0  0  0  0  0  0  0  0  0
   24.4014  -20.9637  -12.5757 C   0  0  2  0  0  0  0  0  0  0  0  0
   25.4585  -20.4351  -13.4027 N   0  0  0  0  0  0  0  0  0  0  0  0
   23.0419  -20.6366  -13.0382 C   0  0  0  0  0  0  0  0  0  0  0  0
   22.6489  -19.4528  -12.9391 O   0  0  0  0  0  0  0  0  0  0  0  0
   22.3084  -22.5582  -17.2074 N   0  0  0  0  0  0  0  0  0  0  0  0
   21.4975  -21.6415  -16.4815 C   0  0  0  0  0  0  0  0  0  0  0  0
   21.5729  -20.4319  -16.7504 O   0  0  0  0  0  0  0  0  0  0  0  0
   20.5541  -22.0693  -15.4048 C   0  0  0  0  0  0  0  0  0  0  0  0
   20.8487  -21.2825  -14.1424 C   0  0  2  0  0  0  0  0  0  0  0  0
   22.1394  -21.6019  -13.5963 N   0  0  0  0  0  0  0  0  0  0  0  0
   19.8075  -21.6693  -13.1499 C   0  0  0  0  0  0  0  0  0  0  0  0
   20.1034  -22.3285  -12.1166 O   0  0  0  0  0  0  0  0  0  0  0  0
   18.4704  -21.3307  -13.3040 O   0  0  0  0  0  0  0  0  0  0  0  0
  2  1  1  0
  3  2  1  0
  4  3  1  0
  4  5  1  0
  5  6  1  1
  5  1  1  0
  6  7  2  0
  9  8  1  6
  9 10  1  0
 11  9  1  0
 12 11  1  1
 13 12  1  0
 13  6  1  0
 14 15  2  0
 14 12  1  0
 16 17  1  0
 17 19  1  0
 17 18  2  0
 20 19  1  6
 20 21  1  0
 21 14  1  0
 22 20  1  0
 22 24  1  0
 23 22  2  0
M  END
$$$$
