PLN.pdb
     RDKit          3D

 24 24  0  0  1  0  0  0  0  0999 V2000
   28.1958  -19.1064  -16.6741 N   0  0  0  0  0  0  0  0  0  0  0  0
   29.3722  -19.0768  -17.5023 C   0  0  0  0  0  0  0  0  0  0  0  0
   29.3635  -20.3281  -18.3417 C   0  0  0  0  0  0  0  0  0  0  0  0
   28.5159  -21.2960  -17.5504 C   0  0  0  0  0  0  0  0  0  0  0  0
   27.6456  -20.4186  -16.6886 C   0  0  1  0  0  0  0  0  0  0  0  0
   27.4757  -20.9356  -15.3085 C   0  0  0  0  0  0  0  0  0  0  0  0
   26.8272  -22.0173  -15.1333 O   0  0  0  0  0  0  0  0  0  0  0  0
   31.2579  -20.7518  -11.2601 C   0  0  0  0  0  0  0  0  0  0  0  0
   30.0907  -21.1747  -12.1104 C   0  0  1  0  0  0  0  0  0  0  0  0
   29.7967  -22.6296  -11.7086 C   0  0  0  0  0  0  0  0  0  0  0  0
   28.8298  -20.4132  -11.8842 C   0  0  0  0  0  0  0  0  0  0  0  0
   27.6965  -20.6968  -12.8021 C   0  0  2  0  0  0  0  0  0  0  0  0
   27.9841  -20.3132  -14.1626 N   0  0  0  0  0  0  0  0  0  0  0  0
   26.4363  -20.1538  -12.2673 C   0  0  0  0  0  0  0  0  0  0  0  0
   26.3028  -18.9112  -12.2059 O   0  0  0  0  0  0  0  0  0  0  0  0
   20.9834  -19.8905  -13.1253 N   0  0  0  0  0  0  0  0  0  0  0  0
   21.6426  -20.8478  -12.3045 C   0  0  0  0  0  0  0  0  0  0  0  0
   21.0338  -21.3254  -11.3339 O   0  0  0  0  0  0  0  0  0  0  0  0
   23.0415  -21.3076  -12.5580 C   0  0  0  0  0  0  0  0  0  0  0  0
   23.9927  -20.5170  -11.6807 C   0  0  2  0  0  0  0  0  0  0  0  0
   25.3501  -20.9717  -11.8098 N   0  0  0  0  0  0  0  0  0  0  0  0
   23.5532  -20.7366  -10.2746 C   0  0  0  0  0  0  0  0  0  0  0  0
   24.1505  -21.5549   -9.5240 O   0  0  0  0  0  0  0  0  0  0  0  0
   22.4755  -20.0621   -9.7179 O   0  0  0  0  0  0  0  0  0  0  0  0
  2  1  1  0
  3  2  1  0
  4  3  1  0
  4  5  1  0
  5  6  1  1
  5  1  1  0
  6  7  2  0
  9  8  1  1
  9 10  1  0
 11  9  1  0
 12 11  1  1
 13 12  1  0
 13  6  1  0
 14 15  2  0
 14 12  1  0
 16 17  1  0
 17 19  1  0
 17 18  2  0
 20 19  1  6
 20 21  1  0
 21 14  1  0
 22 20  1  0
 22 24  1  0
 23 22  2  0
M  END
$$$$
