PLN.pdb
     RDKit          3D

 24 24  0  0  1  0  0  0  0  0999 V2000
   26.7502  -19.2532  -14.7520 N   0  0  0  0  0  0  0  0  0  0  0  0
   28.1361  -18.8954  -14.6030 C   0  0  0  0  0  0  0  0  0  0  0  0
   28.9567  -20.0814  -15.0396 C   0  0  0  0  0  0  0  0  0  0  0  0
   28.0279  -21.2585  -14.8574 C   0  0  0  0  0  0  0  0  0  0  0  0
   26.6456  -20.6623  -14.9207 C   0  0  1  0  0  0  0  0  0  0  0  0
   25.7095  -21.2452  -13.9284 C   0  0  0  0  0  0  0  0  0  0  0  0
   25.2700  -22.4251  -14.1180 O   0  0  0  0  0  0  0  0  0  0  0  0
   26.1645  -19.7709   -8.7448 C   0  0  0  0  0  0  0  0  0  0  0  0
   25.9547  -20.3471  -10.1190 C   0  0  1  0  0  0  0  0  0  0  0  0
   26.7372  -21.6708  -10.1321 C   0  0  0  0  0  0  0  0  0  0  0  0
   24.5442  -20.6893  -10.4568 C   0  0  0  0  0  0  0  0  0  0  0  0
   24.2620  -21.0746  -11.8637 C   0  0  2  0  0  0  0  0  0  0  0  0
   25.2643  -20.5844  -12.7778 N   0  0  0  0  0  0  0  0  0  0  0  0
   22.8777  -20.7360  -12.2355 C   0  0  0  0  0  0  0  0  0  0  0  0
   21.9508  -21.1149  -11.4851 O   0  0  0  0  0  0  0  0  0  0  0  0
   19.1705  -18.2024  -16.4025 N   0  0  0  0  0  0  0  0  0  0  0  0
   19.7228  -18.1756  -15.0914 C   0  0  0  0  0  0  0  0  0  0  0  0
   18.9950  -17.8464  -14.1412 O   0  0  0  0  0  0  0  0  0  0  0  0
   21.1461  -18.5273  -14.8034 C   0  0  0  0  0  0  0  0  0  0  0  0
   21.1857  -19.6533  -13.7886 C   0  0  2  0  0  0  0  0  0  0  0  0
   22.5306  -19.9953  -13.4141 N   0  0  0  0  0  0  0  0  0  0  0  0
   20.5633  -20.8367  -14.4450 C   0  0  0  0  0  0  0  0  0  0  0  0
   21.2499  -21.6347  -15.1390 O   0  0  0  0  0  0  0  0  0  0  0  0
   19.2103  -21.1246  -14.3315 O   0  0  0  0  0  0  0  0  0  0  0  0
  2  1  1  0
  3  2  1  0
  4  3  1  0
  4  5  1  0
  5  6  1  1
  5  1  1  0
  6  7  2  0
  9  8  1  1
  9 10  1  0
 11  9  1  0
 12 11  1  1
 13 12  1  0
 13  6  1  0
 14 15  2  0
 14 12  1  0
 16 17  1  0
 17 19  1  0
 17 18  2  0
 20 19  1  6
 20 21  1  0
 21 14  1  0
 22 20  1  0
 22 24  1  0
 23 22  2  0
M  END
$$$$
