PLN.pdb
     RDKit          3D

 24 24  0  0  1  0  0  0  0  0999 V2000
   20.6217  -13.3332  -19.0788 N   0  0  0  0  0  0  0  0  0  0  0  0
   20.6768  -14.7711  -19.0972 C   0  0  0  0  0  0  0  0  0  0  0  0
   19.5721  -15.2754  -18.2051 C   0  0  0  0  0  0  0  0  0  0  0  0
   19.3118  -14.1283  -17.2576 C   0  0  0  0  0  0  0  0  0  0  0  0
   19.8004  -12.9096  -17.9967 C   0  0  1  0  0  0  0  0  0  0  0  0
   20.5242  -11.9484  -17.1288 C   0  0  0  0  0  0  0  0  0  0  0  0
   19.9089  -11.4268  -16.1436 O   0  0  0  0  0  0  0  0  0  0  0  0
   24.5339   -9.9523  -14.1396 C   0  0  0  0  0  0  0  0  0  0  0  0
   24.8458   -9.9514  -15.6117 C   0  0  1  0  0  0  0  0  0  0  0  0
   26.2966  -10.4487  -15.7235 C   0  0  0  0  0  0  0  0  0  0  0  0
   24.0195  -10.8765  -16.4377 C   0  0  0  0  0  0  0  0  0  0  0  0
   22.5652  -10.5853  -16.5261 C   0  0  2  0  0  0  0  0  0  0  0  0
   21.8572  -11.5643  -17.3140 N   0  0  0  0  0  0  0  0  0  0  0  0
   22.3309   -9.1889  -16.9315 C   0  0  0  0  0  0  0  0  0  0  0  0
   22.6897   -8.8340  -18.0765 O   0  0  0  0  0  0  0  0  0  0  0  0
   20.3203   -4.4524  -17.3934 N   0  0  0  0  0  0  0  0  0  0  0  0
   19.6698   -5.6271  -17.8642 C   0  0  0  0  0  0  0  0  0  0  0  0
   18.7497   -5.5126  -18.6895 O   0  0  0  0  0  0  0  0  0  0  0  0
   20.0449   -6.9999  -17.4090 C   0  0  0  0  0  0  0  0  0  0  0  0
   21.2772   -6.9140  -16.5295 C   0  0  2  0  0  0  0  0  0  0  0  0
   21.7140   -8.2091  -16.0845 N   0  0  0  0  0  0  0  0  0  0  0  0
   20.8905   -6.1107  -15.3363 C   0  0  0  0  0  0  0  0  0  0  0  0
   20.8490   -6.6273  -14.1869 O   0  0  0  0  0  0  0  0  0  0  0  0
   20.5583   -4.7658  -15.4206 O   0  0  0  0  0  0  0  0  0  0  0  0
  2  1  1  0
  3  2  1  0
  4  3  1  0
  4  5  1  0
  5  6  1  1
  5  1  1  0
  6  7  2  0
  9  8  1  1
  9 10  1  0
 11  9  1  0
 12 11  1  6
 13 12  1  0
 13  6  1  0
 14 15  2  0
 14 12  1  0
 16 17  1  0
 17 19  1  0
 17 18  2  0
 20 19  1  6
 20 21  1  0
 21 14  1  0
 22 20  1  0
 22 24  1  0
 23 22  2  0
M  END
$$$$
