HHY.pdb
     RDKit          3D

 33 35  0  0  1  0  0  0  0  0999 V2000
   27.6768  -18.3695  -17.4802 N   0  0  0  0  0  0  0  0  0  0  0  0
   26.9139  -19.5830  -17.3251 C   0  0  1  0  0  0  0  0  0  0  0  0
   27.6425  -20.4496  -16.2893 C   0  0  0  0  0  0  0  0  0  0  0  0
   27.5208  -21.8834  -16.5959 C   0  0  0  0  0  0  0  0  0  0  0  0
   26.7952  -22.4565  -17.6035 C   0  0  0  0  0  0  0  0  0  0  0  0
   26.9479  -23.8031  -17.5426 N   0  0  0  0  0  0  0  0  0  0  0  0
   27.7600  -24.0602  -16.5073 C   0  0  0  0  0  0  0  0  0  0  0  0
   28.1124  -22.8797  -15.9251 N   0  0  0  0  0  0  0  0  0  0  0  0
   25.5729  -19.2978  -16.8010 C   0  0  0  0  0  0  0  0  0  0  0  0
   25.4113  -18.5048  -15.8176 O   0  0  0  0  0  0  0  0  0  0  0  0
   24.4504  -19.9149  -17.4003 N   0  0  0  0  0  0  0  0  0  0  0  0
   23.1387  -19.6819  -16.8562 C   0  0  1  0  0  0  0  0  0  0  0  0
   22.1895  -19.2212  -17.9592 C   0  0  0  0  0  0  0  0  0  0  0  0
   22.3496  -17.7802  -18.2360 C   0  0  0  0  0  0  0  0  0  0  0  0
   21.9640  -16.7024  -17.4284 C   0  0  0  0  0  0  0  0  0  0  0  0
   22.2913  -15.5595  -18.0498 N   0  0  0  0  0  0  0  0  0  0  0  0
   22.8690  -15.8662  -19.2189 C   0  0  0  0  0  0  0  0  0  0  0  0
   22.8997  -17.2061  -19.3222 N   0  0  0  0  0  0  0  0  0  0  0  0
   22.6317  -21.0057  -16.3476 C   0  0  0  0  0  0  0  0  0  0  0  0
   22.8094  -22.0704  -16.9878 O   0  0  0  0  0  0  0  0  0  0  0  0
   19.3135  -18.8051   -9.8895 O   0  0  0  0  0  0  0  0  0  0  0  0
   20.0124  -19.6817  -10.6929 C   0  0  0  0  0  0  0  0  0  0  0  0
   21.1691  -19.2900  -11.3460 C   0  0  0  0  0  0  0  0  0  0  0  0
   21.8688  -20.1682  -12.1505 C   0  0  0  0  0  0  0  0  0  0  0  0
   21.3831  -21.4514  -12.2869 C   0  0  0  0  0  0  0  0  0  0  0  0
   22.1215  -22.3941  -13.1511 C   0  0  0  0  0  0  0  0  0  0  0  0
   21.6026  -22.4201  -14.5860 C   0  0  2  0  0  0  0  0  0  0  0  0
   21.9296  -21.1057  -15.1198 N   0  0  0  0  0  0  0  0  0  0  0  0
   20.1700  -22.7115  -14.6593 C   0  0  0  0  0  0  0  0  0  0  0  0
   19.6616  -23.8587  -14.4579 O   0  0  0  0  0  0  0  0  0  0  0  0
   20.2335  -21.8299  -11.6338 C   0  0  0  0  0  0  0  0  0  0  0  0
   19.5243  -20.9620  -10.8266 C   0  0  0  0  0  0  0  0  0  0  0  0
   19.2799  -21.6958  -14.9645 O   0  0  0  0  0  0  0  0  0  0  0  0
  2  1  1  1
  2  3  1  0
  3  4  1  0
  4  8  1  0
  5  6  1  0
  5  4  2  0
  6  7  1  0
  7  8  2  0
  9  2  1  0
  9 10  2  0
 11  9  1  0
 12 11  1  0
 12 13  1  6
 13 14  1  0
 14 15  2  0
 14 18  1  0
 15 16  1  0
 16 17  1  0
 18 17  2  0
 19 12  1  0
 20 19  2  0
 22 23  2  0
 22 21  1  0
 24 23  1  0
 25 24  2  0
 27 26  1  1
 26 25  1  0
 27 28  1  0
 28 19  1  0
 29 27  1  0
 29 33  1  0
 30 29  2  0
 31 25  1  0
 31 32  2  0
 32 22  1  0
M  END
$$$$
