HHY.pdb
     RDKit          3D

 33 35  0  0  1  0  0  0  0  0999 V2000
   27.9705   -8.6809  -20.2668 N   0  0  0  0  0  0  0  0  0  0  0  0
   26.5524   -8.4210  -20.2687 C   0  0  1  0  0  0  0  0  0  0  0  0
   25.8471   -9.7412  -19.9306 C   0  0  0  0  0  0  0  0  0  0  0  0
   25.9660  -10.7183  -21.0241 C   0  0  0  0  0  0  0  0  0  0  0  0
   25.5706  -10.5596  -22.3236 C   0  0  0  0  0  0  0  0  0  0  0  0
   25.8569  -11.6937  -23.0106 N   0  0  0  0  0  0  0  0  0  0  0  0
   26.4238  -12.5455  -22.1443 C   0  0  0  0  0  0  0  0  0  0  0  0
   26.4910  -11.9457  -20.9226 N   0  0  0  0  0  0  0  0  0  0  0  0
   26.1946   -7.4478  -19.2299 C   0  0  0  0  0  0  0  0  0  0  0  0
   26.8892   -7.3416  -18.1676 O   0  0  0  0  0  0  0  0  0  0  0  0
   25.0630   -6.6205  -19.4174 N   0  0  0  0  0  0  0  0  0  0  0  0
   24.7853   -5.5738  -18.4698 C   0  0  1  0  0  0  0  0  0  0  0  0
   24.5387   -4.2575  -19.2022 C   0  0  0  0  0  0  0  0  0  0  0  0
   25.7932   -3.7078  -19.7525 C   0  0  0  0  0  0  0  0  0  0  0  0
   26.7017   -2.8459  -19.1245 C   0  0  0  0  0  0  0  0  0  0  0  0
   27.7085   -2.5887  -19.9727 N   0  0  0  0  0  0  0  0  0  0  0  0
   27.4777   -3.2514  -21.1138 C   0  0  0  0  0  0  0  0  0  0  0  0
   26.3218   -3.9226  -20.9717 N   0  0  0  0  0  0  0  0  0  0  0  0
   23.5069   -5.9454  -17.7657 C   0  0  0  0  0  0  0  0  0  0  0  0
   22.7150   -6.7953  -18.2406 O   0  0  0  0  0  0  0  0  0  0  0  0
   17.8213   -9.4878  -12.7510 O   0  0  0  0  0  0  0  0  0  0  0  0
   18.8835   -8.9357  -13.4361 C   0  0  0  0  0  0  0  0  0  0  0  0
   20.0299   -8.5282  -12.7748 C   0  0  0  0  0  0  0  0  0  0  0  0
   21.0936   -7.9753  -13.4611 C   0  0  0  0  0  0  0  0  0  0  0  0
   20.9834   -7.8392  -14.8288 C   0  0  0  0  0  0  0  0  0  0  0  0
   22.1133   -7.2423  -15.5688 C   0  0  0  0  0  0  0  0  0  0  0  0
   21.9114   -5.7604  -15.8728 C   0  0  2  0  0  0  0  0  0  0  0  0
   23.1424   -5.3488  -16.5321 N   0  0  0  0  0  0  0  0  0  0  0  0
   21.6327   -4.9740  -14.6700 C   0  0  0  0  0  0  0  0  0  0  0  0
   22.5272   -4.4898  -13.9081 O   0  0  0  0  0  0  0  0  0  0  0  0
   19.8403   -8.2472  -15.4755 C   0  0  0  0  0  0  0  0  0  0  0  0
   18.7696   -8.8015  -14.8015 C   0  0  0  0  0  0  0  0  0  0  0  0
   20.3209   -4.7198  -14.3075 O   0  0  0  0  0  0  0  0  0  0  0  0
  2  1  1  1
  2  3  1  0
  3  4  1  0
  4  8  1  0
  5  6  1  0
  5  4  2  0
  6  7  1  0
  7  8  2  0
  9  2  1  0
  9 10  2  0
 11  9  1  0
 12 11  1  0
 12 13  1  6
 13 14  1  0
 14 15  2  0
 14 18  1  0
 15 16  1  0
 16 17  1  0
 18 17  2  0
 19 12  1  0
 20 19  2  0
 22 23  2  0
 22 21  1  0
 24 23  1  0
 25 24  2  0
 27 26  1  1
 26 25  1  0
 27 28  1  0
 28 19  1  0
 29 27  1  0
 29 33  1  0
 30 29  2  0
 31 25  1  0
 31 32  2  0
 32 22  1  0
M  END
$$$$
