HHY.pdb
     RDKit          3D

 33 35  0  0  1  0  0  0  0  0999 V2000
   21.6763  -15.7841  -19.9904 N   0  0  0  0  0  0  0  0  0  0  0  0
   21.7351  -15.8483  -18.5513 C   0  0  1  0  0  0  0  0  0  0  0  0
   20.3412  -16.2565  -18.0564 C   0  0  0  0  0  0  0  0  0  0  0  0
   19.3744  -15.1543  -18.1802 C   0  0  0  0  0  0  0  0  0  0  0  0
   19.6231  -13.8158  -18.0512 C   0  0  0  0  0  0  0  0  0  0  0  0
   18.4648  -13.1347  -18.2379 N   0  0  0  0  0  0  0  0  0  0  0  0
   17.5092  -14.0434  -18.4800 C   0  0  0  0  0  0  0  0  0  0  0  0
   18.0685  -15.2854  -18.4446 N   0  0  0  0  0  0  0  0  0  0  0  0
   22.6825  -16.8783  -18.1089 C   0  0  0  0  0  0  0  0  0  0  0  0
   22.8874  -17.9214  -18.8104 O   0  0  0  0  0  0  0  0  0  0  0  0
   23.3734  -16.7040  -16.8873 N   0  0  0  0  0  0  0  0  0  0  0  0
   24.3595  -17.6721  -16.4861 C   0  0  1  0  0  0  0  0  0  0  0  0
   25.6544  -16.9668  -16.0917 C   0  0  0  0  0  0  0  0  0  0  0  0
   26.4698  -16.6417  -17.2783 C   0  0  0  0  0  0  0  0  0  0  0  0
   26.2285  -17.0003  -18.6109 C   0  0  0  0  0  0  0  0  0  0  0  0
   27.2123  -16.5040  -19.3758 N   0  0  0  0  0  0  0  0  0  0  0  0
   28.0691  -15.8448  -18.5846 C   0  0  0  0  0  0  0  0  0  0  0  0
   27.6136  -15.9332  -17.3231 N   0  0  0  0  0  0  0  0  0  0  0  0
   23.8267  -18.3593  -15.2564 C   0  0  0  0  0  0  0  0  0  0  0  0
   23.1556  -17.7420  -14.3941 O   0  0  0  0  0  0  0  0  0  0  0  0
   22.6646  -21.4925   -7.6229 O   0  0  0  0  0  0  0  0  0  0  0  0
   23.0170  -21.0077   -8.8651 C   0  0  0  0  0  0  0  0  0  0  0  0
   22.1092  -20.3162   -9.6496 C   0  0  0  0  0  0  0  0  0  0  0  0
   22.4624  -19.8309  -10.8937 C   0  0  0  0  0  0  0  0  0  0  0  0
   23.7491  -20.0540  -11.3362 C   0  0  0  0  0  0  0  0  0  0  0  0
   24.1324  -19.5446  -12.6682 C   0  0  0  0  0  0  0  0  0  0  0  0
   23.5343  -20.3576  -13.8129 C   0  0  2  0  0  0  0  0  0  0  0  0
   24.0616  -19.7374  -15.0198 N   0  0  0  0  0  0  0  0  0  0  0  0
   22.0708  -20.3715  -13.7863 C   0  0  0  0  0  0  0  0  0  0  0  0
   21.3343  -19.6769  -14.5545 O   0  0  0  0  0  0  0  0  0  0  0  0
   24.6427  -20.7419  -10.5490 C   0  0  0  0  0  0  0  0  0  0  0  0
   24.3026  -21.2326   -9.3034 C   0  0  0  0  0  0  0  0  0  0  0  0
   21.4106  -21.1825  -12.8790 O   0  0  0  0  0  0  0  0  0  0  0  0
  2  1  1  6
  2  3  1  0
  3  4  1  0
  4  8  1  0
  5  6  1  0
  5  4  2  0
  6  7  1  0
  7  8  2  0
  9  2  1  0
  9 10  2  0
 11  9  1  0
 12 11  1  0
 12 13  1  1
 13 14  1  0
 14 15  2  0
 14 18  1  0
 15 16  1  0
 16 17  1  0
 18 17  2  0
 19 12  1  0
 20 19  2  0
 22 23  2  0
 22 21  1  0
 24 23  1  0
 25 24  2  0
 27 26  1  1
 26 25  1  0
 27 28  1  0
 28 19  1  0
 29 27  1  0
 29 33  1  0
 30 29  2  0
 31 25  1  0
 31 32  2  0
 32 22  1  0
M  END
$$$$
