HHY.pdb
     RDKit          3D

 33 35  0  0  1  0  0  0  0  0999 V2000
   24.8671  -14.2386  -19.7254 N   0  0  0  0  0  0  0  0  0  0  0  0
   23.6470  -13.5025  -19.9448 C   0  0  1  0  0  0  0  0  0  0  0  0
   22.5817  -14.0996  -19.0157 C   0  0  0  0  0  0  0  0  0  0  0  0
   22.1820  -15.4499  -19.4415 C   0  0  0  0  0  0  0  0  0  0  0  0
   22.6568  -16.1554  -20.5125 C   0  0  0  0  0  0  0  0  0  0  0  0
   22.0313  -17.3583  -20.5573 N   0  0  0  0  0  0  0  0  0  0  0  0
   21.1779  -17.3963  -19.5240 C   0  0  0  0  0  0  0  0  0  0  0  0
   21.2706  -16.2228  -18.8378 N   0  0  0  0  0  0  0  0  0  0  0  0
   23.8121  -12.0902  -19.5812 C   0  0  0  0  0  0  0  0  0  0  0  0
   24.6495  -11.7395  -18.6878 O   0  0  0  0  0  0  0  0  0  0  0  0
   23.0282  -11.1113  -20.2350 N   0  0  0  0  0  0  0  0  0  0  0  0
   23.2529   -9.7184  -19.9523 C   0  0  1  0  0  0  0  0  0  0  0  0
   22.9374   -8.8770  -21.1862 C   0  0  0  0  0  0  0  0  0  0  0  0
   23.9411   -9.0865  -22.2479 C   0  0  0  0  0  0  0  0  0  0  0  0
   25.2949   -8.7260  -22.2335 C   0  0  0  0  0  0  0  0  0  0  0  0
   25.8521   -9.0971  -23.3958 N   0  0  0  0  0  0  0  0  0  0  0  0
   24.9088   -9.6786  -24.1485 C   0  0  0  0  0  0  0  0  0  0  0  0
   23.7611   -9.6675  -23.4488 N   0  0  0  0  0  0  0  0  0  0  0  0
   22.2764   -9.3248  -18.8754 C   0  0  0  0  0  0  0  0  0  0  0  0
   21.1842   -9.9241  -18.7240 O   0  0  0  0  0  0  0  0  0  0  0  0
   18.7107   -8.7874  -11.2995 O   0  0  0  0  0  0  0  0  0  0  0  0
   19.4467   -8.9055  -12.4600 C   0  0  0  0  0  0  0  0  0  0  0  0
   20.8246   -9.0396  -12.4253 C   0  0  0  0  0  0  0  0  0  0  0  0
   21.5614   -9.1578  -13.5877 C   0  0  0  0  0  0  0  0  0  0  0  0
   20.8857   -9.1389  -14.7895 C   0  0  0  0  0  0  0  0  0  0  0  0
   21.6670   -9.2574  -16.0369 C   0  0  0  0  0  0  0  0  0  0  0  0
   21.6351   -7.9884  -16.8840 C   0  0  2  0  0  0  0  0  0  0  0  0
   22.5504   -8.2568  -17.9839 N   0  0  0  0  0  0  0  0  0  0  0  0
   22.0119   -6.7962  -16.1228 C   0  0  0  0  0  0  0  0  0  0  0  0
   23.2042   -6.3746  -15.9967 O   0  0  0  0  0  0  0  0  0  0  0  0
   19.5171   -9.0052  -14.8125 C   0  0  0  0  0  0  0  0  0  0  0  0
   18.7683   -8.8861  -13.6579 C   0  0  0  0  0  0  0  0  0  0  0  0
   21.0326   -6.0535  -15.4856 O   0  0  0  0  0  0  0  0  0  0  0  0
  2  1  1  1
  2  3  1  0
  3  4  1  0
  4  8  1  0
  5  6  1  0
  5  4  2  0
  6  7  1  0
  7  8  2  0
  9  2  1  0
  9 10  2  0
 11  9  1  0
 12 11  1  0
 12 13  1  6
 13 14  1  0
 14 15  2  0
 14 18  1  0
 15 16  1  0
 16 17  1  0
 18 17  2  0
 19 12  1  0
 20 19  2  0
 22 23  2  0
 22 21  1  0
 24 23  1  0
 25 24  2  0
 27 26  1  1
 26 25  1  0
 27 28  1  0
 28 19  1  0
 29 27  1  0
 29 33  1  0
 30 29  2  0
 31 25  1  0
 31 32  2  0
 32 22  1  0
M  END
$$$$
