HHY.pdb
     RDKit          3D

 33 35  0  0  1  0  0  0  0  0999 V2000
   21.9467  -11.5136  -18.9330 N   0  0  0  0  0  0  0  0  0  0  0  0
   21.1090  -10.4746  -18.3877 C   0  0  1  0  0  0  0  0  0  0  0  0
   21.0444  -10.6914  -16.8700 C   0  0  0  0  0  0  0  0  0  0  0  0
   20.2884  -11.9053  -16.5245 C   0  0  0  0  0  0  0  0  0  0  0  0
   20.7954  -13.1370  -16.2145 C   0  0  0  0  0  0  0  0  0  0  0  0
   19.7664  -13.9828  -15.9578 N   0  0  0  0  0  0  0  0  0  0  0  0
   18.6340  -13.2810  -16.1076 C   0  0  0  0  0  0  0  0  0  0  0  0
   18.9549  -12.0034  -16.4561 N   0  0  0  0  0  0  0  0  0  0  0  0
   21.6947   -9.1493  -18.6223 C   0  0  0  0  0  0  0  0  0  0  0  0
   22.9565   -8.9788  -18.5934 O   0  0  0  0  0  0  0  0  0  0  0  0
   20.8413   -8.0522  -18.8833 N   0  0  0  0  0  0  0  0  0  0  0  0
   21.4107   -6.7531  -19.1254 C   0  0  1  0  0  0  0  0  0  0  0  0
   20.5642   -5.9926  -20.1427 C   0  0  0  0  0  0  0  0  0  0  0  0
   21.1562   -4.6770  -20.4550 C   0  0  0  0  0  0  0  0  0  0  0  0
   20.8759   -3.4439  -19.8520 C   0  0  0  0  0  0  0  0  0  0  0  0
   21.6319   -2.4992  -20.4309 N   0  0  0  0  0  0  0  0  0  0  0  0
   22.3812   -3.0806  -21.3770 C   0  0  0  0  0  0  0  0  0  0  0  0
   22.0877   -4.3924  -21.3842 N   0  0  0  0  0  0  0  0  0  0  0  0
   21.3450   -5.9946  -17.8259 C   0  0  0  0  0  0  0  0  0  0  0  0
   20.3412   -6.0577  -17.0752 O   0  0  0  0  0  0  0  0  0  0  0  0
   22.1025  -10.3597  -13.5975 O   0  0  0  0  0  0  0  0  0  0  0  0
   22.4350   -9.0877  -14.0145 C   0  0  0  0  0  0  0  0  0  0  0  0
   23.4299   -8.8779  -14.9546 C   0  0  0  0  0  0  0  0  0  0  0  0
   23.7626   -7.6038  -15.3721 C   0  0  0  0  0  0  0  0  0  0  0  0
   23.0747   -6.5412  -14.8255 C   0  0  0  0  0  0  0  0  0  0  0  0
   23.4296   -5.1756  -15.2612 C   0  0  0  0  0  0  0  0  0  0  0  0
   22.3389   -4.5140  -16.0989 C   0  0  2  0  0  0  0  0  0  0  0  0
   22.4178   -5.1744  -17.3940 N   0  0  0  0  0  0  0  0  0  0  0  0
   22.5116   -3.0640  -16.2005 C   0  0  0  0  0  0  0  0  0  0  0  0
   22.6806   -2.4380  -17.2936 O   0  0  0  0  0  0  0  0  0  0  0  0
   22.0885   -6.7608  -13.8925 C   0  0  0  0  0  0  0  0  0  0  0  0
   21.7459   -8.0293  -13.4664 C   0  0  0  0  0  0  0  0  0  0  0  0
   22.4945   -2.2908  -15.0521 O   0  0  0  0  0  0  0  0  0  0  0  0
  2  1  1  6
  2  3  1  0
  3  4  1  0
  4  8  1  0
  5  6  1  0
  5  4  2  0
  6  7  1  0
  7  8  2  0
  9  2  1  0
  9 10  2  0
 11  9  1  0
 12 11  1  0
 12 13  1  6
 13 14  1  0
 14 15  2  0
 14 18  1  0
 15 16  1  0
 16 17  1  0
 18 17  2  0
 19 12  1  0
 20 19  2  0
 22 23  2  0
 22 21  1  0
 24 23  1  0
 25 24  2  0
 27 26  1  1
 26 25  1  0
 27 28  1  0
 28 19  1  0
 29 27  1  0
 29 33  1  0
 30 29  2  0
 31 25  1  0
 31 32  2  0
 32 22  1  0
M  END
$$$$
