HHY.pdb
     RDKit          3D

 33 35  0  0  1  0  0  0  0  0999 V2000
   29.8866  -37.0704   -7.1976 N   0  0  0  0  0  0  0  0  0  0  0  0
   29.5837  -36.2799   -6.0305 C   0  0  1  0  0  0  0  0  0  0  0  0
   28.4853  -37.0177   -5.2535 C   0  0  0  0  0  0  0  0  0  0  0  0
   27.1950  -36.9733   -5.9591 C   0  0  0  0  0  0  0  0  0  0  0  0
   26.4133  -35.8749   -6.1882 C   0  0  0  0  0  0  0  0  0  0  0  0
   25.3065  -36.2593   -6.8719 N   0  0  0  0  0  0  0  0  0  0  0  0
   25.4028  -37.5827   -7.0636 C   0  0  0  0  0  0  0  0  0  0  0  0
   26.5642  -38.0219   -6.5023 N   0  0  0  0  0  0  0  0  0  0  0  0
   30.7535  -36.1714   -5.1506 C   0  0  0  0  0  0  0  0  0  0  0  0
   31.4831  -37.1864   -4.9063 O   0  0  0  0  0  0  0  0  0  0  0  0
   31.0686  -34.9210   -4.5699 N   0  0  0  0  0  0  0  0  0  0  0  0
   32.3018  -34.7670   -3.8445 C   0  0  1  0  0  0  0  0  0  0  0  0
   33.1975  -33.7496   -4.5463 C   0  0  0  0  0  0  0  0  0  0  0  0
   33.7872  -34.3138   -5.7762 C   0  0  0  0  0  0  0  0  0  0  0  0
   33.6127  -35.6014   -6.3000 C   0  0  0  0  0  0  0  0  0  0  0  0
   34.3240  -35.7060   -7.4324 N   0  0  0  0  0  0  0  0  0  0  0  0
   34.9433  -34.5383   -7.6502 C   0  0  0  0  0  0  0  0  0  0  0  0
   34.6140  -33.7060   -6.6474 N   0  0  0  0  0  0  0  0  0  0  0  0
   31.9500  -34.2028   -2.4931 C   0  0  0  0  0  0  0  0  0  0  0  0
   31.0181  -33.3752   -2.3459 O   0  0  0  0  0  0  0  0  0  0  0  0
   28.6354  -32.5723    4.9683 O   0  0  0  0  0  0  0  0  0  0  0  0
   29.1716  -33.0097    3.7752 C   0  0  0  0  0  0  0  0  0  0  0  0
   29.2008  -32.1911    2.6587 C   0  0  0  0  0  0  0  0  0  0  0  0
   29.7379  -32.6295    1.4639 C   0  0  0  0  0  0  0  0  0  0  0  0
   30.2468  -33.9099    1.4119 C   0  0  0  0  0  0  0  0  0  0  0  0
   30.8162  -34.3885    0.1362 C   0  0  0  0  0  0  0  0  0  0  0  0
   32.2845  -34.0119   -0.0407 C   0  0  2  0  0  0  0  0  0  0  0  0
   32.6591  -34.5840   -1.3259 N   0  0  0  0  0  0  0  0  0  0  0  0
   33.1247  -34.5005    1.0538 C   0  0  0  0  0  0  0  0  0  0  0  0
   33.6888  -35.6392    1.0698 O   0  0  0  0  0  0  0  0  0  0  0  0
   30.2127  -34.7145    2.5267 C   0  0  0  0  0  0  0  0  0  0  0  0
   29.6787  -34.2888    3.7273 C   0  0  0  0  0  0  0  0  0  0  0  0
   33.3426  -33.6972    2.1602 O   0  0  0  0  0  0  0  0  0  0  0  0
  2  1  1  6
  2  3  1  0
  3  4  1  0
  4  8  1  0
  5  6  1  0
  5  4  2  0
  6  7  1  0
  7  8  2  0
  9  2  1  0
  9 10  2  0
 11  9  1  0
 12 11  1  0
 12 13  1  6
 13 14  1  0
 14 15  2  0
 14 18  1  0
 15 16  1  0
 16 17  1  0
 18 17  2  0
 19 12  1  0
 20 19  2  0
 22 23  2  0
 22 21  1  0
 24 23  1  0
 25 24  2  0
 27 26  1  1
 26 25  1  0
 27 28  1  0
 28 19  1  0
 29 27  1  0
 29 33  1  0
 30 29  2  0
 31 25  1  0
 31 32  2  0
 32 22  1  0
M  END
$$$$
