HHY.pdb
     RDKit          3D

 33 35  0  0  1  0  0  0  0  0999 V2000
   26.7865  -10.7837  -21.3264 N   0  0  0  0  0  0  0  0  0  0  0  0
   26.2043   -9.5819  -20.7829 C   0  0  1  0  0  0  0  0  0  0  0  0
   25.1520   -9.0916  -21.7864 C   0  0  0  0  0  0  0  0  0  0  0  0
   25.5542   -7.8284  -22.4244 C   0  0  0  0  0  0  0  0  0  0  0  0
   25.3762   -6.5621  -21.9398 C   0  0  0  0  0  0  0  0  0  0  0  0
   25.8876   -5.6758  -22.8304 N   0  0  0  0  0  0  0  0  0  0  0  0
   26.3771   -6.3873  -23.8559 C   0  0  0  0  0  0  0  0  0  0  0  0
   26.1722   -7.7110  -23.6063 N   0  0  0  0  0  0  0  0  0  0  0  0
   25.5155   -9.8574  -19.5164 C   0  0  0  0  0  0  0  0  0  0  0  0
   24.7592  -10.8747  -19.3923 O   0  0  0  0  0  0  0  0  0  0  0  0
   25.6983   -8.9780  -18.4240 N   0  0  0  0  0  0  0  0  0  0  0  0
   25.1142   -9.3003  -17.1491 C   0  0  1  0  0  0  0  0  0  0  0  0
   26.1815   -9.2558  -16.0588 C   0  0  0  0  0  0  0  0  0  0  0  0
   27.0292  -10.4637  -16.0899 C   0  0  0  0  0  0  0  0  0  0  0  0
   26.9758  -11.5274  -17.0001 C   0  0  0  0  0  0  0  0  0  0  0  0
   27.9206  -12.4219  -16.6735 N   0  0  0  0  0  0  0  0  0  0  0  0
   28.5724  -11.9709  -15.5935 C   0  0  0  0  0  0  0  0  0  0  0  0
   28.0284  -10.7909  -15.2492 N   0  0  0  0  0  0  0  0  0  0  0  0
   24.1083   -8.2225  -16.8408 C   0  0  0  0  0  0  0  0  0  0  0  0
   24.3095   -7.0235  -17.1523 O   0  0  0  0  0  0  0  0  0  0  0  0
   18.4459  -12.7217  -15.0317 O   0  0  0  0  0  0  0  0  0  0  0  0
   18.9958  -11.5344  -15.4681 C   0  0  0  0  0  0  0  0  0  0  0  0
   18.5869  -10.3191  -14.9451 C   0  0  0  0  0  0  0  0  0  0  0  0
   19.1378   -9.1303  -15.3823 C   0  0  0  0  0  0  0  0  0  0  0  0
   20.1105   -9.1856  -16.3580 C   0  0  0  0  0  0  0  0  0  0  0  0
   20.6992   -7.9185  -16.8360 C   0  0  0  0  0  0  0  0  0  0  0  0
   21.8966   -7.4658  -16.0051 C   0  0  2  0  0  0  0  0  0  0  0  0
   22.8873   -8.5176  -16.1833 N   0  0  0  0  0  0  0  0  0  0  0  0
   21.5548   -7.2538  -14.5977 C   0  0  0  0  0  0  0  0  0  0  0  0
   21.9869   -7.9694  -13.6404 O   0  0  0  0  0  0  0  0  0  0  0  0
   20.5092  -10.3979  -16.8705 C   0  0  0  0  0  0  0  0  0  0  0  0
   19.9667  -11.5938  -16.4424 C   0  0  0  0  0  0  0  0  0  0  0  0
   20.7088   -6.2151  -14.2479 O   0  0  0  0  0  0  0  0  0  0  0  0
  2  1  1  6
  2  3  1  0
  3  4  1  0
  4  8  1  0
  5  6  1  0
  5  4  2  0
  6  7  1  0
  7  8  2  0
  9  2  1  0
  9 10  2  0
 11  9  1  0
 12 11  1  0
 12 13  1  1
 13 14  1  0
 14 15  2  0
 14 18  1  0
 15 16  1  0
 16 17  1  0
 18 17  2  0
 19 12  1  0
 20 19  2  0
 22 23  2  0
 22 21  1  0
 24 23  1  0
 25 24  2  0
 27 26  1  6
 26 25  1  0
 27 28  1  0
 28 19  1  0
 29 27  1  0
 29 33  1  0
 30 29  2  0
 31 25  1  0
 31 32  2  0
 32 22  1  0
M  END
$$$$
