HHY.pdb
     RDKit          3D

 33 35  0  0  1  0  0  0  0  0999 V2000
   29.4365  -26.3761  -17.7821 N   0  0  0  0  0  0  0  0  0  0  0  0
   28.1466  -25.8211  -17.4555 C   0  0  1  0  0  0  0  0  0  0  0  0
   27.5561  -26.6754  -16.3258 C   0  0  0  0  0  0  0  0  0  0  0  0
   27.0531  -27.9652  -16.8238 C   0  0  0  0  0  0  0  0  0  0  0  0
   25.7478  -28.3348  -16.9958 C   0  0  0  0  0  0  0  0  0  0  0  0
   25.7107  -29.6037  -17.4742 N   0  0  0  0  0  0  0  0  0  0  0  0
   26.9809  -30.0148  -17.5968 C   0  0  0  0  0  0  0  0  0  0  0  0
   27.8065  -29.0072  -17.1968 N   0  0  0  0  0  0  0  0  0  0  0  0
   28.2766  -24.4484  -16.9525 C   0  0  0  0  0  0  0  0  0  0  0  0
   29.0993  -24.1696  -16.0210 O   0  0  0  0  0  0  0  0  0  0  0  0
   27.4752  -23.4272  -17.5137 N   0  0  0  0  0  0  0  0  0  0  0  0
   27.5995  -22.0794  -17.0251 C   0  0  1  0  0  0  0  0  0  0  0  0
   26.9655  -21.1044  -18.0136 C   0  0  0  0  0  0  0  0  0  0  0  0
   27.0353  -19.7165  -17.5160 C   0  0  0  0  0  0  0  0  0  0  0  0
   25.9705  -18.8559  -17.2189 C   0  0  0  0  0  0  0  0  0  0  0  0
   26.4683  -17.6849  -16.7944 N   0  0  0  0  0  0  0  0  0  0  0  0
   27.8054  -17.7654  -16.8094 C   0  0  0  0  0  0  0  0  0  0  0  0
   28.1376  -18.9927  -17.2455 N   0  0  0  0  0  0  0  0  0  0  0  0
   26.8108  -22.0011  -15.7444 C   0  0  0  0  0  0  0  0  0  0  0  0
   25.7277  -22.6180  -15.5977 O   0  0  0  0  0  0  0  0  0  0  0  0
   24.9174  -19.8920   -7.4032 O   0  0  0  0  0  0  0  0  0  0  0  0
   25.5341  -20.0820   -8.6221 C   0  0  0  0  0  0  0  0  0  0  0  0
   25.6796  -19.0402   -9.5229 C   0  0  0  0  0  0  0  0  0  0  0  0
   26.2973  -19.2309  -10.7436 C   0  0  0  0  0  0  0  0  0  0  0  0
   26.7677  -20.4918  -11.0433 C   0  0  0  0  0  0  0  0  0  0  0  0
   27.4228  -20.7055  -12.3493 C   0  0  0  0  0  0  0  0  0  0  0  0
   26.4529  -21.1600  -13.4364 C   0  0  2  0  0  0  0  0  0  0  0  0
   27.2598  -21.2244  -14.6464 N   0  0  0  0  0  0  0  0  0  0  0  0
   25.3066  -20.2606  -13.5772 C   0  0  0  0  0  0  0  0  0  0  0  0
   25.3130  -19.1962  -14.2715 O   0  0  0  0  0  0  0  0  0  0  0  0
   26.6180  -21.5193  -10.1415 C   0  0  0  0  0  0  0  0  0  0  0  0
   26.0024  -21.3425   -8.9177 C   0  0  0  0  0  0  0  0  0  0  0  0
   24.1207  -20.5566  -12.9269 O   0  0  0  0  0  0  0  0  0  0  0  0
  2  1  1  1
  2  3  1  0
  3  4  1  0
  4  8  1  0
  5  6  1  0
  5  4  2  0
  6  7  1  0
  7  8  2  0
  9  2  1  0
  9 10  2  0
 11  9  1  0
 12 11  1  0
 12 13  1  6
 13 14  1  0
 14 15  2  0
 14 18  1  0
 15 16  1  0
 16 17  1  0
 18 17  2  0
 19 12  1  0
 20 19  2  0
 22 23  2  0
 22 21  1  0
 24 23  1  0
 25 24  2  0
 27 26  1  1
 26 25  1  0
 27 28  1  0
 28 19  1  0
 29 27  1  0
 29 33  1  0
 30 29  2  0
 31 25  1  0
 31 32  2  0
 32 22  1  0
M  END
$$$$
