HHY.pdb
     RDKit          3D

 33 35  0  0  1  0  0  0  0  0999 V2000
   24.0429  -20.1609  -20.0311 N   0  0  0  0  0  0  0  0  0  0  0  0
   24.7018  -19.0695  -20.7043 C   0  0  1  0  0  0  0  0  0  0  0  0
   23.8373  -18.6928  -21.9148 C   0  0  0  0  0  0  0  0  0  0  0  0
   23.7648  -19.7878  -22.8947 C   0  0  0  0  0  0  0  0  0  0  0  0
   24.6974  -20.1177  -23.8389 C   0  0  0  0  0  0  0  0  0  0  0  0
   24.2503  -21.1886  -24.5414 N   0  0  0  0  0  0  0  0  0  0  0  0
   23.0527  -21.5177  -24.0365 C   0  0  0  0  0  0  0  0  0  0  0  0
   22.7540  -20.6563  -23.0238 N   0  0  0  0  0  0  0  0  0  0  0  0
   24.7869  -17.8898  -19.8351 C   0  0  0  0  0  0  0  0  0  0  0  0
   23.7872  -17.5185  -19.1387 O   0  0  0  0  0  0  0  0  0  0  0  0
   25.9972  -17.1608  -19.7748 N   0  0  0  0  0  0  0  0  0  0  0  0
   26.0862  -16.0038  -18.9239 C   0  0  1  0  0  0  0  0  0  0  0  0
   27.5478  -15.6995  -18.6064 C   0  0  0  0  0  0  0  0  0  0  0  0
   27.6724  -14.4988  -17.7570 C   0  0  0  0  0  0  0  0  0  0  0  0
   26.6433  -13.6943  -17.2506 C   0  0  0  0  0  0  0  0  0  0  0  0
   27.1866  -12.7051  -16.5257 N   0  0  0  0  0  0  0  0  0  0  0  0
   28.5184  -12.8474  -16.5502 C   0  0  0  0  0  0  0  0  0  0  0  0
   28.8016  -13.9304  -17.2943 N   0  0  0  0  0  0  0  0  0  0  0  0
   25.5420  -14.8384  -19.7075 C   0  0  0  0  0  0  0  0  0  0  0  0
   25.8011  -14.6839  -20.9258 O   0  0  0  0  0  0  0  0  0  0  0  0
   18.1929  -14.5365  -18.7874 O   0  0  0  0  0  0  0  0  0  0  0  0
   19.4378  -14.2505  -19.3077 C   0  0  0  0  0  0  0  0  0  0  0  0
   19.7964  -12.9547  -19.6396 C   0  0  0  0  0  0  0  0  0  0  0  0
   21.0433  -12.6686  -20.1606 C   0  0  0  0  0  0  0  0  0  0  0  0
   21.9259  -13.7121  -20.3426 C   0  0  0  0  0  0  0  0  0  0  0  0
   23.2583  -13.4155  -20.9060 C   0  0  0  0  0  0  0  0  0  0  0  0
   24.1993  -12.7592  -19.8996 C   0  0  2  0  0  0  0  0  0  0  0  0
   24.7113  -13.8630  -19.1002 N   0  0  0  0  0  0  0  0  0  0  0  0
   23.5298  -11.7438  -19.0851 C   0  0  0  0  0  0  0  0  0  0  0  0
   23.3794  -11.8215  -17.8255 O   0  0  0  0  0  0  0  0  0  0  0  0
   21.5595  -14.9952  -20.0096 C   0  0  0  0  0  0  0  0  0  0  0  0
   20.3162  -15.2951  -19.4879 C   0  0  0  0  0  0  0  0  0  0  0  0
   23.0148  -10.6107  -19.6913 O   0  0  0  0  0  0  0  0  0  0  0  0
  2  1  1  1
  2  3  1  0
  3  4  1  0
  4  8  1  0
  5  6  1  0
  5  4  2  0
  6  7  1  0
  7  8  2  0
  9  2  1  0
  9 10  2  0
 11  9  1  0
 12 11  1  0
 12 13  1  6
 13 14  1  0
 14 15  2  0
 14 18  1  0
 15 16  1  0
 16 17  1  0
 18 17  2  0
 19 12  1  0
 20 19  2  0
 22 23  2  0
 22 21  1  0
 24 23  1  0
 25 24  2  0
 27 26  1  6
 26 25  1  0
 27 28  1  0
 28 19  1  0
 29 27  1  0
 29 33  1  0
 30 29  2  0
 31 25  1  0
 31 32  2  0
 32 22  1  0
M  END
$$$$
