HHY.pdb
     RDKit          3D

 33 35  0  0  1  0  0  0  0  0999 V2000
   22.3446  -18.7468  -18.9182 N   0  0  0  0  0  0  0  0  0  0  0  0
   21.2190  -17.9124  -19.2578 C   0  0  1  0  0  0  0  0  0  0  0  0
   19.9681  -18.5697  -18.6595 C   0  0  0  0  0  0  0  0  0  0  0  0
   19.6515  -19.8439  -19.3233 C   0  0  0  0  0  0  0  0  0  0  0  0
   18.6135  -20.0981  -20.1766 C   0  0  0  0  0  0  0  0  0  0  0  0
   18.6755  -21.3954  -20.5682 N   0  0  0  0  0  0  0  0  0  0  0  0
   19.7416  -21.9382  -19.9629 C   0  0  0  0  0  0  0  0  0  0  0  0
   20.3418  -20.9842  -19.1973 N   0  0  0  0  0  0  0  0  0  0  0  0
   21.3513  -16.5802  -18.6563 C   0  0  0  0  0  0  0  0  0  0  0  0
   21.9857  -16.4171  -17.5640 O   0  0  0  0  0  0  0  0  0  0  0  0
   20.7646  -15.4678  -19.3031 N   0  0  0  0  0  0  0  0  0  0  0  0
   20.9289  -14.1532  -18.7413 C   0  0  1  0  0  0  0  0  0  0  0  0
   20.9371  -13.1070  -19.8526 C   0  0  0  0  0  0  0  0  0  0  0  0
   22.2652  -13.0133  -20.4899 C   0  0  0  0  0  0  0  0  0  0  0  0
   23.4617  -13.6116  -20.0738 C   0  0  0  0  0  0  0  0  0  0  0  0
   24.4345  -13.2728  -20.9329 N   0  0  0  0  0  0  0  0  0  0  0  0
   23.9060  -12.4839  -21.8779 C   0  0  0  0  0  0  0  0  0  0  0  0
   22.5990  -12.3332  -21.6026 N   0  0  0  0  0  0  0  0  0  0  0  0
   19.7216  -13.8885  -17.8806 C   0  0  0  0  0  0  0  0  0  0  0  0
   18.5952  -14.3668  -18.1589 O   0  0  0  0  0  0  0  0  0  0  0  0
   18.9028  -18.9021  -14.0399 O   0  0  0  0  0  0  0  0  0  0  0  0
   18.9263  -17.5285  -14.1620 C   0  0  0  0  0  0  0  0  0  0  0  0
   20.1187  -16.8425  -14.3213 C   0  0  0  0  0  0  0  0  0  0  0  0
   20.1419  -15.4668  -14.4435 C   0  0  0  0  0  0  0  0  0  0  0  0
   18.9407  -14.7911  -14.4027 C   0  0  0  0  0  0  0  0  0  0  0  0
   18.9577  -13.3196  -14.5253 C   0  0  0  0  0  0  0  0  0  0  0  0
   18.6076  -12.8336  -15.9290 C   0  0  2  0  0  0  0  0  0  0  0  0
   19.8066  -13.0850  -16.7155 N   0  0  0  0  0  0  0  0  0  0  0  0
   18.2103  -11.4249  -15.9520 C   0  0  0  0  0  0  0  0  0  0  0  0
   18.9542  -10.4779  -16.3581 O   0  0  0  0  0  0  0  0  0  0  0  0
   17.7623  -15.4822  -14.2441 C   0  0  0  0  0  0  0  0  0  0  0  0
   17.7249  -16.8574  -14.1206 C   0  0  0  0  0  0  0  0  0  0  0  0
   16.9489  -11.0625  -15.5112 O   0  0  0  0  0  0  0  0  0  0  0  0
  2  1  1  1
  2  3  1  0
  3  4  1  0
  4  8  1  0
  5  6  1  0
  5  4  2  0
  6  7  1  0
  7  8  2  0
  9  2  1  0
  9 10  2  0
 11  9  1  0
 12 11  1  0
 12 13  1  6
 13 14  1  0
 14 15  2  0
 14 18  1  0
 15 16  1  0
 16 17  1  0
 18 17  2  0
 19 12  1  0
 20 19  2  0
 22 23  2  0
 22 21  1  0
 24 23  1  0
 25 24  2  0
 27 26  1  1
 26 25  1  0
 27 28  1  0
 28 19  1  0
 29 27  1  0
 29 33  1  0
 30 29  2  0
 31 25  1  0
 31 32  2  0
 32 22  1  0
M  END
$$$$
