HHY.pdb
     RDKit          3D

 33 35  0  0  1  0  0  0  0  0999 V2000
   22.4845  -15.0249  -18.5883 N   0  0  0  0  0  0  0  0  0  0  0  0
   22.0314  -13.6815  -18.8503 C   0  0  1  0  0  0  0  0  0  0  0  0
   20.7234  -13.4824  -18.0731 C   0  0  0  0  0  0  0  0  0  0  0  0
   19.6355  -14.3111  -18.6156 C   0  0  0  0  0  0  0  0  0  0  0  0
   19.0932  -15.4356  -18.0574 C   0  0  0  0  0  0  0  0  0  0  0  0
   18.1138  -15.9011  -18.8724 N   0  0  0  0  0  0  0  0  0  0  0  0
   18.0511  -15.0725  -19.9245 C   0  0  0  0  0  0  0  0  0  0  0  0
   18.9868  -14.0947  -19.7667 N   0  0  0  0  0  0  0  0  0  0  0  0
   22.9975  -12.6943  -18.3539 C   0  0  0  0  0  0  0  0  0  0  0  0
   23.6165  -12.8812  -17.2566 O   0  0  0  0  0  0  0  0  0  0  0  0
   23.2393  -11.5230  -19.1086 N   0  0  0  0  0  0  0  0  0  0  0  0
   24.2290  -10.5808  -18.6575 C   0  0  1  0  0  0  0  0  0  0  0  0
   25.2654  -10.3464  -19.7533 C   0  0  0  0  0  0  0  0  0  0  0  0
   26.2185  -11.4702  -19.8380 C   0  0  0  0  0  0  0  0  0  0  0  0
   26.2939  -12.5969  -19.0088 C   0  0  0  0  0  0  0  0  0  0  0  0
   27.3022  -13.3750  -19.4297 N   0  0  0  0  0  0  0  0  0  0  0  0
   27.8709  -12.7897  -20.4921 C   0  0  0  0  0  0  0  0  0  0  0  0
   27.2114  -11.6429  -20.7305 N   0  0  0  0  0  0  0  0  0  0  0  0
   23.5176   -9.2745  -18.4215 C   0  0  0  0  0  0  0  0  0  0  0  0
   22.5788   -8.8914  -19.1612 O   0  0  0  0  0  0  0  0  0  0  0  0
   18.3013  -10.3050  -14.5123 O   0  0  0  0  0  0  0  0  0  0  0  0
   19.4115   -9.5390  -14.8007 C   0  0  0  0  0  0  0  0  0  0  0  0
   20.6714  -10.1067  -14.8903 C   0  0  0  0  0  0  0  0  0  0  0  0
   21.7830   -9.3392  -15.1792 C   0  0  0  0  0  0  0  0  0  0  0  0
   21.6044   -7.9864  -15.3771 C   0  0  0  0  0  0  0  0  0  0  0  0
   22.7889   -7.1580  -15.6792 C   0  0  0  0  0  0  0  0  0  0  0  0
   23.1619   -7.1669  -17.1589 C   0  0  2  0  0  0  0  0  0  0  0  0
   23.8795   -8.4190  -17.3503 N   0  0  0  0  0  0  0  0  0  0  0  0
   23.9603   -6.0018  -17.5432 C   0  0  0  0  0  0  0  0  0  0  0  0
   25.2223   -6.0166  -17.6930 O   0  0  0  0  0  0  0  0  0  0  0  0
   20.3487   -7.4330  -15.2858 C   0  0  0  0  0  0  0  0  0  0  0  0
   19.2290   -8.1887  -14.9976 C   0  0  0  0  0  0  0  0  0  0  0  0
   23.3346   -4.7873  -17.7674 O   0  0  0  0  0  0  0  0  0  0  0  0
  2  1  1  1
  2  3  1  0
  3  4  1  0
  4  8  1  0
  5  6  1  0
  5  4  2  0
  6  7  1  0
  7  8  2  0
  9  2  1  0
  9 10  2  0
 11  9  1  0
 12 11  1  0
 12 13  1  6
 13 14  1  0
 14 15  2  0
 14 18  1  0
 15 16  1  0
 16 17  1  0
 18 17  2  0
 19 12  1  0
 20 19  2  0
 22 23  2  0
 22 21  1  0
 24 23  1  0
 25 24  2  0
 27 26  1  1
 26 25  1  0
 27 28  1  0
 28 19  1  0
 29 27  1  0
 29 33  1  0
 30 29  2  0
 31 25  1  0
 31 32  2  0
 32 22  1  0
M  END
$$$$
