HHY.pdb
     RDKit          3D

 33 35  0  0  1  0  0  0  0  0999 V2000
   26.8027  -18.3712  -19.8023 N   0  0  0  0  0  0  0  0  0  0  0  0
   26.2843  -17.9865  -18.5132 C   0  0  1  0  0  0  0  0  0  0  0  0
   25.3699  -16.7741  -18.7335 C   0  0  0  0  0  0  0  0  0  0  0  0
   26.1407  -15.5572  -19.0328 C   0  0  0  0  0  0  0  0  0  0  0  0
   27.5003  -15.4382  -19.1198 C   0  0  0  0  0  0  0  0  0  0  0  0
   27.8097  -14.1506  -19.4138 N   0  0  0  0  0  0  0  0  0  0  0  0
   26.6527  -13.4798  -19.5077 C   0  0  0  0  0  0  0  0  0  0  0  0
   25.6263  -14.3448  -19.2734 N   0  0  0  0  0  0  0  0  0  0  0  0
   25.4674  -19.0592  -17.9333 C   0  0  0  0  0  0  0  0  0  0  0  0
   24.6454  -19.7150  -18.6519 O   0  0  0  0  0  0  0  0  0  0  0  0
   25.5997  -19.3632  -16.5585 N   0  0  0  0  0  0  0  0  0  0  0  0
   24.8732  -20.4753  -16.0053 C   0  0  1  0  0  0  0  0  0  0  0  0
   25.7769  -21.2788  -15.0739 C   0  0  0  0  0  0  0  0  0  0  0  0
   26.8119  -22.0096  -15.8312 C   0  0  0  0  0  0  0  0  0  0  0  0
   27.0738  -21.9488  -17.2062 C   0  0  0  0  0  0  0  0  0  0  0  0
   28.0976  -22.7688  -17.4865 N   0  0  0  0  0  0  0  0  0  0  0  0
   28.4974  -23.3483  -16.3469 C   0  0  0  0  0  0  0  0  0  0  0  0
   27.7171  -22.8849  -15.3553 N   0  0  0  0  0  0  0  0  0  0  0  0
   23.7593  -19.9014  -15.1697 C   0  0  0  0  0  0  0  0  0  0  0  0
   23.9040  -18.8393  -14.5170 O   0  0  0  0  0  0  0  0  0  0  0  0
   16.9835  -15.6445  -12.7667 O   0  0  0  0  0  0  0  0  0  0  0  0
   18.0310  -16.3572  -13.3118 C   0  0  0  0  0  0  0  0  0  0  0  0
   17.8440  -17.1819  -14.4085 C   0  0  0  0  0  0  0  0  0  0  0  0
   18.8933  -17.8956  -14.9542 C   0  0  0  0  0  0  0  0  0  0  0  0
   20.1380  -17.7647  -14.3755 C   0  0  0  0  0  0  0  0  0  0  0  0
   21.2633  -18.5301  -14.9486 C   0  0  0  0  0  0  0  0  0  0  0  0
   21.4264  -19.9117  -14.3212 C   0  0  2  0  0  0  0  0  0  0  0  0
   22.4957  -20.5389  -15.0846 N   0  0  0  0  0  0  0  0  0  0  0  0
   20.1878  -20.6912  -14.3515 C   0  0  0  0  0  0  0  0  0  0  0  0
   19.8282  -21.4263  -15.3240 O   0  0  0  0  0  0  0  0  0  0  0  0
   20.3125  -16.9430  -13.2866 C   0  0  0  0  0  0  0  0  0  0  0  0
   19.2722  -16.2240  -12.7312 C   0  0  0  0  0  0  0  0  0  0  0  0
   19.3272  -20.6508  -13.2678 O   0  0  0  0  0  0  0  0  0  0  0  0
  2  1  1  6
  2  3  1  0
  3  4  1  0
  4  8  1  0
  5  6  1  0
  5  4  2  0
  6  7  1  0
  7  8  2  0
  9  2  1  0
  9 10  2  0
 11  9  1  0
 12 11  1  0
 12 13  1  1
 13 14  1  0
 14 15  2  0
 14 18  1  0
 15 16  1  0
 16 17  1  0
 18 17  2  0
 19 12  1  0
 20 19  2  0
 22 23  2  0
 22 21  1  0
 24 23  1  0
 25 24  2  0
 27 26  1  6
 26 25  1  0
 27 28  1  0
 28 19  1  0
 29 27  1  0
 29 33  1  0
 30 29  2  0
 31 25  1  0
 31 32  2  0
 32 22  1  0
M  END
$$$$
