HHY.pdb
     RDKit          3D

 33 35  0  0  1  0  0  0  0  0999 V2000
   24.0665  -19.0315  -16.1062 N   0  0  0  0  0  0  0  0  0  0  0  0
   23.7615  -18.6755  -14.7428 C   0  0  1  0  0  0  0  0  0  0  0  0
   22.2911  -18.2382  -14.7045 C   0  0  0  0  0  0  0  0  0  0  0  0
   22.0509  -17.0593  -15.5513 C   0  0  0  0  0  0  0  0  0  0  0  0
   22.9694  -16.3741  -16.2975 C   0  0  0  0  0  0  0  0  0  0  0  0
   22.3437  -15.3514  -16.9321 N   0  0  0  0  0  0  0  0  0  0  0  0
   21.0507  -15.4036  -16.5817 C   0  0  0  0  0  0  0  0  0  0  0  0
   20.8705  -16.4539  -15.7325 N   0  0  0  0  0  0  0  0  0  0  0  0
   23.9036  -19.8336  -13.8524 C   0  0  0  0  0  0  0  0  0  0  0  0
   22.8796  -20.4636  -13.4322 O   0  0  0  0  0  0  0  0  0  0  0  0
   25.1970  -20.2499  -13.4600 N   0  0  0  0  0  0  0  0  0  0  0  0
   25.3562  -21.4868  -12.7421 C   0  0  1  0  0  0  0  0  0  0  0  0
   26.2877  -22.4208  -13.5100 C   0  0  0  0  0  0  0  0  0  0  0  0
   25.6467  -22.9227  -14.7412 C   0  0  0  0  0  0  0  0  0  0  0  0
   25.8943  -22.5258  -16.0618 C   0  0  0  0  0  0  0  0  0  0  0  0
   25.0981  -23.2299  -16.8799 N   0  0  0  0  0  0  0  0  0  0  0  0
   24.3545  -24.0580  -16.1343 C   0  0  0  0  0  0  0  0  0  0  0  0
   24.6920  -23.8657  -14.8474 N   0  0  0  0  0  0  0  0  0  0  0  0
   26.0270  -21.1540  -11.4353 C   0  0  0  0  0  0  0  0  0  0  0  0
   27.2243  -20.7814  -11.3844 O   0  0  0  0  0  0  0  0  0  0  0  0
   29.6176  -19.2667   -4.0829 O   0  0  0  0  0  0  0  0  0  0  0  0
   28.9529  -19.4611   -5.2757 C   0  0  0  0  0  0  0  0  0  0  0  0
   29.4667  -20.2933   -6.2561 C   0  0  0  0  0  0  0  0  0  0  0  0
   28.8008  -20.4877   -7.4506 C   0  0  0  0  0  0  0  0  0  0  0  0
   27.6052  -19.8282   -7.6422 C   0  0  0  0  0  0  0  0  0  0  0  0
   26.8909  -20.0251   -8.9196 C   0  0  0  0  0  0  0  0  0  0  0  0
   26.0848  -21.3204   -8.9591 C   0  0  2  0  0  0  0  0  0  0  0  0
   25.3319  -21.2478  -10.2031 N   0  0  0  0  0  0  0  0  0  0  0  0
   25.2176  -21.4773   -7.7903 C   0  0  0  0  0  0  0  0  0  0  0  0
   25.6067  -21.9208   -6.6647 O   0  0  0  0  0  0  0  0  0  0  0  0
   27.1040  -19.0040   -6.6620 C   0  0  0  0  0  0  0  0  0  0  0  0
   27.7595  -18.8008   -5.4633 C   0  0  0  0  0  0  0  0  0  0  0  0
   23.8804  -21.1295   -7.8788 O   0  0  0  0  0  0  0  0  0  0  0  0
  2  1  1  6
  2  3  1  0
  3  4  1  0
  4  8  1  0
  5  6  1  0
  5  4  2  0
  6  7  1  0
  7  8  2  0
  9  2  1  0
  9 10  2  0
 11  9  1  0
 12 11  1  0
 12 13  1  6
 13 14  1  0
 14 15  2  0
 14 18  1  0
 15 16  1  0
 16 17  1  0
 18 17  2  0
 19 12  1  0
 20 19  2  0
 22 23  2  0
 22 21  1  0
 24 23  1  0
 25 24  2  0
 27 26  1  1
 26 25  1  0
 27 28  1  0
 28 19  1  0
 29 27  1  0
 29 33  1  0
 30 29  2  0
 31 25  1  0
 31 32  2  0
 32 22  1  0
M  END
$$$$
