PMV.pdb
     RDKit          3D

 23 23  0  0  1  0  0  0  0  0999 V2000
    7.8359  -16.9704   20.7848 N   0  0  0  0  0  0  0  0  0  0  0  0
    7.6486  -17.1945   19.3633 C   0  0  0  0  0  0  0  0  0  0  0  0
    8.0534  -15.9067   18.6715 C   0  0  0  0  0  0  0  0  0  0  0  0
    8.5942  -15.0339   19.8116 C   0  0  0  0  0  0  0  0  0  0  0  0
    9.0012  -16.1055   20.8061 C   0  0  1  0  0  0  0  0  0  0  0  0
    9.2543  -15.5501   22.1534 C   0  0  0  0  0  0  0  0  0  0  0  0
   10.3935  -15.0610   22.3668 O   0  0  0  0  0  0  0  0  0  0  0  0
    5.7486  -11.0461   26.0885 C   0  0  0  0  0  0  0  0  0  0  0  0
    5.5228  -12.8287   26.4023 S   0  0  0  0  0  0  0  0  0  0  0  0
    7.1628  -13.6559   26.2685 C   0  0  0  0  0  0  0  0  0  0  0  0
    7.1780  -14.3391   24.9431 C   0  0  0  0  0  0  0  0  0  0  0  0
    8.5055  -14.8196   24.4604 C   0  0  2  0  0  0  0  0  0  0  0  0
    8.3152  -15.5318   23.2036 N   0  0  0  0  0  0  0  0  0  0  0  0
    9.2007  -15.6552   25.4561 C   0  0  0  0  0  0  0  0  0  0  0  0
    9.1253  -16.8986   25.3690 O   0  0  0  0  0  0  0  0  0  0  0  0
   10.1098  -14.6795   29.5995 C   0  0  0  0  0  0  0  0  0  0  0  0
   11.1888  -15.0345   28.6308 C   0  0  2  0  0  0  0  0  0  0  0  0
   11.8929  -13.8162   28.0984 C   0  0  0  0  0  0  0  0  0  0  0  0
   10.6860  -15.8904   27.4873 C   0  0  2  0  0  0  0  0  0  0  0  0
    9.9631  -15.1085   26.5248 N   0  0  0  0  0  0  0  0  0  0  0  0
    9.9150  -17.0082   28.0482 C   0  0  0  0  0  0  0  0  0  0  0  0
   10.5769  -17.9802   28.7592 O   0  0  0  0  0  0  0  0  0  0  0  0
    8.6680  -17.1312   27.9151 O   0  0  0  0  0  0  0  0  0  0  0  0
  1  5  1  0
  2  3  1  0
  2  1  1  0
  3  4  1  0
  4  5  1  0
  5  6  1  1
  6  7  2  0
  9 10  1  0
  9  8  1  0
 10 11  1  0
 12 11  1  1
 12 14  1  0
 13  6  1  0
 13 12  1  0
 14 15  2  0
 17 16  1  1
 17 18  1  0
 17 19  1  0
 19 21  1  0
 19 20  1  6
 20 14  1  0
 21 23  2  0
 21 22  1  0
M  END
$$$$
