PMV.pdb
     RDKit          3D

 23 23  0  0  1  0  0  0  0  0999 V2000
    7.0645  -16.3780   21.0547 N   0  0  0  0  0  0  0  0  0  0  0  0
    6.7218  -16.5655   19.6570 C   0  0  0  0  0  0  0  0  0  0  0  0
    7.6156  -15.6268   18.8691 C   0  0  0  0  0  0  0  0  0  0  0  0
    8.5461  -15.0295   19.9328 C   0  0  0  0  0  0  0  0  0  0  0  0
    8.4911  -16.1200   20.9868 C   0  0  1  0  0  0  0  0  0  0  0  0
    9.0349  -15.6689   22.2862 C   0  0  0  0  0  0  0  0  0  0  0  0
   10.2870  -15.6274   22.4001 O   0  0  0  0  0  0  0  0  0  0  0  0
    5.2773  -12.6093   26.0378 C   0  0  0  0  0  0  0  0  0  0  0  0
    6.7550  -12.0400   26.9428 S   0  0  0  0  0  0  0  0  0  0  0  0
    8.1703  -13.1280   26.4899 C   0  0  0  0  0  0  0  0  0  0  0  0
    7.7783  -13.8178   25.2273 C   0  0  0  0  0  0  0  0  0  0  0  0
    8.7959  -14.7284   24.6261 C   0  0  2  0  0  0  0  0  0  0  0  0
    8.2533  -15.2862   23.3943 N   0  0  0  0  0  0  0  0  0  0  0  0
    9.2267  -15.7877   25.5562 C   0  0  0  0  0  0  0  0  0  0  0  0
    8.4476  -16.7297   25.8116 O   0  0  0  0  0  0  0  0  0  0  0  0
   13.1161  -15.6905   27.6395 C   0  0  0  0  0  0  0  0  0  0  0  0
   12.5240  -16.8937   26.9836 C   0  0  2  0  0  0  0  0  0  0  0  0
   13.0422  -17.0866   25.5844 C   0  0  0  0  0  0  0  0  0  0  0  0
   11.0099  -16.8704   26.9828 C   0  0  2  0  0  0  0  0  0  0  0  0
   10.5020  -15.7904   26.1854 N   0  0  0  0  0  0  0  0  0  0  0  0
   10.5451  -16.8532   28.3764 C   0  0  0  0  0  0  0  0  0  0  0  0
    9.7636  -15.8062   28.8025 O   0  0  0  0  0  0  0  0  0  0  0  0
   10.8230  -17.7516   29.2151 O   0  0  0  0  0  0  0  0  0  0  0  0
  1  5  1  0
  2  3  1  0
  2  1  1  0
  3  4  1  0
  4  5  1  0
  5  6  1  1
  6  7  2  0
  9 10  1  0
  9  8  1  0
 10 11  1  0
 12 11  1  1
 12 14  1  0
 13  6  1  0
 13 12  1  0
 14 15  2  0
 17 16  1  6
 17 18  1  0
 17 19  1  0
 19 21  1  0
 19 20  1  6
 20 14  1  0
 21 23  2  0
 21 22  1  0
M  END
$$$$
