PMV.pdb
     RDKit          3D

 23 23  0  0  1  0  0  0  0  0999 V2000
    8.6905  -15.7882   19.4308 N   0  0  0  0  0  0  0  0  0  0  0  0
    8.1001  -16.5300   18.3321 C   0  0  0  0  0  0  0  0  0  0  0  0
    7.4917  -17.7797   18.9394 C   0  0  0  0  0  0  0  0  0  0  0  0
    7.6826  -17.5825   20.4489 C   0  0  0  0  0  0  0  0  0  0  0  0
    7.7703  -16.0690   20.5174 C   0  0  1  0  0  0  0  0  0  0  0  0
    8.2905  -15.5981   21.8194 C   0  0  0  0  0  0  0  0  0  0  0  0
    9.5375  -15.6271   21.9827 O   0  0  0  0  0  0  0  0  0  0  0  0
    7.3630  -10.8679   26.9468 C   0  0  0  0  0  0  0  0  0  0  0  0
    6.2252  -12.2853   26.7941 S   0  0  0  0  0  0  0  0  0  0  0  0
    7.2151  -13.7865   26.3960 C   0  0  0  0  0  0  0  0  0  0  0  0
    6.9065  -14.1248   24.9768 C   0  0  0  0  0  0  0  0  0  0  0  0
    8.0060  -14.7590   24.1926 C   0  0  2  0  0  0  0  0  0  0  0  0
    7.4919  -15.1237   22.8789 N   0  0  0  0  0  0  0  0  0  0  0  0
    8.5972  -15.9191   24.8836 C   0  0  0  0  0  0  0  0  0  0  0  0
    7.8834  -16.9151   25.1243 O   0  0  0  0  0  0  0  0  0  0  0  0
   12.7559  -18.3966   25.9472 C   0  0  0  0  0  0  0  0  0  0  0  0
   12.0750  -17.1566   25.4706 C   0  0  2  0  0  0  0  0  0  0  0  0
   12.7617  -15.9111   25.9612 C   0  0  0  0  0  0  0  0  0  0  0  0
   10.6056  -17.1226   25.8349 C   0  0  2  0  0  0  0  0  0  0  0  0
    9.9577  -15.9610   25.2953 N   0  0  0  0  0  0  0  0  0  0  0  0
   10.4860  -17.2489   27.2938 C   0  0  0  0  0  0  0  0  0  0  0  0
   10.8052  -18.4479   27.8845 O   0  0  0  0  0  0  0  0  0  0  0  0
   10.1036  -16.3127   28.0455 O   0  0  0  0  0  0  0  0  0  0  0  0
  1  5  1  0
  2  3  1  0
  2  1  1  0
  3  4  1  0
  4  5  1  0
  5  6  1  1
  6  7  2  0
  9 10  1  0
  9  8  1  0
 10 11  1  0
 12 11  1  1
 12 14  1  0
 13  6  1  0
 13 12  1  0
 14 15  2  0
 17 16  1  1
 17 18  1  0
 17 19  1  0
 19 21  1  0
 19 20  1  1
 20 14  1  0
 21 23  2  0
 21 22  1  0
M  END
$$$$
