PMV.pdb
     RDKit          3D

 23 23  0  0  1  0  0  0  0  0999 V2000
    7.7945  -16.7375   20.7409 N   0  0  0  0  0  0  0  0  0  0  0  0
    7.7145  -16.9135   19.3026 C   0  0  0  0  0  0  0  0  0  0  0  0
    8.1787  -15.6075   18.6866 C   0  0  0  0  0  0  0  0  0  0  0  0
    8.6366  -14.7770   19.8928 C   0  0  0  0  0  0  0  0  0  0  0  0
    8.9601  -15.8840   20.8792 C   0  0  1  0  0  0  0  0  0  0  0  0
    9.1134  -15.3750   22.2594 C   0  0  0  0  0  0  0  0  0  0  0  0
   10.2001  -14.8088   22.5440 O   0  0  0  0  0  0  0  0  0  0  0  0
    6.5698  -11.0378   26.3207 C   0  0  0  0  0  0  0  0  0  0  0  0
    5.5999  -12.5817   26.2699 S   0  0  0  0  0  0  0  0  0  0  0  0
    6.7568  -14.0026   26.4558 C   0  0  0  0  0  0  0  0  0  0  0  0
    6.8556  -14.6382   25.1105 C   0  0  0  0  0  0  0  0  0  0  0  0
    8.2328  -14.8444   24.5745 C   0  0  2  0  0  0  0  0  0  0  0  0
    8.1344  -15.4803   23.2673 N   0  0  0  0  0  0  0  0  0  0  0  0
    9.0860  -15.6215   25.4916 C   0  0  0  0  0  0  0  0  0  0  0  0
    9.2334  -16.8463   25.2978 O   0  0  0  0  0  0  0  0  0  0  0  0
   10.1195  -14.5151   29.5743 C   0  0  0  0  0  0  0  0  0  0  0  0
   11.1757  -14.8545   28.5755 C   0  0  2  0  0  0  0  0  0  0  0  0
   11.8242  -13.6251   27.9995 C   0  0  0  0  0  0  0  0  0  0  0  0
   10.6613  -15.7449   27.4640 C   0  0  2  0  0  0  0  0  0  0  0  0
    9.7585  -15.0381   26.6005 N   0  0  0  0  0  0  0  0  0  0  0  0
   10.0861  -16.9549   28.0670 C   0  0  0  0  0  0  0  0  0  0  0  0
    8.7337  -17.1726   27.9571 O   0  0  0  0  0  0  0  0  0  0  0  0
   10.7663  -17.8159   28.6867 O   0  0  0  0  0  0  0  0  0  0  0  0
  1  5  1  0
  2  3  1  0
  2  1  1  0
  3  4  1  0
  4  5  1  0
  5  6  1  1
  6  7  2  0
  9 10  1  0
  9  8  1  0
 10 11  1  0
 12 11  1  1
 12 14  1  0
 13  6  1  0
 13 12  1  0
 14 15  2  0
 17 16  1  1
 17 18  1  0
 17 19  1  0
 19 21  1  0
 19 20  1  1
 20 14  1  0
 21 23  2  0
 21 22  1  0
M  END
$$$$
