PMV.pdb
     RDKit          3D

 23 23  0  0  1  0  0  0  0  0999 V2000
    7.1187  -14.8442   20.0018 N   0  0  0  0  0  0  0  0  0  0  0  0
    6.8551  -14.4448   18.6318 C   0  0  0  0  0  0  0  0  0  0  0  0
    7.4584  -13.0629   18.4669 C   0  0  0  0  0  0  0  0  0  0  0  0
    8.1751  -12.8155   19.8007 C   0  0  0  0  0  0  0  0  0  0  0  0
    8.4170  -14.2449   20.2496 C   0  0  1  0  0  0  0  0  0  0  0  0
    8.8011  -14.3251   21.6757 C   0  0  0  0  0  0  0  0  0  0  0  0
   10.0214  -14.1891   21.9490 O   0  0  0  0  0  0  0  0  0  0  0  0
    6.9598  -10.9547   27.1412 C   0  0  0  0  0  0  0  0  0  0  0  0
    6.1443  -12.5828   27.0352 S   0  0  0  0  0  0  0  0  0  0  0  0
    7.3656  -13.8057   26.3992 C   0  0  0  0  0  0  0  0  0  0  0  0
    7.2203  -13.8065   24.9150 C   0  0  0  0  0  0  0  0  0  0  0  0
    8.2776  -14.5256   24.1460 C   0  0  2  0  0  0  0  0  0  0  0  0
    7.9016  -14.5413   22.7384 N   0  0  0  0  0  0  0  0  0  0  0  0
    8.5211  -15.8868   24.6565 C   0  0  0  0  0  0  0  0  0  0  0  0
    7.5585  -16.6721   24.7843 O   0  0  0  0  0  0  0  0  0  0  0  0
   12.5577  -17.5118   25.1928 C   0  0  0  0  0  0  0  0  0  0  0  0
   11.3110  -18.2772   24.8958 C   0  0  2  0  0  0  0  0  0  0  0  0
   11.0920  -18.4479   23.4171 C   0  0  0  0  0  0  0  0  0  0  0  0
   10.0848  -17.6651   25.5396 C   0  0  2  0  0  0  0  0  0  0  0  0
    9.8144  -16.3565   25.0152 N   0  0  0  0  0  0  0  0  0  0  0  0
   10.2602  -17.6990   26.9979 C   0  0  0  0  0  0  0  0  0  0  0  0
   10.3028  -18.9168   27.6331 O   0  0  0  0  0  0  0  0  0  0  0  0
   10.3755  -16.6661   27.7104 O   0  0  0  0  0  0  0  0  0  0  0  0
  1  5  1  0
  2  3  1  0
  2  1  1  0
  3  4  1  0
  4  5  1  0
  5  6  1  1
  6  7  2  0
  9 10  1  0
  9  8  1  0
 10 11  1  0
 12 11  1  1
 12 14  1  0
 13  6  1  0
 13 12  1  0
 14 15  2  0
 17 16  1  6
 17 18  1  0
 17 19  1  0
 19 21  1  0
 19 20  1  6
 20 14  1  0
 21 23  2  0
 21 22  1  0
M  END
$$$$
