PMV.pdb
     RDKit          3D

 23 23  0  0  1  0  0  0  0  0999 V2000
    7.6456  -15.6075   20.3751 N   0  0  0  0  0  0  0  0  0  0  0  0
    7.4355  -15.4173   18.9519 C   0  0  0  0  0  0  0  0  0  0  0  0
    7.6441  -13.9391   18.6836 C   0  0  0  0  0  0  0  0  0  0  0  0
    8.1101  -13.3845   20.0362 C   0  0  0  0  0  0  0  0  0  0  0  0
    8.6893  -14.6404   20.6610 C   0  0  1  0  0  0  0  0  0  0  0  0
    8.9190  -14.4865   22.1140 C   0  0  0  0  0  0  0  0  0  0  0  0
   10.0028  -13.9561   22.4699 O   0  0  0  0  0  0  0  0  0  0  0  0
    5.3428  -11.4336   26.6588 C   0  0  0  0  0  0  0  0  0  0  0  0
    6.9584  -12.2800   26.6376 S   0  0  0  0  0  0  0  0  0  0  0  0
    6.6635  -14.0958   26.5507 C   0  0  0  0  0  0  0  0  0  0  0  0
    6.7524  -14.4638   25.1083 C   0  0  0  0  0  0  0  0  0  0  0  0
    8.1223  -14.5066   24.5185 C   0  0  2  0  0  0  0  0  0  0  0  0
    8.0151  -14.8897   23.1169 N   0  0  0  0  0  0  0  0  0  0  0  0
    9.0283  -15.4045   25.2573 C   0  0  0  0  0  0  0  0  0  0  0  0
    9.0755  -16.6135   24.9480 O   0  0  0  0  0  0  0  0  0  0  0  0
   10.1219  -15.0482   29.4535 C   0  0  0  0  0  0  0  0  0  0  0  0
   11.1566  -15.1059   28.3789 C   0  0  2  0  0  0  0  0  0  0  0  0
   11.6779  -13.7402   28.0231 C   0  0  0  0  0  0  0  0  0  0  0  0
   10.6664  -15.8195   27.1366 C   0  0  2  0  0  0  0  0  0  0  0  0
    9.8622  -14.9567   26.3185 N   0  0  0  0  0  0  0  0  0  0  0  0
    9.9867  -17.0551   27.5486 C   0  0  0  0  0  0  0  0  0  0  0  0
   10.7364  -18.0843   28.0656 O   0  0  0  0  0  0  0  0  0  0  0  0
    8.7423  -17.2305   27.4555 O   0  0  0  0  0  0  0  0  0  0  0  0
  1  5  1  0
  2  3  1  0
  2  1  1  0
  3  4  1  0
  4  5  1  0
  5  6  1  1
  6  7  2  0
  9 10  1  0
  9  8  1  0
 10 11  1  0
 12 11  1  1
 12 14  1  0
 13  6  1  0
 13 12  1  0
 14 15  2  0
 17 16  1  1
 17 18  1  0
 17 19  1  0
 19 21  1  0
 19 20  1  1
 20 14  1  0
 21 23  2  0
 21 22  1  0
M  END
$$$$
