PMV.pdb
     RDKit          3D

 23 23  0  0  1  0  0  0  0  0999 V2000
    7.7130  -15.5331   20.3271 N   0  0  0  0  0  0  0  0  0  0  0  0
    7.5296  -15.3686   18.8970 C   0  0  0  0  0  0  0  0  0  0  0  0
    7.9240  -13.9390   18.5780 C   0  0  0  0  0  0  0  0  0  0  0  0
    8.4556  -13.4003   19.9127 C   0  0  0  0  0  0  0  0  0  0  0  0
    8.8707  -14.6964   20.5842 C   0  0  1  0  0  0  0  0  0  0  0  0
    9.1170  -14.5213   22.0321 C   0  0  0  0  0  0  0  0  0  0  0  0
   10.2545  -14.1066   22.3738 O   0  0  0  0  0  0  0  0  0  0  0  0
    5.7184  -10.7947   26.0484 C   0  0  0  0  0  0  0  0  0  0  0  0
    5.3074  -12.5222   26.4647 S   0  0  0  0  0  0  0  0  0  0  0  0
    6.8437  -13.5310   26.3472 C   0  0  0  0  0  0  0  0  0  0  0  0
    6.9258  -14.0022   24.9348 C   0  0  0  0  0  0  0  0  0  0  0  0
    8.2908  -14.3108   24.4174 C   0  0  2  0  0  0  0  0  0  0  0  0
    8.1734  -14.7849   23.0447 N   0  0  0  0  0  0  0  0  0  0  0  0
    9.0112  -15.2785   25.2644 C   0  0  0  0  0  0  0  0  0  0  0  0
    9.0453  -16.4799   24.9252 O   0  0  0  0  0  0  0  0  0  0  0  0
    9.9602  -15.0649   29.5695 C   0  0  0  0  0  0  0  0  0  0  0  0
   11.0013  -15.1172   28.5009 C   0  0  2  0  0  0  0  0  0  0  0  0
   11.5534  -13.7542   28.1832 C   0  0  0  0  0  0  0  0  0  0  0  0
   10.5056  -15.7890   27.2376 C   0  0  2  0  0  0  0  0  0  0  0  0
    9.6780  -14.9072   26.4643 N   0  0  0  0  0  0  0  0  0  0  0  0
    9.8498  -17.0501   27.6090 C   0  0  0  0  0  0  0  0  0  0  0  0
    8.4946  -17.1746   27.4187 O   0  0  0  0  0  0  0  0  0  0  0  0
   10.4625  -18.0369   28.0977 O   0  0  0  0  0  0  0  0  0  0  0  0
  1  5  1  0
  2  3  1  0
  2  1  1  0
  3  4  1  0
  4  5  1  0
  5  6  1  1
  6  7  2  0
  9 10  1  0
  9  8  1  0
 10 11  1  0
 12 11  1  1
 12 14  1  0
 13  6  1  0
 13 12  1  0
 14 15  2  0
 17 16  1  1
 17 18  1  0
 17 19  1  0
 19 21  1  0
 19 20  1  1
 20 14  1  0
 21 23  2  0
 21 22  1  0
M  END
$$$$
