PMV.pdb
     RDKit          3D

 23 23  0  0  1  0  0  0  0  0999 V2000
    7.0904  -15.1958   20.5555 N   0  0  0  0  0  0  0  0  0  0  0  0
    6.8201  -14.9534   19.1505 C   0  0  0  0  0  0  0  0  0  0  0  0
    7.4004  -13.5882   18.8338 C   0  0  0  0  0  0  0  0  0  0  0  0
    8.1130  -13.1842   20.1312 C   0  0  0  0  0  0  0  0  0  0  0  0
    8.3786  -14.5515   20.7337 C   0  0  1  0  0  0  0  0  0  0  0  0
    8.7640  -14.4685   22.1592 C   0  0  0  0  0  0  0  0  0  0  0  0
    9.9102  -14.0192   22.4178 O   0  0  0  0  0  0  0  0  0  0  0  0
    7.0155  -11.3870   27.4236 C   0  0  0  0  0  0  0  0  0  0  0  0
    5.6890  -12.2026   26.4739 S   0  0  0  0  0  0  0  0  0  0  0  0
    6.4262  -12.9323   24.9522 C   0  0  0  0  0  0  0  0  0  0  0  0
    7.0380  -14.2279   25.3655 C   0  0  0  0  0  0  0  0  0  0  0  0
    8.2748  -14.6385   24.6389 C   0  0  2  0  0  0  0  0  0  0  0  0
    7.9424  -14.8546   23.2368 N   0  0  0  0  0  0  0  0  0  0  0  0
    8.9116  -15.8275   25.2336 C   0  0  0  0  0  0  0  0  0  0  0  0
    8.3797  -16.9466   25.0788 O   0  0  0  0  0  0  0  0  0  0  0  0
   12.4375  -15.5409   27.8408 C   0  0  0  0  0  0  0  0  0  0  0  0
   12.2441  -16.6126   26.8197 C   0  0  2  0  0  0  0  0  0  0  0  0
   12.9598  -16.3024   25.5332 C   0  0  0  0  0  0  0  0  0  0  0  0
   10.7827  -16.9022   26.5494 C   0  0  2  0  0  0  0  0  0  0  0  0
   10.1174  -15.7625   25.9847 N   0  0  0  0  0  0  0  0  0  0  0  0
   10.1702  -17.3966   27.7899 C   0  0  0  0  0  0  0  0  0  0  0  0
   10.6539  -18.5525   28.3542 O   0  0  0  0  0  0  0  0  0  0  0  0
    9.2162  -16.8177   28.3752 O   0  0  0  0  0  0  0  0  0  0  0  0
  1  5  1  0
  2  3  1  0
  2  1  1  0
  3  4  1  0
  4  5  1  0
  5  6  1  1
  6  7  2  0
  9 10  1  0
  9  8  1  0
 10 11  1  0
 12 11  1  1
 12 14  1  0
 13  6  1  0
 13 12  1  0
 14 15  2  0
 17 16  1  1
 17 18  1  0
 17 19  1  0
 19 21  1  0
 19 20  1  1
 20 14  1  0
 21 23  2  0
 21 22  1  0
M  END
$$$$
