LQD.pdb
     RDKit          3D

 26 25  0  0  1  0  0  0  0  0999 V2000
   25.7380  -14.8577  -17.6000 C   0  0  0  0  0  0  0  0  0  0  0  0
   24.5023  -14.1262  -17.1415 C   0  0  1  0  0  0  0  0  0  0  0  0
   24.3641  -14.3129  -15.6524 C   0  0  0  0  0  0  0  0  0  0  0  0
   24.5609  -12.6567  -17.4512 C   0  0  0  0  0  0  0  0  0  0  0  0
   23.3446  -11.9405  -16.9556 C   0  0  2  0  0  0  0  0  0  0  0  0
   22.1205  -12.4099  -17.5430 N   0  0  0  0  0  0  0  0  0  0  0  0
   23.4704  -10.4832  -17.2565 C   0  0  0  0  0  0  0  0  0  0  0  0
   24.4460   -9.8241  -16.8520 O   0  0  0  0  0  0  0  0  0  0  0  0
   21.2454   -8.6887  -22.2424 N   0  0  0  0  0  0  0  0  0  0  0  0
   22.6204   -8.9968  -22.0303 C   0  0  0  0  0  0  0  0  0  0  0  0
   23.2497   -9.5045  -22.9950 O   0  0  0  0  0  0  0  0  0  0  0  0
   23.2903   -8.7301  -20.7200 C   0  0  0  0  0  0  0  0  0  0  0  0
   22.2616   -8.1572  -19.7781 C   0  0  0  0  0  0  0  0  0  0  0  0
   22.5896   -8.4640  -18.3375 C   0  0  2  0  0  0  0  0  0  0  0  0
   22.4576   -9.8537  -18.0143 N   0  0  0  0  0  0  0  0  0  0  0  0
   21.6586   -7.6605  -17.4916 C   0  0  0  0  0  0  0  0  0  0  0  0
   20.4561   -8.0134  -17.3020 O   0  0  0  0  0  0  0  0  0  0  0  0
   22.0635   -6.4587  -16.8525 N   0  0  0  0  0  0  0  0  0  0  0  0
   21.2128   -5.6918  -15.9932 C   0  0  1  0  0  0  0  0  0  0  0  0
   20.7487   -6.5952  -14.8623 C   0  0  0  0  0  0  0  0  0  0  0  0
   19.8579   -5.9196  -13.9228 C   0  0  0  0  0  0  0  0  0  0  0  0
   19.4246   -4.7579  -14.1120 O   0  0  0  0  0  0  0  0  0  0  0  0
   21.8075   -4.4556  -15.5007 C   0  0  0  0  0  0  0  0  0  0  0  0
   23.0409   -4.2612  -15.5603 O   0  0  0  0  0  0  0  0  0  0  0  0
   19.4624   -6.5723  -12.7668 O   0  0  0  0  0  0  0  0  0  0  0  0
   21.0281   -3.4580  -14.9520 O   0  0  0  0  0  0  0  0  0  0  0  0
  2  3  1  1
  2  1  1  0
  4  2  1  0
  5  4  1  0
  5  6  1  6
  7  5  1  0
  8  7  2  0
 10 12  1  0
 10  9  1  0
 11 10  2  0
 14 13  1  6
 13 12  1  0
 14 15  1  0
 15  7  1  0
 16 14  1  0
 17 16  2  0
 18 16  1  0
 19 23  1  0
 19 18  1  0
 19 20  1  1
 21 20  1  0
 21 25  1  0
 22 21  2  0
 23 26  1  0
 24 23  2  0
M  END
$$$$
