LQD.pdb
     RDKit          3D

 26 25  0  0  1  0  0  0  0  0999 V2000
   14.0545  -10.0065  -17.3464 C   0  0  0  0  0  0  0  0  0  0  0  0
   15.4708  -10.3758  -16.9858 C   0  0  1  0  0  0  0  0  0  0  0  0
   16.2518  -10.5668  -18.2606 C   0  0  0  0  0  0  0  0  0  0  0  0
   16.1406   -9.3212  -16.1502 C   0  0  0  0  0  0  0  0  0  0  0  0
   17.5420   -9.7069  -15.7963 C   0  0  2  0  0  0  0  0  0  0  0  0
   17.6216  -10.8075  -14.8763 N   0  0  0  0  0  0  0  0  0  0  0  0
   18.2364   -8.5386  -15.1776 C   0  0  0  0  0  0  0  0  0  0  0  0
   18.0683   -8.2508  -13.9781 O   0  0  0  0  0  0  0  0  0  0  0  0
   21.8891   -5.8960  -13.0458 N   0  0  0  0  0  0  0  0  0  0  0  0
   22.1540   -7.2714  -13.3078 C   0  0  0  0  0  0  0  0  0  0  0  0
   22.6190   -7.9566  -12.3597 O   0  0  0  0  0  0  0  0  0  0  0  0
   21.8925   -7.8782  -14.6495 C   0  0  0  0  0  0  0  0  0  0  0  0
   21.3192   -6.8070  -15.5423 C   0  0  0  0  0  0  0  0  0  0  0  0
   19.8250   -6.6787  -15.3740 C   0  0  2  0  0  0  0  0  0  0  0  0
   19.0965   -7.7544  -15.9785 N   0  0  0  0  0  0  0  0  0  0  0  0
   19.4198   -5.3844  -15.9972 C   0  0  0  0  0  0  0  0  0  0  0  0
   19.2714   -5.2643  -17.2502 O   0  0  0  0  0  0  0  0  0  0  0  0
   19.1777   -4.2165  -15.2264 N   0  0  0  0  0  0  0  0  0  0  0  0
   18.7659   -2.9660  -15.7891 C   0  0  1  0  0  0  0  0  0  0  0  0
   17.8021   -2.3066  -14.8162 C   0  0  0  0  0  0  0  0  0  0  0  0
   17.2910   -1.0270  -15.2999 C   0  0  0  0  0  0  0  0  0  0  0  0
   17.3734    0.0333  -14.6350 O   0  0  0  0  0  0  0  0  0  0  0  0
   19.8622   -2.0808  -16.1620 C   0  0  0  0  0  0  0  0  0  0  0  0
   19.6690   -1.0781  -16.8829 O   0  0  0  0  0  0  0  0  0  0  0  0
   16.6857   -0.9596  -16.5440 O   0  0  0  0  0  0  0  0  0  0  0  0
   21.1509   -2.3206  -15.7311 O   0  0  0  0  0  0  0  0  0  0  0  0
  2  3  1  6
  2  1  1  0
  4  2  1  0
  5  4  1  0
  5  6  1  1
  7  5  1  0
  8  7  2  0
 10 12  1  0
 10  9  1  0
 11 10  2  0
 14 13  1  6
 13 12  1  0
 14 15  1  0
 15  7  1  0
 16 14  1  0
 17 16  2  0
 18 16  1  0
 19 23  1  0
 19 18  1  0
 19 20  1  1
 21 20  1  0
 21 25  1  0
 22 21  2  0
 23 26  1  0
 24 23  2  0
M  END
$$$$
