LQD.pdb
     RDKit          3D

 26 25  0  0  1  0  0  0  0  0999 V2000
   28.3135  -28.2867  -16.3651 C   0  0  0  0  0  0  0  0  0  0  0  0
   27.7275  -27.1066  -17.0973 C   0  0  1  0  0  0  0  0  0  0  0  0
   26.6423  -27.6076  -18.0154 C   0  0  0  0  0  0  0  0  0  0  0  0
   27.1482  -26.0839  -16.1607 C   0  0  0  0  0  0  0  0  0  0  0  0
   26.6089  -24.9016  -16.9017 C   0  0  2  0  0  0  0  0  0  0  0  0
   27.6211  -24.1247  -17.5617 N   0  0  0  0  0  0  0  0  0  0  0  0
   25.8892  -24.0052  -15.9484 C   0  0  0  0  0  0  0  0  0  0  0  0
   26.5031  -23.3801  -15.0640 O   0  0  0  0  0  0  0  0  0  0  0  0
   23.9582  -19.0964  -17.1147 N   0  0  0  0  0  0  0  0  0  0  0  0
   24.8543  -19.3312  -16.0320 C   0  0  0  0  0  0  0  0  0  0  0  0
   25.6583  -18.4070  -15.7421 O   0  0  0  0  0  0  0  0  0  0  0  0
   24.8433  -20.6184  -15.2705 C   0  0  0  0  0  0  0  0  0  0  0  0
   23.8077  -21.5201  -15.8933 C   0  0  0  0  0  0  0  0  0  0  0  0
   23.8110  -22.8928  -15.2663 C   0  0  2  0  0  0  0  0  0  0  0  0
   24.4872  -23.8732  -16.0631 N   0  0  0  0  0  0  0  0  0  0  0  0
   22.3864  -23.2951  -15.0761 C   0  0  0  0  0  0  0  0  0  0  0  0
   21.7606  -23.9684  -15.9488 O   0  0  0  0  0  0  0  0  0  0  0  0
   21.6513  -22.9486  -13.9114 N   0  0  0  0  0  0  0  0  0  0  0  0
   20.2755  -23.2908  -13.7107 C   0  0  1  0  0  0  0  0  0  0  0  0
   20.2213  -24.5145  -12.8108 C   0  0  0  0  0  0  0  0  0  0  0  0
   18.8575  -24.9532  -12.5276 C   0  0  0  0  0  0  0  0  0  0  0  0
   17.8460  -24.3557  -12.9669 O   0  0  0  0  0  0  0  0  0  0  0  0
   19.4491  -22.2009  -13.2072 C   0  0  0  0  0  0  0  0  0  0  0  0
   19.9551  -21.2266  -12.6096 O   0  0  0  0  0  0  0  0  0  0  0  0
   18.6501  -26.0751  -11.7420 O   0  0  0  0  0  0  0  0  0  0  0  0
   18.0793  -22.2084  -13.3738 O   0  0  0  0  0  0  0  0  0  0  0  0
  2  3  1  6
  2  1  1  0
  4  2  1  0
  5  4  1  0
  5  6  1  1
  7  5  1  0
  8  7  2  0
 10 12  1  0
 10  9  1  0
 11 10  2  0
 14 13  1  6
 13 12  1  0
 14 15  1  0
 15  7  1  0
 16 14  1  0
 17 16  2  0
 18 16  1  0
 19 23  1  0
 19 18  1  0
 19 20  1  1
 21 20  1  0
 21 25  1  0
 22 21  2  0
 23 26  1  0
 24 23  2  0
M  END
$$$$
