LQD.pdb
     RDKit          3D

 26 25  0  0  1  0  0  0  0  0999 V2000
   18.0440  -14.1844  -14.6018 C   0  0  0  0  0  0  0  0  0  0  0  0
   18.5012  -13.9270  -16.0149 C   0  0  1  0  0  0  0  0  0  0  0  0
   17.3049  -13.5160  -16.8343 C   0  0  0  0  0  0  0  0  0  0  0  0
   19.5447  -12.8480  -16.0897 C   0  0  0  0  0  0  0  0  0  0  0  0
   20.0514  -12.6678  -17.4857 C   0  0  2  0  0  0  0  0  0  0  0  0
   21.0366  -13.6399  -17.8709 N   0  0  0  0  0  0  0  0  0  0  0  0
   20.6648  -11.3129  -17.6194 C   0  0  0  0  0  0  0  0  0  0  0  0
   21.8665  -11.1212  -17.3566 O   0  0  0  0  0  0  0  0  0  0  0  0
   18.8350   -6.7599  -21.4607 N   0  0  0  0  0  0  0  0  0  0  0  0
   19.9328   -6.1787  -20.7625 C   0  0  0  0  0  0  0  0  0  0  0  0
   20.3654   -5.0765  -21.1898 O   0  0  0  0  0  0  0  0  0  0  0  0
   20.5472   -6.8460  -19.5734 C   0  0  0  0  0  0  0  0  0  0  0  0
   19.8340   -8.1561  -19.3533 C   0  0  0  0  0  0  0  0  0  0  0  0
   20.4475   -8.9440  -18.2219 C   0  0  2  0  0  0  0  0  0  0  0  0
   19.8562  -10.2382  -18.0526 N   0  0  0  0  0  0  0  0  0  0  0  0
   20.2668   -8.1419  -16.9762 C   0  0  0  0  0  0  0  0  0  0  0  0
   19.2358   -8.2615  -16.2487 O   0  0  0  0  0  0  0  0  0  0  0  0
   21.2353   -7.2017  -16.5346 N   0  0  0  0  0  0  0  0  0  0  0  0
   21.0978   -6.4226  -15.3412 C   0  0  1  0  0  0  0  0  0  0  0  0
   22.4313   -5.7480  -15.0633 C   0  0  0  0  0  0  0  0  0  0  0  0
   22.4196   -4.9440  -13.8443 C   0  0  0  0  0  0  0  0  0  0  0  0
   21.9674   -5.3683  -12.7541 O   0  0  0  0  0  0  0  0  0  0  0  0
   19.9944   -5.4705  -15.3649 C   0  0  0  0  0  0  0  0  0  0  0  0
   19.7294   -4.8112  -16.3932 O   0  0  0  0  0  0  0  0  0  0  0  0
   22.9251   -3.6546  -13.8718 O   0  0  0  0  0  0  0  0  0  0  0  0
   19.2050   -5.2654  -14.2519 O   0  0  0  0  0  0  0  0  0  0  0  0
  2  3  1  6
  2  1  1  0
  4  2  1  0
  5  4  1  0
  5  6  1  1
  7  5  1  0
  8  7  2  0
 10 12  1  0
 10  9  1  0
 11 10  2  0
 14 13  1  6
 13 12  1  0
 14 15  1  0
 15  7  1  0
 16 14  1  0
 17 16  2  0
 18 16  1  0
 19 23  1  0
 19 18  1  0
 19 20  1  6
 21 20  1  0
 21 25  1  0
 22 21  2  0
 23 26  1  0
 24 23  2  0
M  END
$$$$
