LQD.pdb
     RDKit          3D

 26 25  0  0  1  0  0  0  0  0999 V2000
   19.2976  -16.1242  -17.9435 C   0  0  0  0  0  0  0  0  0  0  0  0
   18.6646  -15.0268  -17.1267 C   0  0  1  0  0  0  0  0  0  0  0  0
   18.3941  -15.5595  -15.7430 C   0  0  0  0  0  0  0  0  0  0  0  0
   19.5434  -13.8118  -17.0245 C   0  0  0  0  0  0  0  0  0  0  0  0
   18.8848  -12.7201  -16.2419 C   0  0  2  0  0  0  0  0  0  0  0  0
   17.4865  -12.5655  -16.5331 N   0  0  0  0  0  0  0  0  0  0  0  0
   19.5623  -11.4219  -16.5351 C   0  0  0  0  0  0  0  0  0  0  0  0
   20.7912  -11.2892  -16.3875 O   0  0  0  0  0  0  0  0  0  0  0  0
   17.5956  -10.6135  -19.6961 N   0  0  0  0  0  0  0  0  0  0  0  0
   18.6242   -9.9528  -20.4282 C   0  0  0  0  0  0  0  0  0  0  0  0
   18.9089  -10.4169  -21.5632 O   0  0  0  0  0  0  0  0  0  0  0  0
   19.3368   -8.7596  -19.8757 C   0  0  0  0  0  0  0  0  0  0  0  0
   18.7263   -8.4301  -18.5370 C   0  0  0  0  0  0  0  0  0  0  0  0
   19.4408   -9.1319  -17.4081 C   0  0  2  0  0  0  0  0  0  0  0  0
   18.7832  -10.3333  -16.9872 N   0  0  0  0  0  0  0  0  0  0  0  0
   19.5136   -8.1724  -16.2672 C   0  0  0  0  0  0  0  0  0  0  0  0
   18.5812   -8.0780  -15.4137 O   0  0  0  0  0  0  0  0  0  0  0  0
   20.6267   -7.3124  -16.0716 N   0  0  0  0  0  0  0  0  0  0  0  0
   20.7427   -6.4028  -14.9718 C   0  0  1  0  0  0  0  0  0  0  0  0
   22.2146   -6.0709  -14.7888 C   0  0  0  0  0  0  0  0  0  0  0  0
   22.4532   -5.1154  -13.7106 C   0  0  0  0  0  0  0  0  0  0  0  0
   22.0170   -5.2809  -12.5464 O   0  0  0  0  0  0  0  0  0  0  0  0
   19.9194   -5.2057  -15.0884 C   0  0  0  0  0  0  0  0  0  0  0  0
   19.6735   -4.6943  -16.2022 O   0  0  0  0  0  0  0  0  0  0  0  0
   23.1906   -3.9703  -13.9634 O   0  0  0  0  0  0  0  0  0  0  0  0
   19.3837   -4.5967  -13.9721 O   0  0  0  0  0  0  0  0  0  0  0  0
  2  3  1  1
  2  1  1  0
  4  2  1  0
  5  4  1  0
  5  6  1  6
  7  5  1  0
  8  7  2  0
 10 12  1  0
 10  9  1  0
 11 10  2  0
 14 13  1  6
 13 12  1  0
 14 15  1  0
 15  7  1  0
 16 14  1  0
 17 16  2  0
 18 16  1  0
 19 23  1  0
 19 18  1  0
 19 20  1  6
 21 20  1  0
 21 25  1  0
 22 21  2  0
 23 26  1  0
 24 23  2  0
M  END
$$$$
