LQD.pdb
     RDKit          3D

 26 25  0  0  1  0  0  0  0  0999 V2000
   24.6635  -16.6583  -19.8357 C   0  0  0  0  0  0  0  0  0  0  0  0
   25.5140  -17.2372  -18.7341 C   0  0  1  0  0  0  0  0  0  0  0  0
   26.0390  -16.1025  -17.8924 C   0  0  0  0  0  0  0  0  0  0  0  0
   24.7452  -18.1864  -17.8583 C   0  0  0  0  0  0  0  0  0  0  0  0
   25.6525  -18.9581  -16.9533 C   0  0  2  0  0  0  0  0  0  0  0  0
   26.5654  -19.8202  -17.6514 N   0  0  0  0  0  0  0  0  0  0  0  0
   24.8338  -19.8029  -16.0335 C   0  0  0  0  0  0  0  0  0  0  0  0
   24.0935  -20.7023  -16.4729 O   0  0  0  0  0  0  0  0  0  0  0  0
   25.1542  -19.9351   -9.6811 N   0  0  0  0  0  0  0  0  0  0  0  0
   24.2040  -20.9445  -10.0108 C   0  0  0  0  0  0  0  0  0  0  0  0
   23.7648  -21.6495   -9.0649 O   0  0  0  0  0  0  0  0  0  0  0  0
   23.7461  -21.1603  -11.4181 C   0  0  0  0  0  0  0  0  0  0  0  0
   24.5077  -20.2104  -12.3074 C   0  0  0  0  0  0  0  0  0  0  0  0
   24.1102  -20.3592  -13.7556 C   0  0  2  0  0  0  0  0  0  0  0  0
   24.9097  -19.5670  -14.6424 N   0  0  0  0  0  0  0  0  0  0  0  0
   22.6797  -19.9479  -13.8656 C   0  0  0  0  0  0  0  0  0  0  0  0
   22.3341  -18.7284  -13.8699 O   0  0  0  0  0  0  0  0  0  0  0  0
   21.6262  -20.8944  -13.9714 N   0  0  0  0  0  0  0  0  0  0  0  0
   20.2430  -20.5351  -14.0600 C   0  0  1  0  0  0  0  0  0  0  0  0
   19.9450  -20.1630  -15.5032 C   0  0  0  0  0  0  0  0  0  0  0  0
   18.5512  -19.7832  -15.7172 C   0  0  0  0  0  0  0  0  0  0  0  0
   17.6824  -20.5888  -16.1286 O   0  0  0  0  0  0  0  0  0  0  0  0
   19.3228  -21.5443  -13.5510 C   0  0  0  0  0  0  0  0  0  0  0  0
   19.6706  -22.7394  -13.4361 O   0  0  0  0  0  0  0  0  0  0  0  0
   18.1507  -18.4822  -15.4609 O   0  0  0  0  0  0  0  0  0  0  0  0
   18.0358  -21.2137  -13.1789 O   0  0  0  0  0  0  0  0  0  0  0  0
  2  3  1  1
  2  1  1  0
  4  2  1  0
  5  4  1  0
  5  6  1  6
  7  5  1  0
  8  7  2  0
 10 12  1  0
 10  9  1  0
 11 10  2  0
 14 13  1  1
 13 12  1  0
 14 15  1  0
 15  7  1  0
 16 14  1  0
 17 16  2  0
 18 16  1  0
 19 23  1  0
 19 18  1  0
 19 20  1  6
 21 20  1  0
 21 25  1  0
 22 21  2  0
 23 26  1  0
 24 23  2  0
M  END
$$$$
