LQD.pdb
     RDKit          3D

 26 25  0  0  1  0  0  0  0  0999 V2000
   23.3328   -9.5318  -15.3318 C   0  0  0  0  0  0  0  0  0  0  0  0
   22.2249  -10.2920  -14.6484 C   0  0  1  0  0  0  0  0  0  0  0  0
   22.6827  -10.6526  -13.2584 C   0  0  0  0  0  0  0  0  0  0  0  0
   20.9555   -9.4926  -14.5579 C   0  0  0  0  0  0  0  0  0  0  0  0
   19.8704  -10.2583  -13.8692 C   0  0  2  0  0  0  0  0  0  0  0  0
   19.4970  -11.4670  -14.5501 N   0  0  0  0  0  0  0  0  0  0  0  0
   18.6539   -9.3998  -13.7546 C   0  0  0  0  0  0  0  0  0  0  0  0
   17.8179   -9.3416  -14.6752 O   0  0  0  0  0  0  0  0  0  0  0  0
   14.9421   -8.2761   -8.9437 N   0  0  0  0  0  0  0  0  0  0  0  0
   15.7390   -7.1003   -9.0570 C   0  0  0  0  0  0  0  0  0  0  0  0
   15.6518   -6.2565   -8.1270 O   0  0  0  0  0  0  0  0  0  0  0  0
   16.6411   -6.8747  -10.2284 C   0  0  0  0  0  0  0  0  0  0  0  0
   16.5652   -8.0907  -11.1167 C   0  0  0  0  0  0  0  0  0  0  0  0
   17.2664   -7.8661  -12.4340 C   0  0  2  0  0  0  0  0  0  0  0  0
   18.4603   -8.6456  -12.5756 N   0  0  0  0  0  0  0  0  0  0  0  0
   17.6017   -6.4139  -12.5140 C   0  0  0  0  0  0  0  0  0  0  0  0
   18.5213   -5.9012  -11.8085 O   0  0  0  0  0  0  0  0  0  0  0  0
   16.9130   -5.5251  -13.3816 N   0  0  0  0  0  0  0  0  0  0  0  0
   17.2505   -4.1416  -13.5304 C   0  0  1  0  0  0  0  0  0  0  0  0
   17.7724   -3.9337  -14.9427 C   0  0  0  0  0  0  0  0  0  0  0  0
   18.1393   -2.5468  -15.2159 C   0  0  0  0  0  0  0  0  0  0  0  0
   18.0446   -1.6368  -14.3581 O   0  0  0  0  0  0  0  0  0  0  0  0
   16.1722   -3.2178  -13.2011 C   0  0  0  0  0  0  0  0  0  0  0  0
   14.9884   -3.6089  -13.1121 O   0  0  0  0  0  0  0  0  0  0  0  0
   18.6146   -2.2004  -16.4701 O   0  0  0  0  0  0  0  0  0  0  0  0
   16.4228   -1.8796  -12.9765 O   0  0  0  0  0  0  0  0  0  0  0  0
  2  3  1  1
  2  1  1  0
  4  2  1  0
  5  4  1  0
  5  6  1  6
  7  5  1  0
  8  7  2  0
 10 12  1  0
 10  9  1  0
 11 10  2  0
 14 13  1  1
 13 12  1  0
 14 15  1  0
 15  7  1  0
 16 14  1  0
 17 16  2  0
 18 16  1  0
 19 23  1  0
 19 18  1  0
 19 20  1  6
 21 20  1  0
 21 25  1  0
 22 21  2  0
 23 26  1  0
 24 23  2  0
M  END
$$$$
