LQD.pdb
     RDKit          3D

 26 25  0  0  1  0  0  0  0  0999 V2000
   28.8151  -13.3154  -18.5374 C   0  0  0  0  0  0  0  0  0  0  0  0
   28.0363  -12.9173  -17.3098 C   0  0  1  0  0  0  0  0  0  0  0  0
   29.0148  -12.5914  -16.2108 C   0  0  0  0  0  0  0  0  0  0  0  0
   27.1545  -11.7251  -17.5548 C   0  0  0  0  0  0  0  0  0  0  0  0
   26.3913  -11.3430  -16.3263 C   0  0  2  0  0  0  0  0  0  0  0  0
   25.7745  -12.4572  -15.6615 N   0  0  0  0  0  0  0  0  0  0  0  0
   25.3165  -10.3729  -16.6922 C   0  0  0  0  0  0  0  0  0  0  0  0
   25.5823   -9.3105  -17.2842 O   0  0  0  0  0  0  0  0  0  0  0  0
   18.7670  -10.6622  -19.1958 N   0  0  0  0  0  0  0  0  0  0  0  0
   19.3554  -10.4484  -17.9158 C   0  0  0  0  0  0  0  0  0  0  0  0
   18.7665  -10.9502  -16.9228 O   0  0  0  0  0  0  0  0  0  0  0  0
   20.6177   -9.6625  -17.7547 C   0  0  0  0  0  0  0  0  0  0  0  0
   21.6536  -10.5656  -17.1346 C   0  0  0  0  0  0  0  0  0  0  0  0
   22.9288   -9.8220  -16.8210 C   0  0  2  0  0  0  0  0  0  0  0  0
   23.9789  -10.6781  -16.3547 N   0  0  0  0  0  0  0  0  0  0  0  0
   22.6035   -8.8093  -15.7739 C   0  0  0  0  0  0  0  0  0  0  0  0
   22.5608   -9.1111  -14.5437 O   0  0  0  0  0  0  0  0  0  0  0  0
   22.3240   -7.4539  -16.0931 N   0  0  0  0  0  0  0  0  0  0  0  0
   22.1576   -6.4258  -15.1105 C   0  0  1  0  0  0  0  0  0  0  0  0
   22.7785   -5.1497  -15.6548 C   0  0  0  0  0  0  0  0  0  0  0  0
   22.6687   -4.0240  -14.7311 C   0  0  0  0  0  0  0  0  0  0  0  0
   22.2978   -2.8816  -15.0923 O   0  0  0  0  0  0  0  0  0  0  0  0
   20.7817   -6.2248  -14.6734 C   0  0  0  0  0  0  0  0  0  0  0  0
   20.5078   -5.4510  -13.7307 O   0  0  0  0  0  0  0  0  0  0  0  0
   22.9831   -4.2043  -13.3941 O   0  0  0  0  0  0  0  0  0  0  0  0
   19.7350   -6.8827  -15.2861 O   0  0  0  0  0  0  0  0  0  0  0  0
  2  3  1  1
  2  1  1  0
  4  2  1  0
  5  4  1  0
  5  6  1  6
  7  5  1  0
  8  7  2  0
 10 12  1  0
 10  9  1  0
 11 10  2  0
 14 13  1  1
 13 12  1  0
 14 15  1  0
 15  7  1  0
 16 14  1  0
 17 16  2  0
 18 16  1  0
 19 23  1  0
 19 18  1  0
 19 20  1  6
 21 20  1  0
 21 25  1  0
 22 21  2  0
 23 26  1  0
 24 23  2  0
M  END
$$$$
