LQD.pdb
     RDKit          3D

 26 25  0  0  1  0  0  0  0  0999 V2000
   26.6718  -15.6884  -17.2628 C   0  0  0  0  0  0  0  0  0  0  0  0
   25.6315  -15.0527  -16.3763 C   0  0  1  0  0  0  0  0  0  0  0  0
   26.1243  -15.1036  -14.9529 C   0  0  0  0  0  0  0  0  0  0  0  0
   25.3568  -13.6238  -16.7526 C   0  0  0  0  0  0  0  0  0  0  0  0
   24.3633  -12.9925  -15.8293 C   0  0  2  0  0  0  0  0  0  0  0  0
   23.0908  -13.6591  -15.8095 N   0  0  0  0  0  0  0  0  0  0  0  0
   24.1343  -11.5755  -16.2414 C   0  0  0  0  0  0  0  0  0  0  0  0
   25.0806  -10.7725  -16.3393 O   0  0  0  0  0  0  0  0  0  0  0  0
   20.1666  -10.6751  -20.2863 N   0  0  0  0  0  0  0  0  0  0  0  0
   21.5601  -10.5312  -20.5469 C   0  0  0  0  0  0  0  0  0  0  0  0
   21.9648  -10.8504  -21.6953 O   0  0  0  0  0  0  0  0  0  0  0  0
   22.5041  -10.0233  -19.5039 C   0  0  0  0  0  0  0  0  0  0  0  0
   21.7179   -9.7839  -18.2398 C   0  0  0  0  0  0  0  0  0  0  0  0
   22.6000   -9.8242  -17.0160 C   0  0  2  0  0  0  0  0  0  0  0  0
   22.8160  -11.1518  -16.5220 N   0  0  0  0  0  0  0  0  0  0  0  0
   21.9355   -8.9986  -15.9651 C   0  0  0  0  0  0  0  0  0  0  0  0
   21.1967   -9.5182  -15.0758 O   0  0  0  0  0  0  0  0  0  0  0  0
   22.0910   -7.5884  -15.8999 N   0  0  0  0  0  0  0  0  0  0  0  0
   21.4398   -6.7627  -14.9282 C   0  0  1  0  0  0  0  0  0  0  0  0
   22.4080   -5.6649  -14.5186 C   0  0  0  0  0  0  0  0  0  0  0  0
   21.8530   -4.7617  -13.5143 C   0  0  0  0  0  0  0  0  0  0  0  0
   20.7144   -4.9196  -13.0127 O   0  0  0  0  0  0  0  0  0  0  0  0
   20.1519   -6.2294  -15.3541 C   0  0  0  0  0  0  0  0  0  0  0  0
   19.9757   -5.8155  -16.5204 O   0  0  0  0  0  0  0  0  0  0  0  0
   22.6000   -3.6776  -13.0834 O   0  0  0  0  0  0  0  0  0  0  0  0
   19.0836   -6.1635  -14.4833 O   0  0  0  0  0  0  0  0  0  0  0  0
  2  3  1  1
  2  1  1  0
  4  2  1  0
  5  4  1  0
  5  6  1  6
  7  5  1  0
  8  7  2  0
 10 12  1  0
 10  9  1  0
 11 10  2  0
 14 13  1  6
 13 12  1  0
 14 15  1  0
 15  7  1  0
 16 14  1  0
 17 16  2  0
 18 16  1  0
 19 23  1  0
 19 18  1  0
 19 20  1  6
 21 20  1  0
 21 25  1  0
 22 21  2  0
 23 26  1  0
 24 23  2  0
M  END
$$$$
