LQD.pdb
     RDKit          3D

 26 25  0  0  1  0  0  0  0  0999 V2000
   26.0633  -14.4187  -17.0588 C   0  0  0  0  0  0  0  0  0  0  0  0
   26.8968  -15.5767  -16.5724 C   0  0  1  0  0  0  0  0  0  0  0  0
   27.4437  -15.2304  -15.2114 C   0  0  0  0  0  0  0  0  0  0  0  0
   26.1040  -16.8499  -16.4762 C   0  0  0  0  0  0  0  0  0  0  0  0
   26.9110  -17.9570  -15.8753 C   0  0  2  0  0  0  0  0  0  0  0  0
   27.9814  -18.4126  -16.7183 N   0  0  0  0  0  0  0  0  0  0  0  0
   26.0207  -19.1219  -15.5917 C   0  0  0  0  0  0  0  0  0  0  0  0
   25.7976  -19.9878  -16.4579 O   0  0  0  0  0  0  0  0  0  0  0  0
   26.1602  -22.2712  -10.5054 N   0  0  0  0  0  0  0  0  0  0  0  0
   25.7069  -20.9256  -10.3861 C   0  0  0  0  0  0  0  0  0  0  0  0
   25.7379  -20.4096   -9.2383 O   0  0  0  0  0  0  0  0  0  0  0  0
   25.2149  -20.1563  -11.5705 C   0  0  0  0  0  0  0  0  0  0  0  0
   25.1500  -21.0993  -12.7452 C   0  0  0  0  0  0  0  0  0  0  0  0
   24.6686  -20.4041  -13.9951 C   0  0  2  0  0  0  0  0  0  0  0  0
   25.4275  -19.2313  -14.3140 N   0  0  0  0  0  0  0  0  0  0  0  0
   23.2401  -20.0334  -13.7720 C   0  0  0  0  0  0  0  0  0  0  0  0
   22.9126  -19.0281  -13.0729 O   0  0  0  0  0  0  0  0  0  0  0  0
   22.1685  -20.7818  -14.3274 N   0  0  0  0  0  0  0  0  0  0  0  0
   20.7884  -20.4490  -14.1412 C   0  0  1  0  0  0  0  0  0  0  0  0
   20.0722  -20.6528  -15.4663 C   0  0  0  0  0  0  0  0  0  0  0  0
   18.6752  -20.2289  -15.4297 C   0  0  0  0  0  0  0  0  0  0  0  0
   17.8385  -20.5684  -16.3002 O   0  0  0  0  0  0  0  0  0  0  0  0
   20.1372  -21.1611  -13.0489 C   0  0  0  0  0  0  0  0  0  0  0  0
   20.4399  -22.3423  -12.7738 O   0  0  0  0  0  0  0  0  0  0  0  0
   18.2348  -19.4167  -14.3976 O   0  0  0  0  0  0  0  0  0  0  0  0
   19.1640  -20.5545  -12.2815 O   0  0  0  0  0  0  0  0  0  0  0  0
  2  3  1  1
  2  1  1  0
  4  2  1  0
  5  4  1  0
  5  6  1  6
  7  5  1  0
  8  7  2  0
 10 12  1  0
 10  9  1  0
 11 10  2  0
 14 13  1  1
 13 12  1  0
 14 15  1  0
 15  7  1  0
 16 14  1  0
 17 16  2  0
 18 16  1  0
 19 23  1  0
 19 18  1  0
 19 20  1  6
 21 20  1  0
 21 25  1  0
 22 21  2  0
 23 26  1  0
 24 23  2  0
M  END
$$$$
