LQD.pdb
     RDKit          3D

 26 25  0  0  1  0  0  0  0  0999 V2000
   29.3538  -18.7971   -5.5877 C   0  0  0  0  0  0  0  0  0  0  0  0
   28.2347  -19.7258   -5.9842 C   0  0  1  0  0  0  0  0  0  0  0  0
   27.2314  -19.7685   -4.8603 C   0  0  0  0  0  0  0  0  0  0  0  0
   27.5453  -19.2836   -7.2444 C   0  0  0  0  0  0  0  0  0  0  0  0
   26.4998  -20.2639   -7.6732 C   0  0  2  0  0  0  0  0  0  0  0  0
   26.9739  -21.6182   -7.7427 N   0  0  0  0  0  0  0  0  0  0  0  0
   25.9894  -19.8849   -9.0244 C   0  0  0  0  0  0  0  0  0  0  0  0
   25.5865  -18.7308   -9.2603 O   0  0  0  0  0  0  0  0  0  0  0  0
   28.0249  -22.1967  -14.3755 N   0  0  0  0  0  0  0  0  0  0  0  0
   27.0142  -21.2845  -14.7959 C   0  0  0  0  0  0  0  0  0  0  0  0
   26.9309  -21.0496  -16.0298 O   0  0  0  0  0  0  0  0  0  0  0  0
   26.0905  -20.6324  -13.8170 C   0  0  0  0  0  0  0  0  0  0  0  0
   26.4523  -21.1211  -12.4372 C   0  0  0  0  0  0  0  0  0  0  0  0
   25.5976  -20.4770  -11.3733 C   0  0  2  0  0  0  0  0  0  0  0  0
   25.9686  -20.8627  -10.0441 N   0  0  0  0  0  0  0  0  0  0  0  0
   24.1849  -20.8797  -11.6378 C   0  0  0  0  0  0  0  0  0  0  0  0
   23.7027  -21.9606  -11.1844 O   0  0  0  0  0  0  0  0  0  0  0  0
   23.3018  -20.0790  -12.4098 N   0  0  0  0  0  0  0  0  0  0  0  0
   21.9367  -20.4260  -12.6672 C   0  0  1  0  0  0  0  0  0  0  0  0
   21.1239  -19.1421  -12.7051 C   0  0  0  0  0  0  0  0  0  0  0  0
   19.6938  -19.3786  -12.8824 C   0  0  0  0  0  0  0  0  0  0  0  0
   19.1341  -20.4482  -12.5423 O   0  0  0  0  0  0  0  0  0  0  0  0
   21.7345  -21.2402  -13.8591 C   0  0  0  0  0  0  0  0  0  0  0  0
   20.9342  -22.2004  -13.8599 O   0  0  0  0  0  0  0  0  0  0  0  0
   18.9034  -18.3919  -13.4487 O   0  0  0  0  0  0  0  0  0  0  0  0
   22.4206  -20.9778  -15.0272 O   0  0  0  0  0  0  0  0  0  0  0  0
  2  3  1  1
  2  1  1  0
  4  2  1  0
  5  4  1  0
  5  6  1  6
  7  5  1  0
  8  7  2  0
 10 12  1  0
 10  9  1  0
 11 10  2  0
 14 13  1  6
 13 12  1  0
 14 15  1  0
 15  7  1  0
 16 14  1  0
 17 16  2  0
 18 16  1  0
 19 23  1  0
 19 18  1  0
 19 20  1  6
 21 20  1  0
 21 25  1  0
 22 21  2  0
 23 26  1  0
 24 23  2  0
M  END
$$$$
