VWD.pdb
     RDKit          3D

 30 31  0  0  1  0  0  0  0  0999 V2000
    7.0367  -14.9533   18.6836 C   0  0  0  0  0  0  0  0  0  0  0  0
    7.9153  -15.1714   19.8839 C   0  0  1  0  0  0  0  0  0  0  0  0
    9.3578  -15.1154   19.4150 C   0  0  0  0  0  0  0  0  0  0  0  0
    7.7510  -14.0958   20.9346 C   0  0  2  0  0  0  0  0  0  0  0  0
    8.0365  -12.8334   20.3131 N   0  0  0  0  0  0  0  0  0  0  0  0
    8.5854  -14.3551   22.1301 C   0  0  0  0  0  0  0  0  0  0  0  0
    9.6516  -13.7017   22.2445 O   0  0  0  0  0  0  0  0  0  0  0  0
    8.1896  -15.3133   23.1148 N   0  0  0  0  0  0  0  0  0  0  0  0
    8.9995  -15.5409   24.2780 C   0  0  1  0  0  0  0  0  0  0  0  0
    8.0716  -16.0309   25.3975 C   0  0  0  0  0  0  0  0  0  0  0  0
    7.1146  -14.9622   25.7834 C   0  0  0  0  0  0  0  0  0  0  0  0
    5.7535  -15.0938   25.8849 C   0  0  0  0  0  0  0  0  0  0  0  0
    5.2592  -13.9070   26.2560 N   0  0  0  0  0  0  0  0  0  0  0  0
    6.2492  -13.0195   26.3966 C   0  0  0  0  0  0  0  0  0  0  0  0
    6.2787  -11.6751   26.7575 C   0  0  0  0  0  0  0  0  0  0  0  0
    7.4682  -10.9782   26.8263 C   0  0  0  0  0  0  0  0  0  0  0  0
    8.6520  -11.6142   26.5348 C   0  0  0  0  0  0  0  0  0  0  0  0
    8.6240  -12.9455   26.1772 C   0  0  0  0  0  0  0  0  0  0  0  0
    7.4239  -13.6623   26.1042 C   0  0  0  0  0  0  0  0  0  0  0  0
   10.1054  -16.4805   24.0552 C   0  0  0  0  0  0  0  0  0  0  0  0
   10.6866  -16.9639   25.0639 O   0  0  0  0  0  0  0  0  0  0  0  0
   10.5133  -16.8388   22.7349 N   0  0  0  0  0  0  0  0  0  0  0  0
   11.6056  -17.7622   22.5773 C   0  0  1  0  0  0  0  0  0  0  0  0
   11.3654  -18.6142   21.3615 C   0  0  0  0  0  0  0  0  0  0  0  0
   12.4699  -19.5742   21.1170 C   0  0  0  0  0  0  0  0  0  0  0  0
   12.9936  -19.6422   19.9632 O   0  0  0  0  0  0  0  0  0  0  0  0
   12.8698  -17.0085   22.3413 C   0  0  0  0  0  0  0  0  0  0  0  0
   14.0543  -17.7140   22.3882 O   0  0  0  0  0  0  0  0  0  0  0  0
   12.9940  -20.4304   22.0728 O   0  0  0  0  0  0  0  0  0  0  0  0
   12.8841  -15.7934   22.1094 O   0  0  0  0  0  0  0  0  0  0  0  0
  2  1  1  6
  2  3  1  0
  2  4  1  0
  4  5  1  6
  6  4  1  0
  6  7  2  0
  8  6  1  0
  9  8  1  0
  9 20  1  0
  9 10  1  1
 11 10  1  0
 11 12  2  0
 13 12  1  0
 14 19  2  0
 14 13  1  0
 15 14  1  0
 16 17  1  0
 16 15  2  0
 17 18  2  0
 18 19  1  0
 19 11  1  0
 20 21  2  0
 20 22  1  0
 22 23  1  0
 23 27  1  0
 23 24  1  6
 25 24  1  0
 26 25  2  0
 27 30  2  0
 27 28  1  0
 29 25  1  0
M  END
$$$$
