VWD.pdb
     RDKit          3D

 30 31  0  0  1  0  0  0  0  0999 V2000
    8.4705  -12.5028   20.4890 C   0  0  0  0  0  0  0  0  0  0  0  0
    7.5160  -13.6634   20.5351 C   0  0  1  0  0  0  0  0  0  0  0  0
    6.7619  -13.6920   19.2181 C   0  0  0  0  0  0  0  0  0  0  0  0
    8.2184  -14.9960   20.6703 C   0  0  2  0  0  0  0  0  0  0  0  0
    7.2211  -16.0247   20.5781 N   0  0  0  0  0  0  0  0  0  0  0  0
    9.0218  -15.0771   21.9115 C   0  0  0  0  0  0  0  0  0  0  0  0
   10.0192  -14.3201   22.0058 O   0  0  0  0  0  0  0  0  0  0  0  0
    8.6727  -15.9835   22.9609 N   0  0  0  0  0  0  0  0  0  0  0  0
    9.4297  -16.0139   24.1802 C   0  0  1  0  0  0  0  0  0  0  0  0
    8.4515  -16.3157   25.3231 C   0  0  0  0  0  0  0  0  0  0  0  0
    7.3917  -15.2766   25.3870 C   0  0  0  0  0  0  0  0  0  0  0  0
    6.0855  -15.4290   24.9986 C   0  0  0  0  0  0  0  0  0  0  0  0
    5.4608  -14.2657   25.2155 N   0  0  0  0  0  0  0  0  0  0  0  0
    6.3144  -13.3732   25.7277 C   0  0  0  0  0  0  0  0  0  0  0  0
    6.1795  -12.0457   26.1251 C   0  0  0  0  0  0  0  0  0  0  0  0
    7.2501  -11.3381   26.6332 C   0  0  0  0  0  0  0  0  0  0  0  0
    8.4776  -11.9463   26.7534 C   0  0  0  0  0  0  0  0  0  0  0  0
    8.6125  -13.2609   26.3601 C   0  0  0  0  0  0  0  0  0  0  0  0
    7.5338  -13.9883   25.8436 C   0  0  0  0  0  0  0  0  0  0  0  0
   10.5403  -16.9741   24.1641 C   0  0  0  0  0  0  0  0  0  0  0  0
   10.3462  -18.0982   23.6277 O   0  0  0  0  0  0  0  0  0  0  0  0
   11.8056  -16.6470   24.7386 N   0  0  0  0  0  0  0  0  0  0  0  0
   12.8241  -17.6623   24.7873 C   0  0  1  0  0  0  0  0  0  0  0  0
   14.1776  -17.0078   24.8261 C   0  0  0  0  0  0  0  0  0  0  0  0
   14.4770  -16.2546   23.5834 C   0  0  0  0  0  0  0  0  0  0  0  0
   13.9927  -16.6528   22.4803 O   0  0  0  0  0  0  0  0  0  0  0  0
   12.6840  -18.4540   26.0424 C   0  0  0  0  0  0  0  0  0  0  0  0
   13.5763  -19.4849   26.2524 O   0  0  0  0  0  0  0  0  0  0  0  0
   15.2667  -15.1169   23.5241 O   0  0  0  0  0  0  0  0  0  0  0  0
   11.8077  -18.2158   26.8825 O   0  0  0  0  0  0  0  0  0  0  0  0
  2  1  1  6
  2  3  1  0
  2  4  1  0
  4  5  1  1
  6  4  1  0
  6  7  2  0
  8  6  1  0
  9  8  1  0
  9 20  1  0
  9 10  1  1
 11 10  1  0
 11 12  2  0
 13 12  1  0
 14 19  2  0
 14 13  1  0
 15 14  1  0
 16 17  1  0
 16 15  2  0
 17 18  2  0
 18 19  1  0
 19 11  1  0
 20 21  2  0
 20 22  1  0
 22 23  1  0
 23 27  1  0
 23 24  1  1
 25 24  1  0
 26 25  2  0
 27 30  2  0
 27 28  1  0
 29 25  1  0
M  END
$$$$
