VWD.pdb
     RDKit          3D

 30 31  0  0  1  0  0  0  0  0999 V2000
    8.3950  -12.5507   20.3553 C   0  0  0  0  0  0  0  0  0  0  0  0
    7.4538  -13.7145   20.4964 C   0  0  1  0  0  0  0  0  0  0  0  0
    6.6537  -13.8181   19.2106 C   0  0  0  0  0  0  0  0  0  0  0  0
    8.1733  -15.0328   20.6756 C   0  0  2  0  0  0  0  0  0  0  0  0
    7.1952  -16.0791   20.5765 N   0  0  0  0  0  0  0  0  0  0  0  0
    8.9441  -15.0776   21.9392 C   0  0  0  0  0  0  0  0  0  0  0  0
    9.9350  -14.3129   22.0400 O   0  0  0  0  0  0  0  0  0  0  0  0
    8.5719  -15.9586   23.0021 N   0  0  0  0  0  0  0  0  0  0  0  0
    9.3035  -15.9615   24.2371 C   0  0  1  0  0  0  0  0  0  0  0  0
    8.3198  -16.3310   25.3552 C   0  0  0  0  0  0  0  0  0  0  0  0
    7.2749  -15.2841   25.4940 C   0  0  0  0  0  0  0  0  0  0  0  0
    5.9465  -15.4215   25.1831 C   0  0  0  0  0  0  0  0  0  0  0  0
    5.3463  -14.2557   25.4498 N   0  0  0  0  0  0  0  0  0  0  0  0
    6.2369  -13.3761   25.9196 C   0  0  0  0  0  0  0  0  0  0  0  0
    6.1376  -12.0522   26.3389 C   0  0  0  0  0  0  0  0  0  0  0  0
    7.2430  -11.3592   26.7895 C   0  0  0  0  0  0  0  0  0  0  0  0
    8.4701  -11.9786   26.8290 C   0  0  0  0  0  0  0  0  0  0  0  0
    8.5695  -13.2897   26.4141 C   0  0  0  0  0  0  0  0  0  0  0  0
    7.4555  -14.0024   25.9553 C   0  0  0  0  0  0  0  0  0  0  0  0
   10.4662  -16.8581   24.2348 C   0  0  0  0  0  0  0  0  0  0  0  0
   10.2939  -18.0535   23.8739 O   0  0  0  0  0  0  0  0  0  0  0  0
   11.7567  -16.3923   24.6292 N   0  0  0  0  0  0  0  0  0  0  0  0
   12.8136  -17.3533   24.8021 C   0  0  1  0  0  0  0  0  0  0  0  0
   14.1269  -16.6314   24.9277 C   0  0  0  0  0  0  0  0  0  0  0  0
   14.7356  -16.3319   23.6081 C   0  0  0  0  0  0  0  0  0  0  0  0
   13.9929  -15.9636   22.6474 O   0  0  0  0  0  0  0  0  0  0  0  0
   12.6045  -18.1064   26.0713 C   0  0  0  0  0  0  0  0  0  0  0  0
   13.5035  -19.1067   26.3781 O   0  0  0  0  0  0  0  0  0  0  0  0
   16.0899  -16.4240   23.3274 O   0  0  0  0  0  0  0  0  0  0  0  0
   11.6663  -17.8630   26.8401 O   0  0  0  0  0  0  0  0  0  0  0  0
  2  1  1  6
  2  3  1  0
  2  4  1  0
  4  5  1  1
  6  4  1  0
  6  7  2  0
  8  6  1  0
  9  8  1  0
  9 20  1  0
  9 10  1  1
 11 10  1  0
 11 12  2  0
 13 12  1  0
 14 19  2  0
 14 13  1  0
 15 14  1  0
 16 17  1  0
 16 15  2  0
 17 18  2  0
 18 19  1  0
 19 11  1  0
 20 21  2  0
 20 22  1  0
 22 23  1  0
 23 27  1  0
 23 24  1  1
 25 24  1  0
 26 25  2  0
 27 30  2  0
 27 28  1  0
 29 25  1  0
M  END
$$$$
