VWD.pdb
     RDKit          3D

 30 31  0  0  1  0  0  0  0  0999 V2000
    8.4406  -12.6434   20.4109 C   0  0  0  0  0  0  0  0  0  0  0  0
    7.6529  -13.9137   20.5724 C   0  0  1  0  0  0  0  0  0  0  0  0
    6.9760  -14.2076   19.2460 C   0  0  0  0  0  0  0  0  0  0  0  0
    8.5238  -15.1070   20.8971 C   0  0  2  0  0  0  0  0  0  0  0  0
    7.7122  -16.2847   20.7719 N   0  0  0  0  0  0  0  0  0  0  0  0
    9.1633  -14.9824   22.2268 C   0  0  0  0  0  0  0  0  0  0  0  0
    9.9909  -14.0514   22.3860 O   0  0  0  0  0  0  0  0  0  0  0  0
    8.8487  -15.8888   23.2870 N   0  0  0  0  0  0  0  0  0  0  0  0
    9.6258  -15.8975   24.4939 C   0  0  1  0  0  0  0  0  0  0  0  0
    8.6778  -16.2404   25.6506 C   0  0  0  0  0  0  0  0  0  0  0  0
    7.5513  -15.2734   25.7023 C   0  0  0  0  0  0  0  0  0  0  0  0
    6.2544  -15.5222   25.3327 C   0  0  0  0  0  0  0  0  0  0  0  0
    5.5552  -14.3985   25.5296 N   0  0  0  0  0  0  0  0  0  0  0  0
    6.3520  -13.4388   26.0109 C   0  0  0  0  0  0  0  0  0  0  0  0
    6.1321  -12.1141   26.3786 C   0  0  0  0  0  0  0  0  0  0  0  0
    7.1578  -11.3243   26.8577 C   0  0  0  0  0  0  0  0  0  0  0  0
    8.4245  -11.8458   26.9778 C   0  0  0  0  0  0  0  0  0  0  0  0
    8.6435  -13.1576   26.6139 C   0  0  0  0  0  0  0  0  0  0  0  0
    7.6111  -13.9679   26.1270 C   0  0  0  0  0  0  0  0  0  0  0  0
   10.7704  -16.8162   24.4549 C   0  0  0  0  0  0  0  0  0  0  0  0
   11.3103  -17.1394   25.5471 O   0  0  0  0  0  0  0  0  0  0  0  0
   11.2602  -17.3311   23.2168 N   0  0  0  0  0  0  0  0  0  0  0  0
   12.3633  -18.2547   23.2420 C   0  0  1  0  0  0  0  0  0  0  0  0
   12.1099  -19.3597   22.2539 C   0  0  0  0  0  0  0  0  0  0  0  0
   11.4321  -20.5259   22.8718 C   0  0  0  0  0  0  0  0  0  0  0  0
   11.1690  -20.5093   24.1131 O   0  0  0  0  0  0  0  0  0  0  0  0
   13.6098  -17.5595   22.8119 C   0  0  0  0  0  0  0  0  0  0  0  0
   13.5001  -16.2510   22.3892 O   0  0  0  0  0  0  0  0  0  0  0  0
   11.0506  -21.6684   22.1859 O   0  0  0  0  0  0  0  0  0  0  0  0
   14.7160  -18.1133   22.8242 O   0  0  0  0  0  0  0  0  0  0  0  0
  2  1  1  6
  2  3  1  0
  2  4  1  0
  4  5  1  1
  6  4  1  0
  6  7  2  0
  8  6  1  0
  9  8  1  0
  9 20  1  0
  9 10  1  1
 11 10  1  0
 11 12  2  0
 13 12  1  0
 14 19  2  0
 14 13  1  0
 15 14  1  0
 16 17  1  0
 16 15  2  0
 17 18  2  0
 18 19  1  0
 19 11  1  0
 20 21  2  0
 20 22  1  0
 22 23  1  0
 23 27  1  0
 23 24  1  6
 25 24  1  0
 26 25  2  0
 27 30  2  0
 27 28  1  0
 29 25  1  0
M  END
$$$$
