VWD.pdb
     RDKit          3D

 30 31  0  0  1  0  0  0  0  0999 V2000
    7.5343  -13.0501   18.8569 C   0  0  0  0  0  0  0  0  0  0  0  0
    8.1835  -13.3442   20.1806 C   0  0  1  0  0  0  0  0  0  0  0  0
    7.1660  -13.0503   21.2679 C   0  0  0  0  0  0  0  0  0  0  0  0
    8.5814  -14.7958   20.3295 C   0  0  2  0  0  0  0  0  0  0  0  0
    7.4355  -15.5966   20.0026 N   0  0  0  0  0  0  0  0  0  0  0  0
    9.1273  -15.0869   21.6748 C   0  0  0  0  0  0  0  0  0  0  0  0
   10.1488  -14.4513   22.0348 O   0  0  0  0  0  0  0  0  0  0  0  0
    8.5129  -16.0551   22.5290 N   0  0  0  0  0  0  0  0  0  0  0  0
    9.0797  -16.3598   23.8122 C   0  0  1  0  0  0  0  0  0  0  0  0
    7.9185  -16.5324   24.8002 C   0  0  0  0  0  0  0  0  0  0  0  0
    7.2126  -15.2409   25.0019 C   0  0  0  0  0  0  0  0  0  0  0  0
    6.0372  -14.8604   24.4069 C   0  0  0  0  0  0  0  0  0  0  0  0
    5.7385  -13.6336   24.8499 N   0  0  0  0  0  0  0  0  0  0  0  0
    6.6755  -13.2121   25.7054 C   0  0  0  0  0  0  0  0  0  0  0  0
    6.8401  -12.0375   26.4345 C   0  0  0  0  0  0  0  0  0  0  0  0
    7.9277  -11.8569   27.2651 C   0  0  0  0  0  0  0  0  0  0  0  0
    8.8721  -12.8495   27.3819 C   0  0  0  0  0  0  0  0  0  0  0  0
    8.7101  -14.0132   26.6605 C   0  0  0  0  0  0  0  0  0  0  0  0
    7.6113  -14.2075   25.8152 C   0  0  0  0  0  0  0  0  0  0  0  0
    9.9539  -17.5393   23.8086 C   0  0  0  0  0  0  0  0  0  0  0  0
   10.0662  -18.1925   22.7364 O   0  0  0  0  0  0  0  0  0  0  0  0
   10.6586  -17.9378   24.9845 N   0  0  0  0  0  0  0  0  0  0  0  0
   11.8757  -18.6912   24.8372 C   0  0  1  0  0  0  0  0  0  0  0  0
   12.9067  -17.8411   24.1473 C   0  0  0  0  0  0  0  0  0  0  0  0
   13.7202  -18.6150   23.1774 C   0  0  0  0  0  0  0  0  0  0  0  0
   13.5621  -19.8712   23.0925 O   0  0  0  0  0  0  0  0  0  0  0  0
   12.4194  -19.0345   26.1819 C   0  0  0  0  0  0  0  0  0  0  0  0
   13.4519  -19.9474   26.2414 O   0  0  0  0  0  0  0  0  0  0  0  0
   14.6687  -18.0641   22.3300 O   0  0  0  0  0  0  0  0  0  0  0  0
   11.9787  -18.5328   27.2234 O   0  0  0  0  0  0  0  0  0  0  0  0
  2  1  1  6
  2  3  1  0
  2  4  1  0
  4  5  1  1
  6  4  1  0
  6  7  2  0
  8  6  1  0
  9  8  1  0
  9 20  1  0
  9 10  1  1
 11 10  1  0
 11 12  2  0
 13 12  1  0
 14 19  2  0
 14 13  1  0
 15 14  1  0
 16 17  1  0
 16 15  2  0
 17 18  2  0
 18 19  1  0
 19 11  1  0
 20 21  2  0
 20 22  1  0
 22 23  1  0
 23 27  1  0
 23 24  1  1
 25 24  1  0
 26 25  2  0
 27 30  2  0
 27 28  1  0
 29 25  1  0
M  END
$$$$
