VWD.pdb
     RDKit          3D

 30 31  0  0  1  0  0  0  0  0999 V2000
    7.7166  -12.9243   18.7496 C   0  0  0  0  0  0  0  0  0  0  0  0
    8.4128  -13.3099   20.0251 C   0  0  1  0  0  0  0  0  0  0  0  0
    7.5550  -12.8290   21.1814 C   0  0  0  0  0  0  0  0  0  0  0  0
    8.5649  -14.8066   20.1813 C   0  0  2  0  0  0  0  0  0  0  0  0
    7.2782  -15.4009   19.9522 N   0  0  0  0  0  0  0  0  0  0  0  0
    9.1468  -15.1718   21.4931 C   0  0  0  0  0  0  0  0  0  0  0  0
   10.3442  -14.8569   21.7028 O   0  0  0  0  0  0  0  0  0  0  0  0
    8.3726  -15.8566   22.4811 N   0  0  0  0  0  0  0  0  0  0  0  0
    8.9561  -16.2217   23.7408 C   0  0  1  0  0  0  0  0  0  0  0  0
    7.8097  -16.4069   24.7438 C   0  0  0  0  0  0  0  0  0  0  0  0
    7.1466  -15.1066   25.0199 C   0  0  0  0  0  0  0  0  0  0  0  0
    5.9347  -14.6962   24.5269 C   0  0  0  0  0  0  0  0  0  0  0  0
    5.6956  -13.4714   25.0098 N   0  0  0  0  0  0  0  0  0  0  0  0
    6.7059  -13.0799   25.7930 C   0  0  0  0  0  0  0  0  0  0  0  0
    6.9506  -11.9199   26.5230 C   0  0  0  0  0  0  0  0  0  0  0  0
    8.1044  -11.7714   27.2658 C   0  0  0  0  0  0  0  0  0  0  0  0
    9.0364  -12.7822   27.2922 C   0  0  0  0  0  0  0  0  0  0  0  0
    8.7951  -13.9315   26.5697 C   0  0  0  0  0  0  0  0  0  0  0  0
    7.6287  -14.0932   25.8130 C   0  0  0  0  0  0  0  0  0  0  0  0
    9.8041  -17.4184   23.6763 C   0  0  0  0  0  0  0  0  0  0  0  0
    9.5048  -18.3145   22.8418 O   0  0  0  0  0  0  0  0  0  0  0  0
   10.9365  -17.5662   24.5330 N   0  0  0  0  0  0  0  0  0  0  0  0
   11.8299  -18.6720   24.3105 C   0  0  1  0  0  0  0  0  0  0  0  0
   12.4805  -18.5228   22.9628 C   0  0  0  0  0  0  0  0  0  0  0  0
   13.5009  -19.5695   22.7088 C   0  0  0  0  0  0  0  0  0  0  0  0
   13.7423  -20.4359   23.6039 O   0  0  0  0  0  0  0  0  0  0  0  0
   12.9192  -18.6497   25.3277 C   0  0  0  0  0  0  0  0  0  0  0  0
   12.9138  -17.6235   26.2496 O   0  0  0  0  0  0  0  0  0  0  0  0
   14.2362  -19.6840   21.5394 O   0  0  0  0  0  0  0  0  0  0  0  0
   13.8085  -19.5088   25.3662 O   0  0  0  0  0  0  0  0  0  0  0  0
  2  1  1  6
  2  3  1  0
  2  4  1  0
  4  5  1  1
  6  4  1  0
  6  7  2  0
  8  6  1  0
  9  8  1  0
  9 20  1  0
  9 10  1  1
 11 10  1  0
 11 12  2  0
 13 12  1  0
 14 19  2  0
 14 13  1  0
 15 14  1  0
 16 17  1  0
 16 15  2  0
 17 18  2  0
 18 19  1  0
 19 11  1  0
 20 21  2  0
 20 22  1  0
 22 23  1  0
 23 27  1  0
 23 24  1  6
 25 24  1  0
 26 25  2  0
 27 30  2  0
 27 28  1  0
 29 25  1  0
M  END
$$$$
