VWD.pdb
     RDKit          3D

 30 31  0  0  1  0  0  0  0  0999 V2000
    6.3349  -16.7752   18.4789 C   0  0  0  0  0  0  0  0  0  0  0  0
    7.3108  -16.7427   19.6220 C   0  0  1  0  0  0  0  0  0  0  0  0
    8.7085  -16.8321   19.0369 C   0  0  0  0  0  0  0  0  0  0  0  0
    7.2453  -15.4553   20.4132 C   0  0  2  0  0  0  0  0  0  0  0  0
    7.4291  -14.3691   19.4924 N   0  0  0  0  0  0  0  0  0  0  0  0
    8.2177  -15.4395   21.5298 C   0  0  0  0  0  0  0  0  0  0  0  0
    9.3078  -14.8459   21.3395 O   0  0  0  0  0  0  0  0  0  0  0  0
    7.9239  -16.0764   22.7758 N   0  0  0  0  0  0  0  0  0  0  0  0
    8.8854  -16.0721   23.8417 C   0  0  1  0  0  0  0  0  0  0  0  0
    8.1392  -16.4157   25.1376 C   0  0  0  0  0  0  0  0  0  0  0  0
    7.1912  -15.3289   25.4942 C   0  0  0  0  0  0  0  0  0  0  0  0
    5.8227  -15.4022   25.4479 C   0  0  0  0  0  0  0  0  0  0  0  0
    5.3408  -14.2186   25.8446 N   0  0  0  0  0  0  0  0  0  0  0  0
    6.3458  -13.3891   26.1436 C   0  0  0  0  0  0  0  0  0  0  0  0
    6.3918  -12.0725   26.5939 C   0  0  0  0  0  0  0  0  0  0  0  0
    7.5949  -11.4380   26.8291 C   0  0  0  0  0  0  0  0  0  0  0  0
    8.7760  -12.1098   26.6180 C   0  0  0  0  0  0  0  0  0  0  0  0
    8.7316  -13.4137   26.1721 C   0  0  0  0  0  0  0  0  0  0  0  0
    7.5176  -14.0673   25.9301 C   0  0  0  0  0  0  0  0  0  0  0  0
   10.0165  -16.9823   23.6228 C   0  0  0  0  0  0  0  0  0  0  0  0
    9.7726  -18.1379   23.1824 O   0  0  0  0  0  0  0  0  0  0  0  0
   11.3559  -16.5730   23.8995 N   0  0  0  0  0  0  0  0  0  0  0  0
   12.4371  -17.4320   23.4947 C   0  0  1  0  0  0  0  0  0  0  0  0
   13.0050  -16.9373   22.1930 C   0  0  0  0  0  0  0  0  0  0  0  0
   14.2165  -17.6892   21.7829 C   0  0  0  0  0  0  0  0  0  0  0  0
   14.3206  -18.9174   22.0846 O   0  0  0  0  0  0  0  0  0  0  0  0
   13.5329  -17.3686   24.5031 C   0  0  0  0  0  0  0  0  0  0  0  0
   13.3699  -16.5137   25.5734 O   0  0  0  0  0  0  0  0  0  0  0  0
   15.2779  -17.1459   21.0761 O   0  0  0  0  0  0  0  0  0  0  0  0
   14.5623  -18.0482   24.4076 O   0  0  0  0  0  0  0  0  0  0  0  0
  2  1  1  6
  2  3  1  0
  2  4  1  0
  4  5  1  6
  6  4  1  0
  6  7  2  0
  8  6  1  0
  9  8  1  0
  9 20  1  0
  9 10  1  1
 11 10  1  0
 11 12  2  0
 13 12  1  0
 14 19  2  0
 14 13  1  0
 15 14  1  0
 16 17  1  0
 16 15  2  0
 17 18  2  0
 18 19  1  0
 19 11  1  0
 20 21  2  0
 20 22  1  0
 22 23  1  0
 23 27  1  0
 23 24  1  6
 25 24  1  0
 26 25  2  0
 27 30  2  0
 27 28  1  0
 29 25  1  0
M  END
$$$$
