VWD.pdb
     RDKit          3D

 30 31  0  0  1  0  0  0  0  0999 V2000
    8.2335  -18.5662   19.9924 C   0  0  0  0  0  0  0  0  0  0  0  0
    8.4953  -17.4957   18.9698 C   0  0  1  0  0  0  0  0  0  0  0  0
    7.9480  -17.9845   17.6410 C   0  0  0  0  0  0  0  0  0  0  0  0
    7.7892  -16.1962   19.2865 C   0  0  2  0  0  0  0  0  0  0  0  0
    7.9594  -15.3228   18.1597 N   0  0  0  0  0  0  0  0  0  0  0  0
    8.2632  -15.6019   20.5572 C   0  0  0  0  0  0  0  0  0  0  0  0
    9.2584  -14.8380   20.5031 O   0  0  0  0  0  0  0  0  0  0  0  0
    7.6107  -15.8885   21.7968 N   0  0  0  0  0  0  0  0  0  0  0  0
    8.0378  -15.2516   23.0103 C   0  0  1  0  0  0  0  0  0  0  0  0
    6.9172  -15.4285   24.0434 C   0  0  0  0  0  0  0  0  0  0  0  0
    7.2949  -14.7942   25.3325 C   0  0  0  0  0  0  0  0  0  0  0  0
    7.9518  -15.4025   26.3711 C   0  0  0  0  0  0  0  0  0  0  0  0
    8.1008  -14.4945   27.3425 N   0  0  0  0  0  0  0  0  0  0  0  0
    7.5657  -13.3278   26.9682 C   0  0  0  0  0  0  0  0  0  0  0  0
    7.4541  -12.0878   27.5914 C   0  0  0  0  0  0  0  0  0  0  0  0
    6.8378  -11.0241   26.9639 C   0  0  0  0  0  0  0  0  0  0  0  0
    6.3208  -11.1812   25.6995 C   0  0  0  0  0  0  0  0  0  0  0  0
    6.4307  -12.4087   25.0813 C   0  0  0  0  0  0  0  0  0  0  0  0
    7.0536  -13.4945   25.7078 C   0  0  0  0  0  0  0  0  0  0  0  0
    9.3181  -15.7538   23.5241 C   0  0  0  0  0  0  0  0  0  0  0  0
   10.0166  -14.9824   24.2354 O   0  0  0  0  0  0  0  0  0  0  0  0
    9.7622  -17.0781   23.2287 N   0  0  0  0  0  0  0  0  0  0  0  0
   11.1072  -17.4491   23.5808 C   0  0  1  0  0  0  0  0  0  0  0  0
   12.0087  -16.2550   23.4289 C   0  0  0  0  0  0  0  0  0  0  0  0
   13.4418  -16.6052   23.5862 C   0  0  0  0  0  0  0  0  0  0  0  0
   13.8691  -17.7077   23.1255 O   0  0  0  0  0  0  0  0  0  0  0  0
   11.1567  -17.8560   25.0139 C   0  0  0  0  0  0  0  0  0  0  0  0
   11.7864  -19.0443   25.3209 O   0  0  0  0  0  0  0  0  0  0  0  0
   14.3829  -15.8046   24.2145 O   0  0  0  0  0  0  0  0  0  0  0  0
   10.6587  -17.1707   25.9156 O   0  0  0  0  0  0  0  0  0  0  0  0
  2  1  1  1
  2  3  1  0
  2  4  1  0
  4  5  1  6
  6  4  1  0
  6  7  2  0
  8  6  1  0
  9  8  1  0
  9 20  1  0
  9 10  1  1
 11 10  1  0
 11 12  2  0
 13 12  1  0
 14 19  2  0
 14 13  1  0
 15 14  1  0
 16 17  1  0
 16 15  2  0
 17 18  2  0
 18 19  1  0
 19 11  1  0
 20 21  2  0
 20 22  1  0
 22 23  1  0
 23 27  1  0
 23 24  1  1
 25 24  1  0
 26 25  2  0
 27 30  2  0
 27 28  1  0
 29 25  1  0
M  END
$$$$
