VWD.pdb
     RDKit          3D

 30 31  0  0  1  0  0  0  0  0999 V2000
    9.2162  -17.8557   20.0474 C   0  0  0  0  0  0  0  0  0  0  0  0
    8.4349  -16.6829   19.5237 C   0  0  1  0  0  0  0  0  0  0  0  0
    7.5714  -17.1793   18.3784 C   0  0  0  0  0  0  0  0  0  0  0  0
    7.5010  -16.0917   20.5562 C   0  0  2  0  0  0  0  0  0  0  0  0
    6.7565  -15.0423   19.9192 N   0  0  0  0  0  0  0  0  0  0  0  0
    8.2255  -15.6371   21.7649 C   0  0  0  0  0  0  0  0  0  0  0  0
    8.8990  -14.5812   21.6730 O   0  0  0  0  0  0  0  0  0  0  0  0
    8.1590  -16.3740   22.9885 N   0  0  0  0  0  0  0  0  0  0  0  0
    9.0253  -16.0466   24.0852 C   0  0  1  0  0  0  0  0  0  0  0  0
    8.2458  -16.3036   25.3816 C   0  0  0  0  0  0  0  0  0  0  0  0
    7.2039  -15.2626   25.5757 C   0  0  0  0  0  0  0  0  0  0  0  0
    5.8480  -15.4509   25.4960 C   0  0  0  0  0  0  0  0  0  0  0  0
    5.2615  -14.2718   25.7328 N   0  0  0  0  0  0  0  0  0  0  0  0
    6.1873  -13.3346   25.9612 C   0  0  0  0  0  0  0  0  0  0  0  0
    6.1144  -11.9749   26.2517 C   0  0  0  0  0  0  0  0  0  0  0  0
    7.2550  -11.2223   26.4464 C   0  0  0  0  0  0  0  0  0  0  0  0
    8.4915  -11.8168   26.3541 C   0  0  0  0  0  0  0  0  0  0  0  0
    8.5649  -13.1632   26.0666 C   0  0  0  0  0  0  0  0  0  0  0  0
    7.4152  -13.9364   25.8672 C   0  0  0  0  0  0  0  0  0  0  0  0
   10.2967  -16.7807   24.0754 C   0  0  0  0  0  0  0  0  0  0  0  0
   10.2871  -17.9804   23.6888 O   0  0  0  0  0  0  0  0  0  0  0  0
   11.5114  -16.1563   24.4911 N   0  0  0  0  0  0  0  0  0  0  0  0
   12.7441  -16.8856   24.3531 C   0  0  1  0  0  0  0  0  0  0  0  0
   13.8764  -15.9160   24.1546 C   0  0  0  0  0  0  0  0  0  0  0  0
   15.1750  -16.6003   23.9380 C   0  0  0  0  0  0  0  0  0  0  0  0
   16.2556  -15.9621   24.1256 O   0  0  0  0  0  0  0  0  0  0  0  0
   13.0259  -17.6372   25.6092 C   0  0  0  0  0  0  0  0  0  0  0  0
   14.0399  -18.5720   25.5824 O   0  0  0  0  0  0  0  0  0  0  0  0
   15.3114  -17.9193   23.5345 O   0  0  0  0  0  0  0  0  0  0  0  0
   12.3882  -17.4484   26.6523 O   0  0  0  0  0  0  0  0  0  0  0  0
  2  1  1  1
  2  3  1  0
  2  4  1  0
  4  5  1  6
  6  4  1  0
  6  7  2  0
  8  6  1  0
  9  8  1  0
  9 20  1  0
  9 10  1  1
 11 10  1  0
 11 12  2  0
 13 12  1  0
 14 19  2  0
 14 13  1  0
 15 14  1  0
 16 17  1  0
 16 15  2  0
 17 18  2  0
 18 19  1  0
 19 11  1  0
 20 21  2  0
 20 22  1  0
 22 23  1  0
 23 27  1  0
 23 24  1  1
 25 24  1  0
 26 25  2  0
 27 30  2  0
 27 28  1  0
 29 25  1  0
M  END
$$$$
