VWD.pdb
     RDKit          3D

 30 31  0  0  1  0  0  0  0  0999 V2000
    8.0158  -13.5805   16.9753 C   0  0  0  0  0  0  0  0  0  0  0  0
    8.0542  -13.3372   18.4584 C   0  0  1  0  0  0  0  0  0  0  0  0
    6.6214  -13.3191   18.9593 C   0  0  0  0  0  0  0  0  0  0  0  0
    8.7719  -14.4330   19.2145 C   0  0  2  0  0  0  0  0  0  0  0  0
    8.2758  -15.6911   18.7323 N   0  0  0  0  0  0  0  0  0  0  0  0
    8.6333  -14.2788   20.6807 C   0  0  0  0  0  0  0  0  0  0  0  0
    7.9741  -13.2954   21.0994 O   0  0  0  0  0  0  0  0  0  0  0  0
    9.2283  -15.2152   21.5827 N   0  0  0  0  0  0  0  0  0  0  0  0
    9.0335  -15.0883   22.9992 C   0  0  1  0  0  0  0  0  0  0  0  0
    7.5256  -14.9489   23.2468 C   0  0  0  0  0  0  0  0  0  0  0  0
    7.2524  -14.7655   24.6955 C   0  0  0  0  0  0  0  0  0  0  0  0
    7.0586  -15.7646   25.6145 C   0  0  0  0  0  0  0  0  0  0  0  0
    6.8425  -15.1857   26.8014 N   0  0  0  0  0  0  0  0  0  0  0  0
    6.8901  -13.8551   26.6802 C   0  0  0  0  0  0  0  0  0  0  0  0
    6.7360  -12.8102   27.5873 C   0  0  0  0  0  0  0  0  0  0  0  0
    6.8367  -11.4933   27.1863 C   0  0  0  0  0  0  0  0  0  0  0  0
    7.0938  -11.1967   25.8684 C   0  0  0  0  0  0  0  0  0  0  0  0
    7.2466  -12.2307   24.9692 C   0  0  0  0  0  0  0  0  0  0  0  0
    7.1467  -13.5698   25.3644 C   0  0  0  0  0  0  0  0  0  0  0  0
    9.5991  -16.1977   23.7768 C   0  0  0  0  0  0  0  0  0  0  0  0
    9.1439  -17.3561   23.5771 O   0  0  0  0  0  0  0  0  0  0  0  0
   10.6358  -15.9745   24.7326 N   0  0  0  0  0  0  0  0  0  0  0  0
   11.5134  -17.0650   25.0657 C   0  0  1  0  0  0  0  0  0  0  0  0
   12.8421  -16.5171   25.5084 C   0  0  0  0  0  0  0  0  0  0  0  0
   13.7688  -16.2944   24.3713 C   0  0  0  0  0  0  0  0  0  0  0  0
   14.8897  -15.7373   24.5796 O   0  0  0  0  0  0  0  0  0  0  0  0
   10.9500  -17.8298   26.2144 C   0  0  0  0  0  0  0  0  0  0  0  0
   10.0281  -17.1918   27.0181 O   0  0  0  0  0  0  0  0  0  0  0  0
   13.5046  -16.6543   23.0591 O   0  0  0  0  0  0  0  0  0  0  0  0
   11.2803  -18.9964   26.4603 O   0  0  0  0  0  0  0  0  0  0  0  0
  2  1  1  6
  2  3  1  0
  2  4  1  0
  4  5  1  6
  6  4  1  0
  6  7  2  0
  8  6  1  0
  9  8  1  0
  9 20  1  0
  9 10  1  6
 11 10  1  0
 11 12  2  0
 13 12  1  0
 14 19  2  0
 14 13  1  0
 15 14  1  0
 16 17  1  0
 16 15  2  0
 17 18  2  0
 18 19  1  0
 19 11  1  0
 20 21  2  0
 20 22  1  0
 22 23  1  0
 23 27  1  0
 23 24  1  1
 25 24  1  0
 26 25  2  0
 27 30  2  0
 27 28  1  0
 29 25  1  0
M  END
$$$$
