VWD.pdb
     RDKit          3D

 30 31  0  0  1  0  0  0  0  0999 V2000
    7.4170  -13.6731   19.1957 C   0  0  0  0  0  0  0  0  0  0  0  0
    8.1662  -13.7077   20.4986 C   0  0  1  0  0  0  0  0  0  0  0  0
    7.2007  -13.2981   21.5960 C   0  0  0  0  0  0  0  0  0  0  0  0
    8.6712  -15.0898   20.8487 C   0  0  2  0  0  0  0  0  0  0  0  0
    7.5473  -15.9829   20.8234 N   0  0  0  0  0  0  0  0  0  0  0  0
    9.3955  -15.1059   22.1401 C   0  0  0  0  0  0  0  0  0  0  0  0
   10.4288  -14.3984   22.2329 O   0  0  0  0  0  0  0  0  0  0  0  0
    8.9337  -15.8976   23.2376 N   0  0  0  0  0  0  0  0  0  0  0  0
    9.6464  -15.9033   24.4836 C   0  0  1  0  0  0  0  0  0  0  0  0
    8.6452  -16.2727   25.5861 C   0  0  0  0  0  0  0  0  0  0  0  0
    7.5124  -15.3117   25.6016 C   0  0  0  0  0  0  0  0  0  0  0  0
    6.2172  -15.5827   25.2422 C   0  0  0  0  0  0  0  0  0  0  0  0
    5.5107  -14.4569   25.3966 N   0  0  0  0  0  0  0  0  0  0  0  0
    6.3013  -13.4745   25.8409 C   0  0  0  0  0  0  0  0  0  0  0  0
    6.0729  -12.1383   26.1584 C   0  0  0  0  0  0  0  0  0  0  0  0
    7.0935  -11.3244   26.6068 C   0  0  0  0  0  0  0  0  0  0  0  0
    8.3636  -11.8328   26.7461 C   0  0  0  0  0  0  0  0  0  0  0  0
    8.5910  -13.1559   26.4320 C   0  0  0  0  0  0  0  0  0  0  0  0
    7.5638  -13.9907   25.9765 C   0  0  0  0  0  0  0  0  0  0  0  0
   10.8076  -16.8016   24.4979 C   0  0  0  0  0  0  0  0  0  0  0  0
   11.3864  -17.0071   25.5986 O   0  0  0  0  0  0  0  0  0  0  0  0
   11.2704  -17.4266   23.3007 N   0  0  0  0  0  0  0  0  0  0  0  0
   12.4783  -18.2069   23.3527 C   0  0  1  0  0  0  0  0  0  0  0  0
   13.4734  -17.6494   22.3725 C   0  0  0  0  0  0  0  0  0  0  0  0
   14.7653  -18.3785   22.4024 C   0  0  0  0  0  0  0  0  0  0  0  0
   14.9051  -19.3688   23.1834 O   0  0  0  0  0  0  0  0  0  0  0  0
   13.0892  -18.0966   24.7079 C   0  0  0  0  0  0  0  0  0  0  0  0
   13.2526  -19.2585   25.4333 O   0  0  0  0  0  0  0  0  0  0  0  0
   15.8673  -18.0584   21.6250 O   0  0  0  0  0  0  0  0  0  0  0  0
   13.4458  -17.0139   25.1885 O   0  0  0  0  0  0  0  0  0  0  0  0
  2  1  1  6
  2  3  1  0
  2  4  1  0
  4  5  1  1
  6  4  1  0
  6  7  2  0
  8  6  1  0
  9  8  1  0
  9 20  1  0
  9 10  1  1
 11 10  1  0
 11 12  2  0
 13 12  1  0
 14 19  2  0
 14 13  1  0
 15 14  1  0
 16 17  1  0
 16 15  2  0
 17 18  2  0
 18 19  1  0
 19 11  1  0
 20 21  2  0
 20 22  1  0
 22 23  1  0
 23 27  1  0
 23 24  1  6
 25 24  1  0
 26 25  2  0
 27 30  2  0
 27 28  1  0
 29 25  1  0
M  END
$$$$
