VWD.pdb
     RDKit          3D

 30 31  0  0  1  0  0  0  0  0999 V2000
    8.9981  -17.5286   20.0739 C   0  0  0  0  0  0  0  0  0  0  0  0
    8.1863  -16.3057   19.7489 C   0  0  1  0  0  0  0  0  0  0  0  0
    7.1875  -16.6888   18.6720 C   0  0  0  0  0  0  0  0  0  0  0  0
    7.3887  -15.7997   20.9303 C   0  0  2  0  0  0  0  0  0  0  0  0
    6.5700  -14.7140   20.4695 N   0  0  0  0  0  0  0  0  0  0  0  0
    8.2587  -15.4269   22.0691 C   0  0  0  0  0  0  0  0  0  0  0  0
    8.8535  -14.3228   22.0057 O   0  0  0  0  0  0  0  0  0  0  0  0
    8.4137  -16.2929   23.1963 N   0  0  0  0  0  0  0  0  0  0  0  0
    9.3294  -15.9608   24.2507 C   0  0  1  0  0  0  0  0  0  0  0  0
    8.5990  -16.1799   25.5822 C   0  0  0  0  0  0  0  0  0  0  0  0
    7.4746  -15.2190   25.7214 C   0  0  0  0  0  0  0  0  0  0  0  0
    6.1419  -15.5074   25.5758 C   0  0  0  0  0  0  0  0  0  0  0  0
    5.4587  -14.3751   25.7795 N   0  0  0  0  0  0  0  0  0  0  0  0
    6.3001  -13.3719   26.0500 C   0  0  0  0  0  0  0  0  0  0  0  0
    6.1124  -12.0215   26.3320 C   0  0  0  0  0  0  0  0  0  0  0  0
    7.1831  -11.1864   26.5800 C   0  0  0  0  0  0  0  0  0  0  0  0
    8.4633  -11.6875   26.5505 C   0  0  0  0  0  0  0  0  0  0  0  0
    8.6504  -13.0247   26.2715 C   0  0  0  0  0  0  0  0  0  0  0  0
    7.5723  -13.8810   26.0184 C   0  0  0  0  0  0  0  0  0  0  0  0
   10.5866  -16.7177   24.2037 C   0  0  0  0  0  0  0  0  0  0  0  0
   10.5215  -17.9710   24.0846 O   0  0  0  0  0  0  0  0  0  0  0  0
   11.8487  -16.0562   24.2898 N   0  0  0  0  0  0  0  0  0  0  0  0
   13.0448  -16.8551   24.3301 C   0  0  1  0  0  0  0  0  0  0  0  0
   14.2473  -15.9548   24.2573 C   0  0  0  0  0  0  0  0  0  0  0  0
   14.8974  -15.9868   22.9240 C   0  0  0  0  0  0  0  0  0  0  0  0
   14.4409  -16.7580   22.0255 O   0  0  0  0  0  0  0  0  0  0  0  0
   13.1195  -17.5817   25.6295 C   0  0  0  0  0  0  0  0  0  0  0  0
   13.8568  -18.7469   25.6703 O   0  0  0  0  0  0  0  0  0  0  0  0
   15.9964  -15.2218   22.5661 O   0  0  0  0  0  0  0  0  0  0  0  0
   12.5501  -17.1758   26.6500 O   0  0  0  0  0  0  0  0  0  0  0  0
  2  1  1  1
  2  3  1  0
  2  4  1  0
  4  5  1  6
  6  4  1  0
  6  7  2  0
  8  6  1  0
  9  8  1  0
  9 20  1  0
  9 10  1  1
 11 10  1  0
 11 12  2  0
 13 12  1  0
 14 19  2  0
 14 13  1  0
 15 14  1  0
 16 17  1  0
 16 15  2  0
 17 18  2  0
 18 19  1  0
 19 11  1  0
 20 21  2  0
 20 22  1  0
 22 23  1  0
 23 27  1  0
 23 24  1  1
 25 24  1  0
 26 25  2  0
 27 30  2  0
 27 28  1  0
 29 25  1  0
M  END
$$$$
