HME.pdb
     RDKit          3D

 28 28  0  0  1  0  0  0  0  0999 V2000
    7.8404  -16.4884   20.4103 N   0  0  0  0  0  0  0  0  0  0  0  0
    9.2573  -16.3607   20.6807 C   0  0  1  0  0  0  0  0  0  0  0  0
    9.8135  -15.3395   19.7101 C   0  0  0  0  0  0  0  0  0  0  0  0
    8.8886  -14.1775   19.6685 C   0  0  0  0  0  0  0  0  0  0  0  0
    8.8672  -13.0586   20.4836 C   0  0  0  0  0  0  0  0  0  0  0  0
    7.8606  -12.2497   20.0996 N   0  0  0  0  0  0  0  0  0  0  0  0
    7.2498  -12.8301   19.0660 C   0  0  0  0  0  0  0  0  0  0  0  0
    7.8653  -13.9879   18.8053 N   0  0  0  0  0  0  0  0  0  0  0  0
    9.4354  -15.9456   22.0850 C   0  0  0  0  0  0  0  0  0  0  0  0
   10.6025  -15.6906   22.4900 O   0  0  0  0  0  0  0  0  0  0  0  0
    6.8354  -10.9184   26.1128 C   0  0  0  0  0  0  0  0  0  0  0  0
    7.0785  -12.6847   26.4664 S   0  0  0  0  0  0  0  0  0  0  0  0
    7.2488  -13.5136   24.8439 C   0  0  0  0  0  0  0  0  0  0  0  0
    7.4272  -14.9938   25.0230 C   0  0  0  0  0  0  0  0  0  0  0  0
    8.6561  -15.5718   24.3974 C   0  0  2  0  0  0  0  0  0  0  0  0
    8.3447  -15.8227   22.9965 N   0  0  0  0  0  0  0  0  0  0  0  0
    9.0510  -16.8254   25.0780 C   0  0  0  0  0  0  0  0  0  0  0  0
    8.3511  -17.8615   25.0518 O   0  0  0  0  0  0  0  0  0  0  0  0
   10.2713  -16.9404   25.8192 N   0  0  0  0  0  0  0  0  0  0  0  0
   10.7820  -18.1354   26.3978 C   0  0  1  0  0  0  0  0  0  0  0  0
   12.2001  -18.4494   26.1674 C   0  0  0  0  0  0  0  0  0  0  0  0
   12.7758  -19.6391   26.8387 C   0  0  0  0  0  0  0  0  0  0  0  0
   14.1897  -19.9227   26.5591 C   0  0  0  0  0  0  0  0  0  0  0  0
   14.4675  -20.7360   25.6426 O   0  0  0  0  0  0  0  0  0  0  0  0
   10.4231  -18.2131   27.8348 C   0  0  0  0  0  0  0  0  0  0  0  0
    9.9932  -17.2153   28.4837 O   0  0  0  0  0  0  0  0  0  0  0  0
   15.2566  -19.3499   27.2426 O   0  0  0  0  0  0  0  0  0  0  0  0
   10.5402  -19.3956   28.5545 O   0  0  0  0  0  0  0  0  0  0  0  0
  2  1  1  6
  3  4  1  0
  3  2  1  0
  4  5  2  0
  4  8  1  0
  5  6  1  0
  6  7  1  0
  8  7  2  0
  9  2  1  0
  9 10  2  0
 11 12  1  0
 13 12  1  0
 14 13  1  0
 15 16  1  0
 15 14  1  1
 16  9  1  0
 17 15  1  0
 18 17  2  0
 19 17  1  0
 20 19  1  0
 20 21  1  1
 22 21  1  0
 22 23  1  0
 23 27  1  0
 23 24  2  0
 25 20  1  0
 25 28  1  0
 26 25  2  0
M  END
$$$$
