HME.pdb
     RDKit          3D

 28 28  0  0  1  0  0  0  0  0999 V2000
   10.4521  -16.3014   19.9128 N   0  0  0  0  0  0  0  0  0  0  0  0
    9.2464  -16.5062   20.6881 C   0  0  1  0  0  0  0  0  0  0  0  0
    8.9836  -17.9973   20.7319 C   0  0  0  0  0  0  0  0  0  0  0  0
    8.1059  -18.3541   19.5875 C   0  0  0  0  0  0  0  0  0  0  0  0
    7.6341  -17.5400   18.5718 C   0  0  0  0  0  0  0  0  0  0  0  0
    6.8664  -18.2699   17.7393 N   0  0  0  0  0  0  0  0  0  0  0  0
    6.8434  -19.5194   18.2045 C   0  0  0  0  0  0  0  0  0  0  0  0
    7.5870  -19.5725   19.3143 N   0  0  0  0  0  0  0  0  0  0  0  0
    9.4477  -15.9387   22.0348 C   0  0  0  0  0  0  0  0  0  0  0  0
   10.6185  -15.9107   22.5031 O   0  0  0  0  0  0  0  0  0  0  0  0
    6.5859  -11.4763   27.8254 C   0  0  0  0  0  0  0  0  0  0  0  0
    6.2514  -12.2797   26.2296 S   0  0  0  0  0  0  0  0  0  0  0  0
    7.6766  -13.3791   25.9005 C   0  0  0  0  0  0  0  0  0  0  0  0
    7.5448  -14.0254   24.5515 C   0  0  0  0  0  0  0  0  0  0  0  0
    8.6968  -14.8835   24.1364 C   0  0  2  0  0  0  0  0  0  0  0  0
    8.3751  -15.4240   22.8223 N   0  0  0  0  0  0  0  0  0  0  0  0
    8.9157  -15.9752   25.1116 C   0  0  0  0  0  0  0  0  0  0  0  0
    8.1341  -16.9439   25.2328 O   0  0  0  0  0  0  0  0  0  0  0  0
   10.0465  -15.9988   25.9906 N   0  0  0  0  0  0  0  0  0  0  0  0
   10.3834  -17.0550   26.8820 C   0  0  1  0  0  0  0  0  0  0  0  0
   11.6544  -17.7581   26.6523 C   0  0  0  0  0  0  0  0  0  0  0  0
   11.8541  -18.4454   25.3541 C   0  0  0  0  0  0  0  0  0  0  0  0
   13.1410  -19.1297   25.1720 C   0  0  0  0  0  0  0  0  0  0  0  0
   14.0359  -18.9628   26.0379 O   0  0  0  0  0  0  0  0  0  0  0  0
   10.2407  -16.6131   28.2907 C   0  0  0  0  0  0  0  0  0  0  0  0
    9.9366  -15.4253   28.6038 O   0  0  0  0  0  0  0  0  0  0  0  0
   13.4454  -19.9591   24.0982 O   0  0  0  0  0  0  0  0  0  0  0  0
   10.4349  -17.4862   29.3538 O   0  0  0  0  0  0  0  0  0  0  0  0
  2  1  1  6
  3  4  1  0
  3  2  1  0
  4  5  2  0
  4  8  1  0
  5  6  1  0
  6  7  1  0
  8  7  2  0
  9  2  1  0
  9 10  2  0
 11 12  1  0
 13 12  1  0
 14 13  1  0
 15 16  1  0
 15 14  1  1
 16  9  1  0
 17 15  1  0
 18 17  2  0
 19 17  1  0
 20 19  1  0
 20 21  1  1
 22 21  1  0
 22 23  1  0
 23 27  1  0
 23 24  2  0
 25 20  1  0
 25 28  1  0
 26 25  2  0
M  END
$$$$
