HME.pdb
     RDKit          3D

 28 28  0  0  1  0  0  0  0  0999 V2000
    7.7801  -15.8762   20.0577 N   0  0  0  0  0  0  0  0  0  0  0  0
    9.1445  -15.5506   20.4172 C   0  0  1  0  0  0  0  0  0  0  0  0
    9.5685  -14.3720   19.5653 C   0  0  0  0  0  0  0  0  0  0  0  0
    8.7529  -14.3716   18.3235 C   0  0  0  0  0  0  0  0  0  0  0  0
    7.7944  -15.2844   17.9170 C   0  0  0  0  0  0  0  0  0  0  0  0
    7.2992  -14.9049   16.7231 N   0  0  0  0  0  0  0  0  0  0  0  0
    7.9202  -13.7792   16.3690 C   0  0  0  0  0  0  0  0  0  0  0  0
    8.7937  -13.4570   17.3285 N   0  0  0  0  0  0  0  0  0  0  0  0
    9.1926  -15.2391   21.8583 C   0  0  0  0  0  0  0  0  0  0  0  0
   10.3193  -15.0437   22.3907 O   0  0  0  0  0  0  0  0  0  0  0  0
    8.3725  -12.1825   27.8133 C   0  0  0  0  0  0  0  0  0  0  0  0
    7.3760  -12.2082   26.2933 S   0  0  0  0  0  0  0  0  0  0  0  0
    6.8715  -13.9488   26.0404 C   0  0  0  0  0  0  0  0  0  0  0  0
    6.9025  -14.3011   24.5811 C   0  0  0  0  0  0  0  0  0  0  0  0
    8.1948  -14.8667   24.0854 C   0  0  2  0  0  0  0  0  0  0  0  0
    8.0207  -15.1511   22.6672 N   0  0  0  0  0  0  0  0  0  0  0  0
    8.5467  -16.0987   24.8264 C   0  0  0  0  0  0  0  0  0  0  0  0
    7.8277  -17.1220   24.8224 O   0  0  0  0  0  0  0  0  0  0  0  0
    9.7441  -16.2059   25.6052 N   0  0  0  0  0  0  0  0  0  0  0  0
   10.2858  -17.4104   26.1339 C   0  0  1  0  0  0  0  0  0  0  0  0
   11.6447  -17.7853   25.7150 C   0  0  0  0  0  0  0  0  0  0  0  0
   12.2686  -18.9784   26.3353 C   0  0  0  0  0  0  0  0  0  0  0  0
   13.6486  -19.2756   25.9291 C   0  0  0  0  0  0  0  0  0  0  0  0
   14.0891  -20.4382   26.1107 O   0  0  0  0  0  0  0  0  0  0  0  0
   10.1297  -17.4484   27.6085 C   0  0  0  0  0  0  0  0  0  0  0  0
    9.8686  -16.4159   28.2920 O   0  0  0  0  0  0  0  0  0  0  0  0
   14.5139  -18.3534   25.3510 O   0  0  0  0  0  0  0  0  0  0  0  0
   10.2627  -18.6298   28.3272 O   0  0  0  0  0  0  0  0  0  0  0  0
  2  1  1  6
  3  4  1  0
  3  2  1  0
  4  5  2  0
  4  8  1  0
  5  6  1  0
  6  7  1  0
  8  7  2  0
  9  2  1  0
  9 10  2  0
 11 12  1  0
 13 12  1  0
 14 13  1  0
 15 16  1  0
 15 14  1  1
 16  9  1  0
 17 15  1  0
 18 17  2  0
 19 17  1  0
 20 19  1  0
 20 21  1  1
 22 21  1  0
 22 23  1  0
 23 27  1  0
 23 24  2  0
 25 20  1  0
 25 28  1  0
 26 25  2  0
M  END
$$$$
