HME.pdb
     RDKit          3D

 28 28  0  0  1  0  0  0  0  0999 V2000
    8.6261  -14.9274   20.0552 N   0  0  0  0  0  0  0  0  0  0  0  0
    8.3359  -15.9991   20.9848 C   0  0  1  0  0  0  0  0  0  0  0  0
    9.0158  -17.2481   20.4630 C   0  0  0  0  0  0  0  0  0  0  0  0
    8.2834  -17.7133   19.2570 C   0  0  0  0  0  0  0  0  0  0  0  0
    7.0551  -17.2942   18.7748 C   0  0  0  0  0  0  0  0  0  0  0  0
    6.7620  -17.9799   17.6528 N   0  0  0  0  0  0  0  0  0  0  0  0
    7.7724  -18.8177   17.4175 C   0  0  0  0  0  0  0  0  0  0  0  0
    8.6872  -18.6595   18.3795 N   0  0  0  0  0  0  0  0  0  0  0  0
    8.8315  -15.6146   22.3200 C   0  0  0  0  0  0  0  0  0  0  0  0
   10.0632  -15.3791   22.4559 O   0  0  0  0  0  0  0  0  0  0  0  0
    6.3839  -10.7376   26.5353 C   0  0  0  0  0  0  0  0  0  0  0  0
    6.5097  -12.5127   26.9052 S   0  0  0  0  0  0  0  0  0  0  0  0
    7.1399  -13.3101   25.3836 C   0  0  0  0  0  0  0  0  0  0  0  0
    7.5443  -14.7296   25.6595 C   0  0  0  0  0  0  0  0  0  0  0  0
    8.5983  -15.2834   24.7552 C   0  0  2  0  0  0  0  0  0  0  0  0
    7.9758  -15.4997   23.4558 N   0  0  0  0  0  0  0  0  0  0  0  0
    9.1381  -16.5519   25.2940 C   0  0  0  0  0  0  0  0  0  0  0  0
    8.4265  -17.5597   25.4992 O   0  0  0  0  0  0  0  0  0  0  0  0
   10.5233  -16.7151   25.6201 N   0  0  0  0  0  0  0  0  0  0  0  0
   11.1136  -17.8844   26.1750 C   0  0  1  0  0  0  0  0  0  0  0  0
   12.5512  -18.0935   25.9462 C   0  0  0  0  0  0  0  0  0  0  0  0
   13.1370  -17.6197   24.6695 C   0  0  0  0  0  0  0  0  0  0  0  0
   14.6012  -17.6766   24.5654 C   0  0  0  0  0  0  0  0  0  0  0  0
   15.1270  -18.7062   24.0735 O   0  0  0  0  0  0  0  0  0  0  0  0
   10.7546  -18.0194   27.6078 C   0  0  0  0  0  0  0  0  0  0  0  0
   11.0876  -19.0245   28.3009 O   0  0  0  0  0  0  0  0  0  0  0  0
   15.4586  -16.6620   24.9763 O   0  0  0  0  0  0  0  0  0  0  0  0
   10.0264  -17.0417   28.2740 O   0  0  0  0  0  0  0  0  0  0  0  0
  2  1  1  6
  3  4  1  0
  3  2  1  0
  4  5  2  0
  4  8  1  0
  5  6  1  0
  6  7  1  0
  8  7  2  0
  9  2  1  0
  9 10  2  0
 11 12  1  0
 13 12  1  0
 14 13  1  0
 15 16  1  0
 15 14  1  1
 16  9  1  0
 17 15  1  0
 18 17  2  0
 19 17  1  0
 20 19  1  0
 20 21  1  1
 22 21  1  0
 22 23  1  0
 23 27  1  0
 23 24  2  0
 25 20  1  0
 25 28  1  0
 26 25  2  0
M  END
$$$$
