HME.pdb
     RDKit          3D

 28 28  0  0  1  0  0  0  0  0999 V2000
    8.8643  -12.7007   18.6443 N   0  0  0  0  0  0  0  0  0  0  0  0
    8.2060  -13.8045   19.3114 C   0  0  1  0  0  0  0  0  0  0  0  0
    8.6589  -15.0800   18.6314 C   0  0  0  0  0  0  0  0  0  0  0  0
    8.1263  -15.0883   17.2445 C   0  0  0  0  0  0  0  0  0  0  0  0
    7.4806  -14.0733   16.5591 C   0  0  0  0  0  0  0  0  0  0  0  0
    7.1639  -14.5051   15.3229 N   0  0  0  0  0  0  0  0  0  0  0  0
    7.5929  -15.7629   15.2135 C   0  0  0  0  0  0  0  0  0  0  0  0
    8.1712  -16.1154   16.3662 N   0  0  0  0  0  0  0  0  0  0  0  0
    8.5702  -13.7786   20.7407 C   0  0  0  0  0  0  0  0  0  0  0  0
    9.7715  -13.5474   21.0478 O   0  0  0  0  0  0  0  0  0  0  0  0
    6.3084  -11.6913   27.8237 C   0  0  0  0  0  0  0  0  0  0  0  0
    5.7462  -12.2636   26.1927 S   0  0  0  0  0  0  0  0  0  0  0  0
    7.1992  -13.0351   25.3913 C   0  0  0  0  0  0  0  0  0  0  0  0
    6.9251  -13.2948   23.9380 C   0  0  0  0  0  0  0  0  0  0  0  0
    8.0739  -13.8491   23.1579 C   0  0  2  0  0  0  0  0  0  0  0  0
    7.6210  -14.0037   21.7819 N   0  0  0  0  0  0  0  0  0  0  0  0
    8.5071  -15.1501   23.7152 C   0  0  0  0  0  0  0  0  0  0  0  0
    7.7865  -16.1720   23.6924 O   0  0  0  0  0  0  0  0  0  0  0  0
    9.7913  -15.3310   24.3234 N   0  0  0  0  0  0  0  0  0  0  0  0
   10.3311  -16.5687   24.7712 C   0  0  1  0  0  0  0  0  0  0  0  0
   11.7894  -16.7415   24.6928 C   0  0  0  0  0  0  0  0  0  0  0  0
   12.3744  -18.0145   25.1775 C   0  0  0  0  0  0  0  0  0  0  0  0
   13.8350  -18.1370   25.0809 C   0  0  0  0  0  0  0  0  0  0  0  0
   14.4923  -17.1517   24.6616 O   0  0  0  0  0  0  0  0  0  0  0  0
    9.8033  -16.9116   26.1143 C   0  0  0  0  0  0  0  0  0  0  0  0
    9.4296  -16.0318   26.9435 O   0  0  0  0  0  0  0  0  0  0  0  0
   14.5527  -19.2776   25.4238 O   0  0  0  0  0  0  0  0  0  0  0  0
    9.6892  -18.2290   26.5402 O   0  0  0  0  0  0  0  0  0  0  0  0
  2  1  1  6
  3  4  1  0
  3  2  1  0
  4  5  2  0
  4  8  1  0
  5  6  1  0
  6  7  1  0
  8  7  2  0
  9  2  1  0
  9 10  2  0
 11 12  1  0
 13 12  1  0
 14 13  1  0
 15 16  1  0
 15 14  1  1
 16  9  1  0
 17 15  1  0
 18 17  2  0
 19 17  1  0
 20 19  1  0
 20 21  1  1
 22 21  1  0
 22 23  1  0
 23 27  1  0
 23 24  2  0
 25 20  1  0
 25 28  1  0
 26 25  2  0
M  END
$$$$
