HME.pdb
     RDKit          3D

 28 28  0  0  1  0  0  0  0  0999 V2000
    7.8929  -15.8736   19.5998 N   0  0  0  0  0  0  0  0  0  0  0  0
    7.3698  -16.3675   20.8565 C   0  0  1  0  0  0  0  0  0  0  0  0
    7.4541  -17.8795   20.8193 C   0  0  0  0  0  0  0  0  0  0  0  0
    6.5045  -18.3784   19.7914 C   0  0  0  0  0  0  0  0  0  0  0  0
    5.7330  -17.6519   18.9004 C   0  0  0  0  0  0  0  0  0  0  0  0
    5.0113  -18.5016   18.1440 N   0  0  0  0  0  0  0  0  0  0  0  0
    5.3086  -19.7411   18.5355 C   0  0  0  0  0  0  0  0  0  0  0  0
    6.2051  -19.6698   19.5248 N   0  0  0  0  0  0  0  0  0  0  0  0
    8.1659  -15.7946   21.9583 C   0  0  0  0  0  0  0  0  0  0  0  0
    9.4052  -15.6389   21.7827 O   0  0  0  0  0  0  0  0  0  0  0  0
    7.1266  -12.1182   27.6974 C   0  0  0  0  0  0  0  0  0  0  0  0
    5.9102  -12.4450   26.3869 S   0  0  0  0  0  0  0  0  0  0  0  0
    6.8591  -13.0602   24.9484 C   0  0  0  0  0  0  0  0  0  0  0  0
    7.6139  -14.3076   25.3078 C   0  0  0  0  0  0  0  0  0  0  0  0
    8.4793  -14.8678   24.2248 C   0  0  2  0  0  0  0  0  0  0  0  0
    7.5907  -15.4124   23.2067 N   0  0  0  0  0  0  0  0  0  0  0  0
    9.3711  -15.9217   24.7585 C   0  0  0  0  0  0  0  0  0  0  0  0
    8.9922  -17.0977   24.9521 O   0  0  0  0  0  0  0  0  0  0  0  0
   10.7404  -15.6664   25.0926 N   0  0  0  0  0  0  0  0  0  0  0  0
   11.7747  -16.6409   25.1584 C   0  0  1  0  0  0  0  0  0  0  0  0
   13.0918  -16.2708   24.6191 C   0  0  0  0  0  0  0  0  0  0  0  0
   14.2011  -17.2468   24.7389 C   0  0  0  0  0  0  0  0  0  0  0  0
   15.4802  -16.8549   24.1321 C   0  0  0  0  0  0  0  0  0  0  0  0
   15.5340  -16.7174   22.8844 O   0  0  0  0  0  0  0  0  0  0  0  0
   11.8740  -17.2035   26.5272 C   0  0  0  0  0  0  0  0  0  0  0  0
   12.5317  -18.2533   26.7854 O   0  0  0  0  0  0  0  0  0  0  0  0
   16.6504  -16.6219   24.8462 O   0  0  0  0  0  0  0  0  0  0  0  0
   11.2448  -16.6040   27.6111 O   0  0  0  0  0  0  0  0  0  0  0  0
  2  1  1  6
  3  4  1  0
  3  2  1  0
  4  5  2  0
  4  8  1  0
  5  6  1  0
  6  7  1  0
  8  7  2  0
  9  2  1  0
  9 10  2  0
 11 12  1  0
 13 12  1  0
 14 13  1  0
 15 16  1  0
 15 14  1  1
 16  9  1  0
 17 15  1  0
 18 17  2  0
 19 17  1  0
 20 19  1  0
 20 21  1  1
 22 21  1  0
 22 23  1  0
 23 27  1  0
 23 24  2  0
 25 20  1  0
 25 28  1  0
 26 25  2  0
M  END
$$$$
