HME.pdb
     RDKit          3D

 28 28  0  0  1  0  0  0  0  0999 V2000
   10.2906  -15.5592   19.5846 N   0  0  0  0  0  0  0  0  0  0  0  0
    9.0177  -15.8540   20.2088 C   0  0  1  0  0  0  0  0  0  0  0  0
    8.6837  -17.2981   19.8965 C   0  0  0  0  0  0  0  0  0  0  0  0
    8.4145  -17.4143   18.4400 C   0  0  0  0  0  0  0  0  0  0  0  0
    7.4250  -16.8005   17.6910 C   0  0  0  0  0  0  0  0  0  0  0  0
    7.5405  -17.1843   16.4048 N   0  0  0  0  0  0  0  0  0  0  0  0
    8.5750  -18.0219   16.3260 C   0  0  0  0  0  0  0  0  0  0  0  0
    9.1015  -18.1617   17.5469 N   0  0  0  0  0  0  0  0  0  0  0  0
    9.1348  -15.6130   21.6594 C   0  0  0  0  0  0  0  0  0  0  0  0
   10.1285  -16.0963   22.2677 O   0  0  0  0  0  0  0  0  0  0  0  0
    6.7368  -11.2524   27.2904 C   0  0  0  0  0  0  0  0  0  0  0  0
    7.9701  -12.1544   26.3059 S   0  0  0  0  0  0  0  0  0  0  0  0
    7.1973  -13.7501   25.8533 C   0  0  0  0  0  0  0  0  0  0  0  0
    7.2144  -13.9417   24.3640 C   0  0  0  0  0  0  0  0  0  0  0  0
    8.3792  -14.7123   23.8301 C   0  0  2  0  0  0  0  0  0  0  0  0
    8.1729  -14.8590   22.3954 N   0  0  0  0  0  0  0  0  0  0  0  0
    8.4751  -16.0372   24.4828 C   0  0  0  0  0  0  0  0  0  0  0  0
    7.5952  -16.9179   24.3637 O   0  0  0  0  0  0  0  0  0  0  0  0
    9.5908  -16.4062   25.3020 N   0  0  0  0  0  0  0  0  0  0  0  0
    9.7822  -17.6715   25.9233 C   0  0  1  0  0  0  0  0  0  0  0  0
   10.8301  -18.5457   25.3751 C   0  0  0  0  0  0  0  0  0  0  0  0
   12.2273  -18.0505   25.3677 C   0  0  0  0  0  0  0  0  0  0  0  0
   13.0800  -18.5269   24.2706 C   0  0  0  0  0  0  0  0  0  0  0  0
   13.8935  -19.4554   24.5042 O   0  0  0  0  0  0  0  0  0  0  0  0
    9.9020  -17.5169   27.3936 C   0  0  0  0  0  0  0  0  0  0  0  0
   10.0955  -18.4992   28.1676 O   0  0  0  0  0  0  0  0  0  0  0  0
   13.0524  -18.0195   22.9762 O   0  0  0  0  0  0  0  0  0  0  0  0
    9.8074  -16.2745   28.0080 O   0  0  0  0  0  0  0  0  0  0  0  0
  2  1  1  6
  3  4  1  0
  3  2  1  0
  4  5  2  0
  4  8  1  0
  5  6  1  0
  6  7  1  0
  8  7  2  0
  9  2  1  0
  9 10  2  0
 11 12  1  0
 13 12  1  0
 14 13  1  0
 15 16  1  0
 15 14  1  1
 16  9  1  0
 17 15  1  0
 18 17  2  0
 19 17  1  0
 20 19  1  0
 20 21  1  6
 22 21  1  0
 22 23  1  0
 23 27  1  0
 23 24  2  0
 25 20  1  0
 25 28  1  0
 26 25  2  0
M  END
$$$$
