HME.pdb
     RDKit          3D

 28 28  0  0  1  0  0  0  0  0999 V2000
    7.8150  -16.0254   21.0390 N   0  0  0  0  0  0  0  0  0  0  0  0
    9.2290  -15.8766   21.3136 C   0  0  1  0  0  0  0  0  0  0  0  0
    9.7584  -14.7978   20.3914 C   0  0  0  0  0  0  0  0  0  0  0  0
    8.6452  -14.3314   19.5252 C   0  0  0  0  0  0  0  0  0  0  0  0
    7.3339  -14.7740   19.4874 C   0  0  0  0  0  0  0  0  0  0  0  0
    6.6582  -14.0789   18.5519 N   0  0  0  0  0  0  0  0  0  0  0  0
    7.5092  -13.2122   18.0015 C   0  0  0  0  0  0  0  0  0  0  0  0
    8.7031  -13.3619   18.5844 N   0  0  0  0  0  0  0  0  0  0  0  0
    9.4003  -15.5238   22.7356 C   0  0  0  0  0  0  0  0  0  0  0  0
   10.5589  -15.2410   23.1464 O   0  0  0  0  0  0  0  0  0  0  0  0
    7.4931  -11.7550   27.6232 C   0  0  0  0  0  0  0  0  0  0  0  0
    6.2643  -12.2460   26.3772 S   0  0  0  0  0  0  0  0  0  0  0  0
    7.1611  -13.2572   25.1436 C   0  0  0  0  0  0  0  0  0  0  0  0
    7.4633  -14.6201   25.6967 C   0  0  0  0  0  0  0  0  0  0  0  0
    8.6251  -15.3229   25.0708 C   0  0  2  0  0  0  0  0  0  0  0  0
    8.3122  -15.4907   23.6578 N   0  0  0  0  0  0  0  0  0  0  0  0
    8.8532  -16.6356   25.7154 C   0  0  0  0  0  0  0  0  0  0  0  0
    7.9229  -17.4168   26.0125 O   0  0  0  0  0  0  0  0  0  0  0  0
   10.1650  -17.1065   26.0460 N   0  0  0  0  0  0  0  0  0  0  0  0
   10.4683  -18.3459   26.6751 C   0  0  1  0  0  0  0  0  0  0  0  0
   11.7639  -18.9673   26.3618 C   0  0  0  0  0  0  0  0  0  0  0  0
   12.2005  -19.0091   24.9458 C   0  0  0  0  0  0  0  0  0  0  0  0
   13.6355  -18.8118   24.7018 C   0  0  0  0  0  0  0  0  0  0  0  0
   14.3887  -18.6126   25.6875 O   0  0  0  0  0  0  0  0  0  0  0  0
   10.2339  -18.2590   28.1371 C   0  0  0  0  0  0  0  0  0  0  0  0
    9.8885  -17.1839   28.7082 O   0  0  0  0  0  0  0  0  0  0  0  0
   14.2290  -18.8298   23.4445 O   0  0  0  0  0  0  0  0  0  0  0  0
   10.3820  -19.3627   28.9678 O   0  0  0  0  0  0  0  0  0  0  0  0
  2  1  1  6
  3  4  1  0
  3  2  1  0
  4  5  2  0
  4  8  1  0
  5  6  1  0
  6  7  1  0
  8  7  2  0
  9  2  1  0
  9 10  2  0
 11 12  1  0
 13 12  1  0
 14 13  1  0
 15 16  1  0
 15 14  1  1
 16  9  1  0
 17 15  1  0
 18 17  2  0
 19 17  1  0
 20 19  1  0
 20 21  1  1
 22 21  1  0
 22 23  1  0
 23 27  1  0
 23 24  2  0
 25 20  1  0
 25 28  1  0
 26 25  2  0
M  END
$$$$
