HME.pdb
     RDKit          3D

 28 28  0  0  1  0  0  0  0  0999 V2000
    7.4484  -17.3986   20.3225 N   0  0  0  0  0  0  0  0  0  0  0  0
    8.4752  -16.4004   20.1071 C   0  0  1  0  0  0  0  0  0  0  0  0
    8.0068  -15.5048   18.9789 C   0  0  0  0  0  0  0  0  0  0  0  0
    7.9029  -16.3215   17.7421 C   0  0  0  0  0  0  0  0  0  0  0  0
    8.9191  -16.7956   16.9300 C   0  0  0  0  0  0  0  0  0  0  0  0
    8.3823  -17.4935   15.9103 N   0  0  0  0  0  0  0  0  0  0  0  0
    7.0575  -17.4706   16.0601 C   0  0  0  0  0  0  0  0  0  0  0  0
    6.7671  -16.7674   17.1595 N   0  0  0  0  0  0  0  0  0  0  0  0
    8.6778  -15.6517   21.3619 C   0  0  0  0  0  0  0  0  0  0  0  0
    9.6673  -14.8735   21.4409 O   0  0  0  0  0  0  0  0  0  0  0  0
    7.6612  -11.8412   27.4865 C   0  0  0  0  0  0  0  0  0  0  0  0
    7.4554  -12.3651   25.7582 S   0  0  0  0  0  0  0  0  0  0  0  0
    7.1130  -14.1620   25.8045 C   0  0  0  0  0  0  0  0  0  0  0  0
    6.9356  -14.7021   24.4147 C   0  0  0  0  0  0  0  0  0  0  0  0
    8.1940  -15.1194   23.7234 C   0  0  2  0  0  0  0  0  0  0  0  0
    7.8027  -15.7739   22.4820 N   0  0  0  0  0  0  0  0  0  0  0  0
    8.9795  -16.0404   24.5751 C   0  0  0  0  0  0  0  0  0  0  0  0
    8.4964  -17.0791   25.0771 O   0  0  0  0  0  0  0  0  0  0  0  0
   10.3579  -15.8051   24.8857 N   0  0  0  0  0  0  0  0  0  0  0  0
   11.2478  -16.7441   25.4774 C   0  0  1  0  0  0  0  0  0  0  0  0
   12.6900  -16.5188   25.2985 C   0  0  0  0  0  0  0  0  0  0  0  0
   13.6337  -17.5027   25.8807 C   0  0  0  0  0  0  0  0  0  0  0  0
   15.0627  -17.2372   25.6682 C   0  0  0  0  0  0  0  0  0  0  0  0
   15.6091  -17.6935   24.6329 O   0  0  0  0  0  0  0  0  0  0  0  0
   10.8943  -16.9719   26.8998 C   0  0  0  0  0  0  0  0  0  0  0  0
   10.4840  -16.0440   27.6561 O   0  0  0  0  0  0  0  0  0  0  0  0
   15.8651  -16.5088   26.5394 O   0  0  0  0  0  0  0  0  0  0  0  0
   10.9949  -18.2275   27.4858 O   0  0  0  0  0  0  0  0  0  0  0  0
  2  1  1  1
  3  4  1  0
  3  2  1  0
  4  5  2  0
  4  8  1  0
  5  6  1  0
  6  7  1  0
  8  7  2  0
  9  2  1  0
  9 10  2  0
 11 12  1  0
 13 12  1  0
 14 13  1  0
 15 16  1  0
 15 14  1  1
 16  9  1  0
 17 15  1  0
 18 17  2  0
 19 17  1  0
 20 19  1  0
 20 21  1  1
 22 21  1  0
 22 23  1  0
 23 27  1  0
 23 24  2  0
 25 20  1  0
 25 28  1  0
 26 25  2  0
M  END
$$$$
