HME.pdb
     RDKit          3D

 28 28  0  0  1  0  0  0  0  0999 V2000
    9.3361  -15.6950   19.6188 N   0  0  0  0  0  0  0  0  0  0  0  0
    8.4051  -16.2063   20.6030 C   0  0  1  0  0  0  0  0  0  0  0  0
    8.4504  -17.7184   20.5269 C   0  0  0  0  0  0  0  0  0  0  0  0
    7.8367  -18.1434   19.2423 C   0  0  0  0  0  0  0  0  0  0  0  0
    8.4486  -18.7049   18.1346 C   0  0  0  0  0  0  0  0  0  0  0  0
    7.5208  -18.9364   17.1856 N   0  0  0  0  0  0  0  0  0  0  0  0
    6.3436  -18.5358   17.6672 C   0  0  0  0  0  0  0  0  0  0  0  0
    6.5307  -18.0591   18.9022 N   0  0  0  0  0  0  0  0  0  0  0  0
    8.8004  -15.7058   21.9332 C   0  0  0  0  0  0  0  0  0  0  0  0
   10.0296  -15.6513   22.2107 O   0  0  0  0  0  0  0  0  0  0  0  0
    6.9129  -10.8194   26.9349 C   0  0  0  0  0  0  0  0  0  0  0  0
    6.2306  -12.5028   26.8673 S   0  0  0  0  0  0  0  0  0  0  0  0
    7.5766  -13.5771   26.2490 C   0  0  0  0  0  0  0  0  0  0  0  0
    7.2959  -14.0187   24.8416 C   0  0  0  0  0  0  0  0  0  0  0  0
    8.3573  -14.8616   24.2103 C   0  0  2  0  0  0  0  0  0  0  0  0
    7.8511  -15.2840   22.9111 N   0  0  0  0  0  0  0  0  0  0  0  0
    8.6679  -16.0351   25.0572 C   0  0  0  0  0  0  0  0  0  0  0  0
    7.8858  -17.0018   25.1909 O   0  0  0  0  0  0  0  0  0  0  0  0
    9.8950  -16.1465   25.7877 N   0  0  0  0  0  0  0  0  0  0  0  0
   10.3108  -17.2765   26.5453 C   0  0  1  0  0  0  0  0  0  0  0  0
   11.5530  -17.9488   26.1359 C   0  0  0  0  0  0  0  0  0  0  0  0
   11.6877  -18.3799   24.7240 C   0  0  0  0  0  0  0  0  0  0  0  0
   12.9500  -19.0387   24.3631 C   0  0  0  0  0  0  0  0  0  0  0  0
   14.0288  -18.5017   24.7186 O   0  0  0  0  0  0  0  0  0  0  0  0
   10.3012  -16.9637   27.9951 C   0  0  0  0  0  0  0  0  0  0  0  0
   10.0342  -15.8097   28.4406 O   0  0  0  0  0  0  0  0  0  0  0  0
   13.0398  -20.2280   23.6482 O   0  0  0  0  0  0  0  0  0  0  0  0
   10.5876  -17.9285   28.9529 O   0  0  0  0  0  0  0  0  0  0  0  0
  2  1  1  6
  3  4  1  0
  3  2  1  0
  4  5  2  0
  4  8  1  0
  5  6  1  0
  6  7  1  0
  8  7  2  0
  9  2  1  0
  9 10  2  0
 11 12  1  0
 13 12  1  0
 14 13  1  0
 15 16  1  0
 15 14  1  1
 16  9  1  0
 17 15  1  0
 18 17  2  0
 19 17  1  0
 20 19  1  0
 20 21  1  6
 22 21  1  0
 22 23  1  0
 23 27  1  0
 23 24  2  0
 25 20  1  0
 25 28  1  0
 26 25  2  0
M  END
$$$$
