HME.pdb
     RDKit          3D

 28 28  0  0  1  0  0  0  0  0999 V2000
    8.4421  -15.6099   19.7258 N   0  0  0  0  0  0  0  0  0  0  0  0
    7.7741  -16.3424   20.7814 C   0  0  1  0  0  0  0  0  0  0  0  0
    8.1678  -17.7984   20.6417 C   0  0  0  0  0  0  0  0  0  0  0  0
    7.3503  -18.4050   19.5595 C   0  0  0  0  0  0  0  0  0  0  0  0
    6.4255  -17.7960   18.7284 C   0  0  0  0  0  0  0  0  0  0  0  0
    5.9124  -18.7151   17.8876 N   0  0  0  0  0  0  0  0  0  0  0  0
    6.4898  -19.8840   18.1680 C   0  0  0  0  0  0  0  0  0  0  0  0
    7.3536  -19.7003   19.1717 N   0  0  0  0  0  0  0  0  0  0  0  0
    8.1849  -15.7790   22.0814 C   0  0  0  0  0  0  0  0  0  0  0  0
    9.4045  -15.5103   22.2583 O   0  0  0  0  0  0  0  0  0  0  0  0
    7.3675  -11.0532   27.1775 C   0  0  0  0  0  0  0  0  0  0  0  0
    7.8055  -12.7513   26.6993 S   0  0  0  0  0  0  0  0  0  0  0  0
    6.4262  -13.3645   25.6650 C   0  0  0  0  0  0  0  0  0  0  0  0
    6.6321  -14.8096   25.3125 C   0  0  0  0  0  0  0  0  0  0  0  0
    7.7986  -15.0921   24.4208 C   0  0  2  0  0  0  0  0  0  0  0  0
    7.2608  -15.5284   23.1391 N   0  0  0  0  0  0  0  0  0  0  0  0
    8.6658  -16.1383   25.0075 C   0  0  0  0  0  0  0  0  0  0  0  0
    8.2568  -17.2908   25.2696 O   0  0  0  0  0  0  0  0  0  0  0  0
   10.0442  -15.9024   25.3177 N   0  0  0  0  0  0  0  0  0  0  0  0
   10.9857  -16.8901   25.7197 C   0  0  1  0  0  0  0  0  0  0  0  0
   12.3542  -16.7782   25.1928 C   0  0  0  0  0  0  0  0  0  0  0  0
   13.3725  -17.7452   25.6676 C   0  0  0  0  0  0  0  0  0  0  0  0
   14.7276  -17.5813   25.1246 C   0  0  0  0  0  0  0  0  0  0  0  0
   14.9108  -16.7303   24.2187 O   0  0  0  0  0  0  0  0  0  0  0  0
   10.9707  -17.0548   27.1937 C   0  0  0  0  0  0  0  0  0  0  0  0
   10.4544  -16.1980   27.9689 O   0  0  0  0  0  0  0  0  0  0  0  0
   15.8362  -18.3078   25.5450 O   0  0  0  0  0  0  0  0  0  0  0  0
   11.5274  -18.1682   27.8105 O   0  0  0  0  0  0  0  0  0  0  0  0
  2  1  1  6
  3  4  1  0
  3  2  1  0
  4  5  2  0
  4  8  1  0
  5  6  1  0
  6  7  1  0
  8  7  2  0
  9  2  1  0
  9 10  2  0
 11 12  1  0
 13 12  1  0
 14 13  1  0
 15 16  1  0
 15 14  1  1
 16  9  1  0
 17 15  1  0
 18 17  2  0
 19 17  1  0
 20 19  1  0
 20 21  1  1
 22 21  1  0
 22 23  1  0
 23 27  1  0
 23 24  2  0
 25 20  1  0
 25 28  1  0
 26 25  2  0
M  END
$$$$
