HME.pdb
     RDKit          3D

 28 28  0  0  1  0  0  0  0  0999 V2000
    7.7747  -16.6934   20.2952 N   0  0  0  0  0  0  0  0  0  0  0  0
    9.1690  -16.4777   20.6213 C   0  0  1  0  0  0  0  0  0  0  0  0
    9.7903  -15.7133   19.4706 C   0  0  0  0  0  0  0  0  0  0  0  0
    8.8364  -14.6606   19.0356 C   0  0  0  0  0  0  0  0  0  0  0  0
    8.8086  -13.3206   19.3831 C   0  0  0  0  0  0  0  0  0  0  0  0
    7.7729  -12.7233   18.7622 N   0  0  0  0  0  0  0  0  0  0  0  0
    7.1501  -13.6512   18.0347 C   0  0  0  0  0  0  0  0  0  0  0  0
    7.7869  -14.8155   18.1973 N   0  0  0  0  0  0  0  0  0  0  0  0
    9.2480  -15.7302   21.8906 C   0  0  0  0  0  0  0  0  0  0  0  0
   10.3750  -15.3056   22.2656 O   0  0  0  0  0  0  0  0  0  0  0  0
    7.3598  -11.6647   27.8006 C   0  0  0  0  0  0  0  0  0  0  0  0
    7.2071  -12.0984   26.0421 S   0  0  0  0  0  0  0  0  0  0  0  0
    7.0768  -13.9223   25.9734 C   0  0  0  0  0  0  0  0  0  0  0  0
    7.0655  -14.3979   24.5492 C   0  0  0  0  0  0  0  0  0  0  0  0
    8.3339  -15.0316   24.0747 C   0  0  2  0  0  0  0  0  0  0  0  0
    8.1054  -15.4712   22.7046 N   0  0  0  0  0  0  0  0  0  0  0  0
    8.7023  -16.1770   24.9368 C   0  0  0  0  0  0  0  0  0  0  0  0
    7.9720  -17.1823   25.0787 O   0  0  0  0  0  0  0  0  0  0  0  0
    9.9300  -16.2144   25.6737 N   0  0  0  0  0  0  0  0  0  0  0  0
   10.4089  -17.3174   26.4340 C   0  0  1  0  0  0  0  0  0  0  0  0
   11.7751  -17.7881   26.1612 C   0  0  0  0  0  0  0  0  0  0  0  0
   12.1191  -18.1859   24.7752 C   0  0  0  0  0  0  0  0  0  0  0  0
   13.5261  -18.5271   24.5270 C   0  0  0  0  0  0  0  0  0  0  0  0
   14.3443  -18.4205   25.4744 O   0  0  0  0  0  0  0  0  0  0  0  0
   10.1788  -17.0912   27.8817 C   0  0  0  0  0  0  0  0  0  0  0  0
    9.7487  -15.9924   28.3388 O   0  0  0  0  0  0  0  0  0  0  0  0
   14.0251  -18.9651   23.3053 O   0  0  0  0  0  0  0  0  0  0  0  0
   10.4251  -18.0816   28.8243 O   0  0  0  0  0  0  0  0  0  0  0  0
  2  1  1  6
  3  4  1  0
  3  2  1  0
  4  5  2  0
  4  8  1  0
  5  6  1  0
  6  7  1  0
  8  7  2  0
  9  2  1  0
  9 10  2  0
 11 12  1  0
 13 12  1  0
 14 13  1  0
 15 16  1  0
 15 14  1  1
 16  9  1  0
 17 15  1  0
 18 17  2  0
 19 17  1  0
 20 19  1  0
 20 21  1  1
 22 21  1  0
 22 23  1  0
 23 27  1  0
 23 24  2  0
 25 20  1  0
 25 28  1  0
 26 25  2  0
M  END
$$$$
