HME.pdb
     RDKit          3D

 28 28  0  0  1  0  0  0  0  0999 V2000
    8.0022  -15.8315   20.1363 N   0  0  0  0  0  0  0  0  0  0  0  0
    9.3869  -15.4919   20.3897 C   0  0  1  0  0  0  0  0  0  0  0  0
    9.7473  -14.3433   19.4703 C   0  0  0  0  0  0  0  0  0  0  0  0
    8.6606  -14.1826   18.4700 C   0  0  0  0  0  0  0  0  0  0  0  0
    7.5684  -13.3325   18.5074 C   0  0  0  0  0  0  0  0  0  0  0  0
    6.8298  -13.5107   17.3949 N   0  0  0  0  0  0  0  0  0  0  0  0
    7.4282  -14.4491   16.6605 C   0  0  0  0  0  0  0  0  0  0  0  0
    8.5278  -14.8542   17.3040 N   0  0  0  0  0  0  0  0  0  0  0  0
    9.5328  -15.1303   21.8124 C   0  0  0  0  0  0  0  0  0  0  0  0
   10.6882  -14.8752   22.2493 O   0  0  0  0  0  0  0  0  0  0  0  0
    7.5517  -11.7692   28.1617 C   0  0  0  0  0  0  0  0  0  0  0  0
    6.9466  -12.1938   26.5012 S   0  0  0  0  0  0  0  0  0  0  0  0
    7.5183  -13.8997   26.1679 C   0  0  0  0  0  0  0  0  0  0  0  0
    7.4572  -14.1997   24.6978 C   0  0  0  0  0  0  0  0  0  0  0  0
    8.7007  -14.7871   24.1111 C   0  0  2  0  0  0  0  0  0  0  0  0
    8.4236  -15.0587   22.7069 N   0  0  0  0  0  0  0  0  0  0  0  0
    9.0782  -16.0305   24.8197 C   0  0  0  0  0  0  0  0  0  0  0  0
    8.3013  -17.0024   24.9461 O   0  0  0  0  0  0  0  0  0  0  0  0
   10.3692  -16.2091   25.4140 N   0  0  0  0  0  0  0  0  0  0  0  0
   10.8299  -17.3898   26.0600 C   0  0  1  0  0  0  0  0  0  0  0  0
   12.2547  -17.7271   25.9231 C   0  0  0  0  0  0  0  0  0  0  0  0
   12.8155  -17.8734   24.5587 C   0  0  0  0  0  0  0  0  0  0  0  0
   14.2200  -17.4785   24.3874 C   0  0  0  0  0  0  0  0  0  0  0  0
   14.8568  -17.0788   25.3939 O   0  0  0  0  0  0  0  0  0  0  0  0
   10.3873  -17.4155   27.4755 C   0  0  0  0  0  0  0  0  0  0  0  0
    9.7807  -16.4457   28.0165 O   0  0  0  0  0  0  0  0  0  0  0  0
   14.9050  -17.5153   23.1778 O   0  0  0  0  0  0  0  0  0  0  0  0
   10.6164  -18.5152   28.2930 O   0  0  0  0  0  0  0  0  0  0  0  0
  2  1  1  1
  3  4  1  0
  3  2  1  0
  4  5  2  0
  4  8  1  0
  5  6  1  0
  6  7  1  0
  8  7  2  0
  9  2  1  0
  9 10  2  0
 11 12  1  0
 13 12  1  0
 14 13  1  0
 15 16  1  0
 15 14  1  1
 16  9  1  0
 17 15  1  0
 18 17  2  0
 19 17  1  0
 20 19  1  0
 20 21  1  1
 22 21  1  0
 22 23  1  0
 23 27  1  0
 23 24  2  0
 25 20  1  0
 25 28  1  0
 26 25  2  0
M  END
$$$$
