WTV.pdb
     RDKit          3D

 29 30  0  0  1  0  0  0  0  0999 V2000
   28.2046  -22.0446  -10.4474 N   0  0  0  0  0  0  0  0  0  0  0  0
   26.9921  -21.4376  -10.0174 C   0  0  1  0  0  0  0  0  0  0  0  0
   27.2332  -20.3325   -9.0290 C   0  0  0  0  0  0  0  0  0  0  0  0
   28.2351  -20.6226   -8.0004 C   0  0  0  0  0  0  0  0  0  0  0  0
   29.3236  -21.4918   -8.1365 C   0  0  0  0  0  0  0  0  0  0  0  0
   30.0480  -21.5009   -7.0136 N   0  0  0  0  0  0  0  0  0  0  0  0
   29.4776  -20.6636   -6.1266 C   0  0  0  0  0  0  0  0  0  0  0  0
   29.8248  -20.3232   -4.8378 C   0  0  0  0  0  0  0  0  0  0  0  0
   29.0257  -19.4265   -4.1674 C   0  0  0  0  0  0  0  0  0  0  0  0
   27.9059  -18.8685   -4.7397 C   0  0  0  0  0  0  0  0  0  0  0  0
   27.5532  -19.2108   -6.0419 C   0  0  0  0  0  0  0  0  0  0  0  0
   28.3508  -20.1075   -6.7170 C   0  0  0  0  0  0  0  0  0  0  0  0
   26.2436  -20.8635  -11.1660 C   0  0  0  0  0  0  0  0  0  0  0  0
   26.9480  -20.4084  -12.1212 O   0  0  0  0  0  0  0  0  0  0  0  0
   26.1268  -21.5220  -13.6736 C   0  0  0  0  0  0  0  0  0  0  0  0
   24.6481  -21.4766  -13.4915 C   0  0  1  0  0  0  0  0  0  0  0  0
   24.2236  -22.7676  -13.1060 O   0  0  0  0  0  0  0  0  0  0  0  0
   24.2115  -20.4370  -12.4808 C   0  0  2  0  0  0  0  0  0  0  0  0
   24.8259  -20.8108  -11.2243 N   0  0  0  0  0  0  0  0  0  0  0  0
   22.7346  -20.3644  -12.3694 C   0  0  0  0  0  0  0  0  0  0  0  0
   22.1924  -20.7545  -11.3074 O   0  0  0  0  0  0  0  0  0  0  0  0
   18.4539  -18.3176  -13.9175 C   0  0  0  0  0  0  0  0  0  0  0  0
   19.9226  -18.5911  -14.1236 C   0  0  1  0  0  0  0  0  0  0  0  0
   20.6783  -17.2954  -13.9315 C   0  0  0  0  0  0  0  0  0  0  0  0
   20.4723  -19.6052  -13.1660 C   0  0  2  0  0  0  0  0  0  0  0  0
   21.8806  -19.8790  -13.3908 N   0  0  0  0  0  0  0  0  0  0  0  0
   19.7149  -20.8696  -13.3527 C   0  0  0  0  0  0  0  0  0  0  0  0
   18.6672  -21.2024  -12.4761 O   0  0  0  0  0  0  0  0  0  0  0  0
   19.9943  -21.6533  -14.2858 O   0  0  0  0  0  0  0  0  0  0  0  0
  2  1  1  6
  2 13  1  0
  2  3  1  0
  3  4  1  0
  4  5  2  0
  4 12  1  0
  5  6  1  0
  6  7  1  0
  7  8  2  0
  9  8  1  0
 10  9  2  0
 11 12  2  0
 11 10  1  0
 12  7  1  0
 13 14  2  0
 13 19  1  0
 16 15  1  1
 16 17  1  0
 18 16  1  0
 18 19  1  1
 20 21  2  0
 20 18  1  0
 23 22  1  1
 23 25  1  0
 24 23  1  0
 25 26  1  6
 26 20  1  0
 27 25  1  0
 28 27  1  0
 29 27  2  0
M  END
$$$$
