WTV.pdb
     RDKit          3D

 29 30  0  0  1  0  0  0  0  0999 V2000
   27.7024  -22.1446  -13.9769 N   0  0  0  0  0  0  0  0  0  0  0  0
   26.6196  -21.7548  -13.1409 C   0  0  1  0  0  0  0  0  0  0  0  0
   26.9203  -20.4969  -12.3770 C   0  0  0  0  0  0  0  0  0  0  0  0
   27.8565  -20.6531  -11.2611 C   0  0  0  0  0  0  0  0  0  0  0  0
   29.2493  -20.7440  -11.3645 C   0  0  0  0  0  0  0  0  0  0  0  0
   29.7943  -20.8551  -10.1495 N   0  0  0  0  0  0  0  0  0  0  0  0
   28.8083  -20.8419   -9.2326 C   0  0  0  0  0  0  0  0  0  0  0  0
   28.8374  -20.9321   -7.8583 C   0  0  0  0  0  0  0  0  0  0  0  0
   27.6405  -20.8960   -7.1816 C   0  0  0  0  0  0  0  0  0  0  0  0
   26.4328  -20.7743   -7.8295 C   0  0  0  0  0  0  0  0  0  0  0  0
   26.4009  -20.6828   -9.2180 C   0  0  0  0  0  0  0  0  0  0  0  0
   27.5970  -20.7178   -9.8993 C   0  0  0  0  0  0  0  0  0  0  0  0
   25.3865  -21.5184  -13.9365 C   0  0  0  0  0  0  0  0  0  0  0  0
   25.5464  -20.9405  -15.0573 O   0  0  0  0  0  0  0  0  0  0  0  0
   20.9126  -22.9377  -15.1399 C   0  0  0  0  0  0  0  0  0  0  0  0
   22.1568  -22.9968  -14.3210 C   0  0  1  0  0  0  0  0  0  0  0  0
   22.8962  -24.1232  -14.7451 O   0  0  0  0  0  0  0  0  0  0  0  0
   22.9865  -21.7339  -14.4196 C   0  0  2  0  0  0  0  0  0  0  0  0
   24.0913  -21.9026  -13.4995 N   0  0  0  0  0  0  0  0  0  0  0  0
   22.1881  -20.5251  -14.1030 C   0  0  0  0  0  0  0  0  0  0  0  0
   22.1527  -20.1227  -12.9153 O   0  0  0  0  0  0  0  0  0  0  0  0
   21.3087  -17.6470  -16.9740 C   0  0  0  0  0  0  0  0  0  0  0  0
   21.1896  -17.3797  -15.4945 C   0  0  1  0  0  0  0  0  0  0  0  0
   20.1925  -16.2609  -15.2930 C   0  0  0  0  0  0  0  0  0  0  0  0
   20.7238  -18.5736  -14.7165 C   0  0  2  0  0  0  0  0  0  0  0  0
   21.4525  -19.7820  -15.0595 N   0  0  0  0  0  0  0  0  0  0  0  0
   19.2871  -18.7906  -15.0264 C   0  0  0  0  0  0  0  0  0  0  0  0
   18.9014  -19.8090  -15.9157 O   0  0  0  0  0  0  0  0  0  0  0  0
   18.4032  -18.0763  -14.5052 O   0  0  0  0  0  0  0  0  0  0  0  0
  2  1  1  6
  2 13  1  0
  2  3  1  0
  3  4  1  0
  4  5  2  0
  4 12  1  0
  5  6  1  0
  6  7  1  0
  7  8  2  0
  9  8  1  0
 10  9  2  0
 11 12  2  0
 11 10  1  0
 12  7  1  0
 13 14  2  0
 13 19  1  0
 16 15  1  6
 16 17  1  0
 18 16  1  0
 18 19  1  1
 20 21  2  0
 20 18  1  0
 23 22  1  6
 23 25  1  0
 24 23  1  0
 25 26  1  6
 26 20  1  0
 27 25  1  0
 28 27  1  0
 29 27  2  0
M  END
$$$$
