WTV.pdb
     RDKit          3D

 29 30  0  0  1  0  0  0  0  0999 V2000
   27.8104  -22.5414  -12.1703 N   0  0  0  0  0  0  0  0  0  0  0  0
   26.7575  -21.7131  -11.6921 C   0  0  1  0  0  0  0  0  0  0  0  0
   27.2657  -20.4019  -11.1642 C   0  0  0  0  0  0  0  0  0  0  0  0
   28.1369  -20.4972   -9.9903 C   0  0  0  0  0  0  0  0  0  0  0  0
   29.4690  -20.9265   -9.9893 C   0  0  0  0  0  0  0  0  0  0  0  0
   29.9706  -20.8661   -8.7521 N   0  0  0  0  0  0  0  0  0  0  0  0
   29.0142  -20.4091   -7.9217 C   0  0  0  0  0  0  0  0  0  0  0  0
   29.0192  -20.1728   -6.5646 C   0  0  0  0  0  0  0  0  0  0  0  0
   27.8636  -19.7033   -5.9850 C   0  0  0  0  0  0  0  0  0  0  0  0
   26.7197  -19.4666   -6.7121 C   0  0  0  0  0  0  0  0  0  0  0  0
   26.7124  -19.7044   -8.0834 C   0  0  0  0  0  0  0  0  0  0  0  0
   27.8674  -20.1738   -8.6679 C   0  0  0  0  0  0  0  0  0  0  0  0
   25.7763  -21.4186  -12.7691 C   0  0  0  0  0  0  0  0  0  0  0  0
   26.2614  -21.0161  -13.8729 O   0  0  0  0  0  0  0  0  0  0  0  0
   24.0654  -23.6008  -14.6515 C   0  0  0  0  0  0  0  0  0  0  0  0
   22.9941  -22.6765  -14.1827 C   0  0  1  0  0  0  0  0  0  0  0  0
   22.3155  -23.3110  -13.1186 O   0  0  0  0  0  0  0  0  0  0  0  0
   23.5280  -21.3249  -13.7572 C   0  0  2  0  0  0  0  0  0  0  0  0
   24.3735  -21.5672  -12.6073 N   0  0  0  0  0  0  0  0  0  0  0  0
   22.4333  -20.3751  -13.4431 C   0  0  0  0  0  0  0  0  0  0  0  0
   22.1693  -20.1395  -12.2395 O   0  0  0  0  0  0  0  0  0  0  0  0
   21.5925  -16.7534  -15.0294 C   0  0  0  0  0  0  0  0  0  0  0  0
   20.4035  -17.6813  -15.0261 C   0  0  1  0  0  0  0  0  0  0  0  0
   20.2367  -18.2441  -16.4196 C   0  0  0  0  0  0  0  0  0  0  0  0
   20.5529  -18.8256  -14.0690 C   0  0  2  0  0  0  0  0  0  0  0  0
   21.6538  -19.7055  -14.4190 N   0  0  0  0  0  0  0  0  0  0  0  0
   19.2951  -19.6158  -14.0996 C   0  0  0  0  0  0  0  0  0  0  0  0
   19.2667  -20.8759  -14.7226 O   0  0  0  0  0  0  0  0  0  0  0  0
   18.2485  -19.1767  -13.5757 O   0  0  0  0  0  0  0  0  0  0  0  0
  2  1  1  6
  2 13  1  0
  2  3  1  0
  3  4  1  0
  4  5  2  0
  4 12  1  0
  5  6  1  0
  6  7  1  0
  7  8  2  0
  9  8  1  0
 10  9  2  0
 11 12  2  0
 11 10  1  0
 12  7  1  0
 13 14  2  0
 13 19  1  0
 16 15  1  1
 16 17  1  0
 18 16  1  0
 18 19  1  1
 20 21  2  0
 20 18  1  0
 23 22  1  6
 23 25  1  0
 24 23  1  0
 25 26  1  6
 26 20  1  0
 27 25  1  0
 28 27  1  0
 29 27  2  0
M  END
$$$$
