WTV.pdb
     RDKit          3D

 29 30  0  0  1  0  0  0  0  0999 V2000
   24.3783  -22.2576  -13.6003 N   0  0  0  0  0  0  0  0  0  0  0  0
   24.8169  -21.1006  -12.8988 C   0  0  1  0  0  0  0  0  0  0  0  0
   23.6747  -20.3533  -12.2718 C   0  0  0  0  0  0  0  0  0  0  0  0
   22.9279  -19.4788  -13.1794 C   0  0  0  0  0  0  0  0  0  0  0  0
   21.5811  -19.6206  -13.5329 C   0  0  0  0  0  0  0  0  0  0  0  0
   21.2167  -18.6361  -14.3598 N   0  0  0  0  0  0  0  0  0  0  0  0
   22.2796  -17.8373  -14.5727 C   0  0  0  0  0  0  0  0  0  0  0  0
   22.4308  -16.7030  -15.3396 C   0  0  0  0  0  0  0  0  0  0  0  0
   23.6657  -16.0978  -15.3638 C   0  0  0  0  0  0  0  0  0  0  0  0
   24.7383  -16.5866  -14.6541 C   0  0  0  0  0  0  0  0  0  0  0  0
   24.5877  -17.7323  -13.8783 C   0  0  0  0  0  0  0  0  0  0  0  0
   23.3529  -18.3410  -13.8506 C   0  0  0  0  0  0  0  0  0  0  0  0
   25.7719  -21.4594  -11.8177 C   0  0  0  0  0  0  0  0  0  0  0  0
   25.7491  -22.6699  -11.4305 O   0  0  0  0  0  0  0  0  0  0  0  0
   30.0901  -21.0161   -9.8386 C   0  0  0  0  0  0  0  0  0  0  0  0
   28.9808  -20.5296  -10.7074 C   0  0  1  0  0  0  0  0  0  0  0  0
   29.2595  -20.9411  -12.0296 O   0  0  0  0  0  0  0  0  0  0  0  0
   27.6220  -21.0253  -10.2593 C   0  0  2  0  0  0  0  0  0  0  0  0
   26.6697  -20.5294  -11.2304 N   0  0  0  0  0  0  0  0  0  0  0  0
   27.2949  -20.5685   -8.8869 C   0  0  0  0  0  0  0  0  0  0  0  0
   26.3827  -19.7203   -8.7376 O   0  0  0  0  0  0  0  0  0  0  0  0
   29.9954  -20.8644   -5.5297 C   0  0  0  0  0  0  0  0  0  0  0  0
   28.5186  -21.0955   -5.3291 C   0  0  1  0  0  0  0  0  0  0  0  0
   28.1199  -20.4928   -4.0008 C   0  0  0  0  0  0  0  0  0  0  0  0
   27.6749  -20.4750   -6.4018 C   0  0  2  0  0  0  0  0  0  0  0  0
   27.9481  -21.0284   -7.7164 N   0  0  0  0  0  0  0  0  0  0  0  0
   27.9738  -19.0201   -6.4360 C   0  0  0  0  0  0  0  0  0  0  0  0
   29.1666  -18.5568   -7.0184 O   0  0  0  0  0  0  0  0  0  0  0  0
   27.1754  -18.1894   -5.9509 O   0  0  0  0  0  0  0  0  0  0  0  0
  2  1  1  1
  2 13  1  0
  2  3  1  0
  3  4  1  0
  4  5  2  0
  4 12  1  0
  5  6  1  0
  6  7  1  0
  7  8  2  0
  9  8  1  0
 10  9  2  0
 11 12  2  0
 11 10  1  0
 12  7  1  0
 13 14  2  0
 13 19  1  0
 16 15  1  1
 16 17  1  0
 18 16  1  0
 18 19  1  6
 20 21  2  0
 20 18  1  0
 23 22  1  6
 23 25  1  0
 24 23  1  0
 25 26  1  6
 26 20  1  0
 27 25  1  0
 28 27  1  0
 29 27  2  0
M  END
$$$$
