WTV.pdb
     RDKit          3D

 29 30  0  0  1  0  0  0  0  0999 V2000
   28.1413  -22.1599  -10.6737 N   0  0  0  0  0  0  0  0  0  0  0  0
   27.0132  -21.3800  -10.2962 C   0  0  1  0  0  0  0  0  0  0  0  0
   27.4123  -20.1023   -9.6148 C   0  0  0  0  0  0  0  0  0  0  0  0
   28.2772  -20.2633   -8.4435 C   0  0  0  0  0  0  0  0  0  0  0  0
   29.5877  -20.7546   -8.4519 C   0  0  0  0  0  0  0  0  0  0  0  0
   30.0906  -20.7441   -7.2139 N   0  0  0  0  0  0  0  0  0  0  0  0
   29.1561  -20.2604   -6.3737 C   0  0  0  0  0  0  0  0  0  0  0  0
   29.1711  -20.0536   -5.0119 C   0  0  0  0  0  0  0  0  0  0  0  0
   28.0384  -19.5427   -4.4221 C   0  0  0  0  0  0  0  0  0  0  0  0
   26.9075  -19.2372   -5.1437 C   0  0  0  0  0  0  0  0  0  0  0  0
   26.8900  -19.4452   -6.5198 C   0  0  0  0  0  0  0  0  0  0  0  0
   28.0222  -19.9558   -7.1145 C   0  0  0  0  0  0  0  0  0  0  0  0
   26.1876  -21.0241  -11.4798 C   0  0  0  0  0  0  0  0  0  0  0  0
   26.7912  -21.0081  -12.5984 O   0  0  0  0  0  0  0  0  0  0  0  0
   25.3764  -22.6980  -13.2855 C   0  0  0  0  0  0  0  0  0  0  0  0
   24.0160  -22.1037  -13.1509 C   0  0  1  0  0  0  0  0  0  0  0  0
   23.2653  -22.9402  -12.2954 O   0  0  0  0  0  0  0  0  0  0  0  0
   24.0441  -20.6813  -12.6323 C   0  0  2  0  0  0  0  0  0  0  0  0
   24.8041  -20.7145  -11.4006 N   0  0  0  0  0  0  0  0  0  0  0  0
   22.6775  -20.1463  -12.4197 C   0  0  0  0  0  0  0  0  0  0  0  0
   22.1955  -20.1726  -11.2617 O   0  0  0  0  0  0  0  0  0  0  0  0
   21.5397  -16.7300  -14.2868 C   0  0  0  0  0  0  0  0  0  0  0  0
   20.4359  -17.7545  -14.2054 C   0  0  1  0  0  0  0  0  0  0  0  0
   20.3192  -18.4345  -15.5510 C   0  0  0  0  0  0  0  0  0  0  0  0
   20.6839  -18.8051  -13.1649 C   0  0  2  0  0  0  0  0  0  0  0  0
   21.8666  -19.5998  -13.4453 N   0  0  0  0  0  0  0  0  0  0  0  0
   19.5071  -19.7116  -13.1394 C   0  0  0  0  0  0  0  0  0  0  0  0
   18.3207  -19.3123  -12.4992 O   0  0  0  0  0  0  0  0  0  0  0  0
   19.5516  -20.8365  -13.6828 O   0  0  0  0  0  0  0  0  0  0  0  0
  2  1  1  6
  2 13  1  0
  2  3  1  0
  3  4  1  0
  4  5  2  0
  4 12  1  0
  5  6  1  0
  6  7  1  0
  7  8  2  0
  9  8  1  0
 10  9  2  0
 11 12  2  0
 11 10  1  0
 12  7  1  0
 13 14  2  0
 13 19  1  0
 16 15  1  1
 16 17  1  0
 18 16  1  0
 18 19  1  1
 20 21  2  0
 20 18  1  0
 23 22  1  6
 23 25  1  0
 24 23  1  0
 25 26  1  6
 26 20  1  0
 27 25  1  0
 28 27  1  0
 29 27  2  0
M  END
$$$$
