WTV.pdb
     RDKit          3D

 29 30  0  0  1  0  0  0  0  0999 V2000
   25.2526  -21.2709  -14.4882 N   0  0  0  0  0  0  0  0  0  0  0  0
   24.9505  -21.0509  -13.1157 C   0  0  1  0  0  0  0  0  0  0  0  0
   23.7141  -21.7867  -12.6844 C   0  0  0  0  0  0  0  0  0  0  0  0
   22.4799  -20.9978  -12.7025 C   0  0  0  0  0  0  0  0  0  0  0  0
   21.7586  -20.6279  -13.8435 C   0  0  0  0  0  0  0  0  0  0  0  0
   20.6715  -19.9333  -13.4951 N   0  0  0  0  0  0  0  0  0  0  0  0
   20.6415  -19.8252  -12.1532 C   0  0  0  0  0  0  0  0  0  0  0  0
   19.7465  -19.2097  -11.3061 C   0  0  0  0  0  0  0  0  0  0  0  0
   19.9926  -19.2641   -9.9539 C   0  0  0  0  0  0  0  0  0  0  0  0
   21.0915  -19.9065   -9.4317 C   0  0  0  0  0  0  0  0  0  0  0  0
   21.9971  -20.5292  -10.2857 C   0  0  0  0  0  0  0  0  0  0  0  0
   21.7541  -20.4779  -11.6401 C   0  0  0  0  0  0  0  0  0  0  0  0
   26.0694  -21.4937  -12.2432 C   0  0  0  0  0  0  0  0  0  0  0  0
   27.0246  -22.0996  -12.8229 O   0  0  0  0  0  0  0  0  0  0  0  0
   28.2561  -20.2631  -12.3821 C   0  0  0  0  0  0  0  0  0  0  0  0
   28.1116  -20.0186  -10.9188 C   0  0  1  0  0  0  0  0  0  0  0  0
   27.4269  -18.7941  -10.7540 O   0  0  0  0  0  0  0  0  0  0  0  0
   27.3934  -21.1430  -10.2026 C   0  0  2  0  0  0  0  0  0  0  0  0
   26.1005  -21.2693  -10.8415 N   0  0  0  0  0  0  0  0  0  0  0  0
   27.2640  -20.8757   -8.7497 C   0  0  0  0  0  0  0  0  0  0  0  0
   26.1746  -20.4299   -8.3157 O   0  0  0  0  0  0  0  0  0  0  0  0
   30.5585  -20.4436   -5.8935 C   0  0  0  0  0  0  0  0  0  0  0  0
   29.3162  -21.2370   -5.5747 C   0  0  1  0  0  0  0  0  0  0  0  0
   28.9876  -21.0372   -4.1123 C   0  0  0  0  0  0  0  0  0  0  0  0
   28.1273  -20.8202   -6.3874 C   0  0  2  0  0  0  0  0  0  0  0  0
   28.2971  -21.0910   -7.8040 N   0  0  0  0  0  0  0  0  0  0  0  0
   27.9414  -19.3568   -6.2105 C   0  0  0  0  0  0  0  0  0  0  0  0
   27.1689  -18.8661   -5.1432 O   0  0  0  0  0  0  0  0  0  0  0  0
   28.4650  -18.5431   -7.0020 O   0  0  0  0  0  0  0  0  0  0  0  0
  2  1  1  6
  2 13  1  0
  2  3  1  0
  3  4  1  0
  4  5  2  0
  4 12  1  0
  5  6  1  0
  6  7  1  0
  7  8  2  0
  9  8  1  0
 10  9  2  0
 11 12  2  0
 11 10  1  0
 12  7  1  0
 13 14  2  0
 13 19  1  0
 16 15  1  6
 16 17  1  0
 18 16  1  0
 18 19  1  6
 20 21  2  0
 20 18  1  0
 23 22  1  6
 23 25  1  0
 24 23  1  0
 25 26  1  6
 26 20  1  0
 27 25  1  0
 28 27  1  0
 29 27  2  0
M  END
$$$$
