WTV.pdb
     RDKit          3D

 29 30  0  0  1  0  0  0  0  0999 V2000
   28.4854  -21.0141   -9.7641 N   0  0  0  0  0  0  0  0  0  0  0  0
   27.1307  -21.4402   -9.6845 C   0  0  1  0  0  0  0  0  0  0  0  0
   26.4753  -21.0034   -8.4056 C   0  0  0  0  0  0  0  0  0  0  0  0
   27.2763  -20.1070   -7.5682 C   0  0  0  0  0  0  0  0  0  0  0  0
   27.2985  -18.7099   -7.6487 C   0  0  0  0  0  0  0  0  0  0  0  0
   28.1196  -18.2089   -6.7210 N   0  0  0  0  0  0  0  0  0  0  0  0
   28.6501  -19.2288   -6.0198 C   0  0  0  0  0  0  0  0  0  0  0  0
   29.5455  -19.2496   -4.9732 C   0  0  0  0  0  0  0  0  0  0  0  0
   29.9120  -20.4715   -4.4590 C   0  0  0  0  0  0  0  0  0  0  0  0
   29.4167  -21.6560   -4.9536 C   0  0  0  0  0  0  0  0  0  0  0  0
   28.5117  -21.6374   -6.0109 C   0  0  0  0  0  0  0  0  0  0  0  0
   28.1414  -20.4162   -6.5282 C   0  0  0  0  0  0  0  0  0  0  0  0
   26.3307  -20.8961  -10.8129 C   0  0  0  0  0  0  0  0  0  0  0  0
   26.6610  -19.7404  -11.2265 O   0  0  0  0  0  0  0  0  0  0  0  0
   26.4140  -21.9071  -14.0104 C   0  0  0  0  0  0  0  0  0  0  0  0
   24.9472  -21.8439  -13.7527 C   0  0  1  0  0  0  0  0  0  0  0  0
   24.4837  -23.1676  -13.5850 O   0  0  0  0  0  0  0  0  0  0  0  0
   24.5971  -20.9896  -12.5524 C   0  0  2  0  0  0  0  0  0  0  0  0
   25.2547  -21.5994  -11.4159 N   0  0  0  0  0  0  0  0  0  0  0  0
   23.1307  -20.8961  -12.3529 C   0  0  0  0  0  0  0  0  0  0  0  0
   22.6154  -21.5103  -11.3879 O   0  0  0  0  0  0  0  0  0  0  0  0
   20.8004  -17.6955  -12.1849 C   0  0  0  0  0  0  0  0  0  0  0  0
   20.2723  -18.7081  -13.1698 C   0  0  1  0  0  0  0  0  0  0  0  0
   20.6489  -18.2565  -14.5630 C   0  0  0  0  0  0  0  0  0  0  0  0
   20.8265  -20.0842  -12.9531 C   0  0  2  0  0  0  0  0  0  0  0  0
   22.2583  -20.1520  -13.1857 N   0  0  0  0  0  0  0  0  0  0  0  0
   20.1542  -21.0044  -13.9063 C   0  0  0  0  0  0  0  0  0  0  0  0
   18.8135  -21.3765  -13.7038 O   0  0  0  0  0  0  0  0  0  0  0  0
   20.7649  -21.4600  -14.8974 O   0  0  0  0  0  0  0  0  0  0  0  0
  2  1  1  1
  2 13  1  0
  2  3  1  0
  3  4  1  0
  4  5  2  0
  4 12  1  0
  5  6  1  0
  6  7  1  0
  7  8  2  0
  9  8  1  0
 10  9  2  0
 11 12  2  0
 11 10  1  0
 12  7  1  0
 13 14  2  0
 13 19  1  0
 16 15  1  1
 16 17  1  0
 18 16  1  0
 18 19  1  1
 20 21  2  0
 20 18  1  0
 23 22  1  1
 23 25  1  0
 24 23  1  0
 25 26  1  6
 26 20  1  0
 27 25  1  0
 28 27  1  0
 29 27  2  0
M  END
$$$$
