WTV.pdb
     RDKit          3D

 29 30  0  0  1  0  0  0  0  0999 V2000
   28.0677  -21.5679  -12.3011 N   0  0  0  0  0  0  0  0  0  0  0  0
   26.8253  -21.4684  -11.6158 C   0  0  1  0  0  0  0  0  0  0  0  0
   26.8530  -20.4141  -10.5463 C   0  0  0  0  0  0  0  0  0  0  0  0
   27.8704  -20.6032   -9.5095 C   0  0  0  0  0  0  0  0  0  0  0  0
   29.1142  -21.2213   -9.6828 C   0  0  0  0  0  0  0  0  0  0  0  0
   29.8013  -21.2010   -8.5369 N   0  0  0  0  0  0  0  0  0  0  0  0
   29.0553  -20.5878   -7.5984 C   0  0  0  0  0  0  0  0  0  0  0  0
   29.2993  -20.3184   -6.2697 C   0  0  0  0  0  0  0  0  0  0  0  0
   28.3221  -19.6706   -5.5505 C   0  0  0  0  0  0  0  0  0  0  0  0
   27.1254  -19.2900   -6.1128 C   0  0  0  0  0  0  0  0  0  0  0  0
   26.8768  -19.5610   -7.4552 C   0  0  0  0  0  0  0  0  0  0  0  0
   27.8527  -20.2087   -8.1791 C   0  0  0  0  0  0  0  0  0  0  0  0
   25.7214  -21.1343  -12.5534 C   0  0  0  0  0  0  0  0  0  0  0  0
   25.9995  -20.2979  -13.4694 O   0  0  0  0  0  0  0  0  0  0  0  0
   24.3665  -23.3232  -14.8802 C   0  0  0  0  0  0  0  0  0  0  0  0
   23.1813  -22.7423  -14.1875 C   0  0  1  0  0  0  0  0  0  0  0  0
   22.7285  -23.6909  -13.2438 O   0  0  0  0  0  0  0  0  0  0  0  0
   23.4805  -21.4151  -13.5227 C   0  0  2  0  0  0  0  0  0  0  0  0
   24.4215  -21.6978  -12.4596 N   0  0  0  0  0  0  0  0  0  0  0  0
   22.2495  -20.7677  -13.0083 C   0  0  0  0  0  0  0  0  0  0  0  0
   22.0634  -20.7310  -11.7682 O   0  0  0  0  0  0  0  0  0  0  0  0
   18.3383  -17.7555  -13.5734 C   0  0  0  0  0  0  0  0  0  0  0  0
   19.6295  -18.3552  -14.0710 C   0  0  1  0  0  0  0  0  0  0  0  0
   20.7113  -17.3035  -13.9700 C   0  0  0  0  0  0  0  0  0  0  0  0
   20.0624  -19.5556  -13.2841 C   0  0  2  0  0  0  0  0  0  0  0  0
   21.2553  -20.1794  -13.8290 N   0  0  0  0  0  0  0  0  0  0  0  0
   18.9582  -20.5490  -13.3189 C   0  0  0  0  0  0  0  0  0  0  0  0
   18.0420  -20.6255  -12.2551 O   0  0  0  0  0  0  0  0  0  0  0  0
   18.8261  -21.3280  -14.2877 O   0  0  0  0  0  0  0  0  0  0  0  0
  2  1  1  6
  2 13  1  0
  2  3  1  0
  3  4  1  0
  4  5  2  0
  4 12  1  0
  5  6  1  0
  6  7  1  0
  7  8  2  0
  9  8  1  0
 10  9  2  0
 11 12  2  0
 11 10  1  0
 12  7  1  0
 13 14  2  0
 13 19  1  0
 16 15  1  1
 16 17  1  0
 18 16  1  0
 18 19  1  1
 20 21  2  0
 20 18  1  0
 23 22  1  1
 23 25  1  0
 24 23  1  0
 25 26  1  6
 26 20  1  0
 27 25  1  0
 28 27  1  0
 29 27  2  0
M  END
$$$$
