WTV.pdb
     RDKit          3D

 29 30  0  0  1  0  0  0  0  0999 V2000
   25.5662  -18.9955  -10.8061 N   0  0  0  0  0  0  0  0  0  0  0  0
   25.1283  -20.3182  -11.0925 C   0  0  1  0  0  0  0  0  0  0  0  0
   25.6069  -21.3061  -10.0672 C   0  0  0  0  0  0  0  0  0  0  0  0
   26.9770  -21.0983   -9.5922 C   0  0  0  0  0  0  0  0  0  0  0  0
   28.1425  -21.5416  -10.2278 C   0  0  0  0  0  0  0  0  0  0  0  0
   29.2186  -21.1583   -9.5344 N   0  0  0  0  0  0  0  0  0  0  0  0
   28.8102  -20.4706   -8.4511 C   0  0  0  0  0  0  0  0  0  0  0  0
   29.5146  -19.8741   -7.4286 C   0  0  0  0  0  0  0  0  0  0  0  0
   28.8037  -19.2381   -6.4377 C   0  0  0  0  0  0  0  0  0  0  0  0
   27.4289  -19.1821   -6.4392 C   0  0  0  0  0  0  0  0  0  0  0  0
   26.7151  -19.7839   -7.4714 C   0  0  0  0  0  0  0  0  0  0  0  0
   27.4229  -20.4211   -8.4659 C   0  0  0  0  0  0  0  0  0  0  0  0
   23.6446  -20.3936  -11.1369 C   0  0  0  0  0  0  0  0  0  0  0  0
   23.0249  -19.7621  -10.2242 O   0  0  0  0  0  0  0  0  0  0  0  0
   21.6879  -18.6559  -11.2463 C   0  0  0  0  0  0  0  0  0  0  0  0
   21.2170  -19.5021  -12.3795 C   0  0  1  0  0  0  0  0  0  0  0  0
   21.8471  -19.0350  -13.5543 O   0  0  0  0  0  0  0  0  0  0  0  0
   21.4902  -20.9762  -12.1662 C   0  0  2  0  0  0  0  0  0  0  0  0
   22.9302  -21.1194  -12.1264 N   0  0  0  0  0  0  0  0  0  0  0  0
   20.8852  -21.8079  -13.2344 C   0  0  0  0  0  0  0  0  0  0  0  0
   21.6326  -22.2776  -14.1259 O   0  0  0  0  0  0  0  0  0  0  0  0
   18.5667  -24.4985  -11.7859 C   0  0  0  0  0  0  0  0  0  0  0  0
   19.2506  -24.5492  -13.1291 C   0  0  1  0  0  0  0  0  0  0  0  0
   18.7219  -25.7466  -13.8862 C   0  0  0  0  0  0  0  0  0  0  0  0
   19.0115  -23.3229  -13.9577 C   0  0  2  0  0  0  0  0  0  0  0  0
   19.5043  -22.1144  -13.3209 N   0  0  0  0  0  0  0  0  0  0  0  0
   17.5458  -23.1823  -14.1559 C   0  0  0  0  0  0  0  0  0  0  0  0
   16.8867  -23.9533  -15.1294 O   0  0  0  0  0  0  0  0  0  0  0  0
   16.8787  -22.3818  -13.4652 O   0  0  0  0  0  0  0  0  0  0  0  0
  2  1  1  1
  2 13  1  0
  2  3  1  0
  3  4  1  0
  4  5  2  0
  4 12  1  0
  5  6  1  0
  6  7  1  0
  7  8  2  0
  9  8  1  0
 10  9  2  0
 11 12  2  0
 11 10  1  0
 12  7  1  0
 13 14  2  0
 13 19  1  0
 16 15  1  1
 16 17  1  0
 18 16  1  0
 18 19  1  6
 20 21  2  0
 20 18  1  0
 23 22  1  1
 23 25  1  0
 24 23  1  0
 25 26  1  1
 26 20  1  0
 27 25  1  0
 28 27  1  0
 29 27  2  0
M  END
$$$$
