WTV.pdb
     RDKit          3D

 29 30  0  0  1  0  0  0  0  0999 V2000
   25.4673  -21.3597  -16.1342 N   0  0  0  0  0  0  0  0  0  0  0  0
   24.9915  -21.2269  -14.8003 C   0  0  1  0  0  0  0  0  0  0  0  0
   23.6861  -21.9401  -14.5925 C   0  0  0  0  0  0  0  0  0  0  0  0
   22.4980  -21.0832  -14.6034 C   0  0  0  0  0  0  0  0  0  0  0  0
   22.1319  -20.2002  -15.6257 C   0  0  0  0  0  0  0  0  0  0  0  0
   20.9800  -19.5955  -15.3204 N   0  0  0  0  0  0  0  0  0  0  0  0
   20.5615  -20.0462  -14.1225 C   0  0  0  0  0  0  0  0  0  0  0  0
   19.4504  -19.7393  -13.3683 C   0  0  0  0  0  0  0  0  0  0  0  0
   19.2956  -20.3716  -12.1566 C   0  0  0  0  0  0  0  0  0  0  0  0
   20.2062  -21.2883  -11.6839 C   0  0  0  0  0  0  0  0  0  0  0  0
   21.3295  -21.6001  -12.4444 C   0  0  0  0  0  0  0  0  0  0  0  0
   21.4880  -20.9700  -13.6584 C   0  0  0  0  0  0  0  0  0  0  0  0
   25.9692  -21.7773  -13.8255 C   0  0  0  0  0  0  0  0  0  0  0  0
   26.9529  -22.4138  -14.3186 O   0  0  0  0  0  0  0  0  0  0  0  0
   27.8095  -20.0189  -13.6638 C   0  0  0  0  0  0  0  0  0  0  0  0
   27.5416  -19.9841  -12.1979 C   0  0  1  0  0  0  0  0  0  0  0  0
   26.6119  -18.9483  -11.9563 O   0  0  0  0  0  0  0  0  0  0  0  0
   27.0337  -21.3058  -11.6611 C   0  0  2  0  0  0  0  0  0  0  0  0
   25.8416  -21.6198  -12.4201 N   0  0  0  0  0  0  0  0  0  0  0  0
   26.7559  -21.2383  -10.2060 C   0  0  0  0  0  0  0  0  0  0  0  0
   25.5648  -21.3056   -9.8181 O   0  0  0  0  0  0  0  0  0  0  0  0
   29.3815  -19.5670   -7.1803 C   0  0  0  0  0  0  0  0  0  0  0  0
   28.6587  -20.8683   -6.9384 C   0  0  1  0  0  0  0  0  0  0  0  0
   28.2340  -20.9128   -5.4878 C   0  0  0  0  0  0  0  0  0  0  0  0
   27.4380  -21.0311   -7.7934 C   0  0  2  0  0  0  0  0  0  0  0  0
   27.7538  -21.1015   -9.2091 N   0  0  0  0  0  0  0  0  0  0  0  0
   26.5605  -19.8535   -7.5684 C   0  0  0  0  0  0  0  0  0  0  0  0
   25.6088  -19.8682   -6.5336 O   0  0  0  0  0  0  0  0  0  0  0  0
   26.6529  -18.8370   -8.2903 O   0  0  0  0  0  0  0  0  0  0  0  0
  2  1  1  6
  2 13  1  0
  2  3  1  0
  3  4  1  0
  4  5  2  0
  4 12  1  0
  5  6  1  0
  6  7  1  0
  7  8  2  0
  9  8  1  0
 10  9  2  0
 11 12  2  0
 11 10  1  0
 12  7  1  0
 13 14  2  0
 13 19  1  0
 16 15  1  6
 16 17  1  0
 18 16  1  0
 18 19  1  6
 20 21  2  0
 20 18  1  0
 23 22  1  6
 23 25  1  0
 24 23  1  0
 25 26  1  6
 26 20  1  0
 27 25  1  0
 28 27  1  0
 29 27  2  0
M  END
$$$$
