WTV.pdb
     RDKit          3D

 29 30  0  0  1  0  0  0  0  0999 V2000
   25.0014  -21.4874  -13.6898 N   0  0  0  0  0  0  0  0  0  0  0  0
   24.7026  -20.9394  -12.4116 C   0  0  1  0  0  0  0  0  0  0  0  0
   23.3228  -21.3091  -11.9472 C   0  0  0  0  0  0  0  0  0  0  0  0
   22.2265  -20.6483  -12.6596 C   0  0  0  0  0  0  0  0  0  0  0  0
   21.8488  -20.8851  -13.9863 C   0  0  0  0  0  0  0  0  0  0  0  0
   20.7950  -20.1284  -14.3065 N   0  0  0  0  0  0  0  0  0  0  0  0
   20.4538  -19.3895  -13.2337 C   0  0  0  0  0  0  0  0  0  0  0  0
   19.4556  -18.4591  -13.0453 C   0  0  0  0  0  0  0  0  0  0  0  0
   19.3596  -17.8529  -11.8144 C   0  0  0  0  0  0  0  0  0  0  0  0
   20.2202  -18.1454  -10.7814 C   0  0  0  0  0  0  0  0  0  0  0  0
   21.2294  -19.0853  -10.9695 C   0  0  0  0  0  0  0  0  0  0  0  0
   21.3286  -19.6952  -12.2000 C   0  0  0  0  0  0  0  0  0  0  0  0
   25.6685  -21.4137  -11.3862 C   0  0  0  0  0  0  0  0  0  0  0  0
   26.3573  -22.4358  -11.6972 O   0  0  0  0  0  0  0  0  0  0  0  0
   28.1229  -21.0548  -11.7267 C   0  0  0  0  0  0  0  0  0  0  0  0
   28.1639  -20.4205  -10.3784 C   0  0  1  0  0  0  0  0  0  0  0  0
   28.0235  -19.0262  -10.5559 O   0  0  0  0  0  0  0  0  0  0  0  0
   27.1020  -20.9585   -9.4426 C   0  0  2  0  0  0  0  0  0  0  0  0
   25.8365  -20.7855  -10.1241 N   0  0  0  0  0  0  0  0  0  0  0  0
   27.1196  -20.2633   -8.1328 C   0  0  0  0  0  0  0  0  0  0  0  0
   26.2577  -19.3793   -7.9104 O   0  0  0  0  0  0  0  0  0  0  0  0
   28.6824  -21.8879   -4.5013 C   0  0  0  0  0  0  0  0  0  0  0  0
   28.9700  -20.4432   -4.8245 C   0  0  1  0  0  0  0  0  0  0  0  0
   30.3632  -20.3550   -5.4057 C   0  0  0  0  0  0  0  0  0  0  0  0
   28.0073  -19.8587   -5.8140 C   0  0  2  0  0  0  0  0  0  0  0  0
   28.0532  -20.5304   -7.1007 N   0  0  0  0  0  0  0  0  0  0  0  0
   28.3695  -18.4324   -6.0182 C   0  0  0  0  0  0  0  0  0  0  0  0
   28.8650  -17.9996   -7.2608 O   0  0  0  0  0  0  0  0  0  0  0  0
   28.2406  -17.5990   -5.0953 O   0  0  0  0  0  0  0  0  0  0  0  0
  2  1  1  6
  2 13  1  0
  2  3  1  0
  3  4  1  0
  4  5  2  0
  4 12  1  0
  5  6  1  0
  6  7  1  0
  7  8  2  0
  9  8  1  0
 10  9  2  0
 11 12  2  0
 11 10  1  0
 12  7  1  0
 13 14  2  0
 13 19  1  0
 16 15  1  6
 16 17  1  0
 18 16  1  0
 18 19  1  6
 20 21  2  0
 20 18  1  0
 23 22  1  6
 23 25  1  0
 24 23  1  0
 25 26  1  6
 26 20  1  0
 27 25  1  0
 28 27  1  0
 29 27  2  0
M  END
$$$$
