WTV.pdb
     RDKit          3D

 29 30  0  0  1  0  0  0  0  0999 V2000
   16.2855  -18.5432    3.0768 N   0  0  0  0  0  0  0  0  0  0  0  0
   17.6516  -18.4558    3.4636 C   0  0  1  0  0  0  0  0  0  0  0  0
   18.4383  -17.5518    2.5580 C   0  0  0  0  0  0  0  0  0  0  0  0
   19.0503  -18.2075    1.3998 C   0  0  0  0  0  0  0  0  0  0  0  0
   18.3855  -19.0067    0.4626 C   0  0  0  0  0  0  0  0  0  0  0  0
   19.2410  -19.4235   -0.4755 N   0  0  0  0  0  0  0  0  0  0  0  0
   20.4615  -18.9282   -0.1957 C   0  0  0  0  0  0  0  0  0  0  0  0
   21.6719  -19.0637   -0.8391 C   0  0  0  0  0  0  0  0  0  0  0  0
   22.7671  -18.4314   -0.2981 C   0  0  0  0  0  0  0  0  0  0  0  0
   22.6884  -17.6786    0.8509 C   0  0  0  0  0  0  0  0  0  0  0  0
   21.4664  -17.5400    1.5025 C   0  0  0  0  0  0  0  0  0  0  0  0
   20.3673  -18.1708    0.9639 C   0  0  0  0  0  0  0  0  0  0  0  0
   17.7837  -17.9356    4.8497 C   0  0  0  0  0  0  0  0  0  0  0  0
   16.7879  -17.2871    5.3010 O   0  0  0  0  0  0  0  0  0  0  0  0
   16.4871  -18.2756    7.1205 C   0  0  0  0  0  0  0  0  0  0  0  0
   17.8385  -18.4584    7.7223 C   0  0  1  0  0  0  0  0  0  0  0  0
   18.1377  -19.8386    7.6937 O   0  0  0  0  0  0  0  0  0  0  0  0
   18.9106  -17.6555    7.0158 C   0  0  2  0  0  0  0  0  0  0  0  0
   18.9400  -18.1336    5.6496 N   0  0  0  0  0  0  0  0  0  0  0  0
   20.2305  -17.7994    7.6762 C   0  0  0  0  0  0  0  0  0  0  0  0
   20.9691  -18.7563    7.3404 O   0  0  0  0  0  0  0  0  0  0  0  0
   22.5683  -14.6164    9.0470 C   0  0  0  0  0  0  0  0  0  0  0  0
   22.5051  -15.8195    9.9543 C   0  0  1  0  0  0  0  0  0  0  0  0
   21.5337  -15.5194   11.0737 C   0  0  0  0  0  0  0  0  0  0  0  0
   22.0477  -17.0626    9.2522 C   0  0  2  0  0  0  0  0  0  0  0  0
   20.7236  -16.9210    8.6729 N   0  0  0  0  0  0  0  0  0  0  0  0
   22.0062  -18.1632   10.2492 C   0  0  0  0  0  0  0  0  0  0  0  0
   23.1946  -18.7970   10.6528 O   0  0  0  0  0  0  0  0  0  0  0  0
   20.9216  -18.5416   10.7426 O   0  0  0  0  0  0  0  0  0  0  0  0
  2  1  1  6
  2 13  1  0
  2  3  1  0
  3  4  1  0
  4  5  2  0
  4 12  1  0
  5  6  1  0
  6  7  1  0
  7  8  2  0
  9  8  1  0
 10  9  2  0
 11 12  2  0
 11 10  1  0
 12  7  1  0
 13 14  2  0
 13 19  1  0
 16 15  1  6
 16 17  1  0
 18 16  1  0
 18 19  1  6
 20 21  2  0
 20 18  1  0
 23 22  1  6
 23 25  1  0
 24 23  1  0
 25 26  1  1
 26 20  1  0
 27 25  1  0
 28 27  1  0
 29 27  2  0
M  END
$$$$
