RND.pdb
     RDKit          3D

 28 27  0  0  1  0  0  0  0  0999 V2000
   15.8732  -15.2530  -14.0570 N   0  0  0  0  0  0  0  0  0  0  0  0
   16.2064  -15.2800  -15.4358 C   0  0  0  0  0  0  0  0  0  0  0  0
   16.1450  -16.3777  -16.1329 N   0  0  0  0  0  0  0  0  0  0  0  0
   16.6273  -14.1202  -16.1484 N   0  0  0  0  0  0  0  0  0  0  0  0
   16.7406  -12.8538  -15.4814 C   0  0  0  0  0  0  0  0  0  0  0  0
   17.2231  -11.7439  -16.3372 C   0  0  0  0  0  0  0  0  0  0  0  0
   17.5504  -10.4612  -15.6623 C   0  0  0  0  0  0  0  0  0  0  0  0
   18.2496   -9.4462  -16.5225 C   0  0  2  0  0  0  0  0  0  0  0  0
   18.9396   -9.9866  -17.6496 N   0  0  0  0  0  0  0  0  0  0  0  0
   19.0861   -8.5249  -15.7181 C   0  0  0  0  0  0  0  0  0  0  0  0
   18.5697   -8.0049  -14.7010 O   0  0  0  0  0  0  0  0  0  0  0  0
   16.4587  -16.3351  -17.1326 N   0  0  0  0  0  0  0  0  0  0  0  0
   22.7325  -10.3839  -14.1483 C   0  0  0  0  0  0  0  0  0  0  0  0
   22.3719   -9.0432  -13.8252 O   0  0  0  0  0  0  0  0  0  0  0  0
   21.8777   -8.7831  -12.6905 C   0  0  0  0  0  0  0  0  0  0  0  0
   22.5511   -7.9193  -14.7713 C   0  0  2  0  0  0  0  0  0  0  0  0
   21.2332   -7.3230  -15.1942 N   0  0  0  0  0  0  0  0  0  0  0  0
   20.4310   -8.1840  -16.0099 C   0  0  0  0  0  0  0  0  0  0  0  0
   21.5283   -6.0515  -15.9351 O   0  0  0  0  0  0  0  0  0  0  0  0
   21.8802   -6.1176  -17.1346 N   0  0  0  0  0  0  0  0  0  0  0  0
   21.4228   -4.7855  -15.3273 C   0  0  1  0  0  0  0  0  0  0  0  0
   21.5384   -3.5138  -16.0255 C   0  0  0  0  0  0  0  0  0  0  0  0
   20.5287   -3.4987  -17.1333 C   0  0  0  0  0  0  0  0  0  0  0  0
   20.4316   -2.2179  -17.8517 O   0  0  0  0  0  0  0  0  0  0  0  0
   21.4749   -1.5708  -18.1185 C   0  0  0  0  0  0  0  0  0  0  0  0
   21.3495   -2.3862  -15.0852 O   0  0  0  0  0  0  0  0  0  0  0  0
   20.7881   -2.5914  -13.9942 O   0  0  0  0  0  0  0  0  0  0  0  0
   19.2267   -1.7029  -18.2434 O   0  0  0  0  0  0  0  0  0  0  0  0
  2  1  1  0
  3  2  2  0
  4  2  1  0
  5  4  1  0
  6  5  1  0
  7  6  1  0
  8  7  1  0
  8  9  1  6
 10 17  1  0
 10  8  1  0
 11 10  2  0
 13 12  1  0
 14 13  2  0
 16 15  1  1
 15 13  1  0
 16 17  1  0
 18 16  1  0
 19 18  2  0
 20 18  1  0
 21 20  1  0
 21 25  1  0
 21 22  1  1
 23 22  1  0
 24 23  2  0
 25 28  1  0
 26 25  2  0
 27 23  1  0
M  END
$$$$
