RND.pdb
     RDKit          3D

 28 27  0  0  1  0  0  0  0  0999 V2000
   31.8172  -24.7500  -15.3605 N   0  0  0  0  0  0  0  0  0  0  0  0
   31.8041  -24.8674  -16.7743 C   0  0  0  0  0  0  0  0  0  0  0  0
   32.8104  -25.3722  -17.4280 N   0  0  0  0  0  0  0  0  0  0  0  0
   30.7007  -24.4462  -17.5710 N   0  0  0  0  0  0  0  0  0  0  0  0
   29.9962  -23.2341  -17.2612 C   0  0  0  0  0  0  0  0  0  0  0  0
   29.3092  -23.2353  -15.9477 C   0  0  0  0  0  0  0  0  0  0  0  0
   27.8464  -22.9738  -15.9482 C   0  0  0  0  0  0  0  0  0  0  0  0
   27.4373  -21.6280  -15.4185 C   0  0  2  0  0  0  0  0  0  0  0  0
   28.4599  -20.9227  -14.7146 N   0  0  0  0  0  0  0  0  0  0  0  0
   26.1599  -21.6954  -14.6707 C   0  0  0  0  0  0  0  0  0  0  0  0
   25.2215  -22.3555  -15.1760 O   0  0  0  0  0  0  0  0  0  0  0  0
   32.7394  -25.4097  -18.4735 N   0  0  0  0  0  0  0  0  0  0  0  0
   26.4320  -20.9016   -9.3907 C   0  0  0  0  0  0  0  0  0  0  0  0
   25.6653  -21.4687  -10.4502 O   0  0  0  0  0  0  0  0  0  0  0  0
   25.7618  -22.7042  -10.7021 C   0  0  0  0  0  0  0  0  0  0  0  0
   24.7440  -20.6664  -11.2857 C   0  0  2  0  0  0  0  0  0  0  0  0
   24.6813  -21.1747  -12.7030 N   0  0  0  0  0  0  0  0  0  0  0  0
   25.9148  -21.0691  -13.4226 C   0  0  0  0  0  0  0  0  0  0  0  0
   23.6103  -20.4007  -13.4148 O   0  0  0  0  0  0  0  0  0  0  0  0
   23.7790  -19.1763  -13.6136 N   0  0  0  0  0  0  0  0  0  0  0  0
   22.4213  -21.0045  -13.8673 C   0  0  1  0  0  0  0  0  0  0  0  0
   21.3543  -20.3147  -14.5773 C   0  0  0  0  0  0  0  0  0  0  0  0
   21.5204  -20.5857  -16.0422 C   0  0  0  0  0  0  0  0  0  0  0  0
   20.4923  -19.9696  -16.8962 O   0  0  0  0  0  0  0  0  0  0  0  0
   19.6112  -19.2361  -16.3824 C   0  0  0  0  0  0  0  0  0  0  0  0
   20.0311  -20.7513  -14.0773 O   0  0  0  0  0  0  0  0  0  0  0  0
   19.8763  -21.9317  -13.7168 O   0  0  0  0  0  0  0  0  0  0  0  0
   20.4648  -20.1723  -18.2484 O   0  0  0  0  0  0  0  0  0  0  0  0
  2  1  1  0
  3  2  2  0
  4  2  1  0
  5  4  1  0
  6  5  1  0
  7  6  1  0
  8  7  1  0
  8  9  1  1
 10 17  1  0
 10  8  1  0
 11 10  2  0
 13 12  1  0
 14 13  2  0
 16 15  1  1
 15 13  1  0
 16 17  1  0
 18 16  1  0
 19 18  2  0
 20 18  1  0
 21 20  1  0
 21 25  1  0
 21 22  1  1
 23 22  1  0
 24 23  2  0
 25 28  1  0
 26 25  2  0
 27 23  1  0
M  END
$$$$
