RND.pdb
     RDKit          3D

 28 27  0  0  1  0  0  0  0  0999 V2000
   32.0439  -23.3449  -11.6192 N   0  0  0  0  0  0  0  0  0  0  0  0
   32.5375  -22.4198  -10.6634 C   0  0  0  0  0  0  0  0  0  0  0  0
   33.7526  -21.9567  -10.7239 N   0  0  0  0  0  0  0  0  0  0  0  0
   31.7471  -21.9367   -9.5809 N   0  0  0  0  0  0  0  0  0  0  0  0
   30.3297  -21.7633   -9.7315 C   0  0  0  0  0  0  0  0  0  0  0  0
   29.9316  -20.8131  -10.7972 C   0  0  0  0  0  0  0  0  0  0  0  0
   28.4815  -20.5200  -10.9361 C   0  0  0  0  0  0  0  0  0  0  0  0
   27.7853  -21.2503  -12.0501 C   0  0  2  0  0  0  0  0  0  0  0  0
   28.0064  -20.7107  -13.3532 N   0  0  0  0  0  0  0  0  0  0  0  0
   26.3513  -21.4734  -11.7509 C   0  0  0  0  0  0  0  0  0  0  0  0
   26.0129  -22.6019  -11.3223 O   0  0  0  0  0  0  0  0  0  0  0  0
   34.0592  -21.2999   -9.9661 N   0  0  0  0  0  0  0  0  0  0  0  0
   21.3062  -21.3765  -10.8803 C   0  0  0  0  0  0  0  0  0  0  0  0
   21.8603  -20.1156  -10.5126 O   0  0  0  0  0  0  0  0  0  0  0  0
   21.1839  -19.3166   -9.8031 C   0  0  0  0  0  0  0  0  0  0  0  0
   23.2147  -19.6881  -10.9288 C   0  0  2  0  0  0  0  0  0  0  0  0
   23.9370  -20.7684  -11.6918 N   0  0  0  0  0  0  0  0  0  0  0  0
   25.3274  -20.5061  -11.9120 C   0  0  0  0  0  0  0  0  0  0  0  0
   23.2375  -20.9378  -13.0090 O   0  0  0  0  0  0  0  0  0  0  0  0
   23.6720  -21.7863  -13.8204 N   0  0  0  0  0  0  0  0  0  0  0  0
   22.1084  -20.1748  -13.3639 C   0  0  2  0  0  0  0  0  0  0  0  0
   21.4031  -20.2713  -14.6334 C   0  0  0  0  0  0  0  0  0  0  0  0
   22.3039  -20.9598  -15.6140 C   0  0  0  0  0  0  0  0  0  0  0  0
   22.8711  -20.0759  -16.6449 O   0  0  0  0  0  0  0  0  0  0  0  0
   22.6436  -18.8411  -16.6028 C   0  0  0  0  0  0  0  0  0  0  0  0
   20.1186  -20.9867  -14.4606 O   0  0  0  0  0  0  0  0  0  0  0  0
   20.1209  -22.1328  -13.9770 O   0  0  0  0  0  0  0  0  0  0  0  0
   23.6480  -20.5616  -17.6602 O   0  0  0  0  0  0  0  0  0  0  0  0
  2  1  1  0
  3  2  2  0
  4  2  1  0
  5  4  1  0
  6  5  1  0
  7  6  1  0
  8  7  1  0
  8  9  1  6
 10 17  1  0
 10  8  1  0
 11 10  2  0
 13 12  1  0
 14 13  2  0
 16 15  1  1
 15 13  1  0
 16 17  1  0
 18 16  1  0
 19 18  2  0
 20 18  1  0
 21 20  1  0
 21 25  1  0
 21 22  1  1
 23 22  1  0
 24 23  2  0
 25 28  1  0
 26 25  2  0
 27 23  1  0
M  END
$$$$
