RND.pdb
     RDKit          3D

 28 27  0  0  1  0  0  0  0  0999 V2000
   19.6202  -15.2085  -15.3460 N   0  0  0  0  0  0  0  0  0  0  0  0
   19.5548  -16.1872  -16.3711 C   0  0  0  0  0  0  0  0  0  0  0  0
   18.9174  -17.3100  -16.2050 N   0  0  0  0  0  0  0  0  0  0  0  0
   20.1750  -16.0128  -17.6419 N   0  0  0  0  0  0  0  0  0  0  0  0
   20.9972  -14.8649  -17.9024 C   0  0  0  0  0  0  0  0  0  0  0  0
   20.5069  -13.9859  -18.9906 C   0  0  0  0  0  0  0  0  0  0  0  0
   21.3202  -12.7836  -19.3084 C   0  0  0  0  0  0  0  0  0  0  0  0
   21.7143  -11.9468  -18.1236 C   0  0  2  0  0  0  0  0  0  0  0  0
   22.0814  -12.6877  -16.9597 N   0  0  0  0  0  0  0  0  0  0  0  0
   20.7200  -10.8842  -17.8445 C   0  0  0  0  0  0  0  0  0  0  0  0
   20.4022  -10.1200  -18.7860 O   0  0  0  0  0  0  0  0  0  0  0  0
   18.8582  -17.9598  -17.0260 N   0  0  0  0  0  0  0  0  0  0  0  0
   17.2407   -7.5784  -15.9895 C   0  0  0  0  0  0  0  0  0  0  0  0
   16.9354   -8.9014  -15.5553 O   0  0  0  0  0  0  0  0  0  0  0  0
   15.8024   -9.1499  -15.0514 C   0  0  0  0  0  0  0  0  0  0  0  0
   17.8984  -10.0196  -15.6676 C   0  0  2  0  0  0  0  0  0  0  0  0
   19.1838   -9.5920  -16.3281 N   0  0  0  0  0  0  0  0  0  0  0  0
   20.0970  -10.6634  -16.5903 C   0  0  0  0  0  0  0  0  0  0  0  0
   19.8355   -8.5762  -15.4358 O   0  0  0  0  0  0  0  0  0  0  0  0
   20.7107   -8.9555  -14.6251 N   0  0  0  0  0  0  0  0  0  0  0  0
   19.4964   -7.2101  -15.4789 C   0  0  1  0  0  0  0  0  0  0  0  0
   20.1808   -6.1581  -14.7419 C   0  0  0  0  0  0  0  0  0  0  0  0
   21.6439   -6.2480  -15.0550 C   0  0  0  0  0  0  0  0  0  0  0  0
   22.4553   -5.1562  -14.4935 O   0  0  0  0  0  0  0  0  0  0  0  0
   22.2230   -4.7394  -13.3314 C   0  0  0  0  0  0  0  0  0  0  0  0
   19.6186   -4.8327  -15.0866 O   0  0  0  0  0  0  0  0  0  0  0  0
   19.2870   -4.5997  -16.2626 O   0  0  0  0  0  0  0  0  0  0  0  0
   23.4673   -4.5732  -15.2052 O   0  0  0  0  0  0  0  0  0  0  0  0
  2  1  1  0
  3  2  2  0
  4  2  1  0
  5  4  1  0
  6  5  1  0
  7  6  1  0
  8  7  1  0
  8  9  1  1
 10 17  1  0
 10  8  1  0
 11 10  2  0
 13 12  1  0
 14 13  2  0
 16 15  1  6
 15 13  1  0
 16 17  1  0
 18 16  1  0
 19 18  2  0
 20 18  1  0
 21 20  1  0
 21 25  1  0
 21 22  1  1
 23 22  1  0
 24 23  2  0
 25 28  1  0
 26 25  2  0
 27 23  1  0
M  END
$$$$
