RND.pdb
     RDKit          3D

 28 27  0  0  1  0  0  0  0  0999 V2000
   23.9376  -20.7796   -5.9778 N   0  0  0  0  0  0  0  0  0  0  0  0
   23.0572  -21.5218   -6.8065 C   0  0  0  0  0  0  0  0  0  0  0  0
   21.8700  -21.8715   -6.4028 N   0  0  0  0  0  0  0  0  0  0  0  0
   23.4054  -21.9328   -8.1254 N   0  0  0  0  0  0  0  0  0  0  0  0
   24.6668  -21.5567   -8.6990 C   0  0  0  0  0  0  0  0  0  0  0  0
   24.7155  -20.1766   -9.2377 C   0  0  0  0  0  0  0  0  0  0  0  0
   25.4529  -19.9724  -10.5115 C   0  0  0  0  0  0  0  0  0  0  0  0
   24.8435  -20.6334  -11.7161 C   0  0  2  0  0  0  0  0  0  0  0  0
   24.7620  -22.0569  -11.6439 N   0  0  0  0  0  0  0  0  0  0  0  0
   25.4542  -20.1511  -12.9771 C   0  0  0  0  0  0  0  0  0  0  0  0
   25.5602  -18.9124  -13.1382 O   0  0  0  0  0  0  0  0  0  0  0  0
   21.2748  -22.4223   -7.0676 N   0  0  0  0  0  0  0  0  0  0  0  0
   28.9388  -21.5109  -17.9814 C   0  0  0  0  0  0  0  0  0  0  0  0
   28.1020  -20.7773  -17.0906 O   0  0  0  0  0  0  0  0  0  0  0  0
   27.8284  -19.5681  -17.3402 C   0  0  0  0  0  0  0  0  0  0  0  0
   27.5266  -21.3736  -15.8643 C   0  0  2  0  0  0  0  0  0  0  0  0
   26.4643  -20.4949  -15.2553 N   0  0  0  0  0  0  0  0  0  0  0  0
   25.9304  -20.9848  -14.0203 C   0  0  0  0  0  0  0  0  0  0  0  0
   25.3620  -20.3518  -16.2638 O   0  0  0  0  0  0  0  0  0  0  0  0
   24.9159  -21.3792  -16.8228 N   0  0  0  0  0  0  0  0  0  0  0  0
   24.8115  -19.1008  -16.6033 C   0  0  2  0  0  0  0  0  0  0  0  0
   23.7745  -18.8903  -17.6025 C   0  0  0  0  0  0  0  0  0  0  0  0
   24.2921  -19.3834  -18.9201 C   0  0  0  0  0  0  0  0  0  0  0  0
   24.7106  -18.3196  -19.8469 O   0  0  0  0  0  0  0  0  0  0  0  0
   24.5975  -17.1154  -19.5074 C   0  0  0  0  0  0  0  0  0  0  0  0
   22.5237  -19.5750  -17.2048 O   0  0  0  0  0  0  0  0  0  0  0  0
   22.3771  -20.7801  -17.4759 O   0  0  0  0  0  0  0  0  0  0  0  0
   25.2256  -18.6034  -21.0817 O   0  0  0  0  0  0  0  0  0  0  0  0
  2  1  1  0
  3  2  2  0
  4  2  1  0
  5  4  1  0
  6  5  1  0
  7  6  1  0
  8  7  1  0
  8  9  1  1
 10 17  1  0
 10  8  1  0
 11 10  2  0
 13 12  1  0
 14 13  2  0
 16 15  1  1
 15 13  1  0
 16 17  1  0
 18 16  1  0
 19 18  2  0
 20 18  1  0
 21 20  1  0
 21 25  1  0
 21 22  1  6
 23 22  1  0
 24 23  2  0
 25 28  1  0
 26 25  2  0
 27 23  1  0
M  END
$$$$
