RND.pdb
     RDKit          3D

 28 27  0  0  1  0  0  0  0  0999 V2000
   30.3746  -22.2338  -12.3749 N   0  0  0  0  0  0  0  0  0  0  0  0
   31.2200  -22.4369  -11.2538 C   0  0  0  0  0  0  0  0  0  0  0  0
   32.4222  -22.9194  -11.3824 N   0  0  0  0  0  0  0  0  0  0  0  0
   30.8183  -22.1302   -9.9218 N   0  0  0  0  0  0  0  0  0  0  0  0
   29.4332  -21.9224   -9.6058 C   0  0  0  0  0  0  0  0  0  0  0  0
   28.8803  -20.6267  -10.0668 C   0  0  0  0  0  0  0  0  0  0  0  0
   27.5230  -20.2599   -9.5858 C   0  0  0  0  0  0  0  0  0  0  0  0
   26.3880  -20.7444  -10.4439 C   0  0  2  0  0  0  0  0  0  0  0  0
   26.4083  -22.1420  -10.7347 N   0  0  0  0  0  0  0  0  0  0  0  0
   26.2124  -19.9036  -11.6513 C   0  0  0  0  0  0  0  0  0  0  0  0
   26.1655  -18.6606  -11.4956 O   0  0  0  0  0  0  0  0  0  0  0  0
   32.9910  -23.0421  -10.5101 N   0  0  0  0  0  0  0  0  0  0  0  0
   28.4630  -18.9538  -15.2377 C   0  0  0  0  0  0  0  0  0  0  0  0
   27.5381  -20.0381  -15.2666 O   0  0  0  0  0  0  0  0  0  0  0  0
   27.9633  -21.2268  -15.1935 C   0  0  0  0  0  0  0  0  0  0  0  0
   26.0763  -19.8363  -15.3801 C   0  0  1  0  0  0  0  0  0  0  0  0
   25.4195  -19.7022  -14.0303 N   0  0  0  0  0  0  0  0  0  0  0  0
   26.0929  -20.3973  -12.9750 C   0  0  0  0  0  0  0  0  0  0  0  0
   24.0136  -20.2123  -14.1581 O   0  0  0  0  0  0  0  0  0  0  0  0
   23.4846  -20.7812  -13.1765 N   0  0  0  0  0  0  0  0  0  0  0  0
   23.2684  -20.0728  -15.3448 C   0  0  1  0  0  0  0  0  0  0  0  0
   21.8345  -20.2950  -15.4592 C   0  0  0  0  0  0  0  0  0  0  0  0
   21.1477  -19.4245  -14.4505 C   0  0  0  0  0  0  0  0  0  0  0  0
   19.8055  -19.8856  -14.0612 O   0  0  0  0  0  0  0  0  0  0  0  0
   19.3327  -20.9324  -14.5701 C   0  0  0  0  0  0  0  0  0  0  0  0
   21.3746  -20.0175  -16.8386 O   0  0  0  0  0  0  0  0  0  0  0  0
   21.8554  -19.0514  -17.4574 O   0  0  0  0  0  0  0  0  0  0  0  0
   19.0465  -19.2026  -13.1513 O   0  0  0  0  0  0  0  0  0  0  0  0
  2  1  1  0
  3  2  2  0
  4  2  1  0
  5  4  1  0
  6  5  1  0
  7  6  1  0
  8  7  1  0
  8  9  1  6
 10 17  1  0
 10  8  1  0
 11 10  2  0
 13 12  1  0
 14 13  2  0
 16 15  1  1
 15 13  1  0
 16 17  1  0
 18 16  1  0
 19 18  2  0
 20 18  1  0
 21 20  1  0
 21 25  1  0
 21 22  1  6
 23 22  1  0
 24 23  2  0
 25 28  1  0
 26 25  2  0
 27 23  1  0
M  END
$$$$
