RND.pdb
     RDKit          3D

 28 27  0  0  1  0  0  0  0  0999 V2000
   26.6280  -24.9686  -16.1226 N   0  0  0  0  0  0  0  0  0  0  0  0
   26.0087  -24.4590  -17.2929 C   0  0  0  0  0  0  0  0  0  0  0  0
   26.2579  -24.9557  -18.4701 N   0  0  0  0  0  0  0  0  0  0  0  0
   25.0798  -23.3791  -17.2637 N   0  0  0  0  0  0  0  0  0  0  0  0
   25.5368  -22.0258  -17.1177 C   0  0  0  0  0  0  0  0  0  0  0  0
   26.4772  -21.8074  -15.9929 C   0  0  0  0  0  0  0  0  0  0  0  0
   26.0222  -20.9183  -14.8926 C   0  0  0  0  0  0  0  0  0  0  0  0
   25.2192  -21.5930  -13.8160 C   0  0  2  0  0  0  0  0  0  0  0  0
   25.1506  -23.0153  -13.9191 N   0  0  0  0  0  0  0  0  0  0  0  0
   23.8909  -20.9599  -13.6410 C   0  0  0  0  0  0  0  0  0  0  0  0
   23.8533  -19.7177  -13.4761 O   0  0  0  0  0  0  0  0  0  0  0  0
   25.7466  -24.5441  -19.2879 N   0  0  0  0  0  0  0  0  0  0  0  0
   19.3943  -18.3188  -13.5859 C   0  0  0  0  0  0  0  0  0  0  0  0
   19.6265  -19.5163  -14.3236 O   0  0  0  0  0  0  0  0  0  0  0  0
   18.6489  -20.1458  -14.8209 C   0  0  0  0  0  0  0  0  0  0  0  0
   20.9822  -20.0692  -14.5400 C   0  0  1  0  0  0  0  0  0  0  0  0
   21.3837  -21.0224  -13.4439 N   0  0  0  0  0  0  0  0  0  0  0  0
   22.6537  -21.6522  -13.6457 C   0  0  0  0  0  0  0  0  0  0  0  0
   20.3106  -22.0662  -13.3359 O   0  0  0  0  0  0  0  0  0  0  0  0
   20.3559  -23.0615  -14.0939 N   0  0  0  0  0  0  0  0  0  0  0  0
   19.2538  -21.9650  -12.4106 C   0  0  1  0  0  0  0  0  0  0  0  0
   18.3074  -23.0282  -12.1071 C   0  0  0  0  0  0  0  0  0  0  0  0
   18.6916  -23.6298  -10.7890 C   0  0  0  0  0  0  0  0  0  0  0  0
   17.7975  -24.7027  -10.3251 O   0  0  0  0  0  0  0  0  0  0  0  0
   17.2342  -25.4516  -11.1619 C   0  0  0  0  0  0  0  0  0  0  0  0
   16.9231  -22.5037  -12.0969 O   0  0  0  0  0  0  0  0  0  0  0  0
   15.9716  -23.2957  -12.2189 O   0  0  0  0  0  0  0  0  0  0  0  0
   17.5570  -24.9136   -8.9954 O   0  0  0  0  0  0  0  0  0  0  0  0
  2  1  1  0
  3  2  2  0
  4  2  1  0
  5  4  1  0
  6  5  1  0
  7  6  1  0
  8  7  1  0
  8  9  1  6
 10 17  1  0
 10  8  1  0
 11 10  2  0
 13 12  1  0
 14 13  2  0
 16 15  1  1
 15 13  1  0
 16 17  1  0
 18 16  1  0
 19 18  2  0
 20 18  1  0
 21 20  1  0
 21 25  1  0
 21 22  1  6
 23 22  1  0
 24 23  2  0
 25 28  1  0
 26 25  2  0
 27 23  1  0
M  END
$$$$
