RND.pdb
     RDKit          3D

 28 27  0  0  1  0  0  0  0  0999 V2000
   18.1246  -10.7126  -14.6941 N   0  0  0  0  0  0  0  0  0  0  0  0
   17.2671  -11.3432  -15.6322 C   0  0  0  0  0  0  0  0  0  0  0  0
   16.5761  -12.4022  -15.3231 N   0  0  0  0  0  0  0  0  0  0  0  0
   17.1026  -10.8674  -16.9650 N   0  0  0  0  0  0  0  0  0  0  0  0
   17.8047   -9.6989  -17.4157 C   0  0  0  0  0  0  0  0  0  0  0  0
   17.5567   -8.4786  -16.6117 C   0  0  0  0  0  0  0  0  0  0  0  0
   18.2723   -7.2418  -17.0194 C   0  0  0  0  0  0  0  0  0  0  0  0
   17.4392   -5.9908  -17.0172 C   0  0  2  0  0  0  0  0  0  0  0  0
   16.5080   -5.8867  -18.0944 N   0  0  0  0  0  0  0  0  0  0  0  0
   18.2704   -4.7755  -16.8502 C   0  0  0  0  0  0  0  0  0  0  0  0
   18.4836   -4.0701  -17.8643 O   0  0  0  0  0  0  0  0  0  0  0  0
   15.9462  -12.8020  -16.0600 N   0  0  0  0  0  0  0  0  0  0  0  0
   17.4916   -1.5147  -15.5168 C   0  0  0  0  0  0  0  0  0  0  0  0
   18.3067   -1.5684  -14.3486 O   0  0  0  0  0  0  0  0  0  0  0  0
   17.9920   -0.8842  -13.3326 C   0  0  0  0  0  0  0  0  0  0  0  0
   19.5268   -2.4021  -14.2654 C   0  0  2  0  0  0  0  0  0  0  0  0
   19.7315   -3.2271  -15.5098 N   0  0  0  0  0  0  0  0  0  0  0  0
   18.8460   -4.3462  -15.6278 C   0  0  0  0  0  0  0  0  0  0  0  0
   21.1547   -3.7037  -15.5082 O   0  0  0  0  0  0  0  0  0  0  0  0
   22.0753   -2.8605  -15.4152 N   0  0  0  0  0  0  0  0  0  0  0  0
   21.4908   -5.0677  -15.6076 C   0  0  1  0  0  0  0  0  0  0  0  0
   22.8485   -5.5915  -15.6345 C   0  0  0  0  0  0  0  0  0  0  0  0
   22.8881   -6.8231  -14.7810 C   0  0  0  0  0  0  0  0  0  0  0  0
   24.1291   -7.6054  -14.8976 O   0  0  0  0  0  0  0  0  0  0  0  0
   25.1738   -7.0585  -15.3312 C   0  0  0  0  0  0  0  0  0  0  0  0
   23.2718   -5.8653  -17.0264 O   0  0  0  0  0  0  0  0  0  0  0  0
   22.4086   -6.1118  -17.8874 O   0  0  0  0  0  0  0  0  0  0  0  0
   24.1827   -8.9256  -14.5445 O   0  0  0  0  0  0  0  0  0  0  0  0
  2  1  1  0
  3  2  2  0
  4  2  1  0
  5  4  1  0
  6  5  1  0
  7  6  1  0
  8  7  1  0
  8  9  1  6
 10 17  1  0
 10  8  1  0
 11 10  2  0
 13 12  1  0
 14 13  2  0
 16 15  1  6
 15 13  1  0
 16 17  1  0
 18 16  1  0
 19 18  2  0
 20 18  1  0
 21 20  1  0
 21 25  1  0
 21 22  1  6
 23 22  1  0
 24 23  2  0
 25 28  1  0
 26 25  2  0
 27 23  1  0
M  END
$$$$
