RND.pdb
     RDKit          3D

 28 27  0  0  1  0  0  0  0  0999 V2000
   31.3279  -20.8171  -10.6692 N   0  0  0  0  0  0  0  0  0  0  0  0
   30.7770  -21.7072   -9.7115 C   0  0  0  0  0  0  0  0  0  0  0  0
   31.3129  -22.8686   -9.4695 N   0  0  0  0  0  0  0  0  0  0  0  0
   29.6108  -21.3967   -8.9542 N   0  0  0  0  0  0  0  0  0  0  0  0
   28.3714  -21.0932   -9.6124 C   0  0  0  0  0  0  0  0  0  0  0  0
   28.4920  -20.8178  -11.0638 C   0  0  0  0  0  0  0  0  0  0  0  0
   27.2704  -20.3487  -11.7679 C   0  0  0  0  0  0  0  0  0  0  0  0
   26.2175  -21.3981  -11.9899 C   0  0  2  0  0  0  0  0  0  0  0  0
   26.7148  -22.6700  -12.4062 N   0  0  0  0  0  0  0  0  0  0  0  0
   25.1141  -20.8994  -12.8439 C   0  0  0  0  0  0  0  0  0  0  0  0
   25.3184  -19.8598  -13.5140 O   0  0  0  0  0  0  0  0  0  0  0  0
   30.8783  -23.4555   -8.7170 N   0  0  0  0  0  0  0  0  0  0  0  0
   22.2163  -19.4233  -16.9863 C   0  0  0  0  0  0  0  0  0  0  0  0
   22.1372  -20.6108  -16.2016 O   0  0  0  0  0  0  0  0  0  0  0  0
   21.0961  -21.3270  -16.2516 C   0  0  0  0  0  0  0  0  0  0  0  0
   23.2355  -21.0547  -15.3144 C   0  0  1  0  0  0  0  0  0  0  0  0
   22.8209  -21.0633  -13.8655 N   0  0  0  0  0  0  0  0  0  0  0  0
   23.8396  -21.5089  -12.9632 C   0  0  0  0  0  0  0  0  0  0  0  0
   21.6138  -21.9471  -13.7450 O   0  0  0  0  0  0  0  0  0  0  0  0
   21.7746  -23.1874  -13.6918 N   0  0  0  0  0  0  0  0  0  0  0  0
   20.3055  -21.4291  -13.6895 C   0  0  1  0  0  0  0  0  0  0  0  0
   19.1060  -22.2189  -13.4535 C   0  0  0  0  0  0  0  0  0  0  0  0
   18.2114  -21.4418  -12.5354 C   0  0  0  0  0  0  0  0  0  0  0  0
   16.9736  -22.1409  -12.1551 O   0  0  0  0  0  0  0  0  0  0  0  0
   16.7649  -23.3096  -12.5659 C   0  0  0  0  0  0  0  0  0  0  0  0
   18.4395  -22.5461  -14.7342 O   0  0  0  0  0  0  0  0  0  0  0  0
   18.3185  -21.6616  -15.6004 O   0  0  0  0  0  0  0  0  0  0  0  0
   16.0308  -21.5517  -11.3584 O   0  0  0  0  0  0  0  0  0  0  0  0
  2  1  1  0
  3  2  2  0
  4  2  1  0
  5  4  1  0
  6  5  1  0
  7  6  1  0
  8  7  1  0
  8  9  1  6
 10 17  1  0
 10  8  1  0
 11 10  2  0
 13 12  1  0
 14 13  2  0
 16 15  1  1
 15 13  1  0
 16 17  1  0
 18 16  1  0
 19 18  2  0
 20 18  1  0
 21 20  1  0
 21 25  1  0
 21 22  1  6
 23 22  1  0
 24 23  2  0
 25 28  1  0
 26 25  2  0
 27 23  1  0
M  END
$$$$
