RND.pdb
     RDKit          3D

 28 27  0  0  1  0  0  0  0  0999 V2000
   27.5164  -15.5218  -16.4359 N   0  0  0  0  0  0  0  0  0  0  0  0
   28.1150  -16.7808  -16.6993 C   0  0  0  0  0  0  0  0  0  0  0  0
   28.6428  -17.0585  -17.8564 N   0  0  0  0  0  0  0  0  0  0  0  0
   28.1809  -17.8198  -15.7266 N   0  0  0  0  0  0  0  0  0  0  0  0
   27.5062  -17.6849  -14.4664 C   0  0  0  0  0  0  0  0  0  0  0  0
   27.6053  -18.8694  -13.5808 C   0  0  0  0  0  0  0  0  0  0  0  0
   26.7726  -20.0491  -13.9318 C   0  0  0  0  0  0  0  0  0  0  0  0
   25.4307  -20.1080  -13.2572 C   0  0  2  0  0  0  0  0  0  0  0  0
   25.3197  -21.0871  -12.2240 N   0  0  0  0  0  0  0  0  0  0  0  0
   24.3229  -20.1734  -14.2391 C   0  0  0  0  0  0  0  0  0  0  0  0
   24.3116  -19.3271  -15.1639 O   0  0  0  0  0  0  0  0  0  0  0  0
   29.0204  -18.0266  -17.9971 N   0  0  0  0  0  0  0  0  0  0  0  0
   24.0926  -20.9455  -17.2038 C   0  0  0  0  0  0  0  0  0  0  0  0
   23.2850  -22.1173  -17.1211 O   0  0  0  0  0  0  0  0  0  0  0  0
   23.4850  -23.0743  -17.9232 C   0  0  0  0  0  0  0  0  0  0  0  0
   22.2031  -22.2711  -16.1229 C   0  0  2  0  0  0  0  0  0  0  0  0
   22.1771  -21.1294  -15.1395 N   0  0  0  0  0  0  0  0  0  0  0  0
   23.2702  -21.1227  -14.2145 C   0  0  0  0  0  0  0  0  0  0  0  0
   20.8787  -21.2061  -14.3906 O   0  0  0  0  0  0  0  0  0  0  0  0
   20.9033  -21.2569  -13.1401 N   0  0  0  0  0  0  0  0  0  0  0  0
   19.6325  -21.2228  -15.0465 C   0  0  1  0  0  0  0  0  0  0  0  0
   18.3932  -20.6964  -14.4941 C   0  0  0  0  0  0  0  0  0  0  0  0
   18.6124  -19.2530  -14.1540 C   0  0  0  0  0  0  0  0  0  0  0  0
   17.4740  -18.6056  -13.4827 O   0  0  0  0  0  0  0  0  0  0  0  0
   16.5012  -19.2992  -13.0943 C   0  0  0  0  0  0  0  0  0  0  0  0
   17.2791  -20.8793  -15.4516 O   0  0  0  0  0  0  0  0  0  0  0  0
   17.4533  -20.5929  -16.6495 O   0  0  0  0  0  0  0  0  0  0  0  0
   17.4406  -17.2558  -13.2650 O   0  0  0  0  0  0  0  0  0  0  0  0
  2  1  1  0
  3  2  2  0
  4  2  1  0
  5  4  1  0
  6  5  1  0
  7  6  1  0
  8  7  1  0
  8  9  1  1
 10 17  1  0
 10  8  1  0
 11 10  2  0
 13 12  1  0
 14 13  2  0
 16 15  1  6
 15 13  1  0
 16 17  1  0
 18 16  1  0
 19 18  2  0
 20 18  1  0
 21 20  1  0
 21 25  1  0
 21 22  1  1
 23 22  1  0
 24 23  2  0
 25 28  1  0
 26 25  2  0
 27 23  1  0
M  END
$$$$
