RND.pdb
     RDKit          3D

 28 27  0  0  1  0  0  0  0  0999 V2000
   11.4866  -12.7109  -13.2860 N   0  0  0  0  0  0  0  0  0  0  0  0
   11.2956  -11.7137  -14.2770 C   0  0  0  0  0  0  0  0  0  0  0  0
   10.4216  -10.7605  -14.1284 N   0  0  0  0  0  0  0  0  0  0  0  0
   12.0389  -11.6844  -15.4921 N   0  0  0  0  0  0  0  0  0  0  0  0
   13.4037  -12.1289  -15.5248 C   0  0  0  0  0  0  0  0  0  0  0  0
   14.3957  -11.0635  -15.8042 C   0  0  0  0  0  0  0  0  0  0  0  0
   15.2946  -11.2639  -16.9703 C   0  0  0  0  0  0  0  0  0  0  0  0
   16.6060  -11.9294  -16.6597 C   0  0  2  0  0  0  0  0  0  0  0  0
   16.5131  -13.0754  -15.8132 N   0  0  0  0  0  0  0  0  0  0  0  0
   17.6247  -10.9541  -16.2051 C   0  0  0  0  0  0  0  0  0  0  0  0
   17.4021  -10.3309  -15.1404 O   0  0  0  0  0  0  0  0  0  0  0  0
   10.3558  -10.0405  -14.8879 N   0  0  0  0  0  0  0  0  0  0  0  0
   21.8134   -8.0026  -15.4367 C   0  0  0  0  0  0  0  0  0  0  0  0
   22.1765   -9.0062  -16.3817 O   0  0  0  0  0  0  0  0  0  0  0  0
   23.3882   -9.1427  -16.7168 C   0  0  0  0  0  0  0  0  0  0  0  0
   21.1851   -9.9136  -17.0015 C   0  0  2  0  0  0  0  0  0  0  0  0
   19.8064   -9.7208  -16.4242 N   0  0  0  0  0  0  0  0  0  0  0  0
   18.8369  -10.6695  -16.8829 C   0  0  0  0  0  0  0  0  0  0  0  0
   19.3602   -8.3305  -16.7717 O   0  0  0  0  0  0  0  0  0  0  0  0
   18.6303   -8.1620  -17.7746 N   0  0  0  0  0  0  0  0  0  0  0  0
   19.7343   -7.2081  -16.0079 C   0  0  1  0  0  0  0  0  0  0  0  0
   19.2499   -5.8530  -16.2257 C   0  0  0  0  0  0  0  0  0  0  0  0
   17.7537   -5.8747  -16.1365 C   0  0  0  0  0  0  0  0  0  0  0  0
   17.1217   -4.5463  -16.1778 O   0  0  0  0  0  0  0  0  0  0  0  0
   17.4066   -3.7476  -17.1047 C   0  0  0  0  0  0  0  0  0  0  0  0
   19.8523   -4.9224  -15.2446 O   0  0  0  0  0  0  0  0  0  0  0  0
   19.5920   -3.7083  -15.3186 O   0  0  0  0  0  0  0  0  0  0  0  0
   16.2224   -4.1482  -15.2274 O   0  0  0  0  0  0  0  0  0  0  0  0
  2  1  1  0
  3  2  2  0
  4  2  1  0
  5  4  1  0
  6  5  1  0
  7  6  1  0
  8  7  1  0
  8  9  1  1
 10 17  1  0
 10  8  1  0
 11 10  2  0
 13 12  1  0
 14 13  2  0
 16 15  1  1
 15 13  1  0
 16 17  1  0
 18 16  1  0
 19 18  2  0
 20 18  1  0
 21 20  1  0
 21 25  1  0
 21 22  1  6
 23 22  1  0
 24 23  2  0
 25 28  1  0
 26 25  2  0
 27 23  1  0
M  END
$$$$
