RND.pdb
     RDKit          3D

 28 27  0  0  1  0  0  0  0  0999 V2000
   27.8773  -27.1090  -16.1327 N   0  0  0  0  0  0  0  0  0  0  0  0
   27.9686  -26.9657  -17.5413 C   0  0  0  0  0  0  0  0  0  0  0  0
   27.4294  -27.8288  -18.3529 N   0  0  0  0  0  0  0  0  0  0  0  0
   28.6494  -25.8785  -18.1613 N   0  0  0  0  0  0  0  0  0  0  0  0
   28.5081  -24.5429  -17.6538 C   0  0  0  0  0  0  0  0  0  0  0  0
   27.2409  -24.2865  -16.9288 C   0  0  0  0  0  0  0  0  0  0  0  0
   26.7228  -22.8938  -16.9421 C   0  0  0  0  0  0  0  0  0  0  0  0
   27.7298  -21.8405  -17.3104 C   0  0  2  0  0  0  0  0  0  0  0  0
   28.9062  -21.8246  -16.5016 N   0  0  0  0  0  0  0  0  0  0  0  0
   27.1038  -20.5046  -17.4493 C   0  0  0  0  0  0  0  0  0  0  0  0
   27.0157  -19.7914  -16.4221 O   0  0  0  0  0  0  0  0  0  0  0  0
   27.5953  -27.6976  -19.3800 N   0  0  0  0  0  0  0  0  0  0  0  0
   28.7098  -16.6765  -19.1402 C   0  0  0  0  0  0  0  0  0  0  0  0
   28.0874  -17.7123  -19.8964 O   0  0  0  0  0  0  0  0  0  0  0  0
   28.8014  -18.5357  -20.5379 C   0  0  0  0  0  0  0  0  0  0  0  0
   26.6180  -17.8740  -19.9685 C   0  0  2  0  0  0  0  0  0  0  0  0
   26.0766  -18.6389  -18.7883 N   0  0  0  0  0  0  0  0  0  0  0  0
   26.5947  -19.9675  -18.6585 C   0  0  0  0  0  0  0  0  0  0  0  0
   24.5829  -18.6876  -18.9267 O   0  0  0  0  0  0  0  0  0  0  0  0
   23.9544  -17.6166  -19.0847 N   0  0  0  0  0  0  0  0  0  0  0  0
   23.8632  -19.8974  -18.8851 C   0  0  1  0  0  0  0  0  0  0  0  0
   22.4184  -20.0123  -19.0174 C   0  0  0  0  0  0  0  0  0  0  0  0
   22.1029  -21.4056  -19.4715 C   0  0  0  0  0  0  0  0  0  0  0  0
   22.5461  -21.7154  -20.8401 O   0  0  0  0  0  0  0  0  0  0  0  0
   22.6665  -22.9125  -21.2017 C   0  0  0  0  0  0  0  0  0  0  0  0
   21.7518  -19.6797  -17.7382 O   0  0  0  0  0  0  0  0  0  0  0  0
   22.1696  -20.1905  -16.6837 O   0  0  0  0  0  0  0  0  0  0  0  0
   22.8348  -20.7294  -21.7429 O   0  0  0  0  0  0  0  0  0  0  0  0
  2  1  1  0
  3  2  2  0
  4  2  1  0
  5  4  1  0
  6  5  1  0
  7  6  1  0
  8  7  1  0
  8  9  1  1
 10 17  1  0
 10  8  1  0
 11 10  2  0
 13 12  1  0
 14 13  2  0
 16 15  1  1
 15 13  1  0
 16 17  1  0
 18 16  1  0
 19 18  2  0
 20 18  1  0
 21 20  1  0
 21 25  1  0
 21 22  1  1
 23 22  1  0
 24 23  2  0
 25 28  1  0
 26 25  2  0
 27 23  1  0
M  END
$$$$
