RND.pdb
     RDKit          3D

 28 27  0  0  1  0  0  0  0  0999 V2000
   12.7419  -10.5461   -9.6635 N   0  0  0  0  0  0  0  0  0  0  0  0
   11.9202  -10.0440   -8.6216 C   0  0  0  0  0  0  0  0  0  0  0  0
   10.8784  -10.6987   -8.1965 N   0  0  0  0  0  0  0  0  0  0  0  0
   12.1739   -8.8012   -7.9729 N   0  0  0  0  0  0  0  0  0  0  0  0
   13.3052   -7.9997   -8.3460 C   0  0  0  0  0  0  0  0  0  0  0  0
   14.6224   -8.6045   -8.0354 C   0  0  0  0  0  0  0  0  0  0  0  0
   15.8308   -7.8473   -8.4534 C   0  0  0  0  0  0  0  0  0  0  0  0
   16.0693   -7.7918   -9.9363 C   0  0  2  0  0  0  0  0  0  0  0  0
   15.7934   -9.0057  -10.6355 N   0  0  0  0  0  0  0  0  0  0  0  0
   17.4005   -7.2268  -10.2594 C   0  0  0  0  0  0  0  0  0  0  0  0
   17.8343   -6.3019   -9.5327 O   0  0  0  0  0  0  0  0  0  0  0  0
   10.3426  -10.2886   -7.3937 N   0  0  0  0  0  0  0  0  0  0  0  0
   22.3863   -5.5371  -11.4579 C   0  0  0  0  0  0  0  0  0  0  0  0
   21.7447   -6.5963  -12.1639 O   0  0  0  0  0  0  0  0  0  0  0  0
   22.0899   -6.8569  -13.3523 C   0  0  0  0  0  0  0  0  0  0  0  0
   20.6738   -7.4218  -11.5621 C   0  0  1  0  0  0  0  0  0  0  0  0
   19.3026   -6.8765  -11.8682 N   0  0  0  0  0  0  0  0  0  0  0  0
   18.2258   -7.6523  -11.3307 C   0  0  0  0  0  0  0  0  0  0  0  0
   19.1718   -6.7918  -13.3610 O   0  0  0  0  0  0  0  0  0  0  0  0
   18.8484   -7.8188  -13.9995 N   0  0  0  0  0  0  0  0  0  0  0  0
   19.4002   -5.5960  -14.0689 C   0  0  1  0  0  0  0  0  0  0  0  0
   18.9478   -5.3324  -15.4269 C   0  0  0  0  0  0  0  0  0  0  0  0
   17.7013   -6.1303  -15.6644 C   0  0  0  0  0  0  0  0  0  0  0  0
   17.0707   -5.9000  -16.9740 O   0  0  0  0  0  0  0  0  0  0  0  0
   15.8250   -5.7563  -17.0507 C   0  0  0  0  0  0  0  0  0  0  0  0
   18.7270   -3.8825  -15.6283 O   0  0  0  0  0  0  0  0  0  0  0  0
   18.4437   -3.4622  -16.7643 O   0  0  0  0  0  0  0  0  0  0  0  0
   17.8065   -5.8363  -18.1251 O   0  0  0  0  0  0  0  0  0  0  0  0
  2  1  1  0
  3  2  2  0
  4  2  1  0
  5  4  1  0
  6  5  1  0
  7  6  1  0
  8  7  1  0
  8  9  1  1
 10 17  1  0
 10  8  1  0
 11 10  2  0
 13 12  1  0
 14 13  2  0
 16 15  1  1
 15 13  1  0
 16 17  1  0
 18 16  1  0
 19 18  2  0
 20 18  1  0
 21 20  1  0
 21 25  1  0
 21 22  1  6
 23 22  1  0
 24 23  2  0
 25 28  1  0
 26 25  2  0
 27 23  1  0
M  END
$$$$
