RND.pdb
     RDKit          3D

 28 27  0  0  1  0  0  0  0  0999 V2000
   30.2240  -23.0865  -18.0336 N   0  0  0  0  0  0  0  0  0  0  0  0
   30.3941  -21.9515  -18.8677 C   0  0  0  0  0  0  0  0  0  0  0  0
   31.2274  -21.9566  -19.8678 N   0  0  0  0  0  0  0  0  0  0  0  0
   29.6728  -20.7384  -18.6728 N   0  0  0  0  0  0  0  0  0  0  0  0
   28.8940  -20.5343  -17.4840 C   0  0  0  0  0  0  0  0  0  0  0  0
   27.4342  -20.4161  -17.7125 C   0  0  0  0  0  0  0  0  0  0  0  0
   26.5639  -20.3465  -16.5101 C   0  0  0  0  0  0  0  0  0  0  0  0
   26.9213  -21.3016  -15.4059 C   0  0  2  0  0  0  0  0  0  0  0  0
   27.5428  -22.5127  -15.8364 N   0  0  0  0  0  0  0  0  0  0  0  0
   25.7830  -21.5299  -14.4851 C   0  0  0  0  0  0  0  0  0  0  0  0
   24.9978  -22.4708  -14.7493 O   0  0  0  0  0  0  0  0  0  0  0  0
   31.2740  -21.0954  -20.4643 N   0  0  0  0  0  0  0  0  0  0  0  0
   26.2598  -22.3809  -10.7476 C   0  0  0  0  0  0  0  0  0  0  0  0
   25.6213  -21.2053  -10.2554 O   0  0  0  0  0  0  0  0  0  0  0  0
   25.9103  -20.7703   -9.1037 C   0  0  0  0  0  0  0  0  0  0  0  0
   24.6172  -20.4546  -11.0421 C   0  0  2  0  0  0  0  0  0  0  0  0
   24.4330  -21.0346  -12.4208 N   0  0  0  0  0  0  0  0  0  0  0  0
   25.5113  -20.7641  -13.3233 C   0  0  0  0  0  0  0  0  0  0  0  0
   23.1538  -20.4814  -12.9778 O   0  0  0  0  0  0  0  0  0  0  0  0
   23.0001  -19.2398  -13.0227 N   0  0  0  0  0  0  0  0  0  0  0  0
   22.1196  -21.3112  -13.4521 C   0  0  1  0  0  0  0  0  0  0  0  0
   20.8434  -20.8393  -13.9689 C   0  0  0  0  0  0  0  0  0  0  0  0
   20.6090  -21.4946  -15.2965 C   0  0  0  0  0  0  0  0  0  0  0  0
   21.0769  -20.7134  -16.4526 O   0  0  0  0  0  0  0  0  0  0  0  0
   21.5437  -19.5600  -16.2793 C   0  0  0  0  0  0  0  0  0  0  0  0
   19.7556  -21.1265  -13.0068 O   0  0  0  0  0  0  0  0  0  0  0  0
   18.6282  -20.6373  -13.1995 O   0  0  0  0  0  0  0  0  0  0  0  0
   21.0195  -21.2091  -17.7260 O   0  0  0  0  0  0  0  0  0  0  0  0
  2  1  1  0
  3  2  2  0
  4  2  1  0
  5  4  1  0
  6  5  1  0
  7  6  1  0
  8  7  1  0
  8  9  1  6
 10 17  1  0
 10  8  1  0
 11 10  2  0
 13 12  1  0
 14 13  2  0
 16 15  1  1
 15 13  1  0
 16 17  1  0
 18 16  1  0
 19 18  2  0
 20 18  1  0
 21 20  1  0
 21 25  1  0
 21 22  1  1
 23 22  1  0
 24 23  2  0
 25 28  1  0
 26 25  2  0
 27 23  1  0
M  END
$$$$
