RWN.pdb
     RDKit          3D

 34 35  0  0  1  0  0  0  0  0999 V2000
    9.2286  -15.0508   16.3089 N   0  0  0  0  0  0  0  0  0  0  0  0
    8.5085  -13.9680   15.7327 C   0  0  0  0  0  0  0  0  0  0  0  0
    8.6746  -13.6435   14.4985 N   0  0  0  0  0  0  0  0  0  0  0  0
    7.5777  -13.1925   16.4834 N   0  0  0  0  0  0  0  0  0  0  0  0
    7.5082  -13.3308   17.9099 C   0  0  0  0  0  0  0  0  0  0  0  0
    7.1839  -14.6849   18.4176 C   0  0  0  0  0  0  0  0  0  0  0  0
    8.0625  -15.2808   19.4438 C   0  0  0  0  0  0  0  0  0  0  0  0
    7.3723  -15.4970   20.7504 C   0  0  2  0  0  0  0  0  0  0  0  0
    6.1121  -14.7882   20.7456 N   0  0  0  0  0  0  0  0  0  0  0  0
    8.2286  -15.0489   21.9032 C   0  0  0  0  0  0  0  0  0  0  0  0
    8.6032  -13.8541   21.9403 O   0  0  0  0  0  0  0  0  0  0  0  0
    8.0840  -12.8780   14.1137 N   0  0  0  0  0  0  0  0  0  0  0  0
    8.6025  -15.9354   22.9140 C   0  0  1  0  0  0  0  0  0  0  0  0
    9.5485  -15.6770   23.9797 C   0  0  0  0  0  0  0  0  0  0  0  0
    8.9840  -16.0766   25.3457 C   0  0  0  0  0  0  0  0  0  0  0  0
    7.7397  -15.3204   25.6222 C   0  0  0  0  0  0  0  0  0  0  0  0
    6.4310  -15.7090   25.5232 N   0  0  0  0  0  0  0  0  0  0  0  0
    5.6479  -14.6704   25.8728 C   0  0  0  0  0  0  0  0  0  0  0  0
    6.4101  -13.5974   26.2032 C   0  0  0  0  0  0  0  0  0  0  0  0
    6.1104  -12.3241   26.6187 C   0  0  0  0  0  0  0  0  0  0  0  0
    7.1282  -11.4338   26.8849 C   0  0  0  0  0  0  0  0  0  0  0  0
    8.4494  -11.7889   26.7445 C   0  0  0  0  0  0  0  0  0  0  0  0
    8.7203  -13.0858   26.3221 C   0  0  0  0  0  0  0  0  0  0  0  0
    7.7202  -13.9971   26.0488 C   0  0  0  0  0  0  0  0  0  0  0  0
   10.8058  -16.3809   23.7780 O   0  0  0  0  0  0  0  0  0  0  0  0
   10.8780  -17.6446   23.9546 N   0  0  0  0  0  0  0  0  0  0  0  0
   13.6809  -14.0765   20.7935 C   0  0  0  0  0  0  0  0  0  0  0  0
   13.8443  -15.4341   21.1438 O   0  0  0  0  0  0  0  0  0  0  0  0
   13.5668  -16.3170   20.3060 C   0  0  0  0  0  0  0  0  0  0  0  0
   14.3348  -15.8374   22.4767 C   0  0  2  0  0  0  0  0  0  0  0  0
   13.2699  -16.5344   23.3022 N   0  0  0  0  0  0  0  0  0  0  0  0
   12.0433  -15.7663   23.3774 C   0  0  0  0  0  0  0  0  0  0  0  0
   13.8286  -16.7903   24.6489 O   0  0  0  0  0  0  0  0  0  0  0  0
   14.9135  -17.4058   24.7500 O   0  0  0  0  0  0  0  0  0  0  0  0
  2  3  2  0
  2  1  1  0
  4  2  1  0
  5  6  1  0
  5  4  1  0
  7  6  1  0
  8  9  1  6
  8  7  1  0
 10  8  1  0
 11 10  2  0
 12 10  1  0
 13 24  1  0
 13 12  1  0
 13 14  1  1
 15 14  1  0
 16 15  2  0
 17 18  1  0
 17 16  1  0
 18 23  2  0
 19 20  2  0
 19 18  1  0
 20 21  1  0
 21 22  2  0
 23 22  1  0
 23 15  1  0
 24 31  1  0
 25 24  2  0
 27 28  2  0
 27 26  1  0
 30 29  1  6
 29 27  1  0
 30 32  1  0
 31 30  1  0
 32 33  2  0
 32 34  1  0
M  END
$$$$
