RWN.pdb
     RDKit          3D

 34 35  0  0  1  0  0  0  0  0999 V2000
    8.3613  -12.7149   17.3888 N   0  0  0  0  0  0  0  0  0  0  0  0
    7.5599  -13.3086   16.3748 C   0  0  0  0  0  0  0  0  0  0  0  0
    7.3409  -12.7005   15.2619 N   0  0  0  0  0  0  0  0  0  0  0  0
    6.9616  -14.5921   16.5365 N   0  0  0  0  0  0  0  0  0  0  0  0
    7.2099  -15.3595   17.7232 C   0  0  0  0  0  0  0  0  0  0  0  0
    6.6147  -14.8341   18.9746 C   0  0  0  0  0  0  0  0  0  0  0  0
    7.4947  -14.6367   20.1437 C   0  0  0  0  0  0  0  0  0  0  0  0
    8.1684  -15.8935   20.5873 C   0  0  2  0  0  0  0  0  0  0  0  0
    7.1690  -16.9122   20.8199 N   0  0  0  0  0  0  0  0  0  0  0  0
    8.9922  -15.6660   21.8253 C   0  0  0  0  0  0  0  0  0  0  0  0
    9.9818  -14.9015   21.7524 O   0  0  0  0  0  0  0  0  0  0  0  0
    6.7920  -13.2022   14.5340 N   0  0  0  0  0  0  0  0  0  0  0  0
    8.6699  -16.2870   23.0328 C   0  0  1  0  0  0  0  0  0  0  0  0
    9.3791  -16.1498   24.2880 C   0  0  0  0  0  0  0  0  0  0  0  0
    8.5246  -16.6081   25.4730 C   0  0  0  0  0  0  0  0  0  0  0  0
    7.4999  -15.5843   25.7865 C   0  0  0  0  0  0  0  0  0  0  0  0
    6.1580  -15.7219   26.0190 N   0  0  0  0  0  0  0  0  0  0  0  0
    5.6364  -14.5023   26.2533 C   0  0  0  0  0  0  0  0  0  0  0  0
    6.6054  -13.5550   26.1816 C   0  0  0  0  0  0  0  0  0  0  0  0
    6.5996  -12.1914   26.3368 C   0  0  0  0  0  0  0  0  0  0  0  0
    7.7733  -11.4821   26.2000 C   0  0  0  0  0  0  0  0  0  0  0  0
    8.9626  -12.1087   25.9094 C   0  0  0  0  0  0  0  0  0  0  0  0
    8.9356  -13.4907   25.7583 C   0  0  0  0  0  0  0  0  0  0  0  0
    7.7741  -14.2251   25.8900 C   0  0  0  0  0  0  0  0  0  0  0  0
   10.6231  -16.9043   24.2990 O   0  0  0  0  0  0  0  0  0  0  0  0
   10.6159  -18.1705   24.1258 N   0  0  0  0  0  0  0  0  0  0  0  0
   16.5352  -17.1090   25.3341 C   0  0  0  0  0  0  0  0  0  0  0  0
   15.5918  -17.2374   24.2921 O   0  0  0  0  0  0  0  0  0  0  0  0
   15.7860  -18.0840   23.3955 C   0  0  0  0  0  0  0  0  0  0  0  0
   14.3804  -16.3952   24.2347 C   0  0  2  0  0  0  0  0  0  0  0  0
   13.1128  -17.1793   24.5167 N   0  0  0  0  0  0  0  0  0  0  0  0
   11.9317  -16.3398   24.4951 C   0  0  0  0  0  0  0  0  0  0  0  0
   13.2717  -17.8519   25.8258 O   0  0  0  0  0  0  0  0  0  0  0  0
   12.8662  -17.2742   26.8592 O   0  0  0  0  0  0  0  0  0  0  0  0
  2  3  2  0
  2  1  1  0
  4  2  1  0
  5  6  1  0
  5  4  1  0
  7  6  1  0
  8  9  1  1
  8  7  1  0
 10  8  1  0
 11 10  2  0
 12 10  1  0
 13 24  1  0
 13 12  1  0
 13 14  1  6
 15 14  1  0
 16 15  2  0
 17 18  1  0
 17 16  1  0
 18 23  2  0
 19 20  2  0
 19 18  1  0
 20 21  1  0
 21 22  2  0
 23 22  1  0
 23 15  1  0
 24 31  1  0
 25 24  2  0
 27 28  2  0
 27 26  1  0
 30 29  1  6
 29 27  1  0
 30 32  1  0
 31 30  1  0
 32 33  2  0
 32 34  1  0
M  END
$$$$
