RWN.pdb
     RDKit          3D

 34 35  0  0  1  0  0  0  0  0999 V2000
    7.1512  -13.6927   14.4113 N   0  0  0  0  0  0  0  0  0  0  0  0
    7.6932  -13.6758   15.7262 C   0  0  0  0  0  0  0  0  0  0  0  0
    8.5231  -12.7616   16.0895 N   0  0  0  0  0  0  0  0  0  0  0  0
    7.3521  -14.6601   16.6990 N   0  0  0  0  0  0  0  0  0  0  0  0
    7.9651  -14.6352   17.9961 C   0  0  0  0  0  0  0  0  0  0  0  0
    7.1344  -14.0955   19.0984 C   0  0  0  0  0  0  0  0  0  0  0  0
    7.7347  -13.9851   20.4429 C   0  0  0  0  0  0  0  0  0  0  0  0
    8.3323  -15.2665   20.9234 C   0  0  2  0  0  0  0  0  0  0  0  0
    7.2783  -16.2340   21.1323 N   0  0  0  0  0  0  0  0  0  0  0  0
    9.1232  -15.0625   22.1867 C   0  0  0  0  0  0  0  0  0  0  0  0
   10.0034  -14.1714   22.2033 O   0  0  0  0  0  0  0  0  0  0  0  0
    8.8977  -12.8032   17.0595 N   0  0  0  0  0  0  0  0  0  0  0  0
    8.8895  -15.8422   23.3203 C   0  0  1  0  0  0  0  0  0  0  0  0
    9.6413  -15.8100   24.5577 C   0  0  0  0  0  0  0  0  0  0  0  0
    8.7779  -16.2187   25.7544 C   0  0  0  0  0  0  0  0  0  0  0  0
    7.6006  -15.3246   25.8604 C   0  0  0  0  0  0  0  0  0  0  0  0
    6.2642  -15.6197   25.8375 N   0  0  0  0  0  0  0  0  0  0  0  0
    5.5698  -14.4719   25.9587 C   0  0  0  0  0  0  0  0  0  0  0  0
    6.4183  -13.4180   26.0622 C   0  0  0  0  0  0  0  0  0  0  0  0
    6.2250  -12.0663   26.2015 C   0  0  0  0  0  0  0  0  0  0  0  0
    7.3131  -11.2242   26.2817 C   0  0  0  0  0  0  0  0  0  0  0  0
    8.6004  -11.7051   26.2256 C   0  0  0  0  0  0  0  0  0  0  0  0
    8.7629  -13.0788   26.0843 C   0  0  0  0  0  0  0  0  0  0  0  0
    7.6908  -13.9443   26.0016 C   0  0  0  0  0  0  0  0  0  0  0  0
   10.8065  -16.6801   24.5129 O   0  0  0  0  0  0  0  0  0  0  0  0
   11.0004  -17.5531   25.4259 N   0  0  0  0  0  0  0  0  0  0  0  0
   12.2476  -19.3846   21.0989 C   0  0  0  0  0  0  0  0  0  0  0  0
   12.8631  -18.1148   21.0629 O   0  0  0  0  0  0  0  0  0  0  0  0
   12.7166  -17.3953   20.0534 C   0  0  0  0  0  0  0  0  0  0  0  0
   13.6770  -17.6154   22.1890 C   0  0  2  0  0  0  0  0  0  0  0  0
   12.9132  -17.6057   23.4996 N   0  0  0  0  0  0  0  0  0  0  0  0
   11.8175  -16.6574   23.4896 C   0  0  0  0  0  0  0  0  0  0  0  0
   13.8728  -17.3087   24.5870 O   0  0  0  0  0  0  0  0  0  0  0  0
   14.8829  -18.0350   24.7215 O   0  0  0  0  0  0  0  0  0  0  0  0
  2  3  2  0
  2  1  1  0
  4  2  1  0
  5  6  1  0
  5  4  1  0
  7  6  1  0
  8  9  1  1
  8  7  1  0
 10  8  1  0
 11 10  2  0
 12 10  1  0
 13 24  1  0
 13 12  1  0
 13 14  1  1
 15 14  1  0
 16 15  2  0
 17 18  1  0
 17 16  1  0
 18 23  2  0
 19 20  2  0
 19 18  1  0
 20 21  1  0
 21 22  2  0
 23 22  1  0
 23 15  1  0
 24 31  1  0
 25 24  2  0
 27 28  2  0
 27 26  1  0
 30 29  1  6
 29 27  1  0
 30 32  1  0
 31 30  1  0
 32 33  2  0
 32 34  1  0
M  END
$$$$
