RWN.pdb
     RDKit          3D

 34 35  0  0  1  0  0  0  0  0999 V2000
    8.0499  -13.2299   13.2780 N   0  0  0  0  0  0  0  0  0  0  0  0
    7.5080  -13.6340   14.5293 C   0  0  0  0  0  0  0  0  0  0  0  0
    6.8638  -14.7421   14.6460 N   0  0  0  0  0  0  0  0  0  0  0  0
    7.6456  -12.8415   15.7060 N   0  0  0  0  0  0  0  0  0  0  0  0
    7.0014  -13.2411   16.9243 C   0  0  0  0  0  0  0  0  0  0  0  0
    7.5773  -14.4234   17.6076 C   0  0  0  0  0  0  0  0  0  0  0  0
    8.5049  -14.2022   18.7350 C   0  0  0  0  0  0  0  0  0  0  0  0
    8.9969  -15.4732   19.3454 C   0  0  2  0  0  0  0  0  0  0  0  0
    7.9780  -16.4904   19.2121 N   0  0  0  0  0  0  0  0  0  0  0  0
    9.3674  -15.2795   20.7904 C   0  0  0  0  0  0  0  0  0  0  0  0
   10.3699  -14.5790   21.0616 O   0  0  0  0  0  0  0  0  0  0  0  0
    6.6184  -15.0627   15.6051 N   0  0  0  0  0  0  0  0  0  0  0  0
    8.6182  -15.8619   21.8137 C   0  0  1  0  0  0  0  0  0  0  0  0
    8.7507  -15.6035   23.2324 C   0  0  0  0  0  0  0  0  0  0  0  0
    7.3949  -15.6423   23.9430 C   0  0  0  0  0  0  0  0  0  0  0  0
    7.5384  -15.1623   25.3378 C   0  0  0  0  0  0  0  0  0  0  0  0
    7.8373  -15.8523   26.4816 N   0  0  0  0  0  0  0  0  0  0  0  0
    7.8487  -14.9868   27.5136 C   0  0  0  0  0  0  0  0  0  0  0  0
    7.5634  -13.7334   27.0790 C   0  0  0  0  0  0  0  0  0  0  0  0
    7.4523  -12.5215   27.7135 C   0  0  0  0  0  0  0  0  0  0  0  0
    7.1423  -11.3935   26.9848 C   0  0  0  0  0  0  0  0  0  0  0  0
    6.9390  -11.4486   25.6257 C   0  0  0  0  0  0  0  0  0  0  0  0
    7.0588  -12.6907   25.0123 C   0  0  0  0  0  0  0  0  0  0  0  0
    7.3682  -13.8358   25.7183 C   0  0  0  0  0  0  0  0  0  0  0  0
    9.6376  -16.5567   23.8818 O   0  0  0  0  0  0  0  0  0  0  0  0
    9.4099  -17.8119   23.8051 N   0  0  0  0  0  0  0  0  0  0  0  0
   13.3676  -17.5991   22.6311 C   0  0  0  0  0  0  0  0  0  0  0  0
   13.4664  -16.6360   23.6582 O   0  0  0  0  0  0  0  0  0  0  0  0
   13.8568  -15.4840   23.3775 C   0  0  0  0  0  0  0  0  0  0  0  0
   13.1201  -16.9561   25.0574 C   0  0  2  0  0  0  0  0  0  0  0  0
   11.6406  -17.2364   25.2411 N   0  0  0  0  0  0  0  0  0  0  0  0
   10.8091  -16.2117   24.6423 C   0  0  0  0  0  0  0  0  0  0  0  0
   11.3754  -17.3657   26.6917 O   0  0  0  0  0  0  0  0  0  0  0  0
   10.5241  -16.6180   27.2230 O   0  0  0  0  0  0  0  0  0  0  0  0
  2  3  2  0
  2  1  1  0
  4  2  1  0
  5  6  1  0
  5  4  1  0
  7  6  1  0
  8  9  1  1
  8  7  1  0
 10  8  1  0
 11 10  2  0
 12 10  1  0
 13 24  1  0
 13 12  1  0
 13 14  1  6
 15 14  1  0
 16 15  2  0
 17 18  1  0
 17 16  1  0
 18 23  2  0
 19 20  2  0
 19 18  1  0
 20 21  1  0
 21 22  2  0
 23 22  1  0
 23 15  1  0
 24 31  1  0
 25 24  2  0
 27 28  2  0
 27 26  1  0
 30 29  1  6
 29 27  1  0
 30 32  1  0
 31 30  1  0
 32 33  2  0
 32 34  1  0
M  END
$$$$
