RWN.pdb
     RDKit          3D

 34 35  0  0  1  0  0  0  0  0999 V2000
    7.5450  -13.5649   15.4625 N   0  0  0  0  0  0  0  0  0  0  0  0
    8.6402  -14.2203   16.0903 C   0  0  0  0  0  0  0  0  0  0  0  0
    9.1195  -15.3152   15.6129 N   0  0  0  0  0  0  0  0  0  0  0  0
    9.2558  -13.7070   17.2687 N   0  0  0  0  0  0  0  0  0  0  0  0
    8.4972  -12.9116   18.1911 C   0  0  0  0  0  0  0  0  0  0  0  0
    7.4189  -13.6160   18.9243 C   0  0  0  0  0  0  0  0  0  0  0  0
    7.5859  -13.8439   20.3735 C   0  0  0  0  0  0  0  0  0  0  0  0
    8.3011  -15.1170   20.6867 C   0  0  2  0  0  0  0  0  0  0  0  0
    7.3623  -16.2154   20.6332 N   0  0  0  0  0  0  0  0  0  0  0  0
    8.9676  -15.0539   22.0337 C   0  0  0  0  0  0  0  0  0  0  0  0
    9.7474  -14.1026   22.2707 O   0  0  0  0  0  0  0  0  0  0  0  0
    9.9468  -15.7312   16.0879 N   0  0  0  0  0  0  0  0  0  0  0  0
    8.7295  -16.0274   23.0050 C   0  0  1  0  0  0  0  0  0  0  0  0
    9.3838  -16.1379   24.2922 C   0  0  0  0  0  0  0  0  0  0  0  0
    8.3822  -16.4345   25.4117 C   0  0  0  0  0  0  0  0  0  0  0  0
    7.3410  -15.3807   25.4543 C   0  0  0  0  0  0  0  0  0  0  0  0
    6.0350  -15.4142   25.0459 N   0  0  0  0  0  0  0  0  0  0  0  0
    5.4821  -14.2082   25.2786 C   0  0  0  0  0  0  0  0  0  0  0  0
    6.3949  -13.3721   25.8345 C   0  0  0  0  0  0  0  0  0  0  0  0
    6.3408  -12.0658   26.2522 C   0  0  0  0  0  0  0  0  0  0  0  0
    7.4623  -11.4725   26.7904 C   0  0  0  0  0  0  0  0  0  0  0  0
    8.6464  -12.1596   26.9222 C   0  0  0  0  0  0  0  0  0  0  0  0
    8.6690  -13.4810   26.4900 C   0  0  0  0  0  0  0  0  0  0  0  0
    7.5604  -14.0993   25.9474 C   0  0  0  0  0  0  0  0  0  0  0  0
   10.4034  -17.1758   24.3005 O   0  0  0  0  0  0  0  0  0  0  0  0
   10.3964  -18.0999   23.4176 N   0  0  0  0  0  0  0  0  0  0  0  0
   15.9532  -18.7056   25.2249 C   0  0  0  0  0  0  0  0  0  0  0  0
   14.8981  -18.5522   24.2999 O   0  0  0  0  0  0  0  0  0  0  0  0
   14.8847  -19.2561   23.2690 C   0  0  0  0  0  0  0  0  0  0  0  0
   13.8093  -17.5796   24.5198 C   0  0  2  0  0  0  0  0  0  0  0  0
   12.5532  -18.2272   25.0714 N   0  0  0  0  0  0  0  0  0  0  0  0
   11.4776  -17.2730   25.2524 C   0  0  0  0  0  0  0  0  0  0  0  0
   12.9030  -18.8929   26.3465 O   0  0  0  0  0  0  0  0  0  0  0  0
   12.9037  -18.2215   27.4026 O   0  0  0  0  0  0  0  0  0  0  0  0
  2  3  2  0
  2  1  1  0
  4  2  1  0
  5  6  1  0
  5  4  1  0
  7  6  1  0
  8  9  1  1
  8  7  1  0
 10  8  1  0
 11 10  2  0
 12 10  1  0
 13 24  1  0
 13 12  1  0
 13 14  1  1
 15 14  1  0
 16 15  2  0
 17 18  1  0
 17 16  1  0
 18 23  2  0
 19 20  2  0
 19 18  1  0
 20 21  1  0
 21 22  2  0
 23 22  1  0
 23 15  1  0
 24 31  1  0
 25 24  2  0
 27 28  2  0
 27 26  1  0
 30 29  1  6
 29 27  1  0
 30 32  1  0
 31 30  1  0
 32 33  2  0
 32 34  1  0
M  END
$$$$
