RWN.pdb
     RDKit          3D

 34 35  0  0  1  0  0  0  0  0999 V2000
    8.0248  -12.9885   16.8758 N   0  0  0  0  0  0  0  0  0  0  0  0
    8.5118  -13.1565   18.2016 C   0  0  0  0  0  0  0  0  0  0  0  0
    9.0619  -12.1802   18.8345 N   0  0  0  0  0  0  0  0  0  0  0  0
    8.4199  -14.4009   18.8904 N   0  0  0  0  0  0  0  0  0  0  0  0
    7.3520  -15.3123   18.5942 C   0  0  0  0  0  0  0  0  0  0  0  0
    7.3312  -16.5683   19.3805 C   0  0  0  0  0  0  0  0  0  0  0  0
    8.5665  -16.9852   20.0737 C   0  0  0  0  0  0  0  0  0  0  0  0
    8.3393  -17.3527   21.5032 C   0  0  2  0  0  0  0  0  0  0  0  0
    6.9187  -17.3607   21.7721 N   0  0  0  0  0  0  0  0  0  0  0  0
    9.0497  -16.4063   22.4318 C   0  0  0  0  0  0  0  0  0  0  0  0
    9.7349  -15.4829   21.9346 O   0  0  0  0  0  0  0  0  0  0  0  0
    9.4796  -12.3793   19.7666 N   0  0  0  0  0  0  0  0  0  0  0  0
    8.9541  -16.5441   23.8173 C   0  0  1  0  0  0  0  0  0  0  0  0
    9.9973  -16.2709   24.7840 C   0  0  0  0  0  0  0  0  0  0  0  0
    9.6407  -15.0807   25.6789 C   0  0  0  0  0  0  0  0  0  0  0  0
    8.1728  -14.8772   25.6928 C   0  0  0  0  0  0  0  0  0  0  0  0
    7.1560  -15.7781   25.5251 N   0  0  0  0  0  0  0  0  0  0  0  0
    5.9831  -15.1213   25.6109 C   0  0  0  0  0  0  0  0  0  0  0  0
    6.1994  -13.8002   25.8328 C   0  0  0  0  0  0  0  0  0  0  0  0
    5.3617  -12.7250   25.9938 C   0  0  0  0  0  0  0  0  0  0  0  0
    5.8914  -11.4712   26.2102 C   0  0  0  0  0  0  0  0  0  0  0  0
    7.2498  -11.2649   26.2701 C   0  0  0  0  0  0  0  0  0  0  0  0
    8.0718  -12.3740   26.1034 C   0  0  0  0  0  0  0  0  0  0  0  0
    7.5674  -13.6404   25.8853 C   0  0  0  0  0  0  0  0  0  0  0  0
   10.2703  -17.4198   25.6339 O   0  0  0  0  0  0  0  0  0  0  0  0
    9.3489  -18.2647   25.8993 N   0  0  0  0  0  0  0  0  0  0  0  0
   12.9223  -20.3410   24.7949 C   0  0  0  0  0  0  0  0  0  0  0  0
   13.6962  -19.6666   25.7637 O   0  0  0  0  0  0  0  0  0  0  0  0
   14.8622  -19.3224   25.4800 C   0  0  0  0  0  0  0  0  0  0  0  0
   13.1624  -19.3579   27.1052 C   0  0  2  0  0  0  0  0  0  0  0  0
   11.7180  -18.8960   27.0645 N   0  0  0  0  0  0  0  0  0  0  0  0
   11.5411  -17.7185   26.2384 C   0  0  0  0  0  0  0  0  0  0  0  0
   11.2764  -18.6494   28.4557 O   0  0  0  0  0  0  0  0  0  0  0  0
   10.9869  -17.4827   28.8038 O   0  0  0  0  0  0  0  0  0  0  0  0
  2  3  2  0
  2  1  1  0
  4  2  1  0
  5  6  1  0
  5  4  1  0
  7  6  1  0
  8  9  1  1
  8  7  1  0
 10  8  1  0
 11 10  2  0
 12 10  1  0
 13 24  1  0
 13 12  1  0
 13 14  1  1
 15 14  1  0
 16 15  2  0
 17 18  1  0
 17 16  1  0
 18 23  2  0
 19 20  2  0
 19 18  1  0
 20 21  1  0
 21 22  2  0
 23 22  1  0
 23 15  1  0
 24 31  1  0
 25 24  2  0
 27 28  2  0
 27 26  1  0
 30 29  1  6
 29 27  1  0
 30 32  1  0
 31 30  1  0
 32 33  2  0
 32 34  1  0
M  END
$$$$
