RWN.pdb
     RDKit          3D

 34 35  0  0  1  0  0  0  0  0999 V2000
    7.8869  -14.6430   16.3080 N   0  0  0  0  0  0  0  0  0  0  0  0
    8.0976  -13.4355   17.0294 C   0  0  0  0  0  0  0  0  0  0  0  0
    7.3927  -12.3865   16.7864 N   0  0  0  0  0  0  0  0  0  0  0  0
    9.0906  -13.3236   18.0457 N   0  0  0  0  0  0  0  0  0  0  0  0
    9.4602  -14.4718   18.8228 C   0  0  0  0  0  0  0  0  0  0  0  0
    8.3465  -15.3422   19.2683 C   0  0  0  0  0  0  0  0  0  0  0  0
    8.0139  -15.3788   20.7064 C   0  0  0  0  0  0  0  0  0  0  0  0
    8.5240  -16.6027   21.3936 C   0  0  2  0  0  0  0  0  0  0  0  0
    7.4324  -17.5319   21.5824 N   0  0  0  0  0  0  0  0  0  0  0  0
    9.1662  -16.2639   22.7110 C   0  0  0  0  0  0  0  0  0  0  0  0
   10.1491  -15.4873   22.7145 O   0  0  0  0  0  0  0  0  0  0  0  0
    7.6143  -11.5187   17.3164 N   0  0  0  0  0  0  0  0  0  0  0  0
    8.6859  -16.7966   23.9082 C   0  0  1  0  0  0  0  0  0  0  0  0
    9.2558  -16.6058   25.2258 C   0  0  0  0  0  0  0  0  0  0  0  0
    8.1716  -16.5212   26.3037 C   0  0  0  0  0  0  0  0  0  0  0  0
    7.2194  -15.4319   25.9821 C   0  0  0  0  0  0  0  0  0  0  0  0
    5.9372  -15.4931   25.5069 N   0  0  0  0  0  0  0  0  0  0  0  0
    5.4739  -14.2368   25.3608 C   0  0  0  0  0  0  0  0  0  0  0  0
    6.4231  -13.3400   25.7299 C   0  0  0  0  0  0  0  0  0  0  0  0
    6.4552  -11.9685   25.7692 C   0  0  0  0  0  0  0  0  0  0  0  0
    7.5930  -11.3228   26.2027 C   0  0  0  0  0  0  0  0  0  0  0  0
    8.7087  -12.0212   26.6012 C   0  0  0  0  0  0  0  0  0  0  0  0
    8.6447  -13.4094   26.5500 C   0  0  0  0  0  0  0  0  0  0  0  0
    7.5179  -14.0810   26.1200 C   0  0  0  0  0  0  0  0  0  0  0  0
   10.1773  -17.6735   25.5833 O   0  0  0  0  0  0  0  0  0  0  0  0
    9.7942  -18.8927   25.5720 N   0  0  0  0  0  0  0  0  0  0  0  0
   13.2324  -18.4052   23.5331 C   0  0  0  0  0  0  0  0  0  0  0  0
   14.0972  -17.9718   24.5611 O   0  0  0  0  0  0  0  0  0  0  0  0
   15.0846  -17.2660   24.2691 C   0  0  0  0  0  0  0  0  0  0  0  0
   13.8643  -18.3322   25.9738 C   0  0  2  0  0  0  0  0  0  0  0  0
   12.4040  -18.6192   26.2680 N   0  0  0  0  0  0  0  0  0  0  0  0
   11.5507  -17.4868   25.9684 C   0  0  0  0  0  0  0  0  0  0  0  0
   12.2925  -19.0166   27.6896 O   0  0  0  0  0  0  0  0  0  0  0  0
   11.5790  -18.3331   28.4576 O   0  0  0  0  0  0  0  0  0  0  0  0
  2  3  2  0
  2  1  1  0
  4  2  1  0
  5  6  1  0
  5  4  1  0
  7  6  1  0
  8  9  1  1
  8  7  1  0
 10  8  1  0
 11 10  2  0
 12 10  1  0
 13 24  1  0
 13 12  1  0
 13 14  1  1
 15 14  1  0
 16 15  2  0
 17 18  1  0
 17 16  1  0
 18 23  2  0
 19 20  2  0
 19 18  1  0
 20 21  1  0
 21 22  2  0
 23 22  1  0
 23 15  1  0
 24 31  1  0
 25 24  2  0
 27 28  2  0
 27 26  1  0
 30 29  1  6
 29 27  1  0
 30 32  1  0
 31 30  1  0
 32 33  2  0
 32 34  1  0
M  END
$$$$
