RWN.pdb
     RDKit          3D

 34 35  0  0  1  0  0  0  0  0999 V2000
    7.0352  -12.3727   17.0897 N   0  0  0  0  0  0  0  0  0  0  0  0
    8.0138  -13.2163   16.4949 C   0  0  0  0  0  0  0  0  0  0  0  0
    8.6926  -12.8263   15.4734 N   0  0  0  0  0  0  0  0  0  0  0  0
    8.2894  -14.5237   16.9909 N   0  0  0  0  0  0  0  0  0  0  0  0
    7.8194  -14.9170   18.2883 C   0  0  0  0  0  0  0  0  0  0  0  0
    8.2118  -14.0397   19.4164 C   0  0  0  0  0  0  0  0  0  0  0  0
    7.8138  -14.4307   20.7835 C   0  0  0  0  0  0  0  0  0  0  0  0
    8.4928  -15.6736   21.2573 C   0  0  2  0  0  0  0  0  0  0  0  0
    7.5204  -16.7393   21.3542 N   0  0  0  0  0  0  0  0  0  0  0  0
    9.1742  -15.4553   22.5805 C   0  0  0  0  0  0  0  0  0  0  0  0
    9.9898  -14.5102   22.6839 O   0  0  0  0  0  0  0  0  0  0  0  0
    9.4182  -13.4706   15.0975 N   0  0  0  0  0  0  0  0  0  0  0  0
    8.9108  -16.2805   23.6747 C   0  0  1  0  0  0  0  0  0  0  0  0
    9.5499  -16.2197   24.9728 C   0  0  0  0  0  0  0  0  0  0  0  0
    8.5310  -16.3333   26.1102 C   0  0  0  0  0  0  0  0  0  0  0  0
    7.4139  -15.3850   25.8882 C   0  0  0  0  0  0  0  0  0  0  0  0
    6.1299  -15.6162   25.4741 N   0  0  0  0  0  0  0  0  0  0  0  0
    5.4811  -14.4375   25.4110 C   0  0  0  0  0  0  0  0  0  0  0  0
    6.3085  -13.4256   25.7756 C   0  0  0  0  0  0  0  0  0  0  0  0
    6.1425  -12.0671   25.8787 C   0  0  0  0  0  0  0  0  0  0  0  0
    7.1964  -11.2779   26.2862 C   0  0  0  0  0  0  0  0  0  0  0  0
    8.4224  -11.8189   26.5957 C   0  0  0  0  0  0  0  0  0  0  0  0
    8.5586  -13.1981   26.4814 C   0  0  0  0  0  0  0  0  0  0  0  0
    7.5196  -14.0113   26.0756 C   0  0  0  0  0  0  0  0  0  0  0  0
   10.5462  -17.2664   25.1418 O   0  0  0  0  0  0  0  0  0  0  0  0
   10.2048  -18.4276   25.5523 N   0  0  0  0  0  0  0  0  0  0  0  0
   14.5298  -16.1729   22.7106 C   0  0  0  0  0  0  0  0  0  0  0  0
   14.0788  -17.4639   23.0604 O   0  0  0  0  0  0  0  0  0  0  0  0
   13.5505  -18.1820   22.1865 C   0  0  0  0  0  0  0  0  0  0  0  0
   14.2152  -17.9873   24.4342 C   0  0  2  0  0  0  0  0  0  0  0  0
   12.8741  -18.2156   25.1057 N   0  0  0  0  0  0  0  0  0  0  0  0
   11.9530  -17.1200   24.8791 C   0  0  0  0  0  0  0  0  0  0  0  0
   13.1154  -18.4264   26.5509 O   0  0  0  0  0  0  0  0  0  0  0  0
   13.9121  -19.3223   26.9099 O   0  0  0  0  0  0  0  0  0  0  0  0
  2  3  2  0
  2  1  1  0
  4  2  1  0
  5  6  1  0
  5  4  1  0
  7  6  1  0
  8  9  1  1
  8  7  1  0
 10  8  1  0
 11 10  2  0
 12 10  1  0
 13 24  1  0
 13 12  1  0
 13 14  1  1
 15 14  1  0
 16 15  2  0
 17 18  1  0
 17 16  1  0
 18 23  2  0
 19 20  2  0
 19 18  1  0
 20 21  1  0
 21 22  2  0
 23 22  1  0
 23 15  1  0
 24 31  1  0
 25 24  2  0
 27 28  2  0
 27 26  1  0
 30 29  1  6
 29 27  1  0
 30 32  1  0
 31 30  1  0
 32 33  2  0
 32 34  1  0
M  END
$$$$
