RWN.pdb
     RDKit          3D

 34 35  0  0  1  0  0  0  0  0999 V2000
    7.1911  -12.6196   14.3901 N   0  0  0  0  0  0  0  0  0  0  0  0
    7.9033  -13.8376   14.2101 C   0  0  0  0  0  0  0  0  0  0  0  0
    8.1960  -14.2666   13.0326 N   0  0  0  0  0  0  0  0  0  0  0  0
    8.3231  -14.6395   15.3111 N   0  0  0  0  0  0  0  0  0  0  0  0
    8.6474  -14.0270   16.5675 C   0  0  0  0  0  0  0  0  0  0  0  0
    8.2561  -14.7831   17.7805 C   0  0  0  0  0  0  0  0  0  0  0  0
    8.2764  -16.2586   17.7272 C   0  0  0  0  0  0  0  0  0  0  0  0
    9.0525  -16.8734   18.8452 C   0  0  2  0  0  0  0  0  0  0  0  0
    8.3938  -18.0887   19.2692 N   0  0  0  0  0  0  0  0  0  0  0  0
    9.2002  -15.9197   19.9990 C   0  0  0  0  0  0  0  0  0  0  0  0
    9.9188  -14.9049   19.8473 O   0  0  0  0  0  0  0  0  0  0  0  0
    8.7934  -15.1155   12.9594 N   0  0  0  0  0  0  0  0  0  0  0  0
    8.5555  -16.1501   21.2152 C   0  0  1  0  0  0  0  0  0  0  0  0
    8.6446  -15.3308   22.4060 C   0  0  0  0  0  0  0  0  0  0  0  0
    7.3126  -14.6443   22.7206 C   0  0  0  0  0  0  0  0  0  0  0  0
    7.0237  -14.7365   24.1713 C   0  0  0  0  0  0  0  0  0  0  0  0
    6.6171  -15.8054   24.9234 N   0  0  0  0  0  0  0  0  0  0  0  0
    6.4752  -15.4016   26.2006 C   0  0  0  0  0  0  0  0  0  0  0  0
    6.7799  -14.0841   26.3135 C   0  0  0  0  0  0  0  0  0  0  0  0
    6.7955  -13.2108   27.3721 C   0  0  0  0  0  0  0  0  0  0  0  0
    7.1586  -11.8967   27.1699 C   0  0  0  0  0  0  0  0  0  0  0  0
    7.5096  -11.4311   25.9242 C   0  0  0  0  0  0  0  0  0  0  0  0
    7.4840  -12.3404   24.8725 C   0  0  0  0  0  0  0  0  0  0  0  0
    7.1242  -13.6616   25.0475 C   0  0  0  0  0  0  0  0  0  0  0  0
    9.0514  -16.1012   23.5712 O   0  0  0  0  0  0  0  0  0  0  0  0
    8.5095  -17.2307   23.8242 N   0  0  0  0  0  0  0  0  0  0  0  0
   14.4831  -16.9998   25.9159 C   0  0  0  0  0  0  0  0  0  0  0  0
   13.4376  -17.2980   25.0157 O   0  0  0  0  0  0  0  0  0  0  0  0
   13.3459  -18.4524   24.5494 C   0  0  0  0  0  0  0  0  0  0  0  0
   12.4490  -16.2789   24.6103 C   0  0  2  0  0  0  0  0  0  0  0  0
   11.0346  -16.6461   25.0175 N   0  0  0  0  0  0  0  0  0  0  0  0
   10.0566  -15.7000   24.5189 C   0  0  0  0  0  0  0  0  0  0  0  0
   10.9919  -16.7371   26.4943 O   0  0  0  0  0  0  0  0  0  0  0  0
   10.3039  -15.9108   27.1346 O   0  0  0  0  0  0  0  0  0  0  0  0
  2  3  2  0
  2  1  1  0
  4  2  1  0
  5  6  1  0
  5  4  1  0
  7  6  1  0
  8  9  1  1
  8  7  1  0
 10  8  1  0
 11 10  2  0
 12 10  1  0
 13 24  1  0
 13 12  1  0
 13 14  1  1
 15 14  1  0
 16 15  2  0
 17 18  1  0
 17 16  1  0
 18 23  2  0
 19 20  2  0
 19 18  1  0
 20 21  1  0
 21 22  2  0
 23 22  1  0
 23 15  1  0
 24 31  1  0
 25 24  2  0
 27 28  2  0
 27 26  1  0
 30 29  1  6
 29 27  1  0
 30 32  1  0
 31 30  1  0
 32 33  2  0
 32 34  1  0
M  END
$$$$
