RWN.pdb
     RDKit          3D

 34 35  0  0  1  0  0  0  0  0999 V2000
    8.1175  -15.7104   15.5834 N   0  0  0  0  0  0  0  0  0  0  0  0
    8.3418  -14.3123   15.4494 C   0  0  0  0  0  0  0  0  0  0  0  0
    8.0522  -13.6961   14.3573 N   0  0  0  0  0  0  0  0  0  0  0  0
    8.8951  -13.5293   16.5041 N   0  0  0  0  0  0  0  0  0  0  0  0
    9.1412  -14.1199   17.7884 C   0  0  0  0  0  0  0  0  0  0  0  0
    7.9536  -14.3170   18.6526 C   0  0  0  0  0  0  0  0  0  0  0  0
    8.1264  -14.2313   20.1165 C   0  0  0  0  0  0  0  0  0  0  0  0
    9.0625  -15.2622   20.6562 C   0  0  2  0  0  0  0  0  0  0  0  0
    8.6259  -16.5721   20.2272 N   0  0  0  0  0  0  0  0  0  0  0  0
    9.1450  -15.1955   22.1567 C   0  0  0  0  0  0  0  0  0  0  0  0
    9.4556  -14.1055   22.6903 O   0  0  0  0  0  0  0  0  0  0  0  0
    8.2454  -12.6746   14.3099 N   0  0  0  0  0  0  0  0  0  0  0  0
    8.8831  -16.3161   22.9462 C   0  0  1  0  0  0  0  0  0  0  0  0
    8.9429  -16.3844   24.3915 C   0  0  0  0  0  0  0  0  0  0  0  0
    7.5448  -16.3814   25.0158 C   0  0  0  0  0  0  0  0  0  0  0  0
    6.9378  -15.0346   24.8960 C   0  0  0  0  0  0  0  0  0  0  0  0
    6.0354  -14.5517   23.9871 N   0  0  0  0  0  0  0  0  0  0  0  0
    5.7852  -13.2602   24.2765 C   0  0  0  0  0  0  0  0  0  0  0  0
    6.5035  -12.8738   25.3610 C   0  0  0  0  0  0  0  0  0  0  0  0
    6.6073  -11.6889   26.0457 C   0  0  0  0  0  0  0  0  0  0  0  0
    7.4432  -11.6007   27.1379 C   0  0  0  0  0  0  0  0  0  0  0  0
    8.1838  -12.6778   27.5656 C   0  0  0  0  0  0  0  0  0  0  0  0
    8.0566  -13.8639   26.8512 C   0  0  0  0  0  0  0  0  0  0  0  0
    7.2269  -13.9793   25.7539 C   0  0  0  0  0  0  0  0  0  0  0  0
    9.6507  -17.5683   24.8545 O   0  0  0  0  0  0  0  0  0  0  0  0
    9.2685  -18.7344   24.4974 N   0  0  0  0  0  0  0  0  0  0  0  0
   14.0879  -20.2090   25.1766 C   0  0  0  0  0  0  0  0  0  0  0  0
   14.1058  -18.9482   24.5422 O   0  0  0  0  0  0  0  0  0  0  0  0
   15.0567  -18.6600   23.7865 C   0  0  0  0  0  0  0  0  0  0  0  0
   13.0284  -17.9603   24.7498 C   0  0  2  0  0  0  0  0  0  0  0  0
   11.8699  -18.5226   25.5517 N   0  0  0  0  0  0  0  0  0  0  0  0
   10.7999  -17.5598   25.7199 C   0  0  0  0  0  0  0  0  0  0  0  0
   12.3954  -18.9777   26.8586 O   0  0  0  0  0  0  0  0  0  0  0  0
   12.0758  -18.3513   27.8938 O   0  0  0  0  0  0  0  0  0  0  0  0
  2  3  2  0
  2  1  1  0
  4  2  1  0
  5  6  1  0
  5  4  1  0
  7  6  1  0
  8  9  1  1
  8  7  1  0
 10  8  1  0
 11 10  2  0
 12 10  1  0
 13 24  1  0
 13 12  1  0
 13 14  1  1
 15 14  1  0
 16 15  2  0
 17 18  1  0
 17 16  1  0
 18 23  2  0
 19 20  2  0
 19 18  1  0
 20 21  1  0
 21 22  2  0
 23 22  1  0
 23 15  1  0
 24 31  1  0
 25 24  2  0
 27 28  2  0
 27 26  1  0
 30 29  1  6
 29 27  1  0
 30 32  1  0
 31 30  1  0
 32 33  2  0
 32 34  1  0
M  END
$$$$
