RWN.pdb
     RDKit          3D

 34 35  0  0  1  0  0  0  0  0999 V2000
    9.4880  -15.0128   17.1558 N   0  0  0  0  0  0  0  0  0  0  0  0
    8.5516  -14.4215   16.2634 C   0  0  0  0  0  0  0  0  0  0  0  0
    8.9267  -13.9476   15.1272 N   0  0  0  0  0  0  0  0  0  0  0  0
    7.1650  -14.3210   16.5775 N   0  0  0  0  0  0  0  0  0  0  0  0
    6.6587  -14.8841   17.7962 C   0  0  0  0  0  0  0  0  0  0  0  0
    6.7722  -14.0320   19.0035 C   0  0  0  0  0  0  0  0  0  0  0  0
    6.2927  -14.5700   20.2922 C   0  0  0  0  0  0  0  0  0  0  0  0
    7.1300  -15.6959   20.8036 C   0  0  2  0  0  0  0  0  0  0  0  0
    6.3267  -16.8967   20.8638 N   0  0  0  0  0  0  0  0  0  0  0  0
    7.7102  -15.3776   22.1545 C   0  0  0  0  0  0  0  0  0  0  0  0
    7.0190  -14.7124   22.9601 O   0  0  0  0  0  0  0  0  0  0  0  0
    8.1980  -13.5393   14.5065 N   0  0  0  0  0  0  0  0  0  0  0  0
    8.9882  -15.8090   22.5128 C   0  0  1  0  0  0  0  0  0  0  0  0
    9.6398  -15.6041   23.7897 C   0  0  0  0  0  0  0  0  0  0  0  0
    8.8126  -16.1756   24.9446 C   0  0  0  0  0  0  0  0  0  0  0  0
    9.2831  -15.6143   26.2330 C   0  0  0  0  0  0  0  0  0  0  0  0
   10.1398  -16.1386   27.1629 N   0  0  0  0  0  0  0  0  0  0  0  0
   10.2577  -15.2623   28.1791 C   0  0  0  0  0  0  0  0  0  0  0  0
    9.4960  -14.1643   27.9436 C   0  0  0  0  0  0  0  0  0  0  0  0
    9.2691  -13.0092   28.6492 C   0  0  0  0  0  0  0  0  0  0  0  0
    8.4201  -12.0510   28.1387 C   0  0  0  0  0  0  0  0  0  0  0  0
    7.7873  -12.2214   26.9295 C   0  0  0  0  0  0  0  0  0  0  0  0
    8.0379  -13.4020   26.2389 C   0  0  0  0  0  0  0  0  0  0  0  0
    8.8834  -14.3777   26.7274 C   0  0  0  0  0  0  0  0  0  0  0  0
   10.9641  -16.2054   23.8311 O   0  0  0  0  0  0  0  0  0  0  0  0
   11.1001  -17.4655   23.9949 N   0  0  0  0  0  0  0  0  0  0  0  0
   13.6111  -13.7648   20.8086 C   0  0  0  0  0  0  0  0  0  0  0  0
   13.8170  -15.0901   21.2484 O   0  0  0  0  0  0  0  0  0  0  0  0
   13.5036  -16.0367   20.4973 C   0  0  0  0  0  0  0  0  0  0  0  0
   14.3933  -15.3863   22.5751 C   0  0  2  0  0  0  0  0  0  0  0  0
   13.4498  -16.1852   23.4541 N   0  0  0  0  0  0  0  0  0  0  0  0
   12.2035  -15.4873   23.6984 C   0  0  0  0  0  0  0  0  0  0  0  0
   14.1526  -16.4919   24.7204 O   0  0  0  0  0  0  0  0  0  0  0  0
   13.6535  -16.1066   25.8014 O   0  0  0  0  0  0  0  0  0  0  0  0
  2  3  2  0
  2  1  1  0
  4  2  1  0
  5  6  1  0
  5  4  1  0
  7  6  1  0
  8  9  1  1
  8  7  1  0
 10  8  1  0
 11 10  2  0
 12 10  1  0
 13 24  1  0
 13 12  1  0
 13 14  1  6
 15 14  1  0
 16 15  2  0
 17 18  1  0
 17 16  1  0
 18 23  2  0
 19 20  2  0
 19 18  1  0
 20 21  1  0
 21 22  2  0
 23 22  1  0
 23 15  1  0
 24 31  1  0
 25 24  2  0
 27 28  2  0
 27 26  1  0
 30 29  1  6
 29 27  1  0
 30 32  1  0
 31 30  1  0
 32 33  2  0
 32 34  1  0
M  END
$$$$
