RWN.pdb
     RDKit          3D

 34 35  0  0  1  0  0  0  0  0999 V2000
    6.5905  -15.7059   14.7854 N   0  0  0  0  0  0  0  0  0  0  0  0
    7.9059  -15.2989   14.4288 C   0  0  0  0  0  0  0  0  0  0  0  0
    8.6076  -15.9818   13.5935 N   0  0  0  0  0  0  0  0  0  0  0  0
    8.5106  -14.1286   14.9731 N   0  0  0  0  0  0  0  0  0  0  0  0
    8.6807  -13.9978   16.3918 C   0  0  0  0  0  0  0  0  0  0  0  0
    7.4468  -13.7550   17.1759 C   0  0  0  0  0  0  0  0  0  0  0  0
    7.5702  -13.5247   18.6291 C   0  0  0  0  0  0  0  0  0  0  0  0
    8.4730  -14.5058   19.3020 C   0  0  2  0  0  0  0  0  0  0  0  0
    8.0212  -15.8473   19.0076 N   0  0  0  0  0  0  0  0  0  0  0  0
    8.5212  -14.2763   20.7879 C   0  0  0  0  0  0  0  0  0  0  0  0
    8.8640  -13.1468   21.2073 O   0  0  0  0  0  0  0  0  0  0  0  0
    9.5542  -15.6253   13.3488 N   0  0  0  0  0  0  0  0  0  0  0  0
    8.1929  -15.2913   21.6877 C   0  0  1  0  0  0  0  0  0  0  0  0
    8.2993  -15.2306   23.1307 C   0  0  0  0  0  0  0  0  0  0  0  0
    6.9304  -15.3615   23.8042 C   0  0  0  0  0  0  0  0  0  0  0  0
    7.0257  -14.9670   25.2296 C   0  0  0  0  0  0  0  0  0  0  0  0
    7.2030  -15.7364   26.3477 N   0  0  0  0  0  0  0  0  0  0  0  0
    7.2174  -14.9290   27.4257 C   0  0  0  0  0  0  0  0  0  0  0  0
    7.0535  -13.6363   27.0469 C   0  0  0  0  0  0  0  0  0  0  0  0
    6.9959  -12.4538   27.7413 C   0  0  0  0  0  0  0  0  0  0  0  0
    6.8156  -11.2689   27.0610 C   0  0  0  0  0  0  0  0  0  0  0  0
    6.6906  -11.2376   25.6917 C   0  0  0  0  0  0  0  0  0  0  0  0
    6.7533  -12.4519   25.0171 C   0  0  0  0  0  0  0  0  0  0  0  0
    6.9330  -13.6527   25.6739 C   0  0  0  0  0  0  0  0  0  0  0  0
    9.1727  -16.2674   23.6591 O   0  0  0  0  0  0  0  0  0  0  0  0
    8.9377  -17.5000   23.4168 N   0  0  0  0  0  0  0  0  0  0  0  0
   12.1865  -17.0444   22.3435 C   0  0  0  0  0  0  0  0  0  0  0  0
   13.0808  -16.8188   23.4121 O   0  0  0  0  0  0  0  0  0  0  0  0
   14.2808  -16.5824   23.1624 C   0  0  0  0  0  0  0  0  0  0  0  0
   12.6334  -16.8557   24.8186 C   0  0  2  0  0  0  0  0  0  0  0  0
   11.1482  -17.1353   24.9497 N   0  0  0  0  0  0  0  0  0  0  0  0
   10.3377  -16.0338   24.4701 C   0  0  0  0  0  0  0  0  0  0  0  0
   10.8621  -17.4358   26.3707 O   0  0  0  0  0  0  0  0  0  0  0  0
   11.4328  -18.4085   26.9131 O   0  0  0  0  0  0  0  0  0  0  0  0
  2  3  2  0
  2  1  1  0
  4  2  1  0
  5  6  1  0
  5  4  1  0
  7  6  1  0
  8  9  1  1
  8  7  1  0
 10  8  1  0
 11 10  2  0
 12 10  1  0
 13 24  1  0
 13 12  1  0
 13 14  1  1
 15 14  1  0
 16 15  2  0
 17 18  1  0
 17 16  1  0
 18 23  2  0
 19 20  2  0
 19 18  1  0
 20 21  1  0
 21 22  2  0
 23 22  1  0
 23 15  1  0
 24 31  1  0
 25 24  2  0
 27 28  2  0
 27 26  1  0
 30 29  1  6
 29 27  1  0
 30 32  1  0
 31 30  1  0
 32 33  2  0
 32 34  1  0
M  END
$$$$
