RWN.pdb
     RDKit          3D

 34 35  0  0  1  0  0  0  0  0999 V2000
    8.4171  -12.6984   14.9237 N   0  0  0  0  0  0  0  0  0  0  0  0
    8.3873  -13.7072   15.9259 C   0  0  0  0  0  0  0  0  0  0  0  0
    9.3922  -14.4903   16.1082 N   0  0  0  0  0  0  0  0  0  0  0  0
    7.2556  -13.9038   16.7696 N   0  0  0  0  0  0  0  0  0  0  0  0
    7.3140  -14.8511   17.8458 C   0  0  0  0  0  0  0  0  0  0  0  0
    7.0481  -14.3138   19.2011 C   0  0  0  0  0  0  0  0  0  0  0  0
    8.1630  -14.2593   20.1677 C   0  0  0  0  0  0  0  0  0  0  0  0
    8.5126  -15.5965   20.7331 C   0  0  2  0  0  0  0  0  0  0  0  0
    7.3036  -16.3701   20.9073 N   0  0  0  0  0  0  0  0  0  0  0  0
    9.2502  -15.4641   22.0375 C   0  0  0  0  0  0  0  0  0  0  0  0
   10.2745  -14.7440   22.0743 O   0  0  0  0  0  0  0  0  0  0  0  0
    9.3506  -15.1562   16.9068 N   0  0  0  0  0  0  0  0  0  0  0  0
    8.8117  -16.1234   23.1867 C   0  0  1  0  0  0  0  0  0  0  0  0
    9.4563  -16.1148   24.4835 C   0  0  0  0  0  0  0  0  0  0  0  0
    8.4554  -16.3701   25.6138 C   0  0  0  0  0  0  0  0  0  0  0  0
    7.3234  -15.4187   25.5145 C   0  0  0  0  0  0  0  0  0  0  0  0
    6.0613  -15.5985   25.0161 N   0  0  0  0  0  0  0  0  0  0  0  0
    5.3856  -14.4390   25.1316 C   0  0  0  0  0  0  0  0  0  0  0  0
    6.1736  -13.4903   25.6978 C   0  0  0  0  0  0  0  0  0  0  0  0
    5.9698  -12.1736   26.0271 C   0  0  0  0  0  0  0  0  0  0  0  0
    6.9881  -11.4475   26.6061 C   0  0  0  0  0  0  0  0  0  0  0  0
    8.2155  -12.0111   26.8660 C   0  0  0  0  0  0  0  0  0  0  0  0
    8.3905  -13.3467   26.5210 C   0  0  0  0  0  0  0  0  0  0  0  0
    7.3876  -14.0965   25.9402 C   0  0  0  0  0  0  0  0  0  0  0  0
   10.5158  -17.1077   24.5745 O   0  0  0  0  0  0  0  0  0  0  0  0
   10.3114  -18.3117   24.1979 N   0  0  0  0  0  0  0  0  0  0  0  0
   13.9538  -17.1269   22.4690 C   0  0  0  0  0  0  0  0  0  0  0  0
   14.3770  -16.6351   23.7225 O   0  0  0  0  0  0  0  0  0  0  0  0
   14.8848  -15.4967   23.7903 C   0  0  0  0  0  0  0  0  0  0  0  0
   14.2352  -17.4330   24.9567 C   0  0  2  0  0  0  0  0  0  0  0  0
   12.8169  -17.9271   25.1703 N   0  0  0  0  0  0  0  0  0  0  0  0
   11.8427  -16.8589   25.0717 C   0  0  0  0  0  0  0  0  0  0  0  0
   12.7571  -18.5904   26.4923 O   0  0  0  0  0  0  0  0  0  0  0  0
   11.9885  -18.1331   27.3677 O   0  0  0  0  0  0  0  0  0  0  0  0
  2  3  2  0
  2  1  1  0
  4  2  1  0
  5  6  1  0
  5  4  1  0
  7  6  1  0
  8  9  1  1
  8  7  1  0
 10  8  1  0
 11 10  2  0
 12 10  1  0
 13 24  1  0
 13 12  1  0
 13 14  1  1
 15 14  1  0
 16 15  2  0
 17 18  1  0
 17 16  1  0
 18 23  2  0
 19 20  2  0
 19 18  1  0
 20 21  1  0
 21 22  2  0
 23 22  1  0
 23 15  1  0
 24 31  1  0
 25 24  2  0
 27 28  2  0
 27 26  1  0
 30 29  1  6
 29 27  1  0
 30 32  1  0
 31 30  1  0
 32 33  2  0
 32 34  1  0
M  END
$$$$
