ALM.pdb
     RDKit          3D

 22 21  0  0  1  0  0  0  0  0999 V2000
    7.8101  -14.0996   19.5754 C   0  0  0  0  0  0  0  0  0  0  0  0
    8.1352  -15.3342   20.3752 C   0  0  2  0  0  0  0  0  0  0  0  0
    6.9897  -16.2244   20.4447 N   0  0  0  0  0  0  0  0  0  0  0  0
    8.6736  -15.0139   21.7131 C   0  0  0  0  0  0  0  0  0  0  0  0
    9.7432  -14.4101   21.8270 O   0  0  0  0  0  0  0  0  0  0  0  0
    5.9978  -12.9522   26.4068 C   0  0  0  0  0  0  0  0  0  0  0  0
    6.8882  -13.1140   25.1589 C   0  0  1  0  0  0  0  0  0  0  0  0
    7.9045  -12.0351   25.2216 C   0  0  0  0  0  0  0  0  0  0  0  0
    7.4045  -14.5153   25.2173 C   0  0  0  0  0  0  0  0  0  0  0  0
    8.4072  -14.9138   24.2162 C   0  0  2  0  0  0  0  0  0  0  0  0
    8.0162  -15.3686   22.9439 N   0  0  0  0  0  0  0  0  0  0  0  0
    9.2903  -15.9420   24.8558 C   0  0  0  0  0  0  0  0  0  0  0  0
    9.4472  -17.0376   24.2216 O   0  0  0  0  0  0  0  0  0  0  0  0
    9.7011  -13.7832   29.3736 C   0  0  0  0  0  0  0  0  0  0  0  0
   11.4768  -14.0278   29.2761 S   0  0  0  0  0  0  0  0  0  0  0  0
   11.9594  -14.8632   27.7280 C   0  0  0  0  0  0  0  0  0  0  0  0
   11.5875  -16.3137   27.7897 C   0  0  0  0  0  0  0  0  0  0  0  0
   10.8608  -16.7723   26.5618 C   0  0  2  0  0  0  0  0  0  0  0  0
    9.9291  -15.7260   26.1033 N   0  0  0  0  0  0  0  0  0  0  0  0
   10.0404  -17.9703   26.8111 C   0  0  0  0  0  0  0  0  0  0  0  0
    8.7628  -17.8961   26.8032 O   0  0  0  0  0  0  0  0  0  0  0  0
   10.5752  -19.2256   27.0629 O   0  0  0  0  0  0  0  0  0  0  0  0
  2  4  1  0
  2  1  1  1
  2  3  1  0
  4  5  2  0
  7  6  1  1
  7  9  1  0
  7  8  1  0
 10  9  1  1
 10 12  1  0
 11 10  1  0
 11  4  1  0
 12 19  1  0
 13 12  2  0
 15 16  1  0
 15 14  1  0
 17 16  1  0
 18 17  1  1
 19 18  1  0
 20 22  1  0
 20 18  1  0
 21 20  2  0
M  END
$$$$
