ALM.pdb
     RDKit          3D

 22 21  0  0  1  0  0  0  0  0999 V2000
    8.2420  -19.3811   19.2307 C   0  0  0  0  0  0  0  0  0  0  0  0
    8.2179  -18.9934   20.6863 C   0  0  2  0  0  0  0  0  0  0  0  0
    6.8578  -18.9714   21.1954 N   0  0  0  0  0  0  0  0  0  0  0  0
    8.9296  -17.7246   20.9439 C   0  0  0  0  0  0  0  0  0  0  0  0
   10.1623  -17.6966   20.9783 O   0  0  0  0  0  0  0  0  0  0  0  0
    7.0062  -12.3255   19.8596 C   0  0  0  0  0  0  0  0  0  0  0  0
    7.7965  -13.6447   19.7531 C   0  0  1  0  0  0  0  0  0  0  0  0
    8.8792  -13.4109   18.7662 C   0  0  0  0  0  0  0  0  0  0  0  0
    8.2284  -13.9636   21.1480 C   0  0  0  0  0  0  0  0  0  0  0  0
    8.9238  -15.2417   21.3700 C   0  0  2  0  0  0  0  0  0  0  0  0
    8.2643  -16.4675   21.1669 N   0  0  0  0  0  0  0  0  0  0  0  0
    9.4824  -15.2086   22.7603 C   0  0  0  0  0  0  0  0  0  0  0  0
   10.4019  -14.3544   22.9887 O   0  0  0  0  0  0  0  0  0  0  0  0
    7.0250  -11.3470   27.3603 C   0  0  0  0  0  0  0  0  0  0  0  0
    6.3354  -12.9113   26.8126 S   0  0  0  0  0  0  0  0  0  0  0  0
    7.5990  -14.2259   26.7630 C   0  0  0  0  0  0  0  0  0  0  0  0
    7.7041  -14.7849   25.3764 C   0  0  0  0  0  0  0  0  0  0  0  0
    8.9878  -15.5254   25.1523 C   0  0  2  0  0  0  0  0  0  0  0  0
    9.0241  -16.0752   23.7850 N   0  0  0  0  0  0  0  0  0  0  0  0
    9.1367  -16.6760   26.0603 C   0  0  0  0  0  0  0  0  0  0  0  0
    9.1133  -16.5097   27.3290 O   0  0  0  0  0  0  0  0  0  0  0  0
    9.3063  -17.9810   25.6209 O   0  0  0  0  0  0  0  0  0  0  0  0
  2  4  1  0
  2  1  1  6
  2  3  1  0
  4  5  2  0
  7  6  1  1
  7  9  1  0
  7  8  1  0
 10  9  1  1
 10 12  1  0
 11 10  1  0
 11  4  1  0
 12 19  1  0
 13 12  2  0
 15 16  1  0
 15 14  1  0
 17 16  1  0
 18 17  1  1
 19 18  1  0
 20 22  1  0
 20 18  1  0
 21 20  2  0
M  END
$$$$
