ALM.pdb
     RDKit          3D

 22 21  0  0  1  0  0  0  0  0999 V2000
    9.0518  -17.0880   19.2028 C   0  0  0  0  0  0  0  0  0  0  0  0
    8.8953  -17.4865   20.6473 C   0  0  2  0  0  0  0  0  0  0  0  0
    7.6519  -18.2075   20.8553 N   0  0  0  0  0  0  0  0  0  0  0  0
    9.0343  -16.3389   21.5672 C   0  0  0  0  0  0  0  0  0  0  0  0
   10.0890  -15.7008   21.6139 O   0  0  0  0  0  0  0  0  0  0  0  0
    7.4508  -12.3477   24.5864 C   0  0  0  0  0  0  0  0  0  0  0  0
    7.2857  -13.6139   25.4500 C   0  0  1  0  0  0  0  0  0  0  0  0
    6.1627  -13.3470   26.3820 C   0  0  0  0  0  0  0  0  0  0  0  0
    7.0903  -14.7344   24.4803 C   0  0  0  0  0  0  0  0  0  0  0  0
    8.1764  -15.0048   23.5244 C   0  0  2  0  0  0  0  0  0  0  0  0
    7.9878  -15.8916   22.4489 N   0  0  0  0  0  0  0  0  0  0  0  0
    9.3695  -15.4423   24.3188 C   0  0  0  0  0  0  0  0  0  0  0  0
   10.4085  -14.7057   24.2460 O   0  0  0  0  0  0  0  0  0  0  0  0
   10.4852  -12.7279   28.5644 C   0  0  0  0  0  0  0  0  0  0  0  0
   10.8367  -14.2447   29.4579 S   0  0  0  0  0  0  0  0  0  0  0  0
   11.1233  -15.6451   28.3247 C   0  0  0  0  0  0  0  0  0  0  0  0
   10.1546  -15.5880   27.1827 C   0  0  0  0  0  0  0  0  0  0  0  0
   10.3714  -16.6905   26.1909 C   0  0  2  0  0  0  0  0  0  0  0  0
    9.3631  -16.6136   25.1184 N   0  0  0  0  0  0  0  0  0  0  0  0
   10.2242  -18.0256   26.7962 C   0  0  0  0  0  0  0  0  0  0  0  0
    9.1258  -18.6726   26.6835 O   0  0  0  0  0  0  0  0  0  0  0  0
   11.2328  -18.6588   27.5081 O   0  0  0  0  0  0  0  0  0  0  0  0
  2  4  1  0
  2  1  1  6
  2  3  1  0
  4  5  2  0
  7  6  1  6
  7  9  1  0
  7  8  1  0
 10  9  1  1
 10 12  1  0
 11 10  1  0
 11  4  1  0
 12 19  1  0
 13 12  2  0
 15 16  1  0
 15 14  1  0
 17 16  1  0
 18 17  1  1
 19 18  1  0
 20 22  1  0
 20 18  1  0
 21 20  2  0
M  END
$$$$
