ALM.pdb
     RDKit          3D

 22 21  0  0  1  0  0  0  0  0999 V2000
    8.1647  -17.1625   19.5084 C   0  0  0  0  0  0  0  0  0  0  0  0
    8.4497  -17.4235   20.9646 C   0  0  2  0  0  0  0  0  0  0  0  0
    7.4331  -18.2819   21.5469 N   0  0  0  0  0  0  0  0  0  0  0  0
    8.6344  -16.1769   21.7354 C   0  0  0  0  0  0  0  0  0  0  0  0
    9.5471  -15.3972   21.4515 O   0  0  0  0  0  0  0  0  0  0  0  0
    7.4248  -11.8266   24.5375 C   0  0  0  0  0  0  0  0  0  0  0  0
    7.3160  -13.0439   25.4771 C   0  0  1  0  0  0  0  0  0  0  0  0
    6.3138  -12.6909   26.5125 C   0  0  0  0  0  0  0  0  0  0  0  0
    6.9766  -14.2001   24.5929 C   0  0  0  0  0  0  0  0  0  0  0  0
    7.9988  -14.6455   23.6321 C   0  0  2  0  0  0  0  0  0  0  0  0
    7.7943  -15.7886   22.8382 N   0  0  0  0  0  0  0  0  0  0  0  0
    9.2843  -14.7954   24.3877 C   0  0  0  0  0  0  0  0  0  0  0  0
    9.8425  -13.7207   24.7886 O   0  0  0  0  0  0  0  0  0  0  0  0
   10.7855  -12.9184   28.2341 C   0  0  0  0  0  0  0  0  0  0  0  0
   10.9085  -14.3826   29.2653 S   0  0  0  0  0  0  0  0  0  0  0  0
   10.9792  -15.9077   28.2671 C   0  0  0  0  0  0  0  0  0  0  0  0
   10.0958  -15.7752   27.0638 C   0  0  0  0  0  0  0  0  0  0  0  0
   10.8019  -16.1344   25.7915 C   0  0  2  0  0  0  0  0  0  0  0  0
    9.8668  -16.0606   24.6543 N   0  0  0  0  0  0  0  0  0  0  0  0
   11.3186  -17.5140   25.8078 C   0  0  0  0  0  0  0  0  0  0  0  0
   12.1730  -17.8774   26.6886 O   0  0  0  0  0  0  0  0  0  0  0  0
   10.9285  -18.4883   24.9003 O   0  0  0  0  0  0  0  0  0  0  0  0
  2  4  1  0
  2  1  1  6
  2  3  1  0
  4  5  2  0
  7  6  1  6
  7  9  1  0
  7  8  1  0
 10  9  1  1
 10 12  1  0
 11 10  1  0
 11  4  1  0
 12 19  1  0
 13 12  2  0
 15 16  1  0
 15 14  1  0
 17 16  1  0
 18 17  1  1
 19 18  1  0
 20 22  1  0
 20 18  1  0
 21 20  2  0
M  END
$$$$
