ALM.pdb
     RDKit          3D

 22 21  0  0  1  0  0  0  0  0999 V2000
    7.8869  -18.9963   21.0106 C   0  0  0  0  0  0  0  0  0  0  0  0
    7.6567  -17.5120   20.8931 C   0  0  2  0  0  0  0  0  0  0  0  0
    8.0377  -17.0300   19.5771 N   0  0  0  0  0  0  0  0  0  0  0  0
    8.3135  -16.7520   21.9764 C   0  0  0  0  0  0  0  0  0  0  0  0
    9.4921  -16.4042   21.8687 O   0  0  0  0  0  0  0  0  0  0  0  0
    5.9975  -13.0209   25.8325 C   0  0  0  0  0  0  0  0  0  0  0  0
    6.8616  -13.5570   24.6740 C   0  0  1  0  0  0  0  0  0  0  0  0
    7.8321  -12.4860   24.3393 C   0  0  0  0  0  0  0  0  0  0  0  0
    7.4388  -14.8433   25.1701 C   0  0  0  0  0  0  0  0  0  0  0  0
    8.2547  -15.6304   24.2314 C   0  0  2  0  0  0  0  0  0  0  0  0
    7.6535  -16.3716   23.1980 N   0  0  0  0  0  0  0  0  0  0  0  0
    9.1206  -16.5400   25.0492 C   0  0  0  0  0  0  0  0  0  0  0  0
    8.5220  -17.3799   25.7998 O   0  0  0  0  0  0  0  0  0  0  0  0
   10.3422  -12.7986   28.5920 C   0  0  0  0  0  0  0  0  0  0  0  0
   10.8805  -14.1786   29.6062 S   0  0  0  0  0  0  0  0  0  0  0  0
   11.3574  -15.6171   28.5911 C   0  0  0  0  0  0  0  0  0  0  0  0
   10.7855  -15.4849   27.2122 C   0  0  0  0  0  0  0  0  0  0  0  0
   11.2462  -16.5754   26.2931 C   0  0  2  0  0  0  0  0  0  0  0  0
   10.5370  -16.4855   25.0039 N   0  0  0  0  0  0  0  0  0  0  0  0
   10.9565  -17.9176   26.8269 C   0  0  0  0  0  0  0  0  0  0  0  0
    9.7495  -18.3320   26.9233 O   0  0  0  0  0  0  0  0  0  0  0  0
   11.9387  -18.8020   27.2490 O   0  0  0  0  0  0  0  0  0  0  0  0
  2  4  1  0
  2  1  1  6
  2  3  1  0
  4  5  2  0
  7  6  1  1
  7  9  1  0
  7  8  1  0
 10  9  1  1
 10 12  1  0
 11 10  1  0
 11  4  1  0
 12 19  1  0
 13 12  2  0
 15 16  1  0
 15 14  1  0
 17 16  1  0
 18 17  1  1
 19 18  1  0
 20 22  1  0
 20 18  1  0
 21 20  2  0
M  END
$$$$
