ALM.pdb
     RDKit          3D

 22 21  0  0  1  0  0  0  0  0999 V2000
    9.7959  -19.9648   18.9830 C   0  0  0  0  0  0  0  0  0  0  0  0
    9.5485  -19.4822   20.3886 C   0  0  2  0  0  0  0  0  0  0  0  0
    8.2369  -19.8949   20.8561 N   0  0  0  0  0  0  0  0  0  0  0  0
    9.7576  -18.0266   20.5301 C   0  0  0  0  0  0  0  0  0  0  0  0
   10.8972  -17.5548   20.5075 O   0  0  0  0  0  0  0  0  0  0  0  0
    8.9456  -13.0563   19.4446 C   0  0  0  0  0  0  0  0  0  0  0  0
    8.0867  -13.2940   20.7023 C   0  0  1  0  0  0  0  0  0  0  0  0
    6.9360  -12.3620   20.6111 C   0  0  0  0  0  0  0  0  0  0  0  0
    7.7608  -14.7526   20.6919 C   0  0  0  0  0  0  0  0  0  0  0  0
    8.8681  -15.6992   20.9021 C   0  0  2  0  0  0  0  0  0  0  0  0
    8.6868  -17.0793   20.6992 N   0  0  0  0  0  0  0  0  0  0  0  0
    9.3919  -15.4707   22.2875 C   0  0  0  0  0  0  0  0  0  0  0  0
   10.4817  -14.8152   22.3877 O   0  0  0  0  0  0  0  0  0  0  0  0
    5.9820  -11.2542   26.0647 C   0  0  0  0  0  0  0  0  0  0  0  0
    6.3480  -12.9950   26.3061 S   0  0  0  0  0  0  0  0  0  0  0  0
    7.8492  -13.5012   25.4018 C   0  0  0  0  0  0  0  0  0  0  0  0
    8.0853  -14.9703   25.5805 C   0  0  0  0  0  0  0  0  0  0  0  0
    9.2229  -15.4742   24.7447 C   0  0  2  0  0  0  0  0  0  0  0  0
    8.7232  -15.9507   23.4423 N   0  0  0  0  0  0  0  0  0  0  0  0
    9.9083  -16.6214   25.3648 C   0  0  0  0  0  0  0  0  0  0  0  0
    9.6900  -17.8116   24.9480 O   0  0  0  0  0  0  0  0  0  0  0  0
   10.8119  -16.4993   26.4106 O   0  0  0  0  0  0  0  0  0  0  0  0
  2  4  1  0
  2  1  1  6
  2  3  1  0
  4  5  2  0
  7  6  1  6
  7  9  1  0
  7  8  1  0
 10  9  1  1
 10 12  1  0
 11 10  1  0
 11  4  1  0
 12 19  1  0
 13 12  2  0
 15 16  1  0
 15 14  1  0
 17 16  1  0
 18 17  1  1
 19 18  1  0
 20 22  1  0
 20 18  1  0
 21 20  2  0
M  END
$$$$
