ALM.pdb
     RDKit          3D

 22 21  0  0  1  0  0  0  0  0999 V2000
    8.3857  -19.2386   21.1023 C   0  0  0  0  0  0  0  0  0  0  0  0
    7.7726  -17.8825   20.8679 C   0  0  2  0  0  0  0  0  0  0  0  0
    7.9601  -17.4588   19.4915 N   0  0  0  0  0  0  0  0  0  0  0  0
    8.2535  -16.8719   21.8322 C   0  0  0  0  0  0  0  0  0  0  0  0
    9.4378  -16.5268   21.8359 O   0  0  0  0  0  0  0  0  0  0  0  0
    7.8261  -12.2631   24.5391 C   0  0  0  0  0  0  0  0  0  0  0  0
    7.3816  -13.4359   25.4353 C   0  0  1  0  0  0  0  0  0  0  0  0
    6.4165  -12.8781   26.4143 C   0  0  0  0  0  0  0  0  0  0  0  0
    6.8514  -14.4735   24.4993 C   0  0  0  0  0  0  0  0  0  0  0  0
    7.8242  -15.2039   23.6706 C   0  0  2  0  0  0  0  0  0  0  0  0
    7.4084  -16.2339   22.8077 N   0  0  0  0  0  0  0  0  0  0  0  0
    8.8847  -15.7304   24.5894 C   0  0  0  0  0  0  0  0  0  0  0  0
    8.5120  -16.5722   25.4725 O   0  0  0  0  0  0  0  0  0  0  0  0
    9.9843  -13.1113   29.5541 C   0  0  0  0  0  0  0  0  0  0  0  0
   10.2304  -14.8876   29.6362 S   0  0  0  0  0  0  0  0  0  0  0  0
   11.1198  -15.5146   28.1722 C   0  0  0  0  0  0  0  0  0  0  0  0
   10.3303  -15.2294   26.9307 C   0  0  0  0  0  0  0  0  0  0  0  0
   11.0865  -15.5638   25.6806 C   0  0  2  0  0  0  0  0  0  0  0  0
   10.2407  -15.3255   24.4971 N   0  0  0  0  0  0  0  0  0  0  0  0
   11.4776  -16.9832   25.6252 C   0  0  0  0  0  0  0  0  0  0  0  0
   12.5399  -17.3878   26.2130 O   0  0  0  0  0  0  0  0  0  0  0  0
   10.7461  -17.9532   24.9550 O   0  0  0  0  0  0  0  0  0  0  0  0
  2  4  1  0
  2  1  1  6
  2  3  1  0
  4  5  2  0
  7  6  1  6
  7  9  1  0
  7  8  1  0
 10  9  1  1
 10 12  1  0
 11 10  1  0
 11  4  1  0
 12 19  1  0
 13 12  2  0
 15 16  1  0
 15 14  1  0
 17 16  1  0
 18 17  1  1
 19 18  1  0
 20 22  1  0
 20 18  1  0
 21 20  2  0
M  END
$$$$
