MEM.pdb
     RDKit          3D

 26 25  0  0  1  0  0  0  0  0999 V2000
    8.6923  -11.9512   20.1963 C   0  0  0  0  0  0  0  0  0  0  0  0
    7.1336  -12.6420   20.7453 S   0  0  0  0  0  0  0  0  0  0  0  0
    7.1328  -14.3954   21.0223 C   0  0  0  0  0  0  0  0  0  0  0  0
    8.0136  -15.1438   20.0786 C   0  0  0  0  0  0  0  0  0  0  0  0
    7.9640  -16.6146   20.3234 C   0  0  2  0  0  0  0  0  0  0  0  0
    6.5798  -17.0442   20.2297 N   0  0  0  0  0  0  0  0  0  0  0  0
    8.4733  -16.9164   21.7100 C   0  0  0  0  0  0  0  0  0  0  0  0
    7.6587  -17.2399   22.6026 O   0  0  0  0  0  0  0  0  0  0  0  0
    9.8372  -16.8263   21.9576 N   0  0  0  0  0  0  0  0  0  0  0  0
   10.3765  -17.3988   23.2150 C   0  0  1  0  0  0  0  0  0  0  0  0
   11.7570  -17.8502   22.8888 C   0  0  0  0  0  0  0  0  0  0  0  0
   12.5514  -18.4963   23.9554 C   0  0  0  0  0  0  0  0  0  0  0  0
   13.9185  -18.7981   23.3875 C   0  0  0  0  0  0  0  0  0  0  0  0
   14.9507  -18.4434   23.9995 O   0  0  0  0  0  0  0  0  0  0  0  0
   10.2626  -16.3099   24.1967 C   0  0  0  0  0  0  0  0  0  0  0  0
   10.7429  -15.1504   24.0359 O   0  0  0  0  0  0  0  0  0  0  0  0
   14.0817  -19.4683   22.1869 O   0  0  0  0  0  0  0  0  0  0  0  0
    6.9193  -10.7842   25.7743 C   0  0  0  0  0  0  0  0  0  0  0  0
    6.8158  -12.5428   26.1123 S   0  0  0  0  0  0  0  0  0  0  0  0
    8.4362  -13.3348   26.1598 C   0  0  0  0  0  0  0  0  0  0  0  0
    8.2774  -14.8102   26.3941 C   0  0  0  0  0  0  0  0  0  0  0  0
    9.6332  -15.5224   26.4641 C   0  0  2  0  0  0  0  0  0  0  0  0
    9.5740  -16.5400   25.4079 N   0  0  0  0  0  0  0  0  0  0  0  0
    9.8851  -16.1361   27.7751 C   0  0  0  0  0  0  0  0  0  0  0  0
    9.7486  -17.5073   27.9154 O   0  0  0  0  0  0  0  0  0  0  0  0
   10.2211  -15.4738   28.7844 O   0  0  0  0  0  0  0  0  0  0  0  0
  2  3  1  0
  2  1  1  0
  3  4  1  0
  5  4  1  0
  5  6  1  1
  7  5  1  0
  7  9  1  0
  8  7  2  0
  9 10  1  0
 10 11  1  6
 11 12  1  0
 12 13  1  0
 13 17  1  0
 13 14  2  0
 15 16  2  0
 15 10  1  0
 18 19  1  0
 20 19  1  0
 20 21  1  0
 22 21  1  1
 22 23  1  0
 22 24  1  0
 23 15  1  0
 24 25  1  0
 26 24  2  0
M  END
$$$$
