MEM.pdb
     RDKit          3D

 26 25  0  0  1  0  0  0  0  0999 V2000
    9.0891  -12.0686   19.9050 C   0  0  0  0  0  0  0  0  0  0  0  0
    7.5307  -12.4288   19.0989 S   0  0  0  0  0  0  0  0  0  0  0  0
    7.0614  -14.1406   19.0784 C   0  0  0  0  0  0  0  0  0  0  0  0
    7.2179  -14.8129   20.4013 C   0  0  0  0  0  0  0  0  0  0  0  0
    8.6287  -14.7640   20.8836 C   0  0  2  0  0  0  0  0  0  0  0  0
    9.4834  -15.3098   19.8438 N   0  0  0  0  0  0  0  0  0  0  0  0
    8.7716  -15.6101   22.1234 C   0  0  0  0  0  0  0  0  0  0  0  0
    7.9500  -15.4697   23.0563 O   0  0  0  0  0  0  0  0  0  0  0  0
    9.8148  -16.5245   22.1943 N   0  0  0  0  0  0  0  0  0  0  0  0
   10.0235  -17.2769   23.4553 C   0  0  1  0  0  0  0  0  0  0  0  0
   11.0770  -18.2835   23.1504 C   0  0  0  0  0  0  0  0  0  0  0  0
   11.5597  -19.1452   24.2507 C   0  0  0  0  0  0  0  0  0  0  0  0
   12.6170  -20.0625   23.6822 C   0  0  0  0  0  0  0  0  0  0  0  0
   13.1460  -20.9404   24.4001 O   0  0  0  0  0  0  0  0  0  0  0  0
   10.3732  -16.2487   24.4468 C   0  0  0  0  0  0  0  0  0  0  0  0
   10.8433  -15.1098   24.1589 O   0  0  0  0  0  0  0  0  0  0  0  0
   13.0363  -19.9704   22.3658 O   0  0  0  0  0  0  0  0  0  0  0  0
    6.3852  -13.0677   26.1583 C   0  0  0  0  0  0  0  0  0  0  0  0
    7.7027  -12.2641   27.0727 S   0  0  0  0  0  0  0  0  0  0  0  0
    9.0239  -13.4048   27.5290 C   0  0  0  0  0  0  0  0  0  0  0  0
    9.1404  -14.4910   26.4976 C   0  0  0  0  0  0  0  0  0  0  0  0
   10.3236  -15.4223   26.7860 C   0  0  2  0  0  0  0  0  0  0  0  0
   10.1794  -16.5175   25.8195 N   0  0  0  0  0  0  0  0  0  0  0  0
   10.3230  -15.9308   28.1644 C   0  0  0  0  0  0  0  0  0  0  0  0
   10.0962  -17.2792   28.3858 O   0  0  0  0  0  0  0  0  0  0  0  0
   10.5195  -15.1977   29.1615 O   0  0  0  0  0  0  0  0  0  0  0  0
  2  3  1  0
  2  1  1  0
  3  4  1  0
  5  4  1  0
  5  6  1  6
  7  5  1  0
  7  9  1  0
  8  7  2  0
  9 10  1  0
 10 11  1  6
 11 12  1  0
 12 13  1  0
 13 17  1  0
 13 14  2  0
 15 16  2  0
 15 10  1  0
 18 19  1  0
 20 19  1  0
 20 21  1  0
 22 21  1  1
 22 23  1  0
 22 24  1  0
 23 15  1  0
 24 25  1  0
 26 24  2  0
M  END
$$$$
