MEM.pdb
     RDKit          3D

 26 25  0  0  1  0  0  0  0  0999 V2000
    7.5139  -12.4164   26.9198 C   0  0  0  0  0  0  0  0  0  0  0  0
    6.7200  -12.0073   25.3672 S   0  0  0  0  0  0  0  0  0  0  0  0
    6.5142  -13.3606   24.2370 C   0  0  0  0  0  0  0  0  0  0  0  0
    7.5825  -14.3958   24.3528 C   0  0  0  0  0  0  0  0  0  0  0  0
    7.3607  -15.5284   23.4075 C   0  0  2  0  0  0  0  0  0  0  0  0
    6.1019  -16.1665   23.7506 N   0  0  0  0  0  0  0  0  0  0  0  0
    8.4719  -16.5369   23.5531 C   0  0  0  0  0  0  0  0  0  0  0  0
    8.3776  -17.4272   24.4269 O   0  0  0  0  0  0  0  0  0  0  0  0
    9.5722  -16.4485   22.7099 N   0  0  0  0  0  0  0  0  0  0  0  0
   10.7047  -17.3853   22.9091 C   0  0  1  0  0  0  0  0  0  0  0  0
   11.4959  -17.3294   21.6494 C   0  0  0  0  0  0  0  0  0  0  0  0
   12.7883  -18.0462   21.6035 C   0  0  0  0  0  0  0  0  0  0  0  0
   13.4303  -17.7454   20.2693 C   0  0  0  0  0  0  0  0  0  0  0  0
   14.3222  -16.8723   20.1785 O   0  0  0  0  0  0  0  0  0  0  0  0
   11.3781  -16.8996   24.1228 C   0  0  0  0  0  0  0  0  0  0  0  0
   11.8420  -15.7308   24.2629 O   0  0  0  0  0  0  0  0  0  0  0  0
   13.0638  -18.4124   19.1127 O   0  0  0  0  0  0  0  0  0  0  0  0
   10.1432  -13.6514   30.2642 C   0  0  0  0  0  0  0  0  0  0  0  0
    9.9081  -14.3872   28.6452 S   0  0  0  0  0  0  0  0  0  0  0  0
   11.1373  -15.6553   28.2764 C   0  0  0  0  0  0  0  0  0  0  0  0
   10.9356  -16.1722   26.8804 C   0  0  0  0  0  0  0  0  0  0  0  0
   11.9892  -17.2211   26.5062 C   0  0  2  0  0  0  0  0  0  0  0  0
   11.5297  -17.7697   25.2247 N   0  0  0  0  0  0  0  0  0  0  0  0
   12.1208  -18.2793   27.5170 C   0  0  0  0  0  0  0  0  0  0  0  0
   12.8395  -18.0225   28.6728 O   0  0  0  0  0  0  0  0  0  0  0  0
   11.6096  -19.4157   27.3845 O   0  0  0  0  0  0  0  0  0  0  0  0
  2  3  1  0
  2  1  1  0
  3  4  1  0
  5  4  1  0
  5  6  1  1
  7  5  1  0
  7  9  1  0
  8  7  2  0
  9 10  1  0
 10 11  1  6
 11 12  1  0
 12 13  1  0
 13 17  1  0
 13 14  2  0
 15 16  2  0
 15 10  1  0
 18 19  1  0
 20 19  1  0
 20 21  1  0
 22 21  1  1
 22 23  1  0
 22 24  1  0
 23 15  1  0
 24 25  1  0
 26 24  2  0
M  END
$$$$
