MEM.pdb
     RDKit          3D

 26 25  0  0  1  0  0  0  0  0999 V2000
    8.3064  -11.7891   20.4951 C   0  0  0  0  0  0  0  0  0  0  0  0
    6.8416  -12.7156   20.9469 S   0  0  0  0  0  0  0  0  0  0  0  0
    7.0129  -14.4818   20.9006 C   0  0  0  0  0  0  0  0  0  0  0  0
    7.9314  -14.9592   19.8259 C   0  0  0  0  0  0  0  0  0  0  0  0
    8.0965  -16.4415   19.8568 C   0  0  2  0  0  0  0  0  0  0  0  0
    6.8073  -17.0481   19.5743 N   0  0  0  0  0  0  0  0  0  0  0  0
    8.5464  -16.8742   21.2292 C   0  0  0  0  0  0  0  0  0  0  0  0
    7.7273  -17.4320   21.9925 O   0  0  0  0  0  0  0  0  0  0  0  0
    9.8622  -16.6402   21.6080 N   0  0  0  0  0  0  0  0  0  0  0  0
   10.3785  -17.2846   22.8400 C   0  0  1  0  0  0  0  0  0  0  0  0
   11.7756  -17.6895   22.5239 C   0  0  0  0  0  0  0  0  0  0  0  0
   12.5847  -18.3054   23.5974 C   0  0  0  0  0  0  0  0  0  0  0  0
   13.9266  -18.6694   23.0063 C   0  0  0  0  0  0  0  0  0  0  0  0
   14.1791  -18.4181   21.8067 O   0  0  0  0  0  0  0  0  0  0  0  0
   10.2175  -16.2646   23.8870 C   0  0  0  0  0  0  0  0  0  0  0  0
   10.3140  -15.0184   23.6906 O   0  0  0  0  0  0  0  0  0  0  0  0
   14.9146  -19.2854   23.7556 O   0  0  0  0  0  0  0  0  0  0  0  0
    7.0601  -11.9467   24.8084 C   0  0  0  0  0  0  0  0  0  0  0  0
    6.7227  -12.8874   26.2981 S   0  0  0  0  0  0  0  0  0  0  0  0
    8.1557  -13.8271   26.8625 C   0  0  0  0  0  0  0  0  0  0  0  0
    8.5326  -14.8529   25.8317 C   0  0  0  0  0  0  0  0  0  0  0  0
    9.7765  -15.6458   26.2492 C   0  0  2  0  0  0  0  0  0  0  0  0
    9.9315  -16.6698   25.2092 N   0  0  0  0  0  0  0  0  0  0  0  0
    9.6397  -16.2587   27.5776 C   0  0  0  0  0  0  0  0  0  0  0  0
    9.7539  -15.4604   28.7037 O   0  0  0  0  0  0  0  0  0  0  0  0
    9.4225  -17.4814   27.7450 O   0  0  0  0  0  0  0  0  0  0  0  0
  2  3  1  0
  2  1  1  0
  3  4  1  0
  5  4  1  0
  5  6  1  1
  7  5  1  0
  7  9  1  0
  8  7  2  0
  9 10  1  0
 10 11  1  6
 11 12  1  0
 12 13  1  0
 13 17  1  0
 13 14  2  0
 15 16  2  0
 15 10  1  0
 18 19  1  0
 20 19  1  0
 20 21  1  0
 22 21  1  6
 22 23  1  0
 22 24  1  0
 23 15  1  0
 24 25  1  0
 26 24  2  0
M  END
$$$$
