MEM.pdb
     RDKit          3D

 26 25  0  0  1  0  0  0  0  0999 V2000
    8.0181  -11.5225   18.9111 C   0  0  0  0  0  0  0  0  0  0  0  0
    8.3614  -13.2123   19.3957 S   0  0  0  0  0  0  0  0  0  0  0  0
    6.9510  -14.1582   19.9124 C   0  0  0  0  0  0  0  0  0  0  0  0
    7.2270  -15.0399   21.0841 C   0  0  0  0  0  0  0  0  0  0  0  0
    8.6158  -14.8592   21.5980 C   0  0  2  0  0  0  0  0  0  0  0  0
    9.5389  -15.3796   20.6047 N   0  0  0  0  0  0  0  0  0  0  0  0
    8.7896  -15.6376   22.8774 C   0  0  0  0  0  0  0  0  0  0  0  0
    7.9735  -15.4687   23.8105 O   0  0  0  0  0  0  0  0  0  0  0  0
    9.8544  -16.5232   22.9839 N   0  0  0  0  0  0  0  0  0  0  0  0
   10.0040  -17.3177   24.2273 C   0  0  1  0  0  0  0  0  0  0  0  0
   10.9843  -18.3895   23.9013 C   0  0  0  0  0  0  0  0  0  0  0  0
   10.7269  -19.2351   22.7160 C   0  0  0  0  0  0  0  0  0  0  0  0
   10.6463  -20.6685   23.1863 C   0  0  0  0  0  0  0  0  0  0  0  0
   10.4948  -21.5977   22.3620 O   0  0  0  0  0  0  0  0  0  0  0  0
   10.4221  -16.3404   25.2435 C   0  0  0  0  0  0  0  0  0  0  0  0
   11.3550  -15.5005   25.0851 O   0  0  0  0  0  0  0  0  0  0  0  0
   10.7353  -21.0062   24.5262 O   0  0  0  0  0  0  0  0  0  0  0  0
    5.8159  -13.4839   27.0351 C   0  0  0  0  0  0  0  0  0  0  0  0
    7.3356  -12.5828   27.3460 S   0  0  0  0  0  0  0  0  0  0  0  0
    8.8047  -13.5262   26.8916 C   0  0  0  0  0  0  0  0  0  0  0  0
    9.1005  -14.5523   27.9483 C   0  0  0  0  0  0  0  0  0  0  0  0
   10.2808  -15.4479   27.5545 C   0  0  2  0  0  0  0  0  0  0  0  0
    9.7554  -16.3085   26.4879 N   0  0  0  0  0  0  0  0  0  0  0  0
   10.7858  -16.2484   28.6783 C   0  0  0  0  0  0  0  0  0  0  0  0
   11.4823  -15.6180   29.6962 O   0  0  0  0  0  0  0  0  0  0  0  0
   10.6163  -17.4870   28.7633 O   0  0  0  0  0  0  0  0  0  0  0  0
  2  3  1  0
  2  1  1  0
  3  4  1  0
  5  4  1  0
  5  6  1  6
  7  5  1  0
  7  9  1  0
  8  7  2  0
  9 10  1  0
 10 11  1  6
 11 12  1  0
 12 13  1  0
 13 17  1  0
 13 14  2  0
 15 16  2  0
 15 10  1  0
 18 19  1  0
 20 19  1  0
 20 21  1  0
 22 21  1  1
 22 23  1  0
 22 24  1  0
 23 15  1  0
 24 25  1  0
 26 24  2  0
M  END
$$$$
