MEM.pdb
     RDKit          3D

 26 25  0  0  1  0  0  0  0  0999 V2000
    8.4939  -11.2790   20.2408 C   0  0  0  0  0  0  0  0  0  0  0  0
    7.2253  -12.0772   19.2603 S   0  0  0  0  0  0  0  0  0  0  0  0
    7.3817  -13.8381   19.0998 C   0  0  0  0  0  0  0  0  0  0  0  0
    7.9716  -14.4919   20.3044 C   0  0  0  0  0  0  0  0  0  0  0  0
    8.1669  -15.9566   20.0996 C   0  0  2  0  0  0  0  0  0  0  0  0
    6.8625  -16.5665   19.9097 N   0  0  0  0  0  0  0  0  0  0  0  0
    8.8114  -16.5592   21.3221 C   0  0  0  0  0  0  0  0  0  0  0  0
    8.0915  -17.1180   22.1791 O   0  0  0  0  0  0  0  0  0  0  0  0
   10.1909  -16.4765   21.4623 N   0  0  0  0  0  0  0  0  0  0  0  0
   10.8464  -17.2320   22.5574 C   0  0  1  0  0  0  0  0  0  0  0  0
   12.2683  -17.3828   22.1436 C   0  0  0  0  0  0  0  0  0  0  0  0
   12.5558  -18.0780   20.8706 C   0  0  0  0  0  0  0  0  0  0  0  0
   13.9301  -18.6945   20.9871 C   0  0  0  0  0  0  0  0  0  0  0  0
   14.8962  -18.0143   21.3994 O   0  0  0  0  0  0  0  0  0  0  0  0
   10.6013  -16.4254   23.7624 C   0  0  0  0  0  0  0  0  0  0  0  0
   10.7319  -15.1681   23.8188 O   0  0  0  0  0  0  0  0  0  0  0  0
   14.1721  -20.0150   20.6481 O   0  0  0  0  0  0  0  0  0  0  0  0
    6.7075  -12.1593   26.5020 C   0  0  0  0  0  0  0  0  0  0  0  0
    6.4622  -13.9332   26.3978 S   0  0  0  0  0  0  0  0  0  0  0  0
    7.9145  -14.8648   26.9251 C   0  0  0  0  0  0  0  0  0  0  0  0
    8.5466  -15.5398   25.7410 C   0  0  0  0  0  0  0  0  0  0  0  0
    9.8530  -16.2459   26.1215 C   0  0  2  0  0  0  0  0  0  0  0  0
   10.1875  -17.0659   24.9509 N   0  0  0  0  0  0  0  0  0  0  0  0
    9.7199  -17.0755   27.3268 C   0  0  0  0  0  0  0  0  0  0  0  0
    9.7487  -16.4672   28.5708 O   0  0  0  0  0  0  0  0  0  0  0  0
    9.5800  -18.3200   27.2856 O   0  0  0  0  0  0  0  0  0  0  0  0
  2  3  1  0
  2  1  1  0
  3  4  1  0
  5  4  1  0
  5  6  1  1
  7  5  1  0
  7  9  1  0
  8  7  2  0
  9 10  1  0
 10 11  1  6
 11 12  1  0
 12 13  1  0
 13 17  1  0
 13 14  2  0
 15 16  2  0
 15 10  1  0
 18 19  1  0
 20 19  1  0
 20 21  1  0
 22 21  1  6
 22 23  1  0
 22 24  1  0
 23 15  1  0
 24 25  1  0
 26 24  2  0
M  END
$$$$
