MEM.pdb
     RDKit          3D

 26 25  0  0  1  0  0  0  0  0999 V2000
    8.5714  -11.5332   20.1578 C   0  0  0  0  0  0  0  0  0  0  0  0
    7.3942  -12.5032   19.2189 S   0  0  0  0  0  0  0  0  0  0  0  0
    7.5749  -14.2636   19.3579 C   0  0  0  0  0  0  0  0  0  0  0  0
    7.6077  -14.7454   20.7697 C   0  0  0  0  0  0  0  0  0  0  0  0
    8.9786  -15.1684   21.1786 C   0  0  2  0  0  0  0  0  0  0  0  0
    9.4552  -16.1511   20.2211 N   0  0  0  0  0  0  0  0  0  0  0  0
    8.9277  -15.8058   22.5440 C   0  0  0  0  0  0  0  0  0  0  0  0
    8.0710  -15.4161   23.3681 O   0  0  0  0  0  0  0  0  0  0  0  0
    9.8367  -16.8109   22.8489 N   0  0  0  0  0  0  0  0  0  0  0  0
    9.8000  -17.4250   24.1984 C   0  0  1  0  0  0  0  0  0  0  0  0
   10.6510  -18.6429   24.1067 C   0  0  0  0  0  0  0  0  0  0  0  0
   10.4499  -19.5510   22.9572 C   0  0  0  0  0  0  0  0  0  0  0  0
   11.8141  -19.9830   22.4724 C   0  0  0  0  0  0  0  0  0  0  0  0
   12.1208  -19.8726   21.2642 O   0  0  0  0  0  0  0  0  0  0  0  0
   10.2753  -16.3653   25.1006 C   0  0  0  0  0  0  0  0  0  0  0  0
   11.3065  -15.6617   24.8948 O   0  0  0  0  0  0  0  0  0  0  0  0
   12.7641  -20.5096   23.3310 O   0  0  0  0  0  0  0  0  0  0  0  0
    6.1513  -12.6266   26.1479 C   0  0  0  0  0  0  0  0  0  0  0  0
    7.7541  -11.8940   26.4829 S   0  0  0  0  0  0  0  0  0  0  0  0
    9.1056  -13.0764   26.3077 C   0  0  0  0  0  0  0  0  0  0  0  0
    9.0671  -14.0677   27.4358 C   0  0  0  0  0  0  0  0  0  0  0  0
   10.1273  -15.1619   27.2656 C   0  0  2  0  0  0  0  0  0  0  0  0
    9.5528  -16.0870   26.2816 N   0  0  0  0  0  0  0  0  0  0  0  0
   10.4357  -15.8543   28.5242 C   0  0  0  0  0  0  0  0  0  0  0  0
   10.0791  -17.1851   28.6669 O   0  0  0  0  0  0  0  0  0  0  0  0
   11.0118  -15.2951   29.4863 O   0  0  0  0  0  0  0  0  0  0  0  0
  2  3  1  0
  2  1  1  0
  3  4  1  0
  5  4  1  0
  5  6  1  6
  7  5  1  0
  7  9  1  0
  8  7  2  0
  9 10  1  0
 10 11  1  6
 11 12  1  0
 12 13  1  0
 13 17  1  0
 13 14  2  0
 15 16  2  0
 15 10  1  0
 18 19  1  0
 20 19  1  0
 20 21  1  0
 22 21  1  1
 22 23  1  0
 22 24  1  0
 23 15  1  0
 24 25  1  0
 26 24  2  0
M  END
$$$$
