MEM.pdb
     RDKit          3D

 26 25  0  0  1  0  0  0  0  0999 V2000
    8.4884  -11.2221   21.1360 C   0  0  0  0  0  0  0  0  0  0  0  0
    7.2738  -11.8257   19.9662 S   0  0  0  0  0  0  0  0  0  0  0  0
    7.2609  -13.5836   19.7201 C   0  0  0  0  0  0  0  0  0  0  0  0
    7.8269  -14.3462   20.8710 C   0  0  0  0  0  0  0  0  0  0  0  0
    7.7010  -15.8196   20.6742 C   0  0  2  0  0  0  0  0  0  0  0  0
    6.2880  -16.1527   20.6285 N   0  0  0  0  0  0  0  0  0  0  0  0
    8.3331  -16.5433   21.8360 C   0  0  0  0  0  0  0  0  0  0  0  0
    7.6192  -16.8813   22.8061 O   0  0  0  0  0  0  0  0  0  0  0  0
    9.6948  -16.8151   21.7959 N   0  0  0  0  0  0  0  0  0  0  0  0
   10.3288  -17.4734   22.9639 C   0  0  1  0  0  0  0  0  0  0  0  0
   11.6511  -17.9572   22.4810 C   0  0  0  0  0  0  0  0  0  0  0  0
   12.5674  -18.5804   23.4599 C   0  0  0  0  0  0  0  0  0  0  0  0
   13.1198  -19.8385   22.8318 C   0  0  0  0  0  0  0  0  0  0  0  0
   13.1346  -19.9711   21.5875 O   0  0  0  0  0  0  0  0  0  0  0  0
   10.3561  -16.4350   24.0049 C   0  0  0  0  0  0  0  0  0  0  0  0
   10.6739  -15.2275   23.8006 O   0  0  0  0  0  0  0  0  0  0  0  0
   13.6237  -20.8782   23.5948 O   0  0  0  0  0  0  0  0  0  0  0  0
    7.0020  -12.4790   25.2108 C   0  0  0  0  0  0  0  0  0  0  0  0
    8.3202  -12.1096   26.3699 S   0  0  0  0  0  0  0  0  0  0  0  0
    9.0702  -13.5974   27.0620 C   0  0  0  0  0  0  0  0  0  0  0  0
    9.1374  -14.6713   26.0135 C   0  0  0  0  0  0  0  0  0  0  0  0
   10.1469  -15.7637   26.3845 C   0  0  2  0  0  0  0  0  0  0  0  0
   10.0056  -16.7748   25.3299 N   0  0  0  0  0  0  0  0  0  0  0  0
    9.8934  -16.3444   27.7102 C   0  0  0  0  0  0  0  0  0  0  0  0
   10.1292  -15.5770   28.8389 O   0  0  0  0  0  0  0  0  0  0  0  0
    9.4697  -17.5124   27.8730 O   0  0  0  0  0  0  0  0  0  0  0  0
  2  3  1  0
  2  1  1  0
  3  4  1  0
  5  4  1  0
  5  6  1  1
  7  5  1  0
  7  9  1  0
  8  7  2  0
  9 10  1  0
 10 11  1  6
 11 12  1  0
 12 13  1  0
 13 17  1  0
 13 14  2  0
 15 16  2  0
 15 10  1  0
 18 19  1  0
 20 19  1  0
 20 21  1  0
 22 21  1  6
 22 23  1  0
 22 24  1  0
 23 15  1  0
 24 25  1  0
 26 24  2  0
M  END
$$$$
