MEM.pdb
     RDKit          3D

 26 25  0  0  1  0  0  0  0  0999 V2000
    7.8602  -11.4373   20.5694 C   0  0  0  0  0  0  0  0  0  0  0  0
    7.1201  -12.2112   19.1336 S   0  0  0  0  0  0  0  0  0  0  0  0
    7.4032  -13.9567   18.9782 C   0  0  0  0  0  0  0  0  0  0  0  0
    7.9273  -14.5845   20.2264 C   0  0  0  0  0  0  0  0  0  0  0  0
    8.0835  -16.0608   20.0800 C   0  0  2  0  0  0  0  0  0  0  0  0
    6.7760  -16.6310   19.8062 N   0  0  0  0  0  0  0  0  0  0  0  0
    8.6088  -16.6463   21.3663 C   0  0  0  0  0  0  0  0  0  0  0  0
    7.8001  -16.9773   22.2615 O   0  0  0  0  0  0  0  0  0  0  0  0
    9.9805  -16.8020   21.5210 N   0  0  0  0  0  0  0  0  0  0  0  0
   10.4944  -17.4357   22.7595 C   0  0  1  0  0  0  0  0  0  0  0  0
   11.8884  -17.8532   22.4460 C   0  0  0  0  0  0  0  0  0  0  0  0
   12.0981  -18.8197   21.3468 C   0  0  0  0  0  0  0  0  0  0  0  0
   13.5431  -18.7172   20.9179 C   0  0  0  0  0  0  0  0  0  0  0  0
   13.8931  -17.8653   20.0707 O   0  0  0  0  0  0  0  0  0  0  0  0
   10.3416  -16.4028   23.7951 C   0  0  0  0  0  0  0  0  0  0  0  0
   10.5591  -15.1700   23.6115 O   0  0  0  0  0  0  0  0  0  0  0  0
   14.5221  -19.5478   21.4363 O   0  0  0  0  0  0  0  0  0  0  0  0
    6.7348  -11.3369   27.1833 C   0  0  0  0  0  0  0  0  0  0  0  0
    7.2018  -12.5855   25.9830 S   0  0  0  0  0  0  0  0  0  0  0  0
    8.1350  -13.9412   26.7223 C   0  0  0  0  0  0  0  0  0  0  0  0
    8.5950  -14.8890   25.6513 C   0  0  0  0  0  0  0  0  0  0  0  0
    9.7790  -15.7427   26.1200 C   0  0  2  0  0  0  0  0  0  0  0  0
    9.9217  -16.7786   25.0899 N   0  0  0  0  0  0  0  0  0  0  0  0
    9.5588  -16.3410   27.4437 C   0  0  0  0  0  0  0  0  0  0  0  0
    9.4807  -17.7193   27.5564 O   0  0  0  0  0  0  0  0  0  0  0  0
    9.4365  -15.6593   28.4880 O   0  0  0  0  0  0  0  0  0  0  0  0
  2  3  1  0
  2  1  1  0
  3  4  1  0
  5  4  1  0
  5  6  1  1
  7  5  1  0
  7  9  1  0
  8  7  2  0
  9 10  1  0
 10 11  1  6
 11 12  1  0
 12 13  1  0
 13 17  1  0
 13 14  2  0
 15 16  2  0
 15 10  1  0
 18 19  1  0
 20 19  1  0
 20 21  1  0
 22 21  1  6
 22 23  1  0
 22 24  1  0
 23 15  1  0
 24 25  1  0
 26 24  2  0
M  END
$$$$
