RSR.pdb
     RDKit          3D

 29 28  0  0  1  0  0  0  0  0999 V2000
   24.9010  -16.5682  -16.3306 N   0  0  0  0  0  0  0  0  0  0  0  0
   26.1364  -15.8825  -16.4103 C   0  0  0  0  0  0  0  0  0  0  0  0
   26.4336  -15.1391  -17.4082 N   0  0  0  0  0  0  0  0  0  0  0  0
   27.0973  -16.0126  -15.3532 N   0  0  0  0  0  0  0  0  0  0  0  0
   27.3833  -17.2935  -14.7565 C   0  0  0  0  0  0  0  0  0  0  0  0
   27.6344  -18.3724  -15.7420 C   0  0  0  0  0  0  0  0  0  0  0  0
   26.8984  -19.6251  -15.4911 C   0  0  0  0  0  0  0  0  0  0  0  0
   27.5755  -20.5628  -14.5275 C   0  0  2  0  0  0  0  0  0  0  0  0
   28.4350  -21.5219  -15.0911 N   0  0  0  0  0  0  0  0  0  0  0  0
   26.6109  -21.1369  -13.5605 C   0  0  0  0  0  0  0  0  0  0  0  0
   25.7957  -22.0427  -14.0019 O   0  0  0  0  0  0  0  0  0  0  0  0
   27.2822  -14.5792  -17.5092 O   0  0  0  0  0  0  0  0  0  0  0  0
   26.0310  -19.5708   -9.8738 C   0  0  0  0  0  0  0  0  0  0  0  0
   25.5018  -20.8521   -9.9689 C   0  0  1  0  0  0  0  0  0  0  0  0
   25.3566  -21.2624  -11.4122 N   0  0  0  0  0  0  0  0  0  0  0  0
   26.5011  -20.7845  -12.2045 C   0  0  0  0  0  0  0  0  0  0  0  0
   24.1379  -20.6127  -11.9595 O   0  0  0  0  0  0  0  0  0  0  0  0
   24.1694  -19.6257  -12.7318 N   0  0  0  0  0  0  0  0  0  0  0  0
   23.7027  -24.5902  -14.8744 C   0  0  0  0  0  0  0  0  0  0  0  0
   22.3879  -25.0075  -15.1866 N   0  0  0  0  0  0  0  0  0  0  0  0
   22.0056  -26.2280  -15.1350 N   0  0  0  0  0  0  0  0  0  0  0  0
   21.4230  -24.0257  -15.5841 C   0  0  0  0  0  0  0  0  0  0  0  0
   21.7196  -22.6275  -15.3851 C   0  0  0  0  0  0  0  0  0  0  0  0
   21.4731  -22.3001  -13.9112 C   0  0  0  0  0  0  0  0  0  0  0  0
   21.7955  -20.8574  -13.6634 C   0  0  1  0  0  0  0  0  0  0  0  0
   21.6787  -20.5156  -12.1949 N   0  0  0  0  0  0  0  0  0  0  0  0
   22.8775  -21.1338  -11.5914 C   0  0  0  0  0  0  0  0  0  0  0  0
   20.4574  -21.1005  -11.6461 O   0  0  0  0  0  0  0  0  0  0  0  0
   20.3208  -22.2940  -10.9915 O   0  0  0  0  0  0  0  0  0  0  0  0
  1  2  1  0
  2  3  2  0
  4  2  1  0
  5  4  1  0
  6  5  1  0
  7  6  1  0
  8  9  1  6
  8  7  1  0
 10  8  1  0
 11 10  2  0
 14 13  1  1
 13 12  1  0
 14 15  1  0
 15 10  1  0
 16 17  2  0
 16 14  1  0
 18 19  1  0
 19 21  1  0
 20 19  2  0
 21 22  1  0
 22 23  1  0
 23 24  1  0
 25 24  1  6
 25 26  1  0
 26 16  1  0
 27 28  1  0
 27 25  1  0
 29 27  2  0
M  END
$$$$
