RSR.pdb
     RDKit          3D

 29 28  0  0  1  0  0  0  0  0999 V2000
   30.3154  -21.5072   -9.2764 N   0  0  0  0  0  0  0  0  0  0  0  0
   29.9613  -21.8760  -10.5961 C   0  0  0  0  0  0  0  0  0  0  0  0
   30.7063  -21.5980  -11.5983 N   0  0  0  0  0  0  0  0  0  0  0  0
   28.7356  -22.5806  -10.8385 N   0  0  0  0  0  0  0  0  0  0  0  0
   27.7188  -22.0359  -11.7032 C   0  0  0  0  0  0  0  0  0  0  0  0
   27.1288  -20.7676  -11.2117 C   0  0  0  0  0  0  0  0  0  0  0  0
   26.1253  -20.1625  -12.1066 C   0  0  0  0  0  0  0  0  0  0  0  0
   26.7057  -19.3694  -13.2470 C   0  0  2  0  0  0  0  0  0  0  0  0
   27.8561  -18.6144  -12.9590 N   0  0  0  0  0  0  0  0  0  0  0  0
   25.6605  -18.5964  -13.9578 C   0  0  0  0  0  0  0  0  0  0  0  0
   24.5493  -18.3805  -13.3266 O   0  0  0  0  0  0  0  0  0  0  0  0
   30.4780  -21.7608  -12.5808 O   0  0  0  0  0  0  0  0  0  0  0  0
   23.9760  -15.9103  -17.6251 C   0  0  0  0  0  0  0  0  0  0  0  0
   25.0580  -16.5716  -17.0570 C   0  0  2  0  0  0  0  0  0  0  0  0
   24.6168  -17.3970  -15.8752 N   0  0  0  0  0  0  0  0  0  0  0  0
   25.7677  -18.0765  -15.2591 C   0  0  0  0  0  0  0  0  0  0  0  0
   23.6910  -18.4508  -16.3643 O   0  0  0  0  0  0  0  0  0  0  0  0
   24.0597  -19.6137  -16.6533 N   0  0  0  0  0  0  0  0  0  0  0  0
   19.4168  -22.9855  -11.9358 C   0  0  0  0  0  0  0  0  0  0  0  0
   18.3333  -22.5116  -12.7116 N   0  0  0  0  0  0  0  0  0  0  0  0
   17.1098  -22.7851  -12.4534 N   0  0  0  0  0  0  0  0  0  0  0  0
   18.6028  -21.6828  -13.8489 C   0  0  0  0  0  0  0  0  0  0  0  0
   19.9725  -21.4317  -14.2271 C   0  0  0  0  0  0  0  0  0  0  0  0
   19.9625  -20.4743  -15.4203 C   0  0  0  0  0  0  0  0  0  0  0  0
   21.3738  -20.1665  -15.8206 C   0  0  1  0  0  0  0  0  0  0  0  0
   21.4141  -19.1936  -16.9776 N   0  0  0  0  0  0  0  0  0  0  0  0
   22.3239  -18.1268  -16.5112 C   0  0  0  0  0  0  0  0  0  0  0  0
   20.0748  -18.6653  -17.2270 O   0  0  0  0  0  0  0  0  0  0  0  0
   19.0704  -19.2390  -17.9578 O   0  0  0  0  0  0  0  0  0  0  0  0
  1  2  1  0
  2  3  2  0
  4  2  1  0
  5  4  1  0
  6  5  1  0
  7  6  1  0
  8  9  1  1
  8  7  1  0
 10  8  1  0
 11 10  2  0
 14 13  1  1
 13 12  1  0
 14 15  1  0
 15 10  1  0
 16 17  2  0
 16 14  1  0
 18 19  1  0
 19 21  1  0
 20 19  2  0
 21 22  1  0
 22 23  1  0
 23 24  1  0
 25 24  1  6
 25 26  1  0
 26 16  1  0
 27 28  1  0
 27 25  1  0
 29 27  2  0
M  END
$$$$
