RSR.pdb
     RDKit          3D

 29 28  0  0  1  0  0  0  0  0999 V2000
   21.0412  -29.0866  -10.5156 N   0  0  0  0  0  0  0  0  0  0  0  0
   19.6508  -28.8382  -10.6055 C   0  0  0  0  0  0  0  0  0  0  0  0
   19.0158  -28.9427  -11.7111 N   0  0  0  0  0  0  0  0  0  0  0  0
   18.9145  -28.4554   -9.4355 N   0  0  0  0  0  0  0  0  0  0  0  0
   19.5362  -28.4334   -8.1350 C   0  0  0  0  0  0  0  0  0  0  0  0
   18.6150  -28.0590   -7.0352 C   0  0  0  0  0  0  0  0  0  0  0  0
   17.7087  -26.9366   -7.3402 C   0  0  0  0  0  0  0  0  0  0  0  0
   18.3060  -25.5740   -7.1105 C   0  0  2  0  0  0  0  0  0  0  0  0
   18.4033  -25.1538   -5.7725 N   0  0  0  0  0  0  0  0  0  0  0  0
   17.6980  -24.5578   -8.0008 C   0  0  0  0  0  0  0  0  0  0  0  0
   16.8405  -23.7421   -7.4723 O   0  0  0  0  0  0  0  0  0  0  0  0
   18.0225  -28.7513  -11.8545 O   0  0  0  0  0  0  0  0  0  0  0  0
   19.3604  -22.6131  -11.1363 C   0  0  0  0  0  0  0  0  0  0  0  0
   18.2831  -22.1859  -10.3696 C   0  0  1  0  0  0  0  0  0  0  0  0
   17.3187  -23.3192  -10.1284 N   0  0  0  0  0  0  0  0  0  0  0  0
   17.9689  -24.4006   -9.3709 C   0  0  0  0  0  0  0  0  0  0  0  0
   16.9212  -23.8792  -11.4456 O   0  0  0  0  0  0  0  0  0  0  0  0
   17.2859  -25.0067  -11.8549 N   0  0  0  0  0  0  0  0  0  0  0  0
   13.0525  -29.7021  -13.6626 C   0  0  0  0  0  0  0  0  0  0  0  0
   14.3213  -29.6745  -14.2868 N   0  0  0  0  0  0  0  0  0  0  0  0
   14.8526  -30.6953  -14.8474 N   0  0  0  0  0  0  0  0  0  0  0  0
   15.0631  -28.4487  -14.2997 C   0  0  0  0  0  0  0  0  0  0  0  0
   14.5132  -27.2872  -13.6433 C   0  0  0  0  0  0  0  0  0  0  0  0
   15.4624  -26.1135  -13.8920 C   0  0  0  0  0  0  0  0  0  0  0  0
   14.8949  -24.8758  -13.2653 C   0  0  2  0  0  0  0  0  0  0  0  0
   15.7302  -23.6607  -13.6011 N   0  0  0  0  0  0  0  0  0  0  0  0
   16.0884  -23.1018  -12.2809 C   0  0  0  0  0  0  0  0  0  0  0  0
   14.9326  -22.7093  -14.3717 O   0  0  0  0  0  0  0  0  0  0  0  0
   15.0274  -22.4238  -15.7063 O   0  0  0  0  0  0  0  0  0  0  0  0
  1  2  1  0
  2  3  2  0
  4  2  1  0
  5  4  1  0
  6  5  1  0
  7  6  1  0
  8  9  1  1
  8  7  1  0
 10  8  1  0
 11 10  2  0
 14 13  1  1
 13 12  1  0
 14 15  1  0
 15 10  1  0
 16 17  2  0
 16 14  1  0
 18 19  1  0
 19 21  1  0
 20 19  2  0
 21 22  1  0
 22 23  1  0
 23 24  1  0
 25 24  1  1
 25 26  1  0
 26 16  1  0
 27 28  1  0
 27 25  1  0
 29 27  2  0
M  END
$$$$
