RSR.pdb
     RDKit          3D

 29 28  0  0  1  0  0  0  0  0999 V2000
   19.6300  -32.0053  -10.2742 N   0  0  0  0  0  0  0  0  0  0  0  0
   19.1246  -31.9786  -11.5958 C   0  0  0  0  0  0  0  0  0  0  0  0
   19.0370  -33.0381  -12.3074 N   0  0  0  0  0  0  0  0  0  0  0  0
   18.6945  -30.7379  -12.1733 N   0  0  0  0  0  0  0  0  0  0  0  0
   18.8010  -29.4980  -11.4455 C   0  0  0  0  0  0  0  0  0  0  0  0
   20.1596  -28.9046  -11.4657 C   0  0  0  0  0  0  0  0  0  0  0  0
   20.2851  -27.6180  -10.7567 C   0  0  0  0  0  0  0  0  0  0  0  0
   19.3368  -26.5499  -11.2324 C   0  0  2  0  0  0  0  0  0  0  0  0
   19.6246  -25.9725  -12.4815 N   0  0  0  0  0  0  0  0  0  0  0  0
   19.0698  -25.5499  -10.1724 C   0  0  0  0  0  0  0  0  0  0  0  0
   19.8101  -24.4861  -10.1597 O   0  0  0  0  0  0  0  0  0  0  0  0
   18.7033  -33.0890  -13.2717 O   0  0  0  0  0  0  0  0  0  0  0  0
   15.6190  -24.4290   -8.8353 C   0  0  0  0  0  0  0  0  0  0  0  0
   16.7611  -23.6769   -8.5891 C   0  0  1  0  0  0  0  0  0  0  0  0
   17.9117  -24.5688   -8.1974 N   0  0  0  0  0  0  0  0  0  0  0  0
   18.0832  -25.6537   -9.1770 C   0  0  0  0  0  0  0  0  0  0  0  0
   17.5872  -25.1992   -6.8919 O   0  0  0  0  0  0  0  0  0  0  0  0
   16.6925  -26.0652   -6.7467 N   0  0  0  0  0  0  0  0  0  0  0  0
   11.9919  -22.9893   -2.2363 C   0  0  0  0  0  0  0  0  0  0  0  0
   12.5809  -23.9312   -1.3608 N   0  0  0  0  0  0  0  0  0  0  0  0
   11.9881  -24.3980   -0.3269 N   0  0  0  0  0  0  0  0  0  0  0  0
   13.9092  -24.3954   -1.6310 C   0  0  0  0  0  0  0  0  0  0  0  0
   14.5553  -24.0016   -2.8598 C   0  0  0  0  0  0  0  0  0  0  0  0
   15.8959  -24.7342   -2.9414 C   0  0  0  0  0  0  0  0  0  0  0  0
   16.5408  -24.4416   -4.2624 C   0  0  2  0  0  0  0  0  0  0  0  0
   17.8224  -25.2265   -4.4309 N   0  0  0  0  0  0  0  0  0  0  0  0
   18.3253  -24.8030   -5.7543 C   0  0  0  0  0  0  0  0  0  0  0  0
   17.5315  -26.6584   -4.4168 O   0  0  0  0  0  0  0  0  0  0  0  0
   18.0677  -27.6143   -3.5980 O   0  0  0  0  0  0  0  0  0  0  0  0
  1  2  1  0
  2  3  2  0
  4  2  1  0
  5  4  1  0
  6  5  1  0
  7  6  1  0
  8  9  1  6
  8  7  1  0
 10  8  1  0
 11 10  2  0
 14 13  1  6
 13 12  1  0
 14 15  1  0
 15 10  1  0
 16 17  2  0
 16 14  1  0
 18 19  1  0
 19 21  1  0
 20 19  2  0
 21 22  1  0
 22 23  1  0
 23 24  1  0
 25 24  1  1
 25 26  1  0
 26 16  1  0
 27 28  1  0
 27 25  1  0
 29 27  2  0
M  END
$$$$
