RSR.pdb
     RDKit          3D

 29 28  0  0  1  0  0  0  0  0999 V2000
   35.1423  -33.0637  -14.5906 N   0  0  0  0  0  0  0  0  0  0  0  0
   36.0874  -33.1510  -15.6404 C   0  0  0  0  0  0  0  0  0  0  0  0
   36.1003  -34.1349  -16.4580 N   0  0  0  0  0  0  0  0  0  0  0  0
   37.0684  -32.1181  -15.8088 N   0  0  0  0  0  0  0  0  0  0  0  0
   37.0224  -30.9088  -15.0253 C   0  0  0  0  0  0  0  0  0  0  0  0
   36.3519  -29.7761  -15.7079 C   0  0  0  0  0  0  0  0  0  0  0  0
   36.2019  -28.5593  -14.8888 C   0  0  0  0  0  0  0  0  0  0  0  0
   35.4011  -27.4643  -15.5414 C   0  0  2  0  0  0  0  0  0  0  0  0
   35.1095  -26.3448  -14.7426 N   0  0  0  0  0  0  0  0  0  0  0  0
   34.2159  -28.0052  -16.2468 C   0  0  0  0  0  0  0  0  0  0  0  0
   33.1899  -28.3269  -15.5232 O   0  0  0  0  0  0  0  0  0  0  0  0
   36.6937  -34.2217  -17.2851 O   0  0  0  0  0  0  0  0  0  0  0  0
   33.9004  -28.9950  -20.3181 C   0  0  0  0  0  0  0  0  0  0  0  0
   32.8027  -28.4112  -19.6976 C   0  0  1  0  0  0  0  0  0  0  0  0
   32.8341  -28.6642  -18.2118 N   0  0  0  0  0  0  0  0  0  0  0  0
   34.1063  -28.2016  -17.6341 C   0  0  0  0  0  0  0  0  0  0  0  0
   32.7544  -30.1307  -17.9884 O   0  0  0  0  0  0  0  0  0  0  0  0
   33.7416  -30.8978  -18.0814 N   0  0  0  0  0  0  0  0  0  0  0  0
   25.9607  -33.5227  -14.5409 C   0  0  0  0  0  0  0  0  0  0  0  0
   26.3896  -32.6675  -15.5825 N   0  0  0  0  0  0  0  0  0  0  0  0
   25.6249  -31.8142  -16.1528 N   0  0  0  0  0  0  0  0  0  0  0  0
   27.7468  -32.7494  -16.0346 C   0  0  0  0  0  0  0  0  0  0  0  0
   28.4813  -33.9755  -15.8358 C   0  0  0  0  0  0  0  0  0  0  0  0
   29.8531  -33.8134  -16.4934 C   0  0  0  0  0  0  0  0  0  0  0  0
   30.0643  -32.3730  -16.8505 C   0  0  2  0  0  0  0  0  0  0  0  0
   31.4409  -32.1510  -17.4358 N   0  0  0  0  0  0  0  0  0  0  0  0
   31.5015  -30.6907  -17.6533 C   0  0  0  0  0  0  0  0  0  0  0  0
   31.5634  -32.8727  -18.7004 O   0  0  0  0  0  0  0  0  0  0  0  0
   31.0101  -32.5463  -19.9083 O   0  0  0  0  0  0  0  0  0  0  0  0
  1  2  1  0
  2  3  2  0
  4  2  1  0
  5  4  1  0
  6  5  1  0
  7  6  1  0
  8  9  1  1
  8  7  1  0
 10  8  1  0
 11 10  2  0
 14 13  1  1
 13 12  1  0
 14 15  1  0
 15 10  1  0
 16 17  2  0
 16 14  1  0
 18 19  1  0
 19 21  1  0
 20 19  2  0
 21 22  1  0
 22 23  1  0
 23 24  1  0
 25 24  1  1
 25 26  1  0
 26 16  1  0
 27 28  1  0
 27 25  1  0
 29 27  2  0
M  END
$$$$
