RSR.pdb
     RDKit          3D

 29 28  0  0  1  0  0  0  0  0999 V2000
   28.6243  -19.4627  -18.9913 N   0  0  0  0  0  0  0  0  0  0  0  0
   28.9775  -18.1079  -18.7848 C   0  0  0  0  0  0  0  0  0  0  0  0
   30.0131  -17.5891  -19.3280 N   0  0  0  0  0  0  0  0  0  0  0  0
   28.1653  -17.2761  -17.9445 N   0  0  0  0  0  0  0  0  0  0  0  0
   27.2142  -17.8463  -17.0233 C   0  0  0  0  0  0  0  0  0  0  0  0
   27.7241  -19.0294  -16.2894 C   0  0  0  0  0  0  0  0  0  0  0  0
   26.8069  -19.5688  -15.2687 C   0  0  0  0  0  0  0  0  0  0  0  0
   27.3356  -20.7680  -14.5280 C   0  0  2  0  0  0  0  0  0  0  0  0
   27.8872  -21.7936  -15.3157 N   0  0  0  0  0  0  0  0  0  0  0  0
   26.3619  -21.2591  -13.5251 C   0  0  0  0  0  0  0  0  0  0  0  0
   25.4716  -22.1101  -13.9290 O   0  0  0  0  0  0  0  0  0  0  0  0
   30.3366  -16.6273  -19.2089 O   0  0  0  0  0  0  0  0  0  0  0  0
   25.7447  -19.4419   -9.9066 C   0  0  0  0  0  0  0  0  0  0  0  0
   25.3432  -20.7720   -9.9272 C   0  0  1  0  0  0  0  0  0  0  0  0
   25.1576  -21.2502  -11.3448 N   0  0  0  0  0  0  0  0  0  0  0  0
   26.3178  -20.8821  -12.1720 C   0  0  0  0  0  0  0  0  0  0  0  0
   23.9714  -20.5617  -11.9156 O   0  0  0  0  0  0  0  0  0  0  0  0
   24.0485  -19.5519  -12.6546 N   0  0  0  0  0  0  0  0  0  0  0  0
   20.7118  -20.2398  -18.6720 C   0  0  0  0  0  0  0  0  0  0  0  0
   21.1122  -19.0806  -17.9677 N   0  0  0  0  0  0  0  0  0  0  0  0
   21.5276  -18.0153  -18.5431 N   0  0  0  0  0  0  0  0  0  0  0  0
   21.0571  -19.0835  -16.5359 C   0  0  0  0  0  0  0  0  0  0  0  0
   20.5583  -20.2533  -15.8539 C   0  0  0  0  0  0  0  0  0  0  0  0
   20.4685  -19.9251  -14.3624 C   0  0  0  0  0  0  0  0  0  0  0  0
   21.6225  -20.5582  -13.6453 C   0  0  1  0  0  0  0  0  0  0  0  0
   21.5196  -20.3479  -12.1512 N   0  0  0  0  0  0  0  0  0  0  0  0
   22.6895  -21.0710  -11.6109 C   0  0  0  0  0  0  0  0  0  0  0  0
   20.2732  -20.9265  -11.6545 O   0  0  0  0  0  0  0  0  0  0  0  0
   19.0235  -20.3701  -11.6775 O   0  0  0  0  0  0  0  0  0  0  0  0
  1  2  1  0
  2  3  2  0
  4  2  1  0
  5  4  1  0
  6  5  1  0
  7  6  1  0
  8  9  1  6
  8  7  1  0
 10  8  1  0
 11 10  2  0
 14 13  1  1
 13 12  1  0
 14 15  1  0
 15 10  1  0
 16 17  2  0
 16 14  1  0
 18 19  1  0
 19 21  1  0
 20 19  2  0
 21 22  1  0
 22 23  1  0
 23 24  1  0
 25 24  1  6
 25 26  1  0
 26 16  1  0
 27 28  1  0
 27 25  1  0
 29 27  2  0
M  END
$$$$
