RSR.pdb
     RDKit          3D

 29 28  0  0  1  0  0  0  0  0999 V2000
    8.3024  -19.4153   -3.3285 N   0  0  0  0  0  0  0  0  0  0  0  0
    9.5624  -18.8263   -3.5900 C   0  0  0  0  0  0  0  0  0  0  0  0
   10.0467  -18.7636   -4.7725 N   0  0  0  0  0  0  0  0  0  0  0  0
   10.3350  -18.2796   -2.5122 N   0  0  0  0  0  0  0  0  0  0  0  0
    9.8274  -18.2611   -1.1630 C   0  0  0  0  0  0  0  0  0  0  0  0
   10.7255  -17.5899   -0.1927 C   0  0  0  0  0  0  0  0  0  0  0  0
   10.2568  -17.6134    1.2051 C   0  0  0  0  0  0  0  0  0  0  0  0
   11.1183  -16.8356    2.1638 C   0  0  2  0  0  0  0  0  0  0  0  0
   11.3599  -15.4905    1.8340 N   0  0  0  0  0  0  0  0  0  0  0  0
   12.3485  -17.5823    2.5162 C   0  0  0  0  0  0  0  0  0  0  0  0
   13.4549  -17.2001    1.9599 O   0  0  0  0  0  0  0  0  0  0  0  0
   10.9495  -18.3618   -5.0320 O   0  0  0  0  0  0  0  0  0  0  0  0
   13.0581  -18.2052    5.7975 C   0  0  0  0  0  0  0  0  0  0  0  0
   14.1086  -18.8612    5.1675 C   0  0  1  0  0  0  0  0  0  0  0  0
   13.7306  -19.2410    3.7584 N   0  0  0  0  0  0  0  0  0  0  0  0
   12.4213  -18.6713    3.4017 C   0  0  0  0  0  0  0  0  0  0  0  0
   13.6016  -20.7196    3.6945 O   0  0  0  0  0  0  0  0  0  0  0  0
   12.5537  -21.3350    4.0024 N   0  0  0  0  0  0  0  0  0  0  0  0
   15.1554  -26.3300   -2.4003 C   0  0  0  0  0  0  0  0  0  0  0  0
   14.6163  -27.1129   -1.3531 N   0  0  0  0  0  0  0  0  0  0  0  0
   14.2390  -28.3268   -1.5039 N   0  0  0  0  0  0  0  0  0  0  0  0
   14.4777  -26.5314   -0.0509 C   0  0  0  0  0  0  0  0  0  0  0  0
   14.8031  -25.1378    0.1350 C   0  0  0  0  0  0  0  0  0  0  0  0
   14.5929  -24.7993    1.6120 C   0  0  0  0  0  0  0  0  0  0  0  0
   14.7506  -23.3218    1.8090 C   0  0  2  0  0  0  0  0  0  0  0  0
   14.5908  -22.9442    3.2647 N   0  0  0  0  0  0  0  0  0  0  0  0
   14.7170  -21.4719    3.2641 C   0  0  0  0  0  0  0  0  0  0  0  0
   15.6548  -23.5590    4.0552 O   0  0  0  0  0  0  0  0  0  0  0  0
   15.7569  -24.8646    4.4512 O   0  0  0  0  0  0  0  0  0  0  0  0
  1  2  1  0
  2  3  2  0
  4  2  1  0
  5  4  1  0
  6  5  1  0
  7  6  1  0
  8  9  1  6
  8  7  1  0
 10  8  1  0
 11 10  2  0
 14 13  1  6
 13 12  1  0
 14 15  1  0
 15 10  1  0
 16 17  2  0
 16 14  1  0
 18 19  1  0
 19 21  1  0
 20 19  2  0
 21 22  1  0
 22 23  1  0
 23 24  1  0
 25 24  1  6
 25 26  1  0
 26 16  1  0
 27 28  1  0
 27 25  1  0
 29 27  2  0
M  END
$$$$
