RSR.pdb
     RDKit          3D

 29 28  0  0  1  0  0  0  0  0999 V2000
   30.4520  -28.1961  -20.2211 N   0  0  0  0  0  0  0  0  0  0  0  0
   31.0862  -28.4440  -18.9805 C   0  0  0  0  0  0  0  0  0  0  0  0
   32.2205  -29.0309  -18.9068 N   0  0  0  0  0  0  0  0  0  0  0  0
   30.4550  -28.0348  -17.7591 N   0  0  0  0  0  0  0  0  0  0  0  0
   29.1529  -27.4161  -17.7613 C   0  0  0  0  0  0  0  0  0  0  0  0
   29.1337  -26.0596  -18.3597 C   0  0  0  0  0  0  0  0  0  0  0  0
   28.3740  -25.0545  -17.5937 C   0  0  0  0  0  0  0  0  0  0  0  0
   29.2153  -24.1961  -16.6873 C   0  0  2  0  0  0  0  0  0  0  0  0
   29.9951  -24.8740  -15.7340 N   0  0  0  0  0  0  0  0  0  0  0  0
   28.4288  -23.0793  -16.1135 C   0  0  0  0  0  0  0  0  0  0  0  0
   27.6212  -23.3608  -15.1396 O   0  0  0  0  0  0  0  0  0  0  0  0
   32.7363  -29.2370  -18.0493 O   0  0  0  0  0  0  0  0  0  0  0  0
   28.2069  -19.2384  -17.6229 C   0  0  0  0  0  0  0  0  0  0  0  0
   28.1276  -19.3331  -16.2388 C   0  0  1  0  0  0  0  0  0  0  0  0
   27.6958  -20.7165  -15.8237 N   0  0  0  0  0  0  0  0  0  0  0  0
   28.4805  -21.7392  -16.5337 C   0  0  0  0  0  0  0  0  0  0  0  0
   26.2748  -20.8973  -16.2174 O   0  0  0  0  0  0  0  0  0  0  0  0
   25.9147  -21.5629  -17.2168 N   0  0  0  0  0  0  0  0  0  0  0  0
   19.2581  -21.9216  -11.2897 C   0  0  0  0  0  0  0  0  0  0  0  0
   18.8523  -22.2577  -12.6022 N   0  0  0  0  0  0  0  0  0  0  0  0
   17.7340  -22.8191  -12.8714 N   0  0  0  0  0  0  0  0  0  0  0  0
   19.7276  -21.9621  -13.6975 C   0  0  0  0  0  0  0  0  0  0  0  0
   21.0560  -21.4700  -13.4228 C   0  0  0  0  0  0  0  0  0  0  0  0
   21.7232  -21.1464  -14.7609 C   0  0  0  0  0  0  0  0  0  0  0  0
   23.1612  -20.7952  -14.5256 C   0  0  2  0  0  0  0  0  0  0  0  0
   23.8685  -20.4862  -15.8261 N   0  0  0  0  0  0  0  0  0  0  0  0
   25.2767  -20.2883  -15.4245 C   0  0  0  0  0  0  0  0  0  0  0  0
   23.3165  -19.2668  -16.4121 O   0  0  0  0  0  0  0  0  0  0  0  0
   22.4028  -19.1632  -17.4251 O   0  0  0  0  0  0  0  0  0  0  0  0
  1  2  1  0
  2  3  2  0
  4  2  1  0
  5  4  1  0
  6  5  1  0
  7  6  1  0
  8  9  1  1
  8  7  1  0
 10  8  1  0
 11 10  2  0
 14 13  1  1
 13 12  1  0
 14 15  1  0
 15 10  1  0
 16 17  2  0
 16 14  1  0
 18 19  1  0
 19 21  1  0
 20 19  2  0
 21 22  1  0
 22 23  1  0
 23 24  1  0
 25 24  1  6
 25 26  1  0
 26 16  1  0
 27 28  1  0
 27 25  1  0
 29 27  2  0
M  END
$$$$
