RSR.pdb
     RDKit          3D

 29 28  0  0  1  0  0  0  0  0999 V2000
   35.5697  -24.9732  -13.1520 N   0  0  0  0  0  0  0  0  0  0  0  0
   35.8430  -25.9951  -14.0922 C   0  0  0  0  0  0  0  0  0  0  0  0
   36.8711  -26.7496  -13.9905 N   0  0  0  0  0  0  0  0  0  0  0  0
   34.9552  -26.2060  -15.1990 N   0  0  0  0  0  0  0  0  0  0  0  0
   34.6458  -25.1428  -16.1222 C   0  0  0  0  0  0  0  0  0  0  0  0
   33.5551  -24.2487  -15.6647 C   0  0  0  0  0  0  0  0  0  0  0  0
   32.2067  -24.6306  -16.1228 C   0  0  0  0  0  0  0  0  0  0  0  0
   31.9287  -24.3181  -17.5689 C   0  0  2  0  0  0  0  0  0  0  0  0
   32.5369  -23.1601  -18.0843 N   0  0  0  0  0  0  0  0  0  0  0  0
   30.4816  -24.4050  -17.8745 C   0  0  0  0  0  0  0  0  0  0  0  0
   29.7792  -23.3247  -17.7346 O   0  0  0  0  0  0  0  0  0  0  0  0
   37.1491  -27.4792  -14.6496 O   0  0  0  0  0  0  0  0  0  0  0  0
   26.6262  -26.6490  -19.7908 C   0  0  0  0  0  0  0  0  0  0  0  0
   27.9870  -26.6751  -19.5110 C   0  0  1  0  0  0  0  0  0  0  0  0
   28.3855  -25.4728  -18.6934 N   0  0  0  0  0  0  0  0  0  0  0  0
   29.8018  -25.5582  -18.3026 C   0  0  0  0  0  0  0  0  0  0  0  0
   27.5814  -25.4733  -17.4442 O   0  0  0  0  0  0  0  0  0  0  0  0
   27.8709  -26.1616  -16.4371 N   0  0  0  0  0  0  0  0  0  0  0  0
   20.8009  -24.9751  -15.1416 C   0  0  0  0  0  0  0  0  0  0  0  0
   20.6382  -23.8525  -14.2968 N   0  0  0  0  0  0  0  0  0  0  0  0
   19.7721  -23.7992  -13.3558 N   0  0  0  0  0  0  0  0  0  0  0  0
   21.4775  -22.7079  -14.4925 C   0  0  0  0  0  0  0  0  0  0  0  0
   22.4062  -22.6975  -15.5969 C   0  0  0  0  0  0  0  0  0  0  0  0
   23.5009  -23.7241  -15.2998 C   0  0  0  0  0  0  0  0  0  0  0  0
   24.4887  -23.7354  -16.4272 C   0  0  1  0  0  0  0  0  0  0  0  0
   25.6231  -24.6964  -16.1504 N   0  0  0  0  0  0  0  0  0  0  0  0
   26.4309  -24.6557  -17.3871 C   0  0  0  0  0  0  0  0  0  0  0  0
   25.0906  -26.0372  -15.9187 O   0  0  0  0  0  0  0  0  0  0  0  0
   24.7500  -26.9766  -16.8533 O   0  0  0  0  0  0  0  0  0  0  0  0
  1  2  1  0
  2  3  2  0
  4  2  1  0
  5  4  1  0
  6  5  1  0
  7  6  1  0
  8  9  1  1
  8  7  1  0
 10  8  1  0
 11 10  2  0
 14 13  1  6
 13 12  1  0
 14 15  1  0
 15 10  1  0
 16 17  2  0
 16 14  1  0
 18 19  1  0
 19 21  1  0
 20 19  2  0
 21 22  1  0
 22 23  1  0
 23 24  1  0
 25 24  1  1
 25 26  1  0
 26 16  1  0
 27 28  1  0
 27 25  1  0
 29 27  2  0
M  END
$$$$
