RSR.pdb
     RDKit          3D

 29 28  0  0  1  0  0  0  0  0999 V2000
   18.9148  -21.4608  -11.8255 N   0  0  0  0  0  0  0  0  0  0  0  0
   19.1063  -22.5926  -10.9977 C   0  0  0  0  0  0  0  0  0  0  0  0
   18.2899  -23.5777  -11.0004 N   0  0  0  0  0  0  0  0  0  0  0  0
   20.2408  -22.6561  -10.1223 N   0  0  0  0  0  0  0  0  0  0  0  0
   21.3220  -21.7086  -10.2301 C   0  0  0  0  0  0  0  0  0  0  0  0
   22.1395  -21.8672  -11.4569 C   0  0  0  0  0  0  0  0  0  0  0  0
   23.1778  -20.8379  -11.6477 C   0  0  0  0  0  0  0  0  0  0  0  0
   24.5038  -21.1664  -11.0152 C   0  0  2  0  0  0  0  0  0  0  0  0
   24.5354  -21.1889   -9.6099 N   0  0  0  0  0  0  0  0  0  0  0  0
   25.6021  -20.3719  -11.6132 C   0  0  0  0  0  0  0  0  0  0  0  0
   26.1356  -19.4482  -10.8769 O   0  0  0  0  0  0  0  0  0  0  0  0
   18.3773  -24.4325  -10.4477 O   0  0  0  0  0  0  0  0  0  0  0  0
   27.7630  -21.2026  -15.0139 C   0  0  0  0  0  0  0  0  0  0  0  0
   28.2204  -20.2325  -14.1303 C   0  0  1  0  0  0  0  0  0  0  0  0
   27.0643  -19.5431  -13.4515 N   0  0  0  0  0  0  0  0  0  0  0  0
   26.1166  -20.5311  -12.9113 C   0  0  0  0  0  0  0  0  0  0  0  0
   26.3366  -18.7439  -14.4708 O   0  0  0  0  0  0  0  0  0  0  0  0
   25.3746  -19.1896  -15.1397 N   0  0  0  0  0  0  0  0  0  0  0  0
   23.5607  -10.6636  -14.6183 C   0  0  0  0  0  0  0  0  0  0  0  0
   23.4409  -11.0437  -15.9752 N   0  0  0  0  0  0  0  0  0  0  0  0
   22.8123  -10.3497  -16.8480 N   0  0  0  0  0  0  0  0  0  0  0  0
   24.0478  -12.2664  -16.4108 C   0  0  0  0  0  0  0  0  0  0  0  0
   24.6920  -13.1167  -15.4390 C   0  0  0  0  0  0  0  0  0  0  0  0
   25.1072  -14.4081  -16.1464 C   0  0  0  0  0  0  0  0  0  0  0  0
   25.7668  -15.3236  -15.1598 C   0  0  1  0  0  0  0  0  0  0  0  0
   26.0811  -16.6648  -15.7839 N   0  0  0  0  0  0  0  0  0  0  0  0
   26.7493  -17.4122  -14.6983 C   0  0  0  0  0  0  0  0  0  0  0  0
   26.9792  -16.4829  -16.9220 O   0  0  0  0  0  0  0  0  0  0  0  0
   26.6468  -16.1519  -18.2071 O   0  0  0  0  0  0  0  0  0  0  0  0
  1  2  1  0
  2  3  2  0
  4  2  1  0
  5  4  1  0
  6  5  1  0
  7  6  1  0
  8  9  1  1
  8  7  1  0
 10  8  1  0
 11 10  2  0
 14 13  1  1
 13 12  1  0
 14 15  1  0
 15 10  1  0
 16 17  2  0
 16 14  1  0
 18 19  1  0
 19 21  1  0
 20 19  2  0
 21 22  1  0
 22 23  1  0
 23 24  1  0
 25 24  1  1
 25 26  1  0
 26 16  1  0
 27 28  1  0
 27 25  1  0
 29 27  2  0
M  END
$$$$
