RSR.pdb
     RDKit          3D

 29 28  0  0  1  0  0  0  0  0999 V2000
   21.5936   -7.9910  -19.0396 N   0  0  0  0  0  0  0  0  0  0  0  0
   20.6090   -7.0412  -19.4019 C   0  0  0  0  0  0  0  0  0  0  0  0
   20.5180   -6.5830  -20.5929 N   0  0  0  0  0  0  0  0  0  0  0  0
   19.6780   -6.5646  -18.4203 N   0  0  0  0  0  0  0  0  0  0  0  0
   19.5209   -7.2328  -17.1526 C   0  0  0  0  0  0  0  0  0  0  0  0
   18.5167   -8.3235  -17.1691 C   0  0  0  0  0  0  0  0  0  0  0  0
   18.2724   -8.9615  -15.8624 C   0  0  0  0  0  0  0  0  0  0  0  0
   19.5014   -9.5375  -15.2114 C   0  0  2  0  0  0  0  0  0  0  0  0
   19.7715  -10.8912  -15.4779 N   0  0  0  0  0  0  0  0  0  0  0  0
   19.5600   -9.2015  -13.7696 C   0  0  0  0  0  0  0  0  0  0  0  0
   19.0000  -10.0289  -12.9439 O   0  0  0  0  0  0  0  0  0  0  0  0
   19.8424   -5.8902  -20.9207 O   0  0  0  0  0  0  0  0  0  0  0  0
   21.1203   -5.6866  -12.1038 C   0  0  0  0  0  0  0  0  0  0  0  0
   21.1252   -6.8365  -11.3237 C   0  0  1  0  0  0  0  0  0  0  0  0
   20.0496   -7.7911  -11.7758 N   0  0  0  0  0  0  0  0  0  0  0  0
   20.1695   -8.0619  -13.2174 C   0  0  0  0  0  0  0  0  0  0  0  0
   18.7310   -7.1431  -11.5558 O   0  0  0  0  0  0  0  0  0  0  0  0
   18.1421   -6.4625  -12.4285 N   0  0  0  0  0  0  0  0  0  0  0  0
   10.8921   -9.0933   -8.7658 C   0  0  0  0  0  0  0  0  0  0  0  0
   12.1326   -9.4746   -9.3279 N   0  0  0  0  0  0  0  0  0  0  0  0
   12.4322  -10.6849   -9.6174 N   0  0  0  0  0  0  0  0  0  0  0  0
   13.1155   -8.4660   -9.5917 C   0  0  0  0  0  0  0  0  0  0  0  0
   13.6576   -7.7074   -8.4902 C   0  0  0  0  0  0  0  0  0  0  0  0
   14.6546   -6.6972   -9.0611 C   0  0  0  0  0  0  0  0  0  0  0  0
   15.9123   -7.4108   -9.4555 C   0  0  1  0  0  0  0  0  0  0  0  0
   16.9411   -6.4452   -9.9997 N   0  0  0  0  0  0  0  0  0  0  0  0
   18.1074   -7.3021  -10.2983 C   0  0  0  0  0  0  0  0  0  0  0  0
   17.2718   -5.4493   -8.9829 O   0  0  0  0  0  0  0  0  0  0  0  0
   16.5877   -4.3044   -8.6777 O   0  0  0  0  0  0  0  0  0  0  0  0
  1  2  1  0
  2  3  2  0
  4  2  1  0
  5  4  1  0
  6  5  1  0
  7  6  1  0
  8  9  1  1
  8  7  1  0
 10  8  1  0
 11 10  2  0
 14 13  1  1
 13 12  1  0
 14 15  1  0
 15 10  1  0
 16 17  2  0
 16 14  1  0
 18 19  1  0
 19 21  1  0
 20 19  2  0
 21 22  1  0
 22 23  1  0
 23 24  1  0
 25 24  1  6
 25 26  1  0
 26 16  1  0
 27 28  1  0
 27 25  1  0
 29 27  2  0
M  END
$$$$
