RSR.pdb
     RDKit          3D

 29 28  0  0  1  0  0  0  0  0999 V2000
   31.6608  -24.8535  -15.8109 N   0  0  0  0  0  0  0  0  0  0  0  0
   31.2855  -25.0888  -17.1550 C   0  0  0  0  0  0  0  0  0  0  0  0
   31.2234  -26.2700  -17.6425 N   0  0  0  0  0  0  0  0  0  0  0  0
   30.9634  -23.9848  -18.0124 N   0  0  0  0  0  0  0  0  0  0  0  0
   30.6954  -22.6743  -17.4749 C   0  0  0  0  0  0  0  0  0  0  0  0
   29.7202  -21.8878  -18.2679 C   0  0  0  0  0  0  0  0  0  0  0  0
   28.3878  -21.7494  -17.6519 C   0  0  0  0  0  0  0  0  0  0  0  0
   28.4051  -21.6281  -16.1515 C   0  0  2  0  0  0  0  0  0  0  0  0
   28.3197  -22.8305  -15.4281 N   0  0  0  0  0  0  0  0  0  0  0  0
   27.4568  -20.5922  -15.6798 C   0  0  0  0  0  0  0  0  0  0  0  0
   26.4503  -20.9893  -14.9662 O   0  0  0  0  0  0  0  0  0  0  0  0
   31.0040  -26.5100  -18.6110 O   0  0  0  0  0  0  0  0  0  0  0  0
   27.4575  -16.6517  -16.8459 C   0  0  0  0  0  0  0  0  0  0  0  0
   27.0053  -16.8585  -15.5484 C   0  0  1  0  0  0  0  0  0  0  0  0
   26.5661  -18.2882  -15.3592 N   0  0  0  0  0  0  0  0  0  0  0  0
   27.5520  -19.2142  -15.9393 C   0  0  0  0  0  0  0  0  0  0  0  0
   25.2901  -18.4833  -16.0944 O   0  0  0  0  0  0  0  0  0  0  0  0
   25.2237  -18.9876  -17.2402 N   0  0  0  0  0  0  0  0  0  0  0  0
   19.4682  -21.8733  -12.1526 C   0  0  0  0  0  0  0  0  0  0  0  0
   19.7704  -22.1635  -13.5034 N   0  0  0  0  0  0  0  0  0  0  0  0
   19.2465  -23.1370  -14.1487 N   0  0  0  0  0  0  0  0  0  0  0  0
   20.7102  -21.3352  -14.1989 C   0  0  0  0  0  0  0  0  0  0  0  0
   21.3521  -20.2534  -13.4916 C   0  0  0  0  0  0  0  0  0  0  0  0
   22.4375  -19.6757  -14.4018 C   0  0  0  0  0  0  0  0  0  0  0  0
   21.8187  -18.6918  -15.3482 C   0  0  2  0  0  0  0  0  0  0  0  0
   22.8540  -18.1061  -16.2822 N   0  0  0  0  0  0  0  0  0  0  0  0
   24.0885  -18.0805  -15.4704 C   0  0  0  0  0  0  0  0  0  0  0  0
   22.4589  -16.7551  -16.6743 O   0  0  0  0  0  0  0  0  0  0  0  0
   22.6110  -15.5975  -15.9613 O   0  0  0  0  0  0  0  0  0  0  0  0
  1  2  1  0
  2  3  2  0
  4  2  1  0
  5  4  1  0
  6  5  1  0
  7  6  1  0
  8  9  1  1
  8  7  1  0
 10  8  1  0
 11 10  2  0
 14 13  1  1
 13 12  1  0
 14 15  1  0
 15 10  1  0
 16 17  2  0
 16 14  1  0
 18 19  1  0
 19 21  1  0
 20 19  2  0
 21 22  1  0
 22 23  1  0
 23 24  1  0
 25 24  1  6
 25 26  1  0
 26 16  1  0
 27 28  1  0
 27 25  1  0
 29 27  2  0
M  END
$$$$
