RSR.pdb
     RDKit          3D

 29 28  0  0  1  0  0  0  0  0999 V2000
   28.8236  -19.1738  -19.7778 N   0  0  0  0  0  0  0  0  0  0  0  0
   27.6267  -18.7183  -19.1756 C   0  0  0  0  0  0  0  0  0  0  0  0
   26.5636  -18.5115  -19.8567 N   0  0  0  0  0  0  0  0  0  0  0  0
   27.5837  -18.4738  -17.7627 N   0  0  0  0  0  0  0  0  0  0  0  0
   28.7293  -18.7273  -16.9251 C   0  0  0  0  0  0  0  0  0  0  0  0
   28.5114  -18.4021  -15.4950 C   0  0  0  0  0  0  0  0  0  0  0  0
   27.4497  -19.1847  -14.8359 C   0  0  0  0  0  0  0  0  0  0  0  0
   27.9114  -20.4941  -14.2541 C   0  0  2  0  0  0  0  0  0  0  0  0
   28.5740  -21.3678  -15.1339 N   0  0  0  0  0  0  0  0  0  0  0  0
   26.8359  -21.1514  -13.4755 C   0  0  0  0  0  0  0  0  0  0  0  0
   26.0458  -21.9551  -14.1156 O   0  0  0  0  0  0  0  0  0  0  0  0
   25.6859  -18.1291  -19.5001 O   0  0  0  0  0  0  0  0  0  0  0  0
   25.6767  -19.9636   -9.7386 C   0  0  0  0  0  0  0  0  0  0  0  0
   25.3670  -21.2917  -10.0054 C   0  0  1  0  0  0  0  0  0  0  0  0
   25.3877  -21.5554  -11.4896 N   0  0  0  0  0  0  0  0  0  0  0  0
   26.5956  -20.9790  -12.1016 C   0  0  0  0  0  0  0  0  0  0  0  0
   24.2158  -20.8752  -12.0986 O   0  0  0  0  0  0  0  0  0  0  0  0
   24.2776  -19.7465  -12.6406 N   0  0  0  0  0  0  0  0  0  0  0  0
   17.3941  -21.1917  -14.9758 C   0  0  0  0  0  0  0  0  0  0  0  0
   17.8040  -20.6708  -16.2252 N   0  0  0  0  0  0  0  0  0  0  0  0
   17.0466  -19.9619  -16.9750 N   0  0  0  0  0  0  0  0  0  0  0  0
   19.1317  -20.9429  -16.6899 C   0  0  0  0  0  0  0  0  0  0  0  0
   20.0166  -21.7322  -15.8674 C   0  0  0  0  0  0  0  0  0  0  0  0
   20.3088  -20.9366  -14.5939 C   0  0  0  0  0  0  0  0  0  0  0  0
   21.5369  -21.4888  -13.9354 C   0  0  1  0  0  0  0  0  0  0  0  0
   21.7976  -20.8113  -12.6088 N   0  0  0  0  0  0  0  0  0  0  0  0
   22.9666  -21.5340  -12.0662 C   0  0  0  0  0  0  0  0  0  0  0  0
   20.6360  -20.9679  -11.7363 O   0  0  0  0  0  0  0  0  0  0  0  0
   19.5310  -20.1648  -11.6600 O   0  0  0  0  0  0  0  0  0  0  0  0
  1  2  1  0
  2  3  2  0
  4  2  1  0
  5  4  1  0
  6  5  1  0
  7  6  1  0
  8  9  1  6
  8  7  1  0
 10  8  1  0
 11 10  2  0
 14 13  1  1
 13 12  1  0
 14 15  1  0
 15 10  1  0
 16 17  2  0
 16 14  1  0
 18 19  1  0
 19 21  1  0
 20 19  2  0
 21 22  1  0
 22 23  1  0
 23 24  1  0
 25 24  1  6
 25 26  1  0
 26 16  1  0
 27 28  1  0
 27 25  1  0
 29 27  2  0
M  END
$$$$
