RSR.pdb
     RDKit          3D

 29 28  0  0  1  0  0  0  0  0999 V2000
   31.7964  -22.8896  -11.2903 N   0  0  0  0  0  0  0  0  0  0  0  0
   31.2041  -21.8109  -10.5915 C   0  0  0  0  0  0  0  0  0  0  0  0
   31.9059  -20.8779  -10.0683 N   0  0  0  0  0  0  0  0  0  0  0  0
   29.7779  -21.7439  -10.4531 N   0  0  0  0  0  0  0  0  0  0  0  0
   28.9254  -21.5289  -11.5956 C   0  0  0  0  0  0  0  0  0  0  0  0
   28.9633  -20.1429  -12.1208 C   0  0  0  0  0  0  0  0  0  0  0  0
   28.0260  -19.8728  -13.2265 C   0  0  0  0  0  0  0  0  0  0  0  0
   27.9216  -20.9818  -14.2391 C   0  0  2  0  0  0  0  0  0  0  0  0
   28.7146  -20.8493  -15.3924 N   0  0  0  0  0  0  0  0  0  0  0  0
   26.5087  -21.3153  -14.5350 C   0  0  0  0  0  0  0  0  0  0  0  0
   25.8920  -20.5730  -15.4002 O   0  0  0  0  0  0  0  0  0  0  0  0
   31.5595  -20.1345   -9.4590 O   0  0  0  0  0  0  0  0  0  0  0  0
   24.2837  -24.3134  -12.7106 C   0  0  0  0  0  0  0  0  0  0  0  0
   23.9556  -24.0046  -14.0251 C   0  0  1  0  0  0  0  0  0  0  0  0
   24.3806  -22.5983  -14.3635 N   0  0  0  0  0  0  0  0  0  0  0  0
   25.7764  -22.3671  -13.9583 C   0  0  0  0  0  0  0  0  0  0  0  0
   23.5330  -21.6573  -13.5869 O   0  0  0  0  0  0  0  0  0  0  0  0
   23.9505  -21.0049  -12.6012 N   0  0  0  0  0  0  0  0  0  0  0  0
   19.3038  -18.7150  -17.0877 C   0  0  0  0  0  0  0  0  0  0  0  0
   18.6763  -17.5702  -16.5436 N   0  0  0  0  0  0  0  0  0  0  0  0
   17.5460  -17.1271  -16.9492 N   0  0  0  0  0  0  0  0  0  0  0  0
   19.3272  -16.8583  -15.4842 C   0  0  0  0  0  0  0  0  0  0  0  0
   20.5704  -17.3661  -14.9558 C   0  0  0  0  0  0  0  0  0  0  0  0
   20.2660  -18.6620  -14.2019 C   0  0  0  0  0  0  0  0  0  0  0  0
   21.5449  -19.2431  -13.6790 C   0  0  1  0  0  0  0  0  0  0  0  0
   21.3285  -20.6356  -13.1302 N   0  0  0  0  0  0  0  0  0  0  0  0
   22.1866  -21.4878  -13.9793 C   0  0  0  0  0  0  0  0  0  0  0  0
   19.9226  -21.0090  -13.2679 O   0  0  0  0  0  0  0  0  0  0  0  0
   18.8931  -20.7270  -12.4121 O   0  0  0  0  0  0  0  0  0  0  0  0
  1  2  1  0
  2  3  2  0
  4  2  1  0
  5  4  1  0
  6  5  1  0
  7  6  1  0
  8  9  1  6
  8  7  1  0
 10  8  1  0
 11 10  2  0
 14 13  1  6
 13 12  1  0
 14 15  1  0
 15 10  1  0
 16 17  2  0
 16 14  1  0
 18 19  1  0
 19 21  1  0
 20 19  2  0
 21 22  1  0
 22 23  1  0
 23 24  1  0
 25 24  1  1
 25 26  1  0
 26 16  1  0
 27 28  1  0
 27 25  1  0
 29 27  2  0
M  END
$$$$
