RSR.pdb
     RDKit          3D

 29 28  0  0  1  0  0  0  0  0999 V2000
   20.7865  -22.6783   -7.7560 N   0  0  0  0  0  0  0  0  0  0  0  0
   20.1885  -23.0324   -8.9888 C   0  0  0  0  0  0  0  0  0  0  0  0
   19.2019  -23.8444   -9.0527 N   0  0  0  0  0  0  0  0  0  0  0  0
   20.6889  -22.4775  -10.2133 N   0  0  0  0  0  0  0  0  0  0  0  0
   22.0392  -21.9824  -10.3127 C   0  0  0  0  0  0  0  0  0  0  0  0
   22.2060  -20.5914   -9.8272 C   0  0  0  0  0  0  0  0  0  0  0  0
   23.5536  -20.0248  -10.0197 C   0  0  0  0  0  0  0  0  0  0  0  0
   24.6110  -21.0379  -10.3684 C   0  0  2  0  0  0  0  0  0  0  0  0
   25.3130  -21.6026   -9.2892 N   0  0  0  0  0  0  0  0  0  0  0  0
   25.4962  -20.5479  -11.4507 C   0  0  0  0  0  0  0  0  0  0  0  0
   26.1956  -19.4837  -11.2097 O   0  0  0  0  0  0  0  0  0  0  0  0
   18.7402  -24.1636   -9.9064 O   0  0  0  0  0  0  0  0  0  0  0  0
   26.6632  -22.5829  -14.8578 C   0  0  0  0  0  0  0  0  0  0  0  0
   27.3939  -21.4955  -14.3946 C   0  0  1  0  0  0  0  0  0  0  0  0
   26.4878  -20.4874  -13.7349 N   0  0  0  0  0  0  0  0  0  0  0  0
   25.6438  -21.1361  -12.7186 C   0  0  0  0  0  0  0  0  0  0  0  0
   25.5817  -19.9290  -14.7713 O   0  0  0  0  0  0  0  0  0  0  0  0
   24.4190  -20.3525  -14.9724 N   0  0  0  0  0  0  0  0  0  0  0  0
   21.2879  -13.4468  -17.6007 C   0  0  0  0  0  0  0  0  0  0  0  0
   20.6837  -14.3542  -16.6997 N   0  0  0  0  0  0  0  0  0  0  0  0
   19.4609  -14.2709  -16.3306 N   0  0  0  0  0  0  0  0  0  0  0  0
   21.4678  -15.4265  -16.1627 C   0  0  0  0  0  0  0  0  0  0  0  0
   22.8551  -15.5420  -16.5430 C   0  0  0  0  0  0  0  0  0  0  0  0
   23.4134  -16.8143  -15.9026 C   0  0  0  0  0  0  0  0  0  0  0  0
   24.8579  -16.9632  -16.2742 C   0  0  2  0  0  0  0  0  0  0  0  0
   25.1782  -18.3891  -16.6629 N   0  0  0  0  0  0  0  0  0  0  0  0
   26.0537  -18.8651  -15.5718 C   0  0  0  0  0  0  0  0  0  0  0  0
   25.8828  -18.4068  -17.9429 O   0  0  0  0  0  0  0  0  0  0  0  0
   25.3394  -18.4284  -19.1983 O   0  0  0  0  0  0  0  0  0  0  0  0
  1  2  1  0
  2  3  2  0
  4  2  1  0
  5  4  1  0
  6  5  1  0
  7  6  1  0
  8  9  1  1
  8  7  1  0
 10  8  1  0
 11 10  2  0
 14 13  1  1
 13 12  1  0
 14 15  1  0
 15 10  1  0
 16 17  2  0
 16 14  1  0
 18 19  1  0
 19 21  1  0
 20 19  2  0
 21 22  1  0
 22 23  1  0
 23 24  1  0
 25 24  1  1
 25 26  1  0
 26 16  1  0
 27 28  1  0
 27 25  1  0
 29 27  2  0
M  END
$$$$
