WGC.pdb
     RDKit          3D

 25 26  0  0  1  0  0  0  0  0999 V2000
    9.8485  -15.7647   22.1122 N   0  0  0  0  0  0  0  0  0  0  0  0
    9.2905  -15.5815   23.4629 C   0  0  1  0  0  0  0  0  0  0  0  0
    7.8066  -15.5956   23.3476 C   0  0  0  0  0  0  0  0  0  0  0  0
    7.3104  -14.2037   23.1915 C   0  0  0  0  0  0  0  0  0  0  0  0
    7.0895  -13.5592   21.9720 C   0  0  0  0  0  0  0  0  0  0  0  0
    6.6465  -12.3212   22.1652 N   0  0  0  0  0  0  0  0  0  0  0  0
    6.5702  -12.1344   23.4951 C   0  0  0  0  0  0  0  0  0  0  0  0
    6.1760  -11.0475   24.2632 C   0  0  0  0  0  0  0  0  0  0  0  0
    6.1966  -11.1353   25.6387 C   0  0  0  0  0  0  0  0  0  0  0  0
    6.6032  -12.2883   26.2895 C   0  0  0  0  0  0  0  0  0  0  0  0
    6.9991  -13.3809   25.5348 C   0  0  0  0  0  0  0  0  0  0  0  0
    6.9751  -13.2832   24.1564 C   0  0  0  0  0  0  0  0  0  0  0  0
    9.8683  -16.6207   24.3027 C   0  0  0  0  0  0  0  0  0  0  0  0
    9.4704  -16.6904   25.5106 O   0  0  0  0  0  0  0  0  0  0  0  0
   10.8420  -17.5786   23.9110 N   0  0  0  0  0  0  0  0  0  0  0  0
   11.3959  -18.5680   24.7840 C   0  0  0  0  0  0  0  0  0  0  0  0
   12.1297  -17.9354   25.9369 C   0  0  0  0  0  0  0  0  0  0  0  0
   13.1968  -17.3066   25.8035 O   0  0  0  0  0  0  0  0  0  0  0  0
   11.5780  -18.0616   27.2394 N   0  0  0  0  0  0  0  0  0  0  0  0
   12.4005  -17.7431   28.3810 C   0  0  1  0  0  0  0  0  0  0  0  0
   12.0011  -16.3744   28.8933 C   0  0  0  0  0  0  0  0  0  0  0  0
   10.2856  -15.9912   28.4377 S   0  0  0  0  0  0  0  0  0  0  0  0
   12.1895  -18.7778   29.4173 C   0  0  0  0  0  0  0  0  0  0  0  0
   11.3755  -19.7105   29.1812 O   0  0  0  0  0  0  0  0  0  0  0  0
   12.8329  -18.7936   30.6457 O   0  0  0  0  0  0  0  0  0  0  0  0
  2  1  1  6
  2 13  1  0
  3  2  1  0
  4  3  1  0
  5  4  2  0
  6  5  1  0
  7  6  1  0
  7 12  2  0
  8  7  1  0
  9  8  2  0
  9 10  1  0
 10 11  2  0
 11 12  1  0
 12  4  1  0
 13 14  2  0
 15 13  1  0
 15 16  1  0
 17 19  1  0
 17 16  1  0
 18 17  2  0
 20 19  1  0
 20 21  1  1
 21 22  1  0
 23 20  1  0
 24 23  2  0
 25 23  1  0
M  END
$$$$
