WGC.pdb
     RDKit          3D

 25 26  0  0  1  0  0  0  0  0999 V2000
    6.9147  -17.4021   23.3962 N   0  0  0  0  0  0  0  0  0  0  0  0
    7.8808  -16.3213   23.1357 C   0  0  1  0  0  0  0  0  0  0  0  0
    8.4557  -15.9007   24.4425 C   0  0  0  0  0  0  0  0  0  0  0  0
    7.4593  -15.0807   25.1793 C   0  0  0  0  0  0  0  0  0  0  0  0
    6.3888  -15.5872   25.9200 C   0  0  0  0  0  0  0  0  0  0  0  0
    5.6784  -14.6016   26.4587 N   0  0  0  0  0  0  0  0  0  0  0  0
    6.2617  -13.4482   26.0863 C   0  0  0  0  0  0  0  0  0  0  0  0
    5.9561  -12.1203   26.3512 C   0  0  0  0  0  0  0  0  0  0  0  0
    6.7440  -11.1170   25.8291 C   0  0  0  0  0  0  0  0  0  0  0  0
    7.8466  -11.3934   25.0376 C   0  0  0  0  0  0  0  0  0  0  0  0
    8.1631  -12.7147   24.7653 C   0  0  0  0  0  0  0  0  0  0  0  0
    7.3670  -13.7134   25.2932 C   0  0  0  0  0  0  0  0  0  0  0  0
    8.8342  -16.8331   22.1620 C   0  0  0  0  0  0  0  0  0  0  0  0
    9.0878  -18.0810   22.1862 O   0  0  0  0  0  0  0  0  0  0  0  0
    9.5203  -16.0767   21.1739 N   0  0  0  0  0  0  0  0  0  0  0  0
   10.5130  -16.6130   20.2937 C   0  0  0  0  0  0  0  0  0  0  0  0
   11.8021  -16.8888   21.0215 C   0  0  0  0  0  0  0  0  0  0  0  0
   12.9004  -17.0016   20.4446 O   0  0  0  0  0  0  0  0  0  0  0  0
   11.7637  -17.0266   22.4345 N   0  0  0  0  0  0  0  0  0  0  0  0
   12.9803  -17.3512   23.1386 C   0  0  1  0  0  0  0  0  0  0  0  0
   12.8150  -16.9532   24.5911 C   0  0  0  0  0  0  0  0  0  0  0  0
   12.4862  -15.1735   24.7381 S   0  0  0  0  0  0  0  0  0  0  0  0
   13.2239  -18.8052   23.0133 C   0  0  0  0  0  0  0  0  0  0  0  0
   12.3431  -19.5188   22.4628 O   0  0  0  0  0  0  0  0  0  0  0  0
   14.3680  -19.4459   23.4647 O   0  0  0  0  0  0  0  0  0  0  0  0
  2  1  1  1
  2 13  1  0
  3  2  1  0
  4  3  1  0
  5  4  2  0
  6  5  1  0
  7  6  1  0
  7 12  2  0
  8  7  1  0
  9  8  2  0
  9 10  1  0
 10 11  2  0
 11 12  1  0
 12  4  1  0
 13 14  2  0
 15 13  1  0
 15 16  1  0
 17 19  1  0
 17 16  1  0
 18 17  2  0
 20 19  1  0
 20 21  1  1
 21 22  1  0
 23 20  1  0
 24 23  2  0
 25 23  1  0
M  END
$$$$
