WGC.pdb
     RDKit          3D

 25 26  0  0  1  0  0  0  0  0999 V2000
    6.7527  -17.8594   23.1707 N   0  0  0  0  0  0  0  0  0  0  0  0
    7.1816  -16.4506   23.1946 C   0  0  1  0  0  0  0  0  0  0  0  0
    7.8351  -16.1965   24.5075 C   0  0  0  0  0  0  0  0  0  0  0  0
    7.0359  -15.2050   25.2731 C   0  0  0  0  0  0  0  0  0  0  0  0
    5.8795  -15.4927   26.0021 C   0  0  0  0  0  0  0  0  0  0  0  0
    5.3958  -14.3948   26.5737 N   0  0  0  0  0  0  0  0  0  0  0  0
    6.2141  -13.3825   26.2348 C   0  0  0  0  0  0  0  0  0  0  0  0
    6.1999  -12.0289   26.5419 C   0  0  0  0  0  0  0  0  0  0  0  0
    7.1863  -11.2024   26.0480 C   0  0  0  0  0  0  0  0  0  0  0  0
    8.2060  -11.6842   25.2439 C   0  0  0  0  0  0  0  0  0  0  0  0
    8.2323  -13.0335   24.9297 C   0  0  0  0  0  0  0  0  0  0  0  0
    7.2390  -13.8540   25.4296 C   0  0  0  0  0  0  0  0  0  0  0  0
    8.0192  -16.2446   22.0221 C   0  0  0  0  0  0  0  0  0  0  0  0
    8.4961  -15.0781   21.8369 O   0  0  0  0  0  0  0  0  0  0  0  0
    8.3659  -17.2212   21.0498 N   0  0  0  0  0  0  0  0  0  0  0  0
    9.1435  -16.9522   19.8790 C   0  0  0  0  0  0  0  0  0  0  0  0
   10.5956  -16.7439   20.2190 C   0  0  0  0  0  0  0  0  0  0  0  0
   11.4589  -16.4474   19.3713 O   0  0  0  0  0  0  0  0  0  0  0  0
   11.0003  -16.8925   21.5722 N   0  0  0  0  0  0  0  0  0  0  0  0
   12.3956  -16.7395   21.9055 C   0  0  1  0  0  0  0  0  0  0  0  0
   12.5150  -16.5726   23.4066 C   0  0  0  0  0  0  0  0  0  0  0  0
   11.4294  -15.2414   23.9952 S   0  0  0  0  0  0  0  0  0  0  0  0
   13.1243  -17.9430   21.4478 C   0  0  0  0  0  0  0  0  0  0  0  0
   14.3834  -17.9074   21.4100 O   0  0  0  0  0  0  0  0  0  0  0  0
   12.5112  -19.1225   21.0526 O   0  0  0  0  0  0  0  0  0  0  0  0
  2  1  1  1
  2 13  1  0
  3  2  1  0
  4  3  1  0
  5  4  2  0
  6  5  1  0
  7  6  1  0
  7 12  2  0
  8  7  1  0
  9  8  2  0
  9 10  1  0
 10 11  2  0
 11 12  1  0
 12  4  1  0
 13 14  2  0
 15 13  1  0
 15 16  1  0
 17 19  1  0
 17 16  1  0
 18 17  2  0
 20 19  1  0
 20 21  1  1
 21 22  1  0
 23 20  1  0
 24 23  2  0
 25 23  1  0
M  END
$$$$
