WGC.pdb
     RDKit          3D

 25 26  0  0  1  0  0  0  0  0999 V2000
    6.9634  -17.8694   23.9887 N   0  0  0  0  0  0  0  0  0  0  0  0
    7.3497  -16.6278   23.2969 C   0  0  1  0  0  0  0  0  0  0  0  0
    8.1784  -15.8232   24.2357 C   0  0  0  0  0  0  0  0  0  0  0  0
    7.2896  -15.0841   25.1694 C   0  0  0  0  0  0  0  0  0  0  0  0
    6.1374  -15.6026   25.7653 C   0  0  0  0  0  0  0  0  0  0  0  0
    5.5609  -14.6960   26.5475 N   0  0  0  0  0  0  0  0  0  0  0  0
    6.3135  -13.5831   26.4795 C   0  0  0  0  0  0  0  0  0  0  0  0
    6.1939  -12.3381   27.0815 C   0  0  0  0  0  0  0  0  0  0  0  0
    7.1316  -11.3600   26.8281 C   0  0  0  0  0  0  0  0  0  0  0  0
    8.2047  -11.5811   25.9807 C   0  0  0  0  0  0  0  0  0  0  0  0
    8.3362  -12.8196   25.3732 C   0  0  0  0  0  0  0  0  0  0  0  0
    7.3910  -13.7936   25.6336 C   0  0  0  0  0  0  0  0  0  0  0  0
    8.0028  -17.0212   22.0569 C   0  0  0  0  0  0  0  0  0  0  0  0
    7.2577  -17.3105   21.0652 O   0  0  0  0  0  0  0  0  0  0  0  0
    9.4029  -17.1172   21.8335 N   0  0  0  0  0  0  0  0  0  0  0  0
   10.0492  -16.7636   20.6068 C   0  0  0  0  0  0  0  0  0  0  0  0
   11.5462  -16.7221   20.7659 C   0  0  0  0  0  0  0  0  0  0  0  0
   12.3284  -16.5385   19.8140 O   0  0  0  0  0  0  0  0  0  0  0  0
   12.0923  -16.9005   22.0646 N   0  0  0  0  0  0  0  0  0  0  0  0
   13.4189  -16.4045   22.3394 C   0  0  1  0  0  0  0  0  0  0  0  0
   13.3865  -15.6495   23.6525 C   0  0  0  0  0  0  0  0  0  0  0  0
   11.7789  -15.8514   24.4724 S   0  0  0  0  0  0  0  0  0  0  0  0
   14.3462  -17.5549   22.4137 C   0  0  0  0  0  0  0  0  0  0  0  0
   13.8817  -18.7153   22.2527 O   0  0  0  0  0  0  0  0  0  0  0  0
   15.7082  -17.4445   22.6510 O   0  0  0  0  0  0  0  0  0  0  0  0
  2  1  1  1
  2 13  1  0
  3  2  1  0
  4  3  1  0
  5  4  2  0
  6  5  1  0
  7  6  1  0
  7 12  2  0
  8  7  1  0
  9  8  2  0
  9 10  1  0
 10 11  2  0
 11 12  1  0
 12  4  1  0
 13 14  2  0
 15 13  1  0
 15 16  1  0
 17 19  1  0
 17 16  1  0
 18 17  2  0
 20 19  1  0
 20 21  1  1
 21 22  1  0
 23 20  1  0
 24 23  2  0
 25 23  1  0
M  END
$$$$
