WGC.pdb
     RDKit          3D

 25 26  0  0  1  0  0  0  0  0999 V2000
    7.4323  -18.5036   24.7515 N   0  0  0  0  0  0  0  0  0  0  0  0
    7.0896  -17.2850   23.9985 C   0  0  1  0  0  0  0  0  0  0  0  0
    7.9739  -16.1890   24.4803 C   0  0  0  0  0  0  0  0  0  0  0  0
    7.1998  -15.2852   25.3702 C   0  0  0  0  0  0  0  0  0  0  0  0
    6.1006  -15.6643   26.1443 C   0  0  0  0  0  0  0  0  0  0  0  0
    5.6260  -14.6296   26.8301 N   0  0  0  0  0  0  0  0  0  0  0  0
    6.3942  -13.5691   26.5226 C   0  0  0  0  0  0  0  0  0  0  0  0
    6.3644  -12.2445   26.9364 C   0  0  0  0  0  0  0  0  0  0  0  0
    7.2952  -11.3519   26.4495 C   0  0  0  0  0  0  0  0  0  0  0  0
    8.2735  -11.7381   25.5482 C   0  0  0  0  0  0  0  0  0  0  0  0
    8.3147  -13.0575   25.1268 C   0  0  0  0  0  0  0  0  0  0  0  0
    7.3772  -13.9448   25.6206 C   0  0  0  0  0  0  0  0  0  0  0  0
    7.2061  -17.6152   22.5856 C   0  0  0  0  0  0  0  0  0  0  0  0
    8.1011  -18.4568   22.2496 O   0  0  0  0  0  0  0  0  0  0  0  0
    6.4153  -17.0907   21.5278 N   0  0  0  0  0  0  0  0  0  0  0  0
    6.5650  -17.4556   20.1523 C   0  0  0  0  0  0  0  0  0  0  0  0
    7.6618  -16.6646   19.4896 C   0  0  0  0  0  0  0  0  0  0  0  0
    8.0001  -16.8300   18.3022 O   0  0  0  0  0  0  0  0  0  0  0  0
    8.3431  -15.6819   20.2558 N   0  0  0  0  0  0  0  0  0  0  0  0
    9.4306  -14.9530   19.6498 C   0  0  1  0  0  0  0  0  0  0  0  0
    9.1532  -13.4704   19.7925 C   0  0  0  0  0  0  0  0  0  0  0  0
    7.4196  -13.0987   19.4003 S   0  0  0  0  0  0  0  0  0  0  0  0
   10.6874  -15.3241   20.3367 C   0  0  0  0  0  0  0  0  0  0  0  0
   10.6349  -16.1560   21.2818 O   0  0  0  0  0  0  0  0  0  0  0  0
   11.9349  -14.8145   20.0091 O   0  0  0  0  0  0  0  0  0  0  0  0
  2  1  1  1
  2 13  1  0
  3  2  1  0
  4  3  1  0
  5  4  2  0
  6  5  1  0
  7  6  1  0
  7 12  2  0
  8  7  1  0
  9  8  2  0
  9 10  1  0
 10 11  2  0
 11 12  1  0
 12  4  1  0
 13 14  2  0
 15 13  1  0
 15 16  1  0
 17 19  1  0
 17 16  1  0
 18 17  2  0
 20 19  1  0
 20 21  1  1
 21 22  1  0
 23 20  1  0
 24 23  2  0
 25 23  1  0
M  END
$$$$
