WGC.pdb
     RDKit          3D

 25 26  0  0  1  0  0  0  0  0999 V2000
    7.9775  -17.5033   22.7498 N   0  0  0  0  0  0  0  0  0  0  0  0
    7.9354  -16.0348   22.6457 C   0  0  1  0  0  0  0  0  0  0  0  0
    8.6606  -15.4749   23.8188 C   0  0  0  0  0  0  0  0  0  0  0  0
    7.6774  -15.0235   24.8375 C   0  0  0  0  0  0  0  0  0  0  0  0
    6.8366  -15.8624   25.5728 C   0  0  0  0  0  0  0  0  0  0  0  0
    6.0733  -15.1578   26.4017 N   0  0  0  0  0  0  0  0  0  0  0  0
    6.3952  -13.8634   26.2274 C   0  0  0  0  0  0  0  0  0  0  0  0
    5.9265  -12.6980   26.8182 C   0  0  0  0  0  0  0  0  0  0  0  0
    6.4476  -11.4791   26.4403 C   0  0  0  0  0  0  0  0  0  0  0  0
    7.4376  -11.3767   25.4770 C   0  0  0  0  0  0  0  0  0  0  0  0
    7.9146  -12.5322   24.8792 C   0  0  0  0  0  0  0  0  0  0  0  0
    7.3858  -13.7494   25.2648 C   0  0  0  0  0  0  0  0  0  0  0  0
    8.4816  -15.6883   21.3417 C   0  0  0  0  0  0  0  0  0  0  0  0
    8.5496  -14.4524   21.0415 O   0  0  0  0  0  0  0  0  0  0  0  0
    8.9538  -16.5961   20.3557 N   0  0  0  0  0  0  0  0  0  0  0  0
   10.0451  -17.5010   20.5500 C   0  0  0  0  0  0  0  0  0  0  0  0
   11.3005  -16.7712   20.9488 C   0  0  0  0  0  0  0  0  0  0  0  0
   12.2459  -16.5619   20.1652 O   0  0  0  0  0  0  0  0  0  0  0  0
   11.4115  -16.2981   22.2833 N   0  0  0  0  0  0  0  0  0  0  0  0
   12.6940  -16.3561   22.9412 C   0  0  1  0  0  0  0  0  0  0  0  0
   12.5023  -15.9929   24.3995 C   0  0  0  0  0  0  0  0  0  0  0  0
   14.0084  -16.3387   25.3531 S   0  0  0  0  0  0  0  0  0  0  0  0
   13.2324  -17.7274   22.8044 C   0  0  0  0  0  0  0  0  0  0  0  0
   12.4258  -18.6955   22.8134 O   0  0  0  0  0  0  0  0  0  0  0  0
   14.5796  -18.0258   22.6648 O   0  0  0  0  0  0  0  0  0  0  0  0
  2  1  1  1
  2 13  1  0
  3  2  1  0
  4  3  1  0
  5  4  2  0
  6  5  1  0
  7  6  1  0
  7 12  2  0
  8  7  1  0
  9  8  2  0
  9 10  1  0
 10 11  2  0
 11 12  1  0
 12  4  1  0
 13 14  2  0
 15 13  1  0
 15 16  1  0
 17 19  1  0
 17 16  1  0
 18 17  2  0
 20 19  1  0
 20 21  1  1
 21 22  1  0
 23 20  1  0
 24 23  2  0
 25 23  1  0
M  END
$$$$
