WGC.pdb
     RDKit          3D

 25 26  0  0  1  0  0  0  0  0999 V2000
    8.4843  -17.8457   23.5385 N   0  0  0  0  0  0  0  0  0  0  0  0
    7.6935  -16.6573   23.1755 C   0  0  1  0  0  0  0  0  0  0  0  0
    8.3601  -15.4679   23.7725 C   0  0  0  0  0  0  0  0  0  0  0  0
    7.5575  -14.9779   24.9230 C   0  0  0  0  0  0  0  0  0  0  0  0
    6.7311  -15.7694   25.7242 C   0  0  0  0  0  0  0  0  0  0  0  0
    6.1483  -15.0388   26.6690 N   0  0  0  0  0  0  0  0  0  0  0  0
    6.5757  -13.7738   26.5067 C   0  0  0  0  0  0  0  0  0  0  0  0
    6.3016  -12.6009   27.1967 C   0  0  0  0  0  0  0  0  0  0  0  0
    6.8937  -11.4194   26.8048 C   0  0  0  0  0  0  0  0  0  0  0  0
    7.7655  -11.3624   25.7300 C   0  0  0  0  0  0  0  0  0  0  0  0
    8.0480  -12.5259   25.0325 C   0  0  0  0  0  0  0  0  0  0  0  0
    7.4495  -13.7054   25.4331 C   0  0  0  0  0  0  0  0  0  0  0  0
    7.5782  -16.6543   21.7244 C   0  0  0  0  0  0  0  0  0  0  0  0
    6.6759  -15.9191   21.2071 O   0  0  0  0  0  0  0  0  0  0  0  0
    8.3775  -17.3949   20.8123 N   0  0  0  0  0  0  0  0  0  0  0  0
    8.2151  -17.3657   19.3909 C   0  0  0  0  0  0  0  0  0  0  0  0
    9.0167  -16.2531   18.7685 C   0  0  0  0  0  0  0  0  0  0  0  0
    9.1400  -16.1074   17.5375 O   0  0  0  0  0  0  0  0  0  0  0  0
    9.6631  -15.3246   19.6269 N   0  0  0  0  0  0  0  0  0  0  0  0
   10.4599  -14.2721   19.0451 C   0  0  1  0  0  0  0  0  0  0  0  0
    9.7865  -12.9457   19.3323 C   0  0  0  0  0  0  0  0  0  0  0  0
    8.2036  -12.8225   18.4510 S   0  0  0  0  0  0  0  0  0  0  0  0
   11.8122  -14.3189   19.6436 C   0  0  0  0  0  0  0  0  0  0  0  0
   12.0343  -15.1467   20.5674 O   0  0  0  0  0  0  0  0  0  0  0  0
   12.8658  -13.5056   19.2542 O   0  0  0  0  0  0  0  0  0  0  0  0
  2  1  1  6
  2 13  1  0
  3  2  1  0
  4  3  1  0
  5  4  2  0
  6  5  1  0
  7  6  1  0
  7 12  2  0
  8  7  1  0
  9  8  2  0
  9 10  1  0
 10 11  2  0
 11 12  1  0
 12  4  1  0
 13 14  2  0
 15 13  1  0
 15 16  1  0
 17 19  1  0
 17 16  1  0
 18 17  2  0
 20 19  1  0
 20 21  1  1
 21 22  1  0
 23 20  1  0
 24 23  2  0
 25 23  1  0
M  END
$$$$
