WGC.pdb
     RDKit          3D

 25 26  0  0  1  0  0  0  0  0999 V2000
    8.6651  -16.5933   24.8062 N   0  0  0  0  0  0  0  0  0  0  0  0
    8.4844  -16.6426   23.3453 C   0  0  1  0  0  0  0  0  0  0  0  0
    7.3989  -15.6885   22.9889 C   0  0  0  0  0  0  0  0  0  0  0  0
    6.8525  -15.0772   24.2282 C   0  0  0  0  0  0  0  0  0  0  0  0
    6.1234  -15.7558   25.2076 C   0  0  0  0  0  0  0  0  0  0  0  0
    5.7746  -14.9337   26.1917 N   0  0  0  0  0  0  0  0  0  0  0  0
    6.2614  -13.7191   25.8799 C   0  0  0  0  0  0  0  0  0  0  0  0
    6.2040  -12.4955   26.5328 C   0  0  0  0  0  0  0  0  0  0  0  0
    6.8053  -11.3892   25.9721 C   0  0  0  0  0  0  0  0  0  0  0  0
    7.4747  -11.4585   24.7615 C   0  0  0  0  0  0  0  0  0  0  0  0
    7.5398  -12.6738   24.0991 C   0  0  0  0  0  0  0  0  0  0  0  0
    6.9338  -13.7773   24.6693 C   0  0  0  0  0  0  0  0  0  0  0  0
    9.7845  -16.3705   22.7498 C   0  0  0  0  0  0  0  0  0  0  0  0
   10.0408  -16.9088   21.6243 O   0  0  0  0  0  0  0  0  0  0  0  0
   10.8112  -15.5562   23.2993 N   0  0  0  0  0  0  0  0  0  0  0  0
   12.1864  -15.9421   23.3857 C   0  0  0  0  0  0  0  0  0  0  0  0
   12.6853  -15.8860   24.8055 C   0  0  0  0  0  0  0  0  0  0  0  0
   13.8651  -15.6198   25.1038 O   0  0  0  0  0  0  0  0  0  0  0  0
   11.7657  -16.1490   25.8552 N   0  0  0  0  0  0  0  0  0  0  0  0
   12.2183  -16.0529   27.2217 C   0  0  1  0  0  0  0  0  0  0  0  0
   11.7488  -14.7296   27.7908 C   0  0  0  0  0  0  0  0  0  0  0  0
    9.9359  -14.6272   27.7725 S   0  0  0  0  0  0  0  0  0  0  0  0
   11.6540  -17.1870   27.9860 C   0  0  0  0  0  0  0  0  0  0  0  0
   10.8073  -17.9316   27.4231 O   0  0  0  0  0  0  0  0  0  0  0  0
   11.9959  -17.4923   29.2949 O   0  0  0  0  0  0  0  0  0  0  0  0
  2  1  1  1
  2 13  1  0
  3  2  1  0
  4  3  1  0
  5  4  2  0
  6  5  1  0
  7  6  1  0
  7 12  2  0
  8  7  1  0
  9  8  2  0
  9 10  1  0
 10 11  2  0
 11 12  1  0
 12  4  1  0
 13 14  2  0
 15 13  1  0
 15 16  1  0
 17 19  1  0
 17 16  1  0
 18 17  2  0
 20 19  1  0
 20 21  1  1
 21 22  1  0
 23 20  1  0
 24 23  2  0
 25 23  1  0
M  END
$$$$
