WGC.pdb
     RDKit          3D

 25 26  0  0  1  0  0  0  0  0999 V2000
    6.8874  -17.3198   23.6786 N   0  0  0  0  0  0  0  0  0  0  0  0
    7.7032  -16.1847   23.2146 C   0  0  1  0  0  0  0  0  0  0  0  0
    8.5091  -15.7020   24.3691 C   0  0  0  0  0  0  0  0  0  0  0  0
    7.6165  -15.0260   25.3460 C   0  0  0  0  0  0  0  0  0  0  0  0
    6.5703  -15.6388   26.0397 C   0  0  0  0  0  0  0  0  0  0  0  0
    5.9592  -14.7695   26.8377 N   0  0  0  0  0  0  0  0  0  0  0  0
    6.5843  -13.5885   26.6839 C   0  0  0  0  0  0  0  0  0  0  0  0
    6.3782  -12.3421   27.2592 C   0  0  0  0  0  0  0  0  0  0  0  0
    7.1879  -11.2825   26.9104 C   0  0  0  0  0  0  0  0  0  0  0  0
    8.2153  -11.4217   25.9919 C   0  0  0  0  0  0  0  0  0  0  0  0
    8.4321  -12.6605   25.4101 C   0  0  0  0  0  0  0  0  0  0  0  0
    7.6150  -13.7166   25.7662 C   0  0  0  0  0  0  0  0  0  0  0  0
    8.4641  -16.6537   22.0657 C   0  0  0  0  0  0  0  0  0  0  0  0
    9.2603  -15.8290   21.5105 O   0  0  0  0  0  0  0  0  0  0  0  0
    8.4118  -17.9524   21.4913 N   0  0  0  0  0  0  0  0  0  0  0  0
    9.1043  -18.3346   20.2988 C   0  0  0  0  0  0  0  0  0  0  0  0
    8.6304  -17.5417   19.1095 C   0  0  0  0  0  0  0  0  0  0  0  0
    8.1326  -18.0658   18.0949 O   0  0  0  0  0  0  0  0  0  0  0  0
    8.7568  -16.1277   19.1468 N   0  0  0  0  0  0  0  0  0  0  0  0
    8.4400  -15.3659   17.9633 C   0  0  1  0  0  0  0  0  0  0  0  0
    7.3143  -14.4081   18.2961 C   0  0  0  0  0  0  0  0  0  0  0  0
    7.7740  -13.3310   19.6839 S   0  0  0  0  0  0  0  0  0  0  0  0
    9.6513  -14.6307   17.5377 C   0  0  0  0  0  0  0  0  0  0  0  0
   10.6754  -14.6804   18.2704 O   0  0  0  0  0  0  0  0  0  0  0  0
    9.7399  -13.8813   16.3741 O   0  0  0  0  0  0  0  0  0  0  0  0
  2  1  1  1
  2 13  1  0
  3  2  1  0
  4  3  1  0
  5  4  2  0
  6  5  1  0
  7  6  1  0
  7 12  2  0
  8  7  1  0
  9  8  2  0
  9 10  1  0
 10 11  2  0
 11 12  1  0
 12  4  1  0
 13 14  2  0
 15 13  1  0
 15 16  1  0
 17 19  1  0
 17 16  1  0
 18 17  2  0
 20 19  1  0
 20 21  1  1
 21 22  1  0
 23 20  1  0
 24 23  2  0
 25 23  1  0
M  END
$$$$
