WGC.pdb
     RDKit          3D

 25 26  0  0  1  0  0  0  0  0999 V2000
    7.2626  -17.8979   24.6681 N   0  0  0  0  0  0  0  0  0  0  0  0
    6.9790  -17.5596   23.2630 C   0  0  1  0  0  0  0  0  0  0  0  0
    6.3472  -16.2121   23.2385 C   0  0  0  0  0  0  0  0  0  0  0  0
    6.4769  -15.5816   24.5777 C   0  0  0  0  0  0  0  0  0  0  0  0
    6.3222  -16.2434   25.7981 C   0  0  0  0  0  0  0  0  0  0  0  0
    6.4987  -15.4065   26.8153 N   0  0  0  0  0  0  0  0  0  0  0  0
    6.7683  -14.1988   26.2879 C   0  0  0  0  0  0  0  0  0  0  0  0
    7.0359  -12.9664   26.8679 C   0  0  0  0  0  0  0  0  0  0  0  0
    7.2834  -11.8707   26.0689 C   0  0  0  0  0  0  0  0  0  0  0  0
    7.2740  -11.9596   24.6867 C   0  0  0  0  0  0  0  0  0  0  0  0
    7.0084  -13.1839   24.0946 C   0  0  0  0  0  0  0  0  0  0  0  0
    6.7614  -14.2764   24.9041 C   0  0  0  0  0  0  0  0  0  0  0  0
    8.2353  -17.6809   22.5379 C   0  0  0  0  0  0  0  0  0  0  0  0
    9.0977  -18.5032   22.9878 O   0  0  0  0  0  0  0  0  0  0  0  0
    8.6054  -16.9693   21.3648 N   0  0  0  0  0  0  0  0  0  0  0  0
    9.8058  -17.2069   20.6232 C   0  0  0  0  0  0  0  0  0  0  0  0
   11.0148  -16.6794   21.3498 C   0  0  0  0  0  0  0  0  0  0  0  0
   12.0600  -16.3289   20.7698 O   0  0  0  0  0  0  0  0  0  0  0  0
   10.9602  -16.5761   22.7651 N   0  0  0  0  0  0  0  0  0  0  0  0
   12.1160  -16.0856   23.4754 C   0  0  1  0  0  0  0  0  0  0  0  0
   11.6426  -15.3472   24.7108 C   0  0  0  0  0  0  0  0  0  0  0  0
   11.0864  -16.5146   25.9856 S   0  0  0  0  0  0  0  0  0  0  0  0
   12.9679  -17.2382   23.8425 C   0  0  0  0  0  0  0  0  0  0  0  0
   12.5088  -18.4013   23.6859 O   0  0  0  0  0  0  0  0  0  0  0  0
   14.2526  -17.1270   24.3531 O   0  0  0  0  0  0  0  0  0  0  0  0
  2  1  1  1
  2 13  1  0
  3  2  1  0
  4  3  1  0
  5  4  2  0
  6  5  1  0
  7  6  1  0
  7 12  2  0
  8  7  1  0
  9  8  2  0
  9 10  1  0
 10 11  2  0
 11 12  1  0
 12  4  1  0
 13 14  2  0
 15 13  1  0
 15 16  1  0
 17 19  1  0
 17 16  1  0
 18 17  2  0
 20 19  1  0
 20 21  1  1
 21 22  1  0
 23 20  1  0
 24 23  2  0
 25 23  1  0
M  END
$$$$
