WGC.pdb
     RDKit          3D

 25 26  0  0  1  0  0  0  0  0999 V2000
    8.1814  -17.1680   24.8013 N   0  0  0  0  0  0  0  0  0  0  0  0
    6.7453  -17.0610   24.4925 C   0  0  1  0  0  0  0  0  0  0  0  0
    6.2918  -15.7041   24.9030 C   0  0  0  0  0  0  0  0  0  0  0  0
    7.2111  -15.1693   25.9408 C   0  0  0  0  0  0  0  0  0  0  0  0
    8.2858  -15.8643   26.5005 C   0  0  0  0  0  0  0  0  0  0  0  0
    8.9148  -15.1164   27.4010 N   0  0  0  0  0  0  0  0  0  0  0  0
    8.2733  -13.9350   27.4474 C   0  0  0  0  0  0  0  0  0  0  0  0
    8.4874  -12.7862   28.1965 C   0  0  0  0  0  0  0  0  0  0  0  0
    7.6569  -11.6977   28.0369 C   0  0  0  0  0  0  0  0  0  0  0  0
    6.6007  -11.7120   27.1410 C   0  0  0  0  0  0  0  0  0  0  0  0
    6.3757  -12.8524   26.3867 C   0  0  0  0  0  0  0  0  0  0  0  0
    7.2138  -13.9385   26.5540 C   0  0  0  0  0  0  0  0  0  0  0  0
    6.5927  -17.3770   23.0798 C   0  0  0  0  0  0  0  0  0  0  0  0
    5.5543  -16.9381   22.4871 O   0  0  0  0  0  0  0  0  0  0  0  0
    7.4930  -18.1332   22.2816 N   0  0  0  0  0  0  0  0  0  0  0  0
    7.2959  -18.4164   20.8929 C   0  0  0  0  0  0  0  0  0  0  0  0
    8.0116  -17.4186   20.0211 C   0  0  0  0  0  0  0  0  0  0  0  0
    8.1642  -17.5706   18.7942 O   0  0  0  0  0  0  0  0  0  0  0  0
    8.5379  -16.2472   20.6275 N   0  0  0  0  0  0  0  0  0  0  0  0
    9.3252  -15.3398   19.8288 C   0  0  1  0  0  0  0  0  0  0  0  0
    8.7998  -13.9346   20.0405 C   0  0  0  0  0  0  0  0  0  0  0  0
    7.0034  -13.8727   19.7828 S   0  0  0  0  0  0  0  0  0  0  0  0
   10.7391  -15.4448   20.2517 C   0  0  0  0  0  0  0  0  0  0  0  0
   11.0291  -16.2257   21.1974 O   0  0  0  0  0  0  0  0  0  0  0  0
   11.7808  -14.7355   19.6729 O   0  0  0  0  0  0  0  0  0  0  0  0
  2  1  1  6
  2 13  1  0
  3  2  1  0
  4  3  1  0
  5  4  2  0
  6  5  1  0
  7  6  1  0
  7 12  2  0
  8  7  1  0
  9  8  2  0
  9 10  1  0
 10 11  2  0
 11 12  1  0
 12  4  1  0
 13 14  2  0
 15 13  1  0
 15 16  1  0
 17 19  1  0
 17 16  1  0
 18 17  2  0
 20 19  1  0
 20 21  1  1
 21 22  1  0
 23 20  1  0
 24 23  2  0
 25 23  1  0
M  END
$$$$
