WGC.pdb
     RDKit          3D

 25 26  0  0  1  0  0  0  0  0999 V2000
    7.6569  -17.3197   25.5643 N   0  0  0  0  0  0  0  0  0  0  0  0
    7.3027  -16.9827   24.1750 C   0  0  1  0  0  0  0  0  0  0  0  0
    7.6413  -15.5502   23.9542 C   0  0  0  0  0  0  0  0  0  0  0  0
    6.9170  -14.7132   24.9456 C   0  0  0  0  0  0  0  0  0  0  0  0
    5.7538  -15.0898   25.6212 C   0  0  0  0  0  0  0  0  0  0  0  0
    5.3488  -14.1241   26.4393 N   0  0  0  0  0  0  0  0  0  0  0  0
    6.2261  -13.1119   26.3167 C   0  0  0  0  0  0  0  0  0  0  0  0
    6.3026  -11.8653   26.9226 C   0  0  0  0  0  0  0  0  0  0  0  0
    7.3338  -11.0084   26.6025 C   0  0  0  0  0  0  0  0  0  0  0  0
    8.3103  -11.3545   25.6832 C   0  0  0  0  0  0  0  0  0  0  0  0
    8.2460  -12.5959   25.0709 C   0  0  0  0  0  0  0  0  0  0  0  0
    7.2084  -13.4480   25.3985 C   0  0  0  0  0  0  0  0  0  0  0  0
    7.9967  -17.9344   23.3197 C   0  0  0  0  0  0  0  0  0  0  0  0
    8.7907  -18.7584   23.8790 O   0  0  0  0  0  0  0  0  0  0  0  0
    7.8794  -18.0426   21.9077 N   0  0  0  0  0  0  0  0  0  0  0  0
    8.6752  -18.9130   21.0972 C   0  0  0  0  0  0  0  0  0  0  0  0
   10.0864  -18.4042   20.9655 C   0  0  0  0  0  0  0  0  0  0  0  0
   10.9752  -19.0128   20.3399 O   0  0  0  0  0  0  0  0  0  0  0  0
   10.4198  -17.1702   21.5843 N   0  0  0  0  0  0  0  0  0  0  0  0
   11.7534  -16.6444   21.4217 C   0  0  1  0  0  0  0  0  0  0  0  0
   11.6497  -15.1782   21.0546 C   0  0  0  0  0  0  0  0  0  0  0  0
   10.6541  -14.9591   19.5519 S   0  0  0  0  0  0  0  0  0  0  0  0
   12.4876  -16.8201   22.6941 C   0  0  0  0  0  0  0  0  0  0  0  0
   11.8668  -17.2792   23.6901 O   0  0  0  0  0  0  0  0  0  0  0  0
   13.8282  -16.5113   22.8699 O   0  0  0  0  0  0  0  0  0  0  0  0
  2  1  1  1
  2 13  1  0
  3  2  1  0
  4  3  1  0
  5  4  2  0
  6  5  1  0
  7  6  1  0
  7 12  2  0
  8  7  1  0
  9  8  2  0
  9 10  1  0
 10 11  2  0
 11 12  1  0
 12  4  1  0
 13 14  2  0
 15 13  1  0
 15 16  1  0
 17 19  1  0
 17 16  1  0
 18 17  2  0
 20 19  1  0
 20 21  1  1
 21 22  1  0
 23 20  1  0
 24 23  2  0
 25 23  1  0
M  END
$$$$
