WGC.pdb
     RDKit          3D

 25 26  0  0  1  0  0  0  0  0999 V2000
    7.8013  -18.1450   24.4625 N   0  0  0  0  0  0  0  0  0  0  0  0
    7.5038  -16.9286   23.6872 C   0  0  1  0  0  0  0  0  0  0  0  0
    8.4379  -15.8615   24.1392 C   0  0  0  0  0  0  0  0  0  0  0  0
    7.8654  -15.1745   25.3259 C   0  0  0  0  0  0  0  0  0  0  0  0
    7.6234  -15.7732   26.5646 C   0  0  0  0  0  0  0  0  0  0  0  0
    7.1068  -14.8973   27.4201 N   0  0  0  0  0  0  0  0  0  0  0  0
    7.0024  -13.7257   26.7674 C   0  0  0  0  0  0  0  0  0  0  0  0
    6.5373  -12.4779   27.1593 C   0  0  0  0  0  0  0  0  0  0  0  0
    6.5461  -11.4297   26.2642 C   0  0  0  0  0  0  0  0  0  0  0  0
    7.0102  -11.5819   24.9681 C   0  0  0  0  0  0  0  0  0  0  0  0
    7.4775  -12.8222   24.5637 C   0  0  0  0  0  0  0  0  0  0  0  0
    7.4646  -13.8669   25.4684 C   0  0  0  0  0  0  0  0  0  0  0  0
    7.5939  -17.2921   22.2806 C   0  0  0  0  0  0  0  0  0  0  0  0
    8.3241  -18.2903   21.9761 O   0  0  0  0  0  0  0  0  0  0  0  0
    6.9437  -16.6421   21.1971 N   0  0  0  0  0  0  0  0  0  0  0  0
    7.0835  -17.0262   19.8258 C   0  0  0  0  0  0  0  0  0  0  0  0
    8.1352  -16.2042   19.1288 C   0  0  0  0  0  0  0  0  0  0  0  0
    8.4576  -16.3768   17.9380 O   0  0  0  0  0  0  0  0  0  0  0  0
    8.7911  -15.1821   19.8651 N   0  0  0  0  0  0  0  0  0  0  0  0
    9.7954  -14.3816   19.2079 C   0  0  1  0  0  0  0  0  0  0  0  0
    9.4508  -12.9199   19.4083 C   0  0  0  0  0  0  0  0  0  0  0  0
    7.7169  -12.6012   18.9735 S   0  0  0  0  0  0  0  0  0  0  0  0
   11.1135  -14.7000   19.7996 C   0  0  0  0  0  0  0  0  0  0  0  0
   11.1679  -15.5491   20.7292 O   0  0  0  0  0  0  0  0  0  0  0  0
   12.3086  -14.1224   19.3977 O   0  0  0  0  0  0  0  0  0  0  0  0
  2  1  1  1
  2 13  1  0
  3  2  1  0
  4  3  1  0
  5  4  2  0
  6  5  1  0
  7  6  1  0
  7 12  2  0
  8  7  1  0
  9  8  2  0
  9 10  1  0
 10 11  2  0
 11 12  1  0
 12  4  1  0
 13 14  2  0
 15 13  1  0
 15 16  1  0
 17 19  1  0
 17 16  1  0
 18 17  2  0
 20 19  1  0
 20 21  1  1
 21 22  1  0
 23 20  1  0
 24 23  2  0
 25 23  1  0
M  END
$$$$
