WGC.pdb
     RDKit          3D

 25 26  0  0  1  0  0  0  0  0999 V2000
    6.7013  -17.4664   23.6810 N   0  0  0  0  0  0  0  0  0  0  0  0
    7.6068  -16.3929   23.2372 C   0  0  1  0  0  0  0  0  0  0  0  0
    8.2977  -15.8544   24.4406 C   0  0  0  0  0  0  0  0  0  0  0  0
    7.3450  -15.0311   25.2298 C   0  0  0  0  0  0  0  0  0  0  0  0
    6.2115  -15.5173   25.8855 C   0  0  0  0  0  0  0  0  0  0  0  0
    5.5642  -14.5342   26.5024 N   0  0  0  0  0  0  0  0  0  0  0  0
    6.2514  -13.4024   26.2657 C   0  0  0  0  0  0  0  0  0  0  0  0
    6.0446  -12.0865   26.6563 C   0  0  0  0  0  0  0  0  0  0  0  0
    6.9289  -11.1059   26.2610 C   0  0  0  0  0  0  0  0  0  0  0  0
    8.0331  -11.3935   25.4757 C   0  0  0  0  0  0  0  0  0  0  0  0
    8.2516  -12.7030   25.0787 C   0  0  0  0  0  0  0  0  0  0  0  0
    7.3593  -13.6791   25.4801 C   0  0  0  0  0  0  0  0  0  0  0  0
    8.4718  -16.9656   22.2162 C   0  0  0  0  0  0  0  0  0  0  0  0
    8.8553  -18.1695   22.3771 O   0  0  0  0  0  0  0  0  0  0  0  0
    8.9391  -16.3143   21.0428 N   0  0  0  0  0  0  0  0  0  0  0  0
   10.0080  -16.7983   20.2238 C   0  0  0  0  0  0  0  0  0  0  0  0
   11.3480  -16.5474   20.8634 C   0  0  0  0  0  0  0  0  0  0  0  0
   12.3854  -16.3277   20.2097 O   0  0  0  0  0  0  0  0  0  0  0  0
   11.4328  -16.5615   22.2810 N   0  0  0  0  0  0  0  0  0  0  0  0
   12.7218  -16.3903   22.9060 C   0  0  1  0  0  0  0  0  0  0  0  0
   12.5185  -15.7205   24.2496 C   0  0  0  0  0  0  0  0  0  0  0  0
   10.7652  -15.7418   24.7215 S   0  0  0  0  0  0  0  0  0  0  0  0
   13.3475  -17.7212   23.0681 C   0  0  0  0  0  0  0  0  0  0  0  0
   12.6527  -18.7465   22.8351 O   0  0  0  0  0  0  0  0  0  0  0  0
   14.6615  -17.9222   23.4631 O   0  0  0  0  0  0  0  0  0  0  0  0
  2  1  1  1
  2 13  1  0
  3  2  1  0
  4  3  1  0
  5  4  2  0
  6  5  1  0
  7  6  1  0
  7 12  2  0
  8  7  1  0
  9  8  2  0
  9 10  1  0
 10 11  2  0
 11 12  1  0
 12  4  1  0
 13 14  2  0
 15 13  1  0
 15 16  1  0
 17 19  1  0
 17 16  1  0
 18 17  2  0
 20 19  1  0
 20 21  1  1
 21 22  1  0
 23 20  1  0
 24 23  2  0
 25 23  1  0
M  END
$$$$
