WGC.pdb
     RDKit          3D

 25 26  0  0  1  0  0  0  0  0999 V2000
    7.7725  -17.2331   23.7833 N   0  0  0  0  0  0  0  0  0  0  0  0
    7.6308  -16.1712   22.7726 C   0  0  1  0  0  0  0  0  0  0  0  0
    8.1060  -14.8984   23.3807 C   0  0  0  0  0  0  0  0  0  0  0  0
    7.2675  -14.5732   24.5636 C   0  0  0  0  0  0  0  0  0  0  0  0
    6.4396  -15.4749   25.2366 C   0  0  0  0  0  0  0  0  0  0  0  0
    5.8205  -14.8810   26.2516 N   0  0  0  0  0  0  0  0  0  0  0  0
    6.2252  -13.5983   26.2621 C   0  0  0  0  0  0  0  0  0  0  0  0
    5.9114  -12.5280   27.0884 C   0  0  0  0  0  0  0  0  0  0  0  0
    6.4877  -11.2959   26.8648 C   0  0  0  0  0  0  0  0  0  0  0  0
    7.3824  -11.0870   25.8283 C   0  0  0  0  0  0  0  0  0  0  0  0
    7.7047  -12.1470   24.9960 C   0  0  0  0  0  0  0  0  0  0  0  0
    7.1217  -13.3783   25.2282 C   0  0  0  0  0  0  0  0  0  0  0  0
    8.3547  -16.6146   21.5901 C   0  0  0  0  0  0  0  0  0  0  0  0
    8.2600  -15.9007   20.5396 O   0  0  0  0  0  0  0  0  0  0  0  0
    9.1673  -17.7755   21.4835 N   0  0  0  0  0  0  0  0  0  0  0  0
   10.2717  -17.9062   20.5830 C   0  0  0  0  0  0  0  0  0  0  0  0
   11.5502  -17.4100   21.2050 C   0  0  0  0  0  0  0  0  0  0  0  0
   12.5781  -17.1628   20.5462 O   0  0  0  0  0  0  0  0  0  0  0  0
   11.5854  -17.2139   22.6111 N   0  0  0  0  0  0  0  0  0  0  0  0
   12.8203  -16.7946   23.2279 C   0  0  1  0  0  0  0  0  0  0  0  0
   12.5187  -15.6551   24.1797 C   0  0  0  0  0  0  0  0  0  0  0  0
   11.3850  -16.1943   25.4917 S   0  0  0  0  0  0  0  0  0  0  0  0
   13.4013  -17.9474   23.9508 C   0  0  0  0  0  0  0  0  0  0  0  0
   12.7120  -18.9959   24.0668 O   0  0  0  0  0  0  0  0  0  0  0  0
   14.6675  -17.9552   24.5165 O   0  0  0  0  0  0  0  0  0  0  0  0
  2  1  1  1
  2 13  1  0
  3  2  1  0
  4  3  1  0
  5  4  2  0
  6  5  1  0
  7  6  1  0
  7 12  2  0
  8  7  1  0
  9  8  2  0
  9 10  1  0
 10 11  2  0
 11 12  1  0
 12  4  1  0
 13 14  2  0
 15 13  1  0
 15 16  1  0
 17 19  1  0
 17 16  1  0
 18 17  2  0
 20 19  1  0
 20 21  1  1
 21 22  1  0
 23 20  1  0
 24 23  2  0
 25 23  1  0
M  END
$$$$
