QIG.pdb
     RDKit          3D

 22 21  0  0  1  0  0  0  0  0999 V2000
   13.0776  -19.0222   16.9535 N   0  0  0  0  0  0  0  0  0  0  0  0
   11.6527  -19.0823   17.0253 C   0  0  0  0  0  0  0  0  0  0  0  0
   11.1152  -20.0703   16.4734 O   0  0  0  0  0  0  0  0  0  0  0  0
   10.8535  -18.0548   17.6970 C   0  0  0  0  0  0  0  0  0  0  0  0
   11.2933  -17.6469   19.0649 C   0  0  0  0  0  0  0  0  0  0  0  0
   10.2549  -17.9066   20.0916 C   0  0  2  0  0  0  0  0  0  0  0  0
    9.0019  -18.3953   19.5972 N   0  0  0  0  0  0  0  0  0  0  0  0
   10.0548  -16.7358   21.0089 C   0  0  0  0  0  0  0  0  0  0  0  0
   11.0586  -16.1617   21.4939 O   0  0  0  0  0  0  0  0  0  0  0  0
    6.9929  -12.6658   19.9917 C   0  0  0  0  0  0  0  0  0  0  0  0
    8.1392  -13.4779   20.5599 C   0  0  0  0  0  0  0  0  0  0  0  0
    7.6029  -14.1732   21.8074 C   0  0  2  0  0  0  0  0  0  0  0  0
    7.2270  -13.1472   22.8248 C   0  0  0  0  0  0  0  0  0  0  0  0
    8.6146  -15.1617   22.3412 C   0  0  2  0  0  0  0  0  0  0  0  0
    8.7736  -16.2460   21.3547 N   0  0  0  0  0  0  0  0  0  0  0  0
    8.1064  -15.7462   23.6009 C   0  0  0  0  0  0  0  0  0  0  0  0
    8.0569  -14.9904   24.6418 O   0  0  0  0  0  0  0  0  0  0  0  0
    7.6593  -17.0771   23.7693 N   0  0  0  0  0  0  0  0  0  0  0  0
    7.0515  -17.4456   25.0628 C   0  0  0  0  0  0  0  0  0  0  0  0
    7.9554  -18.3762   25.7831 C   0  0  0  0  0  0  0  0  0  0  0  0
    7.5896  -18.9091   26.9969 O   0  0  0  0  0  0  0  0  0  0  0  0
    9.0676  -18.6886   25.2913 O   0  0  0  0  0  0  0  0  0  0  0  0
  1  2  1  0
  2  3  2  0
  4  2  1  0
  5  4  1  0
  6  5  1  0
  6  7  1  6
  8  6  1  0
  8  9  2  0
 10 11  1  0
 11 12  1  0
 12 14  1  0
 12 13  1  1
 14 15  1  6
 14 16  1  0
 15  8  1  0
 16 18  1  0
 17 16  2  0
 18 19  1  0
 19 20  1  0
 20 21  1  0
 22 20  2  0
M  END
$$$$
