QIG.pdb
     RDKit          3D

 22 21  0  0  1  0  0  0  0  0999 V2000
    8.4113  -21.2501   26.5916 N   0  0  0  0  0  0  0  0  0  0  0  0
    6.9979  -21.4091   26.4646 C   0  0  0  0  0  0  0  0  0  0  0  0
    6.5170  -22.4607   26.9467 O   0  0  0  0  0  0  0  0  0  0  0  0
    6.1486  -20.4123   25.8082 C   0  0  0  0  0  0  0  0  0  0  0  0
    6.8266  -19.1867   25.2893 C   0  0  0  0  0  0  0  0  0  0  0  0
    5.8793  -18.2550   24.6300 C   0  0  2  0  0  0  0  0  0  0  0  0
    5.1704  -18.7851   23.5033 N   0  0  0  0  0  0  0  0  0  0  0  0
    6.5148  -16.9367   24.2978 C   0  0  0  0  0  0  0  0  0  0  0  0
    6.9159  -16.7299   23.1278 O   0  0  0  0  0  0  0  0  0  0  0  0
    5.3431  -12.2268   26.7147 C   0  0  0  0  0  0  0  0  0  0  0  0
    5.7419  -13.1690   25.5969 C   0  0  0  0  0  0  0  0  0  0  0  0
    7.1672  -13.6221   25.8982 C   0  0  2  0  0  0  0  0  0  0  0  0
    8.0930  -12.4561   25.7862 C   0  0  0  0  0  0  0  0  0  0  0  0
    7.5679  -14.7581   24.9847 C   0  0  2  0  0  0  0  0  0  0  0  0
    6.6838  -15.9073   25.2531 N   0  0  0  0  0  0  0  0  0  0  0  0
    8.9593  -15.1579   25.2864 C   0  0  0  0  0  0  0  0  0  0  0  0
    9.2673  -15.3979   26.5131 O   0  0  0  0  0  0  0  0  0  0  0  0
    9.9969  -15.3074   24.3375 N   0  0  0  0  0  0  0  0  0  0  0  0
   11.3341  -15.6947   24.8279 C   0  0  0  0  0  0  0  0  0  0  0  0
   12.2792  -15.7507   23.6854 C   0  0  0  0  0  0  0  0  0  0  0  0
   13.6171  -15.9910   23.8940 O   0  0  0  0  0  0  0  0  0  0  0  0
   11.8673  -15.5789   22.5118 O   0  0  0  0  0  0  0  0  0  0  0  0
  1  2  1  0
  2  3  2  0
  4  2  1  0
  5  4  1  0
  6  5  1  0
  6  7  1  6
  8  6  1  0
  8  9  2  0
 10 11  1  0
 11 12  1  0
 12 14  1  0
 12 13  1  6
 14 15  1  1
 14 16  1  0
 15  8  1  0
 16 18  1  0
 17 16  2  0
 18 19  1  0
 19 20  1  0
 20 21  1  0
 22 20  2  0
M  END
$$$$
