QIG.pdb
     RDKit          3D

 22 21  0  0  1  0  0  0  0  0999 V2000
    8.2141  -12.7195   18.0739 N   0  0  0  0  0  0  0  0  0  0  0  0
    7.9129  -14.1125   17.9849 C   0  0  0  0  0  0  0  0  0  0  0  0
    7.6642  -14.5494   16.8374 O   0  0  0  0  0  0  0  0  0  0  0  0
    7.8879  -14.9897   19.1578 C   0  0  0  0  0  0  0  0  0  0  0  0
    8.2094  -14.3627   20.4747 C   0  0  0  0  0  0  0  0  0  0  0  0
    8.1913  -15.3450   21.5860 C   0  0  2  0  0  0  0  0  0  0  0  0
    6.9358  -15.9950   21.8192 N   0  0  0  0  0  0  0  0  0  0  0  0
    8.7509  -14.7774   22.8575 C   0  0  0  0  0  0  0  0  0  0  0  0
    9.9036  -14.2838   22.8504 O   0  0  0  0  0  0  0  0  0  0  0  0
    5.4958  -11.9117   25.7334 C   0  0  0  0  0  0  0  0  0  0  0  0
    6.7132  -12.4402   25.0021 C   0  0  0  0  0  0  0  0  0  0  0  0
    7.4227  -13.3862   25.9660 C   0  0  2  0  0  0  0  0  0  0  0  0
    7.8813  -12.6223   27.1641 C   0  0  0  0  0  0  0  0  0  0  0  0
    8.5626  -14.0959   25.2715 C   0  0  2  0  0  0  0  0  0  0  0  0
    8.0308  -14.7742   24.0751 N   0  0  0  0  0  0  0  0  0  0  0  0
    9.1237  -15.1199   26.1790 C   0  0  0  0  0  0  0  0  0  0  0  0
    9.5701  -14.7347   27.3233 O   0  0  0  0  0  0  0  0  0  0  0  0
    9.2127  -16.5040   25.9036 N   0  0  0  0  0  0  0  0  0  0  0  0
    9.7903  -17.3813   26.9405 C   0  0  0  0  0  0  0  0  0  0  0  0
   10.6892  -18.3730   26.3002 C   0  0  0  0  0  0  0  0  0  0  0  0
   11.1913  -19.4313   27.0208 O   0  0  0  0  0  0  0  0  0  0  0  0
   11.0026  -18.2573   25.0899 O   0  0  0  0  0  0  0  0  0  0  0  0
  1  2  1  0
  2  3  2  0
  4  2  1  0
  5  4  1  0
  6  5  1  0
  6  7  1  1
  8  6  1  0
  8  9  2  0
 10 11  1  0
 11 12  1  0
 12 14  1  0
 12 13  1  1
 14 15  1  6
 14 16  1  0
 15  8  1  0
 16 18  1  0
 17 16  2  0
 18 19  1  0
 19 20  1  0
 20 21  1  0
 22 20  2  0
M  END
$$$$
