QIG.pdb
     RDKit          3D

 22 21  0  0  1  0  0  0  0  0999 V2000
    4.9377  -19.6158   22.5388 N   0  0  0  0  0  0  0  0  0  0  0  0
    5.6936  -19.4483   21.3389 C   0  0  0  0  0  0  0  0  0  0  0  0
    5.7298  -20.4361   20.5691 O   0  0  0  0  0  0  0  0  0  0  0  0
    6.3939  -18.2029   21.0162 C   0  0  0  0  0  0  0  0  0  0  0  0
    6.2429  -17.0751   21.9837 C   0  0  0  0  0  0  0  0  0  0  0  0
    6.9803  -15.8618   21.5546 C   0  0  2  0  0  0  0  0  0  0  0  0
    7.8274  -16.0228   20.4102 N   0  0  0  0  0  0  0  0  0  0  0  0
    7.7201  -15.2139   22.6882 C   0  0  0  0  0  0  0  0  0  0  0  0
    8.9741  -15.2215   22.6824 O   0  0  0  0  0  0  0  0  0  0  0  0
    6.9379  -11.2169   27.2689 C   0  0  0  0  0  0  0  0  0  0  0  0
    7.7823  -12.3604   26.7440 C   0  0  0  0  0  0  0  0  0  0  0  0
    7.0629  -12.9024   25.5127 C   0  0  2  0  0  0  0  0  0  0  0  0
    5.6600  -13.2621   25.8754 C   0  0  0  0  0  0  0  0  0  0  0  0
    7.8190  -14.0738   24.9282 C   0  0  2  0  0  0  0  0  0  0  0  0
    7.0613  -14.5894   23.7731 N   0  0  0  0  0  0  0  0  0  0  0  0
    7.9141  -15.1466   25.9417 C   0  0  0  0  0  0  0  0  0  0  0  0
    6.8640  -15.8540   26.1740 O   0  0  0  0  0  0  0  0  0  0  0  0
    9.0700  -15.4746   26.6870 N   0  0  0  0  0  0  0  0  0  0  0  0
    8.9939  -16.6189   27.6163 C   0  0  0  0  0  0  0  0  0  0  0  0
   10.0194  -17.6242   27.2429 C   0  0  0  0  0  0  0  0  0  0  0  0
   10.2773  -18.6990   28.0610 O   0  0  0  0  0  0  0  0  0  0  0  0
   10.6652  -17.5048   26.1728 O   0  0  0  0  0  0  0  0  0  0  0  0
  1  2  1  0
  2  3  2  0
  4  2  1  0
  5  4  1  0
  6  5  1  0
  6  7  1  6
  8  6  1  0
  8  9  2  0
 10 11  1  0
 11 12  1  0
 12 14  1  0
 12 13  1  1
 14 15  1  6
 14 16  1  0
 15  8  1  0
 16 18  1  0
 17 16  2  0
 18 19  1  0
 19 20  1  0
 20 21  1  0
 22 20  2  0
M  END
$$$$
