QIG.pdb
     RDKit          3D

 22 21  0  0  1  0  0  0  0  0999 V2000
    3.8279  -18.9624   22.6604 N   0  0  0  0  0  0  0  0  0  0  0  0
    4.9262  -19.5127   21.9323 C   0  0  0  0  0  0  0  0  0  0  0  0
    4.8961  -20.7509   21.7436 O   0  0  0  0  0  0  0  0  0  0  0  0
    6.0317  -18.6912   21.4335 C   0  0  0  0  0  0  0  0  0  0  0  0
    6.8802  -18.0107   22.4571 C   0  0  0  0  0  0  0  0  0  0  0  0
    7.1244  -16.5849   22.1292 C   0  0  2  0  0  0  0  0  0  0  0  0
    7.6877  -16.3333   20.8359 N   0  0  0  0  0  0  0  0  0  0  0  0
    7.8980  -15.8775   23.2031 C   0  0  0  0  0  0  0  0  0  0  0  0
    9.1451  -15.7936   23.1026 O   0  0  0  0  0  0  0  0  0  0  0  0
    5.8619  -11.7792   25.9676 C   0  0  0  0  0  0  0  0  0  0  0  0
    6.8819  -12.6294   25.2377 C   0  0  0  0  0  0  0  0  0  0  0  0
    7.2833  -13.7459   26.1968 C   0  0  2  0  0  0  0  0  0  0  0  0
    8.0364  -13.1650   27.3477 C   0  0  0  0  0  0  0  0  0  0  0  0
    8.0788  -14.8080   25.4726 C   0  0  2  0  0  0  0  0  0  0  0  0
    7.2787  -15.2959   24.3341 N   0  0  0  0  0  0  0  0  0  0  0  0
    8.3264  -15.9412   26.3900 C   0  0  0  0  0  0  0  0  0  0  0  0
    7.3075  -16.5435   26.8960 O   0  0  0  0  0  0  0  0  0  0  0  0
    9.5976  -16.4341   26.7649 N   0  0  0  0  0  0  0  0  0  0  0  0
    9.6504  -17.5744   27.7006 C   0  0  0  0  0  0  0  0  0  0  0  0
   11.0667  -17.8924   28.0082 C   0  0  0  0  0  0  0  0  0  0  0  0
   11.3841  -18.7714   29.0170 O   0  0  0  0  0  0  0  0  0  0  0  0
   11.9941  -17.3611   27.3493 O   0  0  0  0  0  0  0  0  0  0  0  0
  1  2  1  0
  2  3  2  0
  4  2  1  0
  5  4  1  0
  6  5  1  0
  6  7  1  6
  8  6  1  0
  8  9  2  0
 10 11  1  0
 11 12  1  0
 12 14  1  0
 12 13  1  1
 14 15  1  6
 14 16  1  0
 15  8  1  0
 16 18  1  0
 17 16  2  0
 18 19  1  0
 19 20  1  0
 20 21  1  0
 22 20  2  0
M  END
$$$$
