QIG.pdb
     RDKit          3D

 22 21  0  0  1  0  0  0  0  0999 V2000
    6.8400  -19.8295   20.9341 N   0  0  0  0  0  0  0  0  0  0  0  0
    6.4962  -18.9594   19.8553 C   0  0  0  0  0  0  0  0  0  0  0  0
    5.9786  -19.5040   18.8528 O   0  0  0  0  0  0  0  0  0  0  0  0
    6.7330  -17.5146   19.9021 C   0  0  0  0  0  0  0  0  0  0  0  0
    7.2323  -16.9555   21.1940 C   0  0  0  0  0  0  0  0  0  0  0  0
    7.4620  -15.4918   21.1233 C   0  0  2  0  0  0  0  0  0  0  0  0
    8.1277  -15.0245   19.9437 N   0  0  0  0  0  0  0  0  0  0  0  0
    8.1187  -14.9575   22.3625 C   0  0  0  0  0  0  0  0  0  0  0  0
    9.3582  -14.7671   22.3630 O   0  0  0  0  0  0  0  0  0  0  0  0
    7.0899  -11.5268   27.2457 C   0  0  0  0  0  0  0  0  0  0  0  0
    7.9780  -12.6118   26.6711 C   0  0  0  0  0  0  0  0  0  0  0  0
    7.2974  -13.1009   25.3964 C   0  0  2  0  0  0  0  0  0  0  0  0
    5.8943  -13.5060   25.7067 C   0  0  0  0  0  0  0  0  0  0  0  0
    8.0900  -14.2248   24.7686 C   0  0  2  0  0  0  0  0  0  0  0  0
    7.3965  -14.6563   23.5409 N   0  0  0  0  0  0  0  0  0  0  0  0
    8.1386  -15.3685   25.7049 C   0  0  0  0  0  0  0  0  0  0  0  0
    7.0229  -15.8758   26.0985 O   0  0  0  0  0  0  0  0  0  0  0  0
    9.3147  -15.9678   26.2119 N   0  0  0  0  0  0  0  0  0  0  0  0
    9.1695  -17.1453   27.0898 C   0  0  0  0  0  0  0  0  0  0  0  0
   10.3937  -17.2973   27.9145 C   0  0  0  0  0  0  0  0  0  0  0  0
   10.4837  -18.2940   28.8577 O   0  0  0  0  0  0  0  0  0  0  0  0
   11.3640  -16.5156   27.7602 O   0  0  0  0  0  0  0  0  0  0  0  0
  1  2  1  0
  2  3  2  0
  4  2  1  0
  5  4  1  0
  6  5  1  0
  6  7  1  6
  8  6  1  0
  8  9  2  0
 10 11  1  0
 11 12  1  0
 12 14  1  0
 12 13  1  1
 14 15  1  6
 14 16  1  0
 15  8  1  0
 16 18  1  0
 17 16  2  0
 18 19  1  0
 19 20  1  0
 20 21  1  0
 22 20  2  0
M  END
$$$$
