QIG.pdb
     RDKit          3D

 22 21  0  0  1  0  0  0  0  0999 V2000
    7.8811  -12.1538   18.4475 N   0  0  0  0  0  0  0  0  0  0  0  0
    7.6486  -13.5277   18.1354 C   0  0  0  0  0  0  0  0  0  0  0  0
    7.4500  -13.7914   16.9269 O   0  0  0  0  0  0  0  0  0  0  0  0
    7.6356  -14.5767   19.1578 C   0  0  0  0  0  0  0  0  0  0  0  0
    7.9137  -14.1517   20.5624 C   0  0  0  0  0  0  0  0  0  0  0  0
    7.9952  -15.3031   21.4939 C   0  0  2  0  0  0  0  0  0  0  0  0
    6.7751  -16.0274   21.6935 N   0  0  0  0  0  0  0  0  0  0  0  0
    8.6245  -14.9321   22.8048 C   0  0  0  0  0  0  0  0  0  0  0  0
    9.7350  -14.3497   22.8059 O   0  0  0  0  0  0  0  0  0  0  0  0
    6.1374  -12.3228   26.2661 C   0  0  0  0  0  0  0  0  0  0  0  0
    7.2956  -12.8741   25.4593 C   0  0  0  0  0  0  0  0  0  0  0  0
    7.7892  -14.1138   26.1989 C   0  0  2  0  0  0  0  0  0  0  0  0
    8.4454  -13.7022   27.4752 C   0  0  0  0  0  0  0  0  0  0  0  0
    8.7126  -14.9250   25.3187 C   0  0  2  0  0  0  0  0  0  0  0  0
    8.0165  -15.2124   24.0510 N   0  0  0  0  0  0  0  0  0  0  0  0
    9.0181  -16.2089   25.9860 C   0  0  0  0  0  0  0  0  0  0  0  0
    8.0465  -17.0262   26.1987 O   0  0  0  0  0  0  0  0  0  0  0  0
   10.2982  -16.6297   26.4146 N   0  0  0  0  0  0  0  0  0  0  0  0
   10.4371  -18.0026   26.9385 C   0  0  0  0  0  0  0  0  0  0  0  0
   10.4667  -17.9618   28.4215 C   0  0  0  0  0  0  0  0  0  0  0  0
   10.5820  -19.1212   29.1519 O   0  0  0  0  0  0  0  0  0  0  0  0
   10.3867  -16.8655   29.0281 O   0  0  0  0  0  0  0  0  0  0  0  0
  1  2  1  0
  2  3  2  0
  4  2  1  0
  5  4  1  0
  6  5  1  0
  6  7  1  1
  8  6  1  0
  8  9  2  0
 10 11  1  0
 11 12  1  0
 12 14  1  0
 12 13  1  1
 14 15  1  6
 14 16  1  0
 15  8  1  0
 16 18  1  0
 17 16  2  0
 18 19  1  0
 19 20  1  0
 20 21  1  0
 22 20  2  0
M  END
$$$$
