QIG.pdb
     RDKit          3D

 22 21  0  0  1  0  0  0  0  0999 V2000
    4.7098  -20.8551   23.0019 N   0  0  0  0  0  0  0  0  0  0  0  0
    5.7015  -20.2591   22.1651 C   0  0  0  0  0  0  0  0  0  0  0  0
    6.5420  -21.0419   21.6648 O   0  0  0  0  0  0  0  0  0  0  0  0
    5.7484  -18.8189   21.9019 C   0  0  0  0  0  0  0  0  0  0  0  0
    6.3290  -17.9568   22.9746 C   0  0  0  0  0  0  0  0  0  0  0  0
    6.6050  -16.5781   22.5020 C   0  0  2  0  0  0  0  0  0  0  0  0
    6.9902  -16.4590   21.1270 N   0  0  0  0  0  0  0  0  0  0  0  0
    7.5642  -15.8500   23.3974 C   0  0  0  0  0  0  0  0  0  0  0  0
    8.7555  -15.7108   23.0313 O   0  0  0  0  0  0  0  0  0  0  0  0
    5.8250  -11.9330   26.5052 C   0  0  0  0  0  0  0  0  0  0  0  0
    6.7988  -12.6494   25.5916 C   0  0  0  0  0  0  0  0  0  0  0  0
    7.4925  -13.7096   26.4414 C   0  0  2  0  0  0  0  0  0  0  0  0
    8.4401  -13.0470   27.3860 C   0  0  0  0  0  0  0  0  0  0  0  0
    8.1823  -14.7277   25.5621 C   0  0  2  0  0  0  0  0  0  0  0  0
    7.1824  -15.3088   24.6474 N   0  0  0  0  0  0  0  0  0  0  0  0
    8.7283  -15.8111   26.4076 C   0  0  0  0  0  0  0  0  0  0  0  0
    7.9004  -16.5171   27.0955 O   0  0  0  0  0  0  0  0  0  0  0  0
   10.0955  -16.1510   26.5289 N   0  0  0  0  0  0  0  0  0  0  0  0
   10.4385  -17.4060   27.2258 C   0  0  0  0  0  0  0  0  0  0  0  0
   10.7176  -17.1146   28.6537 C   0  0  0  0  0  0  0  0  0  0  0  0
   11.1029  -18.1183   29.5112 O   0  0  0  0  0  0  0  0  0  0  0  0
   10.6051  -15.9452   29.0967 O   0  0  0  0  0  0  0  0  0  0  0  0
  1  2  1  0
  2  3  2  0
  4  2  1  0
  5  4  1  0
  6  5  1  0
  6  7  1  6
  8  6  1  0
  8  9  2  0
 10 11  1  0
 11 12  1  0
 12 14  1  0
 12 13  1  1
 14 15  1  6
 14 16  1  0
 15  8  1  0
 16 18  1  0
 17 16  2  0
 18 19  1  0
 19 20  1  0
 20 21  1  0
 22 20  2  0
M  END
$$$$
