QIG.pdb
     RDKit          3D

 22 21  0  0  1  0  0  0  0  0999 V2000
    4.1838  -22.1064   24.1948 N   0  0  0  0  0  0  0  0  0  0  0  0
    5.4953  -21.5521   24.3035 C   0  0  0  0  0  0  0  0  0  0  0  0
    6.3030  -21.8687   23.3996 O   0  0  0  0  0  0  0  0  0  0  0  0
    5.8885  -20.6682   25.4033 C   0  0  0  0  0  0  0  0  0  0  0  0
    6.6898  -19.4603   25.0430 C   0  0  0  0  0  0  0  0  0  0  0  0
    5.8394  -18.3389   24.5747 C   0  0  2  0  0  0  0  0  0  0  0  0
    4.9556  -18.6420   23.4883 N   0  0  0  0  0  0  0  0  0  0  0  0
    6.6357  -17.0983   24.2940 C   0  0  0  0  0  0  0  0  0  0  0  0
    7.0696  -16.9006   23.1342 O   0  0  0  0  0  0  0  0  0  0  0  0
    5.8366  -12.5161   26.9359 C   0  0  0  0  0  0  0  0  0  0  0  0
    6.2039  -13.3450   25.7217 C   0  0  0  0  0  0  0  0  0  0  0  0
    7.5948  -13.9126   25.9876 C   0  0  2  0  0  0  0  0  0  0  0  0
    8.6051  -12.8177   25.8888 C   0  0  0  0  0  0  0  0  0  0  0  0
    7.8939  -15.0517   25.0397 C   0  0  2  0  0  0  0  0  0  0  0  0
    6.9222  -16.1328   25.2874 N   0  0  0  0  0  0  0  0  0  0  0  0
    9.2511  -15.5706   25.3149 C   0  0  0  0  0  0  0  0  0  0  0  0
    9.6390  -15.6298   26.5409 O   0  0  0  0  0  0  0  0  0  0  0  0
   10.1741  -16.0183   24.3418 N   0  0  0  0  0  0  0  0  0  0  0  0
   11.5350  -16.3737   24.7890 C   0  0  0  0  0  0  0  0  0  0  0  0
   12.5223  -15.8836   23.7957 C   0  0  0  0  0  0  0  0  0  0  0  0
   13.8628  -15.8455   24.1004 O   0  0  0  0  0  0  0  0  0  0  0  0
   12.1443  -15.4970   22.6625 O   0  0  0  0  0  0  0  0  0  0  0  0
  1  2  1  0
  2  3  2  0
  4  2  1  0
  5  4  1  0
  6  5  1  0
  6  7  1  6
  8  6  1  0
  8  9  2  0
 10 11  1  0
 11 12  1  0
 12 14  1  0
 12 13  1  6
 14 15  1  1
 14 16  1  0
 15  8  1  0
 16 18  1  0
 17 16  2  0
 18 19  1  0
 19 20  1  0
 20 21  1  0
 22 20  2  0
M  END
$$$$
