QIG.pdb
     RDKit          3D

 22 21  0  0  1  0  0  0  0  0999 V2000
    7.1610  -12.7845   18.1486 N   0  0  0  0  0  0  0  0  0  0  0  0
    7.8518  -14.0299   18.2525 C   0  0  0  0  0  0  0  0  0  0  0  0
    8.7275  -14.2475   17.3834 O   0  0  0  0  0  0  0  0  0  0  0  0
    7.5613  -15.0068   19.3047 C   0  0  0  0  0  0  0  0  0  0  0  0
    8.5050  -15.0513   20.4616 C   0  0  0  0  0  0  0  0  0  0  0  0
    7.8291  -15.4315   21.7259 C   0  0  2  0  0  0  0  0  0  0  0  0
    6.4034  -15.5561   21.6543 N   0  0  0  0  0  0  0  0  0  0  0  0
    8.2385  -14.5586   22.8759 C   0  0  0  0  0  0  0  0  0  0  0  0
    8.3022  -13.3175   22.7080 O   0  0  0  0  0  0  0  0  0  0  0  0
    6.3568  -11.6896   26.8466 C   0  0  0  0  0  0  0  0  0  0  0  0
    7.6420  -12.4870   26.7540 C   0  0  0  0  0  0  0  0  0  0  0  0
    7.4741  -13.4472   25.5804 C   0  0  2  0  0  0  0  0  0  0  0  0
    6.3433  -14.3809   25.8605 C   0  0  0  0  0  0  0  0  0  0  0  0
    8.7663  -14.1825   25.3064 C   0  0  2  0  0  0  0  0  0  0  0  0
    8.5593  -15.0768   24.1525 N   0  0  0  0  0  0  0  0  0  0  0  0
    9.1150  -15.0090   26.4821 C   0  0  0  0  0  0  0  0  0  0  0  0
    9.3738  -14.4064   27.5898 O   0  0  0  0  0  0  0  0  0  0  0  0
    9.1873  -16.4210   26.5034 N   0  0  0  0  0  0  0  0  0  0  0  0
    9.6617  -17.0721   27.7401 C   0  0  0  0  0  0  0  0  0  0  0  0
    9.5523  -18.5446   27.5932 C   0  0  0  0  0  0  0  0  0  0  0  0
    9.4550  -19.3538   28.7008 O   0  0  0  0  0  0  0  0  0  0  0  0
    9.5472  -19.0701   26.4529 O   0  0  0  0  0  0  0  0  0  0  0  0
  1  2  1  0
  2  3  2  0
  4  2  1  0
  5  4  1  0
  6  5  1  0
  6  7  1  6
  8  6  1  0
  8  9  2  0
 10 11  1  0
 11 12  1  0
 12 14  1  0
 12 13  1  1
 14 15  1  6
 14 16  1  0
 15  8  1  0
 16 18  1  0
 17 16  2  0
 18 19  1  0
 19 20  1  0
 20 21  1  0
 22 20  2  0
M  END
$$$$
