QIG.pdb
     RDKit          3D

 22 21  0  0  1  0  0  0  0  0999 V2000
    6.7051  -19.6308   26.4827 N   0  0  0  0  0  0  0  0  0  0  0  0
    7.0881  -20.0420   25.1699 C   0  0  0  0  0  0  0  0  0  0  0  0
    7.8906  -21.0019   25.1062 O   0  0  0  0  0  0  0  0  0  0  0  0
    6.5841  -19.3869   23.9606 C   0  0  0  0  0  0  0  0  0  0  0  0
    5.5893  -18.2895   24.1539 C   0  0  0  0  0  0  0  0  0  0  0  0
    5.7734  -17.1843   23.1819 C   0  0  2  0  0  0  0  0  0  0  0  0
    5.9718  -17.5825   21.8198 N   0  0  0  0  0  0  0  0  0  0  0  0
    6.8277  -16.2101   23.6196 C   0  0  0  0  0  0  0  0  0  0  0  0
    7.8966  -16.1337   22.9684 O   0  0  0  0  0  0  0  0  0  0  0  0
    5.4710  -11.9795   26.8076 C   0  0  0  0  0  0  0  0  0  0  0  0
    6.1827  -12.6516   25.6509 C   0  0  0  0  0  0  0  0  0  0  0  0
    7.2390  -13.5664   26.2630 C   0  0  2  0  0  0  0  0  0  0  0  0
    8.3167  -12.7375   26.8798 C   0  0  0  0  0  0  0  0  0  0  0  0
    7.7793  -14.5233   25.2247 C   0  0  2  0  0  0  0  0  0  0  0  0
    6.6693  -15.3665   24.7440 N   0  0  0  0  0  0  0  0  0  0  0  0
    8.7943  -15.3982   25.8501 C   0  0  0  0  0  0  0  0  0  0  0  0
    8.4870  -15.9900   26.9512 O   0  0  0  0  0  0  0  0  0  0  0  0
   10.0888  -15.6518   25.3407 N   0  0  0  0  0  0  0  0  0  0  0  0
   10.9411  -16.6164   26.0630 C   0  0  0  0  0  0  0  0  0  0  0  0
   12.2680  -16.6900   25.4029 C   0  0  0  0  0  0  0  0  0  0  0  0
   12.5300  -15.9521   24.2725 O   0  0  0  0  0  0  0  0  0  0  0  0
   13.1692  -17.4288   25.8702 O   0  0  0  0  0  0  0  0  0  0  0  0
  1  2  1  0
  2  3  2  0
  4  2  1  0
  5  4  1  0
  6  5  1  0
  6  7  1  6
  8  6  1  0
  8  9  2  0
 10 11  1  0
 11 12  1  0
 12 14  1  0
 12 13  1  6
 14 15  1  1
 14 16  1  0
 15  8  1  0
 16 18  1  0
 17 16  2  0
 18 19  1  0
 19 20  1  0
 20 21  1  0
 22 20  2  0
M  END
$$$$
