QIG.pdb
     RDKit          3D

 22 21  0  0  1  0  0  0  0  0999 V2000
    4.2891  -18.5526   19.7694 N   0  0  0  0  0  0  0  0  0  0  0  0
    3.4659  -18.3351   20.9158 C   0  0  0  0  0  0  0  0  0  0  0  0
    2.2294  -18.3399   20.7140 O   0  0  0  0  0  0  0  0  0  0  0  0
    4.0202  -18.1137   22.2534 C   0  0  0  0  0  0  0  0  0  0  0  0
    5.5091  -18.0856   22.3693 C   0  0  0  0  0  0  0  0  0  0  0  0
    5.9620  -17.9010   23.7695 C   0  0  2  0  0  0  0  0  0  0  0  0
    4.9371  -17.9753   24.7682 N   0  0  0  0  0  0  0  0  0  0  0  0
    6.7953  -16.6647   23.9407 C   0  0  0  0  0  0  0  0  0  0  0  0
    7.3262  -16.1418   22.9322 O   0  0  0  0  0  0  0  0  0  0  0  0
    5.7722  -12.4758   27.0901 C   0  0  0  0  0  0  0  0  0  0  0  0
    6.3607  -13.2023   25.8977 C   0  0  0  0  0  0  0  0  0  0  0  0
    7.5270  -14.0316   26.4262 C   0  0  2  0  0  0  0  0  0  0  0  0
    8.6082  -13.1198   26.9044 C   0  0  0  0  0  0  0  0  0  0  0  0
    8.0182  -14.9928   25.3677 C   0  0  2  0  0  0  0  0  0  0  0  0
    7.0114  -16.0569   25.1996 N   0  0  0  0  0  0  0  0  0  0  0  0
    9.2822  -15.6122   25.8213 C   0  0  0  0  0  0  0  0  0  0  0  0
   10.3312  -14.8689   25.8851 O   0  0  0  0  0  0  0  0  0  0  0  0
    9.4464  -16.9643   26.2010 N   0  0  0  0  0  0  0  0  0  0  0  0
   10.7669  -17.3866   26.7074 C   0  0  0  0  0  0  0  0  0  0  0  0
   10.6358  -17.8192   28.1207 C   0  0  0  0  0  0  0  0  0  0  0  0
   11.7472  -18.1626   28.8542 O   0  0  0  0  0  0  0  0  0  0  0  0
    9.5057  -17.8768   28.6647 O   0  0  0  0  0  0  0  0  0  0  0  0
  1  2  1  0
  2  3  2  0
  4  2  1  0
  5  4  1  0
  6  5  1  0
  6  7  1  1
  8  6  1  0
  8  9  2  0
 10 11  1  0
 11 12  1  0
 12 14  1  0
 12 13  1  6
 14 15  1  1
 14 16  1  0
 15  8  1  0
 16 18  1  0
 17 16  2  0
 18 19  1  0
 19 20  1  0
 20 21  1  0
 22 20  2  0
M  END
$$$$
