QIG.pdb
     RDKit          3D

 22 21  0  0  1  0  0  0  0  0999 V2000
    7.2260  -17.6884   26.7598 N   0  0  0  0  0  0  0  0  0  0  0  0
    7.3263  -19.0041   26.2140 C   0  0  0  0  0  0  0  0  0  0  0  0
    8.0928  -19.7921   26.8150 O   0  0  0  0  0  0  0  0  0  0  0  0
    6.5865  -19.4205   25.0203 C   0  0  0  0  0  0  0  0  0  0  0  0
    5.6403  -18.4252   24.4331 C   0  0  0  0  0  0  0  0  0  0  0  0
    5.6184  -18.4746   22.9508 C   0  0  2  0  0  0  0  0  0  0  0  0
    5.4136  -19.7712   22.3762 N   0  0  0  0  0  0  0  0  0  0  0  0
    6.8086  -17.7943   22.3403 C   0  0  0  0  0  0  0  0  0  0  0  0
    7.6213  -18.4726   21.6680 O   0  0  0  0  0  0  0  0  0  0  0  0
    6.4099  -12.7009   20.7339 C   0  0  0  0  0  0  0  0  0  0  0  0
    6.8206  -14.1584   20.6801 C   0  0  0  0  0  0  0  0  0  0  0  0
    7.9723  -14.3222   21.6672 C   0  0  2  0  0  0  0  0  0  0  0  0
    9.1694  -13.5885   21.1596 C   0  0  0  0  0  0  0  0  0  0  0  0
    8.2610  -15.7864   21.9087 C   0  0  2  0  0  0  0  0  0  0  0  0
    7.0579  -16.4100   22.4902 N   0  0  0  0  0  0  0  0  0  0  0  0
    9.3684  -15.9105   22.8809 C   0  0  0  0  0  0  0  0  0  0  0  0
    9.1903  -15.4364   24.0643 O   0  0  0  0  0  0  0  0  0  0  0  0
   10.6217  -16.5145   22.6282 N   0  0  0  0  0  0  0  0  0  0  0  0
   11.6214  -16.5170   23.7141 C   0  0  0  0  0  0  0  0  0  0  0  0
   12.9613  -16.2220   23.1491 C   0  0  0  0  0  0  0  0  0  0  0  0
   14.0593  -16.1131   23.9699 O   0  0  0  0  0  0  0  0  0  0  0  0
   13.1085  -16.0679   21.9117 O   0  0  0  0  0  0  0  0  0  0  0  0
  1  2  1  0
  2  3  2  0
  4  2  1  0
  5  4  1  0
  6  5  1  0
  6  7  1  1
  8  6  1  0
  8  9  2  0
 10 11  1  0
 11 12  1  0
 12 14  1  0
 12 13  1  6
 14 15  1  1
 14 16  1  0
 15  8  1  0
 16 18  1  0
 17 16  2  0
 18 19  1  0
 19 20  1  0
 20 21  1  0
 22 20  2  0
M  END
$$$$
