QIG.pdb
     RDKit          3D

 22 21  0  0  1  0  0  0  0  0999 V2000
    6.6274  -19.5685   21.4990 N   0  0  0  0  0  0  0  0  0  0  0  0
    6.5217  -18.7135   20.3602 C   0  0  0  0  0  0  0  0  0  0  0  0
    6.0649  -19.2385   19.3185 O   0  0  0  0  0  0  0  0  0  0  0  0
    6.9238  -17.3053   20.3921 C   0  0  0  0  0  0  0  0  0  0  0  0
    7.3469  -16.7555   21.7148 C   0  0  0  0  0  0  0  0  0  0  0  0
    7.7140  -15.3205   21.6374 C   0  0  2  0  0  0  0  0  0  0  0  0
    8.4769  -14.9364   20.4869 N   0  0  0  0  0  0  0  0  0  0  0  0
    8.3556  -14.8273   22.9011 C   0  0  0  0  0  0  0  0  0  0  0  0
    9.5994  -14.6706   22.9335 O   0  0  0  0  0  0  0  0  0  0  0  0
    5.7624  -11.2809   25.9379 C   0  0  0  0  0  0  0  0  0  0  0  0
    6.8639  -11.9878   25.1744 C   0  0  0  0  0  0  0  0  0  0  0  0
    7.3136  -13.1579   26.0439 C   0  0  2  0  0  0  0  0  0  0  0  0
    7.8997  -12.6361   27.3141 C   0  0  0  0  0  0  0  0  0  0  0  0
    8.2822  -14.0395   25.2889 C   0  0  2  0  0  0  0  0  0  0  0  0
    7.6146  -14.5288   24.0685 N   0  0  0  0  0  0  0  0  0  0  0  0
    8.6355  -15.2049   26.1279 C   0  0  0  0  0  0  0  0  0  0  0  0
    9.2653  -14.9884   27.2295 O   0  0  0  0  0  0  0  0  0  0  0  0
    8.3374  -16.5546   25.8296 N   0  0  0  0  0  0  0  0  0  0  0  0
    8.7656  -17.5881   26.7924 C   0  0  0  0  0  0  0  0  0  0  0  0
   10.2204  -17.8337   26.6350 C   0  0  0  0  0  0  0  0  0  0  0  0
   10.8655  -18.7531   27.4286 O   0  0  0  0  0  0  0  0  0  0  0  0
   10.8810  -17.2034   25.7732 O   0  0  0  0  0  0  0  0  0  0  0  0
  1  2  1  0
  2  3  2  0
  4  2  1  0
  5  4  1  0
  6  5  1  0
  6  7  1  6
  8  6  1  0
  8  9  2  0
 10 11  1  0
 11 12  1  0
 12 14  1  0
 12 13  1  1
 14 15  1  6
 14 16  1  0
 15  8  1  0
 16 18  1  0
 17 16  2  0
 18 19  1  0
 19 20  1  0
 20 21  1  0
 22 20  2  0
M  END
$$$$
