QIG.pdb
     RDKit          3D

 22 21  0  0  1  0  0  0  0  0999 V2000
    8.1031  -12.4506   18.2281 N   0  0  0  0  0  0  0  0  0  0  0  0
    7.8032  -13.8399   18.0897 C   0  0  0  0  0  0  0  0  0  0  0  0
    7.7292  -14.2725   16.9164 O   0  0  0  0  0  0  0  0  0  0  0  0
    7.5880  -14.7181   19.2421 C   0  0  0  0  0  0  0  0  0  0  0  0
    7.7063  -14.0956   20.5947 C   0  0  0  0  0  0  0  0  0  0  0  0
    8.0166  -15.0922   21.6486 C   0  0  2  0  0  0  0  0  0  0  0  0
    6.9557  -15.9970   21.9786 N   0  0  0  0  0  0  0  0  0  0  0  0
    8.5897  -14.4578   22.8820 C   0  0  0  0  0  0  0  0  0  0  0  0
    9.5975  -13.7191   22.7766 O   0  0  0  0  0  0  0  0  0  0  0  0
    5.6111  -11.9330   26.2522 C   0  0  0  0  0  0  0  0  0  0  0  0
    6.8033  -12.3421   25.4112 C   0  0  0  0  0  0  0  0  0  0  0  0
    7.5371  -13.4257   26.1954 C   0  0  2  0  0  0  0  0  0  0  0  0
    8.0475  -12.8524   27.4760 C   0  0  0  0  0  0  0  0  0  0  0  0
    8.6430  -14.0294   25.3600 C   0  0  2  0  0  0  0  0  0  0  0  0
    8.0399  -14.6573   24.1700 N   0  0  0  0  0  0  0  0  0  0  0  0
    9.3291  -15.0782   26.1451 C   0  0  0  0  0  0  0  0  0  0  0  0
    9.8047  -14.7573   27.2975 O   0  0  0  0  0  0  0  0  0  0  0  0
    9.5101  -16.4216   25.7429 N   0  0  0  0  0  0  0  0  0  0  0  0
   10.0999  -17.3627   26.7150 C   0  0  0  0  0  0  0  0  0  0  0  0
   10.7092  -18.5032   25.9871 C   0  0  0  0  0  0  0  0  0  0  0  0
   10.7756  -18.5025   24.6136 O   0  0  0  0  0  0  0  0  0  0  0  0
   11.1724  -19.4846   26.6186 O   0  0  0  0  0  0  0  0  0  0  0  0
  1  2  1  0
  2  3  2  0
  4  2  1  0
  5  4  1  0
  6  5  1  0
  6  7  1  1
  8  6  1  0
  8  9  2  0
 10 11  1  0
 11 12  1  0
 12 14  1  0
 12 13  1  1
 14 15  1  6
 14 16  1  0
 15  8  1  0
 16 18  1  0
 17 16  2  0
 18 19  1  0
 19 20  1  0
 20 21  1  0
 22 20  2  0
M  END
$$$$
