QIG.pdb
     RDKit          3D

 22 21  0  0  1  0  0  0  0  0999 V2000
    8.0214  -12.6353   18.0663 N   0  0  0  0  0  0  0  0  0  0  0  0
    8.0238  -14.0574   17.9370 C   0  0  0  0  0  0  0  0  0  0  0  0
    7.8443  -14.5050   16.7807 O   0  0  0  0  0  0  0  0  0  0  0  0
    8.2188  -14.9522   19.0802 C   0  0  0  0  0  0  0  0  0  0  0  0
    8.3377  -14.3117   20.4243 C   0  0  0  0  0  0  0  0  0  0  0  0
    8.0656  -15.2640   21.5284 C   0  0  2  0  0  0  0  0  0  0  0  0
    6.7014  -15.6795   21.6675 N   0  0  0  0  0  0  0  0  0  0  0  0
    8.6233  -14.7913   22.8391 C   0  0  0  0  0  0  0  0  0  0  0  0
    9.8150  -14.4046   22.8916 O   0  0  0  0  0  0  0  0  0  0  0  0
    5.4439  -11.8289   25.7296 C   0  0  0  0  0  0  0  0  0  0  0  0
    6.6730  -12.3701   25.0279 C   0  0  0  0  0  0  0  0  0  0  0  0
    7.2798  -13.4156   25.9585 C   0  0  2  0  0  0  0  0  0  0  0  0
    7.7412  -12.7540   27.2150 C   0  0  0  0  0  0  0  0  0  0  0  0
    8.3963  -14.1615   25.2637 C   0  0  2  0  0  0  0  0  0  0  0  0
    7.8589  -14.7623   24.0290 N   0  0  0  0  0  0  0  0  0  0  0  0
    8.8760  -15.2495   26.1429 C   0  0  0  0  0  0  0  0  0  0  0  0
    9.4050  -14.9266   27.2712 O   0  0  0  0  0  0  0  0  0  0  0  0
    8.8023  -16.6322   25.8565 N   0  0  0  0  0  0  0  0  0  0  0  0
    9.2113  -17.5811   26.9105 C   0  0  0  0  0  0  0  0  0  0  0  0
   10.6647  -17.8538   26.7890 C   0  0  0  0  0  0  0  0  0  0  0  0
   11.2905  -18.7168   27.6578 O   0  0  0  0  0  0  0  0  0  0  0  0
   11.3418  -17.2984   25.8893 O   0  0  0  0  0  0  0  0  0  0  0  0
  1  2  1  0
  2  3  2  0
  4  2  1  0
  5  4  1  0
  6  5  1  0
  6  7  1  1
  8  6  1  0
  8  9  2  0
 10 11  1  0
 11 12  1  0
 12 14  1  0
 12 13  1  1
 14 15  1  6
 14 16  1  0
 15  8  1  0
 16 18  1  0
 17 16  2  0
 18 19  1  0
 19 20  1  0
 20 21  1  0
 22 20  2  0
M  END
$$$$
