IQM.pdb
     RDKit          3D

 26 25  0  0  1  0  0  0  0  0999 V2000
    7.2776  -11.7802   19.2052 C   0  0  0  0  0  0  0  0  0  0  0  0
    7.3446  -13.2849   19.1747 C   0  0  0  0  0  0  0  0  0  0  0  0
    7.6546  -13.8822   20.5334 C   0  0  2  0  0  0  0  0  0  0  0  0
    8.9730  -13.3079   20.9760 C   0  0  0  0  0  0  0  0  0  0  0  0
    7.6776  -15.3853   20.3569 C   0  0  2  0  0  0  0  0  0  0  0  0
    6.2966  -15.7481   19.9922 N   0  0  0  0  0  0  0  0  0  0  0  0
    7.9778  -16.1136   21.6154 C   0  0  0  0  0  0  0  0  0  0  0  0
    7.1210  -16.1796   22.5627 O   0  0  0  0  0  0  0  0  0  0  0  0
   12.6167  -20.2355   22.8804 N   0  0  0  0  0  0  0  0  0  0  0  0
   12.0975  -19.9633   24.1654 C   0  0  0  0  0  0  0  0  0  0  0  0
   12.6289  -20.6180   25.1241 O   0  0  0  0  0  0  0  0  0  0  0  0
   11.0004  -18.9774   24.3984 C   0  0  0  0  0  0  0  0  0  0  0  0
   10.6469  -18.3774   23.0511 C   0  0  0  0  0  0  0  0  0  0  0  0
    9.5047  -17.3923   23.1698 C   0  0  2  0  0  0  0  0  0  0  0  0
    9.1914  -16.7853   21.8923 N   0  0  0  0  0  0  0  0  0  0  0  0
    9.7255  -16.3942   24.2323 C   0  0  0  0  0  0  0  0  0  0  0  0
   10.6723  -15.5628   24.0506 O   0  0  0  0  0  0  0  0  0  0  0  0
    7.0269  -10.8464   26.3603 C   0  0  0  0  0  0  0  0  0  0  0  0
    6.3909  -12.5067   26.0050 S   0  0  0  0  0  0  0  0  0  0  0  0
    7.7645  -13.6119   25.5235 C   0  0  0  0  0  0  0  0  0  0  0  0
    8.1131  -14.4437   26.7200 C   0  0  0  0  0  0  0  0  0  0  0  0
    9.2526  -15.4028   26.4484 C   0  0  2  0  0  0  0  0  0  0  0  0
    8.9363  -16.3444   25.4040 N   0  0  0  0  0  0  0  0  0  0  0  0
    9.6578  -16.1088   27.6927 C   0  0  0  0  0  0  0  0  0  0  0  0
    9.6127  -17.4945   27.7490 O   0  0  0  0  0  0  0  0  0  0  0  0
   10.0470  -15.4920   28.7158 O   0  0  0  0  0  0  0  0  0  0  0  0
  1  2  1  0
  3  5  1  0
  3  2  1  0
  3  4  1  6
  5  6  1  1
  7  5  1  0
  7  8  2  0
  9 10  1  0
 10 11  2  0
 12 10  1  0
 12 13  1  0
 14 13  1  6
 14 15  1  0
 15  7  1  0
 16 14  1  0
 17 16  2  0
 19 18  1  0
 19 20  1  0
 21 20  1  0
 22 21  1  1
 22 23  1  0
 23 16  1  0
 24 25  1  0
 24 22  1  0
 26 24  2  0
M  END
$$$$
