IQM.pdb
     RDKit          3D

 26 25  0  0  1  0  0  0  0  0999 V2000
    7.2191  -11.8340   19.5264 C   0  0  0  0  0  0  0  0  0  0  0  0
    7.6384  -13.2700   19.3477 C   0  0  0  0  0  0  0  0  0  0  0  0
    7.8374  -13.9877   20.6684 C   0  0  2  0  0  0  0  0  0  0  0  0
    8.8606  -13.2041   21.4451 C   0  0  0  0  0  0  0  0  0  0  0  0
    8.2771  -15.3982   20.3392 C   0  0  2  0  0  0  0  0  0  0  0  0
    7.1239  -16.0072   19.6529 N   0  0  0  0  0  0  0  0  0  0  0  0
    8.5245  -16.2264   21.5464 C   0  0  0  0  0  0  0  0  0  0  0  0
    7.5561  -16.7220   22.2192 O   0  0  0  0  0  0  0  0  0  0  0  0
   12.6731  -20.4674   22.6047 N   0  0  0  0  0  0  0  0  0  0  0  0
   11.4621  -20.4510   21.8781 C   0  0  0  0  0  0  0  0  0  0  0  0
   11.3096  -21.4024   21.0403 O   0  0  0  0  0  0  0  0  0  0  0  0
   10.4225  -19.3962   22.0690 C   0  0  0  0  0  0  0  0  0  0  0  0
   10.9516  -18.4333   23.1146 C   0  0  0  0  0  0  0  0  0  0  0  0
   10.0172  -17.2585   23.3041 C   0  0  2  0  0  0  0  0  0  0  0  0
    9.8027  -16.5444   22.0620 N   0  0  0  0  0  0  0  0  0  0  0  0
   10.4391  -16.3703   24.4026 C   0  0  0  0  0  0  0  0  0  0  0  0
   11.0896  -15.3252   24.0778 O   0  0  0  0  0  0  0  0  0  0  0  0
    6.0548  -12.5767   27.4063 C   0  0  0  0  0  0  0  0  0  0  0  0
    7.8566  -12.6613   27.2227 S   0  0  0  0  0  0  0  0  0  0  0  0
    8.3488  -14.3268   26.6535 C   0  0  0  0  0  0  0  0  0  0  0  0
    9.8380  -14.3234   26.4876 C   0  0  0  0  0  0  0  0  0  0  0  0
   10.4574  -15.6745   26.7760 C   0  0  2  0  0  0  0  0  0  0  0  0
   10.1465  -16.6460   25.7578 N   0  0  0  0  0  0  0  0  0  0  0  0
   10.0512  -16.1668   28.1191 C   0  0  0  0  0  0  0  0  0  0  0  0
    9.3499  -17.3582   28.2372 O   0  0  0  0  0  0  0  0  0  0  0  0
   10.3213  -15.5374   29.1724 O   0  0  0  0  0  0  0  0  0  0  0  0
  1  2  1  0
  3  5  1  0
  3  2  1  0
  3  4  1  1
  5  6  1  6
  7  5  1  0
  7  8  2  0
  9 10  1  0
 10 11  2  0
 12 10  1  0
 12 13  1  0
 14 13  1  6
 14 15  1  0
 15  7  1  0
 16 14  1  0
 17 16  2  0
 19 18  1  0
 19 20  1  0
 21 20  1  0
 22 21  1  6
 22 23  1  0
 23 16  1  0
 24 25  1  0
 24 22  1  0
 26 24  2  0
M  END
$$$$
