IQM.pdb
     RDKit          3D

 26 25  0  0  1  0  0  0  0  0999 V2000
    7.5802  -12.1455   20.7077 C   0  0  0  0  0  0  0  0  0  0  0  0
    7.5470  -13.6217   20.4083 C   0  0  0  0  0  0  0  0  0  0  0  0
    8.5091  -14.0143   19.3042 C   0  0  2  0  0  0  0  0  0  0  0  0
    8.1072  -13.2437   18.0760 C   0  0  0  0  0  0  0  0  0  0  0  0
    8.3996  -15.5151   19.1402 C   0  0  2  0  0  0  0  0  0  0  0  0
    6.9927  -15.7577   18.7750 N   0  0  0  0  0  0  0  0  0  0  0  0
    8.6321  -16.2563   20.4055 C   0  0  0  0  0  0  0  0  0  0  0  0
    7.6550  -16.6605   21.1252 O   0  0  0  0  0  0  0  0  0  0  0  0
   13.4917  -19.8606   22.0893 N   0  0  0  0  0  0  0  0  0  0  0  0
   12.4573  -20.0925   21.1560 C   0  0  0  0  0  0  0  0  0  0  0  0
   12.7018  -20.9811   20.2724 O   0  0  0  0  0  0  0  0  0  0  0  0
   11.1603  -19.3534   21.1912 C   0  0  0  0  0  0  0  0  0  0  0  0
   11.3493  -18.1655   22.1151 C   0  0  0  0  0  0  0  0  0  0  0  0
   10.1048  -17.3068   22.1692 C   0  0  2  0  0  0  0  0  0  0  0  0
    9.9043  -16.5829   20.9305 N   0  0  0  0  0  0  0  0  0  0  0  0
   10.0750  -16.4261   23.3512 C   0  0  0  0  0  0  0  0  0  0  0  0
   10.4173  -15.2131   23.1717 O   0  0  0  0  0  0  0  0  0  0  0  0
    6.4768  -11.6562   27.3198 C   0  0  0  0  0  0  0  0  0  0  0  0
    6.7920  -12.8767   26.0166 S   0  0  0  0  0  0  0  0  0  0  0  0
    8.1066  -14.0305   26.5462 C   0  0  0  0  0  0  0  0  0  0  0  0
    8.3882  -14.9496   25.3968 C   0  0  0  0  0  0  0  0  0  0  0  0
    9.4867  -15.9449   25.7050 C   0  0  2  0  0  0  0  0  0  0  0  0
    9.6884  -16.8849   24.6312 N   0  0  0  0  0  0  0  0  0  0  0  0
    9.2157  -16.6527   26.9843 C   0  0  0  0  0  0  0  0  0  0  0  0
    9.6523  -16.1079   28.1834 O   0  0  0  0  0  0  0  0  0  0  0  0
    8.5960  -17.7449   27.0267 O   0  0  0  0  0  0  0  0  0  0  0  0
  1  2  1  0
  3  5  1  0
  3  2  1  0
  3  4  1  6
  5  6  1  1
  7  5  1  0
  7  8  2  0
  9 10  1  0
 10 11  2  0
 12 10  1  0
 12 13  1  0
 14 13  1  6
 14 15  1  0
 15  7  1  0
 16 14  1  0
 17 16  2  0
 19 18  1  0
 19 20  1  0
 21 20  1  0
 22 21  1  6
 22 23  1  0
 23 16  1  0
 24 25  1  0
 24 22  1  0
 26 24  2  0
M  END
$$$$
