IQM.pdb
     RDKit          3D

 26 25  0  0  1  0  0  0  0  0999 V2000
    7.4386  -11.6368   19.0602 C   0  0  0  0  0  0  0  0  0  0  0  0
    7.8860  -13.0429   18.7558 C   0  0  0  0  0  0  0  0  0  0  0  0
    7.8433  -13.9447   19.9739 C   0  0  2  0  0  0  0  0  0  0  0  0
    8.7013  -13.3004   21.0286 C   0  0  0  0  0  0  0  0  0  0  0  0
    8.3446  -15.3028   19.5319 C   0  0  2  0  0  0  0  0  0  0  0  0
    7.2856  -15.8341   18.6556 N   0  0  0  0  0  0  0  0  0  0  0  0
    8.4758  -16.2669   20.6533 C   0  0  0  0  0  0  0  0  0  0  0  0
    7.4449  -16.7317   21.2510 O   0  0  0  0  0  0  0  0  0  0  0  0
   13.1008  -20.1817   22.3113 N   0  0  0  0  0  0  0  0  0  0  0  0
   12.4044  -20.0365   23.5314 C   0  0  0  0  0  0  0  0  0  0  0  0
   12.8550  -20.7246   24.5080 O   0  0  0  0  0  0  0  0  0  0  0  0
   11.2190  -19.1407   23.6805 C   0  0  0  0  0  0  0  0  0  0  0  0
   10.9990  -18.4661   22.3400 C   0  0  0  0  0  0  0  0  0  0  0  0
    9.8212  -17.5175   22.3879 C   0  0  2  0  0  0  0  0  0  0  0  0
    9.7020  -16.7560   21.1614 N   0  0  0  0  0  0  0  0  0  0  0  0
    9.8321  -16.6609   23.5878 C   0  0  0  0  0  0  0  0  0  0  0  0
   10.7579  -15.7902   23.6628 O   0  0  0  0  0  0  0  0  0  0  0  0
    7.0957  -10.9032   26.5782 C   0  0  0  0  0  0  0  0  0  0  0  0
    6.6952  -12.6688   26.4819 S   0  0  0  0  0  0  0  0  0  0  0  0
    8.2115  -13.6365   26.1586 C   0  0  0  0  0  0  0  0  0  0  0  0
    7.8074  -15.0726   26.0194 C   0  0  0  0  0  0  0  0  0  0  0  0
    8.9928  -15.9923   25.8163 C   0  0  2  0  0  0  0  0  0  0  0  0
    8.8711  -16.7828   24.6173 N   0  0  0  0  0  0  0  0  0  0  0  0
    9.1976  -16.8617   27.0051 C   0  0  0  0  0  0  0  0  0  0  0  0
    9.8691  -16.3701   28.1154 O   0  0  0  0  0  0  0  0  0  0  0  0
    8.7805  -18.0461   27.0480 O   0  0  0  0  0  0  0  0  0  0  0  0
  1  2  1  0
  3  5  1  0
  3  2  1  0
  3  4  1  1
  5  6  1  6
  7  5  1  0
  7  8  2  0
  9 10  1  0
 10 11  2  0
 12 10  1  0
 12 13  1  0
 14 13  1  6
 14 15  1  0
 15  7  1  0
 16 14  1  0
 17 16  2  0
 19 18  1  0
 19 20  1  0
 21 20  1  0
 22 21  1  1
 22 23  1  0
 23 16  1  0
 24 25  1  0
 24 22  1  0
 26 24  2  0
M  END
$$$$
