IQM.pdb
     RDKit          3D

 26 25  0  0  1  0  0  0  0  0999 V2000
    7.2434  -12.1897   18.9838 C   0  0  0  0  0  0  0  0  0  0  0  0
    7.7173  -13.6198   18.9794 C   0  0  0  0  0  0  0  0  0  0  0  0
    7.8342  -14.1994   20.3755 C   0  0  2  0  0  0  0  0  0  0  0  0
    8.7597  -13.3000   21.1491 C   0  0  0  0  0  0  0  0  0  0  0  0
    8.3525  -15.6132   20.2215 C   0  0  2  0  0  0  0  0  0  0  0  0
    7.2582  -16.3519   19.5671 N   0  0  0  0  0  0  0  0  0  0  0  0
    8.5891  -16.2902   21.5215 C   0  0  0  0  0  0  0  0  0  0  0  0
    7.6155  -16.7211   22.2304 O   0  0  0  0  0  0  0  0  0  0  0  0
   13.2129  -19.9574   23.3516 N   0  0  0  0  0  0  0  0  0  0  0  0
   12.5452  -19.7390   24.5768 C   0  0  0  0  0  0  0  0  0  0  0  0
   12.9776  -20.4174   25.5683 O   0  0  0  0  0  0  0  0  0  0  0  0
   11.4082  -18.7809   24.7146 C   0  0  0  0  0  0  0  0  0  0  0  0
   11.1958  -18.1429   23.3551 C   0  0  0  0  0  0  0  0  0  0  0  0
   10.0639  -17.1395   23.3887 C   0  0  2  0  0  0  0  0  0  0  0  0
    9.8616  -16.5230   22.0935 N   0  0  0  0  0  0  0  0  0  0  0  0
   10.2167  -16.1489   24.4699 C   0  0  0  0  0  0  0  0  0  0  0  0
   11.0175  -15.1830   24.2542 O   0  0  0  0  0  0  0  0  0  0  0  0
    6.4489  -11.8305   26.1790 C   0  0  0  0  0  0  0  0  0  0  0  0
    7.1604  -12.2420   27.7950 S   0  0  0  0  0  0  0  0  0  0  0  0
    8.7566  -13.1040   27.5735 C   0  0  0  0  0  0  0  0  0  0  0  0
    8.4618  -14.4554   26.9975 C   0  0  0  0  0  0  0  0  0  0  0  0
    9.7172  -15.2554   26.7215 C   0  0  2  0  0  0  0  0  0  0  0  0
    9.5179  -16.2470   25.6948 N   0  0  0  0  0  0  0  0  0  0  0  0
   10.2309  -15.8809   27.9690 C   0  0  0  0  0  0  0  0  0  0  0  0
   10.8277  -15.0939   28.9436 O   0  0  0  0  0  0  0  0  0  0  0  0
   10.1460  -17.1161   28.1824 O   0  0  0  0  0  0  0  0  0  0  0  0
  1  2  1  0
  3  5  1  0
  3  2  1  0
  3  4  1  1
  5  6  1  6
  7  5  1  0
  7  8  2  0
  9 10  1  0
 10 11  2  0
 12 10  1  0
 12 13  1  0
 14 13  1  6
 14 15  1  0
 15  7  1  0
 16 14  1  0
 17 16  2  0
 19 18  1  0
 19 20  1  0
 21 20  1  0
 22 21  1  1
 22 23  1  0
 23 16  1  0
 24 25  1  0
 24 22  1  0
 26 24  2  0
M  END
$$$$
