IQM.pdb
     RDKit          3D

 26 25  0  0  1  0  0  0  0  0999 V2000
    6.9320  -12.5763   17.5092 C   0  0  0  0  0  0  0  0  0  0  0  0
    8.1889  -13.1320   18.1264 C   0  0  0  0  0  0  0  0  0  0  0  0
    7.9230  -13.8770   19.4199 C   0  0  2  0  0  0  0  0  0  0  0  0
    7.3164  -12.8896   20.3796 C   0  0  0  0  0  0  0  0  0  0  0  0
    9.2504  -14.4363   19.8849 C   0  0  2  0  0  0  0  0  0  0  0  0
    9.6395  -15.4085   18.8480 N   0  0  0  0  0  0  0  0  0  0  0  0
    9.1462  -15.2028   21.1521 C   0  0  0  0  0  0  0  0  0  0  0  0
    8.7607  -14.6421   22.2353 O   0  0  0  0  0  0  0  0  0  0  0  0
   11.3910  -20.9961   22.4403 N   0  0  0  0  0  0  0  0  0  0  0  0
   10.6454  -20.6937   23.6012 C   0  0  0  0  0  0  0  0  0  0  0  0
   10.6417  -21.5965   24.5040 O   0  0  0  0  0  0  0  0  0  0  0  0
    9.9070  -19.4071   23.7716 C   0  0  0  0  0  0  0  0  0  0  0  0
   10.0847  -18.6180   22.4885 C   0  0  0  0  0  0  0  0  0  0  0  0
    9.3385  -17.3029   22.5433 C   0  0  2  0  0  0  0  0  0  0  0  0
    9.4482  -16.5773   21.2943 N   0  0  0  0  0  0  0  0  0  0  0  0
    9.7180  -16.4843   23.7092 C   0  0  0  0  0  0  0  0  0  0  0  0
   10.7786  -15.7885   23.6010 O   0  0  0  0  0  0  0  0  0  0  0  0
    6.7543  -11.6538   25.8741 C   0  0  0  0  0  0  0  0  0  0  0  0
    7.0236  -12.4584   27.4764 S   0  0  0  0  0  0  0  0  0  0  0  0
    8.4167  -13.6353   27.3579 C   0  0  0  0  0  0  0  0  0  0  0  0
    8.1609  -14.5174   26.1741 C   0  0  0  0  0  0  0  0  0  0  0  0
    9.2760  -15.5147   25.9413 C   0  0  2  0  0  0  0  0  0  0  0  0
    8.9560  -16.4579   24.8996 N   0  0  0  0  0  0  0  0  0  0  0  0
    9.6282  -16.2185   27.2029 C   0  0  0  0  0  0  0  0  0  0  0  0
   10.2478  -15.5255   28.2331 O   0  0  0  0  0  0  0  0  0  0  0  0
    9.3839  -17.4383   27.3795 O   0  0  0  0  0  0  0  0  0  0  0  0
  1  2  1  0
  3  5  1  0
  3  2  1  0
  3  4  1  1
  5  6  1  6
  7  5  1  0
  7  8  2  0
  9 10  1  0
 10 11  2  0
 12 10  1  0
 12 13  1  0
 14 13  1  6
 14 15  1  0
 15  7  1  0
 16 14  1  0
 17 16  2  0
 19 18  1  0
 19 20  1  0
 21 20  1  0
 22 21  1  1
 22 23  1  0
 23 16  1  0
 24 25  1  0
 24 22  1  0
 26 24  2  0
M  END
$$$$
