IQM.pdb
     RDKit          3D

 26 25  0  0  1  0  0  0  0  0999 V2000
    6.0273  -11.9088   26.7159 C   0  0  0  0  0  0  0  0  0  0  0  0
    5.7608  -13.1359   25.8834 C   0  0  0  0  0  0  0  0  0  0  0  0
    7.0279  -13.8956   25.5426 C   0  0  2  0  0  0  0  0  0  0  0  0
    7.9431  -12.9311   24.8382 C   0  0  0  0  0  0  0  0  0  0  0  0
    6.6159  -15.0742   24.6870 C   0  0  2  0  0  0  0  0  0  0  0  0
    5.7643  -15.9010   25.5604 N   0  0  0  0  0  0  0  0  0  0  0  0
    7.7604  -15.9336   24.2918 C   0  0  0  0  0  0  0  0  0  0  0  0
    8.1481  -16.9017   25.0324 O   0  0  0  0  0  0  0  0  0  0  0  0
    9.8819  -17.5547   18.6754 N   0  0  0  0  0  0  0  0  0  0  0  0
   10.6796  -18.1518   19.6764 C   0  0  0  0  0  0  0  0  0  0  0  0
   10.9995  -19.3708   19.4715 O   0  0  0  0  0  0  0  0  0  0  0  0
   11.1248  -17.4158   20.8970 C   0  0  0  0  0  0  0  0  0  0  0  0
    9.9998  -16.4757   21.2856 C   0  0  0  0  0  0  0  0  0  0  0  0
    9.6327  -16.6303   22.7452 C   0  0  2  0  0  0  0  0  0  0  0  0
    8.5143  -15.7825   23.1046 N   0  0  0  0  0  0  0  0  0  0  0  0
   10.7892  -16.4529   23.6422 C   0  0  0  0  0  0  0  0  0  0  0  0
   11.4055  -15.3412   23.5707 O   0  0  0  0  0  0  0  0  0  0  0  0
   11.6004  -13.5052   29.7621 C   0  0  0  0  0  0  0  0  0  0  0  0
   11.0610  -14.0028   28.1041 S   0  0  0  0  0  0  0  0  0  0  0  0
   11.0882  -15.8244   27.9590 C   0  0  0  0  0  0  0  0  0  0  0  0
   10.6645  -16.1708   26.5642 C   0  0  0  0  0  0  0  0  0  0  0  0
   11.6437  -17.0955   25.8726 C   0  0  2  0  0  0  0  0  0  0  0  0
   11.2110  -17.4550   24.5457 N   0  0  0  0  0  0  0  0  0  0  0  0
   11.8959  -18.3090   26.6941 C   0  0  0  0  0  0  0  0  0  0  0  0
   11.1587  -19.4630   26.4696 O   0  0  0  0  0  0  0  0  0  0  0  0
   12.7651  -18.3346   27.6010 O   0  0  0  0  0  0  0  0  0  0  0  0
  1  2  1  0
  3  5  1  0
  3  2  1  0
  3  4  1  6
  5  6  1  1
  7  5  1  0
  7  8  2  0
  9 10  1  0
 10 11  2  0
 12 10  1  0
 12 13  1  0
 14 13  1  6
 14 15  1  0
 15  7  1  0
 16 14  1  0
 17 16  2  0
 19 18  1  0
 19 20  1  0
 21 20  1  0
 22 21  1  1
 22 23  1  0
 23 16  1  0
 24 25  1  0
 24 22  1  0
 26 24  2  0
M  END
$$$$
