IQM.pdb
     RDKit          3D

 26 25  0  0  1  0  0  0  0  0999 V2000
    5.9242  -11.5536   26.7047 C   0  0  0  0  0  0  0  0  0  0  0  0
    5.5689  -12.7721   25.8930 C   0  0  0  0  0  0  0  0  0  0  0  0
    6.7806  -13.6144   25.5452 C   0  0  2  0  0  0  0  0  0  0  0  0
    7.7489  -12.7158   24.8247 C   0  0  0  0  0  0  0  0  0  0  0  0
    6.2845  -14.7696   24.7023 C   0  0  2  0  0  0  0  0  0  0  0  0
    5.3617  -15.5128   25.5785 N   0  0  0  0  0  0  0  0  0  0  0  0
    7.3608  -15.7228   24.3317 C   0  0  0  0  0  0  0  0  0  0  0  0
    7.7895  -16.5938   25.1645 O   0  0  0  0  0  0  0  0  0  0  0  0
    9.2636  -18.5394   19.4511 N   0  0  0  0  0  0  0  0  0  0  0  0
   10.5435  -18.3369   20.0131 C   0  0  0  0  0  0  0  0  0  0  0  0
   11.4631  -19.1104   19.5817 O   0  0  0  0  0  0  0  0  0  0  0  0
   10.8140  -17.2908   21.0437 C   0  0  0  0  0  0  0  0  0  0  0  0
    9.5010  -16.5811   21.3137 C   0  0  0  0  0  0  0  0  0  0  0  0
    9.1685  -16.5813   22.7897 C   0  0  2  0  0  0  0  0  0  0  0  0
    8.0019  -15.7702   23.0717 N   0  0  0  0  0  0  0  0  0  0  0  0
   10.3248  -16.2226   23.6311 C   0  0  0  0  0  0  0  0  0  0  0  0
   11.1726  -15.4170   23.1278 O   0  0  0  0  0  0  0  0  0  0  0  0
   11.2311  -13.3542   29.4333 C   0  0  0  0  0  0  0  0  0  0  0  0
    9.9431  -14.3796   28.6740 S   0  0  0  0  0  0  0  0  0  0  0  0
   10.4013  -14.7842   26.9516 C   0  0  0  0  0  0  0  0  0  0  0  0
   11.4678  -15.8353   27.0050 C   0  0  0  0  0  0  0  0  0  0  0  0
   11.7242  -16.4714   25.6553 C   0  0  2  0  0  0  0  0  0  0  0  0
   10.5037  -16.7361   24.9359 N   0  0  0  0  0  0  0  0  0  0  0  0
   12.5331  -17.7108   25.7996 C   0  0  0  0  0  0  0  0  0  0  0  0
   12.0170  -18.9278   25.3778 O   0  0  0  0  0  0  0  0  0  0  0  0
   13.6867  -17.7029   26.2972 O   0  0  0  0  0  0  0  0  0  0  0  0
  1  2  1  0
  3  5  1  0
  3  2  1  0
  3  4  1  6
  5  6  1  1
  7  5  1  0
  7  8  2  0
  9 10  1  0
 10 11  2  0
 12 10  1  0
 12 13  1  0
 14 13  1  6
 14 15  1  0
 15  7  1  0
 16 14  1  0
 17 16  2  0
 19 18  1  0
 19 20  1  0
 21 20  1  0
 22 21  1  1
 22 23  1  0
 23 16  1  0
 24 25  1  0
 24 22  1  0
 26 24  2  0
M  END
$$$$
