IQM.pdb
     RDKit          3D

 26 25  0  0  1  0  0  0  0  0999 V2000
    7.1538  -11.7759   19.6833 C   0  0  0  0  0  0  0  0  0  0  0  0
    7.6069  -13.1690   19.3315 C   0  0  0  0  0  0  0  0  0  0  0  0
    7.9352  -14.0016   20.5554 C   0  0  2  0  0  0  0  0  0  0  0  0
    9.0160  -13.2726   21.3065 C   0  0  0  0  0  0  0  0  0  0  0  0
    8.3594  -15.3663   20.0565 C   0  0  2  0  0  0  0  0  0  0  0  0
    7.1393  -15.9582   19.4797 N   0  0  0  0  0  0  0  0  0  0  0  0
    8.7848  -16.2778   21.1486 C   0  0  0  0  0  0  0  0  0  0  0  0
    7.9263  -16.9065   21.8584 O   0  0  0  0  0  0  0  0  0  0  0  0
   13.5302  -20.1491   21.5628 N   0  0  0  0  0  0  0  0  0  0  0  0
   13.1031  -20.1304   22.9089 C   0  0  0  0  0  0  0  0  0  0  0  0
   13.6704  -20.9767   23.6785 O   0  0  0  0  0  0  0  0  0  0  0  0
   12.0585  -19.1880   23.4093 C   0  0  0  0  0  0  0  0  0  0  0  0
   11.6237  -18.3381   22.2308 C   0  0  0  0  0  0  0  0  0  0  0  0
   10.5159  -17.3837   22.6193 C   0  0  2  0  0  0  0  0  0  0  0  0
   10.1276  -16.5395   21.5080 N   0  0  0  0  0  0  0  0  0  0  0  0
   10.8339  -16.6107   23.8338 C   0  0  0  0  0  0  0  0  0  0  0  0
   11.2070  -15.4051   23.6652 O   0  0  0  0  0  0  0  0  0  0  0  0
    9.4676  -13.1321   28.7020 C   0  0  0  0  0  0  0  0  0  0  0  0
    9.0448  -13.4775   26.9731 S   0  0  0  0  0  0  0  0  0  0  0  0
    8.1150  -15.0467   26.8589 C   0  0  0  0  0  0  0  0  0  0  0  0
    8.7531  -15.8702   25.7820 C   0  0  0  0  0  0  0  0  0  0  0  0
   10.1075  -16.4103   26.1896 C   0  0  2  0  0  0  0  0  0  0  0  0
   10.7365  -17.1610   25.1322 N   0  0  0  0  0  0  0  0  0  0  0  0
   10.0006  -17.2271   27.4275 C   0  0  0  0  0  0  0  0  0  0  0  0
   10.5907  -16.7842   28.6028 O   0  0  0  0  0  0  0  0  0  0  0  0
    9.3868  -18.3230   27.4554 O   0  0  0  0  0  0  0  0  0  0  0  0
  1  2  1  0
  3  5  1  0
  3  2  1  0
  3  4  1  6
  5  6  1  1
  7  5  1  0
  7  8  2  0
  9 10  1  0
 10 11  2  0
 12 10  1  0
 12 13  1  0
 14 13  1  6
 14 15  1  0
 15  7  1  0
 16 14  1  0
 17 16  2  0
 19 18  1  0
 19 20  1  0
 21 20  1  0
 22 21  1  6
 22 23  1  0
 23 16  1  0
 24 25  1  0
 24 22  1  0
 26 24  2  0
M  END
$$$$
