IQM.pdb
     RDKit          3D

 26 25  0  0  1  0  0  0  0  0999 V2000
    8.1169  -11.7080   21.6890 C   0  0  0  0  0  0  0  0  0  0  0  0
    7.7235  -13.1558   21.8263 C   0  0  0  0  0  0  0  0  0  0  0  0
    8.1807  -13.9979   20.6514 C   0  0  2  0  0  0  0  0  0  0  0  0
    7.4231  -13.5165   19.4438 C   0  0  0  0  0  0  0  0  0  0  0  0
    7.8962  -15.4410   21.0090 C   0  0  2  0  0  0  0  0  0  0  0  0
    6.4564  -15.4805   21.3204 N   0  0  0  0  0  0  0  0  0  0  0  0
    8.5979  -15.8836   22.2403 C   0  0  0  0  0  0  0  0  0  0  0  0
    7.9954  -15.9230   23.3679 O   0  0  0  0  0  0  0  0  0  0  0  0
   13.8528  -19.8184   22.7416 N   0  0  0  0  0  0  0  0  0  0  0  0
   13.0445  -19.1238   21.8148 C   0  0  0  0  0  0  0  0  0  0  0  0
   13.5457  -18.9749   20.6500 O   0  0  0  0  0  0  0  0  0  0  0  0
   11.6924  -18.5947   22.1634 C   0  0  0  0  0  0  0  0  0  0  0  0
   11.8953  -17.4899   23.1824 C   0  0  0  0  0  0  0  0  0  0  0  0
   10.5934  -16.7871   23.4991 C   0  0  2  0  0  0  0  0  0  0  0  0
    9.9507  -16.2928   22.2986 N   0  0  0  0  0  0  0  0  0  0  0  0
   10.7487  -15.7438   24.5291 C   0  0  0  0  0  0  0  0  0  0  0  0
   10.2885  -14.5898   24.2508 O   0  0  0  0  0  0  0  0  0  0  0  0
    6.2128  -13.2700   26.3402 C   0  0  0  0  0  0  0  0  0  0  0  0
    7.3977  -13.5206   27.6895 S   0  0  0  0  0  0  0  0  0  0  0  0
    9.0786  -13.7507   27.0099 C   0  0  0  0  0  0  0  0  0  0  0  0
    9.2677  -15.2166   26.7646 C   0  0  0  0  0  0  0  0  0  0  0  0
   10.6943  -15.6655   27.0007 C   0  0  2  0  0  0  0  0  0  0  0  0
   11.3746  -15.9904   25.7723 N   0  0  0  0  0  0  0  0  0  0  0  0
   10.7387  -16.8099   27.9491 C   0  0  0  0  0  0  0  0  0  0  0  0
   11.1524  -16.6090   29.2583 O   0  0  0  0  0  0  0  0  0  0  0  0
   10.4112  -17.9742   27.6089 O   0  0  0  0  0  0  0  0  0  0  0  0
  1  2  1  0
  3  5  1  0
  3  2  1  0
  3  4  1  6
  5  6  1  1
  7  5  1  0
  7  8  2  0
  9 10  1  0
 10 11  2  0
 12 10  1  0
 12 13  1  0
 14 13  1  6
 14 15  1  0
 15  7  1  0
 16 14  1  0
 17 16  2  0
 19 18  1  0
 19 20  1  0
 21 20  1  0
 22 21  1  6
 22 23  1  0
 23 16  1  0
 24 25  1  0
 24 22  1  0
 26 24  2  0
M  END
$$$$
