IQM.pdb
     RDKit          3D

 26 25  0  0  1  0  0  0  0  0999 V2000
    7.5602  -11.8271   18.5832 C   0  0  0  0  0  0  0  0  0  0  0  0
    7.7104  -13.3252   18.6356 C   0  0  0  0  0  0  0  0  0  0  0  0
    7.9955  -13.8338   20.0352 C   0  0  2  0  0  0  0  0  0  0  0  0
    9.1782  -13.0603   20.5518 C   0  0  0  0  0  0  0  0  0  0  0  0
    8.2492  -15.3214   19.9180 C   0  0  2  0  0  0  0  0  0  0  0  0
    6.9728  -15.8909   19.4512 N   0  0  0  0  0  0  0  0  0  0  0  0
    8.5368  -15.9665   21.2240 C   0  0  0  0  0  0  0  0  0  0  0  0
    7.6210  -16.1164   22.1043 O   0  0  0  0  0  0  0  0  0  0  0  0
   12.9048  -20.2530   22.4134 N   0  0  0  0  0  0  0  0  0  0  0  0
   12.4007  -20.0111   23.7104 C   0  0  0  0  0  0  0  0  0  0  0  0
   12.8528  -20.7749   24.6283 O   0  0  0  0  0  0  0  0  0  0  0  0
   11.4051  -18.9365   24.0000 C   0  0  0  0  0  0  0  0  0  0  0  0
   11.0935  -18.2513   22.6833 C   0  0  0  0  0  0  0  0  0  0  0  0
   10.0318  -17.1869   22.8544 C   0  0  2  0  0  0  0  0  0  0  0  0
    9.8001  -16.4643   21.6205 N   0  0  0  0  0  0  0  0  0  0  0  0
   10.3060  -16.2910   23.9927 C   0  0  0  0  0  0  0  0  0  0  0  0
   11.2221  -15.4219   23.8311 O   0  0  0  0  0  0  0  0  0  0  0  0
    5.4455  -12.9366   26.3555 C   0  0  0  0  0  0  0  0  0  0  0  0
    7.1008  -13.1231   27.0712 S   0  0  0  0  0  0  0  0  0  0  0  0
    8.0140  -14.4431   26.1973 C   0  0  0  0  0  0  0  0  0  0  0  0
    9.3940  -14.4959   26.7787 C   0  0  0  0  0  0  0  0  0  0  0  0
   10.1343  -15.7619   26.4027 C   0  0  2  0  0  0  0  0  0  0  0  0
    9.5984  -16.3750   25.2136 N   0  0  0  0  0  0  0  0  0  0  0  0
   10.1451  -16.7248   27.5358 C   0  0  0  0  0  0  0  0  0  0  0  0
   10.7165  -16.3625   28.7473 O   0  0  0  0  0  0  0  0  0  0  0  0
    9.6492  -17.8753   27.4413 O   0  0  0  0  0  0  0  0  0  0  0  0
  1  2  1  0
  3  5  1  0
  3  2  1  0
  3  4  1  6
  5  6  1  1
  7  5  1  0
  7  8  2  0
  9 10  1  0
 10 11  2  0
 12 10  1  0
 12 13  1  0
 14 13  1  6
 14 15  1  0
 15  7  1  0
 16 14  1  0
 17 16  2  0
 19 18  1  0
 19 20  1  0
 21 20  1  0
 22 21  1  1
 22 23  1  0
 23 16  1  0
 24 25  1  0
 24 22  1  0
 26 24  2  0
M  END
$$$$
