IQM.pdb
     RDKit          3D

 26 25  0  0  1  0  0  0  0  0999 V2000
    7.6976  -12.3313   26.9570 C   0  0  0  0  0  0  0  0  0  0  0  0
    7.1830  -13.6476   26.4352 C   0  0  0  0  0  0  0  0  0  0  0  0
    6.6924  -13.5554   25.0036 C   0  0  2  0  0  0  0  0  0  0  0  0
    5.5058  -12.6302   25.0040 C   0  0  0  0  0  0  0  0  0  0  0  0
    6.3612  -14.9647   24.5618 C   0  0  2  0  0  0  0  0  0  0  0  0
    5.5149  -15.5129   25.6365 N   0  0  0  0  0  0  0  0  0  0  0  0
    7.5543  -15.8451   24.4852 C   0  0  0  0  0  0  0  0  0  0  0  0
    8.2689  -16.0832   25.5190 O   0  0  0  0  0  0  0  0  0  0  0  0
    7.4236  -12.8745   19.9633 N   0  0  0  0  0  0  0  0  0  0  0  0
    8.4249  -13.8598   19.8159 C   0  0  0  0  0  0  0  0  0  0  0  0
    9.3564  -13.5790   18.9891 O   0  0  0  0  0  0  0  0  0  0  0  0
    8.4050  -15.1474   20.5717 C   0  0  0  0  0  0  0  0  0  0  0  0
    9.1991  -14.9289   21.8453 C   0  0  0  0  0  0  0  0  0  0  0  0
    9.2763  -16.1950   22.6700 C   0  0  2  0  0  0  0  0  0  0  0  0
    8.0113  -16.4892   23.3117 N   0  0  0  0  0  0  0  0  0  0  0  0
   10.4043  -16.1850   23.6193 C   0  0  0  0  0  0  0  0  0  0  0  0
   11.5706  -16.0648   23.1232 O   0  0  0  0  0  0  0  0  0  0  0  0
   10.9966  -13.1221   28.3141 C   0  0  0  0  0  0  0  0  0  0  0  0
    9.9568  -14.4705   28.9370 S   0  0  0  0  0  0  0  0  0  0  0  0
    9.6678  -15.6984   27.6145 C   0  0  0  0  0  0  0  0  0  0  0  0
   10.9700  -16.3917   27.3522 C   0  0  0  0  0  0  0  0  0  0  0  0
   11.3669  -16.3484   25.8918 C   0  0  2  0  0  0  0  0  0  0  0  0
   10.2230  -16.3019   25.0163 N   0  0  0  0  0  0  0  0  0  0  0  0
   12.2495  -17.4951   25.5492 C   0  0  0  0  0  0  0  0  0  0  0  0
   11.8221  -18.4499   24.6376 O   0  0  0  0  0  0  0  0  0  0  0  0
   13.3882  -17.6393   26.0603 O   0  0  0  0  0  0  0  0  0  0  0  0
  1  2  1  0
  3  5  1  0
  3  2  1  0
  3  4  1  1
  5  6  1  1
  7  5  1  0
  7  8  2  0
  9 10  1  0
 10 11  2  0
 12 10  1  0
 12 13  1  0
 14 13  1  1
 14 15  1  0
 15  7  1  0
 16 14  1  0
 17 16  2  0
 19 18  1  0
 19 20  1  0
 21 20  1  0
 22 21  1  1
 22 23  1  0
 23 16  1  0
 24 25  1  0
 24 22  1  0
 26 24  2  0
M  END
$$$$
