IQM.pdb
     RDKit          3D

 26 25  0  0  1  0  0  0  0  0999 V2000
    6.9581  -11.7980   19.2559 C   0  0  0  0  0  0  0  0  0  0  0  0
    7.3035  -13.2617   19.1669 C   0  0  0  0  0  0  0  0  0  0  0  0
    7.6230  -13.8685   20.5192 C   0  0  2  0  0  0  0  0  0  0  0  0
    8.7829  -13.0952   21.0854 C   0  0  0  0  0  0  0  0  0  0  0  0
    7.9287  -15.3318   20.2822 C   0  0  2  0  0  0  0  0  0  0  0  0
    6.6639  -15.9125   19.7977 N   0  0  0  0  0  0  0  0  0  0  0  0
    8.2691  -16.0636   21.5284 C   0  0  0  0  0  0  0  0  0  0  0  0
    7.3892  -16.2779   22.4317 O   0  0  0  0  0  0  0  0  0  0  0  0
   13.0326  -20.0000   22.6984 N   0  0  0  0  0  0  0  0  0  0  0  0
   12.4632  -19.8381   23.9808 C   0  0  0  0  0  0  0  0  0  0  0  0
   12.9591  -20.5722   24.9002 O   0  0  0  0  0  0  0  0  0  0  0  0
   11.3549  -18.8755   24.2541 C   0  0  0  0  0  0  0  0  0  0  0  0
   11.0534  -18.1613   22.9505 C   0  0  0  0  0  0  0  0  0  0  0  0
    9.8750  -17.2236   23.0963 C   0  0  2  0  0  0  0  0  0  0  0  0
    9.5480  -16.5816   21.8396 N   0  0  0  0  0  0  0  0  0  0  0  0
   10.0517  -16.2582   24.1965 C   0  0  0  0  0  0  0  0  0  0  0  0
   10.3124  -15.0560   23.8686 O   0  0  0  0  0  0  0  0  0  0  0  0
    7.7226  -11.5931   25.3460 C   0  0  0  0  0  0  0  0  0  0  0  0
    7.2621  -12.4494   26.8764 S   0  0  0  0  0  0  0  0  0  0  0  0
    8.5957  -13.5944   27.3769 C   0  0  0  0  0  0  0  0  0  0  0  0
    8.7306  -14.6263   26.2989 C   0  0  0  0  0  0  0  0  0  0  0  0
    9.8458  -15.6123   26.5752 C   0  0  2  0  0  0  0  0  0  0  0  0
    9.9416  -16.6275   25.5566 N   0  0  0  0  0  0  0  0  0  0  0  0
    9.6884  -16.2256   27.9206 C   0  0  0  0  0  0  0  0  0  0  0  0
    9.9183  -15.4664   29.0592 O   0  0  0  0  0  0  0  0  0  0  0  0
    9.3496  -17.4258   28.0737 O   0  0  0  0  0  0  0  0  0  0  0  0
  1  2  1  0
  3  5  1  0
  3  2  1  0
  3  4  1  6
  5  6  1  1
  7  5  1  0
  7  8  2  0
  9 10  1  0
 10 11  2  0
 12 10  1  0
 12 13  1  0
 14 13  1  6
 14 15  1  0
 15  7  1  0
 16 14  1  0
 17 16  2  0
 19 18  1  0
 19 20  1  0
 21 20  1  0
 22 21  1  6
 22 23  1  0
 23 16  1  0
 24 25  1  0
 24 22  1  0
 26 24  2  0
M  END
$$$$
