IQM.pdb
     RDKit          3D

 26 25  0  0  1  0  0  0  0  0999 V2000
    8.4940  -12.2231   18.4627 C   0  0  0  0  0  0  0  0  0  0  0  0
    7.3363  -13.1662   18.6632 C   0  0  0  0  0  0  0  0  0  0  0  0
    7.5206  -14.0672   19.8686 C   0  0  2  0  0  0  0  0  0  0  0  0
    7.9296  -13.1864   21.0179 C   0  0  0  0  0  0  0  0  0  0  0  0
    8.5656  -15.0954   19.4919 C   0  0  2  0  0  0  0  0  0  0  0  0
    7.9357  -15.9122   18.4395 N   0  0  0  0  0  0  0  0  0  0  0  0
    8.8895  -16.0279   20.6009 C   0  0  0  0  0  0  0  0  0  0  0  0
    8.0134  -16.8376   21.0623 O   0  0  0  0  0  0  0  0  0  0  0  0
   13.0902  -20.4192   19.9260 N   0  0  0  0  0  0  0  0  0  0  0  0
   12.8543  -19.4304   20.9065 C   0  0  0  0  0  0  0  0  0  0  0  0
   13.8265  -19.2000   21.7015 O   0  0  0  0  0  0  0  0  0  0  0  0
   11.5579  -18.6973   21.0152 C   0  0  0  0  0  0  0  0  0  0  0  0
   11.6670  -17.7746   22.2140 C   0  0  0  0  0  0  0  0  0  0  0  0
   10.4077  -16.9555   22.3946 C   0  0  2  0  0  0  0  0  0  0  0  0
   10.1478  -16.1192   21.2407 N   0  0  0  0  0  0  0  0  0  0  0  0
   10.4025  -16.1954   23.6578 C   0  0  0  0  0  0  0  0  0  0  0  0
   10.9126  -15.0293   23.6279 O   0  0  0  0  0  0  0  0  0  0  0  0
    6.4636  -11.5895   27.4857 C   0  0  0  0  0  0  0  0  0  0  0  0
    6.7686  -12.8553   26.2240 S   0  0  0  0  0  0  0  0  0  0  0  0
    8.0683  -14.0061   26.7953 C   0  0  0  0  0  0  0  0  0  0  0  0
    8.3912  -14.9220   25.6543 C   0  0  0  0  0  0  0  0  0  0  0  0
    9.5610  -15.8347   25.9555 C   0  0  2  0  0  0  0  0  0  0  0  0
    9.8628  -16.7163   24.8560 N   0  0  0  0  0  0  0  0  0  0  0  0
    9.3215  -16.6074   27.2032 C   0  0  0  0  0  0  0  0  0  0  0  0
    9.6431  -16.0530   28.4339 O   0  0  0  0  0  0  0  0  0  0  0  0
    8.8307  -17.7639   27.1904 O   0  0  0  0  0  0  0  0  0  0  0  0
  1  2  1  0
  3  5  1  0
  3  2  1  0
  3  4  1  1
  5  6  1  6
  7  5  1  0
  7  8  2  0
  9 10  1  0
 10 11  2  0
 12 10  1  0
 12 13  1  0
 14 13  1  6
 14 15  1  0
 15  7  1  0
 16 14  1  0
 17 16  2  0
 19 18  1  0
 19 20  1  0
 21 20  1  0
 22 21  1  6
 22 23  1  0
 23 16  1  0
 24 25  1  0
 24 22  1  0
 26 24  2  0
M  END
$$$$
