IQM.pdb
     RDKit          3D

 26 25  0  0  1  0  0  0  0  0999 V2000
    7.7198  -12.4765   19.0955 C   0  0  0  0  0  0  0  0  0  0  0  0
    7.5542  -13.9420   19.4030 C   0  0  0  0  0  0  0  0  0  0  0  0
    7.3356  -14.2066   20.8798 C   0  0  2  0  0  0  0  0  0  0  0  0
    8.5243  -13.6412   21.6087 C   0  0  0  0  0  0  0  0  0  0  0  0
    7.1837  -15.7042   21.0393 C   0  0  2  0  0  0  0  0  0  0  0  0
    5.9773  -16.0500   20.2669 N   0  0  0  0  0  0  0  0  0  0  0  0
    6.9100  -16.1146   22.4396 C   0  0  0  0  0  0  0  0  0  0  0  0
    5.9259  -15.6240   23.0930 O   0  0  0  0  0  0  0  0  0  0  0  0
    7.3504  -21.3533   25.6223 N   0  0  0  0  0  0  0  0  0  0  0  0
    7.2224  -20.4120   26.6674 C   0  0  0  0  0  0  0  0  0  0  0  0
    7.0575  -20.9035   27.8342 O   0  0  0  0  0  0  0  0  0  0  0  0
    7.2750  -18.9379   26.4345 C   0  0  0  0  0  0  0  0  0  0  0  0
    7.4887  -18.7292   24.9475 C   0  0  0  0  0  0  0  0  0  0  0  0
    7.5465  -17.2575   24.6009 C   0  0  2  0  0  0  0  0  0  0  0  0
    7.6741  -17.0525   23.1726 N   0  0  0  0  0  0  0  0  0  0  0  0
    8.5745  -16.5340   25.3712 C   0  0  0  0  0  0  0  0  0  0  0  0
    9.7748  -16.6304   24.9578 O   0  0  0  0  0  0  0  0  0  0  0  0
    6.4591  -12.2434   26.0598 C   0  0  0  0  0  0  0  0  0  0  0  0
    7.6201  -11.5466   27.2655 S   0  0  0  0  0  0  0  0  0  0  0  0
    9.1380  -12.5624   27.3300 C   0  0  0  0  0  0  0  0  0  0  0  0
    8.7808  -13.8641   27.9804 C   0  0  0  0  0  0  0  0  0  0  0  0
    9.3092  -15.0594   27.2160 C   0  0  2  0  0  0  0  0  0  0  0  0
    8.2653  -15.7647   26.5161 N   0  0  0  0  0  0  0  0  0  0  0  0
   10.0550  -15.9766   28.1180 C   0  0  0  0  0  0  0  0  0  0  0  0
   11.4055  -15.7662   28.3574 O   0  0  0  0  0  0  0  0  0  0  0  0
    9.5036  -16.9535   28.6839 O   0  0  0  0  0  0  0  0  0  0  0  0
  1  2  1  0
  3  5  1  0
  3  2  1  0
  3  4  1  1
  5  6  1  6
  7  5  1  0
  7  8  2  0
  9 10  1  0
 10 11  2  0
 12 10  1  0
 12 13  1  0
 14 13  1  6
 14 15  1  0
 15  7  1  0
 16 14  1  0
 17 16  2  0
 19 18  1  0
 19 20  1  0
 21 20  1  0
 22 21  1  1
 22 23  1  0
 23 16  1  0
 24 25  1  0
 24 22  1  0
 26 24  2  0
M  END
$$$$
