FPA.pdb
     RDKit          3D

 24 25  0  0  1  0  0  0  0  0999 V2000
   28.1596  -27.1779  -22.1093 N   0  0  0  0  0  0  0  0  0  0  0  0
   27.4383  -27.8414  -21.0813 C   0  0  1  0  0  0  0  0  0  0  0  0
   26.5550  -28.9582  -21.5899 C   0  0  0  0  0  0  0  0  0  0  0  0
   25.4585  -28.4571  -22.4429 C   0  0  0  0  0  0  0  0  0  0  0  0
   25.4403  -28.7780  -23.7807 C   0  0  0  0  0  0  0  0  0  0  0  0
   24.4135  -28.3151  -24.6139 C   0  0  0  0  0  0  0  0  0  0  0  0
   23.4089  -27.5356  -24.1154 C   0  0  0  0  0  0  0  0  0  0  0  0
   23.4199  -27.2083  -22.7709 C   0  0  0  0  0  0  0  0  0  0  0  0
   24.4355  -27.6694  -21.9600 C   0  0  0  0  0  0  0  0  0  0  0  0
   28.3538  -28.2953  -20.0187 C   0  0  0  0  0  0  0  0  0  0  0  0
   29.5499  -28.6400  -20.3619 O   0  0  0  0  0  0  0  0  0  0  0  0
   28.0556  -28.3956  -18.6380 N   0  0  0  0  0  0  0  0  0  0  0  0
   26.8383  -28.1990  -17.9010 C   0  0  0  0  0  0  0  0  0  0  0  0
   27.2952  -27.7714  -16.5106 C   0  0  0  0  0  0  0  0  0  0  0  0
   28.8126  -27.7112  -16.5958 C   0  0  0  0  0  0  0  0  0  0  0  0
   29.0476  -28.7740  -17.6489 C   0  0  1  0  0  0  0  0  0  0  0  0
   28.7449  -30.1152  -17.0727 C   0  0  0  0  0  0  0  0  0  0  0  0
   27.5981  -30.5895  -16.9724 O   0  0  0  0  0  0  0  0  0  0  0  0
   31.0308  -32.9267  -16.0313 C   0  0  0  0  0  0  0  0  0  0  0  0
   29.6763  -32.2869  -16.2810 C   0  0  2  0  0  0  0  0  0  0  0  0
   29.8424  -30.8894  -16.6137 N   0  0  0  0  0  0  0  0  0  0  0  0
   28.8532  -32.3886  -15.0546 C   0  0  0  0  0  0  0  0  0  0  0  0
   28.7816  -31.4278  -14.2473 O   0  0  0  0  0  0  0  0  0  0  0  0
   28.1296  -33.5301  -14.7365 O   0  0  0  0  0  0  0  0  0  0  0  0
  2  1  1  6
  2 10  1  0
  3  2  1  0
  4  3  1  0
  5  4  2  0
  6  5  1  0
  7  6  2  0
  7  8  1  0
  8  9  2  0
  9  4  1  0
 10 12  1  0
 11 10  2  0
 12 13  1  0
 12 16  1  0
 13 14  1  0
 15 14  1  0
 16 15  1  0
 17 21  1  0
 16 17  1  1
 18 17  2  0
 20 19  1  1
 20 22  1  0
 20 21  1  0
 22 24  1  0
 23 22  2  0
M  END
$$$$
