FPA.pdb
     RDKit          3D

 24 25  0  0  1  0  0  0  0  0999 V2000
   24.5871  -21.1579  -10.5495 N   0  0  0  0  0  0  0  0  0  0  0  0
   25.5438  -20.3074  -11.1648 C   0  0  1  0  0  0  0  0  0  0  0  0
   26.9622  -20.5692  -10.7115 C   0  0  0  0  0  0  0  0  0  0  0  0
   27.1425  -20.3133   -9.2682 C   0  0  0  0  0  0  0  0  0  0  0  0
   26.5331  -19.2223   -8.6925 C   0  0  0  0  0  0  0  0  0  0  0  0
   26.6880  -18.9542   -7.3262 C   0  0  0  0  0  0  0  0  0  0  0  0
   27.4473  -19.7703   -6.5371 C   0  0  0  0  0  0  0  0  0  0  0  0
   28.0635  -20.8697   -7.1084 C   0  0  0  0  0  0  0  0  0  0  0  0
   27.9042  -21.1241   -8.4543 C   0  0  0  0  0  0  0  0  0  0  0  0
   25.4098  -20.3562  -12.6320 C   0  0  0  0  0  0  0  0  0  0  0  0
   24.3339  -20.8765  -13.1209 O   0  0  0  0  0  0  0  0  0  0  0  0
   26.3522  -19.8857  -13.5786 N   0  0  0  0  0  0  0  0  0  0  0  0
   27.6962  -19.3989  -13.4363 C   0  0  0  0  0  0  0  0  0  0  0  0
   27.8870  -18.4469  -14.6121 C   0  0  0  0  0  0  0  0  0  0  0  0
   26.5472  -18.4366  -15.3320 C   0  0  0  0  0  0  0  0  0  0  0  0
   26.0737  -19.8369  -15.0019 C   0  0  1  0  0  0  0  0  0  0  0  0
   26.9049  -20.8269  -15.7445 C   0  0  0  0  0  0  0  0  0  0  0  0
   27.3277  -20.6546  -16.9028 O   0  0  0  0  0  0  0  0  0  0  0  0
   25.7929  -23.7500  -16.0325 C   0  0  0  0  0  0  0  0  0  0  0  0
   27.2216  -23.2984  -15.7850 C   0  0  2  0  0  0  0  0  0  0  0  0
   27.2270  -22.0375  -15.0771 N   0  0  0  0  0  0  0  0  0  0  0  0
   27.9097  -23.1172  -17.0833 C   0  0  0  0  0  0  0  0  0  0  0  0
   28.7945  -23.9268  -17.4601 O   0  0  0  0  0  0  0  0  0  0  0  0
   27.6198  -22.0626  -17.9385 O   0  0  0  0  0  0  0  0  0  0  0  0
  2  1  1  1
  2 10  1  0
  3  2  1  0
  4  3  1  0
  5  4  2  0
  6  5  1  0
  7  6  2  0
  7  8  1  0
  8  9  2  0
  9  4  1  0
 10 12  1  0
 11 10  2  0
 12 13  1  0
 12 16  1  0
 13 14  1  0
 15 14  1  0
 16 15  1  0
 17 21  1  0
 16 17  1  6
 18 17  2  0
 20 19  1  6
 20 22  1  0
 20 21  1  0
 22 24  1  0
 23 22  2  0
M  END
$$$$
