FPA.pdb
     RDKit          3D

 24 25  0  0  1  0  0  0  0  0999 V2000
   24.6542  -19.5211  -16.0702 N   0  0  0  0  0  0  0  0  0  0  0  0
   25.4909  -19.0024  -15.0464 C   0  0  1  0  0  0  0  0  0  0  0  0
   25.0796  -17.6272  -14.5714 C   0  0  0  0  0  0  0  0  0  0  0  0
   25.3539  -16.5839  -15.5800 C   0  0  0  0  0  0  0  0  0  0  0  0
   26.5983  -15.9989  -15.6281 C   0  0  0  0  0  0  0  0  0  0  0  0
   26.8861  -15.0055  -16.5731 C   0  0  0  0  0  0  0  0  0  0  0  0
   25.9372  -14.5971  -17.4665 C   0  0  0  0  0  0  0  0  0  0  0  0
   24.6832  -15.1805  -17.4248 C   0  0  0  0  0  0  0  0  0  0  0  0
   24.4109  -16.1574  -16.4904 C   0  0  0  0  0  0  0  0  0  0  0  0
   25.6042  -19.9648  -13.9354 C   0  0  0  0  0  0  0  0  0  0  0  0
   24.6012  -20.7469  -13.7125 O   0  0  0  0  0  0  0  0  0  0  0  0
   26.7147  -20.1249  -13.0715 N   0  0  0  0  0  0  0  0  0  0  0  0
   27.9739  -19.4386  -12.9877 C   0  0  0  0  0  0  0  0  0  0  0  0
   28.9333  -20.4658  -12.3966 C   0  0  0  0  0  0  0  0  0  0  0  0
   28.1042  -21.7302  -12.2321 C   0  0  0  0  0  0  0  0  0  0  0  0
   26.7413  -21.1096  -12.0058 C   0  0  1  0  0  0  0  0  0  0  0  0
   26.7144  -20.4519  -10.6683 C   0  0  0  0  0  0  0  0  0  0  0  0
   27.1755  -19.3186  -10.4379 O   0  0  0  0  0  0  0  0  0  0  0  0
   24.7356  -21.3406   -7.6118 C   0  0  0  0  0  0  0  0  0  0  0  0
   25.7583  -20.5103   -8.3676 C   0  0  2  0  0  0  0  0  0  0  0  0
   26.1229  -21.1745   -9.5993 N   0  0  0  0  0  0  0  0  0  0  0  0
   26.9726  -20.3529   -7.5353 C   0  0  0  0  0  0  0  0  0  0  0  0
   27.0077  -19.5109   -6.6026 O   0  0  0  0  0  0  0  0  0  0  0  0
   28.1168  -21.1132   -7.7369 O   0  0  0  0  0  0  0  0  0  0  0  0
  2  1  1  6
  2 10  1  0
  3  2  1  0
  4  3  1  0
  5  4  2  0
  6  5  1  0
  7  6  2  0
  7  8  1  0
  8  9  2  0
  9  4  1  0
 10 12  1  0
 11 10  2  0
 12 13  1  0
 12 16  1  0
 13 14  1  0
 15 14  1  0
 16 15  1  0
 17 21  1  0
 16 17  1  1
 18 17  2  0
 20 19  1  1
 20 22  1  0
 20 21  1  0
 22 24  1  0
 23 22  2  0
M  END
$$$$
