FPA.pdb
     RDKit          3D

 24 25  0  0  1  0  0  0  0  0999 V2000
   14.7196  -21.0332   -9.1944 N   0  0  0  0  0  0  0  0  0  0  0  0
   13.6403  -21.4387   -8.3650 C   0  0  1  0  0  0  0  0  0  0  0  0
   12.9765  -22.7178   -8.8227 C   0  0  0  0  0  0  0  0  0  0  0  0
   12.2367  -22.5398  -10.0884 C   0  0  0  0  0  0  0  0  0  0  0  0
   12.8285  -22.9043  -11.2758 C   0  0  0  0  0  0  0  0  0  0  0  0
   12.1509  -22.7451  -12.4917 C   0  0  0  0  0  0  0  0  0  0  0  0
   10.8885  -22.2248  -12.5236 C   0  0  0  0  0  0  0  0  0  0  0  0
   10.2863  -21.8558  -11.3336 C   0  0  0  0  0  0  0  0  0  0  0  0
   10.9624  -22.0169  -10.1427 C   0  0  0  0  0  0  0  0  0  0  0  0
   14.0692  -21.5069   -6.9562 C   0  0  0  0  0  0  0  0  0  0  0  0
   15.3365  -21.4725   -6.7110 O   0  0  0  0  0  0  0  0  0  0  0  0
   13.2248  -21.6085   -5.8240 N   0  0  0  0  0  0  0  0  0  0  0  0
   11.8041  -21.7793   -5.6970 C   0  0  0  0  0  0  0  0  0  0  0  0
   11.4569  -21.1325   -4.3606 C   0  0  0  0  0  0  0  0  0  0  0  0
   12.7728  -20.5770   -3.8381 C   0  0  0  0  0  0  0  0  0  0  0  0
   13.7308  -21.5688   -4.4645 C   0  0  1  0  0  0  0  0  0  0  0  0
   13.5770  -22.8928   -3.7969 C   0  0  0  0  0  0  0  0  0  0  0  0
   12.5864  -23.6341   -3.9359 O   0  0  0  0  0  0  0  0  0  0  0  0
   16.0767  -25.0350   -2.0101 C   0  0  0  0  0  0  0  0  0  0  0  0
   14.6634  -24.6709   -2.4299 C   0  0  2  0  0  0  0  0  0  0  0  0
   14.6338  -23.3229   -2.9526 N   0  0  0  0  0  0  0  0  0  0  0  0
   13.7688  -24.7436   -1.2524 C   0  0  0  0  0  0  0  0  0  0  0  0
   13.4247  -25.8541   -0.7746 O   0  0  0  0  0  0  0  0  0  0  0  0
   13.2713  -23.6096   -0.6246 O   0  0  0  0  0  0  0  0  0  0  0  0
  2  1  1  6
  2 10  1  0
  3  2  1  0
  4  3  1  0
  5  4  2  0
  6  5  1  0
  7  6  2  0
  7  8  1  0
  8  9  2  0
  9  4  1  0
 10 12  1  0
 11 10  2  0
 12 13  1  0
 12 16  1  0
 13 14  1  0
 15 14  1  0
 16 15  1  0
 17 21  1  0
 16 17  1  1
 18 17  2  0
 20 19  1  1
 20 22  1  0
 20 21  1  0
 22 24  1  0
 23 22  2  0
M  END
$$$$
