FPA.pdb
     RDKit          3D

 24 25  0  0  1  0  0  0  0  0999 V2000
   23.7441  -18.8300  -16.8108 N   0  0  0  0  0  0  0  0  0  0  0  0
   24.6600  -18.3797  -15.8230 C   0  0  1  0  0  0  0  0  0  0  0  0
   24.1857  -17.1536  -15.0761 C   0  0  0  0  0  0  0  0  0  0  0  0
   24.2320  -15.9381  -15.9137 C   0  0  0  0  0  0  0  0  0  0  0  0
   23.1021  -15.5373  -16.5888 C   0  0  0  0  0  0  0  0  0  0  0  0
   23.1175  -14.3895  -17.3918 C   0  0  0  0  0  0  0  0  0  0  0  0
   24.2547  -13.6442  -17.5213 C   0  0  0  0  0  0  0  0  0  0  0  0
   25.3954  -14.0405  -16.8455 C   0  0  0  0  0  0  0  0  0  0  0  0
   25.3689  -15.1720  -16.0578 C   0  0  0  0  0  0  0  0  0  0  0  0
   25.0205  -19.4817  -14.9126 C   0  0  0  0  0  0  0  0  0  0  0  0
   24.1649  -20.4358  -14.7548 O   0  0  0  0  0  0  0  0  0  0  0  0
   26.2258  -19.6070  -14.1798 N   0  0  0  0  0  0  0  0  0  0  0  0
   27.3810  -18.7592  -14.0777 C   0  0  0  0  0  0  0  0  0  0  0  0
   28.5278  -19.7095  -13.7512 C   0  0  0  0  0  0  0  0  0  0  0  0
   27.9011  -21.0953  -13.7438 C   0  0  0  0  0  0  0  0  0  0  0  0
   26.4969  -20.7339  -13.3066 C   0  0  1  0  0  0  0  0  0  0  0  0
   26.5184  -20.3108  -11.8773 C   0  0  0  0  0  0  0  0  0  0  0  0
   26.8122  -19.1636  -11.4930 O   0  0  0  0  0  0  0  0  0  0  0  0
   26.1536  -19.7199   -9.0480 C   0  0  0  0  0  0  0  0  0  0  0  0
   25.4793  -20.9171   -9.6948 C   0  0  2  0  0  0  0  0  0  0  0  0
   26.1806  -21.2872  -10.9041 N   0  0  0  0  0  0  0  0  0  0  0  0
   24.0845  -20.5639  -10.0438 C   0  0  0  0  0  0  0  0  0  0  0  0
   23.7898  -20.1806  -11.2042 O   0  0  0  0  0  0  0  0  0  0  0  0
   23.0462  -20.6359   -9.1248 O   0  0  0  0  0  0  0  0  0  0  0  0
  2  1  1  6
  2 10  1  0
  3  2  1  0
  4  3  1  0
  5  4  2  0
  6  5  1  0
  7  6  2  0
  7  8  1  0
  8  9  2  0
  9  4  1  0
 10 12  1  0
 11 10  2  0
 12 13  1  0
 12 16  1  0
 13 14  1  0
 15 14  1  0
 16 15  1  0
 17 21  1  0
 16 17  1  1
 18 17  2  0
 20 19  1  6
 20 22  1  0
 20 21  1  0
 22 24  1  0
 23 22  2  0
M  END
$$$$
