FPA.pdb
     RDKit          3D

 24 25  0  0  1  0  0  0  0  0999 V2000
   17.0890  -22.6067  -11.8395 N   0  0  0  0  0  0  0  0  0  0  0  0
   18.4188  -22.1264  -11.9742 C   0  0  1  0  0  0  0  0  0  0  0  0
   19.4695  -23.1853  -11.7277 C   0  0  0  0  0  0  0  0  0  0  0  0
   19.3258  -23.8145  -10.3994 C   0  0  0  0  0  0  0  0  0  0  0  0
   19.0429  -25.1583  -10.3134 C   0  0  0  0  0  0  0  0  0  0  0  0
   18.8994  -25.7811   -9.0668 C   0  0  0  0  0  0  0  0  0  0  0  0
   19.0375  -25.0674   -7.9105 C   0  0  0  0  0  0  0  0  0  0  0  0
   19.3222  -23.7154   -7.9884 C   0  0  0  0  0  0  0  0  0  0  0  0
   19.4612  -23.1126   -9.2207 C   0  0  0  0  0  0  0  0  0  0  0  0
   18.5967  -21.4575  -13.2758 C   0  0  0  0  0  0  0  0  0  0  0  0
   17.5685  -21.3683  -14.0518 O   0  0  0  0  0  0  0  0  0  0  0  0
   19.7961  -20.8934  -13.7744 N   0  0  0  0  0  0  0  0  0  0  0  0
   21.1627  -21.0088  -13.3470 C   0  0  0  0  0  0  0  0  0  0  0  0
   21.8160  -19.7044  -13.7908 C   0  0  0  0  0  0  0  0  0  0  0  0
   20.6929  -18.8964  -14.4225 C   0  0  0  0  0  0  0  0  0  0  0  0
   19.8287  -20.0279  -14.9388 C   0  0  1  0  0  0  0  0  0  0  0  0
   20.5173  -20.6931  -16.0814 C   0  0  0  0  0  0  0  0  0  0  0  0
   21.4510  -21.5070  -15.9559 O   0  0  0  0  0  0  0  0  0  0  0  0
   19.3321  -21.1748  -19.5588 C   0  0  0  0  0  0  0  0  0  0  0  0
   20.4430  -21.1846  -18.5235 C   0  0  2  0  0  0  0  0  0  0  0  0
   20.0701  -20.3691  -17.3890 N   0  0  0  0  0  0  0  0  0  0  0  0
   21.6766  -20.6277  -19.1237 C   0  0  0  0  0  0  0  0  0  0  0  0
   22.1525  -19.5370  -18.7186 O   0  0  0  0  0  0  0  0  0  0  0  0
   22.3611  -21.2687  -20.1475 O   0  0  0  0  0  0  0  0  0  0  0  0
  2  1  1  6
  2 10  1  0
  3  2  1  0
  4  3  1  0
  5  4  2  0
  6  5  1  0
  7  6  2  0
  7  8  1  0
  8  9  2  0
  9  4  1  0
 10 12  1  0
 11 10  2  0
 12 13  1  0
 12 16  1  0
 13 14  1  0
 15 14  1  0
 16 15  1  0
 17 21  1  0
 16 17  1  6
 18 17  2  0
 20 19  1  6
 20 22  1  0
 20 21  1  0
 22 24  1  0
 23 22  2  0
M  END
$$$$
