FPA.pdb
     RDKit          3D

 24 25  0  0  1  0  0  0  0  0999 V2000
   20.6614  -20.7741  -12.7037 N   0  0  0  0  0  0  0  0  0  0  0  0
   21.5808  -20.8919  -13.7799 C   0  0  1  0  0  0  0  0  0  0  0  0
   21.0379  -20.3794  -15.0947 C   0  0  0  0  0  0  0  0  0  0  0  0
   20.2084  -21.3870  -15.7859 C   0  0  0  0  0  0  0  0  0  0  0  0
   18.8371  -21.2924  -15.7252 C   0  0  0  0  0  0  0  0  0  0  0  0
   18.0254  -22.2350  -16.3698 C   0  0  0  0  0  0  0  0  0  0  0  0
   18.5786  -23.2676  -17.0721 C   0  0  0  0  0  0  0  0  0  0  0  0
   19.9570  -23.3697  -17.1380 C   0  0  0  0  0  0  0  0  0  0  0  0
   20.7463  -22.4364  -16.4997 C   0  0  0  0  0  0  0  0  0  0  0  0
   22.8695  -20.2683  -13.4284 C   0  0  0  0  0  0  0  0  0  0  0  0
   22.8410  -19.1646  -12.7589 O   0  0  0  0  0  0  0  0  0  0  0  0
   24.1575  -20.7593  -13.7531 N   0  0  0  0  0  0  0  0  0  0  0  0
   24.5890  -21.9434  -14.4426 C   0  0  0  0  0  0  0  0  0  0  0  0
   25.9718  -22.2385  -13.8717 C   0  0  0  0  0  0  0  0  0  0  0  0
   26.1987  -21.1678  -12.8156 C   0  0  0  0  0  0  0  0  0  0  0  0
   25.3750  -20.0463  -13.4135 C   0  0  1  0  0  0  0  0  0  0  0  0
   26.0542  -19.5333  -14.6374 C   0  0  0  0  0  0  0  0  0  0  0  0
   25.9814  -20.0756  -15.7557 O   0  0  0  0  0  0  0  0  0  0  0  0
   27.2418  -16.0082  -14.9949 C   0  0  0  0  0  0  0  0  0  0  0  0
   26.8640  -17.3654  -15.5619 C   0  0  2  0  0  0  0  0  0  0  0  0
   26.8293  -18.3516  -14.5050 N   0  0  0  0  0  0  0  0  0  0  0  0
   27.8750  -17.7766  -16.5623 C   0  0  0  0  0  0  0  0  0  0  0  0
   28.6774  -18.7128  -16.3175 O   0  0  0  0  0  0  0  0  0  0  0  0
   27.9889  -17.1614  -17.8018 O   0  0  0  0  0  0  0  0  0  0  0  0
  2  1  1  1
  2 10  1  0
  3  2  1  0
  4  3  1  0
  5  4  2  0
  6  5  1  0
  7  6  2  0
  7  8  1  0
  8  9  2  0
  9  4  1  0
 10 12  1  0
 11 10  2  0
 12 13  1  0
 12 16  1  0
 13 14  1  0
 15 14  1  0
 16 15  1  0
 17 21  1  0
 16 17  1  6
 18 17  2  0
 20 19  1  1
 20 22  1  0
 20 21  1  0
 22 24  1  0
 23 22  2  0
M  END
$$$$
