FPA.pdb
     RDKit          3D

 24 25  0  0  1  0  0  0  0  0999 V2000
   25.0821  -19.8881  -15.9251 N   0  0  0  0  0  0  0  0  0  0  0  0
   26.0024  -19.3141  -15.0082 C   0  0  1  0  0  0  0  0  0  0  0  0
   25.6955  -17.8729  -14.6694 C   0  0  0  0  0  0  0  0  0  0  0  0
   26.0073  -16.9591  -15.7869 C   0  0  0  0  0  0  0  0  0  0  0  0
   24.9797  -16.3850  -16.4993 C   0  0  0  0  0  0  0  0  0  0  0  0
   25.2460  -15.5158  -17.5652 C   0  0  0  0  0  0  0  0  0  0  0  0
   26.5315  -15.2200  -17.9195 C   0  0  0  0  0  0  0  0  0  0  0  0
   27.5707  -15.7933  -17.2079 C   0  0  0  0  0  0  0  0  0  0  0  0
   27.2970  -16.6474  -16.1606 C   0  0  0  0  0  0  0  0  0  0  0  0
   26.1240  -20.1556  -13.8039 C   0  0  0  0  0  0  0  0  0  0  0  0
   25.1401  -20.9411  -13.5171 O   0  0  0  0  0  0  0  0  0  0  0  0
   27.2239  -20.1944  -12.9127 N   0  0  0  0  0  0  0  0  0  0  0  0
   28.4604  -19.4639  -12.8798 C   0  0  0  0  0  0  0  0  0  0  0  0
   29.4397  -20.3969  -12.1758 C   0  0  0  0  0  0  0  0  0  0  0  0
   28.6459  -21.6642  -11.8980 C   0  0  0  0  0  0  0  0  0  0  0  0
   27.2615  -21.0673  -11.7540 C   0  0  1  0  0  0  0  0  0  0  0  0
   27.1918  -20.2815  -10.4891 C   0  0  0  0  0  0  0  0  0  0  0  0
   27.5981  -19.1106  -10.3711 O   0  0  0  0  0  0  0  0  0  0  0  0
   25.1328  -20.8993   -7.4384 C   0  0  0  0  0  0  0  0  0  0  0  0
   26.2153  -20.1545   -8.1998 C   0  0  2  0  0  0  0  0  0  0  0  0
   26.6243  -20.9207   -9.3560 N   0  0  0  0  0  0  0  0  0  0  0  0
   27.3891  -19.9614   -7.3184 C   0  0  0  0  0  0  0  0  0  0  0  0
   27.3754  -19.0912   -6.4114 O   0  0  0  0  0  0  0  0  0  0  0  0
   28.5469  -20.7174   -7.4445 O   0  0  0  0  0  0  0  0  0  0  0  0
  2  1  1  6
  2 10  1  0
  3  2  1  0
  4  3  1  0
  5  4  2  0
  6  5  1  0
  7  6  2  0
  7  8  1  0
  8  9  2  0
  9  4  1  0
 10 12  1  0
 11 10  2  0
 12 13  1  0
 12 16  1  0
 13 14  1  0
 15 14  1  0
 16 15  1  0
 17 21  1  0
 16 17  1  1
 18 17  2  0
 20 19  1  1
 20 22  1  0
 20 21  1  0
 22 24  1  0
 23 22  2  0
M  END
$$$$
