FPA.pdb
     RDKit          3D

 24 25  0  0  1  0  0  0  0  0999 V2000
   15.6137  -21.9134    3.6303 N   0  0  0  0  0  0  0  0  0  0  0  0
   16.8952  -22.2863    4.1163 C   0  0  1  0  0  0  0  0  0  0  0  0
   16.9834  -22.3104    5.6255 C   0  0  0  0  0  0  0  0  0  0  0  0
   16.7163  -20.9854    6.2207 C   0  0  0  0  0  0  0  0  0  0  0  0
   17.6649  -19.9939    6.1195 C   0  0  0  0  0  0  0  0  0  0  0  0
   17.4392  -18.7281    6.6761 C   0  0  0  0  0  0  0  0  0  0  0  0
   16.2728  -18.4520    7.3307 C   0  0  0  0  0  0  0  0  0  0  0  0
   15.3137  -19.4438    7.4367 C   0  0  0  0  0  0  0  0  0  0  0  0
   15.5463  -20.6861    6.8852 C   0  0  0  0  0  0  0  0  0  0  0  0
   17.3253  -23.5607    3.5128 C   0  0  0  0  0  0  0  0  0  0  0  0
   16.4719  -24.1995    2.7841 O   0  0  0  0  0  0  0  0  0  0  0  0
   18.5965  -24.1695    3.6501 N   0  0  0  0  0  0  0  0  0  0  0  0
   19.7581  -23.8070    4.4136 C   0  0  0  0  0  0  0  0  0  0  0  0
   20.9293  -24.3963    3.6351 C   0  0  0  0  0  0  0  0  0  0  0  0
   20.3031  -25.0349    2.4049 C   0  0  0  0  0  0  0  0  0  0  0  0
   18.9495  -25.4045    2.9749 C   0  0  1  0  0  0  0  0  0  0  0  0
   19.1124  -26.5202    3.9501 C   0  0  0  0  0  0  0  0  0  0  0  0
   19.5419  -26.3769    5.1098 O   0  0  0  0  0  0  0  0  0  0  0  0
   17.8348  -30.0554    3.7911 C   0  0  0  0  0  0  0  0  0  0  0  0
   18.5284  -28.8867    4.4690 C   0  0  2  0  0  0  0  0  0  0  0  0
   18.7515  -27.8225    3.5158 N   0  0  0  0  0  0  0  0  0  0  0  0
   19.8375  -29.3337    4.9969 C   0  0  0  0  0  0  0  0  0  0  0  0
   20.9079  -28.9948    4.4316 O   0  0  0  0  0  0  0  0  0  0  0  0
   19.9507  -30.1364    6.1241 O   0  0  0  0  0  0  0  0  0  0  0  0
  2  1  1  1
  2 10  1  0
  3  2  1  0
  4  3  1  0
  5  4  2  0
  6  5  1  0
  7  6  2  0
  7  8  1  0
  8  9  2  0
  9  4  1  0
 10 12  1  0
 11 10  2  0
 12 13  1  0
 12 16  1  0
 13 14  1  0
 15 14  1  0
 16 15  1  0
 17 21  1  0
 16 17  1  1
 18 17  2  0
 20 19  1  6
 20 22  1  0
 20 21  1  0
 22 24  1  0
 23 22  2  0
M  END
$$$$
