FPA.pdb
     RDKit          3D

 24 25  0  0  1  0  0  0  0  0999 V2000
   23.2955  -19.8105  -12.8029 N   0  0  0  0  0  0  0  0  0  0  0  0
   24.7047  -19.7000  -12.9423 C   0  0  1  0  0  0  0  0  0  0  0  0
   25.4645  -20.8398  -12.3021 C   0  0  0  0  0  0  0  0  0  0  0  0
   25.3146  -20.8538  -10.8330 C   0  0  0  0  0  0  0  0  0  0  0  0
   26.2756  -20.2588  -10.0484 C   0  0  0  0  0  0  0  0  0  0  0  0
   26.1603  -20.2586   -8.6522 C   0  0  0  0  0  0  0  0  0  0  0  0
   25.0913  -20.8490   -8.0406 C   0  0  0  0  0  0  0  0  0  0  0  0
   24.1204  -21.4496   -8.8226 C   0  0  0  0  0  0  0  0  0  0  0  0
   24.2440  -21.4439  -10.1960 C   0  0  0  0  0  0  0  0  0  0  0  0
   25.0702  -19.5127  -14.3581 C   0  0  0  0  0  0  0  0  0  0  0  0
   24.1469  -19.6809  -15.2451 O   0  0  0  0  0  0  0  0  0  0  0  0
   26.3482  -19.1625  -14.8575 N   0  0  0  0  0  0  0  0  0  0  0  0
   27.6466  -19.1390  -14.2433 C   0  0  0  0  0  0  0  0  0  0  0  0
   28.4156  -18.0688  -15.0102 C   0  0  0  0  0  0  0  0  0  0  0  0
   27.4194  -17.5123  -16.0157 C   0  0  0  0  0  0  0  0  0  0  0  0
   26.5640  -18.7436  -16.2300 C   0  0  1  0  0  0  0  0  0  0  0  0
   27.3471  -19.7635  -16.9844 C   0  0  0  0  0  0  0  0  0  0  0  0
   27.9793  -19.5253  -18.0301 O   0  0  0  0  0  0  0  0  0  0  0  0
   28.4535  -23.2340  -16.1551 C   0  0  0  0  0  0  0  0  0  0  0  0
   28.0941  -22.1358  -17.1405 C   0  0  2  0  0  0  0  0  0  0  0  0
   27.3644  -21.0849  -16.4665 N   0  0  0  0  0  0  0  0  0  0  0  0
   27.2380  -22.6982  -18.2096 C   0  0  0  0  0  0  0  0  0  0  0  0
   27.6836  -23.5705  -18.9974 O   0  0  0  0  0  0  0  0  0  0  0  0
   25.9212  -22.2994  -18.3956 O   0  0  0  0  0  0  0  0  0  0  0  0
  2  1  1  6
  2 10  1  0
  3  2  1  0
  4  3  1  0
  5  4  2  0
  6  5  1  0
  7  6  2  0
  7  8  1  0
  8  9  2  0
  9  4  1  0
 10 12  1  0
 11 10  2  0
 12 13  1  0
 12 16  1  0
 13 14  1  0
 15 14  1  0
 16 15  1  0
 17 21  1  0
 16 17  1  6
 18 17  2  0
 20 19  1  1
 20 22  1  0
 20 21  1  0
 22 24  1  0
 23 22  2  0
M  END
$$$$
