FPA.pdb
     RDKit          3D

 24 25  0  0  1  0  0  0  0  0999 V2000
   23.2230  -21.0485  -17.2310 N   0  0  0  0  0  0  0  0  0  0  0  0
   23.7487  -19.9447  -16.5081 C   0  0  1  0  0  0  0  0  0  0  0  0
   22.6856  -19.0934  -15.8514 C   0  0  0  0  0  0  0  0  0  0  0  0
   22.0999  -18.1127  -16.7875 C   0  0  0  0  0  0  0  0  0  0  0  0
   21.0430  -18.4857  -17.5855 C   0  0  0  0  0  0  0  0  0  0  0  0
   20.4688  -17.5768  -18.4838 C   0  0  0  0  0  0  0  0  0  0  0  0
   20.9463  -16.3013  -18.5861 C   0  0  0  0  0  0  0  0  0  0  0  0
   22.0091  -15.9183  -17.7870 C   0  0  0  0  0  0  0  0  0  0  0  0
   22.5666  -16.8211  -16.9063 C   0  0  0  0  0  0  0  0  0  0  0  0
   24.7721  -20.3966  -15.5481 C   0  0  0  0  0  0  0  0  0  0  0  0
   24.9383  -21.6686  -15.4004 O   0  0  0  0  0  0  0  0  0  0  0  0
   25.6061  -19.5699  -14.7567 N   0  0  0  0  0  0  0  0  0  0  0  0
   25.6763  -18.1436  -14.6010 C   0  0  0  0  0  0  0  0  0  0  0  0
   27.1259  -17.8695  -14.2155 C   0  0  0  0  0  0  0  0  0  0  0  0
   27.8026  -19.2315  -14.2340 C   0  0  0  0  0  0  0  0  0  0  0  0
   26.6206  -20.1046  -13.8674 C   0  0  1  0  0  0  0  0  0  0  0  0
   26.2585  -19.8713  -12.4403 C   0  0  0  0  0  0  0  0  0  0  0  0
   25.5312  -18.9403  -12.0475 O   0  0  0  0  0  0  0  0  0  0  0  0
   26.8100  -22.1051   -9.4467 C   0  0  0  0  0  0  0  0  0  0  0  0
   26.0074  -21.1568  -10.3201 C   0  0  2  0  0  0  0  0  0  0  0  0
   26.7828  -20.7750  -11.4795 N   0  0  0  0  0  0  0  0  0  0  0  0
   25.6789  -19.9381   -9.5461 C   0  0  0  0  0  0  0  0  0  0  0  0
   26.4246  -18.9272   -9.5921 O   0  0  0  0  0  0  0  0  0  0  0  0
   24.5501  -19.8484   -8.7427 O   0  0  0  0  0  0  0  0  0  0  0  0
  2  1  1  1
  2 10  1  0
  3  2  1  0
  4  3  1  0
  5  4  2  0
  6  5  1  0
  7  6  2  0
  7  8  1  0
  8  9  2  0
  9  4  1  0
 10 12  1  0
 11 10  2  0
 12 13  1  0
 12 16  1  0
 13 14  1  0
 15 14  1  0
 16 15  1  0
 17 21  1  0
 16 17  1  1
 18 17  2  0
 20 19  1  1
 20 22  1  0
 20 21  1  0
 22 24  1  0
 23 22  2  0
M  END
$$$$
