FPA.pdb
     RDKit          3D

 24 25  0  0  1  0  0  0  0  0999 V2000
   25.1979  -19.1987   -8.0113 N   0  0  0  0  0  0  0  0  0  0  0  0
   26.3093  -19.6894   -8.7470 C   0  0  1  0  0  0  0  0  0  0  0  0
   27.0319  -20.8262   -8.0602 C   0  0  0  0  0  0  0  0  0  0  0  0
   27.6153  -20.4154   -6.7672 C   0  0  0  0  0  0  0  0  0  0  0  0
   28.8981  -19.9193   -6.7300 C   0  0  0  0  0  0  0  0  0  0  0  0
   29.4776  -19.5236   -5.5174 C   0  0  0  0  0  0  0  0  0  0  0  0
   28.7811  -19.6220   -4.3467 C   0  0  0  0  0  0  0  0  0  0  0  0
   27.4903  -20.1198   -4.3756 C   0  0  0  0  0  0  0  0  0  0  0  0
   26.9298  -20.5064   -5.5747 C   0  0  0  0  0  0  0  0  0  0  0  0
   25.9058  -20.0358  -10.1219 C   0  0  0  0  0  0  0  0  0  0  0  0
   24.6485  -19.9822  -10.4114 O   0  0  0  0  0  0  0  0  0  0  0  0
   26.7651  -20.4283  -11.1769 N   0  0  0  0  0  0  0  0  0  0  0  0
   27.9630  -21.2209  -11.1962 C   0  0  0  0  0  0  0  0  0  0  0  0
   28.7446  -20.7074  -12.4006 C   0  0  0  0  0  0  0  0  0  0  0  0
   27.9012  -19.5737  -12.9632 C   0  0  0  0  0  0  0  0  0  0  0  0
   26.5248  -20.0600  -12.5598 C   0  0  1  0  0  0  0  0  0  0  0  0
   26.1639  -21.2536  -13.3769 C   0  0  0  0  0  0  0  0  0  0  0  0
   26.6730  -22.3802  -13.2301 O   0  0  0  0  0  0  0  0  0  0  0  0
   22.8986  -21.5566  -15.0792 C   0  0  0  0  0  0  0  0  0  0  0  0
   24.2473  -22.1420  -14.6990 C   0  0  2  0  0  0  0  0  0  0  0  0
   25.1765  -21.0803  -14.3817 N   0  0  0  0  0  0  0  0  0  0  0  0
   24.7838  -22.9174  -15.8405 C   0  0  0  0  0  0  0  0  0  0  0  0
   25.7756  -22.5007  -16.4907 O   0  0  0  0  0  0  0  0  0  0  0  0
   24.2301  -24.1242  -16.2464 O   0  0  0  0  0  0  0  0  0  0  0  0
  2  1  1  1
  2 10  1  0
  3  2  1  0
  4  3  1  0
  5  4  2  0
  6  5  1  0
  7  6  2  0
  7  8  1  0
  8  9  2  0
  9  4  1  0
 10 12  1  0
 11 10  2  0
 12 13  1  0
 12 16  1  0
 13 14  1  0
 15 14  1  0
 16 15  1  0
 17 21  1  0
 16 17  1  6
 18 17  2  0
 20 19  1  6
 20 22  1  0
 20 21  1  0
 22 24  1  0
 23 22  2  0
M  END
$$$$
