WRP.pdb
     RDKit          3D

 33 35  0  0  1  0  0  0  0  0999 V2000
    6.5448  -18.6517   25.4372 N   0  0  0  0  0  0  0  0  0  0  0  0
    6.6646  -17.2691   25.0198 C   0  0  1  0  0  0  0  0  0  0  0  0
    7.4751  -16.5288   26.0678 C   0  0  0  0  0  0  0  0  0  0  0  0
    6.8235  -15.2477   26.4460 C   0  0  0  0  0  0  0  0  0  0  0  0
    5.5039  -15.0141   26.8036 C   0  0  0  0  0  0  0  0  0  0  0  0
    5.3476  -13.7040   27.0669 N   0  0  0  0  0  0  0  0  0  0  0  0
    6.5185  -13.0810   26.8926 C   0  0  0  0  0  0  0  0  0  0  0  0
    6.8690  -11.7554   27.0368 C   0  0  0  0  0  0  0  0  0  0  0  0
    8.1654  -11.3826   26.7894 C   0  0  0  0  0  0  0  0  0  0  0  0
    9.1040  -12.3101   26.4038 C   0  0  0  0  0  0  0  0  0  0  0  0
    8.7359  -13.6318   26.2645 C   0  0  0  0  0  0  0  0  0  0  0  0
    7.4491  -14.0201   26.5071 C   0  0  0  0  0  0  0  0  0  0  0  0
    7.3017  -17.1361   23.6958 C   0  0  0  0  0  0  0  0  0  0  0  0
    8.0563  -18.0551   23.2731 O   0  0  0  0  0  0  0  0  0  0  0  0
    8.2367  -13.9053   15.3496 N   0  0  0  0  0  0  0  0  0  0  0  0
    8.6679  -14.0479   16.6774 C   0  0  0  0  0  0  0  0  0  0  0  0
    9.4091  -15.0315   17.0018 N   0  0  0  0  0  0  0  0  0  0  0  0
    8.2787  -13.0890   17.6817 N   0  0  0  0  0  0  0  0  0  0  0  0
    7.5524  -13.5132   18.8355 C   0  0  0  0  0  0  0  0  0  0  0  0
    8.4171  -14.0177   19.9623 C   0  0  0  0  0  0  0  0  0  0  0  0
    7.5109  -14.4992   21.0834 C   0  0  0  0  0  0  0  0  0  0  0  0
    7.8479  -15.8863   21.5552 C   0  0  2  0  0  0  0  0  0  0  0  0
    7.1169  -16.0246   22.8563 N   0  0  0  0  0  0  0  0  0  0  0  0
    9.2724  -16.1425   21.7532 C   0  0  0  0  0  0  0  0  0  0  0  0
    9.8215  -15.2610   22.5688 O   0  0  0  0  0  0  0  0  0  0  0  0
    9.7363  -15.1751   17.9656 N   0  0  0  0  0  0  0  0  0  0  0  0
   10.1493  -17.0861   21.2773 C   0  0  0  0  0  0  0  0  0  0  0  0
    9.6104  -18.3969   20.7708 C   0  0  0  0  0  0  0  0  0  0  0  0
   10.2960  -18.4380   19.4300 C   0  0  0  0  0  0  0  0  0  0  0  0
   11.6109  -17.7395   19.6256 C   0  0  2  0  0  0  0  0  0  0  0  0
   11.5240  -17.2415   21.1209 C   0  0  0  0  0  0  0  0  0  0  0  0
   12.4799  -16.1679   21.2634 O   0  0  0  0  0  0  0  0  0  0  0  0
   13.7561  -16.2706   21.6810 O   0  0  0  0  0  0  0  0  0  0  0  0
  2  1  1  1
  2 13  1  0
  2  3  1  0
  3  4  1  0
  4  5  2  0
  6  5  1  0
  7  6  1  0
  8  7  2  0
  9  8  1  0
 10  9  2  0
 10 11  1  0
 11 12  2  0
 12  7  1  0
 12  4  1  0
 13 14  2  0
 16 17  2  0
 16 15  1  0
 18 16  1  0
 19 18  1  0
 19 20  1  0
 20 21  1  0
 22 21  1  1
 22 24  1  0
 23 13  1  0
 23 22  1  0
 24 25  2  0
 26 24  1  0
 26 27  1  0
 27 28  1  0
 29 28  1  0
 30 26  1  0
 30 29  1  0
 30 31  1  6
 32 31  1  0
 33 31  2  0
M  END
$$$$
