WRP.pdb
     RDKit          3D

 33 35  0  0  1  0  0  0  0  0999 V2000
    6.2549  -18.3428   25.4385 N   0  0  0  0  0  0  0  0  0  0  0  0
    6.7563  -17.0604   24.9867 C   0  0  1  0  0  0  0  0  0  0  0  0
    7.7339  -16.5437   26.0263 C   0  0  0  0  0  0  0  0  0  0  0  0
    7.2186  -15.3157   26.6860 C   0  0  0  0  0  0  0  0  0  0  0  0
    6.3839  -15.2041   27.7882 C   0  0  0  0  0  0  0  0  0  0  0  0
    6.1710  -13.9007   28.0452 N   0  0  0  0  0  0  0  0  0  0  0  0
    6.8378  -13.1645   27.1491 C   0  0  0  0  0  0  0  0  0  0  0  0
    6.9362  -11.7982   26.9933 C   0  0  0  0  0  0  0  0  0  0  0  0
    7.7027  -11.3020   25.9700 C   0  0  0  0  0  0  0  0  0  0  0  0
    8.3640  -12.1473   25.1110 C   0  0  0  0  0  0  0  0  0  0  0  0
    8.2545  -13.5114   25.2816 C   0  0  0  0  0  0  0  0  0  0  0  0
    7.4952  -14.0223   26.2956 C   0  0  0  0  0  0  0  0  0  0  0  0
    7.4137  -17.1480   23.6688 C   0  0  0  0  0  0  0  0  0  0  0  0
    8.1205  -18.1560   23.3916 O   0  0  0  0  0  0  0  0  0  0  0  0
    7.9938  -15.2505   15.9525 N   0  0  0  0  0  0  0  0  0  0  0  0
    8.3922  -13.9191   16.1476 C   0  0  0  0  0  0  0  0  0  0  0  0
    8.8781  -13.2533   15.1768 N   0  0  0  0  0  0  0  0  0  0  0  0
    8.2567  -13.2953   17.4407 N   0  0  0  0  0  0  0  0  0  0  0  0
    7.4169  -13.8815   18.4356 C   0  0  0  0  0  0  0  0  0  0  0  0
    8.0271  -15.0630   19.1451 C   0  0  0  0  0  0  0  0  0  0  0  0
    7.5000  -15.0908   20.5704 C   0  0  0  0  0  0  0  0  0  0  0  0
    7.9752  -16.2864   21.3483 C   0  0  2  0  0  0  0  0  0  0  0  0
    7.2997  -16.1563   22.6799 N   0  0  0  0  0  0  0  0  0  0  0  0
    9.4224  -16.3706   21.5287 C   0  0  0  0  0  0  0  0  0  0  0  0
    9.9005  -15.3166   22.1644 O   0  0  0  0  0  0  0  0  0  0  0  0
    9.1506  -12.2667   15.2724 N   0  0  0  0  0  0  0  0  0  0  0  0
   10.3770  -17.2945   21.1810 C   0  0  0  0  0  0  0  0  0  0  0  0
    9.9620  -18.7211   20.9404 C   0  0  0  0  0  0  0  0  0  0  0  0
   10.6029  -18.9353   19.5940 C   0  0  0  0  0  0  0  0  0  0  0  0
   11.8430  -18.0886   19.5961 C   0  0  2  0  0  0  0  0  0  0  0  0
   11.7544  -17.3410   20.9835 C   0  0  0  0  0  0  0  0  0  0  0  0
   12.5966  -16.1715   20.8862 O   0  0  0  0  0  0  0  0  0  0  0  0
   13.6164  -15.8384   21.7003 O   0  0  0  0  0  0  0  0  0  0  0  0
  2  1  1  1
  2 13  1  0
  2  3  1  0
  3  4  1  0
  4  5  2  0
  6  5  1  0
  7  6  1  0
  8  7  2  0
  9  8  1  0
 10  9  2  0
 10 11  1  0
 11 12  2  0
 12  7  1  0
 12  4  1  0
 13 14  2  0
 16 17  2  0
 16 15  1  0
 18 16  1  0
 19 18  1  0
 19 20  1  0
 20 21  1  0
 22 21  1  6
 22 24  1  0
 23 13  1  0
 23 22  1  0
 24 25  2  0
 26 24  1  0
 26 27  1  0
 27 28  1  0
 29 28  1  0
 30 26  1  0
 30 29  1  0
 30 31  1  6
 32 31  1  0
 33 31  2  0
M  END
$$$$
