WRP.pdb
     RDKit          3D

 33 35  0  0  1  0  0  0  0  0999 V2000
    6.4035  -17.0332   23.7248 N   0  0  0  0  0  0  0  0  0  0  0  0
    7.5846  -16.1964   23.6556 C   0  0  1  0  0  0  0  0  0  0  0  0
    8.0687  -15.9461   25.0721 C   0  0  0  0  0  0  0  0  0  0  0  0
    7.1652  -15.0113   25.7921 C   0  0  0  0  0  0  0  0  0  0  0  0
    6.0928  -15.3025   26.6223 C   0  0  0  0  0  0  0  0  0  0  0  0
    5.5540  -14.1504   27.0610 N   0  0  0  0  0  0  0  0  0  0  0  0
    6.2388  -13.1238   26.5448 C   0  0  0  0  0  0  0  0  0  0  0  0
    6.0781  -11.7625   26.6927 C   0  0  0  0  0  0  0  0  0  0  0  0
    6.9381  -10.9191   26.0371 C   0  0  0  0  0  0  0  0  0  0  0  0
    7.9453  -11.4164   25.2445 C   0  0  0  0  0  0  0  0  0  0  0  0
    8.0915  -12.7808   25.1078 C   0  0  0  0  0  0  0  0  0  0  0  0
    7.2436  -13.6349   25.7538 C   0  0  0  0  0  0  0  0  0  0  0  0
    8.6591  -16.8084   22.8510 C   0  0  0  0  0  0  0  0  0  0  0  0
    8.9516  -18.0237   23.0247 O   0  0  0  0  0  0  0  0  0  0  0  0
    7.7419  -14.9333   17.6333 N   0  0  0  0  0  0  0  0  0  0  0  0
    8.1639  -13.6248   17.9148 C   0  0  0  0  0  0  0  0  0  0  0  0
    7.3123  -12.7446   18.2640 N   0  0  0  0  0  0  0  0  0  0  0  0
    9.5567  -13.2656   17.8122 N   0  0  0  0  0  0  0  0  0  0  0  0
   10.5312  -13.9349   18.6129 C   0  0  0  0  0  0  0  0  0  0  0  0
    9.9792  -15.0590   19.4516 C   0  0  0  0  0  0  0  0  0  0  0  0
   11.1034  -15.6117   20.3123 C   0  0  0  0  0  0  0  0  0  0  0  0
   10.6407  -16.6738   21.2705 C   0  0  2  0  0  0  0  0  0  0  0  0
    9.3947  -16.1069   21.8809 N   0  0  0  0  0  0  0  0  0  0  0  0
   11.5976  -17.0193   22.3189 C   0  0  0  0  0  0  0  0  0  0  0  0
   11.9370  -15.9669   23.0407 O   0  0  0  0  0  0  0  0  0  0  0  0
    7.5863  -11.7831   18.5030 N   0  0  0  0  0  0  0  0  0  0  0  0
   12.2126  -18.1846   22.7056 C   0  0  0  0  0  0  0  0  0  0  0  0
   11.4265  -19.4679   22.6887 C   0  0  0  0  0  0  0  0  0  0  0  0
   12.3795  -20.3245   21.8965 C   0  0  0  0  0  0  0  0  0  0  0  0
   13.7539  -19.8282   22.2427 C   0  0  2  0  0  0  0  0  0  0  0  0
   13.4549  -18.5951   23.1817 C   0  0  0  0  0  0  0  0  0  0  0  0
   14.6370  -17.7650   23.1757 O   0  0  0  0  0  0  0  0  0  0  0  0
   14.8436  -16.6560   22.4400 O   0  0  0  0  0  0  0  0  0  0  0  0
  2  1  1  1
  2 13  1  0
  2  3  1  0
  3  4  1  0
  4  5  2  0
  6  5  1  0
  7  6  1  0
  8  7  2  0
  9  8  1  0
 10  9  2  0
 10 11  1  0
 11 12  2  0
 12  7  1  0
 12  4  1  0
 13 14  2  0
 16 17  2  0
 16 15  1  0
 18 16  1  0
 19 18  1  0
 19 20  1  0
 20 21  1  0
 22 21  1  6
 22 24  1  0
 23 13  1  0
 23 22  1  0
 24 25  2  0
 26 24  1  0
 26 27  1  0
 27 28  1  0
 29 28  1  0
 30 26  1  0
 30 29  1  0
 30 31  1  6
 32 31  1  0
 33 31  2  0
M  END
$$$$
