WRP.pdb
     RDKit          3D

 33 35  0  0  1  0  0  0  0  0999 V2000
    7.0661  -18.4586   26.0418 N   0  0  0  0  0  0  0  0  0  0  0  0
    7.1861  -17.1848   25.3612 C   0  0  1  0  0  0  0  0  0  0  0  0
    8.0658  -16.2806   26.2049 C   0  0  0  0  0  0  0  0  0  0  0  0
    7.2743  -15.1861   26.8248 C   0  0  0  0  0  0  0  0  0  0  0  0
    6.2231  -15.2738   27.7255 C   0  0  0  0  0  0  0  0  0  0  0  0
    5.7986  -14.0326   28.0242 N   0  0  0  0  0  0  0  0  0  0  0  0
    6.5371  -13.1445   27.3494 C   0  0  0  0  0  0  0  0  0  0  0  0
    6.4916  -11.7668   27.3181 C   0  0  0  0  0  0  0  0  0  0  0  0
    7.3835  -11.0928   26.5235 C   0  0  0  0  0  0  0  0  0  0  0  0
    8.3092  -11.7736   25.7689 C   0  0  0  0  0  0  0  0  0  0  0  0
    8.3405  -13.1516   25.8123 C   0  0  0  0  0  0  0  0  0  0  0  0
    7.4595  -13.8384   26.5983 C   0  0  0  0  0  0  0  0  0  0  0  0
    7.7513  -17.3244   24.0056 C   0  0  0  0  0  0  0  0  0  0  0  0
    8.5492  -18.2704   23.7582 O   0  0  0  0  0  0  0  0  0  0  0  0
    9.2491  -12.5958   16.3189 N   0  0  0  0  0  0  0  0  0  0  0  0
    8.5472  -13.6820   16.8639 C   0  0  0  0  0  0  0  0  0  0  0  0
    8.6060  -14.8227   16.3005 N   0  0  0  0  0  0  0  0  0  0  0  0
    7.7573  -13.5190   18.0593 N   0  0  0  0  0  0  0  0  0  0  0  0
    6.9441  -14.5925   18.5338 C   0  0  0  0  0  0  0  0  0  0  0  0
    7.7029  -15.6680   19.2682 C   0  0  0  0  0  0  0  0  0  0  0  0
    7.3578  -15.5744   20.7455 C   0  0  0  0  0  0  0  0  0  0  0  0
    7.9836  -16.6690   21.5645 C   0  0  2  0  0  0  0  0  0  0  0  0
    7.4502  -16.4498   22.9479 N   0  0  0  0  0  0  0  0  0  0  0  0
    9.4443  -16.6662   21.5863 C   0  0  0  0  0  0  0  0  0  0  0  0
    9.9260  -15.5450   22.0908 O   0  0  0  0  0  0  0  0  0  0  0  0
    8.1923  -15.6634   16.7232 N   0  0  0  0  0  0  0  0  0  0  0  0
   10.4079  -17.5638   21.1971 C   0  0  0  0  0  0  0  0  0  0  0  0
   10.0517  -19.0226   21.0963 C   0  0  0  0  0  0  0  0  0  0  0  0
   10.5582  -19.2993   19.7047 C   0  0  0  0  0  0  0  0  0  0  0  0
   11.7414  -18.3940   19.5167 C   0  0  2  0  0  0  0  0  0  0  0  0
   11.7572  -17.5557   20.8541 C   0  0  0  0  0  0  0  0  0  0  0  0
   12.5165  -16.3556   20.5899 O   0  0  0  0  0  0  0  0  0  0  0  0
   12.2917  -15.4537   19.6154 O   0  0  0  0  0  0  0  0  0  0  0  0
  2  1  1  1
  2 13  1  0
  2  3  1  0
  3  4  1  0
  4  5  2  0
  6  5  1  0
  7  6  1  0
  8  7  2  0
  9  8  1  0
 10  9  2  0
 10 11  1  0
 11 12  2  0
 12  7  1  0
 12  4  1  0
 13 14  2  0
 16 17  2  0
 16 15  1  0
 18 16  1  0
 19 18  1  0
 19 20  1  0
 20 21  1  0
 22 21  1  6
 22 24  1  0
 23 13  1  0
 23 22  1  0
 24 25  2  0
 26 24  1  0
 26 27  1  0
 27 28  1  0
 29 28  1  0
 30 26  1  0
 30 29  1  0
 30 31  1  6
 32 31  1  0
 33 31  2  0
M  END
$$$$
