WRP.pdb
     RDKit          3D

 33 35  0  0  1  0  0  0  0  0999 V2000
    6.0237  -17.8024   24.8322 N   0  0  0  0  0  0  0  0  0  0  0  0
    6.7841  -16.6439   24.4081 C   0  0  1  0  0  0  0  0  0  0  0  0
    7.4787  -16.0641   25.6266 C   0  0  0  0  0  0  0  0  0  0  0  0
    6.7556  -14.8723   26.1419 C   0  0  0  0  0  0  0  0  0  0  0  0
    5.4780  -14.7924   26.6761 C   0  0  0  0  0  0  0  0  0  0  0  0
    5.2250  -13.5152   27.0152 N   0  0  0  0  0  0  0  0  0  0  0  0
    6.2927  -12.7654   26.7197 C   0  0  0  0  0  0  0  0  0  0  0  0
    6.5221  -11.4150   26.8764 C   0  0  0  0  0  0  0  0  0  0  0  0
    7.7294  -10.8981   26.4812 C   0  0  0  0  0  0  0  0  0  0  0  0
    8.6984  -11.7076   25.9374 C   0  0  0  0  0  0  0  0  0  0  0  0
    8.4520  -13.0562   25.7881 C   0  0  0  0  0  0  0  0  0  0  0  0
    7.2550  -13.5872   26.1765 C   0  0  0  0  0  0  0  0  0  0  0  0
    7.7750  -16.9741   23.3662 C   0  0  0  0  0  0  0  0  0  0  0  0
    8.4215  -18.0553   23.4425 O   0  0  0  0  0  0  0  0  0  0  0  0
    7.8750  -12.6197   16.1433 N   0  0  0  0  0  0  0  0  0  0  0  0
    8.3130  -13.9524   16.1843 C   0  0  0  0  0  0  0  0  0  0  0  0
    8.7990  -14.4931   15.1387 N   0  0  0  0  0  0  0  0  0  0  0  0
    8.2177  -14.7182   17.4025 N   0  0  0  0  0  0  0  0  0  0  0  0
    7.7114  -14.1132   18.5926 C   0  0  0  0  0  0  0  0  0  0  0  0
    7.6104  -15.0490   19.7698 C   0  0  0  0  0  0  0  0  0  0  0  0
    9.0170  -15.3804   20.2408 C   0  0  0  0  0  0  0  0  0  0  0  0
    9.0541  -16.5192   21.2216 C   0  0  2  0  0  0  0  0  0  0  0  0
    8.0507  -16.1411   22.2688 N   0  0  0  0  0  0  0  0  0  0  0  0
   10.3554  -16.7592   21.8406 C   0  0  0  0  0  0  0  0  0  0  0  0
   10.7022  -15.7770   22.6522 O   0  0  0  0  0  0  0  0  0  0  0  0
    9.1079  -15.4734   15.1232 N   0  0  0  0  0  0  0  0  0  0  0  0
   11.2818  -17.7694   21.7574 C   0  0  0  0  0  0  0  0  0  0  0  0
   10.8054  -19.1895   21.6104 C   0  0  0  0  0  0  0  0  0  0  0  0
   11.6313  -19.5991   20.4188 C   0  0  0  0  0  0  0  0  0  0  0  0
   12.9148  -18.8279   20.5309 C   0  0  2  0  0  0  0  0  0  0  0  0
   12.6660  -17.9152   21.7945 C   0  0  0  0  0  0  0  0  0  0  0  0
   13.5970  -16.8141   21.7085 O   0  0  0  0  0  0  0  0  0  0  0  0
   14.8060  -16.7287   22.2955 O   0  0  0  0  0  0  0  0  0  0  0  0
  2  1  1  1
  2 13  1  0
  2  3  1  0
  3  4  1  0
  4  5  2  0
  6  5  1  0
  7  6  1  0
  8  7  2  0
  9  8  1  0
 10  9  2  0
 10 11  1  0
 11 12  2  0
 12  7  1  0
 12  4  1  0
 13 14  2  0
 16 17  2  0
 16 15  1  0
 18 16  1  0
 19 18  1  0
 19 20  1  0
 20 21  1  0
 22 21  1  6
 22 24  1  0
 23 13  1  0
 23 22  1  0
 24 25  2  0
 26 24  1  0
 26 27  1  0
 27 28  1  0
 29 28  1  0
 30 26  1  0
 30 29  1  0
 30 31  1  6
 32 31  1  0
 33 31  2  0
M  END
$$$$
