WRP.pdb
     RDKit          3D

 33 35  0  0  1  0  0  0  0  0999 V2000
    6.3807  -18.7125   25.8307 N   0  0  0  0  0  0  0  0  0  0  0  0
    6.7220  -17.3634   25.4261 C   0  0  1  0  0  0  0  0  0  0  0  0
    7.6130  -16.7613   26.4970 C   0  0  0  0  0  0  0  0  0  0  0  0
    7.0600  -15.4754   26.9965 C   0  0  0  0  0  0  0  0  0  0  0  0
    6.1273  -15.2598   28.0003 C   0  0  0  0  0  0  0  0  0  0  0  0
    5.9147  -13.9369   28.1227 N   0  0  0  0  0  0  0  0  0  0  0  0
    6.6761  -13.2884   27.2344 C   0  0  0  0  0  0  0  0  0  0  0  0
    6.8134  -11.9419   26.9718 C   0  0  0  0  0  0  0  0  0  0  0  0
    7.6817  -11.5444   25.9874 C   0  0  0  0  0  0  0  0  0  0  0  0
    8.4057  -12.4680   25.2714 C   0  0  0  0  0  0  0  0  0  0  0  0
    8.2560  -13.8108   25.5474 C   0  0  0  0  0  0  0  0  0  0  0  0
    7.3955  -14.2238   26.5245 C   0  0  0  0  0  0  0  0  0  0  0  0
    7.4021  -17.3256   24.1174 C   0  0  0  0  0  0  0  0  0  0  0  0
    8.1121  -18.3045   23.7564 O   0  0  0  0  0  0  0  0  0  0  0  0
    8.5608  -12.5179   17.4353 N   0  0  0  0  0  0  0  0  0  0  0  0
    8.4632  -13.7917   16.8545 C   0  0  0  0  0  0  0  0  0  0  0  0
    9.0140  -14.0200   15.7292 N   0  0  0  0  0  0  0  0  0  0  0  0
    7.7430  -14.8482   17.5213 N   0  0  0  0  0  0  0  0  0  0  0  0
    7.2339  -14.6481   18.8403 C   0  0  0  0  0  0  0  0  0  0  0  0
    8.2795  -14.7061   19.9243 C   0  0  0  0  0  0  0  0  0  0  0  0
    7.5816  -14.9614   21.2502 C   0  0  0  0  0  0  0  0  0  0  0  0
    8.0365  -16.2294   21.9178 C   0  0  2  0  0  0  0  0  0  0  0  0
    7.3069  -16.2428   23.2270 N   0  0  0  0  0  0  0  0  0  0  0  0
    9.4760  -16.3246   22.1474 C   0  0  0  0  0  0  0  0  0  0  0  0
    9.9414  -15.2710   22.7932 O   0  0  0  0  0  0  0  0  0  0  0  0
    9.0066  -14.9521   15.2958 N   0  0  0  0  0  0  0  0  0  0  0  0
   10.4339  -17.2583   21.8371 C   0  0  0  0  0  0  0  0  0  0  0  0
   10.0108  -18.6740   21.5507 C   0  0  0  0  0  0  0  0  0  0  0  0
   10.7213  -18.8775   20.2379 C   0  0  0  0  0  0  0  0  0  0  0  0
   11.9723  -18.0512   20.3218 C   0  0  2  0  0  0  0  0  0  0  0  0
   11.8192  -17.3241   21.7145 C   0  0  0  0  0  0  0  0  0  0  0  0
   12.6834  -16.1672   21.6828 O   0  0  0  0  0  0  0  0  0  0  0  0
   12.3074  -14.8789   21.5710 O   0  0  0  0  0  0  0  0  0  0  0  0
  2  1  1  1
  2 13  1  0
  2  3  1  0
  3  4  1  0
  4  5  2  0
  6  5  1  0
  7  6  1  0
  8  7  2  0
  9  8  1  0
 10  9  2  0
 10 11  1  0
 11 12  2  0
 12  7  1  0
 12  4  1  0
 13 14  2  0
 16 17  2  0
 16 15  1  0
 18 16  1  0
 19 18  1  0
 19 20  1  0
 20 21  1  0
 22 21  1  1
 22 24  1  0
 23 13  1  0
 23 22  1  0
 24 25  2  0
 26 24  1  0
 26 27  1  0
 27 28  1  0
 29 28  1  0
 30 26  1  0
 30 29  1  0
 30 31  1  6
 32 31  1  0
 33 31  2  0
M  END
$$$$
