WRP.pdb
     RDKit          3D

 33 35  0  0  1  0  0  0  0  0999 V2000
    6.3541  -18.3127   25.4257 N   0  0  0  0  0  0  0  0  0  0  0  0
    6.6713  -16.9987   24.9033 C   0  0  1  0  0  0  0  0  0  0  0  0
    7.3581  -16.2079   26.0016 C   0  0  0  0  0  0  0  0  0  0  0  0
    6.6296  -14.9453   26.2914 C   0  0  0  0  0  0  0  0  0  0  0  0
    5.2747  -14.7539   26.5184 C   0  0  0  0  0  0  0  0  0  0  0  0
    5.0490  -13.4462   26.7400 N   0  0  0  0  0  0  0  0  0  0  0  0
    6.2089  -12.7841   26.6646 C   0  0  0  0  0  0  0  0  0  0  0  0
    6.4981  -11.4445   26.8151 C   0  0  0  0  0  0  0  0  0  0  0  0
    7.7985  -11.0290   26.6836 C   0  0  0  0  0  0  0  0  0  0  0  0
    8.8009  -11.9280   26.4065 C   0  0  0  0  0  0  0  0  0  0  0  0
    8.4936  -13.2643   26.2592 C   0  0  0  0  0  0  0  0  0  0  0  0
    7.2037  -13.6950   26.3870 C   0  0  0  0  0  0  0  0  0  0  0  0
    7.5332  -17.0637   23.7076 C   0  0  0  0  0  0  0  0  0  0  0  0
    8.3951  -17.9803   23.6108 O   0  0  0  0  0  0  0  0  0  0  0  0
    6.9942  -13.4727   15.9276 N   0  0  0  0  0  0  0  0  0  0  0  0
    8.2827  -14.0284   15.9078 C   0  0  0  0  0  0  0  0  0  0  0  0
    8.8439  -14.2903   14.7949 N   0  0  0  0  0  0  0  0  0  0  0  0
    8.9800  -14.3071   17.1389 N   0  0  0  0  0  0  0  0  0  0  0  0
    8.2708  -14.3196   18.3782 C   0  0  0  0  0  0  0  0  0  0  0  0
    9.1033  -14.7310   19.5653 C   0  0  0  0  0  0  0  0  0  0  0  0
    8.1806  -14.9052   20.7605 C   0  0  0  0  0  0  0  0  0  0  0  0
    8.3829  -16.2142   21.4719 C   0  0  2  0  0  0  0  0  0  0  0  0
    7.4528  -16.1476   22.6452 N   0  0  0  0  0  0  0  0  0  0  0  0
    9.7475  -16.4639   21.9300 C   0  0  0  0  0  0  0  0  0  0  0  0
   10.1632  -15.5311   22.7671 O   0  0  0  0  0  0  0  0  0  0  0  0
    9.7787  -14.7143   14.7403 N   0  0  0  0  0  0  0  0  0  0  0  0
   10.6765  -17.4430   21.6774 C   0  0  0  0  0  0  0  0  0  0  0  0
   10.2062  -18.8481   21.4132 C   0  0  0  0  0  0  0  0  0  0  0  0
   10.9517  -19.1153   20.1316 C   0  0  0  0  0  0  0  0  0  0  0  0
   12.2317  -18.3373   20.2375 C   0  0  2  0  0  0  0  0  0  0  0  0
   12.0614  -17.5670   21.6047 C   0  0  0  0  0  0  0  0  0  0  0  0
   12.9724  -16.4465   21.5730 O   0  0  0  0  0  0  0  0  0  0  0  0
   12.6488  -15.1427   21.4787 O   0  0  0  0  0  0  0  0  0  0  0  0
  2  1  1  1
  2 13  1  0
  2  3  1  0
  3  4  1  0
  4  5  2  0
  6  5  1  0
  7  6  1  0
  8  7  2  0
  9  8  1  0
 10  9  2  0
 10 11  1  0
 11 12  2  0
 12  7  1  0
 12  4  1  0
 13 14  2  0
 16 17  2  0
 16 15  1  0
 18 16  1  0
 19 18  1  0
 19 20  1  0
 20 21  1  0
 22 21  1  1
 22 24  1  0
 23 13  1  0
 23 22  1  0
 24 25  2  0
 26 24  1  0
 26 27  1  0
 27 28  1  0
 29 28  1  0
 30 26  1  0
 30 29  1  0
 30 31  1  6
 32 31  1  0
 33 31  2  0
M  END
$$$$
