WRP.pdb
     RDKit          3D

 33 35  0  0  1  0  0  0  0  0999 V2000
    6.0615  -18.6412   24.8144 N   0  0  0  0  0  0  0  0  0  0  0  0
    6.3958  -17.2589   24.5358 C   0  0  1  0  0  0  0  0  0  0  0  0
    7.0524  -16.6742   25.7728 C   0  0  0  0  0  0  0  0  0  0  0  0
    6.4409  -15.3707   26.1412 C   0  0  0  0  0  0  0  0  0  0  0  0
    5.1033  -15.0607   26.3379 C   0  0  0  0  0  0  0  0  0  0  0  0
    4.9990  -13.7583   26.6589 N   0  0  0  0  0  0  0  0  0  0  0  0
    6.2208  -13.2139   26.6771 C   0  0  0  0  0  0  0  0  0  0  0  0
    6.6345  -11.9267   26.9470 C   0  0  0  0  0  0  0  0  0  0  0  0
    7.9739  -11.6368   26.8937 C   0  0  0  0  0  0  0  0  0  0  0  0
    8.8931  -12.6087   26.5770 C   0  0  0  0  0  0  0  0  0  0  0  0
    8.4617  -13.8910   26.3099 C   0  0  0  0  0  0  0  0  0  0  0  0
    7.1313  -14.1967   26.3586 C   0  0  0  0  0  0  0  0  0  0  0  0
    7.2912  -17.1223   23.3712 C   0  0  0  0  0  0  0  0  0  0  0  0
    8.0881  -18.0582   23.0856 O   0  0  0  0  0  0  0  0  0  0  0  0
    7.7654  -15.3473   15.7113 N   0  0  0  0  0  0  0  0  0  0  0  0
    8.2373  -14.3134   16.5345 C   0  0  0  0  0  0  0  0  0  0  0  0
    8.3364  -13.1303   16.0736 N   0  0  0  0  0  0  0  0  0  0  0  0
    8.6126  -14.5780   17.9015 N   0  0  0  0  0  0  0  0  0  0  0  0
    8.8717  -13.4961   18.7967 C   0  0  0  0  0  0  0  0  0  0  0  0
    9.3229  -13.9218   20.1703 C   0  0  0  0  0  0  0  0  0  0  0  0
    8.1148  -14.4417   20.9320 C   0  0  0  0  0  0  0  0  0  0  0  0
    8.2865  -15.8571   21.4088 C   0  0  2  0  0  0  0  0  0  0  0  0
    7.3131  -15.9890   22.5408 N   0  0  0  0  0  0  0  0  0  0  0  0
    9.6321  -16.1963   21.8654 C   0  0  0  0  0  0  0  0  0  0  0  0
   10.0647  -15.3557   22.7873 O   0  0  0  0  0  0  0  0  0  0  0  0
    8.6666  -12.3451   16.6491 N   0  0  0  0  0  0  0  0  0  0  0  0
   10.5303  -17.1838   21.5434 C   0  0  0  0  0  0  0  0  0  0  0  0
   10.0307  -18.4419   20.8856 C   0  0  0  0  0  0  0  0  0  0  0  0
   10.9764  -18.4938   19.7140 C   0  0  0  0  0  0  0  0  0  0  0  0
   12.2614  -17.8904   20.2034 C   0  0  2  0  0  0  0  0  0  0  0  0
   11.8956  -17.4268   21.6673 C   0  0  0  0  0  0  0  0  0  0  0  0
   12.8638  -16.4239   22.0456 O   0  0  0  0  0  0  0  0  0  0  0  0
   12.9530  -15.1660   21.5729 O   0  0  0  0  0  0  0  0  0  0  0  0
  2  1  1  1
  2 13  1  0
  2  3  1  0
  3  4  1  0
  4  5  2  0
  6  5  1  0
  7  6  1  0
  8  7  2  0
  9  8  1  0
 10  9  2  0
 10 11  1  0
 11 12  2  0
 12  7  1  0
 12  4  1  0
 13 14  2  0
 16 17  2  0
 16 15  1  0
 18 16  1  0
 19 18  1  0
 19 20  1  0
 20 21  1  0
 22 21  1  1
 22 24  1  0
 23 13  1  0
 23 22  1  0
 24 25  2  0
 26 24  1  0
 26 27  1  0
 27 28  1  0
 29 28  1  0
 30 26  1  0
 30 29  1  0
 30 31  1  6
 32 31  1  0
 33 31  2  0
M  END
$$$$
