WRP.pdb
     RDKit          3D

 33 35  0  0  1  0  0  0  0  0999 V2000
    5.9365  -18.4490   24.8352 N   0  0  0  0  0  0  0  0  0  0  0  0
    6.3260  -17.0831   24.5473 C   0  0  1  0  0  0  0  0  0  0  0  0
    7.2635  -16.6186   25.6467 C   0  0  0  0  0  0  0  0  0  0  0  0
    6.8916  -15.2650   26.1347 C   0  0  0  0  0  0  0  0  0  0  0  0
    5.6684  -14.8165   26.6107 C   0  0  0  0  0  0  0  0  0  0  0  0
    5.7787  -13.5178   26.9446 N   0  0  0  0  0  0  0  0  0  0  0  0
    7.0292  -13.1095   26.7019 C   0  0  0  0  0  0  0  0  0  0  0  0
    7.6303  -11.8809   26.8759 C   0  0  0  0  0  0  0  0  0  0  0  0
    8.9518  -11.7366   26.5388 C   0  0  0  0  0  0  0  0  0  0  0  0
    9.6702  -12.7951   26.0355 C   0  0  0  0  0  0  0  0  0  0  0  0
    9.0531  -14.0169   25.8680 C   0  0  0  0  0  0  0  0  0  0  0  0
    7.7377  -14.1778   26.1988 C   0  0  0  0  0  0  0  0  0  0  0  0
    6.9799  -16.9519   23.2314 C   0  0  0  0  0  0  0  0  0  0  0  0
    7.6041  -17.9353   22.7457 O   0  0  0  0  0  0  0  0  0  0  0  0
    8.1818  -13.2407   15.6339 N   0  0  0  0  0  0  0  0  0  0  0  0
    8.5988  -14.5053   16.0771 C   0  0  0  0  0  0  0  0  0  0  0  0
    9.3429  -15.2244   15.3346 N   0  0  0  0  0  0  0  0  0  0  0  0
    8.1917  -15.0005   17.3688 N   0  0  0  0  0  0  0  0  0  0  0  0
    7.5152  -14.1406   18.2862 C   0  0  0  0  0  0  0  0  0  0  0  0
    8.2975  -13.8281   19.5360 C   0  0  0  0  0  0  0  0  0  0  0  0
    7.4602  -14.2307   20.7389 C   0  0  0  0  0  0  0  0  0  0  0  0
    7.7134  -15.6445   21.1832 C   0  0  2  0  0  0  0  0  0  0  0  0
    6.9508  -15.7732   22.4670 N   0  0  0  0  0  0  0  0  0  0  0  0
    9.1181  -15.9814   21.4009 C   0  0  0  0  0  0  0  0  0  0  0  0
    9.7045  -15.1338   22.2263 O   0  0  0  0  0  0  0  0  0  0  0  0
    9.6996  -16.1389   15.6398 N   0  0  0  0  0  0  0  0  0  0  0  0
    9.9467  -16.9726   20.9354 C   0  0  0  0  0  0  0  0  0  0  0  0
    9.3413  -18.2471   20.4117 C   0  0  0  0  0  0  0  0  0  0  0  0
   10.0478  -18.3220   19.0832 C   0  0  0  0  0  0  0  0  0  0  0  0
   11.3976  -17.7029   19.3066 C   0  0  2  0  0  0  0  0  0  0  0  0
   11.3126  -17.2078   20.8031 C   0  0  0  0  0  0  0  0  0  0  0  0
   12.3270  -16.1929   20.9691 O   0  0  0  0  0  0  0  0  0  0  0  0
   12.1291  -14.8761   21.1702 O   0  0  0  0  0  0  0  0  0  0  0  0
  2  1  1  1
  2 13  1  0
  2  3  1  0
  3  4  1  0
  4  5  2  0
  6  5  1  0
  7  6  1  0
  8  7  2  0
  9  8  1  0
 10  9  2  0
 10 11  1  0
 11 12  2  0
 12  7  1  0
 12  4  1  0
 13 14  2  0
 16 17  2  0
 16 15  1  0
 18 16  1  0
 19 18  1  0
 19 20  1  0
 20 21  1  0
 22 21  1  1
 22 24  1  0
 23 13  1  0
 23 22  1  0
 24 25  2  0
 26 24  1  0
 26 27  1  0
 27 28  1  0
 29 28  1  0
 30 26  1  0
 30 29  1  0
 30 31  1  6
 32 31  1  0
 33 31  2  0
M  END
$$$$
