WRP.pdb
     RDKit          3D

 33 35  0  0  1  0  0  0  0  0999 V2000
    6.0352  -17.6683   24.3571 N   0  0  0  0  0  0  0  0  0  0  0  0
    6.7170  -16.5325   23.7696 C   0  0  1  0  0  0  0  0  0  0  0  0
    7.6932  -15.9865   24.7954 C   0  0  0  0  0  0  0  0  0  0  0  0
    7.0047  -15.1139   25.7820 C   0  0  0  0  0  0  0  0  0  0  0  0
    6.1864  -15.4748   26.8423 C   0  0  0  0  0  0  0  0  0  0  0  0
    5.7761  -14.3615   27.4766 N   0  0  0  0  0  0  0  0  0  0  0  0
    6.2993  -13.2929   26.8653 C   0  0  0  0  0  0  0  0  0  0  0  0
    6.1776  -11.9461   27.1343 C   0  0  0  0  0  0  0  0  0  0  0  0
    6.8344  -11.0486   26.3318 C   0  0  0  0  0  0  0  0  0  0  0  0
    7.6024  -11.4782   25.2757 C   0  0  0  0  0  0  0  0  0  0  0  0
    7.7130  -12.8290   25.0211 C   0  0  0  0  0  0  0  0  0  0  0  0
    7.0655  -13.7364   25.8105 C   0  0  0  0  0  0  0  0  0  0  0  0
    7.4294  -16.8871   22.5273 C   0  0  0  0  0  0  0  0  0  0  0  0
    7.9230  -18.0417   22.4008 O   0  0  0  0  0  0  0  0  0  0  0  0
    7.7341  -12.8155   15.0182 N   0  0  0  0  0  0  0  0  0  0  0  0
    7.3784  -14.1461   15.2877 C   0  0  0  0  0  0  0  0  0  0  0  0
    6.5444  -14.7451   14.5343 N   0  0  0  0  0  0  0  0  0  0  0  0
    7.9497  -14.8442   16.4127 N   0  0  0  0  0  0  0  0  0  0  0  0
    8.9698  -14.2263   17.1978 C   0  0  0  0  0  0  0  0  0  0  0  0
    9.4882  -15.0812   18.3256 C   0  0  0  0  0  0  0  0  0  0  0  0
    8.4584  -15.0761   19.4434 C   0  0  0  0  0  0  0  0  0  0  0  0
    8.5480  -16.2876   20.3292 C   0  0  2  0  0  0  0  0  0  0  0  0
    7.5968  -15.9995   21.4510 N   0  0  0  0  0  0  0  0  0  0  0  0
    9.8793  -16.5657   20.8625 C   0  0  0  0  0  0  0  0  0  0  0  0
   10.3564  -15.5445   21.5503 O   0  0  0  0  0  0  0  0  0  0  0  0
    6.4357  -15.7672   14.5429 N   0  0  0  0  0  0  0  0  0  0  0  0
   10.7286  -17.6430   20.7993 C   0  0  0  0  0  0  0  0  0  0  0  0
   10.1488  -19.0257   20.6682 C   0  0  0  0  0  0  0  0  0  0  0  0
   10.9489  -19.5121   19.4880 C   0  0  0  0  0  0  0  0  0  0  0  0
   12.2855  -18.8369   19.5985 C   0  0  2  0  0  0  0  0  0  0  0  0
   12.0978  -17.8906   20.8479 C   0  0  0  0  0  0  0  0  0  0  0  0
   13.1086  -16.8630   20.7535 O   0  0  0  0  0  0  0  0  0  0  0  0
   13.2501  -15.9550   19.7691 O   0  0  0  0  0  0  0  0  0  0  0  0
  2  1  1  1
  2 13  1  0
  2  3  1  0
  3  4  1  0
  4  5  2  0
  6  5  1  0
  7  6  1  0
  8  7  2  0
  9  8  1  0
 10  9  2  0
 10 11  1  0
 11 12  2  0
 12  7  1  0
 12  4  1  0
 13 14  2  0
 16 17  2  0
 16 15  1  0
 18 16  1  0
 19 18  1  0
 19 20  1  0
 20 21  1  0
 22 21  1  6
 22 24  1  0
 23 13  1  0
 23 22  1  0
 24 25  2  0
 26 24  1  0
 26 27  1  0
 27 28  1  0
 29 28  1  0
 30 26  1  0
 30 29  1  0
 30 31  1  6
 32 31  1  0
 33 31  2  0
M  END
$$$$
