CIN.pdb
     RDKit          3D

 23 22  0  0  1  0  0  0  0  0999 V2000
    6.5611  -15.5359   21.3668 N   0  0  0  0  0  0  0  0  0  0  0  0
    7.9080  -15.0570   21.2273 C   0  0  1  0  0  0  0  0  0  0  0  0
    7.9992  -13.8685   20.3157 C   0  0  0  0  0  0  0  0  0  0  0  0
    7.3174  -14.3607   18.7032 S   0  0  0  0  0  0  0  0  0  0  0  0
    8.5410  -14.7999   22.5551 C   0  0  0  0  0  0  0  0  0  0  0  0
    9.7701  -14.6368   22.5910 O   0  0  0  0  0  0  0  0  0  0  0  0
    5.9098  -11.9178   26.1774 C   0  0  0  0  0  0  0  0  0  0  0  0
    7.0737  -12.4459   25.3640 C   0  0  0  0  0  0  0  0  0  0  0  0
    7.4692  -13.7722   25.9543 C   0  0  2  0  0  0  0  0  0  0  0  0
    8.0791  -13.6244   27.3065 C   0  0  0  0  0  0  0  0  0  0  0  0
    8.3965  -14.5551   25.0499 C   0  0  2  0  0  0  0  0  0  0  0  0
    7.7700  -14.7422   23.7442 N   0  0  0  0  0  0  0  0  0  0  0  0
    8.7494  -15.8675   25.6373 C   0  0  0  0  0  0  0  0  0  0  0  0
    7.8315  -16.6949   25.8449 O   0  0  0  0  0  0  0  0  0  0  0  0
   11.3159  -20.3193   26.7431 N   0  0  0  0  0  0  0  0  0  0  0  0
   12.2287  -19.2843   26.4121 C   0  0  0  0  0  0  0  0  0  0  0  0
   13.4538  -19.5194   26.5432 O   0  0  0  0  0  0  0  0  0  0  0  0
   11.7294  -17.9948   25.9359 C   0  0  0  0  0  0  0  0  0  0  0  0
   10.3903  -17.6012   26.4658 C   0  0  2  0  0  0  0  0  0  0  0  0
   10.0710  -16.2501   25.9825 N   0  0  0  0  0  0  0  0  0  0  0  0
   10.4860  -17.5500   27.9386 C   0  0  0  0  0  0  0  0  0  0  0  0
   10.3944  -18.7592   28.6313 O   0  0  0  0  0  0  0  0  0  0  0  0
   10.6433  -16.4438   28.5048 O   0  0  0  0  0  0  0  0  0  0  0  0
  2  3  1  0
  2  1  1  1
  3  4  1  0
  5  2  1  0
  5  6  2  0
  7  8  1  0
  8  9  1  0
  9 11  1  0
  9 10  1  1
 11 12  1  6
 11 13  1  0
 12  5  1  0
 13 20  1  0
 14 13  2  0
 15 16  1  0
 16 17  2  0
 18 16  1  0
 19 18  1  6
 19 21  1  0
 20 19  1  0
 21 23  2  0
 21 22  1  0
M  END
$$$$
