CIN.pdb
     RDKit          3D

 23 22  0  0  1  0  0  0  0  0999 V2000
    8.5254  -14.4778   20.0384 N   0  0  0  0  0  0  0  0  0  0  0  0
    7.5957  -14.8331   21.0739 C   0  0  1  0  0  0  0  0  0  0  0  0
    7.0400  -16.2152   20.8917 C   0  0  0  0  0  0  0  0  0  0  0  0
    6.0879  -16.2235   19.3424 S   0  0  0  0  0  0  0  0  0  0  0  0
    8.1830  -14.6352   22.4325 C   0  0  0  0  0  0  0  0  0  0  0  0
    9.4116  -14.7517   22.5570 O   0  0  0  0  0  0  0  0  0  0  0  0
    5.7663  -11.3359   25.9835 C   0  0  0  0  0  0  0  0  0  0  0  0
    6.8243  -12.0339   25.1537 C   0  0  0  0  0  0  0  0  0  0  0  0
    7.0641  -13.3834   25.7745 C   0  0  2  0  0  0  0  0  0  0  0  0
    7.6588  -13.2759   27.1372 C   0  0  0  0  0  0  0  0  0  0  0  0
    7.9207  -14.2772   24.9039 C   0  0  2  0  0  0  0  0  0  0  0  0
    7.3701  -14.3236   23.5522 N   0  0  0  0  0  0  0  0  0  0  0  0
    8.0192  -15.6458   25.4600 C   0  0  0  0  0  0  0  0  0  0  0  0
    7.1754  -16.4990   25.0992 O   0  0  0  0  0  0  0  0  0  0  0  0
   11.0578  -19.3091   23.8329 N   0  0  0  0  0  0  0  0  0  0  0  0
   11.5177  -18.2767   24.6911 C   0  0  0  0  0  0  0  0  0  0  0  0
   12.6705  -18.3858   25.1735 O   0  0  0  0  0  0  0  0  0  0  0  0
   10.6545  -17.1338   24.9867 C   0  0  0  0  0  0  0  0  0  0  0  0
    9.7918  -17.2896   26.1952 C   0  0  2  0  0  0  0  0  0  0  0  0
    9.0160  -16.0550   26.3826 N   0  0  0  0  0  0  0  0  0  0  0  0
   10.6795  -17.4543   27.3639 C   0  0  0  0  0  0  0  0  0  0  0  0
   11.3572  -16.3221   27.8212 O   0  0  0  0  0  0  0  0  0  0  0  0
   10.7916  -18.5834   27.8945 O   0  0  0  0  0  0  0  0  0  0  0  0
  2  3  1  0
  2  1  1  6
  3  4  1  0
  5  2  1  0
  5  6  2  0
  7  8  1  0
  8  9  1  0
  9 11  1  0
  9 10  1  1
 11 12  1  6
 11 13  1  0
 12  5  1  0
 13 20  1  0
 14 13  2  0
 15 16  1  0
 16 17  2  0
 18 16  1  0
 19 18  1  6
 19 21  1  0
 20 19  1  0
 21 23  2  0
 21 22  1  0
M  END
$$$$
