CIN.pdb
     RDKit          3D

 23 22  0  0  1  0  0  0  0  0999 V2000
    7.6616  -14.3076   20.0054 N   0  0  0  0  0  0  0  0  0  0  0  0
    7.0581  -14.9147   21.1588 C   0  0  1  0  0  0  0  0  0  0  0  0
    6.7663  -16.3717   20.9495 C   0  0  0  0  0  0  0  0  0  0  0  0
    5.2987  -16.4892   19.8821 S   0  0  0  0  0  0  0  0  0  0  0  0
    7.8626  -14.6716   22.3931 C   0  0  0  0  0  0  0  0  0  0  0  0
    9.0909  -14.5488   22.2713 O   0  0  0  0  0  0  0  0  0  0  0  0
    5.7421  -11.6713   26.3634 C   0  0  0  0  0  0  0  0  0  0  0  0
    6.6931  -12.2511   25.3363 C   0  0  0  0  0  0  0  0  0  0  0  0
    7.1934  -13.5629   25.8774 C   0  0  2  0  0  0  0  0  0  0  0  0
    7.9480  -13.3925   27.1517 C   0  0  0  0  0  0  0  0  0  0  0  0
    8.0354  -14.3201   24.8733 C   0  0  2  0  0  0  0  0  0  0  0  0
    7.2512  -14.5821   23.6697 N   0  0  0  0  0  0  0  0  0  0  0  0
    8.5420  -15.5919   25.4370 C   0  0  0  0  0  0  0  0  0  0  0  0
    7.7130  -16.4763   25.7547 O   0  0  0  0  0  0  0  0  0  0  0  0
   11.0308  -17.7593   23.5224 N   0  0  0  0  0  0  0  0  0  0  0  0
   12.1011  -17.5860   24.4380 C   0  0  0  0  0  0  0  0  0  0  0  0
   13.2713  -17.6568   23.9917 O   0  0  0  0  0  0  0  0  0  0  0  0
   11.8201  -17.3342   25.8510 C   0  0  0  0  0  0  0  0  0  0  0  0
   10.3757  -17.1605   26.1865 C   0  0  2  0  0  0  0  0  0  0  0  0
    9.9169  -15.8744   25.6418 N   0  0  0  0  0  0  0  0  0  0  0  0
   10.2590  -17.1025   27.6576 C   0  0  0  0  0  0  0  0  0  0  0  0
   10.2035  -18.3161   28.3465 O   0  0  0  0  0  0  0  0  0  0  0  0
   10.2146  -15.9871   28.2257 O   0  0  0  0  0  0  0  0  0  0  0  0
  2  3  1  0
  2  1  1  6
  3  4  1  0
  5  2  1  0
  5  6  2  0
  7  8  1  0
  8  9  1  0
  9 11  1  0
  9 10  1  1
 11 12  1  6
 11 13  1  0
 12  5  1  0
 13 20  1  0
 14 13  2  0
 15 16  1  0
 16 17  2  0
 18 16  1  0
 19 18  1  1
 19 21  1  0
 20 19  1  0
 21 23  2  0
 21 22  1  0
M  END
$$$$
