CIN.pdb
     RDKit          3D

 23 22  0  0  1  0  0  0  0  0999 V2000
    5.2086  -12.6000   26.5336 N   0  0  0  0  0  0  0  0  0  0  0  0
    6.6011  -12.5475   26.1856 C   0  0  1  0  0  0  0  0  0  0  0  0
    7.4869  -12.4414   27.3922 C   0  0  0  0  0  0  0  0  0  0  0  0
    9.2096  -12.5398   26.8182 S   0  0  0  0  0  0  0  0  0  0  0  0
    6.9898  -13.6838   25.2980 C   0  0  0  0  0  0  0  0  0  0  0  0
    6.5474  -14.8104   25.5690 O   0  0  0  0  0  0  0  0  0  0  0  0
    7.8266  -12.1394   20.3910 C   0  0  0  0  0  0  0  0  0  0  0  0
    7.2497  -13.0571   21.4494 C   0  0  0  0  0  0  0  0  0  0  0  0
    8.3373  -14.0144   21.8552 C   0  0  2  0  0  0  0  0  0  0  0  0
    8.5019  -15.1245   20.8740 C   0  0  0  0  0  0  0  0  0  0  0  0
    8.1248  -14.5771   23.2441 C   0  0  2  0  0  0  0  0  0  0  0  0
    7.8379  -13.4915   24.1776 N   0  0  0  0  0  0  0  0  0  0  0  0
    9.3025  -15.3466   23.7054 C   0  0  0  0  0  0  0  0  0  0  0  0
   10.3491  -14.7206   23.9937 O   0  0  0  0  0  0  0  0  0  0  0  0
   12.4853  -19.2188   25.2951 N   0  0  0  0  0  0  0  0  0  0  0  0
   11.1732  -19.7410   25.1545 C   0  0  0  0  0  0  0  0  0  0  0  0
   10.9909  -20.9503   25.4338 O   0  0  0  0  0  0  0  0  0  0  0  0
   10.0874  -18.8749   24.6968 C   0  0  0  0  0  0  0  0  0  0  0  0
   10.4910  -17.4750   24.3703 C   0  0  2  0  0  0  0  0  0  0  0  0
    9.3209  -16.7583   23.8427 N   0  0  0  0  0  0  0  0  0  0  0  0
   11.5094  -17.5374   23.3026 C   0  0  0  0  0  0  0  0  0  0  0  0
   11.0604  -17.4783   21.9815 O   0  0  0  0  0  0  0  0  0  0  0  0
   12.7185  -17.6393   23.6137 O   0  0  0  0  0  0  0  0  0  0  0  0
  2  3  1  0
  2  1  1  1
  3  4  1  0
  5  2  1  0
  5  6  2  0
  7  8  1  0
  8  9  1  0
  9 11  1  0
  9 10  1  6
 11 12  1  1
 11 13  1  0
 12  5  1  0
 13 20  1  0
 14 13  2  0
 15 16  1  0
 16 17  2  0
 18 16  1  0
 19 18  1  6
 19 21  1  0
 20 19  1  0
 21 23  2  0
 21 22  1  0
M  END
$$$$
