CIN.pdb
     RDKit          3D

 23 22  0  0  1  0  0  0  0  0999 V2000
    7.8941  -13.8004   19.3933 N   0  0  0  0  0  0  0  0  0  0  0  0
    7.0900  -14.1181   20.5403 C   0  0  1  0  0  0  0  0  0  0  0  0
    6.4283  -15.4595   20.4190 C   0  0  0  0  0  0  0  0  0  0  0  0
    7.7399  -16.7191   20.4093 S   0  0  0  0  0  0  0  0  0  0  0  0
    7.8645  -13.9832   21.8098 C   0  0  0  0  0  0  0  0  0  0  0  0
    9.1011  -13.9242   21.7326 O   0  0  0  0  0  0  0  0  0  0  0  0
    7.1659  -11.8349   27.4559 C   0  0  0  0  0  0  0  0  0  0  0  0
    8.0123  -12.7177   26.5618 C   0  0  0  0  0  0  0  0  0  0  0  0
    7.2114  -12.9980   25.3192 C   0  0  2  0  0  0  0  0  0  0  0  0
    5.9033  -13.6424   25.6287 C   0  0  0  0  0  0  0  0  0  0  0  0
    7.9756  -13.8322   24.3137 C   0  0  2  0  0  0  0  0  0  0  0  0
    7.2161  -13.9235   23.0699 N   0  0  0  0  0  0  0  0  0  0  0  0
    8.2607  -15.1878   24.8362 C   0  0  0  0  0  0  0  0  0  0  0  0
    7.3345  -16.0319   24.8434 O   0  0  0  0  0  0  0  0  0  0  0  0
   10.6479  -18.1196   22.9437 N   0  0  0  0  0  0  0  0  0  0  0  0
   11.3224  -17.2518   23.8414 C   0  0  0  0  0  0  0  0  0  0  0  0
   12.0787  -16.3776   23.3543 O   0  0  0  0  0  0  0  0  0  0  0  0
   11.1238  -17.3945   25.2833 C   0  0  0  0  0  0  0  0  0  0  0  0
    9.7814  -16.9709   25.7809 C   0  0  2  0  0  0  0  0  0  0  0  0
    9.5257  -15.5944   25.3328 N   0  0  0  0  0  0  0  0  0  0  0  0
    9.8279  -16.9708   27.2570 C   0  0  0  0  0  0  0  0  0  0  0  0
    9.8659  -18.2103   27.8992 O   0  0  0  0  0  0  0  0  0  0  0  0
    9.8315  -15.8786   27.8702 O   0  0  0  0  0  0  0  0  0  0  0  0
  2  3  1  0
  2  1  1  6
  3  4  1  0
  5  2  1  0
  5  6  2  0
  7  8  1  0
  8  9  1  0
  9 11  1  0
  9 10  1  1
 11 12  1  6
 11 13  1  0
 12  5  1  0
 13 20  1  0
 14 13  2  0
 15 16  1  0
 16 17  2  0
 18 16  1  0
 19 18  1  6
 19 21  1  0
 20 19  1  0
 21 23  2  0
 21 22  1  0
M  END
$$$$
