CIN.pdb
     RDKit          3D

 23 22  0  0  1  0  0  0  0  0999 V2000
    7.7017  -15.1305   20.4163 N   0  0  0  0  0  0  0  0  0  0  0  0
    7.1148  -15.5000   21.6740 C   0  0  1  0  0  0  0  0  0  0  0  0
    6.7868  -16.9627   21.7425 C   0  0  0  0  0  0  0  0  0  0  0  0
    5.6858  -17.3437   20.3462 S   0  0  0  0  0  0  0  0  0  0  0  0
    7.9554  -15.0553   22.8254 C   0  0  0  0  0  0  0  0  0  0  0  0
    9.1872  -15.0547   22.6794 O   0  0  0  0  0  0  0  0  0  0  0  0
    5.8614  -11.6078   26.5002 C   0  0  0  0  0  0  0  0  0  0  0  0
    6.8369  -12.2317   25.5233 C   0  0  0  0  0  0  0  0  0  0  0  0
    7.4025  -13.4629   26.1777 C   0  0  2  0  0  0  0  0  0  0  0  0
    8.2335  -13.1325   27.3703 C   0  0  0  0  0  0  0  0  0  0  0  0
    8.1958  -14.3185   25.2137 C   0  0  2  0  0  0  0  0  0  0  0  0
    7.3735  -14.6446   24.0519 N   0  0  0  0  0  0  0  0  0  0  0  0
    8.6792  -15.5601   25.8592 C   0  0  0  0  0  0  0  0  0  0  0  0
    7.8460  -16.4565   26.1282 O   0  0  0  0  0  0  0  0  0  0  0  0
   12.9575  -16.5820   24.1488 N   0  0  0  0  0  0  0  0  0  0  0  0
   12.0131  -17.4158   24.8021 C   0  0  0  0  0  0  0  0  0  0  0  0
   11.3221  -18.1859   24.0931 O   0  0  0  0  0  0  0  0  0  0  0  0
   11.8711  -17.3584   26.2565 C   0  0  0  0  0  0  0  0  0  0  0  0
   10.4868  -17.0870   26.7457 C   0  0  2  0  0  0  0  0  0  0  0  0
   10.0363  -15.8006   26.1948 N   0  0  0  0  0  0  0  0  0  0  0  0
   10.5456  -16.9600   28.2159 C   0  0  0  0  0  0  0  0  0  0  0  0
   10.8929  -18.0986   28.9462 O   0  0  0  0  0  0  0  0  0  0  0  0
   10.2867  -15.8554   28.7468 O   0  0  0  0  0  0  0  0  0  0  0  0
  2  3  1  0
  2  1  1  6
  3  4  1  0
  5  2  1  0
  5  6  2  0
  7  8  1  0
  8  9  1  0
  9 11  1  0
  9 10  1  1
 11 12  1  6
 11 13  1  0
 12  5  1  0
 13 20  1  0
 14 13  2  0
 15 16  1  0
 16 17  2  0
 18 16  1  0
 19 18  1  6
 19 21  1  0
 20 19  1  0
 21 23  2  0
 21 22  1  0
M  END
$$$$
