CIN.pdb
     RDKit          3D

 23 22  0  0  1  0  0  0  0  0999 V2000
    6.1644  -15.6304   20.3360 N   0  0  0  0  0  0  0  0  0  0  0  0
    5.9472  -15.9285   21.7242 C   0  0  1  0  0  0  0  0  0  0  0  0
    5.7759  -17.3986   21.9718 C   0  0  0  0  0  0  0  0  0  0  0  0
    4.1745  -17.8909   21.2645 S   0  0  0  0  0  0  0  0  0  0  0  0
    7.0081  -15.3302   22.5881 C   0  0  0  0  0  0  0  0  0  0  0  0
    8.1457  -15.2062   22.1095 O   0  0  0  0  0  0  0  0  0  0  0  0
    5.7712  -11.7507   26.5852 C   0  0  0  0  0  0  0  0  0  0  0  0
    6.4911  -12.3770   25.4085 C   0  0  0  0  0  0  0  0  0  0  0  0
    7.1944  -13.6069   25.9151 C   0  0  2  0  0  0  0  0  0  0  0  0
    8.2402  -13.2787   26.9255 C   0  0  0  0  0  0  0  0  0  0  0  0
    7.7942  -14.4327   24.7974 C   0  0  2  0  0  0  0  0  0  0  0  0
    6.7341  -14.9135   23.9158 N   0  0  0  0  0  0  0  0  0  0  0  0
    8.5751  -15.5751   25.3237 C   0  0  0  0  0  0  0  0  0  0  0  0
    7.9581  -16.5179   25.8721 O   0  0  0  0  0  0  0  0  0  0  0  0
   12.4612  -19.2217   24.1333 N   0  0  0  0  0  0  0  0  0  0  0  0
   12.8598  -18.0417   24.8134 C   0  0  0  0  0  0  0  0  0  0  0  0
   13.9299  -18.0753   25.4672 O   0  0  0  0  0  0  0  0  0  0  0  0
   12.0307  -16.8394   24.7375 C   0  0  0  0  0  0  0  0  0  0  0  0
   10.6922  -16.9530   25.3889 C   0  0  2  0  0  0  0  0  0  0  0  0
    9.9882  -15.6703   25.2458 N   0  0  0  0  0  0  0  0  0  0  0  0
   10.9114  -17.1968   26.8289 C   0  0  0  0  0  0  0  0  0  0  0  0
   10.6123  -16.1555   27.7101 O   0  0  0  0  0  0  0  0  0  0  0  0
   11.3501  -18.3089   27.2026 O   0  0  0  0  0  0  0  0  0  0  0  0
  2  3  1  0
  2  1  1  6
  3  4  1  0
  5  2  1  0
  5  6  2  0
  7  8  1  0
  8  9  1  0
  9 11  1  0
  9 10  1  1
 11 12  1  6
 11 13  1  0
 12  5  1  0
 13 20  1  0
 14 13  2  0
 15 16  1  0
 16 17  2  0
 18 16  1  0
 19 18  1  6
 19 21  1  0
 20 19  1  0
 21 23  2  0
 21 22  1  0
M  END
$$$$
