CIN.pdb
     RDKit          3D

 23 22  0  0  1  0  0  0  0  0999 V2000
    7.6844  -14.7156   19.9664 N   0  0  0  0  0  0  0  0  0  0  0  0
    7.0811  -15.2404   21.1595 C   0  0  1  0  0  0  0  0  0  0  0  0
    6.7973  -16.7104   21.0561 C   0  0  0  0  0  0  0  0  0  0  0  0
    5.9896  -17.2231   22.6026 S   0  0  0  0  0  0  0  0  0  0  0  0
    7.8811  -14.9039   22.3747 C   0  0  0  0  0  0  0  0  0  0  0  0
    9.1157  -14.8599   22.2637 O   0  0  0  0  0  0  0  0  0  0  0  0
    5.8081  -11.6497   26.2392 C   0  0  0  0  0  0  0  0  0  0  0  0
    6.7948  -12.2515   25.2597 C   0  0  0  0  0  0  0  0  0  0  0  0
    7.2199  -13.5849   25.8123 C   0  0  2  0  0  0  0  0  0  0  0  0
    7.9569  -13.4485   27.1009 C   0  0  0  0  0  0  0  0  0  0  0  0
    8.0435  -14.3845   24.8259 C   0  0  2  0  0  0  0  0  0  0  0  0
    7.2585  -14.6411   23.6216 N   0  0  0  0  0  0  0  0  0  0  0  0
    8.5062  -15.6623   25.4132 C   0  0  0  0  0  0  0  0  0  0  0  0
    7.6503  -16.5299   25.7049 O   0  0  0  0  0  0  0  0  0  0  0  0
   11.4813  -20.0277   25.6877 N   0  0  0  0  0  0  0  0  0  0  0  0
   12.2684  -18.8468   25.6956 C   0  0  0  0  0  0  0  0  0  0  0  0
   13.4859  -18.9561   25.9769 O   0  0  0  0  0  0  0  0  0  0  0  0
   11.6539  -17.5573   25.3821 C   0  0  0  0  0  0  0  0  0  0  0  0
   10.3117  -17.3314   25.9957 C   0  0  2  0  0  0  0  0  0  0  0  0
    9.8675  -15.9687   25.6685 N   0  0  0  0  0  0  0  0  0  0  0  0
   10.4655  -17.4232   27.4617 C   0  0  0  0  0  0  0  0  0  0  0  0
   10.3248  -16.2449   28.1980 O   0  0  0  0  0  0  0  0  0  0  0  0
   10.7123  -18.5346   27.9839 O   0  0  0  0  0  0  0  0  0  0  0  0
  2  3  1  0
  2  1  1  6
  3  4  1  0
  5  2  1  0
  5  6  2  0
  7  8  1  0
  8  9  1  0
  9 11  1  0
  9 10  1  1
 11 12  1  6
 11 13  1  0
 12  5  1  0
 13 20  1  0
 14 13  2  0
 15 16  1  0
 16 17  2  0
 18 16  1  0
 19 18  1  6
 19 21  1  0
 20 19  1  0
 21 23  2  0
 21 22  1  0
M  END
$$$$
