CIN.pdb
     RDKit          3D

 23 22  0  0  1  0  0  0  0  0999 V2000
    7.2592  -15.3156   20.6902 N   0  0  0  0  0  0  0  0  0  0  0  0
    6.7537  -15.6735   21.9861 C   0  0  1  0  0  0  0  0  0  0  0  0
    6.4871  -17.1453   22.1078 C   0  0  0  0  0  0  0  0  0  0  0  0
    5.7449  -17.4348   23.7425 S   0  0  0  0  0  0  0  0  0  0  0  0
    7.6352  -15.1671   23.0799 C   0  0  0  0  0  0  0  0  0  0  0  0
    8.8604  -15.1670   22.8857 O   0  0  0  0  0  0  0  0  0  0  0  0
    5.5779  -11.4285   26.5223 C   0  0  0  0  0  0  0  0  0  0  0  0
    6.5402  -12.0970   25.5620 C   0  0  0  0  0  0  0  0  0  0  0  0
    7.1437  -13.2748   26.2779 C   0  0  2  0  0  0  0  0  0  0  0  0
    7.9699  -12.8575   27.4463 C   0  0  0  0  0  0  0  0  0  0  0  0
    7.9572  -14.1578   25.3563 C   0  0  2  0  0  0  0  0  0  0  0  0
    7.0986  -14.6985   24.3063 N   0  0  0  0  0  0  0  0  0  0  0  0
    8.6111  -15.2606   26.0967 C   0  0  0  0  0  0  0  0  0  0  0  0
    7.9048  -16.2197   26.4858 O   0  0  0  0  0  0  0  0  0  0  0  0
   13.3954  -18.2651   25.2751 N   0  0  0  0  0  0  0  0  0  0  0  0
   12.2667  -17.4064   25.3269 C   0  0  0  0  0  0  0  0  0  0  0  0
   11.4831  -17.4091   24.3474 O   0  0  0  0  0  0  0  0  0  0  0  0
   12.0487  -16.5564   26.4968 C   0  0  0  0  0  0  0  0  0  0  0  0
   10.6360  -16.4906   26.9753 C   0  0  2  0  0  0  0  0  0  0  0  0
    9.9972  -15.3002   26.3956 N   0  0  0  0  0  0  0  0  0  0  0  0
   10.6647  -16.3261   28.4427 C   0  0  0  0  0  0  0  0  0  0  0  0
   11.0306  -17.4362   29.2070 O   0  0  0  0  0  0  0  0  0  0  0  0
   10.3654  -15.2167   28.9413 O   0  0  0  0  0  0  0  0  0  0  0  0
  2  3  1  0
  2  1  1  6
  3  4  1  0
  5  2  1  0
  5  6  2  0
  7  8  1  0
  8  9  1  0
  9 11  1  0
  9 10  1  1
 11 12  1  6
 11 13  1  0
 12  5  1  0
 13 20  1  0
 14 13  2  0
 15 16  1  0
 16 17  2  0
 18 16  1  0
 19 18  1  6
 19 21  1  0
 20 19  1  0
 21 23  2  0
 21 22  1  0
M  END
$$$$
