CIN.pdb
     RDKit          3D

 23 22  0  0  1  0  0  0  0  0999 V2000
    8.2801  -14.6426   20.1003 N   0  0  0  0  0  0  0  0  0  0  0  0
    7.5322  -15.1755   21.2047 C   0  0  1  0  0  0  0  0  0  0  0  0
    7.1790  -16.6209   21.0099 C   0  0  0  0  0  0  0  0  0  0  0  0
    5.7107  -16.6871   19.9391 S   0  0  0  0  0  0  0  0  0  0  0  0
    8.2241  -14.9337   22.5057 C   0  0  0  0  0  0  0  0  0  0  0  0
    9.4645  -14.9205   22.5105 O   0  0  0  0  0  0  0  0  0  0  0  0
    5.8245  -11.7476   26.1976 C   0  0  0  0  0  0  0  0  0  0  0  0
    6.8032  -12.4003   25.2429 C   0  0  0  0  0  0  0  0  0  0  0  0
    7.2775  -13.6745   25.8875 C   0  0  2  0  0  0  0  0  0  0  0  0
    7.9644  -13.4237   27.1866 C   0  0  0  0  0  0  0  0  0  0  0  0
    8.1724  -14.4863   24.9759 C   0  0  2  0  0  0  0  0  0  0  0  0
    7.4953  -14.7245   23.7043 N   0  0  0  0  0  0  0  0  0  0  0  0
    8.5565  -15.7743   25.5966 C   0  0  0  0  0  0  0  0  0  0  0  0
    7.6502  -16.5852   25.8989 O   0  0  0  0  0  0  0  0  0  0  0  0
   11.5055  -18.8827   23.7789 N   0  0  0  0  0  0  0  0  0  0  0  0
   11.8713  -17.7791   24.5926 C   0  0  0  0  0  0  0  0  0  0  0  0
   12.4037  -16.7902   24.0338 O   0  0  0  0  0  0  0  0  0  0  0  0
   11.6238  -17.8200   26.0334 C   0  0  0  0  0  0  0  0  0  0  0  0
   10.2345  -17.4618   26.4461 C   0  0  2  0  0  0  0  0  0  0  0  0
    9.8959  -16.1512   25.8728 N   0  0  0  0  0  0  0  0  0  0  0  0
   10.2203  -17.3355   27.9175 C   0  0  0  0  0  0  0  0  0  0  0  0
   10.3416  -18.5091   28.6647 O   0  0  0  0  0  0  0  0  0  0  0  0
   10.1020  -16.2007   28.4343 O   0  0  0  0  0  0  0  0  0  0  0  0
  2  3  1  0
  2  1  1  6
  3  4  1  0
  5  2  1  0
  5  6  2  0
  7  8  1  0
  8  9  1  0
  9 11  1  0
  9 10  1  1
 11 12  1  6
 11 13  1  0
 12  5  1  0
 13 20  1  0
 14 13  2  0
 15 16  1  0
 16 17  2  0
 18 16  1  0
 19 18  1  6
 19 21  1  0
 20 19  1  0
 21 23  2  0
 21 22  1  0
M  END
$$$$
