CIN.pdb
     RDKit          3D

 23 22  0  0  1  0  0  0  0  0999 V2000
    8.1265  -18.4326   16.8416 N   0  0  0  0  0  0  0  0  0  0  0  0
    7.5871  -18.2688   18.1626 C   0  0  1  0  0  0  0  0  0  0  0  0
    7.3865  -19.5806   18.8634 C   0  0  0  0  0  0  0  0  0  0  0  0
    6.4557  -19.2499   20.3902 S   0  0  0  0  0  0  0  0  0  0  0  0
    8.3987  -17.3135   18.9740 C   0  0  0  0  0  0  0  0  0  0  0  0
    9.6340  -17.3752   18.8803 O   0  0  0  0  0  0  0  0  0  0  0  0
    6.6386  -12.2759   20.1178 C   0  0  0  0  0  0  0  0  0  0  0  0
    7.5633  -13.4142   19.7378 C   0  0  0  0  0  0  0  0  0  0  0  0
    7.8182  -14.2205   20.9824 C   0  0  2  0  0  0  0  0  0  0  0  0
    8.5232  -13.4276   22.0295 C   0  0  0  0  0  0  0  0  0  0  0  0
    8.5790  -15.4979   20.6990 C   0  0  2  0  0  0  0  0  0  0  0  0
    7.7862  -16.3614   19.8283 N   0  0  0  0  0  0  0  0  0  0  0  0
    8.9240  -16.2141   21.9480 C   0  0  0  0  0  0  0  0  0  0  0  0
    7.9939  -16.5698   22.7087 O   0  0  0  0  0  0  0  0  0  0  0  0
   12.7353  -20.1582   24.2335 N   0  0  0  0  0  0  0  0  0  0  0  0
   11.4634  -19.5287   24.2289 C   0  0  0  0  0  0  0  0  0  0  0  0
   10.6896  -19.7643   25.1877 O   0  0  0  0  0  0  0  0  0  0  0  0
   11.0928  -18.6387   23.1292 C   0  0  0  0  0  0  0  0  0  0  0  0
   10.5424  -17.3149   23.5461 C   0  0  2  0  0  0  0  0  0  0  0  0
   10.2511  -16.5253   22.3408 N   0  0  0  0  0  0  0  0  0  0  0  0
   11.5915  -16.6119   24.3116 C   0  0  0  0  0  0  0  0  0  0  0  0
   12.3654  -15.6717   23.6278 O   0  0  0  0  0  0  0  0  0  0  0  0
   11.7477  -16.8786   25.5254 O   0  0  0  0  0  0  0  0  0  0  0  0
  2  3  1  0
  2  1  1  6
  3  4  1  0
  5  2  1  0
  5  6  2  0
  7  8  1  0
  8  9  1  0
  9 11  1  0
  9 10  1  1
 11 12  1  6
 11 13  1  0
 12  5  1  0
 13 20  1  0
 14 13  2  0
 15 16  1  0
 16 17  2  0
 18 16  1  0
 19 18  1  6
 19 21  1  0
 20 19  1  0
 21 23  2  0
 21 22  1  0
M  END
$$$$
