CIN.pdb
     RDKit          3D

 23 22  0  0  1  0  0  0  0  0999 V2000
   12.1430  -16.3604   16.3557 N   0  0  0  0  0  0  0  0  0  0  0  0
   10.8890  -16.6576   16.9897 C   0  0  1  0  0  0  0  0  0  0  0  0
   10.6062  -18.1308   17.0317 C   0  0  0  0  0  0  0  0  0  0  0  0
   10.7457  -18.7647   15.3330 S   0  0  0  0  0  0  0  0  0  0  0  0
   10.7906  -16.0251   18.3388 C   0  0  0  0  0  0  0  0  0  0  0  0
   11.8422  -15.8296   18.9669 O   0  0  0  0  0  0  0  0  0  0  0  0
    7.0628  -12.2275   19.3853 C   0  0  0  0  0  0  0  0  0  0  0  0
    8.3837  -12.9693   19.3712 C   0  0  0  0  0  0  0  0  0  0  0  0
    8.2476  -14.1467   20.2982 C   0  0  2  0  0  0  0  0  0  0  0  0
    8.0072  -13.7256   21.7078 C   0  0  0  0  0  0  0  0  0  0  0  0
    9.4394  -15.0773   20.2310 C   0  0  2  0  0  0  0  0  0  0  0  0
    9.5389  -15.6555   18.8938 N   0  0  0  0  0  0  0  0  0  0  0  0
    9.3478  -16.1526   21.2445 C   0  0  0  0  0  0  0  0  0  0  0  0
    8.5711  -17.1119   21.0286 O   0  0  0  0  0  0  0  0  0  0  0  0
   13.5732  -19.3599   22.7951 N   0  0  0  0  0  0  0  0  0  0  0  0
   12.1629  -19.2814   22.6580 C   0  0  0  0  0  0  0  0  0  0  0  0
   11.4855  -20.2845   22.9872 O   0  0  0  0  0  0  0  0  0  0  0  0
   11.5457  -18.0581   22.1469 C   0  0  0  0  0  0  0  0  0  0  0  0
   10.5600  -17.4161   23.0663 C   0  0  2  0  0  0  0  0  0  0  0  0
   10.0896  -16.1653   22.4536 N   0  0  0  0  0  0  0  0  0  0  0  0
   11.2667  -17.0756   24.3175 C   0  0  0  0  0  0  0  0  0  0  0  0
   11.7015  -15.7574   24.4720 O   0  0  0  0  0  0  0  0  0  0  0  0
   11.4483  -17.9648   25.1807 O   0  0  0  0  0  0  0  0  0  0  0  0
  2  3  1  0
  2  1  1  1
  3  4  1  0
  5  2  1  0
  5  6  2  0
  7  8  1  0
  8  9  1  0
  9 11  1  0
  9 10  1  1
 11 12  1  6
 11 13  1  0
 12  5  1  0
 13 20  1  0
 14 13  2  0
 15 16  1  0
 16 17  2  0
 18 16  1  0
 19 18  1  6
 19 21  1  0
 20 19  1  0
 21 23  2  0
 21 22  1  0
M  END
$$$$
