CIN.pdb
     RDKit          3D

 23 22  0  0  1  0  0  0  0  0999 V2000
    8.0002  -15.4577   20.4903 N   0  0  0  0  0  0  0  0  0  0  0  0
    7.3940  -15.7164   21.7664 C   0  0  1  0  0  0  0  0  0  0  0  0
    7.0728  -17.1692   21.9613 C   0  0  0  0  0  0  0  0  0  0  0  0
    5.6697  -17.5710   20.8765 S   0  0  0  0  0  0  0  0  0  0  0  0
    8.2123  -15.1638   22.8866 C   0  0  0  0  0  0  0  0  0  0  0  0
    9.4047  -14.9055   22.6627 O   0  0  0  0  0  0  0  0  0  0  0  0
    5.8697  -11.8332   26.4872 C   0  0  0  0  0  0  0  0  0  0  0  0
    6.8793  -12.4067   25.5140 C   0  0  0  0  0  0  0  0  0  0  0  0
    7.5339  -13.5827   26.1868 C   0  0  2  0  0  0  0  0  0  0  0  0
    8.2836  -13.1821   27.4114 C   0  0  0  0  0  0  0  0  0  0  0  0
    8.4412  -14.3532   25.2521 C   0  0  2  0  0  0  0  0  0  0  0  0
    7.6533  -14.9376   24.1704 N   0  0  0  0  0  0  0  0  0  0  0  0
    9.1865  -15.4132   25.9683 C   0  0  0  0  0  0  0  0  0  0  0  0
   10.0312  -15.0718   26.8287 O   0  0  0  0  0  0  0  0  0  0  0  0
   11.3817  -19.7306   24.3780 N   0  0  0  0  0  0  0  0  0  0  0  0
   12.0214  -18.7425   25.1708 C   0  0  0  0  0  0  0  0  0  0  0  0
   13.2166  -18.9375   25.4982 O   0  0  0  0  0  0  0  0  0  0  0  0
   11.2873  -17.5453   25.5787 C   0  0  0  0  0  0  0  0  0  0  0  0
    9.9647  -17.8038   26.2214 C   0  0  2  0  0  0  0  0  0  0  0  0
    9.0032  -16.8012   25.7403 N   0  0  0  0  0  0  0  0  0  0  0  0
   10.1281  -17.6197   27.6776 C   0  0  0  0  0  0  0  0  0  0  0  0
    9.7981  -16.3710   28.2088 O   0  0  0  0  0  0  0  0  0  0  0  0
   10.5494  -18.5728   28.3727 O   0  0  0  0  0  0  0  0  0  0  0  0
  2  3  1  0
  2  1  1  6
  3  4  1  0
  5  2  1  0
  5  6  2  0
  7  8  1  0
  8  9  1  0
  9 11  1  0
  9 10  1  1
 11 12  1  6
 11 13  1  0
 12  5  1  0
 13 20  1  0
 14 13  2  0
 15 16  1  0
 16 17  2  0
 18 16  1  0
 19 18  1  6
 19 21  1  0
 20 19  1  0
 21 23  2  0
 21 22  1  0
M  END
$$$$
