CIN.pdb
     RDKit          3D

 23 22  0  0  1  0  0  0  0  0999 V2000
    8.8494  -15.5693   19.9260 N   0  0  0  0  0  0  0  0  0  0  0  0
    7.9691  -15.7468   21.0469 C   0  0  1  0  0  0  0  0  0  0  0  0
    7.4335  -17.1458   21.1355 C   0  0  0  0  0  0  0  0  0  0  0  0
    6.2646  -17.3736   19.7611 S   0  0  0  0  0  0  0  0  0  0  0  0
    8.6064  -15.3043   22.3228 C   0  0  0  0  0  0  0  0  0  0  0  0
    9.8437  -15.3463   22.3993 O   0  0  0  0  0  0  0  0  0  0  0  0
    7.2057  -11.7911   27.1451 C   0  0  0  0  0  0  0  0  0  0  0  0
    8.1644  -12.8297   26.5998 C   0  0  0  0  0  0  0  0  0  0  0  0
    7.5455  -13.4020   25.3535 C   0  0  2  0  0  0  0  0  0  0  0  0
    6.2203  -14.0293   25.6228 C   0  0  0  0  0  0  0  0  0  0  0  0
    8.4553  -14.3908   24.6567 C   0  0  2  0  0  0  0  0  0  0  0  0
    7.8303  -14.8486   23.4189 N   0  0  0  0  0  0  0  0  0  0  0  0
    8.7691  -15.5474   25.5260 C   0  0  0  0  0  0  0  0  0  0  0  0
    7.8664  -16.3866   25.7522 O   0  0  0  0  0  0  0  0  0  0  0  0
   10.9862  -18.6825   24.6618 N   0  0  0  0  0  0  0  0  0  0  0  0
   12.0643  -18.1981   25.4473 C   0  0  0  0  0  0  0  0  0  0  0  0
   13.2270  -18.5340   25.1173 O   0  0  0  0  0  0  0  0  0  0  0  0
   11.7995  -17.3366   26.5991 C   0  0  0  0  0  0  0  0  0  0  0  0
   10.3599  -17.0152   26.8297 C   0  0  2  0  0  0  0  0  0  0  0  0
   10.0368  -15.7671   26.1234 N   0  0  0  0  0  0  0  0  0  0  0  0
   10.1765  -16.7831   28.2766 C   0  0  0  0  0  0  0  0  0  0  0  0
   10.1503  -17.9039   29.1093 O   0  0  0  0  0  0  0  0  0  0  0  0
   10.0532  -15.6103   28.6987 O   0  0  0  0  0  0  0  0  0  0  0  0
  2  3  1  0
  2  1  1  6
  3  4  1  0
  5  2  1  0
  5  6  2  0
  7  8  1  0
  8  9  1  0
  9 11  1  0
  9 10  1  1
 11 12  1  6
 11 13  1  0
 12  5  1  0
 13 20  1  0
 14 13  2  0
 15 16  1  0
 16 17  2  0
 18 16  1  0
 19 18  1  1
 19 21  1  0
 20 19  1  0
 21 23  2  0
 21 22  1  0
M  END
$$$$
