FWN.pdb
     RDKit          3D

 34 36  0  0  1  0  0  0  0  0999 V2000
   10.0598  -17.7406   19.5211 N   0  0  0  0  0  0  0  0  0  0  0  0
    9.8114  -16.2918   19.5708 C   0  0  1  0  0  0  0  0  0  0  0  0
    8.3891  -16.0379   19.0788 C   0  0  0  0  0  0  0  0  0  0  0  0
    8.0393  -14.5974   19.2518 C   0  0  0  0  0  0  0  0  0  0  0  0
    8.8053  -13.6393   18.6224 C   0  0  0  0  0  0  0  0  0  0  0  0
    8.5157  -12.2901   18.7490 C   0  0  0  0  0  0  0  0  0  0  0  0
    7.4555  -11.8527   19.5059 C   0  0  0  0  0  0  0  0  0  0  0  0
    6.6817  -12.8095   20.1412 C   0  0  0  0  0  0  0  0  0  0  0  0
    6.9811  -14.1519   20.0068 C   0  0  0  0  0  0  0  0  0  0  0  0
    9.9536  -15.8763   20.9893 C   0  0  0  0  0  0  0  0  0  0  0  0
   10.8921  -15.2065   21.4486 O   0  0  0  0  0  0  0  0  0  0  0  0
    8.9000  -16.2991   21.8769 N   0  0  0  0  0  0  0  0  0  0  0  0
    8.8978  -15.9232   23.2701 C   0  0  1  0  0  0  0  0  0  0  0  0
    7.4150  -15.9952   23.6813 C   0  0  0  0  0  0  0  0  0  0  0  0
    7.2250  -15.5420   25.0616 C   0  0  0  0  0  0  0  0  0  0  0  0
    7.0014  -16.3655   26.1427 C   0  0  0  0  0  0  0  0  0  0  0  0
    6.8856  -15.5294   27.2174 N   0  0  0  0  0  0  0  0  0  0  0  0
    7.0295  -14.2564   26.8255 C   0  0  0  0  0  0  0  0  0  0  0  0
    6.9954  -13.0837   27.5224 C   0  0  0  0  0  0  0  0  0  0  0  0
    7.1743  -11.8643   26.8885 C   0  0  0  0  0  0  0  0  0  0  0  0
    7.3936  -11.8081   25.5208 C   0  0  0  0  0  0  0  0  0  0  0  0
    7.4241  -13.0006   24.8393 C   0  0  0  0  0  0  0  0  0  0  0  0
    7.2468  -14.2227   25.4623 C   0  0  0  0  0  0  0  0  0  0  0  0
    9.7155  -16.8127   24.0813 C   0  0  0  0  0  0  0  0  0  0  0  0
    9.8430  -18.0614   23.8215 O   0  0  0  0  0  0  0  0  0  0  0  0
   12.6809  -19.3885   27.1486 N   0  0  0  0  0  0  0  0  0  0  0  0
   11.3547  -19.6371   26.7006 C   0  0  0  0  0  0  0  0  0  0  0  0
   10.9693  -20.8438   26.8926 O   0  0  0  0  0  0  0  0  0  0  0  0
   10.5183  -18.6005   26.0792 C   0  0  0  0  0  0  0  0  0  0  0  0
   11.2505  -17.2967   25.9853 C   0  0  2  0  0  0  0  0  0  0  0  0
   10.4184  -16.3291   25.2080 N   0  0  0  0  0  0  0  0  0  0  0  0
   12.4681  -17.5066   25.1590 C   0  0  0  0  0  0  0  0  0  0  0  0
   13.5923  -16.6564   25.2533 O   0  0  0  0  0  0  0  0  0  0  0  0
   12.6046  -18.4321   24.3252 O   0  0  0  0  0  0  0  0  0  0  0  0
  2  1  1  1
  2  3  1  0
  4  5  2  0
  4  3  1  0
  6  5  1  0
  7  6  2  0
  8  7  1  0
  8  9  2  0
  9  4  1  0
 10  2  1  0
 11 10  2  0
 12 10  1  0
 13 12  1  0
 13 14  1  1
 15 14  1  0
 16 15  2  0
 17 18  1  0
 17 16  1  0
 18 23  2  0
 19 20  2  0
 19 18  1  0
 20 21  1  0
 21 22  2  0
 23 15  1  0
 23 22  1  0
 24 13  1  0
 24 25  2  0
 26 27  1  0
 27 28  2  0
 27 29  1  0
 30 29  1  6
 30 31  1  0
 31 24  1  0
 32 30  1  0
 33 32  1  0
 34 32  2  0
M  END
$$$$
