FWN.pdb
     RDKit          3D

 34 36  0  0  1  0  0  0  0  0999 V2000
    9.9733  -17.9163   19.3854 N   0  0  0  0  0  0  0  0  0  0  0  0
    9.4935  -16.7382   20.1238 C   0  0  1  0  0  0  0  0  0  0  0  0
    8.0573  -16.4592   19.6890 C   0  0  0  0  0  0  0  0  0  0  0  0
    7.5789  -15.1837   20.2983 C   0  0  0  0  0  0  0  0  0  0  0  0
    7.9619  -13.9847   19.7356 C   0  0  0  0  0  0  0  0  0  0  0  0
    7.5381  -12.7752   20.2628 C   0  0  0  0  0  0  0  0  0  0  0  0
    6.7208  -12.7214   21.3662 C   0  0  0  0  0  0  0  0  0  0  0  0
    6.3323  -13.9219   21.9369 C   0  0  0  0  0  0  0  0  0  0  0  0
    6.7617  -15.1213   21.4013 C   0  0  0  0  0  0  0  0  0  0  0  0
    9.5430  -17.0821   21.5675 C   0  0  0  0  0  0  0  0  0  0  0  0
    9.6816  -18.2269   22.0266 O   0  0  0  0  0  0  0  0  0  0  0  0
    9.4191  -15.9753   22.4820 N   0  0  0  0  0  0  0  0  0  0  0  0
   10.1381  -15.9528   23.7329 C   0  0  1  0  0  0  0  0  0  0  0  0
    9.9053  -14.5316   24.2801 C   0  0  0  0  0  0  0  0  0  0  0  0
    8.7208  -14.4825   25.1412 C   0  0  0  0  0  0  0  0  0  0  0  0
    8.1957  -15.5541   25.8287 C   0  0  0  0  0  0  0  0  0  0  0  0
    7.1094  -15.0603   26.4947 N   0  0  0  0  0  0  0  0  0  0  0  0
    6.9675  -13.7536   26.2351 C   0  0  0  0  0  0  0  0  0  0  0  0
    6.0483  -12.8392   26.6605 C   0  0  0  0  0  0  0  0  0  0  0  0
    6.1053  -11.5168   26.2497 C   0  0  0  0  0  0  0  0  0  0  0  0
    7.1057  -11.0898   25.3902 C   0  0  0  0  0  0  0  0  0  0  0  0
    8.0202  -12.0272   24.9747 C   0  0  0  0  0  0  0  0  0  0  0  0
    7.9723  -13.3491   25.3787 C   0  0  0  0  0  0  0  0  0  0  0  0
    9.6562  -16.9632   24.6629 C   0  0  0  0  0  0  0  0  0  0  0  0
    9.6896  -16.8028   25.9341 O   0  0  0  0  0  0  0  0  0  0  0  0
   13.0370  -20.9594   23.5842 N   0  0  0  0  0  0  0  0  0  0  0  0
   11.6179  -20.8987   23.5236 C   0  0  0  0  0  0  0  0  0  0  0  0
   11.0534  -22.0440   23.6293 O   0  0  0  0  0  0  0  0  0  0  0  0
   10.8827  -19.6371   23.3558 C   0  0  0  0  0  0  0  0  0  0  0  0
    9.8896  -19.4369   24.4597 C   0  0  2  0  0  0  0  0  0  0  0  0
    9.1190  -18.1842   24.1963 N   0  0  0  0  0  0  0  0  0  0  0  0
   10.6389  -19.1702   25.7154 C   0  0  0  0  0  0  0  0  0  0  0  0
   11.7964  -18.3607   25.7386 O   0  0  0  0  0  0  0  0  0  0  0  0
   10.3210  -19.6273   26.8380 O   0  0  0  0  0  0  0  0  0  0  0  0
  2  1  1  6
  2  3  1  0
  4  5  2  0
  4  3  1  0
  6  5  1  0
  7  6  2  0
  8  7  1  0
  8  9  2  0
  9  4  1  0
 10  2  1  0
 11 10  2  0
 12 10  1  0
 13 12  1  0
 13 14  1  1
 15 14  1  0
 16 15  2  0
 17 18  1  0
 17 16  1  0
 18 23  2  0
 19 20  2  0
 19 18  1  0
 20 21  1  0
 21 22  2  0
 23 15  1  0
 23 22  1  0
 24 13  1  0
 24 25  2  0
 26 27  1  0
 27 28  2  0
 27 29  1  0
 30 29  1  6
 30 31  1  0
 31 24  1  0
 32 30  1  0
 33 32  1  0
 34 32  2  0
M  END
$$$$
