FWN.pdb
     RDKit          3D

 34 36  0  0  1  0  0  0  0  0999 V2000
    8.1107  -16.8662   23.4121 N   0  0  0  0  0  0  0  0  0  0  0  0
    8.1117  -15.4739   22.9382 C   0  0  1  0  0  0  0  0  0  0  0  0
    6.7339  -14.8783   23.2147 C   0  0  0  0  0  0  0  0  0  0  0  0
    6.8025  -13.9575   24.3871 C   0  0  0  0  0  0  0  0  0  0  0  0
    7.4451  -12.7451   24.2531 C   0  0  0  0  0  0  0  0  0  0  0  0
    7.5292  -11.8551   25.3120 C   0  0  0  0  0  0  0  0  0  0  0  0
    6.9769  -12.1441   26.5366 C   0  0  0  0  0  0  0  0  0  0  0  0
    6.3299  -13.3603   26.6786 C   0  0  0  0  0  0  0  0  0  0  0  0
    6.2529  -14.2390   25.6148 C   0  0  0  0  0  0  0  0  0  0  0  0
    9.1549  -14.7538   23.7117 C   0  0  0  0  0  0  0  0  0  0  0  0
    8.9452  -13.8124   24.4929 O   0  0  0  0  0  0  0  0  0  0  0  0
   10.5080  -15.2103   23.5187 N   0  0  0  0  0  0  0  0  0  0  0  0
   11.1174  -16.1531   24.4253 C   0  0  1  0  0  0  0  0  0  0  0  0
    9.9259  -16.8207   25.1378 C   0  0  0  0  0  0  0  0  0  0  0  0
   10.1039  -16.8099   26.5921 C   0  0  0  0  0  0  0  0  0  0  0  0
   10.2484  -17.9293   27.3814 C   0  0  0  0  0  0  0  0  0  0  0  0
   10.3864  -17.4581   28.6567 N   0  0  0  0  0  0  0  0  0  0  0  0
   10.3307  -16.1196   28.6595 C   0  0  0  0  0  0  0  0  0  0  0  0
   10.4184  -15.2105   29.6734 C   0  0  0  0  0  0  0  0  0  0  0  0
   10.3314  -13.8491   29.4289 C   0  0  0  0  0  0  0  0  0  0  0  0
   10.1520  -13.3764   28.1381 C   0  0  0  0  0  0  0  0  0  0  0  0
   10.0664  -14.3092   27.1330 C   0  0  0  0  0  0  0  0  0  0  0  0
   10.1520  -15.6698   27.3663 C   0  0  0  0  0  0  0  0  0  0  0  0
   11.9357  -17.1353   23.7299 C   0  0  0  0  0  0  0  0  0  0  0  0
   12.5911  -18.0481   24.3464 O   0  0  0  0  0  0  0  0  0  0  0  0
   13.7854  -20.3357   19.7651 N   0  0  0  0  0  0  0  0  0  0  0  0
   13.7294  -18.9393   19.5042 C   0  0  0  0  0  0  0  0  0  0  0  0
   14.5700  -18.5519   18.6183 O   0  0  0  0  0  0  0  0  0  0  0  0
   12.7929  -18.0391   20.1918 C   0  0  0  0  0  0  0  0  0  0  0  0
   12.9552  -18.1203   21.6791 C   0  0  2  0  0  0  0  0  0  0  0  0
   12.0423  -17.1265   22.3206 N   0  0  0  0  0  0  0  0  0  0  0  0
   14.3263  -17.6600   22.0221 C   0  0  0  0  0  0  0  0  0  0  0  0
   14.5812  -16.3523   22.4916 O   0  0  0  0  0  0  0  0  0  0  0  0
   15.3539  -18.3710   21.9281 O   0  0  0  0  0  0  0  0  0  0  0  0
  2  1  1  1
  2  3  1  0
  4  5  2  0
  4  3  1  0
  6  5  1  0
  7  6  2  0
  8  7  1  0
  8  9  2  0
  9  4  1  0
 10  2  1  0
 11 10  2  0
 12 10  1  0
 13 12  1  0
 13 14  1  6
 15 14  1  0
 16 15  2  0
 17 18  1  0
 17 16  1  0
 18 23  2  0
 19 20  2  0
 19 18  1  0
 20 21  1  0
 21 22  2  0
 23 15  1  0
 23 22  1  0
 24 13  1  0
 24 25  2  0
 26 27  1  0
 27 28  2  0
 27 29  1  0
 30 29  1  6
 30 31  1  0
 31 24  1  0
 32 30  1  0
 33 32  1  0
 34 32  2  0
M  END
$$$$
