FWN.pdb
     RDKit          3D

 34 36  0  0  1  0  0  0  0  0999 V2000
    7.5183  -17.9287   21.8234 N   0  0  0  0  0  0  0  0  0  0  0  0
    7.9800  -16.5965   21.4050 C   0  0  1  0  0  0  0  0  0  0  0  0
    6.7564  -15.6966   21.2549 C   0  0  0  0  0  0  0  0  0  0  0  0
    7.1652  -14.3656   20.7179 C   0  0  0  0  0  0  0  0  0  0  0  0
    7.4682  -14.2453   19.3783 C   0  0  0  0  0  0  0  0  0  0  0  0
    7.8470  -13.0288   18.8333 C   0  0  0  0  0  0  0  0  0  0  0  0
    7.9364  -11.8949   19.6043 C   0  0  0  0  0  0  0  0  0  0  0  0
    7.6337  -12.0082   20.9509 C   0  0  0  0  0  0  0  0  0  0  0  0
    7.2571  -13.2272   21.4820 C   0  0  0  0  0  0  0  0  0  0  0  0
    8.8705  -16.0894   22.4796 C   0  0  0  0  0  0  0  0  0  0  0  0
    9.6180  -15.1031   22.3843 O   0  0  0  0  0  0  0  0  0  0  0  0
    8.8393  -16.8222   23.7200 N   0  0  0  0  0  0  0  0  0  0  0  0
    9.6908  -16.4587   24.8268 C   0  0  1  0  0  0  0  0  0  0  0  0
    8.7945  -16.6284   26.0682 C   0  0  0  0  0  0  0  0  0  0  0  0
    7.6836  -15.6733   26.0546 C   0  0  0  0  0  0  0  0  0  0  0  0
    6.3630  -15.9964   25.8341 C   0  0  0  0  0  0  0  0  0  0  0  0
    5.6828  -14.8136   25.9110 N   0  0  0  0  0  0  0  0  0  0  0  0
    6.5340  -13.8109   26.1654 C   0  0  0  0  0  0  0  0  0  0  0  0
    6.3340  -12.4709   26.3285 C   0  0  0  0  0  0  0  0  0  0  0  0
    7.3898  -11.6121   26.5899 C   0  0  0  0  0  0  0  0  0  0  0  0
    8.6837  -12.0992   26.6925 C   0  0  0  0  0  0  0  0  0  0  0  0
    8.8619  -13.4511   26.5249 C   0  0  0  0  0  0  0  0  0  0  0  0
    7.8151  -14.3166   26.2637 C   0  0  0  0  0  0  0  0  0  0  0  0
   10.8747  -17.3009   24.9101 C   0  0  0  0  0  0  0  0  0  0  0  0
   10.8270  -18.5741   24.7704 O   0  0  0  0  0  0  0  0  0  0  0  0
   13.9265  -16.7166   22.6004 N   0  0  0  0  0  0  0  0  0  0  0  0
   14.6433  -16.2259   23.7258 C   0  0  0  0  0  0  0  0  0  0  0  0
   15.3420  -15.1828   23.4701 O   0  0  0  0  0  0  0  0  0  0  0  0
   14.5797  -16.8635   25.0485 C   0  0  0  0  0  0  0  0  0  0  0  0
   13.3234  -17.6648   25.2047 C   0  0  2  0  0  0  0  0  0  0  0  0
   12.1502  -16.7412   25.1497 N   0  0  0  0  0  0  0  0  0  0  0  0
   13.3022  -18.2315   26.5787 C   0  0  0  0  0  0  0  0  0  0  0  0
   12.4155  -17.7566   27.5706 O   0  0  0  0  0  0  0  0  0  0  0  0
   14.0495  -19.1573   26.9722 O   0  0  0  0  0  0  0  0  0  0  0  0
  2  1  1  1
  2  3  1  0
  4  5  2  0
  4  3  1  0
  6  5  1  0
  7  6  2  0
  8  7  1  0
  8  9  2  0
  9  4  1  0
 10  2  1  0
 11 10  2  0
 12 10  1  0
 13 12  1  0
 13 14  1  1
 15 14  1  0
 16 15  2  0
 17 18  1  0
 17 16  1  0
 18 23  2  0
 19 20  2  0
 19 18  1  0
 20 21  1  0
 21 22  2  0
 23 15  1  0
 23 22  1  0
 24 13  1  0
 24 25  2  0
 26 27  1  0
 27 28  2  0
 27 29  1  0
 30 29  1  1
 30 31  1  0
 31 24  1  0
 32 30  1  0
 33 32  1  0
 34 32  2  0
M  END
$$$$
