FWN.pdb
     RDKit          3D

 34 36  0  0  1  0  0  0  0  0999 V2000
    8.6128  -16.4363   21.8830 N   0  0  0  0  0  0  0  0  0  0  0  0
    9.4698  -15.2780   22.1781 C   0  0  1  0  0  0  0  0  0  0  0  0
    8.5778  -14.0443   22.2870 C   0  0  0  0  0  0  0  0  0  0  0  0
    8.0283  -13.6925   20.9448 C   0  0  0  0  0  0  0  0  0  0  0  0
    8.7933  -12.9367   20.0821 C   0  0  0  0  0  0  0  0  0  0  0  0
    8.3277  -12.5902   18.8237 C   0  0  0  0  0  0  0  0  0  0  0  0
    7.0866  -12.9847   18.3852 C   0  0  0  0  0  0  0  0  0  0  0  0
    6.3124  -13.7441   19.2465 C   0  0  0  0  0  0  0  0  0  0  0  0
    6.7885  -14.0829   20.4988 C   0  0  0  0  0  0  0  0  0  0  0  0
   10.1385  -15.5531   23.4750 C   0  0  0  0  0  0  0  0  0  0  0  0
   11.2141  -15.0568   23.8456 O   0  0  0  0  0  0  0  0  0  0  0  0
    9.4574  -16.4726   24.3509 N   0  0  0  0  0  0  0  0  0  0  0  0
    9.8064  -16.5754   25.7473 C   0  0  1  0  0  0  0  0  0  0  0  0
    8.4554  -16.7570   26.4649 C   0  0  0  0  0  0  0  0  0  0  0  0
    7.5444  -15.6485   26.1683 C   0  0  0  0  0  0  0  0  0  0  0  0
    6.2924  -15.7792   25.6092 C   0  0  0  0  0  0  0  0  0  0  0  0
    5.8035  -14.5067   25.5137 N   0  0  0  0  0  0  0  0  0  0  0  0
    6.7024  -13.6334   25.9873 C   0  0  0  0  0  0  0  0  0  0  0  0
    6.6732  -12.2739   26.1010 C   0  0  0  0  0  0  0  0  0  0  0  0
    7.7435  -11.5731   26.6339 C   0  0  0  0  0  0  0  0  0  0  0  0
    8.8772  -12.2431   27.0670 C   0  0  0  0  0  0  0  0  0  0  0  0
    8.8849  -13.6113   26.9431 C   0  0  0  0  0  0  0  0  0  0  0  0
    7.8222  -14.3201   26.4128 C   0  0  0  0  0  0  0  0  0  0  0  0
   10.6996  -17.6939   26.0104 C   0  0  0  0  0  0  0  0  0  0  0  0
   11.5261  -17.7012   26.9901 O   0  0  0  0  0  0  0  0  0  0  0  0
   14.5552  -20.2042   23.3419 N   0  0  0  0  0  0  0  0  0  0  0  0
   14.2829  -19.0561   24.1348 C   0  0  0  0  0  0  0  0  0  0  0  0
   15.3256  -18.5619   24.6917 O   0  0  0  0  0  0  0  0  0  0  0  0
   12.9312  -18.5005   24.2915 C   0  0  0  0  0  0  0  0  0  0  0  0
   11.9979  -19.5059   24.8941 C   0  0  2  0  0  0  0  0  0  0  0  0
   10.6919  -18.8408   25.1847 N   0  0  0  0  0  0  0  0  0  0  0  0
   12.5338  -19.8978   26.2240 C   0  0  0  0  0  0  0  0  0  0  0  0
   13.7577  -20.5893   26.3636 O   0  0  0  0  0  0  0  0  0  0  0  0
   11.9636  -19.6574   27.3137 O   0  0  0  0  0  0  0  0  0  0  0  0
  2  1  1  1
  2  3  1  0
  4  5  2  0
  4  3  1  0
  6  5  1  0
  7  6  2  0
  8  7  1  0
  8  9  2  0
  9  4  1  0
 10  2  1  0
 11 10  2  0
 12 10  1  0
 13 12  1  0
 13 14  1  1
 15 14  1  0
 16 15  2  0
 17 18  1  0
 17 16  1  0
 18 23  2  0
 19 20  2  0
 19 18  1  0
 20 21  1  0
 21 22  2  0
 23 15  1  0
 23 22  1  0
 24 13  1  0
 24 25  2  0
 26 27  1  0
 27 28  2  0
 27 29  1  0
 30 29  1  1
 30 31  1  0
 31 24  1  0
 32 30  1  0
 33 32  1  0
 34 32  2  0
M  END
$$$$
