FWN.pdb
     RDKit          3D

 34 36  0  0  1  0  0  0  0  0999 V2000
    7.7951  -15.6908   21.6351 N   0  0  0  0  0  0  0  0  0  0  0  0
    9.2657  -15.6947   21.6103 C   0  0  1  0  0  0  0  0  0  0  0  0
    9.7322  -14.3862   20.9779 C   0  0  0  0  0  0  0  0  0  0  0  0
    8.7379  -13.9270   19.9642 C   0  0  0  0  0  0  0  0  0  0  0  0
    8.6460  -14.5952   18.7618 C   0  0  0  0  0  0  0  0  0  0  0  0
    7.7341  -14.2089   17.7924 C   0  0  0  0  0  0  0  0  0  0  0  0
    6.8861  -13.1458   17.9894 C   0  0  0  0  0  0  0  0  0  0  0  0
    6.9729  -12.4696   19.1949 C   0  0  0  0  0  0  0  0  0  0  0  0
    7.8865  -12.8650   20.1534 C   0  0  0  0  0  0  0  0  0  0  0  0
    9.7224  -15.7834   23.0204 C   0  0  0  0  0  0  0  0  0  0  0  0
   10.6524  -15.1266   23.5146 O   0  0  0  0  0  0  0  0  0  0  0  0
    9.0068  -16.7144   23.8556 N   0  0  0  0  0  0  0  0  0  0  0  0
    9.3610  -16.9032   25.2417 C   0  0  1  0  0  0  0  0  0  0  0  0
    8.0073  -17.0026   25.9703 C   0  0  0  0  0  0  0  0  0  0  0  0
    7.2462  -15.7567   25.8471 C   0  0  0  0  0  0  0  0  0  0  0  0
    6.0630  -15.6156   25.1564 C   0  0  0  0  0  0  0  0  0  0  0  0
    5.7106  -14.3037   25.3054 N   0  0  0  0  0  0  0  0  0  0  0  0
    6.6247  -13.6649   26.0479 C   0  0  0  0  0  0  0  0  0  0  0  0
    6.7100  -12.3679   26.4631 C   0  0  0  0  0  0  0  0  0  0  0  0
    7.7704  -11.9292   27.2403 C   0  0  0  0  0  0  0  0  0  0  0  0
    8.7766  -12.8056   27.6162 C   0  0  0  0  0  0  0  0  0  0  0  0
    8.6704  -14.1064   27.1871 C   0  0  0  0  0  0  0  0  0  0  0  0
    7.6165  -14.5542   26.4114 C   0  0  0  0  0  0  0  0  0  0  0  0
   10.1614  -18.1012   25.4469 C   0  0  0  0  0  0  0  0  0  0  0  0
   10.1675  -19.0776   24.6165 O   0  0  0  0  0  0  0  0  0  0  0  0
   14.1173  -21.4362   25.6750 N   0  0  0  0  0  0  0  0  0  0  0  0
   14.1065  -20.3141   26.5479 C   0  0  0  0  0  0  0  0  0  0  0  0
   14.9347  -20.4163   27.5202 O   0  0  0  0  0  0  0  0  0  0  0  0
   13.2253  -19.1558   26.3428 C   0  0  0  0  0  0  0  0  0  0  0  0
   11.8096  -19.4790   26.7119 C   0  0  2  0  0  0  0  0  0  0  0  0
   10.9825  -18.2408   26.5887 N   0  0  0  0  0  0  0  0  0  0  0  0
   11.7739  -19.8226   28.1576 C   0  0  0  0  0  0  0  0  0  0  0  0
   12.2345  -21.0667   28.6429 O   0  0  0  0  0  0  0  0  0  0  0  0
   11.3429  -19.0603   29.0541 O   0  0  0  0  0  0  0  0  0  0  0  0
  2  1  1  1
  2  3  1  0
  4  5  2  0
  4  3  1  0
  6  5  1  0
  7  6  2  0
  8  7  1  0
  8  9  2  0
  9  4  1  0
 10  2  1  0
 11 10  2  0
 12 10  1  0
 13 12  1  0
 13 14  1  1
 15 14  1  0
 16 15  2  0
 17 18  1  0
 17 16  1  0
 18 23  2  0
 19 20  2  0
 19 18  1  0
 20 21  1  0
 21 22  2  0
 23 15  1  0
 23 22  1  0
 24 13  1  0
 24 25  2  0
 26 27  1  0
 27 28  2  0
 27 29  1  0
 30 29  1  1
 30 31  1  0
 31 24  1  0
 32 30  1  0
 33 32  1  0
 34 32  2  0
M  END
$$$$
