FWN.pdb
     RDKit          3D

 34 36  0  0  1  0  0  0  0  0999 V2000
   10.0722  -17.9080   26.3374 N   0  0  0  0  0  0  0  0  0  0  0  0
    8.7157  -18.0075   26.8971 C   0  0  1  0  0  0  0  0  0  0  0  0
    8.7222  -17.3501   28.2745 C   0  0  0  0  0  0  0  0  0  0  0  0
    9.4404  -16.0433   28.2122 C   0  0  0  0  0  0  0  0  0  0  0  0
    8.7566  -14.9194   27.7998 C   0  0  0  0  0  0  0  0  0  0  0  0
    9.3797  -13.6835   27.7316 C   0  0  0  0  0  0  0  0  0  0  0  0
   10.7021  -13.5279   28.0711 C   0  0  0  0  0  0  0  0  0  0  0  0
   11.3954  -14.6527   28.4861 C   0  0  0  0  0  0  0  0  0  0  0  0
   10.7623  -15.8794   28.5499 C   0  0  0  0  0  0  0  0  0  0  0  0
    7.8117  -17.2748   25.9747 C   0  0  0  0  0  0  0  0  0  0  0  0
    6.9485  -16.4529   26.3208 O   0  0  0  0  0  0  0  0  0  0  0  0
    7.9768  -17.5625   24.5723 N   0  0  0  0  0  0  0  0  0  0  0  0
    8.8049  -16.7340   23.7297 C   0  0  1  0  0  0  0  0  0  0  0  0
    8.8784  -15.3874   24.4744 C   0  0  0  0  0  0  0  0  0  0  0  0
    7.7316  -14.5367   24.1459 C   0  0  0  0  0  0  0  0  0  0  0  0
    6.6641  -14.2885   24.9800 C   0  0  0  0  0  0  0  0  0  0  0  0
    5.8415  -13.4537   24.2773 N   0  0  0  0  0  0  0  0  0  0  0  0
    6.3691  -13.1973   23.0728 C   0  0  0  0  0  0  0  0  0  0  0  0
    5.9268  -12.4316   22.0335 C   0  0  0  0  0  0  0  0  0  0  0  0
    6.6591  -12.3152   20.8626 C   0  0  0  0  0  0  0  0  0  0  0  0
    7.8675  -12.9796   20.7198 C   0  0  0  0  0  0  0  0  0  0  0  0
    8.2934  -13.7446   21.7786 C   0  0  0  0  0  0  0  0  0  0  0  0
    7.5702  -13.8674   22.9511 C   0  0  0  0  0  0  0  0  0  0  0  0
   10.1302  -17.3017   23.5314 C   0  0  0  0  0  0  0  0  0  0  0  0
   10.3620  -18.2319   22.6806 O   0  0  0  0  0  0  0  0  0  0  0  0
   14.4940  -17.5256   21.7743 N   0  0  0  0  0  0  0  0  0  0  0  0
   14.2780  -16.2241   22.3042 C   0  0  0  0  0  0  0  0  0  0  0  0
   14.9927  -15.3203   21.7440 O   0  0  0  0  0  0  0  0  0  0  0  0
   13.3240  -15.9561   23.3897 C   0  0  0  0  0  0  0  0  0  0  0  0
   12.6066  -17.2051   23.8022 C   0  0  2  0  0  0  0  0  0  0  0  0
   11.2379  -16.8420   24.2791 N   0  0  0  0  0  0  0  0  0  0  0  0
   13.2942  -17.7624   24.9964 C   0  0  0  0  0  0  0  0  0  0  0  0
   14.1435  -18.8881   24.9135 O   0  0  0  0  0  0  0  0  0  0  0  0
   13.1858  -17.2970   26.1548 O   0  0  0  0  0  0  0  0  0  0  0  0
  2  1  1  6
  2  3  1  0
  4  5  2  0
  4  3  1  0
  6  5  1  0
  7  6  2  0
  8  7  1  0
  8  9  2  0
  9  4  1  0
 10  2  1  0
 11 10  2  0
 12 10  1  0
 13 12  1  0
 13 14  1  1
 15 14  1  0
 16 15  2  0
 17 18  1  0
 17 16  1  0
 18 23  2  0
 19 20  2  0
 19 18  1  0
 20 21  1  0
 21 22  2  0
 23 15  1  0
 23 22  1  0
 24 13  1  0
 24 25  2  0
 26 27  1  0
 27 28  2  0
 27 29  1  0
 30 29  1  1
 30 31  1  0
 31 24  1  0
 32 30  1  0
 33 32  1  0
 34 32  2  0
M  END
$$$$
