FWN.pdb
     RDKit          3D

 34 36  0  0  1  0  0  0  0  0999 V2000
    8.5856  -17.3511   21.4296 N   0  0  0  0  0  0  0  0  0  0  0  0
    9.8841  -16.6642   21.3558 C   0  0  1  0  0  0  0  0  0  0  0  0
    9.7427  -15.4859   20.3960 C   0  0  0  0  0  0  0  0  0  0  0  0
    8.5092  -14.7105   20.7189 C   0  0  0  0  0  0  0  0  0  0  0  0
    7.2939  -15.3610   20.7459 C   0  0  0  0  0  0  0  0  0  0  0  0
    6.1226  -14.6841   21.0462 C   0  0  0  0  0  0  0  0  0  0  0  0
    6.1244  -13.3393   21.3286 C   0  0  0  0  0  0  0  0  0  0  0  0
    7.3415  -12.6792   21.3033 C   0  0  0  0  0  0  0  0  0  0  0  0
    8.5024  -13.3659   21.0024 C   0  0  0  0  0  0  0  0  0  0  0  0
   10.1992  -16.1851   22.7255 C   0  0  0  0  0  0  0  0  0  0  0  0
   11.0339  -15.3097   23.0036 O   0  0  0  0  0  0  0  0  0  0  0  0
    9.4577  -16.8050   23.7944 N   0  0  0  0  0  0  0  0  0  0  0  0
    9.7823  -16.5509   25.1773 C   0  0  1  0  0  0  0  0  0  0  0  0
    8.4346  -16.6739   25.9133 C   0  0  0  0  0  0  0  0  0  0  0  0
    7.5129  -15.6074   25.5136 C   0  0  0  0  0  0  0  0  0  0  0  0
    6.3197  -15.7974   24.8526 C   0  0  0  0  0  0  0  0  0  0  0  0
    5.7949  -14.5468   24.6853 N   0  0  0  0  0  0  0  0  0  0  0  0
    6.6170  -13.6302   25.2135 C   0  0  0  0  0  0  0  0  0  0  0  0
    6.5286  -12.2708   25.2920 C   0  0  0  0  0  0  0  0  0  0  0  0
    7.5226  -11.5186   25.8978 C   0  0  0  0  0  0  0  0  0  0  0  0
    8.6383  -12.1357   26.4422 C   0  0  0  0  0  0  0  0  0  0  0  0
    8.7064  -13.5050   26.3519 C   0  0  0  0  0  0  0  0  0  0  0  0
    7.7201  -14.2646   25.7495 C   0  0  0  0  0  0  0  0  0  0  0  0
   10.7572  -17.4983   25.6969 C   0  0  0  0  0  0  0  0  0  0  0  0
   11.0278  -17.5946   26.9460 O   0  0  0  0  0  0  0  0  0  0  0  0
   10.6725  -21.3508   23.0520 N   0  0  0  0  0  0  0  0  0  0  0  0
   11.2630  -21.1863   24.3347 C   0  0  0  0  0  0  0  0  0  0  0  0
   10.5574  -21.6726   25.2872 O   0  0  0  0  0  0  0  0  0  0  0  0
   12.5582  -20.5207   24.5341 C   0  0  0  0  0  0  0  0  0  0  0  0
   12.4246  -19.3335   25.4384 C   0  0  2  0  0  0  0  0  0  0  0  0
   11.4573  -18.3696   24.8320 N   0  0  0  0  0  0  0  0  0  0  0  0
   13.7251  -18.6139   25.4546 C   0  0  0  0  0  0  0  0  0  0  0  0
   14.2235  -17.9430   24.3158 O   0  0  0  0  0  0  0  0  0  0  0  0
   14.4781  -18.5390   26.4534 O   0  0  0  0  0  0  0  0  0  0  0  0
  2  1  1  1
  2  3  1  0
  4  5  2  0
  4  3  1  0
  6  5  1  0
  7  6  2  0
  8  7  1  0
  8  9  2  0
  9  4  1  0
 10  2  1  0
 11 10  2  0
 12 10  1  0
 13 12  1  0
 13 14  1  1
 15 14  1  0
 16 15  2  0
 17 18  1  0
 17 16  1  0
 18 23  2  0
 19 20  2  0
 19 18  1  0
 20 21  1  0
 21 22  2  0
 23 15  1  0
 23 22  1  0
 24 13  1  0
 24 25  2  0
 26 27  1  0
 27 28  2  0
 27 29  1  0
 30 29  1  6
 30 31  1  0
 31 24  1  0
 32 30  1  0
 33 32  1  0
 34 32  2  0
M  END
$$$$
