FWN.pdb
     RDKit          3D

 34 36  0  0  1  0  0  0  0  0999 V2000
    7.1745  -17.6815   21.7943 N   0  0  0  0  0  0  0  0  0  0  0  0
    7.7278  -16.4590   21.1921 C   0  0  1  0  0  0  0  0  0  0  0  0
    6.5745  -15.4924   20.9375 C   0  0  0  0  0  0  0  0  0  0  0  0
    7.0695  -14.2893   20.2062 C   0  0  0  0  0  0  0  0  0  0  0  0
    7.2223  -13.1023   20.8905 C   0  0  0  0  0  0  0  0  0  0  0  0
    7.6842  -11.9605   20.2552 C   0  0  0  0  0  0  0  0  0  0  0  0
    8.0079  -11.9647   18.9198 C   0  0  0  0  0  0  0  0  0  0  0  0
    7.8568  -13.1537   18.2259 C   0  0  0  0  0  0  0  0  0  0  0  0
    7.3953  -14.2853   18.8712 C   0  0  0  0  0  0  0  0  0  0  0  0
    8.6809  -15.8849   22.1755 C   0  0  0  0  0  0  0  0  0  0  0  0
    9.3006  -14.8189   22.0339 O   0  0  0  0  0  0  0  0  0  0  0  0
    8.8782  -16.6503   23.3804 N   0  0  0  0  0  0  0  0  0  0  0  0
    9.7505  -16.1831   24.4306 C   0  0  1  0  0  0  0  0  0  0  0  0
    8.9997  -16.5283   25.7307 C   0  0  0  0  0  0  0  0  0  0  0  0
    7.8031  -15.6976   25.8884 C   0  0  0  0  0  0  0  0  0  0  0  0
    6.5061  -16.1443   25.7650 C   0  0  0  0  0  0  0  0  0  0  0  0
    5.7222  -15.0479   25.9903 N   0  0  0  0  0  0  0  0  0  0  0  0
    6.4901  -13.9788   26.2400 C   0  0  0  0  0  0  0  0  0  0  0  0
    6.1743  -12.6809   26.5191 C   0  0  0  0  0  0  0  0  0  0  0  0
    7.1598  -11.7333   26.7466 C   0  0  0  0  0  0  0  0  0  0  0  0
    8.4996  -12.0858   26.6953 C   0  0  0  0  0  0  0  0  0  0  0  0
    8.7944  -13.3976   26.4128 C   0  0  0  0  0  0  0  0  0  0  0  0
    7.8186  -14.3508   26.1843 C   0  0  0  0  0  0  0  0  0  0  0  0
   11.0562  -16.8246   24.3876 C   0  0  0  0  0  0  0  0  0  0  0  0
   11.1981  -18.0973   24.3334 O   0  0  0  0  0  0  0  0  0  0  0  0
   16.0867  -17.7522   23.5871 N   0  0  0  0  0  0  0  0  0  0  0  0
   15.8647  -16.3532   23.4661 C   0  0  0  0  0  0  0  0  0  0  0  0
   16.8962  -15.7055   23.0686 O   0  0  0  0  0  0  0  0  0  0  0  0
   14.5717  -15.7242   23.7710 C   0  0  0  0  0  0  0  0  0  0  0  0
   13.5307  -16.7526   24.0932 C   0  0  2  0  0  0  0  0  0  0  0  0
   12.2438  -16.0586   24.4012 N   0  0  0  0  0  0  0  0  0  0  0  0
   13.9184  -17.4238   25.3616 C   0  0  0  0  0  0  0  0  0  0  0  0
   13.2422  -17.1755   26.5767 O   0  0  0  0  0  0  0  0  0  0  0  0
   14.8558  -18.2488   25.4659 O   0  0  0  0  0  0  0  0  0  0  0  0
  2  1  1  1
  2  3  1  0
  4  5  2  0
  4  3  1  0
  6  5  1  0
  7  6  2  0
  8  7  1  0
  8  9  2  0
  9  4  1  0
 10  2  1  0
 11 10  2  0
 12 10  1  0
 13 12  1  0
 13 14  1  1
 15 14  1  0
 16 15  2  0
 17 18  1  0
 17 16  1  0
 18 23  2  0
 19 20  2  0
 19 18  1  0
 20 21  1  0
 21 22  2  0
 23 15  1  0
 23 22  1  0
 24 13  1  0
 24 25  2  0
 26 27  1  0
 27 28  2  0
 27 29  1  0
 30 29  1  1
 30 31  1  0
 31 24  1  0
 32 30  1  0
 33 32  1  0
 34 32  2  0
M  END
$$$$
