LQQ.pdb
     RDKit          3D

 27 26  0  0  1  0  0  0  0  0999 V2000
   27.3891  -21.6719  -18.3679 C   0  0  0  0  0  0  0  0  0  0  0  0
   27.5785  -23.0324  -17.7872 C   0  0  1  0  0  0  0  0  0  0  0  0
   28.5366  -23.0459  -16.6225 C   0  0  0  0  0  0  0  0  0  0  0  0
   26.2790  -23.6876  -17.3820 C   0  0  0  0  0  0  0  0  0  0  0  0
   26.5049  -25.1037  -16.9319 C   0  0  2  0  0  0  0  0  0  0  0  0
   27.5313  -25.7014  -17.7485 N   0  0  0  0  0  0  0  0  0  0  0  0
   25.2677  -25.8989  -16.8887 C   0  0  0  0  0  0  0  0  0  0  0  0
   24.3502  -25.5235  -16.0861 O   0  0  0  0  0  0  0  0  0  0  0  0
   22.9071  -29.9608  -20.2623 N   0  0  0  0  0  0  0  0  0  0  0  0
   21.7191  -29.6836  -19.5104 C   0  0  0  0  0  0  0  0  0  0  0  0
   20.7563  -30.4599  -19.5465 O   0  0  0  0  0  0  0  0  0  0  0  0
   21.6657  -28.4531  -18.6943 C   0  0  0  0  0  0  0  0  0  0  0  0
   22.9184  -27.6388  -18.7617 C   0  0  0  0  0  0  0  0  0  0  0  0
   23.7704  -27.8390  -17.5633 C   0  0  2  0  0  0  0  0  0  0  0  0
   25.0060  -27.0362  -17.6533 N   0  0  0  0  0  0  0  0  0  0  0  0
   24.1232  -29.2501  -17.2676 C   0  0  0  0  0  0  0  0  0  0  0  0
   25.2407  -29.7317  -17.5399 O   0  0  0  0  0  0  0  0  0  0  0  0
   27.5275  -31.9450  -15.4475 N   0  0  0  0  0  0  0  0  0  0  0  0
   26.7195  -32.8308  -14.7085 C   0  0  0  0  0  0  0  0  0  0  0  0
   27.2643  -33.8234  -14.1739 O   0  0  0  0  0  0  0  0  0  0  0  0
   25.2797  -32.5746  -14.5843 C   0  0  0  0  0  0  0  0  0  0  0  0
   24.7846  -31.3234  -15.2066 C   0  0  0  0  0  0  0  0  0  0  0  0
   23.6291  -31.4628  -16.1454 C   0  0  2  0  0  0  0  0  0  0  0  0
   23.1950  -30.1500  -16.6472 N   0  0  0  0  0  0  0  0  0  0  0  0
   22.4896  -32.1979  -15.5542 C   0  0  0  0  0  0  0  0  0  0  0  0
   22.5912  -33.5345  -15.2031 O   0  0  0  0  0  0  0  0  0  0  0  0
   21.3771  -31.6400  -15.3448 O   0  0  0  0  0  0  0  0  0  0  0  0
  2  1  1  1
  2  3  1  0
  4  2  1  0
  5  4  1  0
  5  6  1  6
  7  8  2  0
  7  5  1  0
  9 10  1  0
 10 12  1  0
 11 10  2  0
 12 13  1  0
 14 13  1  6
 14 15  1  0
 15  7  1  0
 16 17  2  0
 16 14  1  0
 18 19  1  0
 19 21  1  0
 20 19  2  0
 21 22  1  0
 23 22  1  1
 23 24  1  0
 24 16  1  0
 25 23  1  0
 26 25  1  0
 27 25  2  0
M  END
$$$$
