LQQ.pdb
     RDKit          3D

 27 26  0  0  1  0  0  0  0  0999 V2000
   28.8438  -19.3395   -6.9735 C   0  0  0  0  0  0  0  0  0  0  0  0
   27.5683  -20.0333   -7.3135 C   0  0  1  0  0  0  0  0  0  0  0  0
   26.4728  -19.7745   -6.3097 C   0  0  0  0  0  0  0  0  0  0  0  0
   27.0706  -19.7072   -8.7021 C   0  0  0  0  0  0  0  0  0  0  0  0
   25.8417  -20.5050   -9.0372 C   0  0  2  0  0  0  0  0  0  0  0  0
   26.0938  -21.8980   -8.7658 N   0  0  0  0  0  0  0  0  0  0  0  0
   25.3533  -20.2640  -10.4041 C   0  0  0  0  0  0  0  0  0  0  0  0
   25.1941  -19.0528  -10.7711 O   0  0  0  0  0  0  0  0  0  0  0  0
   27.0102  -23.3257  -15.3491 N   0  0  0  0  0  0  0  0  0  0  0  0
   27.4948  -22.0255  -14.9908 C   0  0  0  0  0  0  0  0  0  0  0  0
   28.5824  -21.6195  -15.4188 O   0  0  0  0  0  0  0  0  0  0  0  0
   26.6724  -21.1815  -14.0996 C   0  0  0  0  0  0  0  0  0  0  0  0
   25.3870  -21.8257  -13.6881 C   0  0  0  0  0  0  0  0  0  0  0  0
   24.6286  -20.9805  -12.7327 C   0  0  2  0  0  0  0  0  0  0  0  0
   25.0461  -21.2497  -11.3425 N   0  0  0  0  0  0  0  0  0  0  0  0
   23.1513  -21.0867  -12.8301 C   0  0  0  0  0  0  0  0  0  0  0  0
   22.4909  -21.8872  -12.1387 O   0  0  0  0  0  0  0  0  0  0  0  0
   18.8182  -16.6542  -14.4449 N   0  0  0  0  0  0  0  0  0  0  0  0
   18.8744  -17.1595  -13.1315 C   0  0  0  0  0  0  0  0  0  0  0  0
   18.3108  -16.5091  -12.2220 O   0  0  0  0  0  0  0  0  0  0  0  0
   19.5817  -18.4171  -12.8628 C   0  0  0  0  0  0  0  0  0  0  0  0
   20.3122  -19.0112  -14.0078 C   0  0  0  0  0  0  0  0  0  0  0  0
   20.9223  -20.3570  -13.7779 C   0  0  2  0  0  0  0  0  0  0  0  0
   22.3899  -20.2703  -13.7302 N   0  0  0  0  0  0  0  0  0  0  0  0
   20.4914  -21.3643  -14.7719 C   0  0  0  0  0  0  0  0  0  0  0  0
   21.3074  -21.7382  -15.8275 O   0  0  0  0  0  0  0  0  0  0  0  0
   19.3632  -21.9255  -14.7013 O   0  0  0  0  0  0  0  0  0  0  0  0
  2  1  1  1
  2  3  1  0
  4  2  1  0
  5  4  1  0
  5  6  1  6
  7  8  2  0
  7  5  1  0
  9 10  1  0
 10 12  1  0
 11 10  2  0
 12 13  1  0
 14 13  1  6
 14 15  1  0
 15  7  1  0
 16 17  2  0
 16 14  1  0
 18 19  1  0
 19 21  1  0
 20 19  2  0
 21 22  1  0
 23 22  1  6
 23 24  1  0
 24 16  1  0
 25 23  1  0
 26 25  1  0
 27 25  2  0
M  END
$$$$
