LQQ.pdb
     RDKit          3D

 27 26  0  0  1  0  0  0  0  0999 V2000
   28.0453  -26.9321  -16.3960 C   0  0  0  0  0  0  0  0  0  0  0  0
   27.7316  -25.4946  -16.6391 C   0  0  1  0  0  0  0  0  0  0  0  0
   28.0365  -25.0571  -18.0499 C   0  0  0  0  0  0  0  0  0  0  0  0
   26.3055  -25.1349  -16.2940 C   0  0  0  0  0  0  0  0  0  0  0  0
   26.1136  -23.6444  -16.2741 C   0  0  2  0  0  0  0  0  0  0  0  0
   27.4030  -23.0023  -16.2200 N   0  0  0  0  0  0  0  0  0  0  0  0
   25.2017  -23.1950  -15.2104 C   0  0  0  0  0  0  0  0  0  0  0  0
   23.9965  -23.6109  -15.2488 O   0  0  0  0  0  0  0  0  0  0  0  0
   26.4414  -20.8347   -9.4504 N   0  0  0  0  0  0  0  0  0  0  0  0
   25.0157  -20.7175   -9.5377 C   0  0  0  0  0  0  0  0  0  0  0  0
   24.3531  -20.3551   -8.5577 O   0  0  0  0  0  0  0  0  0  0  0  0
   24.3536  -21.0398  -10.8186 C   0  0  0  0  0  0  0  0  0  0  0  0
   25.3013  -21.5012  -11.8796 C   0  0  0  0  0  0  0  0  0  0  0  0
   24.5916  -21.8675  -13.1303 C   0  0  2  0  0  0  0  0  0  0  0  0
   25.5399  -22.3477  -14.1547 N   0  0  0  0  0  0  0  0  0  0  0  0
   23.7426  -20.7976  -13.7115 C   0  0  0  0  0  0  0  0  0  0  0  0
   24.2132  -19.8678  -14.3964 O   0  0  0  0  0  0  0  0  0  0  0  0
   20.1125  -18.4008  -18.8413 N   0  0  0  0  0  0  0  0  0  0  0  0
   20.9361  -19.1507  -17.9794 C   0  0  0  0  0  0  0  0  0  0  0  0
   21.7930  -19.9081  -18.4894 O   0  0  0  0  0  0  0  0  0  0  0  0
   20.7734  -19.0298  -16.5258 C   0  0  0  0  0  0  0  0  0  0  0  0
   21.6786  -19.8619  -15.6975 C   0  0  0  0  0  0  0  0  0  0  0  0
   21.4807  -19.7839  -14.2174 C   0  0  2  0  0  0  0  0  0  0  0  0
   22.3218  -20.7684  -13.5195 N   0  0  0  0  0  0  0  0  0  0  0  0
   20.0646  -19.9295  -13.8151 C   0  0  0  0  0  0  0  0  0  0  0  0
   19.1182  -18.9672  -14.1282 O   0  0  0  0  0  0  0  0  0  0  0  0
   19.6583  -20.9352  -13.1700 O   0  0  0  0  0  0  0  0  0  0  0  0
  2  1  1  6
  2  3  1  0
  4  2  1  0
  5  4  1  0
  5  6  1  1
  7  8  2  0
  7  5  1  0
  9 10  1  0
 10 12  1  0
 11 10  2  0
 12 13  1  0
 14 13  1  1
 14 15  1  0
 15  7  1  0
 16 17  2  0
 16 14  1  0
 18 19  1  0
 19 21  1  0
 20 19  2  0
 21 22  1  0
 23 22  1  6
 23 24  1  0
 24 16  1  0
 25 23  1  0
 26 25  1  0
 27 25  2  0
M  END
$$$$
