LQQ.pdb
     RDKit          3D

 27 26  0  0  1  0  0  0  0  0999 V2000
   26.3504  -19.1012   -7.3848 C   0  0  0  0  0  0  0  0  0  0  0  0
   26.5527  -20.2635   -8.2969 C   0  0  1  0  0  0  0  0  0  0  0  0
   25.7405  -21.4706   -7.8995 C   0  0  0  0  0  0  0  0  0  0  0  0
   26.2886  -19.9298   -9.7463 C   0  0  0  0  0  0  0  0  0  0  0  0
   26.6414  -21.0854  -10.6402 C   0  0  2  0  0  0  0  0  0  0  0  0
   28.0660  -21.0959  -10.8592 N   0  0  0  0  0  0  0  0  0  0  0  0
   25.8665  -21.1040  -11.8909 C   0  0  0  0  0  0  0  0  0  0  0  0
   26.2985  -20.4039  -12.8656 O   0  0  0  0  0  0  0  0  0  0  0  0
   24.7083  -24.5039  -15.8491 N   0  0  0  0  0  0  0  0  0  0  0  0
   23.3993  -23.9618  -16.0648 C   0  0  0  0  0  0  0  0  0  0  0  0
   22.8734  -24.0136  -17.1835 O   0  0  0  0  0  0  0  0  0  0  0  0
   22.6923  -23.3384  -14.9271 C   0  0  0  0  0  0  0  0  0  0  0  0
   23.5140  -23.2718  -13.6793 C   0  0  0  0  0  0  0  0  0  0  0  0
   23.9762  -21.8900  -13.3975 C   0  0  2  0  0  0  0  0  0  0  0  0
   24.6919  -21.8249  -12.1080 N   0  0  0  0  0  0  0  0  0  0  0  0
   22.9158  -20.8517  -13.4225 C   0  0  0  0  0  0  0  0  0  0  0  0
   22.1719  -20.6313  -12.4463 O   0  0  0  0  0  0  0  0  0  0  0  0
   21.7084  -16.5632  -18.1325 N   0  0  0  0  0  0  0  0  0  0  0  0
   20.6572  -16.3715  -17.2151 C   0  0  0  0  0  0  0  0  0  0  0  0
   19.7919  -15.5055  -17.4783 O   0  0  0  0  0  0  0  0  0  0  0  0
   20.6010  -17.1780  -15.9901 C   0  0  0  0  0  0  0  0  0  0  0  0
   21.6406  -18.2259  -15.8519 C   0  0  0  0  0  0  0  0  0  0  0  0
   21.6040  -19.0333  -14.5938 C   0  0  2  0  0  0  0  0  0  0  0  0
   22.6814  -20.0346  -14.5774 N   0  0  0  0  0  0  0  0  0  0  0  0
   20.2923  -19.6747  -14.3567 C   0  0  0  0  0  0  0  0  0  0  0  0
   19.3810  -19.1521  -13.4532 O   0  0  0  0  0  0  0  0  0  0  0  0
   19.9475  -20.7247  -14.9663 O   0  0  0  0  0  0  0  0  0  0  0  0
  2  1  1  1
  2  3  1  0
  4  2  1  0
  5  4  1  0
  5  6  1  6
  7  8  2  0
  7  5  1  0
  9 10  1  0
 10 12  1  0
 11 10  2  0
 12 13  1  0
 14 13  1  1
 14 15  1  0
 15  7  1  0
 16 17  2  0
 16 14  1  0
 18 19  1  0
 19 21  1  0
 20 19  2  0
 21 22  1  0
 23 22  1  6
 23 24  1  0
 24 16  1  0
 25 23  1  0
 26 25  1  0
 27 25  2  0
M  END
$$$$
