LQQ.pdb
     RDKit          3D

 27 26  0  0  1  0  0  0  0  0999 V2000
   30.8582  -20.1938  -11.0587 C   0  0  0  0  0  0  0  0  0  0  0  0
   29.8832  -20.9036  -11.9359 C   0  0  1  0  0  0  0  0  0  0  0  0
   29.5749  -22.3014  -11.4609 C   0  0  0  0  0  0  0  0  0  0  0  0
   28.5952  -20.1379  -12.1278 C   0  0  0  0  0  0  0  0  0  0  0  0
   27.7061  -20.8182  -13.1305 C   0  0  2  0  0  0  0  0  0  0  0  0
   28.4706  -21.1150  -14.3158 N   0  0  0  0  0  0  0  0  0  0  0  0
   26.4745  -20.0645  -13.4136 C   0  0  0  0  0  0  0  0  0  0  0  0
   26.3205  -18.9410  -12.8296 O   0  0  0  0  0  0  0  0  0  0  0  0
   26.5700  -17.7463  -17.1187 N   0  0  0  0  0  0  0  0  0  0  0  0
   26.3938  -19.1318  -17.4398 C   0  0  0  0  0  0  0  0  0  0  0  0
   27.1909  -19.7104  -18.1887 O   0  0  0  0  0  0  0  0  0  0  0  0
   25.2419  -19.8542  -16.8618 C   0  0  0  0  0  0  0  0  0  0  0  0
   24.4187  -19.0178  -15.9345 C   0  0  0  0  0  0  0  0  0  0  0  0
   24.2660  -19.6582  -14.6045 C   0  0  2  0  0  0  0  0  0  0  0  0
   25.4516  -20.4718  -14.2705 N   0  0  0  0  0  0  0  0  0  0  0  0
   23.0430  -20.4824  -14.4368 C   0  0  0  0  0  0  0  0  0  0  0  0
   22.9814  -21.6715  -14.8070 O   0  0  0  0  0  0  0  0  0  0  0  0
   19.5829  -20.1913   -9.3129 N   0  0  0  0  0  0  0  0  0  0  0  0
   18.8934  -21.1668  -10.0588 C   0  0  0  0  0  0  0  0  0  0  0  0
   18.0055  -21.8354   -9.4821 O   0  0  0  0  0  0  0  0  0  0  0  0
   19.2264  -21.3748  -11.4730 C   0  0  0  0  0  0  0  0  0  0  0  0
   20.3661  -20.5846  -11.9969 C   0  0  0  0  0  0  0  0  0  0  0  0
   20.7571  -20.8470  -13.4162 C   0  0  2  0  0  0  0  0  0  0  0  0
   21.8514  -19.9579  -13.8355 N   0  0  0  0  0  0  0  0  0  0  0  0
   19.6189  -20.7521  -14.3563 C   0  0  0  0  0  0  0  0  0  0  0  0
   18.8257  -21.8497  -14.6494 O   0  0  0  0  0  0  0  0  0  0  0  0
   19.3220  -19.6686  -14.9313 O   0  0  0  0  0  0  0  0  0  0  0  0
  2  1  1  1
  2  3  1  0
  4  2  1  0
  5  4  1  0
  5  6  1  6
  7  8  2  0
  7  5  1  0
  9 10  1  0
 10 12  1  0
 11 10  2  0
 12 13  1  0
 14 13  1  6
 14 15  1  0
 15  7  1  0
 16 17  2  0
 16 14  1  0
 18 19  1  0
 19 21  1  0
 20 19  2  0
 21 22  1  0
 23 22  1  1
 23 24  1  0
 24 16  1  0
 25 23  1  0
 26 25  1  0
 27 25  2  0
M  END
$$$$
