LQQ.pdb
     RDKit          3D

 27 26  0  0  1  0  0  0  0  0999 V2000
   27.5529  -16.9413  -17.5660 C   0  0  0  0  0  0  0  0  0  0  0  0
   28.0680  -18.1202  -16.8119 C   0  0  1  0  0  0  0  0  0  0  0  0
   28.9888  -17.7374  -15.6805 C   0  0  0  0  0  0  0  0  0  0  0  0
   26.9677  -19.0138  -16.2895 C   0  0  0  0  0  0  0  0  0  0  0  0
   27.5336  -20.1798  -15.5286 C   0  0  2  0  0  0  0  0  0  0  0  0
   28.2348  -21.0457  -16.4430 N   0  0  0  0  0  0  0  0  0  0  0  0
   26.5247  -20.8875  -14.7246 C   0  0  0  0  0  0  0  0  0  0  0  0
   25.6477  -21.5743  -15.3460 O   0  0  0  0  0  0  0  0  0  0  0  0
   25.1465  -21.2450   -8.4252 N   0  0  0  0  0  0  0  0  0  0  0  0
   25.7403  -20.1247   -9.0933 C   0  0  0  0  0  0  0  0  0  0  0  0
   25.9783  -19.0786   -8.4770 O   0  0  0  0  0  0  0  0  0  0  0  0
   26.0598  -20.2426  -10.5309 C   0  0  0  0  0  0  0  0  0  0  0  0
   25.6760  -21.5625  -11.1203 C   0  0  0  0  0  0  0  0  0  0  0  0
   25.3203  -21.4419  -12.5560 C   0  0  2  0  0  0  0  0  0  0  0  0
   26.4407  -20.8746  -13.3320 N   0  0  0  0  0  0  0  0  0  0  0  0
   24.0865  -20.6665  -12.8382 C   0  0  0  0  0  0  0  0  0  0  0  0
   24.1097  -19.4538  -13.1274 O   0  0  0  0  0  0  0  0  0  0  0  0
   21.9751  -19.3123  -17.3932 N   0  0  0  0  0  0  0  0  0  0  0  0
   20.7942  -18.9793  -16.7019 C   0  0  0  0  0  0  0  0  0  0  0  0
   19.8942  -18.3718  -17.3253 O   0  0  0  0  0  0  0  0  0  0  0  0
   20.6478  -19.3458  -15.2882 C   0  0  0  0  0  0  0  0  0  0  0  0
   21.7761  -20.0989  -14.6902 C   0  0  0  0  0  0  0  0  0  0  0  0
   21.5976  -20.5462  -13.2746 C   0  0  2  0  0  0  0  0  0  0  0  0
   22.7858  -21.2687  -12.7952 N   0  0  0  0  0  0  0  0  0  0  0  0
   20.3775  -21.3583  -13.0747 C   0  0  0  0  0  0  0  0  0  0  0  0
   19.1178  -20.7819  -13.0471 O   0  0  0  0  0  0  0  0  0  0  0  0
   20.4315  -22.6098  -12.9205 O   0  0  0  0  0  0  0  0  0  0  0  0
  2  1  1  1
  2  3  1  0
  4  2  1  0
  5  4  1  0
  5  6  1  6
  7  8  2  0
  7  5  1  0
  9 10  1  0
 10 12  1  0
 11 10  2  0
 12 13  1  0
 14 13  1  1
 14 15  1  0
 15  7  1  0
 16 17  2  0
 16 14  1  0
 18 19  1  0
 19 21  1  0
 20 19  2  0
 21 22  1  0
 23 22  1  6
 23 24  1  0
 24 16  1  0
 25 23  1  0
 26 25  1  0
 27 25  2  0
M  END
$$$$
