LQQ.pdb
     RDKit          3D

 27 26  0  0  1  0  0  0  0  0999 V2000
   18.8669  -16.9568  -16.8139 C   0  0  0  0  0  0  0  0  0  0  0  0
   18.1500  -15.6493  -16.7901 C   0  0  1  0  0  0  0  0  0  0  0  0
   17.3256  -15.4537  -15.5424 C   0  0  0  0  0  0  0  0  0  0  0  0
   19.0714  -14.4672  -16.9792 C   0  0  0  0  0  0  0  0  0  0  0  0
   18.2926  -13.1860  -17.0844 C   0  0  2  0  0  0  0  0  0  0  0  0
   17.1999  -13.3714  -18.0059 N   0  0  0  0  0  0  0  0  0  0  0  0
   19.1344  -12.0255  -17.4155 C   0  0  0  0  0  0  0  0  0  0  0  0
   20.1845  -11.8370  -16.7164 O   0  0  0  0  0  0  0  0  0  0  0  0
   21.0927   -9.9548  -22.5207 N   0  0  0  0  0  0  0  0  0  0  0  0
   21.3307   -8.7348  -21.8075 C   0  0  0  0  0  0  0  0  0  0  0  0
   22.1427   -7.9046  -22.2345 O   0  0  0  0  0  0  0  0  0  0  0  0
   20.5904   -8.4893  -20.5527 C   0  0  0  0  0  0  0  0  0  0  0  0
   19.6507   -9.5947  -20.1895 C   0  0  0  0  0  0  0  0  0  0  0  0
   19.7530   -9.9547  -18.7534 C   0  0  2  0  0  0  0  0  0  0  0  0
   18.8849  -11.1052  -18.4340 N   0  0  0  0  0  0  0  0  0  0  0  0
   19.4714   -8.8496  -17.8034 C   0  0  0  0  0  0  0  0  0  0  0  0
   18.3210   -8.4074  -17.6132 O   0  0  0  0  0  0  0  0  0  0  0  0
   21.0307   -8.0672  -12.1047 N   0  0  0  0  0  0  0  0  0  0  0  0
   19.6950   -8.0858  -12.5507 C   0  0  0  0  0  0  0  0  0  0  0  0
   18.8011   -8.3972  -11.7310 O   0  0  0  0  0  0  0  0  0  0  0  0
   19.3859   -7.7456  -13.9445 C   0  0  0  0  0  0  0  0  0  0  0  0
   20.5304   -7.3024  -14.7761 C   0  0  0  0  0  0  0  0  0  0  0  0
   20.2369   -7.0335  -16.2174 C   0  0  2  0  0  0  0  0  0  0  0  0
   20.5111   -8.2199  -17.0426 N   0  0  0  0  0  0  0  0  0  0  0  0
   20.9584   -5.8542  -16.7439 C   0  0  0  0  0  0  0  0  0  0  0  0
   20.7222   -4.5799  -16.2536 O   0  0  0  0  0  0  0  0  0  0  0  0
   21.8187   -5.9579  -17.6614 O   0  0  0  0  0  0  0  0  0  0  0  0
  2  1  1  1
  2  3  1  0
  4  2  1  0
  5  4  1  0
  5  6  1  6
  7  8  2  0
  7  5  1  0
  9 10  1  0
 10 12  1  0
 11 10  2  0
 12 13  1  0
 14 13  1  6
 14 15  1  0
 15  7  1  0
 16 17  2  0
 16 14  1  0
 18 19  1  0
 19 21  1  0
 20 19  2  0
 21 22  1  0
 23 22  1  1
 23 24  1  0
 24 16  1  0
 25 23  1  0
 26 25  1  0
 27 25  2  0
M  END
$$$$
