LQQ.pdb
     RDKit          3D

 27 26  0  0  1  0  0  0  0  0999 V2000
   27.1557  -18.3312  -16.2624 C   0  0  0  0  0  0  0  0  0  0  0  0
   25.8575  -17.6033  -16.3566 C   0  0  1  0  0  0  0  0  0  0  0  0
   24.8058  -18.1549  -15.4269 C   0  0  0  0  0  0  0  0  0  0  0  0
   25.9977  -16.1152  -16.1373 C   0  0  0  0  0  0  0  0  0  0  0  0
   24.6779  -15.4168  -16.3092 C   0  0  2  0  0  0  0  0  0  0  0  0
   23.9124  -16.0957  -17.3244 N   0  0  0  0  0  0  0  0  0  0  0  0
   24.8181  -13.9741  -16.5621 C   0  0  0  0  0  0  0  0  0  0  0  0
   25.4673  -13.2836  -15.7085 O   0  0  0  0  0  0  0  0  0  0  0  0
   25.7732  -10.7503  -21.7361 N   0  0  0  0  0  0  0  0  0  0  0  0
   25.5339   -9.6968  -20.7946 C   0  0  0  0  0  0  0  0  0  0  0  0
   25.7478   -8.5176  -21.1022 O   0  0  0  0  0  0  0  0  0  0  0  0
   25.0299  -10.0461  -19.4504 C   0  0  0  0  0  0  0  0  0  0  0  0
   24.8496  -11.5166  -19.2454 C   0  0  0  0  0  0  0  0  0  0  0  0
   24.4078  -11.8297  -17.8638 C   0  0  2  0  0  0  0  0  0  0  0  0
   24.3003  -13.2881  -17.6611 N   0  0  0  0  0  0  0  0  0  0  0  0
   23.1400  -11.1819  -17.4438 C   0  0  0  0  0  0  0  0  0  0  0  0
   22.0212  -11.6374  -17.7531 O   0  0  0  0  0  0  0  0  0  0  0  0
   21.5183   -9.0515  -11.9444 N   0  0  0  0  0  0  0  0  0  0  0  0
   20.4707   -8.5423  -12.7360 C   0  0  0  0  0  0  0  0  0  0  0  0
   19.4936   -8.0147  -12.1573 O   0  0  0  0  0  0  0  0  0  0  0  0
   20.5465   -8.6407  -14.1984 C   0  0  0  0  0  0  0  0  0  0  0  0
   21.7630   -9.2875  -14.7456 C   0  0  0  0  0  0  0  0  0  0  0  0
   21.8580   -9.3661  -16.2359 C   0  0  2  0  0  0  0  0  0  0  0  0
   23.1252   -9.9861  -16.6524 N   0  0  0  0  0  0  0  0  0  0  0  0
   21.6770   -8.0550  -16.8965 C   0  0  0  0  0  0  0  0  0  0  0  0
   20.4548   -7.4023  -16.8925 O   0  0  0  0  0  0  0  0  0  0  0  0
   22.6271   -7.4754  -17.4918 O   0  0  0  0  0  0  0  0  0  0  0  0
  2  1  1  1
  2  3  1  0
  4  2  1  0
  5  4  1  0
  5  6  1  6
  7  8  2  0
  7  5  1  0
  9 10  1  0
 10 12  1  0
 11 10  2  0
 12 13  1  0
 14 13  1  6
 14 15  1  0
 15  7  1  0
 16 17  2  0
 16 14  1  0
 18 19  1  0
 19 21  1  0
 20 19  2  0
 21 22  1  0
 23 22  1  1
 23 24  1  0
 24 16  1  0
 25 23  1  0
 26 25  1  0
 27 25  2  0
M  END
$$$$
