LQQ.pdb
     RDKit          3D

 27 26  0  0  1  0  0  0  0  0999 V2000
   18.6441  -14.2735  -14.6997 C   0  0  0  0  0  0  0  0  0  0  0  0
   17.6518  -13.7159  -15.6632 C   0  0  1  0  0  0  0  0  0  0  0  0
   16.2255  -13.8917  -15.2056 C   0  0  0  0  0  0  0  0  0  0  0  0
   17.9023  -12.2635  -15.9946 C   0  0  0  0  0  0  0  0  0  0  0  0
   16.9263  -11.7678  -17.0244 C   0  0  2  0  0  0  0  0  0  0  0  0
   17.1680  -12.4490  -18.2715 N   0  0  0  0  0  0  0  0  0  0  0  0
   16.9256  -10.3026  -17.1595 C   0  0  0  0  0  0  0  0  0  0  0  0
   17.8081   -9.7772  -17.9159 O   0  0  0  0  0  0  0  0  0  0  0  0
   13.4171   -6.9586  -19.2308 N   0  0  0  0  0  0  0  0  0  0  0  0
   13.8201   -5.8296  -18.4455 C   0  0  0  0  0  0  0  0  0  0  0  0
   13.6615   -4.6786  -18.8708 O   0  0  0  0  0  0  0  0  0  0  0  0
   14.4302   -6.0669  -17.1210 C   0  0  0  0  0  0  0  0  0  0  0  0
   14.5449   -7.5159  -16.7688 C   0  0  0  0  0  0  0  0  0  0  0  0
   15.9536   -7.9811  -16.8033 C   0  0  2  0  0  0  0  0  0  0  0  0
   16.0388   -9.4291  -16.5292 N   0  0  0  0  0  0  0  0  0  0  0  0
   16.8807   -7.2558  -15.8990 C   0  0  0  0  0  0  0  0  0  0  0  0
   16.8144   -7.3494  -14.6573 O   0  0  0  0  0  0  0  0  0  0  0  0
   22.8326   -7.0367  -15.9617 N   0  0  0  0  0  0  0  0  0  0  0  0
   21.9436   -7.8131  -15.1933 C   0  0  0  0  0  0  0  0  0  0  0  0
   22.3613   -8.8921  -14.7146 O   0  0  0  0  0  0  0  0  0  0  0  0
   20.5690   -7.3473  -14.9750 C   0  0  0  0  0  0  0  0  0  0  0  0
   20.2067   -6.0619  -15.6188 C   0  0  0  0  0  0  0  0  0  0  0  0
   18.7795   -5.6352  -15.4888 C   0  0  2  0  0  0  0  0  0  0  0  0
   17.9147   -6.3987  -16.4016 N   0  0  0  0  0  0  0  0  0  0  0  0
   18.5907   -4.1813  -15.6858 C   0  0  0  0  0  0  0  0  0  0  0  0
   17.7948   -3.6838  -16.7051 O   0  0  0  0  0  0  0  0  0  0  0  0
   19.1461   -3.3325  -14.9348 O   0  0  0  0  0  0  0  0  0  0  0  0
  2  1  1  1
  2  3  1  0
  4  2  1  0
  5  4  1  0
  5  6  1  6
  7  8  2  0
  7  5  1  0
  9 10  1  0
 10 12  1  0
 11 10  2  0
 12 13  1  0
 14 13  1  1
 14 15  1  0
 15  7  1  0
 16 17  2  0
 16 14  1  0
 18 19  1  0
 19 21  1  0
 20 19  2  0
 21 22  1  0
 23 22  1  6
 23 24  1  0
 24 16  1  0
 25 23  1  0
 26 25  1  0
 27 25  2  0
M  END
$$$$
