LQQ.pdb
     RDKit          3D

 27 26  0  0  1  0  0  0  0  0999 V2000
   28.1361  -28.0244  -16.4780 C   0  0  0  0  0  0  0  0  0  0  0  0
   28.1080  -26.7901  -17.3145 C   0  0  1  0  0  0  0  0  0  0  0  0
   26.9830  -26.7865  -18.3190 C   0  0  0  0  0  0  0  0  0  0  0  0
   28.0595  -25.5222  -16.4947 C   0  0  0  0  0  0  0  0  0  0  0  0
   28.1955  -24.3074  -17.3692 C   0  0  2  0  0  0  0  0  0  0  0  0
   29.5076  -24.2990  -17.9659 N   0  0  0  0  0  0  0  0  0  0  0  0
   27.8736  -23.0542  -16.6687 C   0  0  0  0  0  0  0  0  0  0  0  0
   28.7966  -22.5075  -15.9787 O   0  0  0  0  0  0  0  0  0  0  0  0
   24.9123  -18.1557  -18.5807 N   0  0  0  0  0  0  0  0  0  0  0  0
   26.2409  -18.6531  -18.7839 C   0  0  0  0  0  0  0  0  0  0  0  0
   26.9290  -18.2425  -19.7268 O   0  0  0  0  0  0  0  0  0  0  0  0
   26.7712  -19.6661  -17.8483 C   0  0  0  0  0  0  0  0  0  0  0  0
   25.7669  -20.1317  -16.8426 C   0  0  0  0  0  0  0  0  0  0  0  0
   26.3286  -21.1704  -15.9438 C   0  0  2  0  0  0  0  0  0  0  0  0
   26.6390  -22.4047  -16.6918 N   0  0  0  0  0  0  0  0  0  0  0  0
   25.4895  -21.5085  -14.7670 C   0  0  0  0  0  0  0  0  0  0  0  0
   24.5649  -22.3434  -14.8220 O   0  0  0  0  0  0  0  0  0  0  0  0
   26.3742  -19.6601   -8.6186 N   0  0  0  0  0  0  0  0  0  0  0  0
   25.3031  -20.5732   -8.5680 C   0  0  0  0  0  0  0  0  0  0  0  0
   24.8675  -20.9135   -7.4445 O   0  0  0  0  0  0  0  0  0  0  0  0
   24.7312  -21.0974   -9.8139 C   0  0  0  0  0  0  0  0  0  0  0  0
   25.4315  -20.7154  -11.0635 C   0  0  0  0  0  0  0  0  0  0  0  0
   24.8420  -21.2312  -12.3373 C   0  0  2  0  0  0  0  0  0  0  0  0
   25.6926  -20.8918  -13.4884 N   0  0  0  0  0  0  0  0  0  0  0  0
   23.4543  -20.7699  -12.5604 C   0  0  0  0  0  0  0  0  0  0  0  0
   23.1818  -19.5368  -13.1306 O   0  0  0  0  0  0  0  0  0  0  0  0
   22.4602  -21.4787  -12.2409 O   0  0  0  0  0  0  0  0  0  0  0  0
  2  1  1  1
  2  3  1  0
  4  2  1  0
  5  4  1  0
  5  6  1  1
  7  8  2  0
  7  5  1  0
  9 10  1  0
 10 12  1  0
 11 10  2  0
 12 13  1  0
 14 13  1  6
 14 15  1  0
 15  7  1  0
 16 17  2  0
 16 14  1  0
 18 19  1  0
 19 21  1  0
 20 19  2  0
 21 22  1  0
 23 22  1  1
 23 24  1  0
 24 16  1  0
 25 23  1  0
 26 25  1  0
 27 25  2  0
M  END
$$$$
