LQQ.pdb
     RDKit          3D

 27 26  0  0  1  0  0  0  0  0999 V2000
   29.1319  -21.3315   -8.0005 C   0  0  0  0  0  0  0  0  0  0  0  0
   27.7188  -20.9442   -8.2781 C   0  0  1  0  0  0  0  0  0  0  0  0
   27.4406  -19.4901   -7.9902 C   0  0  0  0  0  0  0  0  0  0  0  0
   27.2816  -21.2746   -9.6859 C   0  0  0  0  0  0  0  0  0  0  0  0
   25.8896  -20.7740   -9.9513 C   0  0  2  0  0  0  0  0  0  0  0  0
   24.9795  -21.3911   -9.0194 N   0  0  0  0  0  0  0  0  0  0  0  0
   25.4760  -20.9375  -11.3539 C   0  0  0  0  0  0  0  0  0  0  0  0
   26.3029  -20.5872  -12.2597 O   0  0  0  0  0  0  0  0  0  0  0  0
   24.7880  -24.7660  -14.7344 N   0  0  0  0  0  0  0  0  0  0  0  0
   23.7746  -24.0999  -15.4979 C   0  0  0  0  0  0  0  0  0  0  0  0
   23.7033  -24.2592  -16.7229 O   0  0  0  0  0  0  0  0  0  0  0  0
   22.8195  -23.2187  -14.7951 C   0  0  0  0  0  0  0  0  0  0  0  0
   23.1828  -22.9657  -13.3665 C   0  0  0  0  0  0  0  0  0  0  0  0
   23.8889  -21.6712  -13.1988 C   0  0  2  0  0  0  0  0  0  0  0  0
   24.2504  -21.4457  -11.7854 N   0  0  0  0  0  0  0  0  0  0  0  0
   23.1625  -20.4839  -13.7144 C   0  0  0  0  0  0  0  0  0  0  0  0
   22.2817  -19.8991  -13.0533 O   0  0  0  0  0  0  0  0  0  0  0  0
   24.7395  -16.7820  -18.7551 N   0  0  0  0  0  0  0  0  0  0  0  0
   23.5583  -16.2010  -18.2545 C   0  0  0  0  0  0  0  0  0  0  0  0
   23.1787  -15.1137  -18.7459 O   0  0  0  0  0  0  0  0  0  0  0  0
   22.8110  -16.8724  -17.1845 C   0  0  0  0  0  0  0  0  0  0  0  0
   23.4424  -18.0848  -16.6107 C   0  0  0  0  0  0  0  0  0  0  0  0
   22.6936  -18.7628  -15.5082 C   0  0  2  0  0  0  0  0  0  0  0  0
   23.4313  -19.9345  -15.0115 N   0  0  0  0  0  0  0  0  0  0  0  0
   21.3152  -19.1385  -15.8916 C   0  0  0  0  0  0  0  0  0  0  0  0
   20.2520  -18.2654  -15.7267 O   0  0  0  0  0  0  0  0  0  0  0  0
   21.0486  -20.2694  -16.3844 O   0  0  0  0  0  0  0  0  0  0  0  0
  2  1  1  6
  2  3  1  0
  4  2  1  0
  5  4  1  0
  5  6  1  1
  7  8  2  0
  7  5  1  0
  9 10  1  0
 10 12  1  0
 11 10  2  0
 12 13  1  0
 14 13  1  1
 14 15  1  0
 15  7  1  0
 16 17  2  0
 16 14  1  0
 18 19  1  0
 19 21  1  0
 20 19  2  0
 21 22  1  0
 23 22  1  6
 23 24  1  0
 24 16  1  0
 25 23  1  0
 26 25  1  0
 27 25  2  0
M  END
$$$$
