LQQ.pdb
     RDKit          3D

 27 26  0  0  1  0  0  0  0  0999 V2000
   29.8151  -19.0147  -20.2643 C   0  0  0  0  0  0  0  0  0  0  0  0
   29.0512  -19.9238  -19.3622 C   0  0  1  0  0  0  0  0  0  0  0  0
   29.9056  -21.0144  -18.7662 C   0  0  0  0  0  0  0  0  0  0  0  0
   28.3259  -19.1887  -18.2596 C   0  0  0  0  0  0  0  0  0  0  0  0
   27.6338  -20.1493  -17.3336 C   0  0  2  0  0  0  0  0  0  0  0  0
   27.4107  -21.3944  -18.0247 N   0  0  0  0  0  0  0  0  0  0  0  0
   26.4085  -19.5938  -16.7379 C   0  0  0  0  0  0  0  0  0  0  0  0
   26.5025  -18.4834  -16.1174 O   0  0  0  0  0  0  0  0  0  0  0  0
   21.1545  -18.4449  -19.2690 N   0  0  0  0  0  0  0  0  0  0  0  0
   22.3484  -17.6641  -19.1323 C   0  0  0  0  0  0  0  0  0  0  0  0
   22.5618  -16.7042  -19.8834 O   0  0  0  0  0  0  0  0  0  0  0  0
   23.3194  -18.0289  -18.0802 C   0  0  0  0  0  0  0  0  0  0  0  0
   22.9445  -19.2651  -17.3264 C   0  0  0  0  0  0  0  0  0  0  0  0
   23.9150  -19.5660  -16.2448 C   0  0  2  0  0  0  0  0  0  0  0  0
   25.1424  -20.1777  -16.7913 N   0  0  0  0  0  0  0  0  0  0  0  0
   23.3923  -20.4148  -15.1451 C   0  0  0  0  0  0  0  0  0  0  0  0
   23.4200  -21.6607  -15.1902 O   0  0  0  0  0  0  0  0  0  0  0  0
   24.6484  -20.1567   -9.2432 N   0  0  0  0  0  0  0  0  0  0  0  0
   23.5218  -21.0006   -9.1978 C   0  0  0  0  0  0  0  0  0  0  0  0
   23.2174  -21.5237   -8.1017 O   0  0  0  0  0  0  0  0  0  0  0  0
   22.7426  -21.2444  -10.4175 C   0  0  0  0  0  0  0  0  0  0  0  0
   23.1541  -20.4774  -11.6176 C   0  0  0  0  0  0  0  0  0  0  0  0
   22.3514  -20.7076  -12.8580 C   0  0  2  0  0  0  0  0  0  0  0  0
   22.8205  -19.8502  -13.9574 N   0  0  0  0  0  0  0  0  0  0  0  0
   20.8976  -20.5350  -12.6461 C   0  0  0  0  0  0  0  0  0  0  0  0
   20.2280  -19.4061  -13.0899 O   0  0  0  0  0  0  0  0  0  0  0  0
   20.2056  -21.4075  -12.0522 O   0  0  0  0  0  0  0  0  0  0  0  0
  2  1  1  1
  2  3  1  0
  4  2  1  0
  5  4  1  0
  5  6  1  6
  7  8  2  0
  7  5  1  0
  9 10  1  0
 10 12  1  0
 11 10  2  0
 12 13  1  0
 14 13  1  6
 14 15  1  0
 15  7  1  0
 16 17  2  0
 16 14  1  0
 18 19  1  0
 19 21  1  0
 20 19  2  0
 21 22  1  0
 23 22  1  1
 23 24  1  0
 24 16  1  0
 25 23  1  0
 26 25  1  0
 27 25  2  0
M  END
$$$$
