LQQ.pdb
     RDKit          3D

 27 26  0  0  1  0  0  0  0  0999 V2000
   27.4001  -15.3556  -15.2224 C   0  0  0  0  0  0  0  0  0  0  0  0
   27.4072  -16.0689  -16.5320 C   0  0  1  0  0  0  0  0  0  0  0  0
   28.7399  -16.6991  -16.8507 C   0  0  0  0  0  0  0  0  0  0  0  0
   26.3157  -17.1072  -16.6448 C   0  0  0  0  0  0  0  0  0  0  0  0
   26.8588  -18.4897  -16.4152 C   0  0  2  0  0  0  0  0  0  0  0  0
   27.7627  -18.8265  -17.4863 N   0  0  0  0  0  0  0  0  0  0  0  0
   25.8051  -19.4965  -16.2131 C   0  0  0  0  0  0  0  0  0  0  0  0
   25.2178  -19.9550  -17.2484 O   0  0  0  0  0  0  0  0  0  0  0  0
   25.3417  -24.3067  -12.4012 N   0  0  0  0  0  0  0  0  0  0  0  0
   24.0058  -24.2491  -12.9170 C   0  0  0  0  0  0  0  0  0  0  0  0
   23.2140  -25.1787  -12.7179 O   0  0  0  0  0  0  0  0  0  0  0  0
   23.5942  -23.0606  -13.6921 C   0  0  0  0  0  0  0  0  0  0  0  0
   24.6940  -22.0659  -13.8864 C   0  0  0  0  0  0  0  0  0  0  0  0
   24.2894  -20.9694  -14.8009 C   0  0  2  0  0  0  0  0  0  0  0  0
   25.3873  -19.9989  -14.9804 N   0  0  0  0  0  0  0  0  0  0  0  0
   23.0539  -20.2450  -14.4111 C   0  0  0  0  0  0  0  0  0  0  0  0
   22.9439  -19.6473  -13.3222 O   0  0  0  0  0  0  0  0  0  0  0  0
   18.8339  -17.4138  -18.1834 N   0  0  0  0  0  0  0  0  0  0  0  0
   18.1993  -17.3627  -16.9272 C   0  0  0  0  0  0  0  0  0  0  0  0
   17.1245  -16.7274  -16.8321 O   0  0  0  0  0  0  0  0  0  0  0  0
   18.8030  -18.0441  -15.7759 C   0  0  0  0  0  0  0  0  0  0  0  0
   20.0615  -18.7812  -16.0417 C   0  0  0  0  0  0  0  0  0  0  0  0
   20.6935  -19.4576  -14.8673 C   0  0  2  0  0  0  0  0  0  0  0  0
   21.9055  -20.1885  -15.2681 N   0  0  0  0  0  0  0  0  0  0  0  0
   19.7616  -20.3500  -14.1439 C   0  0  0  0  0  0  0  0  0  0  0  0
   19.6347  -21.6895  -14.4749 O   0  0  0  0  0  0  0  0  0  0  0  0
   19.0427  -19.9300  -13.1955 O   0  0  0  0  0  0  0  0  0  0  0  0
  2  1  1  1
  2  3  1  0
  4  2  1  0
  5  4  1  0
  5  6  1  6
  7  8  2  0
  7  5  1  0
  9 10  1  0
 10 12  1  0
 11 10  2  0
 12 13  1  0
 14 13  1  1
 14 15  1  0
 15  7  1  0
 16 17  2  0
 16 14  1  0
 18 19  1  0
 19 21  1  0
 20 19  2  0
 21 22  1  0
 23 22  1  6
 23 24  1  0
 24 16  1  0
 25 23  1  0
 26 25  1  0
 27 25  2  0
M  END
$$$$
