LQQ.pdb
     RDKit          3D

 27 26  0  0  1  0  0  0  0  0999 V2000
   27.8290  -20.7825  -19.9757 C   0  0  0  0  0  0  0  0  0  0  0  0
   26.9952  -19.8247  -19.1939 C   0  0  1  0  0  0  0  0  0  0  0  0
   26.1912  -18.8956  -20.0686 C   0  0  0  0  0  0  0  0  0  0  0  0
   26.0801  -20.5086  -18.2055 C   0  0  0  0  0  0  0  0  0  0  0  0
   25.3275  -19.5030  -17.3800 C   0  0  2  0  0  0  0  0  0  0  0  0
   26.1630  -18.3485  -17.1640 N   0  0  0  0  0  0  0  0  0  0  0  0
   24.7918  -20.0677  -16.1314 C   0  0  0  0  0  0  0  0  0  0  0  0
   24.0714  -21.1168  -16.2172 O   0  0  0  0  0  0  0  0  0  0  0  0
   26.5521  -21.5177  -11.0408 N   0  0  0  0  0  0  0  0  0  0  0  0
   25.2555  -21.2115  -10.5125 C   0  0  0  0  0  0  0  0  0  0  0  0
   24.8171  -21.8207   -9.5289 O   0  0  0  0  0  0  0  0  0  0  0  0
   24.4528  -20.1574  -11.1662 C   0  0  0  0  0  0  0  0  0  0  0  0
   25.0780  -19.6203  -12.4143 C   0  0  0  0  0  0  0  0  0  0  0  0
   24.3464  -20.0581  -13.6289 C   0  0  2  0  0  0  0  0  0  0  0  0
   25.0028  -19.5542  -14.8514 N   0  0  0  0  0  0  0  0  0  0  0  0
   22.9064  -19.6997  -13.6626 C   0  0  0  0  0  0  0  0  0  0  0  0
   22.4903  -18.6490  -14.1898 O   0  0  0  0  0  0  0  0  0  0  0  0
   19.1431  -22.9867  -15.9685 N   0  0  0  0  0  0  0  0  0  0  0  0
   18.4696  -21.7636  -16.1522 C   0  0  0  0  0  0  0  0  0  0  0  0
   17.4034  -21.7672  -16.8087 O   0  0  0  0  0  0  0  0  0  0  0  0
   19.0245  -20.5314  -15.5794 C   0  0  0  0  0  0  0  0  0  0  0  0
   20.3878  -20.6358  -15.0065 C   0  0  0  0  0  0  0  0  0  0  0  0
   20.4987  -20.4640  -13.5252 C   0  0  2  0  0  0  0  0  0  0  0  0
   21.9007  -20.5450  -13.0876 N   0  0  0  0  0  0  0  0  0  0  0  0
   19.6601  -21.4190  -12.7682 C   0  0  0  0  0  0  0  0  0  0  0  0
   20.2189  -22.3680  -11.9273 O   0  0  0  0  0  0  0  0  0  0  0  0
   18.4012  -21.4105  -12.8559 O   0  0  0  0  0  0  0  0  0  0  0  0
  2  1  1  6
  2  3  1  0
  4  2  1  0
  5  4  1  0
  5  6  1  1
  7  8  2  0
  7  5  1  0
  9 10  1  0
 10 12  1  0
 11 10  2  0
 12 13  1  0
 14 13  1  1
 14 15  1  0
 15  7  1  0
 16 17  2  0
 16 14  1  0
 18 19  1  0
 19 21  1  0
 20 19  2  0
 21 22  1  0
 23 22  1  6
 23 24  1  0
 24 16  1  0
 25 23  1  0
 26 25  1  0
 27 25  2  0
M  END
$$$$
