PFA.pdb
     RDKit          3D

 24 25  0  0  1  0  0  0  0  0999 V2000
    8.0527  -17.3290   19.9369 N   0  0  0  0  0  0  0  0  0  0  0  0
    7.4068  -17.2472   18.6356 C   0  0  0  0  0  0  0  0  0  0  0  0
    8.3847  -16.4382   17.7706 C   0  0  0  0  0  0  0  0  0  0  0  0
    8.8329  -15.4321   18.8405 C   0  0  0  0  0  0  0  0  0  0  0  0
    9.1228  -16.4000   19.9743 C   0  0  1  0  0  0  0  0  0  0  0  0
    9.2459  -15.6428   21.2292 C   0  0  0  0  0  0  0  0  0  0  0  0
   10.2421  -14.9072   21.4403 O   0  0  0  0  0  0  0  0  0  0  0  0
    8.2507  -15.7214   22.2296 N   0  0  0  0  0  0  0  0  0  0  0  0
    8.2914  -15.0265   23.4864 C   0  0  1  0  0  0  0  0  0  0  0  0
    7.0052  -14.3279   23.7517 C   0  0  0  0  0  0  0  0  0  0  0  0
    7.0520  -13.5570   25.0175 C   0  0  0  0  0  0  0  0  0  0  0  0
    7.6738  -12.3307   25.0399 C   0  0  0  0  0  0  0  0  0  0  0  0
    7.7486  -11.5667   26.1954 C   0  0  0  0  0  0  0  0  0  0  0  0
    7.1757  -12.0738   27.3396 C   0  0  0  0  0  0  0  0  0  0  0  0
    6.5446  -13.2947   27.3611 C   0  0  0  0  0  0  0  0  0  0  0  0
    6.4954  -14.0251   26.1751 C   0  0  0  0  0  0  0  0  0  0  0  0
    8.7396  -15.8884   24.6028 C   0  0  0  0  0  0  0  0  0  0  0  0
    8.0737  -16.9474   24.7974 O   0  0  0  0  0  0  0  0  0  0  0  0
   11.8494  -16.8890   25.9910 C   0  0  0  0  0  0  0  0  0  0  0  0
   10.3755  -16.6834   26.2570 C   0  0  2  0  0  0  0  0  0  0  0  0
    9.8235  -15.6223   25.4405 N   0  0  0  0  0  0  0  0  0  0  0  0
   10.1724  -16.3537   27.6682 C   0  0  0  0  0  0  0  0  0  0  0  0
    9.5967  -15.2854   27.9801 O   0  0  0  0  0  0  0  0  0  0  0  0
   10.6114  -17.2142   28.6836 O   0  0  0  0  0  0  0  0  0  0  0  0
  1  2  1  0
  3  2  1  0
  4  5  1  0
  4  3  1  0
  5  1  1  0
  6  8  1  0
  5  6  1  1
  7  6  2  0
  9  8  1  0
  9 10  1  1
 10 11  1  0
 11 12  2  0
 11 16  1  0
 12 13  1  0
 13 14  2  0
 15 14  1  0
 16 15  2  0
 17 18  2  0
 17  9  1  0
 20 19  1  1
 20 22  1  0
 20 21  1  0
 21 17  1  0
 22 24  1  0
 23 22  2  0
M  END
$$$$
