PFA.pdb
     RDKit          3D

 24 25  0  0  1  0  0  0  0  0999 V2000
    7.6696  -15.6218   19.2053 N   0  0  0  0  0  0  0  0  0  0  0  0
    6.9109  -15.1248   18.0675 C   0  0  0  0  0  0  0  0  0  0  0  0
    7.7940  -14.0198   17.4690 C   0  0  0  0  0  0  0  0  0  0  0  0
    8.3150  -13.4270   18.7861 C   0  0  0  0  0  0  0  0  0  0  0  0
    8.7212  -14.7131   19.4845 C   0  0  1  0  0  0  0  0  0  0  0  0
    8.9393  -14.4333   20.9119 C   0  0  0  0  0  0  0  0  0  0  0  0
    9.9152  -13.7375   21.2882 O   0  0  0  0  0  0  0  0  0  0  0  0
    8.0604  -14.9378   21.8971 N   0  0  0  0  0  0  0  0  0  0  0  0
    8.1681  -14.6778   23.3059 C   0  0  1  0  0  0  0  0  0  0  0  0
    6.8898  -14.1457   23.8496 C   0  0  0  0  0  0  0  0  0  0  0  0
    7.0608  -13.6040   25.2193 C   0  0  0  0  0  0  0  0  0  0  0  0
    7.1416  -12.2436   25.4033 C   0  0  0  0  0  0  0  0  0  0  0  0
    7.3027  -11.6815   26.6613 C   0  0  0  0  0  0  0  0  0  0  0  0
    7.3812  -12.5323   27.7404 C   0  0  0  0  0  0  0  0  0  0  0  0
    7.3051  -13.8976   27.6010 C   0  0  0  0  0  0  0  0  0  0  0  0
    7.1432  -14.4147   26.3169 C   0  0  0  0  0  0  0  0  0  0  0  0
    8.6990  -15.8336   24.0623 C   0  0  0  0  0  0  0  0  0  0  0  0
    7.9921  -16.8838   24.0530 O   0  0  0  0  0  0  0  0  0  0  0  0
   11.8709  -17.3078   24.7537 C   0  0  0  0  0  0  0  0  0  0  0  0
   10.4488  -17.1094   25.2266 C   0  0  2  0  0  0  0  0  0  0  0  0
    9.9007  -15.8484   24.7717 N   0  0  0  0  0  0  0  0  0  0  0  0
   10.4076  -17.1472   26.6889 C   0  0  0  0  0  0  0  0  0  0  0  0
   10.8588  -18.1452   27.2976 O   0  0  0  0  0  0  0  0  0  0  0  0
    9.8708  -16.0832   27.4263 O   0  0  0  0  0  0  0  0  0  0  0  0
  1  2  1  0
  3  2  1  0
  4  5  1  0
  4  3  1  0
  5  1  1  0
  6  8  1  0
  5  6  1  1
  7  6  2  0
  9  8  1  0
  9 10  1  1
 10 11  1  0
 11 12  2  0
 11 16  1  0
 12 13  1  0
 13 14  2  0
 15 14  1  0
 16 15  2  0
 17 18  2  0
 17  9  1  0
 20 19  1  1
 20 22  1  0
 20 21  1  0
 21 17  1  0
 22 24  1  0
 23 22  2  0
M  END
$$$$
