PFA.pdb
     RDKit          3D

 24 25  0  0  1  0  0  0  0  0999 V2000
    7.3970  -16.1843   20.9385 N   0  0  0  0  0  0  0  0  0  0  0  0
    6.2571  -15.6695   20.1949 C   0  0  0  0  0  0  0  0  0  0  0  0
    6.8223  -14.4874   19.3935 C   0  0  0  0  0  0  0  0  0  0  0  0
    7.7734  -13.9382   20.4666 C   0  0  0  0  0  0  0  0  0  0  0  0
    8.4485  -15.2356   20.8762 C   0  0  1  0  0  0  0  0  0  0  0  0
    9.1687  -15.0210   22.1406 C   0  0  0  0  0  0  0  0  0  0  0  0
   10.2192  -14.3328   22.1725 O   0  0  0  0  0  0  0  0  0  0  0  0
    8.7011  -15.5812   23.3509 N   0  0  0  0  0  0  0  0  0  0  0  0
    9.3619  -15.4629   24.6211 C   0  0  1  0  0  0  0  0  0  0  0  0
    8.3793  -15.2368   25.7148 C   0  0  0  0  0  0  0  0  0  0  0  0
    9.0460  -14.8200   26.9721 C   0  0  0  0  0  0  0  0  0  0  0  0
    9.4529  -15.7776   27.8713 C   0  0  0  0  0  0  0  0  0  0  0  0
   10.0801  -15.4456   29.0633 C   0  0  0  0  0  0  0  0  0  0  0  0
   10.2895  -14.1116   29.3298 C   0  0  0  0  0  0  0  0  0  0  0  0
    9.8987  -13.1226   28.4587 C   0  0  0  0  0  0  0  0  0  0  0  0
    9.2724  -13.5062   27.2742 C   0  0  0  0  0  0  0  0  0  0  0  0
   10.2977  -16.5784   24.8856 C   0  0  0  0  0  0  0  0  0  0  0  0
    9.7929  -17.7388   24.9213 O   0  0  0  0  0  0  0  0  0  0  0  0
   13.8833  -17.2945   24.4645 C   0  0  0  0  0  0  0  0  0  0  0  0
   12.5216  -17.6159   25.0372 C   0  0  2  0  0  0  0  0  0  0  0  0
   11.6711  -16.4451   25.0943 N   0  0  0  0  0  0  0  0  0  0  0  0
   12.6725  -18.1618   26.3865 C   0  0  0  0  0  0  0  0  0  0  0  0
   13.4051  -19.1608   26.5742 O   0  0  0  0  0  0  0  0  0  0  0  0
   12.0104  -17.5858   27.4792 O   0  0  0  0  0  0  0  0  0  0  0  0
  1  2  1  0
  3  2  1  0
  4  5  1  0
  4  3  1  0
  5  1  1  0
  6  8  1  0
  5  6  1  1
  7  6  2  0
  9  8  1  0
  9 10  1  1
 10 11  1  0
 11 12  2  0
 11 16  1  0
 12 13  1  0
 13 14  2  0
 15 14  1  0
 16 15  2  0
 17 18  2  0
 17  9  1  0
 20 19  1  1
 20 22  1  0
 20 21  1  0
 21 17  1  0
 22 24  1  0
 23 22  2  0
M  END
$$$$
