PFA.pdb
     RDKit          3D

 24 25  0  0  1  0  0  0  0  0999 V2000
    7.0524  -15.3092   20.3209 N   0  0  0  0  0  0  0  0  0  0  0  0
    7.0293  -14.6285   19.0351 C   0  0  0  0  0  0  0  0  0  0  0  0
    8.4370  -14.8442   18.4600 C   0  0  0  0  0  0  0  0  0  0  0  0
    9.2266  -14.6953   19.7685 C   0  0  0  0  0  0  0  0  0  0  0  0
    8.3973  -15.6081   20.6548 C   0  0  1  0  0  0  0  0  0  0  0  0
    8.7580  -15.3663   22.0601 C   0  0  0  0  0  0  0  0  0  0  0  0
    9.5821  -14.4689   22.3662 O   0  0  0  0  0  0  0  0  0  0  0  0
    8.1900  -16.1340   23.1019 N   0  0  0  0  0  0  0  0  0  0  0  0
    8.3971  -15.8983   24.5039 C   0  0  1  0  0  0  0  0  0  0  0  0
    7.1098  -15.6144   25.1931 C   0  0  0  0  0  0  0  0  0  0  0  0
    7.0736  -14.2362   25.7391 C   0  0  0  0  0  0  0  0  0  0  0  0
    6.0950  -13.3672   25.3170 C   0  0  0  0  0  0  0  0  0  0  0  0
    6.0135  -12.0666   25.7928 C   0  0  0  0  0  0  0  0  0  0  0  0
    6.9516  -11.6589   26.7138 C   0  0  0  0  0  0  0  0  0  0  0  0
    7.9462  -12.4951   27.1623 C   0  0  0  0  0  0  0  0  0  0  0  0
    7.9865  -13.7925   26.6548 C   0  0  0  0  0  0  0  0  0  0  0  0
    9.1945  -16.9635   25.1517 C   0  0  0  0  0  0  0  0  0  0  0  0
    8.7314  -18.1391   25.0724 O   0  0  0  0  0  0  0  0  0  0  0  0
   12.6210  -17.7212   26.2333 C   0  0  0  0  0  0  0  0  0  0  0  0
   11.1252  -17.9113   26.3430 C   0  0  2  0  0  0  0  0  0  0  0  0
   10.3979  -16.7684   25.8309 N   0  0  0  0  0  0  0  0  0  0  0  0
   10.7581  -18.1212   27.7439 C   0  0  0  0  0  0  0  0  0  0  0  0
    9.9508  -17.3398   28.2985 O   0  0  0  0  0  0  0  0  0  0  0  0
   11.2945  -19.1853   28.4816 O   0  0  0  0  0  0  0  0  0  0  0  0
  1  2  1  0
  3  2  1  0
  4  5  1  0
  4  3  1  0
  5  1  1  0
  6  8  1  0
  5  6  1  1
  7  6  2  0
  9  8  1  0
  9 10  1  1
 10 11  1  0
 11 12  2  0
 11 16  1  0
 12 13  1  0
 13 14  2  0
 15 14  1  0
 16 15  2  0
 17 18  2  0
 17  9  1  0
 20 19  1  1
 20 22  1  0
 20 21  1  0
 21 17  1  0
 22 24  1  0
 23 22  2  0
M  END
$$$$
