PFA.pdb
     RDKit          3D

 24 25  0  0  1  0  0  0  0  0999 V2000
    7.7741  -15.3110   19.1291 N   0  0  0  0  0  0  0  0  0  0  0  0
    7.0484  -14.7105   18.0200 C   0  0  0  0  0  0  0  0  0  0  0  0
    7.9584  -13.5718   17.5360 C   0  0  0  0  0  0  0  0  0  0  0  0
    8.4552  -13.0980   18.9095 C   0  0  0  0  0  0  0  0  0  0  0  0
    8.8295  -14.4432   19.5069 C   0  0  1  0  0  0  0  0  0  0  0  0
    9.0172  -14.2864   20.9572 C   0  0  0  0  0  0  0  0  0  0  0  0
   10.0132  -13.6713   21.4131 O   0  0  0  0  0  0  0  0  0  0  0  0
    8.0859  -14.8216   21.8757 N   0  0  0  0  0  0  0  0  0  0  0  0
    8.1449  -14.6498   23.3009 C   0  0  1  0  0  0  0  0  0  0  0  0
    6.8242  -14.2324   23.8432 C   0  0  0  0  0  0  0  0  0  0  0  0
    6.9603  -13.5565   25.1560 C   0  0  0  0  0  0  0  0  0  0  0  0
    6.7225  -14.2660   26.3097 C   0  0  0  0  0  0  0  0  0  0  0  0
    6.8336  -13.6850   27.5646 C   0  0  0  0  0  0  0  0  0  0  0  0
    7.1939  -12.3581   27.6291 C   0  0  0  0  0  0  0  0  0  0  0  0
    7.4405  -11.6126   26.5010 C   0  0  0  0  0  0  0  0  0  0  0  0
    7.3158  -12.2409   25.2632 C   0  0  0  0  0  0  0  0  0  0  0  0
    8.7283  -15.8196   23.9947 C   0  0  0  0  0  0  0  0  0  0  0  0
    8.1285  -16.9232   23.8367 O   0  0  0  0  0  0  0  0  0  0  0  0
   11.9172  -17.1047   25.1205 C   0  0  0  0  0  0  0  0  0  0  0  0
   10.4182  -17.0343   25.3038 C   0  0  2  0  0  0  0  0  0  0  0  0
    9.8709  -15.7935   24.7955 N   0  0  0  0  0  0  0  0  0  0  0  0
   10.0910  -17.1528   26.7251 C   0  0  0  0  0  0  0  0  0  0  0  0
    9.4995  -16.2139   27.3069 O   0  0  0  0  0  0  0  0  0  0  0  0
   10.4277  -18.3024   27.4526 O   0  0  0  0  0  0  0  0  0  0  0  0
  1  2  1  0
  3  2  1  0
  4  5  1  0
  4  3  1  0
  5  1  1  0
  6  8  1  0
  5  6  1  1
  7  6  2  0
  9  8  1  0
  9 10  1  1
 10 11  1  0
 11 12  2  0
 11 16  1  0
 12 13  1  0
 13 14  2  0
 15 14  1  0
 16 15  2  0
 17 18  2  0
 17  9  1  0
 20 19  1  1
 20 22  1  0
 20 21  1  0
 21 17  1  0
 22 24  1  0
 23 22  2  0
M  END
$$$$
