PFA.pdb
     RDKit          3D

 24 25  0  0  1  0  0  0  0  0999 V2000
    9.0009  -17.6664   20.6296 N   0  0  0  0  0  0  0  0  0  0  0  0
    8.4628  -17.8015   19.2844 C   0  0  0  0  0  0  0  0  0  0  0  0
    9.3780  -16.9274   18.4141 C   0  0  0  0  0  0  0  0  0  0  0  0
    9.5776  -15.7735   19.4073 C   0  0  0  0  0  0  0  0  0  0  0  0
    9.9124  -16.5808   20.6495 C   0  0  1  0  0  0  0  0  0  0  0  0
    9.8134  -15.7069   21.8284 C   0  0  0  0  0  0  0  0  0  0  0  0
   10.6504  -14.7898   22.0200 O   0  0  0  0  0  0  0  0  0  0  0  0
    8.7778  -15.8736   22.7756 N   0  0  0  0  0  0  0  0  0  0  0  0
    8.5483  -15.0132   23.9030 C   0  0  1  0  0  0  0  0  0  0  0  0
    7.1074  -14.6636   24.0229 C   0  0  0  0  0  0  0  0  0  0  0  0
    6.8810  -13.6208   25.0525 C   0  0  0  0  0  0  0  0  0  0  0  0
    6.3907  -13.9829   26.2852 C   0  0  0  0  0  0  0  0  0  0  0  0
    6.1585  -13.0501   27.2855 C   0  0  0  0  0  0  0  0  0  0  0  0
    6.4354  -11.7301   27.0106 C   0  0  0  0  0  0  0  0  0  0  0  0
    6.9263  -11.3253   25.7922 C   0  0  0  0  0  0  0  0  0  0  0  0
    7.1430  -12.2995   24.8193 C   0  0  0  0  0  0  0  0  0  0  0  0
    9.1370  -15.5401   25.1543 C   0  0  0  0  0  0  0  0  0  0  0  0
    9.3442  -16.7883   25.1958 O   0  0  0  0  0  0  0  0  0  0  0  0
   10.9505  -14.1997   28.1423 C   0  0  0  0  0  0  0  0  0  0  0  0
   10.4290  -15.2872   27.2308 C   0  0  2  0  0  0  0  0  0  0  0  0
    9.4739  -14.7737   26.2708 N   0  0  0  0  0  0  0  0  0  0  0  0
    9.7872  -16.3318   28.0297 C   0  0  0  0  0  0  0  0  0  0  0  0
   10.4431  -16.9277   28.9156 O   0  0  0  0  0  0  0  0  0  0  0  0
    8.4457  -16.6808   27.8226 O   0  0  0  0  0  0  0  0  0  0  0  0
  1  2  1  0
  3  2  1  0
  4  5  1  0
  4  3  1  0
  5  1  1  0
  6  8  1  0
  5  6  1  1
  7  6  2  0
  9  8  1  0
  9 10  1  1
 10 11  1  0
 11 12  2  0
 11 16  1  0
 12 13  1  0
 13 14  2  0
 15 14  1  0
 16 15  2  0
 17 18  2  0
 17  9  1  0
 20 19  1  1
 20 22  1  0
 20 21  1  0
 21 17  1  0
 22 24  1  0
 23 22  2  0
M  END
$$$$
