PFA.pdb
     RDKit          3D

 24 25  0  0  1  0  0  0  0  0999 V2000
    8.8374  -17.5986   20.7303 N   0  0  0  0  0  0  0  0  0  0  0  0
    8.2227  -17.7449   19.4196 C   0  0  0  0  0  0  0  0  0  0  0  0
    9.0608  -16.8457   18.4987 C   0  0  0  0  0  0  0  0  0  0  0  0
    9.2903  -15.6890   19.4821 C   0  0  0  0  0  0  0  0  0  0  0  0
    9.7202  -16.4898   20.6990 C   0  0  1  0  0  0  0  0  0  0  0  0
    9.6702  -15.6210   21.8847 C   0  0  0  0  0  0  0  0  0  0  0  0
   10.4628  -14.6540   22.0062 O   0  0  0  0  0  0  0  0  0  0  0  0
    8.7327  -15.8489   22.9174 N   0  0  0  0  0  0  0  0  0  0  0  0
    8.5384  -14.9934   24.0552 C   0  0  1  0  0  0  0  0  0  0  0  0
    7.0911  -14.7548   24.3025 C   0  0  0  0  0  0  0  0  0  0  0  0
    6.8733  -13.5973   25.2033 C   0  0  0  0  0  0  0  0  0  0  0  0
    6.1506  -13.7679   26.3608 C   0  0  0  0  0  0  0  0  0  0  0  0
    5.9147  -12.7208   27.2397 C   0  0  0  0  0  0  0  0  0  0  0  0
    6.4301  -11.4851   26.9207 C   0  0  0  0  0  0  0  0  0  0  0  0
    7.1578  -11.2711   25.7744 C   0  0  0  0  0  0  0  0  0  0  0  0
    7.3680  -12.3542   24.9228 C   0  0  0  0  0  0  0  0  0  0  0  0
    9.2763  -15.4559   25.2517 C   0  0  0  0  0  0  0  0  0  0  0  0
    9.5877  -16.6826   25.2805 O   0  0  0  0  0  0  0  0  0  0  0  0
   10.9974  -14.1146   28.3048 C   0  0  0  0  0  0  0  0  0  0  0  0
   10.5022  -15.1914   27.3665 C   0  0  2  0  0  0  0  0  0  0  0  0
    9.6467  -14.6514   26.3302 N   0  0  0  0  0  0  0  0  0  0  0  0
    9.7569  -16.1979   28.1235 C   0  0  0  0  0  0  0  0  0  0  0  0
    8.5240  -16.3260   27.9404 O   0  0  0  0  0  0  0  0  0  0  0  0
   10.3986  -17.0263   29.0542 O   0  0  0  0  0  0  0  0  0  0  0  0
  1  2  1  0
  3  2  1  0
  4  5  1  0
  4  3  1  0
  5  1  1  0
  6  8  1  0
  5  6  1  1
  7  6  2  0
  9  8  1  0
  9 10  1  1
 10 11  1  0
 11 12  2  0
 11 16  1  0
 12 13  1  0
 13 14  2  0
 15 14  1  0
 16 15  2  0
 17 18  2  0
 17  9  1  0
 20 19  1  1
 20 22  1  0
 20 21  1  0
 21 17  1  0
 22 24  1  0
 23 22  2  0
M  END
$$$$
