PFA.pdb
     RDKit          3D

 24 25  0  0  1  0  0  0  0  0999 V2000
    7.4910  -15.1157   20.5419 N   0  0  0  0  0  0  0  0  0  0  0  0
    6.7049  -14.2130   19.7145 C   0  0  0  0  0  0  0  0  0  0  0  0
    7.6978  -13.1239   19.2823 C   0  0  0  0  0  0  0  0  0  0  0  0
    8.4755  -13.0093   20.6013 C   0  0  0  0  0  0  0  0  0  0  0  0
    8.7185  -14.4850   20.8660 C   0  0  1  0  0  0  0  0  0  0  0  0
    9.1562  -14.6547   22.2599 C   0  0  0  0  0  0  0  0  0  0  0  0
   10.2672  -14.2104   22.6427 O   0  0  0  0  0  0  0  0  0  0  0  0
    8.3425  -15.3202   23.2045 N   0  0  0  0  0  0  0  0  0  0  0  0
    8.6676  -15.4929   24.5932 C   0  0  1  0  0  0  0  0  0  0  0  0
    7.4786  -15.2506   25.4537 C   0  0  0  0  0  0  0  0  0  0  0  0
    7.2939  -13.8071   25.7383 C   0  0  0  0  0  0  0  0  0  0  0  0
    8.3252  -13.0912   26.2996 C   0  0  0  0  0  0  0  0  0  0  0  0
    8.2081  -11.7393   26.5883 C   0  0  0  0  0  0  0  0  0  0  0  0
    7.0145  -11.1202   26.2946 C   0  0  0  0  0  0  0  0  0  0  0  0
    5.9587  -11.7982   25.7335 C   0  0  0  0  0  0  0  0  0  0  0  0
    6.1246  -13.1551   25.4618 C   0  0  0  0  0  0  0  0  0  0  0  0
    9.3455  -16.7796   24.8667 C   0  0  0  0  0  0  0  0  0  0  0  0
    8.6973  -17.8284   24.5793 O   0  0  0  0  0  0  0  0  0  0  0  0
   12.7272  -18.1751   25.3290 C   0  0  0  0  0  0  0  0  0  0  0  0
   11.2262  -18.2309   25.5003 C   0  0  2  0  0  0  0  0  0  0  0  0
   10.6242  -16.9169   25.4083 N   0  0  0  0  0  0  0  0  0  0  0  0
   10.9019  -18.8137   26.8028 C   0  0  0  0  0  0  0  0  0  0  0  0
   10.1876  -18.1738   27.6093 O   0  0  0  0  0  0  0  0  0  0  0  0
   11.3767  -20.0807   27.1680 O   0  0  0  0  0  0  0  0  0  0  0  0
  1  2  1  0
  3  2  1  0
  4  5  1  0
  4  3  1  0
  5  1  1  0
  6  8  1  0
  5  6  1  1
  7  6  2  0
  9  8  1  0
  9 10  1  1
 10 11  1  0
 11 12  2  0
 11 16  1  0
 12 13  1  0
 13 14  2  0
 15 14  1  0
 16 15  2  0
 17 18  2  0
 17  9  1  0
 20 19  1  1
 20 22  1  0
 20 21  1  0
 21 17  1  0
 22 24  1  0
 23 22  2  0
M  END
$$$$
