PFA.pdb
     RDKit          3D

 24 25  0  0  1  0  0  0  0  0999 V2000
    7.7137  -15.2614   19.0910 N   0  0  0  0  0  0  0  0  0  0  0  0
    7.0138  -14.6291   17.9830 C   0  0  0  0  0  0  0  0  0  0  0  0
    7.9715  -13.5299   17.4997 C   0  0  0  0  0  0  0  0  0  0  0  0
    8.4889  -13.0794   18.8734 C   0  0  0  0  0  0  0  0  0  0  0  0
    8.8056  -14.4402   19.4691 C   0  0  1  0  0  0  0  0  0  0  0  0
    9.0006  -14.2931   20.9195 C   0  0  0  0  0  0  0  0  0  0  0  0
   10.0390  -13.7536   21.3765 O   0  0  0  0  0  0  0  0  0  0  0  0
    8.0290  -14.7533   21.8369 N   0  0  0  0  0  0  0  0  0  0  0  0
    8.0836  -14.5586   23.2592 C   0  0  1  0  0  0  0  0  0  0  0  0
    6.7750  -14.0834   23.7834 C   0  0  0  0  0  0  0  0  0  0  0  0
    6.8986  -13.5494   25.1612 C   0  0  0  0  0  0  0  0  0  0  0  0
    7.3444  -12.2623   25.3501 C   0  0  0  0  0  0  0  0  0  0  0  0
    7.4804  -11.7112   26.6159 C   0  0  0  0  0  0  0  0  0  0  0  0
    7.1529  -12.4966   27.6977 C   0  0  0  0  0  0  0  0  0  0  0  0
    6.7036  -13.7877   27.5536 C   0  0  0  0  0  0  0  0  0  0  0  0
    6.5837  -14.2967   26.2617 C   0  0  0  0  0  0  0  0  0  0  0  0
    8.6182  -15.7364   23.9781 C   0  0  0  0  0  0  0  0  0  0  0  0
    7.9751  -16.8182   23.8408 O   0  0  0  0  0  0  0  0  0  0  0  0
   11.7556  -17.1434   25.0207 C   0  0  0  0  0  0  0  0  0  0  0  0
   10.2752  -16.9947   25.2882 C   0  0  2  0  0  0  0  0  0  0  0  0
    9.7594  -15.7399   24.7814 N   0  0  0  0  0  0  0  0  0  0  0  0
   10.0269  -17.0651   26.7287 C   0  0  0  0  0  0  0  0  0  0  0  0
    9.4473  -16.1163   27.3064 O   0  0  0  0  0  0  0  0  0  0  0  0
   10.4264  -18.1794   27.4790 O   0  0  0  0  0  0  0  0  0  0  0  0
  1  2  1  0
  3  2  1  0
  4  5  1  0
  4  3  1  0
  5  1  1  0
  6  8  1  0
  5  6  1  1
  7  6  2  0
  9  8  1  0
  9 10  1  1
 10 11  1  0
 11 12  2  0
 11 16  1  0
 12 13  1  0
 13 14  2  0
 15 14  1  0
 16 15  2  0
 17 18  2  0
 17  9  1  0
 20 19  1  1
 20 22  1  0
 20 21  1  0
 21 17  1  0
 22 24  1  0
 23 22  2  0
M  END
$$$$
