PFA.pdb
     RDKit          3D

 24 25  0  0  1  0  0  0  0  0999 V2000
    7.7178  -15.4048   19.0186 N   0  0  0  0  0  0  0  0  0  0  0  0
    6.9463  -14.8526   17.9153 C   0  0  0  0  0  0  0  0  0  0  0  0
    7.8349  -13.7376   17.3443 C   0  0  0  0  0  0  0  0  0  0  0  0
    8.3882  -13.2046   18.6738 C   0  0  0  0  0  0  0  0  0  0  0  0
    8.7876  -14.5228   19.3136 C   0  0  1  0  0  0  0  0  0  0  0  0
    9.0354  -14.3026   20.7466 C   0  0  0  0  0  0  0  0  0  0  0  0
   10.0784  -13.7207   21.1361 O   0  0  0  0  0  0  0  0  0  0  0  0
    8.1106  -14.7382   21.7225 N   0  0  0  0  0  0  0  0  0  0  0  0
    8.2131  -14.4701   23.1302 C   0  0  1  0  0  0  0  0  0  0  0  0
    6.9618  -13.8553   23.6489 C   0  0  0  0  0  0  0  0  0  0  0  0
    7.1309  -13.3558   25.0348 C   0  0  0  0  0  0  0  0  0  0  0  0
    7.8469  -12.2027   25.2553 C   0  0  0  0  0  0  0  0  0  0  0  0
    8.0379  -11.6900   26.5302 C   0  0  0  0  0  0  0  0  0  0  0  0
    7.4842  -12.3746   27.5881 C   0  0  0  0  0  0  0  0  0  0  0  0
    6.7617  -13.5306   27.4121 C   0  0  0  0  0  0  0  0  0  0  0  0
    6.5972  -14.0061   26.1123 C   0  0  0  0  0  0  0  0  0  0  0  0
    8.6612  -15.6479   23.9061 C   0  0  0  0  0  0  0  0  0  0  0  0
    7.9155  -16.6698   23.8571 O   0  0  0  0  0  0  0  0  0  0  0  0
   11.6955  -17.2301   25.1289 C   0  0  0  0  0  0  0  0  0  0  0  0
   10.2147  -16.9667   25.2816 C   0  0  2  0  0  0  0  0  0  0  0  0
    9.8251  -15.7115   24.6733 N   0  0  0  0  0  0  0  0  0  0  0  0
    9.8651  -16.9367   26.7023 C   0  0  0  0  0  0  0  0  0  0  0  0
    9.3150  -15.9198   27.1854 O   0  0  0  0  0  0  0  0  0  0  0  0
   10.1346  -18.0291   27.5379 O   0  0  0  0  0  0  0  0  0  0  0  0
  1  2  1  0
  3  2  1  0
  4  5  1  0
  4  3  1  0
  5  1  1  0
  6  8  1  0
  5  6  1  1
  7  6  2  0
  9  8  1  0
  9 10  1  1
 10 11  1  0
 11 12  2  0
 11 16  1  0
 12 13  1  0
 13 14  2  0
 15 14  1  0
 16 15  2  0
 17 18  2  0
 17  9  1  0
 20 19  1  1
 20 22  1  0
 20 21  1  0
 21 17  1  0
 22 24  1  0
 23 22  2  0
M  END
$$$$
