PFA.pdb
     RDKit          3D

 24 25  0  0  1  0  0  0  0  0999 V2000
    7.4351  -14.9813   20.1879 N   0  0  0  0  0  0  0  0  0  0  0  0
    6.6277  -14.1055   19.3522 C   0  0  0  0  0  0  0  0  0  0  0  0
    7.5614  -12.9365   19.0050 C   0  0  0  0  0  0  0  0  0  0  0  0
    8.2663  -12.8162   20.3638 C   0  0  0  0  0  0  0  0  0  0  0  0
    8.5990  -14.2804   20.5924 C   0  0  1  0  0  0  0  0  0  0  0  0
    8.9815  -14.4693   22.0001 C   0  0  0  0  0  0  0  0  0  0  0  0
   10.0753  -14.0286   22.4331 O   0  0  0  0  0  0  0  0  0  0  0  0
    8.1324  -15.1498   22.9019 N   0  0  0  0  0  0  0  0  0  0  0  0
    8.4171  -15.3693   24.2929 C   0  0  1  0  0  0  0  0  0  0  0  0
    7.1890  -15.2201   25.1190 C   0  0  0  0  0  0  0  0  0  0  0  0
    7.0744  -13.8554   25.6877 C   0  0  0  0  0  0  0  0  0  0  0  0
    8.2159  -13.1490   25.9859 C   0  0  0  0  0  0  0  0  0  0  0  0
    8.1686  -11.8698   26.5205 C   0  0  0  0  0  0  0  0  0  0  0  0
    6.9304  -11.3140   26.7496 C   0  0  0  0  0  0  0  0  0  0  0  0
    5.7649  -11.9852   26.4662 C   0  0  0  0  0  0  0  0  0  0  0  0
    5.8640  -13.2680   25.9302 C   0  0  0  0  0  0  0  0  0  0  0  0
    9.1451  -16.6347   24.5355 C   0  0  0  0  0  0  0  0  0  0  0  0
    8.5031  -17.7033   24.3151 O   0  0  0  0  0  0  0  0  0  0  0  0
   12.5285  -18.0063   24.6254 C   0  0  0  0  0  0  0  0  0  0  0  0
   11.0896  -18.0340   25.0884 C   0  0  2  0  0  0  0  0  0  0  0  0
   10.4639  -16.7323   24.9812 N   0  0  0  0  0  0  0  0  0  0  0  0
   11.0303  -18.4781   26.4814 C   0  0  0  0  0  0  0  0  0  0  0  0
   11.5654  -19.5621   26.8113 O   0  0  0  0  0  0  0  0  0  0  0  0
   10.3836  -17.7106   27.4596 O   0  0  0  0  0  0  0  0  0  0  0  0
  1  2  1  0
  3  2  1  0
  4  5  1  0
  4  3  1  0
  5  1  1  0
  6  8  1  0
  5  6  1  1
  7  6  2  0
  9  8  1  0
  9 10  1  1
 10 11  1  0
 11 12  2  0
 11 16  1  0
 12 13  1  0
 13 14  2  0
 15 14  1  0
 16 15  2  0
 17 18  2  0
 17  9  1  0
 20 19  1  1
 20 22  1  0
 20 21  1  0
 21 17  1  0
 22 24  1  0
 23 22  2  0
M  END
$$$$
