PFA.pdb
     RDKit          3D

 24 25  0  0  1  0  0  0  0  0999 V2000
    7.8772  -15.3707   18.9918 N   0  0  0  0  0  0  0  0  0  0  0  0
    7.1698  -14.8782   17.8195 C   0  0  0  0  0  0  0  0  0  0  0  0
    8.0452  -13.7300   17.2958 C   0  0  0  0  0  0  0  0  0  0  0  0
    8.4640  -13.1459   18.6527 C   0  0  0  0  0  0  0  0  0  0  0  0
    8.8755  -14.4304   19.3507 C   0  0  1  0  0  0  0  0  0  0  0  0
    8.9973  -14.1723   20.7936 C   0  0  0  0  0  0  0  0  0  0  0  0
    9.9619  -13.5080   21.2479 O   0  0  0  0  0  0  0  0  0  0  0  0
    8.0363  -14.6629   21.7064 N   0  0  0  0  0  0  0  0  0  0  0  0
    8.0739  -14.4598   23.1281 C   0  0  1  0  0  0  0  0  0  0  0  0
    6.8156  -13.8298   23.6106 C   0  0  0  0  0  0  0  0  0  0  0  0
    6.9333  -13.3806   25.0188 C   0  0  0  0  0  0  0  0  0  0  0  0
    6.3363  -14.1163   26.0154 C   0  0  0  0  0  0  0  0  0  0  0  0
    6.4127  -13.7430   27.3493 C   0  0  0  0  0  0  0  0  0  0  0  0
    7.1126  -12.5986   27.6576 C   0  0  0  0  0  0  0  0  0  0  0  0
    7.7241  -11.8343   26.6927 C   0  0  0  0  0  0  0  0  0  0  0  0
    7.6191  -12.2503   25.3667 C   0  0  0  0  0  0  0  0  0  0  0  0
    8.4474  -15.6837   23.8715 C   0  0  0  0  0  0  0  0  0  0  0  0
    7.6733  -16.6771   23.7435 O   0  0  0  0  0  0  0  0  0  0  0  0
   11.1746  -17.6720   24.6177 C   0  0  0  0  0  0  0  0  0  0  0  0
    9.9098  -17.1171   25.2323 C   0  0  2  0  0  0  0  0  0  0  0  0
    9.5710  -15.8184   24.6881 N   0  0  0  0  0  0  0  0  0  0  0  0
   10.0791  -16.9974   26.6809 C   0  0  0  0  0  0  0  0  0  0  0  0
    9.9805  -15.8741   27.2273 O   0  0  0  0  0  0  0  0  0  0  0  0
   10.3506  -18.1207   27.4737 O   0  0  0  0  0  0  0  0  0  0  0  0
  1  2  1  0
  3  2  1  0
  4  5  1  0
  4  3  1  0
  5  1  1  0
  6  8  1  0
  5  6  1  1
  7  6  2  0
  9  8  1  0
  9 10  1  1
 10 11  1  0
 11 12  2  0
 11 16  1  0
 12 13  1  0
 13 14  2  0
 15 14  1  0
 16 15  2  0
 17 18  2  0
 17  9  1  0
 20 19  1  6
 20 22  1  0
 20 21  1  0
 21 17  1  0
 22 24  1  0
 23 22  2  0
M  END
$$$$
