PFA.pdb
     RDKit          3D

 24 25  0  0  1  0  0  0  0  0999 V2000
    7.4646  -15.1303   20.2594 N   0  0  0  0  0  0  0  0  0  0  0  0
    6.6578  -14.2988   19.3789 C   0  0  0  0  0  0  0  0  0  0  0  0
    7.5896  -13.1455   18.9781 C   0  0  0  0  0  0  0  0  0  0  0  0
    8.2891  -12.9567   20.3320 C   0  0  0  0  0  0  0  0  0  0  0  0
    8.6250  -14.4070   20.6332 C   0  0  1  0  0  0  0  0  0  0  0  0
    9.0028  -14.5256   22.0497 C   0  0  0  0  0  0  0  0  0  0  0  0
   10.1089  -14.0919   22.4579 O   0  0  0  0  0  0  0  0  0  0  0  0
    8.1354  -15.1289   22.9883 N   0  0  0  0  0  0  0  0  0  0  0  0
    8.4475  -15.3494   24.3732 C   0  0  1  0  0  0  0  0  0  0  0  0
    7.2354  -15.2033   25.2232 C   0  0  0  0  0  0  0  0  0  0  0  0
    7.1423  -13.8470   25.8152 C   0  0  0  0  0  0  0  0  0  0  0  0
    5.9052  -13.2849   26.0264 C   0  0  0  0  0  0  0  0  0  0  0  0
    5.7582  -12.0195   26.5759 C   0  0  0  0  0  0  0  0  0  0  0  0
    6.8998  -11.3274   26.9107 C   0  0  0  0  0  0  0  0  0  0  0  0
    8.1554  -11.8520   26.7164 C   0  0  0  0  0  0  0  0  0  0  0  0
    8.2515  -13.1268   26.1614 C   0  0  0  0  0  0  0  0  0  0  0  0
    9.1823  -16.6138   24.6001 C   0  0  0  0  0  0  0  0  0  0  0  0
    8.5974  -17.6764   24.2376 O   0  0  0  0  0  0  0  0  0  0  0  0
   12.5839  -17.8841   24.8657 C   0  0  0  0  0  0  0  0  0  0  0  0
   11.1173  -18.0013   25.2131 C   0  0  2  0  0  0  0  0  0  0  0  0
   10.4501  -16.7164   25.1743 N   0  0  0  0  0  0  0  0  0  0  0  0
   10.9738  -18.5726   26.5526 C   0  0  0  0  0  0  0  0  0  0  0  0
   11.5071  -19.6749   26.8183 O   0  0  0  0  0  0  0  0  0  0  0  0
   10.2479  -17.9074   27.5499 O   0  0  0  0  0  0  0  0  0  0  0  0
  1  2  1  0
  3  2  1  0
  4  5  1  0
  4  3  1  0
  5  1  1  0
  6  8  1  0
  5  6  1  1
  7  6  2  0
  9  8  1  0
  9 10  1  1
 10 11  1  0
 11 12  2  0
 11 16  1  0
 12 13  1  0
 13 14  2  0
 15 14  1  0
 16 15  2  0
 17 18  2  0
 17  9  1  0
 20 19  1  1
 20 22  1  0
 20 21  1  0
 21 17  1  0
 22 24  1  0
 23 22  2  0
M  END
$$$$
