PFA.pdb
     RDKit          3D

 24 25  0  0  1  0  0  0  0  0999 V2000
    7.6393  -15.1478   20.0399 N   0  0  0  0  0  0  0  0  0  0  0  0
    6.7951  -14.3877   19.1305 C   0  0  0  0  0  0  0  0  0  0  0  0
    7.6159  -13.1316   18.8024 C   0  0  0  0  0  0  0  0  0  0  0  0
    8.2173  -12.9003   20.1961 C   0  0  0  0  0  0  0  0  0  0  0  0
    8.6925  -14.3126   20.4903 C   0  0  1  0  0  0  0  0  0  0  0  0
    9.0047  -14.4229   21.9234 C   0  0  0  0  0  0  0  0  0  0  0  0
   10.0391  -13.8912   22.3981 O   0  0  0  0  0  0  0  0  0  0  0  0
    8.1529  -15.1278   22.8036 N   0  0  0  0  0  0  0  0  0  0  0  0
    8.4034  -15.3309   24.2036 C   0  0  1  0  0  0  0  0  0  0  0  0
    7.1649  -15.1284   25.0022 C   0  0  0  0  0  0  0  0  0  0  0  0
    7.1601  -13.8095   25.6800 C   0  0  0  0  0  0  0  0  0  0  0  0
    5.9722  -13.1352   25.8389 C   0  0  0  0  0  0  0  0  0  0  0  0
    5.9083  -11.8983   26.4638 C   0  0  0  0  0  0  0  0  0  0  0  0
    7.0827  -11.3519   26.9295 C   0  0  0  0  0  0  0  0  0  0  0  0
    8.2913  -11.9919   26.7914 C   0  0  0  0  0  0  0  0  0  0  0  0
    8.3041  -13.2326   26.1565 C   0  0  0  0  0  0  0  0  0  0  0  0
    9.0861  -16.6139   24.4828 C   0  0  0  0  0  0  0  0  0  0  0  0
    8.3709  -17.6565   24.4190 O   0  0  0  0  0  0  0  0  0  0  0  0
   12.4296  -18.1356   24.4433 C   0  0  0  0  0  0  0  0  0  0  0  0
   11.0057  -18.0780   24.9479 C   0  0  2  0  0  0  0  0  0  0  0  0
   10.4366  -16.7539   24.8052 N   0  0  0  0  0  0  0  0  0  0  0  0
   10.9688  -18.4632   26.3592 C   0  0  0  0  0  0  0  0  0  0  0  0
   11.4140  -19.5806   26.7101 O   0  0  0  0  0  0  0  0  0  0  0  0
   10.4425  -17.6020   27.3316 O   0  0  0  0  0  0  0  0  0  0  0  0
  1  2  1  0
  3  2  1  0
  4  5  1  0
  4  3  1  0
  5  1  1  0
  6  8  1  0
  5  6  1  1
  7  6  2  0
  9  8  1  0
  9 10  1  1
 10 11  1  0
 11 12  2  0
 11 16  1  0
 12 13  1  0
 13 14  2  0
 15 14  1  0
 16 15  2  0
 17 18  2  0
 17  9  1  0
 20 19  1  1
 20 22  1  0
 20 21  1  0
 21 17  1  0
 22 24  1  0
 23 22  2  0
M  END
$$$$
