PFA.pdb
     RDKit          3D

 24 25  0  0  1  0  0  0  0  0999 V2000
    7.8605  -15.6892   19.2708 N   0  0  0  0  0  0  0  0  0  0  0  0
    7.1797  -15.1984   18.0821 C   0  0  0  0  0  0  0  0  0  0  0  0
    8.1423  -14.1590   17.4887 C   0  0  0  0  0  0  0  0  0  0  0  0
    8.6313  -13.5442   18.8080 C   0  0  0  0  0  0  0  0  0  0  0  0
    8.9417  -14.8218   19.5682 C   0  0  1  0  0  0  0  0  0  0  0  0
    9.1080  -14.5011   20.9939 C   0  0  0  0  0  0  0  0  0  0  0  0
   10.1450  -13.9235   21.4055 O   0  0  0  0  0  0  0  0  0  0  0  0
    8.1098  -14.8326   21.9379 N   0  0  0  0  0  0  0  0  0  0  0  0
    8.1370  -14.4656   23.3266 C   0  0  1  0  0  0  0  0  0  0  0  0
    6.8472  -13.8516   23.7416 C   0  0  0  0  0  0  0  0  0  0  0  0
    6.9048  -13.3458   25.1344 C   0  0  0  0  0  0  0  0  0  0  0  0
    7.5436  -12.1565   25.3960 C   0  0  0  0  0  0  0  0  0  0  0  0
    7.6292  -11.6362   26.6791 C   0  0  0  0  0  0  0  0  0  0  0  0
    7.0494  -12.3508   27.7027 C   0  0  0  0  0  0  0  0  0  0  0  0
    6.4015  -13.5434   27.4851 C   0  0  0  0  0  0  0  0  0  0  0  0
    6.3420  -14.0251   26.1786 C   0  0  0  0  0  0  0  0  0  0  0  0
    8.5753  -15.5745   24.2032 C   0  0  0  0  0  0  0  0  0  0  0  0
    7.8507  -16.6126   24.2010 O   0  0  0  0  0  0  0  0  0  0  0  0
   11.7727  -16.8756   25.1509 C   0  0  0  0  0  0  0  0  0  0  0  0
   10.2937  -16.8079   25.4566 C   0  0  2  0  0  0  0  0  0  0  0  0
    9.7092  -15.5580   25.0165 N   0  0  0  0  0  0  0  0  0  0  0  0
   10.0828  -16.9515   26.8975 C   0  0  0  0  0  0  0  0  0  0  0  0
   10.5690  -17.9357   27.5016 O   0  0  0  0  0  0  0  0  0  0  0  0
    9.3439  -16.0044   27.6195 O   0  0  0  0  0  0  0  0  0  0  0  0
  1  2  1  0
  3  2  1  0
  4  5  1  0
  4  3  1  0
  5  1  1  0
  6  8  1  0
  5  6  1  1
  7  6  2  0
  9  8  1  0
  9 10  1  1
 10 11  1  0
 11 12  2  0
 11 16  1  0
 12 13  1  0
 13 14  2  0
 15 14  1  0
 16 15  2  0
 17 18  2  0
 17  9  1  0
 20 19  1  1
 20 22  1  0
 20 21  1  0
 21 17  1  0
 22 24  1  0
 23 22  2  0
M  END
$$$$
