PFA.pdb
     RDKit          3D

 24 25  0  0  1  0  0  0  0  0999 V2000
    7.4816  -14.9045   20.3541 N   0  0  0  0  0  0  0  0  0  0  0  0
    6.6984  -13.9908   19.5362 C   0  0  0  0  0  0  0  0  0  0  0  0
    7.6794  -12.8687   19.1653 C   0  0  0  0  0  0  0  0  0  0  0  0
    8.4210  -12.7824   20.5071 C   0  0  0  0  0  0  0  0  0  0  0  0
    8.6874  -14.2609   20.7301 C   0  0  1  0  0  0  0  0  0  0  0  0
    9.0932  -14.4676   22.1286 C   0  0  0  0  0  0  0  0  0  0  0  0
   10.2141  -14.0740   22.5370 O   0  0  0  0  0  0  0  0  0  0  0  0
    8.2367  -15.1128   23.0492 N   0  0  0  0  0  0  0  0  0  0  0  0
    8.5592  -15.3816   24.4232 C   0  0  1  0  0  0  0  0  0  0  0  0
    7.3571  -15.2491   25.2892 C   0  0  0  0  0  0  0  0  0  0  0  0
    7.2282  -13.8787   25.8409 C   0  0  0  0  0  0  0  0  0  0  0  0
    8.3502  -13.2218   26.2888 C   0  0  0  0  0  0  0  0  0  0  0  0
    8.2889  -11.9398   26.8152 C   0  0  0  0  0  0  0  0  0  0  0  0
    7.0569  -11.3295   26.8799 C   0  0  0  0  0  0  0  0  0  0  0  0
    5.9107  -11.9501   26.4434 C   0  0  0  0  0  0  0  0  0  0  0  0
    6.0234  -13.2379   25.9225 C   0  0  0  0  0  0  0  0  0  0  0  0
    9.2810  -16.6611   24.6020 C   0  0  0  0  0  0  0  0  0  0  0  0
    8.6427  -17.7128   24.3033 O   0  0  0  0  0  0  0  0  0  0  0  0
   12.6590  -18.0561   24.7116 C   0  0  0  0  0  0  0  0  0  0  0  0
   11.2057  -18.0986   25.1256 C   0  0  2  0  0  0  0  0  0  0  0  0
   10.5903  -16.7888   25.0675 N   0  0  0  0  0  0  0  0  0  0  0  0
   11.0987  -18.6154   26.4905 C   0  0  0  0  0  0  0  0  0  0  0  0
   11.6291  -19.7123   26.7829 O   0  0  0  0  0  0  0  0  0  0  0  0
   10.4111  -17.9035   27.4828 O   0  0  0  0  0  0  0  0  0  0  0  0
  1  2  1  0
  3  2  1  0
  4  5  1  0
  4  3  1  0
  5  1  1  0
  6  8  1  0
  5  6  1  1
  7  6  2  0
  9  8  1  0
  9 10  1  1
 10 11  1  0
 11 12  2  0
 11 16  1  0
 12 13  1  0
 13 14  2  0
 15 14  1  0
 16 15  2  0
 17 18  2  0
 17  9  1  0
 20 19  1  1
 20 22  1  0
 20 21  1  0
 21 17  1  0
 22 24  1  0
 23 22  2  0
M  END
$$$$
