PFA.pdb
     RDKit          3D

 24 25  0  0  1  0  0  0  0  0999 V2000
    7.6894  -15.3470   19.1722 N   0  0  0  0  0  0  0  0  0  0  0  0
    6.9498  -14.7636   18.0632 C   0  0  0  0  0  0  0  0  0  0  0  0
    7.8585  -13.6400   17.5431 C   0  0  0  0  0  0  0  0  0  0  0  0
    8.3796  -13.1428   18.8992 C   0  0  0  0  0  0  0  0  0  0  0  0
    8.7556  -14.4786   19.5166 C   0  0  1  0  0  0  0  0  0  0  0  0
    8.9670  -14.2950   20.9605 C   0  0  0  0  0  0  0  0  0  0  0  0
    9.9766  -13.6824   21.3890 O   0  0  0  0  0  0  0  0  0  0  0  0
    8.0438  -14.8009   21.9034 N   0  0  0  0  0  0  0  0  0  0  0  0
    8.1059  -14.5708   23.3202 C   0  0  1  0  0  0  0  0  0  0  0  0
    6.7996  -14.0841   23.8394 C   0  0  0  0  0  0  0  0  0  0  0  0
    6.9204  -13.5622   25.2222 C   0  0  0  0  0  0  0  0  0  0  0  0
    7.3140  -12.2598   25.4214 C   0  0  0  0  0  0  0  0  0  0  0  0
    7.4449  -11.7189   26.6922 C   0  0  0  0  0  0  0  0  0  0  0  0
    7.1667  -12.5308   27.7682 C   0  0  0  0  0  0  0  0  0  0  0  0
    6.7704  -13.8379   27.6138 C   0  0  0  0  0  0  0  0  0  0  0  0
    6.6534  -14.3357   26.3173 C   0  0  0  0  0  0  0  0  0  0  0  0
    8.6457  -15.7300   24.0652 C   0  0  0  0  0  0  0  0  0  0  0  0
    8.0437  -16.8318   23.9032 O   0  0  0  0  0  0  0  0  0  0  0  0
   11.7504  -17.0887   25.1840 C   0  0  0  0  0  0  0  0  0  0  0  0
   10.2729  -16.9314   25.4629 C   0  0  2  0  0  0  0  0  0  0  0  0
    9.7501  -15.6958   24.9175 N   0  0  0  0  0  0  0  0  0  0  0  0
   10.0410  -16.9506   26.9076 C   0  0  0  0  0  0  0  0  0  0  0  0
    9.5013  -15.9658   27.4634 O   0  0  0  0  0  0  0  0  0  0  0  0
   10.4124  -18.0551   27.6863 O   0  0  0  0  0  0  0  0  0  0  0  0
  1  2  1  0
  3  2  1  0
  4  5  1  0
  4  3  1  0
  5  1  1  0
  6  8  1  0
  5  6  1  1
  7  6  2  0
  9  8  1  0
  9 10  1  1
 10 11  1  0
 11 12  2  0
 11 16  1  0
 12 13  1  0
 13 14  2  0
 15 14  1  0
 16 15  2  0
 17 18  2  0
 17  9  1  0
 20 19  1  1
 20 22  1  0
 20 21  1  0
 21 17  1  0
 22 24  1  0
 23 22  2  0
M  END
$$$$
