GPK.pdb
     RDKit          3D

 21 21  0  0  1  0  0  0  0  0999 V2000
    4.5854  -17.7436   19.4358 N   0  0  0  0  0  0  0  0  0  0  0  0
    5.0963  -16.4789   19.8612 C   0  0  0  0  0  0  0  0  0  0  0  0
    6.5441  -16.4047   20.0471 C   0  0  0  0  0  0  0  0  0  0  0  0
    7.2058  -17.4483   19.8228 O   0  0  0  0  0  0  0  0  0  0  0  0
    7.2011  -15.2334   20.4571 N   0  0  0  0  0  0  0  0  0  0  0  0
    6.4566  -13.9976   20.7518 C   0  0  0  0  0  0  0  0  0  0  0  0
    7.3325  -12.8866   20.2670 C   0  0  0  0  0  0  0  0  0  0  0  0
    8.7223  -13.4242   20.3382 C   0  0  0  0  0  0  0  0  0  0  0  0
    8.5696  -14.8877   20.6922 C   0  0  1  0  0  0  0  0  0  0  0  0
    8.7906  -15.0021   22.1805 C   0  0  0  0  0  0  0  0  0  0  0  0
    7.9616  -14.5850   23.0206 O   0  0  0  0  0  0  0  0  0  0  0  0
    9.9675  -15.5976   22.6683 N   0  0  0  0  0  0  0  0  0  0  0  0
    9.9951  -16.1301   24.0167 C   0  0  1  0  0  0  0  0  0  0  0  0
    9.6868  -17.6226   23.8229 C   0  0  0  0  0  0  0  0  0  0  0  0
    8.3772  -18.0046   24.4058 C   0  0  0  0  0  0  0  0  0  0  0  0
    8.1689  -19.4957   24.0958 C   0  0  0  0  0  0  0  0  0  0  0  0
    6.7277  -19.7889   24.5229 C   0  0  0  0  0  0  0  0  0  0  0  0
    6.5042  -21.2017   24.2966 N   0  0  0  0  0  0  0  0  0  0  0  0
   11.2667  -15.8897   24.6914 C   0  0  0  0  0  0  0  0  0  0  0  0
   12.3275  -15.7398   24.0439 O   0  0  0  0  0  0  0  0  0  0  0  0
   11.3143  -15.8227   26.0654 O   0  0  0  0  0  0  0  0  0  0  0  0
  1  2  1  0
  3  2  1  0
  3  4  2  0
  5  3  1  0
  6  5  1  0
  7  8  1  0
  7  6  1  0
  8  9  1  0
  9  5  1  0
  9 10  1  1
 10 11  2  0
 12 10  1  0
 12 13  1  0
 13 14  1  6
 14 15  1  0
 15 16  1  0
 16 17  1  0
 18 17  1  0
 19 13  1  0
 19 21  1  0
 20 19  2  0
M  END
$$$$
