GPK.pdb
     RDKit          3D

 21 21  0  0  1  0  0  0  0  0999 V2000
    9.0875  -17.0515   16.6344 N   0  0  0  0  0  0  0  0  0  0  0  0
    8.3480  -16.1455   17.4552 C   0  0  0  0  0  0  0  0  0  0  0  0
    8.9427  -15.8276   18.7519 C   0  0  0  0  0  0  0  0  0  0  0  0
    9.9576  -16.4834   19.0941 O   0  0  0  0  0  0  0  0  0  0  0  0
    8.4287  -14.8370   19.6041 N   0  0  0  0  0  0  0  0  0  0  0  0
    7.1596  -14.1514   19.3081 C   0  0  0  0  0  0  0  0  0  0  0  0
    7.3618  -12.7396   19.7581 C   0  0  0  0  0  0  0  0  0  0  0  0
    8.3920  -12.8155   20.8345 C   0  0  0  0  0  0  0  0  0  0  0  0
    8.8700  -14.2515   20.8330 C   0  0  1  0  0  0  0  0  0  0  0  0
    8.1249  -14.9607   21.9370 C   0  0  0  0  0  0  0  0  0  0  0  0
    6.9311  -15.3201   21.8239 O   0  0  0  0  0  0  0  0  0  0  0  0
    8.7761  -15.2404   23.1516 N   0  0  0  0  0  0  0  0  0  0  0  0
    8.1143  -16.0620   24.1465 C   0  0  1  0  0  0  0  0  0  0  0  0
    9.2700  -16.5754   25.0189 C   0  0  0  0  0  0  0  0  0  0  0  0
    9.6897  -17.9475   24.6422 C   0  0  0  0  0  0  0  0  0  0  0  0
   10.9217  -18.2874   25.4963 C   0  0  0  0  0  0  0  0  0  0  0  0
   11.2469  -19.7447   25.1558 C   0  0  0  0  0  0  0  0  0  0  0  0
   12.4509  -20.0853   25.8849 N   0  0  0  0  0  0  0  0  0  0  0  0
    7.1062  -15.3271   24.9038 C   0  0  0  0  0  0  0  0  0  0  0  0
    7.1186  -14.0766   24.9588 O   0  0  0  0  0  0  0  0  0  0  0  0
    6.1164  -16.0097   25.5738 O   0  0  0  0  0  0  0  0  0  0  0  0
  1  2  1  0
  3  2  1  0
  3  4  2  0
  5  3  1  0
  6  5  1  0
  7  8  1  0
  7  6  1  0
  8  9  1  0
  9  5  1  0
  9 10  1  1
 10 11  2  0
 12 10  1  0
 12 13  1  0
 13 14  1  1
 14 15  1  0
 15 16  1  0
 16 17  1  0
 18 17  1  0
 19 13  1  0
 19 21  1  0
 20 19  2  0
M  END
$$$$
