GPK.pdb
     RDKit          3D

 21 21  0  0  1  0  0  0  0  0999 V2000
    7.4971  -17.1754   16.2741 N   0  0  0  0  0  0  0  0  0  0  0  0
    7.2082  -16.2411   17.3158 C   0  0  0  0  0  0  0  0  0  0  0  0
    8.3387  -15.8517   18.1562 C   0  0  0  0  0  0  0  0  0  0  0  0
    9.4541  -16.3648   17.8917 O   0  0  0  0  0  0  0  0  0  0  0  0
    8.2199  -14.9448   19.2215 N   0  0  0  0  0  0  0  0  0  0  0  0
    6.9124  -14.4018   19.6267 C   0  0  0  0  0  0  0  0  0  0  0  0
    7.1820  -12.9863   20.0267 C   0  0  0  0  0  0  0  0  0  0  0  0
    8.6085  -12.9677   20.4633 C   0  0  0  0  0  0  0  0  0  0  0  0
    9.1505  -14.3395   20.1246 C   0  0  1  0  0  0  0  0  0  0  0  0
    9.1051  -15.1527   21.3949 C   0  0  0  0  0  0  0  0  0  0  0  0
    8.0584  -15.6999   21.8097 O   0  0  0  0  0  0  0  0  0  0  0  0
   10.2726  -15.3169   22.1614 N   0  0  0  0  0  0  0  0  0  0  0  0
   10.4636  -16.5356   22.9235 C   0  0  1  0  0  0  0  0  0  0  0  0
   11.7364  -17.1460   22.3173 C   0  0  0  0  0  0  0  0  0  0  0  0
   12.1027  -18.4315   22.9607 C   0  0  0  0  0  0  0  0  0  0  0  0
   13.3366  -18.9671   22.2167 C   0  0  0  0  0  0  0  0  0  0  0  0
   13.6858  -20.2784   22.9265 C   0  0  0  0  0  0  0  0  0  0  0  0
   14.7765  -20.8769   22.1852 N   0  0  0  0  0  0  0  0  0  0  0  0
   10.5713  -16.2917   24.3584 C   0  0  0  0  0  0  0  0  0  0  0  0
   10.8651  -15.1597   24.8047 O   0  0  0  0  0  0  0  0  0  0  0  0
   10.3464  -17.3169   25.2490 O   0  0  0  0  0  0  0  0  0  0  0  0
  1  2  1  0
  3  2  1  0
  3  4  2  0
  5  3  1  0
  6  5  1  0
  7  8  1  0
  7  6  1  0
  8  9  1  0
  9  5  1  0
  9 10  1  1
 10 11  2  0
 12 10  1  0
 12 13  1  0
 13 14  1  6
 14 15  1  0
 15 16  1  0
 16 17  1  0
 18 17  1  0
 19 13  1  0
 19 21  1  0
 20 19  2  0
M  END
$$$$
