GPK.pdb
     RDKit          3D

 21 21  0  0  1  0  0  0  0  0999 V2000
    9.3169  -16.9213   16.6076 N   0  0  0  0  0  0  0  0  0  0  0  0
    8.4734  -16.1868   17.4967 C   0  0  0  0  0  0  0  0  0  0  0  0
    9.0572  -15.8406   18.7910 C   0  0  0  0  0  0  0  0  0  0  0  0
   10.1314  -16.4096   19.1068 O   0  0  0  0  0  0  0  0  0  0  0  0
    8.4705  -14.9151   19.6690 N   0  0  0  0  0  0  0  0  0  0  0  0
    7.1914  -14.2583   19.3511 C   0  0  0  0  0  0  0  0  0  0  0  0
    7.3220  -12.8666   19.8826 C   0  0  0  0  0  0  0  0  0  0  0  0
    8.3059  -12.9648   20.9998 C   0  0  0  0  0  0  0  0  0  0  0  0
    8.8356  -14.3815   20.9456 C   0  0  1  0  0  0  0  0  0  0  0  0
    8.0690  -15.1738   21.9760 C   0  0  0  0  0  0  0  0  0  0  0  0
    6.9175  -15.6180   21.7671 O   0  0  0  0  0  0  0  0  0  0  0  0
    8.6501  -15.4367   23.2293 N   0  0  0  0  0  0  0  0  0  0  0  0
    8.1457  -16.5298   24.0375 C   0  0  1  0  0  0  0  0  0  0  0  0
    9.3203  -16.8623   24.9703 C   0  0  0  0  0  0  0  0  0  0  0  0
    8.9887  -17.9501   25.9230 C   0  0  0  0  0  0  0  0  0  0  0  0
   10.2140  -18.1353   26.8325 C   0  0  0  0  0  0  0  0  0  0  0  0
    9.8425  -19.2943   27.7622 C   0  0  0  0  0  0  0  0  0  0  0  0
   10.9387  -19.4486   28.6958 N   0  0  0  0  0  0  0  0  0  0  0  0
    6.9234  -16.1823   24.7553 C   0  0  0  0  0  0  0  0  0  0  0  0
    6.6350  -14.9907   25.0083 O   0  0  0  0  0  0  0  0  0  0  0  0
    6.0618  -17.1739   25.1664 O   0  0  0  0  0  0  0  0  0  0  0  0
  1  2  1  0
  3  2  1  0
  3  4  2  0
  5  3  1  0
  6  5  1  0
  7  8  1  0
  7  6  1  0
  8  9  1  0
  9  5  1  0
  9 10  1  1
 10 11  2  0
 12 10  1  0
 12 13  1  0
 13 14  1  1
 14 15  1  0
 15 16  1  0
 16 17  1  0
 18 17  1  0
 19 13  1  0
 19 21  1  0
 20 19  2  0
M  END
$$$$
