GPK.pdb
     RDKit          3D

 21 21  0  0  1  0  0  0  0  0999 V2000
    7.9431  -17.3969   16.8120 N   0  0  0  0  0  0  0  0  0  0  0  0
    7.4961  -16.5028   17.8328 C   0  0  0  0  0  0  0  0  0  0  0  0
    8.5270  -16.0029   18.7403 C   0  0  0  0  0  0  0  0  0  0  0  0
    9.6760  -16.4982   18.6322 O   0  0  0  0  0  0  0  0  0  0  0  0
    8.2794  -15.0115   19.7033 N   0  0  0  0  0  0  0  0  0  0  0  0
    6.9419  -14.4183   19.8695 C   0  0  0  0  0  0  0  0  0  0  0  0
    7.1882  -12.9793   20.1938 C   0  0  0  0  0  0  0  0  0  0  0  0
    8.5365  -12.9469   20.8316 C   0  0  0  0  0  0  0  0  0  0  0  0
    9.0853  -14.3495   20.6832 C   0  0  1  0  0  0  0  0  0  0  0  0
    8.8350  -15.0569   21.9924 C   0  0  0  0  0  0  0  0  0  0  0  0
    7.7353  -15.5831   22.2765 O   0  0  0  0  0  0  0  0  0  0  0  0
    9.8630  -15.1419   22.9482 N   0  0  0  0  0  0  0  0  0  0  0  0
   10.0574  -16.3766   23.6832 C   0  0  1  0  0  0  0  0  0  0  0  0
   10.9510  -17.2135   22.7552 C   0  0  0  0  0  0  0  0  0  0  0  0
   11.3256  -18.5145   23.3615 C   0  0  0  0  0  0  0  0  0  0  0  0
   12.2684  -19.2141   22.3693 C   0  0  0  0  0  0  0  0  0  0  0  0
   12.5769  -20.5709   23.0092 C   0  0  0  0  0  0  0  0  0  0  0  0
   13.5089  -21.2453   22.1295 N   0  0  0  0  0  0  0  0  0  0  0  0
   10.6430  -16.1606   25.0024 C   0  0  0  0  0  0  0  0  0  0  0  0
   10.3602  -16.9047   25.9685 O   0  0  0  0  0  0  0  0  0  0  0  0
   11.5259  -15.1234   25.2015 O   0  0  0  0  0  0  0  0  0  0  0  0
  1  2  1  0
  3  2  1  0
  3  4  2  0
  5  3  1  0
  6  5  1  0
  7  8  1  0
  7  6  1  0
  8  9  1  0
  9  5  1  0
  9 10  1  1
 10 11  2  0
 12 10  1  0
 12 13  1  0
 13 14  1  6
 14 15  1  0
 15 16  1  0
 16 17  1  0
 18 17  1  0
 19 13  1  0
 19 21  1  0
 20 19  2  0
M  END
$$$$
