GPK.pdb
     RDKit          3D

 21 21  0  0  1  0  0  0  0  0999 V2000
    7.5542  -17.0954   16.2323 N   0  0  0  0  0  0  0  0  0  0  0  0
    7.3124  -16.1581   17.2832 C   0  0  0  0  0  0  0  0  0  0  0  0
    8.4956  -15.6711   17.9895 C   0  0  0  0  0  0  0  0  0  0  0  0
    9.6111  -16.1013   17.6049 O   0  0  0  0  0  0  0  0  0  0  0  0
    8.4259  -14.7604   19.0559 N   0  0  0  0  0  0  0  0  0  0  0  0
    7.1387  -14.2130   19.5164 C   0  0  0  0  0  0  0  0  0  0  0  0
    7.4288  -12.7968   19.8994 C   0  0  0  0  0  0  0  0  0  0  0  0
    8.8732  -12.7802   20.2726 C   0  0  0  0  0  0  0  0  0  0  0  0
    9.3967  -14.1544   19.9150 C   0  0  1  0  0  0  0  0  0  0  0  0
    9.4055  -14.9632   21.1890 C   0  0  0  0  0  0  0  0  0  0  0  0
    8.3599  -15.4098   21.7128 O   0  0  0  0  0  0  0  0  0  0  0  0
   10.6248  -15.2398   21.8325 N   0  0  0  0  0  0  0  0  0  0  0  0
   10.7319  -16.3996   22.6962 C   0  0  1  0  0  0  0  0  0  0  0  0
   11.2775  -17.4942   21.7665 C   0  0  0  0  0  0  0  0  0  0  0  0
   11.5208  -18.7693   22.4846 C   0  0  0  0  0  0  0  0  0  0  0  0
   11.9719  -19.7949   21.4322 C   0  0  0  0  0  0  0  0  0  0  0  0
   12.2108  -21.0870   22.2189 C   0  0  0  0  0  0  0  0  0  0  0  0
   12.6903  -22.0708   21.2704 N   0  0  0  0  0  0  0  0  0  0  0  0
   11.5801  -16.1593   23.8593 C   0  0  0  0  0  0  0  0  0  0  0  0
   11.4290  -16.8086   24.9188 O   0  0  0  0  0  0  0  0  0  0  0  0
   12.5701  -15.2045   23.8031 O   0  0  0  0  0  0  0  0  0  0  0  0
  1  2  1  0
  3  2  1  0
  3  4  2  0
  5  3  1  0
  6  5  1  0
  7  8  1  0
  7  6  1  0
  8  9  1  0
  9  5  1  0
  9 10  1  1
 10 11  2  0
 12 10  1  0
 12 13  1  0
 13 14  1  6
 14 15  1  0
 15 16  1  0
 16 17  1  0
 18 17  1  0
 19 13  1  0
 19 21  1  0
 20 19  2  0
M  END
$$$$
