GPK.pdb
     RDKit          3D

 21 21  0  0  1  0  0  0  0  0999 V2000
    7.4431  -17.7254   17.4123 N   0  0  0  0  0  0  0  0  0  0  0  0
    7.3101  -16.5168   18.1626 C   0  0  0  0  0  0  0  0  0  0  0  0
    8.5317  -16.0170   18.7903 C   0  0  0  0  0  0  0  0  0  0  0  0
    9.5329  -16.7751   18.7819 O   0  0  0  0  0  0  0  0  0  0  0  0
    8.6187  -14.7485   19.3860 N   0  0  0  0  0  0  0  0  0  0  0  0
    7.4918  -13.8014   19.3456 C   0  0  0  0  0  0  0  0  0  0  0  0
    8.1185  -12.4517   19.1968 C   0  0  0  0  0  0  0  0  0  0  0  0
    9.4766  -12.5819   19.8003 C   0  0  0  0  0  0  0  0  0  0  0  0
    9.6396  -14.0544   20.1097 C   0  0  1  0  0  0  0  0  0  0  0  0
    9.3214  -14.2305   21.5743 C   0  0  0  0  0  0  0  0  0  0  0  0
    8.2238  -13.8928   22.0724 O   0  0  0  0  0  0  0  0  0  0  0  0
   10.2803  -14.7943   22.4346 N   0  0  0  0  0  0  0  0  0  0  0  0
    9.8472  -15.5934   23.5644 C   0  0  1  0  0  0  0  0  0  0  0  0
    8.9019  -16.6279   22.9349 C   0  0  0  0  0  0  0  0  0  0  0  0
    8.5067  -17.6849   23.8979 C   0  0  0  0  0  0  0  0  0  0  0  0
    7.6023  -18.6670   23.1360 C   0  0  0  0  0  0  0  0  0  0  0  0
    7.2501  -19.7517   24.1582 C   0  0  0  0  0  0  0  0  0  0  0  0
    6.3635  -20.6822   23.4909 N   0  0  0  0  0  0  0  0  0  0  0  0
   10.9617  -16.1988   24.2863 C   0  0  0  0  0  0  0  0  0  0  0  0
   12.0238  -16.5082   23.7006 O   0  0  0  0  0  0  0  0  0  0  0  0
   10.8567  -16.4383   25.6378 O   0  0  0  0  0  0  0  0  0  0  0  0
  1  2  1  0
  3  2  1  0
  3  4  2  0
  5  3  1  0
  6  5  1  0
  7  8  1  0
  7  6  1  0
  8  9  1  0
  9  5  1  0
  9 10  1  1
 10 11  2  0
 12 10  1  0
 12 13  1  0
 13 14  1  6
 14 15  1  0
 15 16  1  0
 16 17  1  0
 18 17  1  0
 19 13  1  0
 19 21  1  0
 20 19  2  0
M  END
$$$$
