GPK.pdb
     RDKit          3D

 21 21  0  0  1  0  0  0  0  0999 V2000
    4.9390  -17.9093   20.1255 N   0  0  0  0  0  0  0  0  0  0  0  0
    5.4661  -16.6070   20.3852 C   0  0  0  0  0  0  0  0  0  0  0  0
    6.8973  -16.4371   20.1425 C   0  0  0  0  0  0  0  0  0  0  0  0
    7.5289  -17.4340   19.7128 O   0  0  0  0  0  0  0  0  0  0  0  0
    7.5703  -15.2255   20.3679 N   0  0  0  0  0  0  0  0  0  0  0  0
    6.8612  -14.0323   20.8595 C   0  0  0  0  0  0  0  0  0  0  0  0
    7.5076  -12.8770   20.1639 C   0  0  0  0  0  0  0  0  0  0  0  0
    8.8945  -13.3320   19.8553 C   0  0  0  0  0  0  0  0  0  0  0  0
    8.9289  -14.7984   20.2283 C   0  0  1  0  0  0  0  0  0  0  0  0
    9.5483  -14.8850   21.6016 C   0  0  0  0  0  0  0  0  0  0  0  0
    8.9046  -14.6492   22.6491 O   0  0  0  0  0  0  0  0  0  0  0  0
   10.9014  -15.2432   21.7364 N   0  0  0  0  0  0  0  0  0  0  0  0
   11.3293  -16.0029   22.8949 C   0  0  1  0  0  0  0  0  0  0  0  0
   10.7709  -17.4097   22.6317 C   0  0  0  0  0  0  0  0  0  0  0  0
   11.2461  -18.3974   23.6314 C   0  0  0  0  0  0  0  0  0  0  0  0
   10.7253  -19.7722   23.1827 C   0  0  0  0  0  0  0  0  0  0  0  0
   11.1700  -20.7400   24.2832 C   0  0  0  0  0  0  0  0  0  0  0  0
   10.5724  -22.0232   23.9775 N   0  0  0  0  0  0  0  0  0  0  0  0
   12.7772  -15.9850   23.0769 C   0  0  0  0  0  0  0  0  0  0  0  0
   13.2988  -16.3068   24.1684 O   0  0  0  0  0  0  0  0  0  0  0  0
   13.5966  -15.6107   22.0361 O   0  0  0  0  0  0  0  0  0  0  0  0
  1  2  1  0
  3  2  1  0
  3  4  2  0
  5  3  1  0
  6  5  1  0
  7  8  1  0
  7  6  1  0
  8  9  1  0
  9  5  1  0
  9 10  1  1
 10 11  2  0
 12 10  1  0
 12 13  1  0
 13 14  1  6
 14 15  1  0
 15 16  1  0
 16 17  1  0
 18 17  1  0
 19 13  1  0
 19 21  1  0
 20 19  2  0
M  END
$$$$
