GPK.pdb
     RDKit          3D

 21 21  0  0  1  0  0  0  0  0999 V2000
    4.9519  -17.9887   20.1168 N   0  0  0  0  0  0  0  0  0  0  0  0
    5.5033  -16.7215   20.4794 C   0  0  0  0  0  0  0  0  0  0  0  0
    6.9176  -16.5270   20.1662 C   0  0  0  0  0  0  0  0  0  0  0  0
    7.5406  -17.5089   19.6918 O   0  0  0  0  0  0  0  0  0  0  0  0
    7.5837  -15.3084   20.3728 N   0  0  0  0  0  0  0  0  0  0  0  0
    6.8856  -14.1345   20.9234 C   0  0  0  0  0  0  0  0  0  0  0  0
    7.4735  -12.9582   20.2111 C   0  0  0  0  0  0  0  0  0  0  0  0
    8.8474  -13.3859   19.8170 C   0  0  0  0  0  0  0  0  0  0  0  0
    8.9255  -14.8571   20.1634 C   0  0  1  0  0  0  0  0  0  0  0  0
    9.6234  -14.9549   21.4977 C   0  0  0  0  0  0  0  0  0  0  0  0
    9.1106  -14.5371   22.5605 O   0  0  0  0  0  0  0  0  0  0  0  0
   10.9020  -15.5348   21.5765 N   0  0  0  0  0  0  0  0  0  0  0  0
   11.4244  -15.9449   22.8655 C   0  0  1  0  0  0  0  0  0  0  0  0
   10.9245  -17.3898   23.0155 C   0  0  0  0  0  0  0  0  0  0  0  0
   11.4498  -18.0401   24.2411 C   0  0  0  0  0  0  0  0  0  0  0  0
   10.9405  -19.4904   24.2298 C   0  0  0  0  0  0  0  0  0  0  0  0
   11.4134  -20.0840   25.5600 C   0  0  0  0  0  0  0  0  0  0  0  0
   10.9484  -21.4550   25.5944 N   0  0  0  0  0  0  0  0  0  0  0  0
   12.8769  -15.8287   22.9475 C   0  0  0  0  0  0  0  0  0  0  0  0
   13.4732  -15.8985   24.0459 O   0  0  0  0  0  0  0  0  0  0  0  0
   13.6174  -15.6402   21.8026 O   0  0  0  0  0  0  0  0  0  0  0  0
  1  2  1  0
  3  2  1  0
  3  4  2  0
  5  3  1  0
  6  5  1  0
  7  8  1  0
  7  6  1  0
  8  9  1  0
  9  5  1  0
  9 10  1  1
 10 11  2  0
 12 10  1  0
 12 13  1  0
 13 14  1  6
 14 15  1  0
 15 16  1  0
 16 17  1  0
 18 17  1  0
 19 13  1  0
 19 21  1  0
 20 19  2  0
M  END
$$$$
