GPK.pdb
     RDKit          3D

 21 21  0  0  1  0  0  0  0  0999 V2000
    7.6804  -17.6925   17.2547 N   0  0  0  0  0  0  0  0  0  0  0  0
    7.3924  -16.4927   17.9751 C   0  0  0  0  0  0  0  0  0  0  0  0
    8.4663  -15.9856   18.8269 C   0  0  0  0  0  0  0  0  0  0  0  0
    9.5054  -16.6852   18.9179 O   0  0  0  0  0  0  0  0  0  0  0  0
    8.3753  -14.7721   19.5274 N   0  0  0  0  0  0  0  0  0  0  0  0
    7.1776  -13.9203   19.4368 C   0  0  0  0  0  0  0  0  0  0  0  0
    7.6914  -12.5161   19.4664 C   0  0  0  0  0  0  0  0  0  0  0  0
    8.9853  -12.5882   20.2055 C   0  0  0  0  0  0  0  0  0  0  0  0
    9.2480  -14.0641   20.4133 C   0  0  1  0  0  0  0  0  0  0  0  0
    8.7960  -14.3948   21.8145 C   0  0  0  0  0  0  0  0  0  0  0  0
    7.6117  -14.2516   22.1938 O   0  0  0  0  0  0  0  0  0  0  0  0
    9.7239  -14.8852   22.7504 N   0  0  0  0  0  0  0  0  0  0  0  0
    9.2662  -15.7243   23.8408 C   0  0  1  0  0  0  0  0  0  0  0  0
    8.5517  -16.8838   23.1299 C   0  0  0  0  0  0  0  0  0  0  0  0
    8.1819  -17.9729   24.0669 C   0  0  0  0  0  0  0  0  0  0  0  0
    7.4624  -19.0492   23.2382 C   0  0  0  0  0  0  0  0  0  0  0  0
    7.0754  -20.1317   24.2500 C   0  0  0  0  0  0  0  0  0  0  0  0
    6.3460  -21.1462   23.5178 N   0  0  0  0  0  0  0  0  0  0  0  0
   10.3546  -16.1659   24.7070 C   0  0  0  0  0  0  0  0  0  0  0  0
   10.1751  -16.3535   25.9316 O   0  0  0  0  0  0  0  0  0  0  0  0
   11.6072  -16.3853   24.1800 O   0  0  0  0  0  0  0  0  0  0  0  0
  1  2  1  0
  3  2  1  0
  3  4  2  0
  5  3  1  0
  6  5  1  0
  7  8  1  0
  7  6  1  0
  8  9  1  0
  9  5  1  0
  9 10  1  1
 10 11  2  0
 12 10  1  0
 12 13  1  0
 13 14  1  6
 14 15  1  0
 15 16  1  0
 16 17  1  0
 18 17  1  0
 19 13  1  0
 19 21  1  0
 20 19  2  0
M  END
$$$$
