GPK.pdb
     RDKit          3D

 21 21  0  0  1  0  0  0  0  0999 V2000
    4.4538  -17.8151   20.6436 N   0  0  0  0  0  0  0  0  0  0  0  0
    5.0652  -16.5337   20.8040 C   0  0  0  0  0  0  0  0  0  0  0  0
    6.5100  -16.4840   20.5888 C   0  0  0  0  0  0  0  0  0  0  0  0
    7.0728  -17.5457   20.2237 O   0  0  0  0  0  0  0  0  0  0  0  0
    7.2683  -15.3165   20.7718 N   0  0  0  0  0  0  0  0  0  0  0  0
    6.6486  -14.0611   21.2284 C   0  0  0  0  0  0  0  0  0  0  0  0
    7.3698  -12.9770   20.4928 C   0  0  0  0  0  0  0  0  0  0  0  0
    8.7189  -13.5385   20.1922 C   0  0  0  0  0  0  0  0  0  0  0  0
    8.6526  -14.9910   20.6119 C   0  0  1  0  0  0  0  0  0  0  0  0
    9.2742  -15.0777   21.9842 C   0  0  0  0  0  0  0  0  0  0  0  0
    8.7519  -14.5584   22.9964 O   0  0  0  0  0  0  0  0  0  0  0  0
   10.4890  -15.7640   22.1588 N   0  0  0  0  0  0  0  0  0  0  0  0
   11.0187  -15.9541   23.4951 C   0  0  1  0  0  0  0  0  0  0  0  0
   10.6028  -17.3902   23.8485 C   0  0  0  0  0  0  0  0  0  0  0  0
   11.1467  -17.8248   25.1585 C   0  0  0  0  0  0  0  0  0  0  0  0
   10.6244  -19.2488   25.4081 C   0  0  0  0  0  0  0  0  0  0  0  0
   11.1455  -19.6210   26.7992 C   0  0  0  0  0  0  0  0  0  0  0  0
   10.7002  -20.9734   27.0639 N   0  0  0  0  0  0  0  0  0  0  0  0
   12.4607  -15.7406   23.5652 C   0  0  0  0  0  0  0  0  0  0  0  0
   13.0626  -15.7246   24.6627 O   0  0  0  0  0  0  0  0  0  0  0  0
   13.1852  -15.5535   22.4097 O   0  0  0  0  0  0  0  0  0  0  0  0
  1  2  1  0
  3  2  1  0
  3  4  2  0
  5  3  1  0
  6  5  1  0
  7  8  1  0
  7  6  1  0
  8  9  1  0
  9  5  1  0
  9 10  1  1
 10 11  2  0
 12 10  1  0
 12 13  1  0
 13 14  1  6
 14 15  1  0
 15 16  1  0
 16 17  1  0
 18 17  1  0
 19 13  1  0
 19 21  1  0
 20 19  2  0
M  END
$$$$
