GPK.pdb
     RDKit          3D

 21 21  0  0  1  0  0  0  0  0999 V2000
    8.0051  -12.9144   17.2238 N   0  0  0  0  0  0  0  0  0  0  0  0
    8.7825  -13.8434   17.9814 C   0  0  0  0  0  0  0  0  0  0  0  0
    8.1254  -14.4210   19.1521 C   0  0  0  0  0  0  0  0  0  0  0  0
    7.0800  -13.8571   19.5601 O   0  0  0  0  0  0  0  0  0  0  0  0
    8.6131  -15.5576   19.8169 N   0  0  0  0  0  0  0  0  0  0  0  0
    9.9077  -16.1611   19.4589 C   0  0  0  0  0  0  0  0  0  0  0  0
    9.7082  -17.6357   19.6082 C   0  0  0  0  0  0  0  0  0  0  0  0
    8.6235  -17.7833   20.6218 C   0  0  0  0  0  0  0  0  0  0  0  0
    8.1205  -16.3794   20.8798 C   0  0  1  0  0  0  0  0  0  0  0  0
    8.7958  -15.8988   22.1408 C   0  0  0  0  0  0  0  0  0  0  0  0
   10.0063  -15.5822   22.1804 O   0  0  0  0  0  0  0  0  0  0  0  0
    8.0567  -15.7936   23.3325 N   0  0  0  0  0  0  0  0  0  0  0  0
    8.5405  -14.9433   24.4028 C   0  0  1  0  0  0  0  0  0  0  0  0
    7.3027  -14.1263   24.8036 C   0  0  0  0  0  0  0  0  0  0  0  0
    7.5864  -13.1898   25.9186 C   0  0  0  0  0  0  0  0  0  0  0  0
    6.2593  -12.4974   26.2683 C   0  0  0  0  0  0  0  0  0  0  0  0
    6.6049  -11.5381   27.4110 C   0  0  0  0  0  0  0  0  0  0  0  0
    5.3802  -10.8506   27.7639 N   0  0  0  0  0  0  0  0  0  0  0  0
    9.1107  -15.7023   25.5112 C   0  0  0  0  0  0  0  0  0  0  0  0
    8.7366  -16.8709   25.7589 O   0  0  0  0  0  0  0  0  0  0  0  0
   10.0804  -15.1347   26.3064 O   0  0  0  0  0  0  0  0  0  0  0  0
  1  2  1  0
  3  2  1  0
  3  4  2  0
  5  3  1  0
  6  5  1  0
  7  8  1  0
  7  6  1  0
  8  9  1  0
  9  5  1  0
  9 10  1  1
 10 11  2  0
 12 10  1  0
 12 13  1  0
 13 14  1  1
 14 15  1  0
 15 16  1  0
 16 17  1  0
 18 17  1  0
 19 13  1  0
 19 21  1  0
 20 19  2  0
M  END
$$$$
