GPK.pdb
     RDKit          3D

 21 21  0  0  1  0  0  0  0  0999 V2000
    6.9328  -18.1750   18.3803 N   0  0  0  0  0  0  0  0  0  0  0  0
    6.6459  -16.9956   19.1340 C   0  0  0  0  0  0  0  0  0  0  0  0
    7.7856  -16.3731   19.8046 C   0  0  0  0  0  0  0  0  0  0  0  0
    8.8424  -17.0470   19.8850 O   0  0  0  0  0  0  0  0  0  0  0  0
    7.7375  -15.0787   20.3466 N   0  0  0  0  0  0  0  0  0  0  0  0
    6.5620  -14.2112   20.1615 C   0  0  0  0  0  0  0  0  0  0  0  0
    7.1140  -12.8298   20.0074 C   0  0  0  0  0  0  0  0  0  0  0  0
    8.4159  -12.8449   20.7359 C   0  0  0  0  0  0  0  0  0  0  0  0
    8.6414  -14.2896   21.1262 C   0  0  1  0  0  0  0  0  0  0  0  0
    8.2006  -14.4274   22.5628 C   0  0  0  0  0  0  0  0  0  0  0  0
    7.0660  -14.0760   22.9580 O   0  0  0  0  0  0  0  0  0  0  0  0
    9.0819  -14.9698   23.5150 N   0  0  0  0  0  0  0  0  0  0  0  0
    8.5848  -15.3273   24.8293 C   0  0  1  0  0  0  0  0  0  0  0  0
    7.3975  -16.2544   24.5274 C   0  0  0  0  0  0  0  0  0  0  0  0
    7.8362  -17.6041   24.0954 C   0  0  0  0  0  0  0  0  0  0  0  0
    6.5640  -18.4419   23.8891 C   0  0  0  0  0  0  0  0  0  0  0  0
    7.0649  -19.8050   23.4027 C   0  0  0  0  0  0  0  0  0  0  0  0
    5.8947  -20.6371   23.2146 N   0  0  0  0  0  0  0  0  0  0  0  0
    9.6036  -15.9535   25.6658 C   0  0  0  0  0  0  0  0  0  0  0  0
    9.4350  -16.0961   26.8980 O   0  0  0  0  0  0  0  0  0  0  0  0
   10.7764  -16.4019   25.1016 O   0  0  0  0  0  0  0  0  0  0  0  0
  1  2  1  0
  3  2  1  0
  3  4  2  0
  5  3  1  0
  6  5  1  0
  7  8  1  0
  7  6  1  0
  8  9  1  0
  9  5  1  0
  9 10  1  1
 10 11  2  0
 12 10  1  0
 12 13  1  0
 13 14  1  6
 14 15  1  0
 15 16  1  0
 16 17  1  0
 18 17  1  0
 19 13  1  0
 19 21  1  0
 20 19  2  0
M  END
$$$$
