GPK.pdb
     RDKit          3D

 21 21  0  0  1  0  0  0  0  0999 V2000
    7.2422  -16.7512   15.9165 N   0  0  0  0  0  0  0  0  0  0  0  0
    7.0810  -16.0020   17.1223 C   0  0  0  0  0  0  0  0  0  0  0  0
    8.3135  -15.6436   17.8213 C   0  0  0  0  0  0  0  0  0  0  0  0
    9.3853  -16.1265   17.3790 O   0  0  0  0  0  0  0  0  0  0  0  0
    8.3362  -14.7978   18.9418 N   0  0  0  0  0  0  0  0  0  0  0  0
    7.0970  -14.2404   19.5093 C   0  0  0  0  0  0  0  0  0  0  0  0
    7.4566  -12.8596   19.9571 C   0  0  0  0  0  0  0  0  0  0  0  0
    8.9198  -12.9098   20.2444 C   0  0  0  0  0  0  0  0  0  0  0  0
    9.3748  -14.2751   19.7760 C   0  0  1  0  0  0  0  0  0  0  0  0
    9.4292  -15.1598   20.9972 C   0  0  0  0  0  0  0  0  0  0  0  0
    8.4183  -15.7351   21.4602 O   0  0  0  0  0  0  0  0  0  0  0  0
   10.6530  -15.3618   21.6597 N   0  0  0  0  0  0  0  0  0  0  0  0
   10.8187  -16.5153   22.5224 C   0  0  1  0  0  0  0  0  0  0  0  0
   12.3216  -16.8211   22.4335 C   0  0  0  0  0  0  0  0  0  0  0  0
   12.7190  -17.9413   23.3212 C   0  0  0  0  0  0  0  0  0  0  0  0
   14.2469  -18.0730   23.2163 C   0  0  0  0  0  0  0  0  0  0  0  0
   14.6126  -19.1987   24.1882 C   0  0  0  0  0  0  0  0  0  0  0  0
   16.0541  -19.3316   24.1501 N   0  0  0  0  0  0  0  0  0  0  0  0
   10.3630  -16.2684   23.8867 C   0  0  0  0  0  0  0  0  0  0  0  0
   10.1980  -15.1041   24.3159 O   0  0  0  0  0  0  0  0  0  0  0  0
   10.1046  -17.3271   24.7277 O   0  0  0  0  0  0  0  0  0  0  0  0
  1  2  1  0
  3  2  1  0
  3  4  2  0
  5  3  1  0
  6  5  1  0
  7  8  1  0
  7  6  1  0
  8  9  1  0
  9  5  1  0
  9 10  1  1
 10 11  2  0
 12 10  1  0
 12 13  1  0
 13 14  1  1
 14 15  1  0
 15 16  1  0
 16 17  1  0
 18 17  1  0
 19 13  1  0
 19 21  1  0
 20 19  2  0
M  END
$$$$
