YPE.pdb
     RDKit          3D

 29 30  0  0  1  0  0  0  0  0999 V2000
   15.6685  -10.8380  -20.6910 O   0  0  0  0  0  0  0  0  0  0  0  0
   16.8482  -11.1761  -20.0446 C   0  0  0  0  0  0  0  0  0  0  0  0
   17.6933  -10.2141  -19.5731 C   0  0  0  0  0  0  0  0  0  0  0  0
   18.8476  -10.5952  -18.9410 C   0  0  0  0  0  0  0  0  0  0  0  0
   19.2073  -11.9284  -18.7524 C   0  0  0  0  0  0  0  0  0  0  0  0
   20.4663  -12.3044  -18.0624 C   0  0  0  0  0  0  0  0  0  0  0  0
   20.1782  -12.6364  -16.5882 C   0  0  2  0  0  0  0  0  0  0  0  0
   18.9818  -13.4670  -16.5102 N   0  0  0  0  0  0  0  0  0  0  0  0
   20.0203  -11.3941  -15.7999 C   0  0  0  0  0  0  0  0  0  0  0  0
   18.8656  -11.1649  -15.2955 O   0  0  0  0  0  0  0  0  0  0  0  0
   18.3516  -12.8948  -19.2295 C   0  0  0  0  0  0  0  0  0  0  0  0
   17.1887  -12.5020  -19.8665 C   0  0  0  0  0  0  0  0  0  0  0  0
   21.0980  -10.4957  -15.6090 N   0  0  0  0  0  0  0  0  0  0  0  0
   22.4631  -10.5326  -16.0648 C   0  0  0  0  0  0  0  0  0  0  0  0
   23.2129  -10.2142  -14.7578 C   0  0  0  0  0  0  0  0  0  0  0  0
   22.2609   -9.3005  -14.0317 C   0  0  0  0  0  0  0  0  0  0  0  0
   20.9962   -9.2619  -14.8558 C   0  0  1  0  0  0  0  0  0  0  0  0
   20.9168   -8.0771  -15.7325 C   0  0  0  0  0  0  0  0  0  0  0  0
   21.5717   -8.0338  -16.7949 O   0  0  0  0  0  0  0  0  0  0  0  0
   20.1015   -6.9829  -15.3795 N   0  0  0  0  0  0  0  0  0  0  0  0
   19.8699   -5.8494  -16.2603 C   0  0  1  0  0  0  0  0  0  0  0  0
   18.3904   -5.6638  -16.4557 C   0  0  0  0  0  0  0  0  0  0  0  0
   17.6765   -5.4577  -15.1442 C   0  0  0  0  0  0  0  0  0  0  0  0
   16.2289   -5.2506  -15.3500 C   0  0  0  0  0  0  0  0  0  0  0  0
   15.8066   -5.0925  -16.5300 O   0  0  0  0  0  0  0  0  0  0  0  0
   20.4098   -4.6156  -15.6223 C   0  0  0  0  0  0  0  0  0  0  0  0
   20.4581   -3.4280  -16.3275 O   0  0  0  0  0  0  0  0  0  0  0  0
   15.3168   -5.2223  -14.3075 O   0  0  0  0  0  0  0  0  0  0  0  0
   20.8234   -4.6529  -14.4382 O   0  0  0  0  0  0  0  0  0  0  0  0
  2  1  1  0
  3  2  2  0
  4  3  1  0
  5  4  2  0
  5 11  1  0
  6  5  1  0
  7  6  1  0
  7  8  1  6
  9  7  1  0
 10  9  2  0
 11 12  2  0
 12  2  1  0
 13 14  1  0
 13  9  1  0
 15 14  1  0
 16 17  1  0
 16 15  1  0
 17 13  1  0
 17 18  1  6
 19 18  2  0
 20 18  1  0
 21 22  1  1
 21 20  1  0
 22 23  1  0
 23 24  1  0
 24 28  1  0
 25 24  2  0
 26 27  1  0
 26 21  1  0
 29 26  2  0
M  END
$$$$
