YPE.pdb
     RDKit          3D

 29 30  0  0  1  0  0  0  0  0999 V2000
   17.8206  -25.6754   -2.3359 O   0  0  0  0  0  0  0  0  0  0  0  0
   18.6271  -26.7433   -1.9710 C   0  0  0  0  0  0  0  0  0  0  0  0
   19.9395  -26.7931   -2.3415 C   0  0  0  0  0  0  0  0  0  0  0  0
   20.6980  -27.8678   -1.9582 C   0  0  0  0  0  0  0  0  0  0  0  0
   20.1936  -28.9239   -1.2015 C   0  0  0  0  0  0  0  0  0  0  0  0
   21.0453  -30.0725   -0.8041 C   0  0  0  0  0  0  0  0  0  0  0  0
   21.1358  -31.0837   -1.9600 C   0  0  2  0  0  0  0  0  0  0  0  0
   19.8114  -31.6391   -2.2141 N   0  0  0  0  0  0  0  0  0  0  0  0
   22.1112  -32.1492   -1.6393 C   0  0  0  0  0  0  0  0  0  0  0  0
   21.6393  -33.2872   -1.2891 O   0  0  0  0  0  0  0  0  0  0  0  0
   18.8697  -28.8689   -0.8302 C   0  0  0  0  0  0  0  0  0  0  0  0
   18.1108  -27.7810   -1.2212 C   0  0  0  0  0  0  0  0  0  0  0  0
   23.5070  -31.9238   -1.7163 N   0  0  0  0  0  0  0  0  0  0  0  0
   24.2679  -30.7270   -1.9641 C   0  0  0  0  0  0  0  0  0  0  0  0
   25.2522  -31.2276   -3.0377 C   0  0  0  0  0  0  0  0  0  0  0  0
   25.4585  -32.6722   -2.6650 C   0  0  0  0  0  0  0  0  0  0  0  0
   24.5032  -32.9599   -1.5316 C   0  0  1  0  0  0  0  0  0  0  0  0
   25.1459  -32.8868   -0.2049 C   0  0  0  0  0  0  0  0  0  0  0  0
   25.2663  -31.7890    0.3779 O   0  0  0  0  0  0  0  0  0  0  0  0
   25.6304  -34.0551    0.4174 N   0  0  0  0  0  0  0  0  0  0  0  0
   26.1560  -34.0721    1.7730 C   0  0  1  0  0  0  0  0  0  0  0  0
   26.1930  -35.4889    2.2757 C   0  0  0  0  0  0  0  0  0  0  0  0
   24.8069  -36.0552    2.4494 C   0  0  0  0  0  0  0  0  0  0  0  0
   24.8535  -37.4223    3.0058 C   0  0  0  0  0  0  0  0  0  0  0  0
   24.8978  -38.3964    2.2027 O   0  0  0  0  0  0  0  0  0  0  0  0
   27.5514  -33.5490    1.7633 C   0  0  0  0  0  0  0  0  0  0  0  0
   28.1866  -33.2305    2.9486 O   0  0  0  0  0  0  0  0  0  0  0  0
   24.8506  -37.6817    4.3668 O   0  0  0  0  0  0  0  0  0  0  0  0
   28.1549  -33.3960    0.6738 O   0  0  0  0  0  0  0  0  0  0  0  0
  2  1  1  0
  3  2  2  0
  4  3  1  0
  5  4  2  0
  5 11  1  0
  6  5  1  0
  7  6  1  0
  7  8  1  1
  9  7  1  0
 10  9  2  0
 11 12  2  0
 12  2  1  0
 13 14  1  0
 13  9  1  0
 15 14  1  0
 16 17  1  0
 16 15  1  0
 17 13  1  0
 17 18  1  1
 19 18  2  0
 20 18  1  0
 21 22  1  6
 21 20  1  0
 22 23  1  0
 23 24  1  0
 24 28  1  0
 25 24  2  0
 26 27  1  0
 26 21  1  0
 29 26  2  0
M  END
$$$$
