YPE.pdb
     RDKit          3D

 29 30  0  0  1  0  0  0  0  0999 V2000
   24.2889  -21.7261   -6.8525 O   0  0  0  0  0  0  0  0  0  0  0  0
   24.3541  -21.4824   -8.2164 C   0  0  0  0  0  0  0  0  0  0  0  0
   25.5306  -21.1347   -8.8139 C   0  0  0  0  0  0  0  0  0  0  0  0
   25.5474  -20.9035  -10.1643 C   0  0  0  0  0  0  0  0  0  0  0  0
   24.4132  -21.0061  -10.9679 C   0  0  0  0  0  0  0  0  0  0  0  0
   24.4688  -20.7483  -12.4284 C   0  0  0  0  0  0  0  0  0  0  0  0
   24.3563  -19.2382  -12.6996 C   0  0  2  0  0  0  0  0  0  0  0  0
   23.0546  -18.7659  -12.2418 N   0  0  0  0  0  0  0  0  0  0  0  0
   24.5530  -18.9555  -14.1387 C   0  0  0  0  0  0  0  0  0  0  0  0
   23.5251  -18.5865  -14.8076 O   0  0  0  0  0  0  0  0  0  0  0  0
   23.2293  -21.3571  -10.3606 C   0  0  0  0  0  0  0  0  0  0  0  0
   23.2208  -21.5887   -8.9973 C   0  0  0  0  0  0  0  0  0  0  0  0
   25.8224  -19.0855  -14.7526 N   0  0  0  0  0  0  0  0  0  0  0  0
   27.0098  -19.7923  -14.3485 C   0  0  0  0  0  0  0  0  0  0  0  0
   28.0791  -18.7036  -14.5569 C   0  0  0  0  0  0  0  0  0  0  0  0
   27.5428  -17.9170  -15.7240 C   0  0  0  0  0  0  0  0  0  0  0  0
   26.1719  -18.4764  -16.0202 C   0  0  1  0  0  0  0  0  0  0  0  0
   26.1758  -19.4530  -17.1270 C   0  0  0  0  0  0  0  0  0  0  0  0
   26.7288  -20.5637  -16.9860 O   0  0  0  0  0  0  0  0  0  0  0  0
   25.5559  -19.1417  -18.3540 N   0  0  0  0  0  0  0  0  0  0  0  0
   24.4605  -19.9201  -18.9094 C   0  0  1  0  0  0  0  0  0  0  0  0
   23.1748  -19.1569  -18.7488 C   0  0  0  0  0  0  0  0  0  0  0  0
   21.9917  -19.9465  -19.2478 C   0  0  0  0  0  0  0  0  0  0  0  0
   20.7271  -19.2209  -19.0136 C   0  0  0  0  0  0  0  0  0  0  0  0
   19.9033  -19.1268  -19.9667 O   0  0  0  0  0  0  0  0  0  0  0  0
   24.6963  -20.1263  -20.3664 C   0  0  0  0  0  0  0  0  0  0  0  0
   25.2878  -19.1348  -21.1258 O   0  0  0  0  0  0  0  0  0  0  0  0
   20.4064  -18.6405  -17.7972 O   0  0  0  0  0  0  0  0  0  0  0  0
   24.3566  -21.2058  -20.9087 O   0  0  0  0  0  0  0  0  0  0  0  0
  2  1  1  0
  3  2  2  0
  4  3  1  0
  5  4  2  0
  5 11  1  0
  6  5  1  0
  7  6  1  0
  7  8  1  6
  9  7  1  0
 10  9  2  0
 11 12  2  0
 12  2  1  0
 13 14  1  0
 13  9  1  0
 15 14  1  0
 16 17  1  0
 16 15  1  0
 17 13  1  0
 17 18  1  6
 19 18  2  0
 20 18  1  0
 21 22  1  6
 21 20  1  0
 22 23  1  0
 23 24  1  0
 24 28  1  0
 25 24  2  0
 26 27  1  0
 26 21  1  0
 29 26  2  0
M  END
$$$$
