YPE.pdb
     RDKit          3D

 29 30  0  0  1  0  0  0  0  0999 V2000
    9.3631  -23.9993    0.0792 O   0  0  0  0  0  0  0  0  0  0  0  0
   10.4166  -23.4474    0.7929 C   0  0  0  0  0  0  0  0  0  0  0  0
   11.1236  -24.1911    1.6924 C   0  0  0  0  0  0  0  0  0  0  0  0
   12.1565  -23.6036    2.3746 C   0  0  0  0  0  0  0  0  0  0  0  0
   12.5265  -22.2718    2.1956 C   0  0  0  0  0  0  0  0  0  0  0  0
   13.6516  -21.6686    2.9524 C   0  0  0  0  0  0  0  0  0  0  0  0
   14.8432  -21.4192    2.0117 C   0  0  2  0  0  0  0  0  0  0  0  0
   15.3556  -22.7004    1.5393 N   0  0  0  0  0  0  0  0  0  0  0  0
   15.8956  -20.6440    2.7051 C   0  0  0  0  0  0  0  0  0  0  0  0
   17.0306  -21.2148    2.8676 O   0  0  0  0  0  0  0  0  0  0  0  0
   11.8105  -21.5262    1.2873 C   0  0  0  0  0  0  0  0  0  0  0  0
   10.7695  -22.1264    0.6029 C   0  0  0  0  0  0  0  0  0  0  0  0
   15.6613  -19.3269    3.1694 N   0  0  0  0  0  0  0  0  0  0  0  0
   14.4827  -18.5007    3.1407 C   0  0  0  0  0  0  0  0  0  0  0  0
   15.0661  -17.1841    2.5945 C   0  0  0  0  0  0  0  0  0  0  0  0
   16.4687  -17.1784    3.1431 C   0  0  0  0  0  0  0  0  0  0  0  0
   16.6646  -18.5117    3.8242 C   0  0  1  0  0  0  0  0  0  0  0  0
   16.4648  -18.4462    5.2852 C   0  0  0  0  0  0  0  0  0  0  0  0
   15.3122  -18.4634    5.7654 O   0  0  0  0  0  0  0  0  0  0  0  0
   17.5726  -18.3633    6.1528 N   0  0  0  0  0  0  0  0  0  0  0  0
   17.4518  -18.4166    7.6009 C   0  0  1  0  0  0  0  0  0  0  0  0
   18.6627  -19.0968    8.1775 C   0  0  0  0  0  0  0  0  0  0  0  0
   19.9384  -18.4080    7.7650 C   0  0  0  0  0  0  0  0  0  0  0  0
   21.1134  -19.0269    8.4108 C   0  0  0  0  0  0  0  0  0  0  0  0
   20.9222  -19.9756    9.2228 O   0  0  0  0  0  0  0  0  0  0  0  0
   17.4021  -17.0278    8.1391 C   0  0  0  0  0  0  0  0  0  0  0  0
   17.6212  -15.9472    7.3060 O   0  0  0  0  0  0  0  0  0  0  0  0
   22.4126  -18.6130    8.1651 O   0  0  0  0  0  0  0  0  0  0  0  0
   17.1600  -16.8363    9.3554 O   0  0  0  0  0  0  0  0  0  0  0  0
  2  1  1  0
  3  2  2  0
  4  3  1  0
  5  4  2  0
  5 11  1  0
  6  5  1  0
  7  6  1  0
  7  8  1  1
  9  7  1  0
 10  9  2  0
 11 12  2  0
 12  2  1  0
 13 14  1  0
 13  9  1  0
 15 14  1  0
 16 17  1  0
 16 15  1  0
 17 13  1  0
 17 18  1  1
 19 18  2  0
 20 18  1  0
 21 22  1  1
 21 20  1  0
 22 23  1  0
 23 24  1  0
 24 28  1  0
 25 24  2  0
 26 27  1  0
 26 21  1  0
 29 26  2  0
M  END
$$$$
