YPE.pdb
     RDKit          3D

 29 30  0  0  1  0  0  0  0  0999 V2000
   16.0990  -17.5456  -21.0109 O   0  0  0  0  0  0  0  0  0  0  0  0
   16.7626  -16.4842  -20.4134 C   0  0  0  0  0  0  0  0  0  0  0  0
   17.4841  -15.5966  -21.1574 C   0  0  0  0  0  0  0  0  0  0  0  0
   18.1233  -14.5634  -20.5240 C   0  0  0  0  0  0  0  0  0  0  0  0
   18.0742  -14.3697  -19.1446 C   0  0  0  0  0  0  0  0  0  0  0  0
   18.7793  -13.2384  -18.4923 C   0  0  0  0  0  0  0  0  0  0  0  0
   20.2486  -13.6142  -18.2343 C   0  0  2  0  0  0  0  0  0  0  0  0
   20.2978  -14.7621  -17.3360 N   0  0  0  0  0  0  0  0  0  0  0  0
   20.9857  -12.4613  -17.6713 C   0  0  0  0  0  0  0  0  0  0  0  0
   21.1461  -12.4343  -16.4009 O   0  0  0  0  0  0  0  0  0  0  0  0
   17.3451  -15.2675  -18.3988 C   0  0  0  0  0  0  0  0  0  0  0  0
   16.7031  -16.3076  -19.0456 C   0  0  0  0  0  0  0  0  0  0  0  0
   21.4941  -11.4311  -18.4991 N   0  0  0  0  0  0  0  0  0  0  0  0
   21.5241  -11.2851  -19.9310 C   0  0  0  0  0  0  0  0  0  0  0  0
   22.9944  -10.8820  -20.1496 C   0  0  0  0  0  0  0  0  0  0  0  0
   23.3253  -10.1068  -18.9014 C   0  0  0  0  0  0  0  0  0  0  0  0
   22.1239  -10.2274  -17.9946 C   0  0  1  0  0  0  0  0  0  0  0  0
   21.2286   -9.0562  -18.0669 C   0  0  0  0  0  0  0  0  0  0  0  0
   20.4075   -8.9467  -19.0014 O   0  0  0  0  0  0  0  0  0  0  0  0
   21.2916   -8.0494  -17.0824 N   0  0  0  0  0  0  0  0  0  0  0  0
   20.1106   -7.4089  -16.5260 C   0  0  1  0  0  0  0  0  0  0  0  0
   19.2054   -8.4563  -15.9386 C   0  0  0  0  0  0  0  0  0  0  0  0
   17.9255   -7.8566  -15.4147 C   0  0  0  0  0  0  0  0  0  0  0  0
   17.0054   -8.9030  -14.9256 C   0  0  0  0  0  0  0  0  0  0  0  0
   17.1168   -9.2888  -13.7279 O   0  0  0  0  0  0  0  0  0  0  0  0
   20.5241   -6.4882  -15.4296 C   0  0  0  0  0  0  0  0  0  0  0  0
   21.7732   -6.6076  -14.8506 O   0  0  0  0  0  0  0  0  0  0  0  0
   16.0282   -9.4781  -15.7218 O   0  0  0  0  0  0  0  0  0  0  0  0
   19.7351   -5.5987  -15.0283 O   0  0  0  0  0  0  0  0  0  0  0  0
  2  1  1  0
  3  2  2  0
  4  3  1  0
  5  4  2  0
  5 11  1  0
  6  5  1  0
  7  6  1  0
  7  8  1  1
  9  7  1  0
 10  9  2  0
 11 12  2  0
 12  2  1  0
 13 14  1  0
 13  9  1  0
 15 14  1  0
 16 17  1  0
 16 15  1  0
 17 13  1  0
 17 18  1  6
 19 18  2  0
 20 18  1  0
 21 22  1  1
 21 20  1  0
 22 23  1  0
 23 24  1  0
 24 28  1  0
 25 24  2  0
 26 27  1  0
 26 21  1  0
 29 26  2  0
M  END
$$$$
