YPE.pdb
     RDKit          3D

 29 30  0  0  1  0  0  0  0  0999 V2000
   19.5178  -23.6542   -7.7393 O   0  0  0  0  0  0  0  0  0  0  0  0
   20.1794  -22.9437   -8.7300 C   0  0  0  0  0  0  0  0  0  0  0  0
   20.2410  -23.4120  -10.0102 C   0  0  0  0  0  0  0  0  0  0  0  0
   20.9056  -22.6761  -10.9558 C   0  0  0  0  0  0  0  0  0  0  0  0
   21.5283  -21.4612  -10.6751 C   0  0  0  0  0  0  0  0  0  0  0  0
   22.2394  -20.6906  -11.7254 C   0  0  0  0  0  0  0  0  0  0  0  0
   23.7344  -21.0536  -11.7215 C   0  0  2  0  0  0  0  0  0  0  0  0
   24.3379  -20.5809  -10.4807 N   0  0  0  0  0  0  0  0  0  0  0  0
   24.4107  -20.4717  -12.9019 C   0  0  0  0  0  0  0  0  0  0  0  0
   24.7408  -19.2360  -12.8361 O   0  0  0  0  0  0  0  0  0  0  0  0
   21.4632  -20.9932   -9.3827 C   0  0  0  0  0  0  0  0  0  0  0  0
   20.7908  -21.7419   -8.4341 C   0  0  0  0  0  0  0  0  0  0  0  0
   24.6834  -21.2456  -14.0560 N   0  0  0  0  0  0  0  0  0  0  0  0
   24.3980  -22.6208  -14.3719 C   0  0  0  0  0  0  0  0  0  0  0  0
   25.7676  -23.0862  -14.9005 C   0  0  0  0  0  0  0  0  0  0  0  0
   26.3254  -21.8440  -15.5441 C   0  0  0  0  0  0  0  0  0  0  0  0
   25.3539  -20.7307  -15.2329 C   0  0  1  0  0  0  0  0  0  0  0  0
   24.4139  -20.4616  -16.3386 C   0  0  0  0  0  0  0  0  0  0  0  0
   23.4504  -21.2280  -16.5478 O   0  0  0  0  0  0  0  0  0  0  0  0
   24.5943  -19.3375  -17.1696 N   0  0  0  0  0  0  0  0  0  0  0  0
   23.6664  -18.9774  -18.2296 C   0  0  1  0  0  0  0  0  0  0  0  0
   23.7001  -17.4884  -18.4374 C   0  0  0  0  0  0  0  0  0  0  0  0
   23.2416  -16.7437  -17.2096 C   0  0  0  0  0  0  0  0  0  0  0  0
   23.2554  -15.2840  -17.4331 C   0  0  0  0  0  0  0  0  0  0  0  0
   22.6238  -14.5467  -16.6249 O   0  0  0  0  0  0  0  0  0  0  0  0
   24.0956  -19.6306  -19.4984 C   0  0  0  0  0  0  0  0  0  0  0  0
   23.2515  -19.6546  -20.5924 O   0  0  0  0  0  0  0  0  0  0  0  0
   23.9294  -14.6904  -18.4880 O   0  0  0  0  0  0  0  0  0  0  0  0
   25.2296  -20.1624  -19.5761 O   0  0  0  0  0  0  0  0  0  0  0  0
  2  1  1  0
  3  2  2  0
  4  3  1  0
  5  4  2  0
  5 11  1  0
  6  5  1  0
  7  6  1  0
  7  8  1  1
  9  7  1  0
 10  9  2  0
 11 12  2  0
 12  2  1  0
 13 14  1  0
 13  9  1  0
 15 14  1  0
 16 17  1  0
 16 15  1  0
 17 13  1  0
 17 18  1  6
 19 18  2  0
 20 18  1  0
 21 22  1  6
 21 20  1  0
 22 23  1  0
 23 24  1  0
 24 28  1  0
 25 24  2  0
 26 27  1  0
 26 21  1  0
 29 26  2  0
M  END
$$$$
