YPE.pdb
     RDKit          3D

 29 30  0  0  1  0  0  0  0  0999 V2000
   24.3025  -15.2415  -21.2205 O   0  0  0  0  0  0  0  0  0  0  0  0
   24.2931  -16.1137  -20.1420 C   0  0  0  0  0  0  0  0  0  0  0  0
   25.3232  -16.1383  -19.2475 C   0  0  0  0  0  0  0  0  0  0  0  0
   25.2708  -17.0167  -18.1973 C   0  0  0  0  0  0  0  0  0  0  0  0
   24.2087  -17.8958  -17.9930 C   0  0  0  0  0  0  0  0  0  0  0  0
   24.1856  -18.8340  -16.8434 C   0  0  0  0  0  0  0  0  0  0  0  0
   25.2126  -19.9583  -17.0625 C   0  0  2  0  0  0  0  0  0  0  0  0
   24.8233  -20.7405  -18.2303 N   0  0  0  0  0  0  0  0  0  0  0  0
   25.3124  -20.8095  -15.8564 C   0  0  0  0  0  0  0  0  0  0  0  0
   24.7472  -21.9579  -15.9032 O   0  0  0  0  0  0  0  0  0  0  0  0
   23.1722  -17.8670  -18.8978 C   0  0  0  0  0  0  0  0  0  0  0  0
   23.2328  -16.9776  -19.9550 C   0  0  0  0  0  0  0  0  0  0  0  0
   26.0032  -20.3763  -14.6987 N   0  0  0  0  0  0  0  0  0  0  0  0
   26.7007  -19.1513  -14.4064 C   0  0  0  0  0  0  0  0  0  0  0  0
   28.0176  -19.7000  -13.8261 C   0  0  0  0  0  0  0  0  0  0  0  0
   27.5877  -20.9753  -13.1497 C   0  0  0  0  0  0  0  0  0  0  0  0
   26.1294  -21.1672  -13.4910 C   0  0  1  0  0  0  0  0  0  0  0  0
   25.2227  -20.7038  -12.4225 C   0  0  0  0  0  0  0  0  0  0  0  0
   24.9401  -19.4920  -12.3167 O   0  0  0  0  0  0  0  0  0  0  0  0
   24.6670  -21.6239  -11.5107 N   0  0  0  0  0  0  0  0  0  0  0  0
   23.3433  -21.4647  -10.9303 C   0  0  1  0  0  0  0  0  0  0  0  0
   22.9748  -22.7141  -10.1789 C   0  0  0  0  0  0  0  0  0  0  0  0
   21.6691  -22.5568   -9.4421 C   0  0  0  0  0  0  0  0  0  0  0  0
   20.5197  -22.8461  -10.3229 C   0  0  0  0  0  0  0  0  0  0  0  0
   20.7486  -23.1684  -11.5227 O   0  0  0  0  0  0  0  0  0  0  0  0
   23.3669  -20.3328   -9.9612 C   0  0  0  0  0  0  0  0  0  0  0  0
   22.2032  -19.6561   -9.6488 O   0  0  0  0  0  0  0  0  0  0  0  0
   19.2049  -22.7793   -9.8911 O   0  0  0  0  0  0  0  0  0  0  0  0
   24.4484  -19.9907   -9.4246 O   0  0  0  0  0  0  0  0  0  0  0  0
  2  1  1  0
  3  2  2  0
  4  3  1  0
  5  4  2  0
  5 11  1  0
  6  5  1  0
  7  6  1  0
  7  8  1  6
  9  7  1  0
 10  9  2  0
 11 12  2  0
 12  2  1  0
 13 14  1  0
 13  9  1  0
 15 14  1  0
 16 17  1  0
 16 15  1  0
 17 13  1  0
 17 18  1  1
 19 18  2  0
 20 18  1  0
 21 22  1  1
 21 20  1  0
 22 23  1  0
 23 24  1  0
 24 28  1  0
 25 24  2  0
 26 27  1  0
 26 21  1  0
 29 26  2  0
M  END
$$$$
