YPE.pdb
     RDKit          3D

 29 30  0  0  1  0  0  0  0  0999 V2000
   12.5961  -20.3264    1.1115 O   0  0  0  0  0  0  0  0  0  0  0  0
   13.5035  -19.5524    1.8197 C   0  0  0  0  0  0  0  0  0  0  0  0
   14.6632  -20.0887    2.2987 C   0  0  0  0  0  0  0  0  0  0  0  0
   15.5298  -19.2859    2.9928 C   0  0  0  0  0  0  0  0  0  0  0  0
   15.2858  -17.9357    3.2376 C   0  0  0  0  0  0  0  0  0  0  0  0
   16.2480  -17.0959    3.9937 C   0  0  0  0  0  0  0  0  0  0  0  0
   17.4230  -16.6960    3.0848 C   0  0  2  0  0  0  0  0  0  0  0  0
   17.9186  -17.8814    2.3947 N   0  0  0  0  0  0  0  0  0  0  0  0
   18.4930  -16.0507    3.8773 C   0  0  0  0  0  0  0  0  0  0  0  0
   19.5024  -16.7728    4.1934 O   0  0  0  0  0  0  0  0  0  0  0  0
   14.1150  -17.3996    2.7524 C   0  0  0  0  0  0  0  0  0  0  0  0
   13.2456  -18.2165    2.0530 C   0  0  0  0  0  0  0  0  0  0  0  0
   18.4080  -14.6929    4.2701 N   0  0  0  0  0  0  0  0  0  0  0  0
   17.3584  -13.7195    4.1175 C   0  0  0  0  0  0  0  0  0  0  0  0
   18.1536  -12.5208    3.5672 C   0  0  0  0  0  0  0  0  0  0  0  0
   19.5009  -12.6750    4.2226 C   0  0  0  0  0  0  0  0  0  0  0  0
   19.4636  -13.9873    4.9686 C   0  0  1  0  0  0  0  0  0  0  0  0
   19.1702  -13.8239    6.4059 C   0  0  0  0  0  0  0  0  0  0  0  0
   17.9904  -13.7141    6.8002 O   0  0  0  0  0  0  0  0  0  0  0  0
   20.2184  -13.7897    7.3476 N   0  0  0  0  0  0  0  0  0  0  0  0
   20.0411  -14.1492    8.7454 C   0  0  1  0  0  0  0  0  0  0  0  0
   20.5134  -15.5606    8.9610 C   0  0  0  0  0  0  0  0  0  0  0  0
   21.9427  -15.7439    8.5188 C   0  0  0  0  0  0  0  0  0  0  0  0
   22.4218  -17.1099    8.8103 C   0  0  0  0  0  0  0  0  0  0  0  0
   23.6175  -17.2589    9.1898 O   0  0  0  0  0  0  0  0  0  0  0  0
   20.8744  -13.2490    9.5916 C   0  0  0  0  0  0  0  0  0  0  0  0
   21.7804  -12.3833    9.0091 O   0  0  0  0  0  0  0  0  0  0  0  0
   21.6186  -18.2319    8.6859 O   0  0  0  0  0  0  0  0  0  0  0  0
   20.7542  -13.2756   10.8404 O   0  0  0  0  0  0  0  0  0  0  0  0
  2  1  1  0
  3  2  2  0
  4  3  1  0
  5  4  2  0
  5 11  1  0
  6  5  1  0
  7  6  1  0
  7  8  1  1
  9  7  1  0
 10  9  2  0
 11 12  2  0
 12  2  1  0
 13 14  1  0
 13  9  1  0
 15 14  1  0
 16 17  1  0
 16 15  1  0
 17 13  1  0
 17 18  1  1
 19 18  2  0
 20 18  1  0
 21 22  1  6
 21 20  1  0
 22 23  1  0
 23 24  1  0
 24 28  1  0
 25 24  2  0
 26 27  1  0
 26 21  1  0
 29 26  2  0
M  END
$$$$
