YPE.pdb
     RDKit          3D

 29 30  0  0  1  0  0  0  0  0999 V2000
   29.8026  -15.5499  -18.0834 O   0  0  0  0  0  0  0  0  0  0  0  0
   28.9225  -16.4156  -17.4511 C   0  0  0  0  0  0  0  0  0  0  0  0
   28.3325  -17.4407  -18.1317 C   0  0  0  0  0  0  0  0  0  0  0  0
   27.4695  -18.2709  -17.4659 C   0  0  0  0  0  0  0  0  0  0  0  0
   27.1598  -18.1213  -16.1152 C   0  0  0  0  0  0  0  0  0  0  0  0
   26.2200  -19.0404  -15.4262 C   0  0  0  0  0  0  0  0  0  0  0  0
   26.9997  -20.1908  -14.7664 C   0  0  2  0  0  0  0  0  0  0  0  0
   27.7038  -20.9445  -15.7976 N   0  0  0  0  0  0  0  0  0  0  0  0
   26.0834  -21.0620  -13.9976 C   0  0  0  0  0  0  0  0  0  0  0  0
   25.7538  -22.1786  -14.5311 O   0  0  0  0  0  0  0  0  0  0  0  0
   27.7575  -17.0863  -15.4333 C   0  0  0  0  0  0  0  0  0  0  0  0
   28.6271  -16.2527  -16.1125 C   0  0  0  0  0  0  0  0  0  0  0  0
   25.5912  -20.6806  -12.7258 N   0  0  0  0  0  0  0  0  0  0  0  0
   25.9496  -19.5954  -11.8503 C   0  0  0  0  0  0  0  0  0  0  0  0
   26.1001  -20.3419  -10.5116 C   0  0  0  0  0  0  0  0  0  0  0  0
   25.0873  -21.4510  -10.6231 C   0  0  0  0  0  0  0  0  0  0  0  0
   24.5336  -21.3820  -12.0263 C   0  0  1  0  0  0  0  0  0  0  0  0
   23.2444  -20.6673  -12.1015 C   0  0  0  0  0  0  0  0  0  0  0  0
   23.1997  -19.4291  -11.9456 O   0  0  0  0  0  0  0  0  0  0  0  0
   22.0509  -21.3749  -12.3498 N   0  0  0  0  0  0  0  0  0  0  0  0
   20.8056  -20.7237  -12.7232 C   0  0  1  0  0  0  0  0  0  0  0  0
   20.4467  -21.1049  -14.1330 C   0  0  0  0  0  0  0  0  0  0  0  0
   21.4517  -20.5788  -15.1257 C   0  0  0  0  0  0  0  0  0  0  0  0
   21.1363  -21.0296  -16.4961 C   0  0  0  0  0  0  0  0  0  0  0  0
   20.1594  -21.8134  -16.6606 O   0  0  0  0  0  0  0  0  0  0  0  0
   19.7161  -21.1995  -11.8246 C   0  0  0  0  0  0  0  0  0  0  0  0
   18.5353  -20.4890  -11.7212 O   0  0  0  0  0  0  0  0  0  0  0  0
   21.8638  -20.6310  -17.6058 O   0  0  0  0  0  0  0  0  0  0  0  0
   19.8696  -22.2510  -11.1572 O   0  0  0  0  0  0  0  0  0  0  0  0
  2  1  1  0
  3  2  2  0
  4  3  1  0
  5  4  2  0
  5 11  1  0
  6  5  1  0
  7  6  1  0
  7  8  1  6
  9  7  1  0
 10  9  2  0
 11 12  2  0
 12  2  1  0
 13 14  1  0
 13  9  1  0
 15 14  1  0
 16 17  1  0
 16 15  1  0
 17 13  1  0
 17 18  1  1
 19 18  2  0
 20 18  1  0
 21 22  1  6
 21 20  1  0
 22 23  1  0
 23 24  1  0
 24 28  1  0
 25 24  2  0
 26 27  1  0
 26 21  1  0
 29 26  2  0
M  END
$$$$
