YPE.pdb
     RDKit          3D

 29 30  0  0  1  0  0  0  0  0999 V2000
   21.8359  -21.4869   -7.3789 O   0  0  0  0  0  0  0  0  0  0  0  0
   22.4222  -21.4374   -8.6349 C   0  0  0  0  0  0  0  0  0  0  0  0
   21.6951  -21.6897   -9.7617 C   0  0  0  0  0  0  0  0  0  0  0  0
   22.3166  -21.6292  -10.9813 C   0  0  0  0  0  0  0  0  0  0  0  0
   23.6672  -21.3200  -11.1324 C   0  0  0  0  0  0  0  0  0  0  0  0
   24.3073  -21.2634  -12.4702 C   0  0  0  0  0  0  0  0  0  0  0  0
   24.4719  -19.7989  -12.9118 C   0  0  2  0  0  0  0  0  0  0  0  0
   23.1554  -19.2255  -13.1665 N   0  0  0  0  0  0  0  0  0  0  0  0
   25.3341  -19.7147  -14.1114 C   0  0  0  0  0  0  0  0  0  0  0  0
   24.7968  -19.2745  -15.1875 O   0  0  0  0  0  0  0  0  0  0  0  0
   24.3961  -21.0663   -9.9931 C   0  0  0  0  0  0  0  0  0  0  0  0
   23.7615  -21.1295   -8.7661 C   0  0  0  0  0  0  0  0  0  0  0  0
   26.6955  -20.1026  -14.0743 N   0  0  0  0  0  0  0  0  0  0  0  0
   27.4940  -20.6825  -13.0261 C   0  0  0  0  0  0  0  0  0  0  0  0
   28.7400  -19.7788  -13.0784 C   0  0  0  0  0  0  0  0  0  0  0  0
   28.8354  -19.4125  -14.5362 C   0  0  0  0  0  0  0  0  0  0  0  0
   27.6013  -19.9771  -15.1984 C   0  0  1  0  0  0  0  0  0  0  0  0
   27.8469  -21.2708  -15.8651 C   0  0  0  0  0  0  0  0  0  0  0  0
   27.8083  -22.3343  -15.2117 O   0  0  0  0  0  0  0  0  0  0  0  0
   28.1279  -21.3190  -17.2455 N   0  0  0  0  0  0  0  0  0  0  0  0
   27.8249  -22.4728  -18.0769 C   0  0  1  0  0  0  0  0  0  0  0  0
   26.3396  -22.7075  -18.0822 C   0  0  0  0  0  0  0  0  0  0  0  0
   25.5801  -21.4641  -18.4690 C   0  0  0  0  0  0  0  0  0  0  0  0
   24.1273  -21.7217  -18.5291 C   0  0  0  0  0  0  0  0  0  0  0  0
   23.7173  -22.8993  -18.3269 O   0  0  0  0  0  0  0  0  0  0  0  0
   28.2533  -22.1933  -19.4766 C   0  0  0  0  0  0  0  0  0  0  0  0
   28.6869  -20.9313  -19.8359 O   0  0  0  0  0  0  0  0  0  0  0  0
   23.1975  -20.7302  -18.7970 O   0  0  0  0  0  0  0  0  0  0  0  0
   28.2211  -23.1077  -20.3354 O   0  0  0  0  0  0  0  0  0  0  0  0
  2  1  1  0
  3  2  2  0
  4  3  1  0
  5  4  2  0
  5 11  1  0
  6  5  1  0
  7  6  1  0
  7  8  1  6
  9  7  1  0
 10  9  2  0
 11 12  2  0
 12  2  1  0
 13 14  1  0
 13  9  1  0
 15 14  1  0
 16 17  1  0
 16 15  1  0
 17 13  1  0
 17 18  1  1
 19 18  2  0
 20 18  1  0
 21 22  1  6
 21 20  1  0
 22 23  1  0
 23 24  1  0
 24 28  1  0
 25 24  2  0
 26 27  1  0
 26 21  1  0
 29 26  2  0
M  END
$$$$
