YPE.pdb
     RDKit          3D

 29 30  0  0  1  0  0  0  0  0999 V2000
   18.3881  -15.7691  -23.6475 O   0  0  0  0  0  0  0  0  0  0  0  0
   18.5311  -15.0127  -22.4937 C   0  0  0  0  0  0  0  0  0  0  0  0
   17.5286  -14.9403  -21.5707 C   0  0  0  0  0  0  0  0  0  0  0  0
   17.7146  -14.1806  -20.4457 C   0  0  0  0  0  0  0  0  0  0  0  0
   18.8868  -13.4705  -20.1923 C   0  0  0  0  0  0  0  0  0  0  0  0
   19.0533  -12.6575  -18.9619 C   0  0  0  0  0  0  0  0  0  0  0  0
   20.1344  -13.2814  -18.0626 C   0  0  2  0  0  0  0  0  0  0  0  0
   19.7022  -14.6111  -17.6477 N   0  0  0  0  0  0  0  0  0  0  0  0
   20.3972  -12.4142  -16.8929 C   0  0  0  0  0  0  0  0  0  0  0  0
   19.8281  -12.7318  -15.7903 O   0  0  0  0  0  0  0  0  0  0  0  0
   19.8948  -13.5470  -21.1261 C   0  0  0  0  0  0  0  0  0  0  0  0
   19.6992  -14.3157  -22.2588 C   0  0  0  0  0  0  0  0  0  0  0  0
   21.2420  -11.2815  -16.9851 N   0  0  0  0  0  0  0  0  0  0  0  0
   21.9973  -10.7417  -18.0854 C   0  0  0  0  0  0  0  0  0  0  0  0
   23.3668  -10.5221  -17.4157 C   0  0  0  0  0  0  0  0  0  0  0  0
   23.0019  -10.1928  -15.9920 C   0  0  0  0  0  0  0  0  0  0  0  0
   21.5078  -10.3811  -15.8812 C   0  0  1  0  0  0  0  0  0  0  0  0
   20.7581   -9.1152  -15.9999 C   0  0  0  0  0  0  0  0  0  0  0  0
   20.5133   -8.6302  -17.1243 O   0  0  0  0  0  0  0  0  0  0  0  0
   20.3112   -8.4409  -14.8456 N   0  0  0  0  0  0  0  0  0  0  0  0
   19.3741   -7.3299  -14.8887 C   0  0  1  0  0  0  0  0  0  0  0  0
   18.1311   -7.6960  -14.1255 C   0  0  0  0  0  0  0  0  0  0  0  0
   18.4401   -8.0483  -12.6928 C   0  0  0  0  0  0  0  0  0  0  0  0
   17.2058   -8.3339  -11.9341 C   0  0  0  0  0  0  0  0  0  0  0  0
   16.0942   -8.1654  -12.5101 O   0  0  0  0  0  0  0  0  0  0  0  0
   19.9897   -6.1447  -14.2275 C   0  0  0  0  0  0  0  0  0  0  0  0
   19.3940   -4.9016  -14.3262 O   0  0  0  0  0  0  0  0  0  0  0  0
   17.2146   -8.7773  -10.6216 O   0  0  0  0  0  0  0  0  0  0  0  0
   21.0549   -6.2739  -13.5769 O   0  0  0  0  0  0  0  0  0  0  0  0
  2  1  1  0
  3  2  2  0
  4  3  1  0
  5  4  2  0
  5 11  1  0
  6  5  1  0
  7  6  1  0
  7  8  1  1
  9  7  1  0
 10  9  2  0
 11 12  2  0
 12  2  1  0
 13 14  1  0
 13  9  1  0
 15 14  1  0
 16 17  1  0
 16 15  1  0
 17 13  1  0
 17 18  1  6
 19 18  2  0
 20 18  1  0
 21 22  1  1
 21 20  1  0
 22 23  1  0
 23 24  1  0
 24 28  1  0
 25 24  2  0
 26 27  1  0
 26 21  1  0
 29 26  2  0
M  END
$$$$
