YPE.pdb
     RDKit          3D

 29 30  0  0  1  0  0  0  0  0999 V2000
   17.5291  -11.2729  -13.6960 O   0  0  0  0  0  0  0  0  0  0  0  0
   17.4161  -11.1080  -15.0686 C   0  0  0  0  0  0  0  0  0  0  0  0
   17.5414   -9.8763  -15.6423 C   0  0  0  0  0  0  0  0  0  0  0  0
   17.4223   -9.7614  -17.0024 C   0  0  0  0  0  0  0  0  0  0  0  0
   17.1775  -10.8487  -17.8393 C   0  0  0  0  0  0  0  0  0  0  0  0
   17.0546  -10.6866  -19.3094 C   0  0  0  0  0  0  0  0  0  0  0  0
   18.4104  -10.9602  -19.9829 C   0  0  2  0  0  0  0  0  0  0  0  0
   18.9037  -12.2634  -19.5524 N   0  0  0  0  0  0  0  0  0  0  0  0
   19.3756   -9.8873  -19.6563 C   0  0  0  0  0  0  0  0  0  0  0  0
   20.4597  -10.2353  -19.0698 O   0  0  0  0  0  0  0  0  0  0  0  0
   17.0522  -12.0887  -17.2559 C   0  0  0  0  0  0  0  0  0  0  0  0
   17.1735  -12.1962  -15.8825 C   0  0  0  0  0  0  0  0  0  0  0  0
   19.1151   -8.5331  -19.9779 N   0  0  0  0  0  0  0  0  0  0  0  0
   18.0283   -7.9138  -20.6905 C   0  0  0  0  0  0  0  0  0  0  0  0
   18.8016   -7.0037  -21.6629 C   0  0  0  0  0  0  0  0  0  0  0  0
   20.0305   -6.6296  -20.8766 C   0  0  0  0  0  0  0  0  0  0  0  0
   19.9792   -7.4332  -19.5991 C   0  0  1  0  0  0  0  0  0  0  0  0
   19.4404   -6.6667  -18.4586 C   0  0  0  0  0  0  0  0  0  0  0  0
   18.2277   -6.7361  -18.1688 O   0  0  0  0  0  0  0  0  0  0  0  0
   20.2888   -5.8487  -17.6855 N   0  0  0  0  0  0  0  0  0  0  0  0
   19.8936   -5.2804  -16.4067 C   0  0  1  0  0  0  0  0  0  0  0  0
   20.9405   -5.5980  -15.3750 C   0  0  0  0  0  0  0  0  0  0  0  0
   20.6096   -4.9854  -14.0381 C   0  0  0  0  0  0  0  0  0  0  0  0
   21.6099   -5.3567  -13.0172 C   0  0  0  0  0  0  0  0  0  0  0  0
   22.2494   -6.4358  -13.1675 O   0  0  0  0  0  0  0  0  0  0  0  0
   19.8069   -3.7983  -16.5357 C   0  0  0  0  0  0  0  0  0  0  0  0
   18.9974   -3.0690  -15.6857 O   0  0  0  0  0  0  0  0  0  0  0  0
   21.8764   -4.5748  -11.9050 O   0  0  0  0  0  0  0  0  0  0  0  0
   20.4720   -3.2072  -17.4205 O   0  0  0  0  0  0  0  0  0  0  0  0
  2  1  1  0
  3  2  2  0
  4  3  1  0
  5  4  2  0
  5 11  1  0
  6  5  1  0
  7  6  1  0
  7  8  1  1
  9  7  1  0
 10  9  2  0
 11 12  2  0
 12  2  1  0
 13 14  1  0
 13  9  1  0
 15 14  1  0
 16 17  1  0
 16 15  1  0
 17 13  1  0
 17 18  1  1
 19 18  2  0
 20 18  1  0
 21 22  1  1
 21 20  1  0
 22 23  1  0
 23 24  1  0
 24 28  1  0
 25 24  2  0
 26 27  1  0
 26 21  1  0
 29 26  2  0
M  END
$$$$
