YPE.pdb
     RDKit          3D

 29 30  0  0  1  0  0  0  0  0999 V2000
   16.4124   -8.3817  -14.6518 O   0  0  0  0  0  0  0  0  0  0  0  0
   17.7875   -8.2576  -14.5191 C   0  0  0  0  0  0  0  0  0  0  0  0
   18.5898   -9.3588  -14.4452 C   0  0  0  0  0  0  0  0  0  0  0  0
   19.9429   -9.1878  -14.3144 C   0  0  0  0  0  0  0  0  0  0  0  0
   20.5489   -7.9342  -14.2524 C   0  0  0  0  0  0  0  0  0  0  0  0
   22.0188   -7.7869  -14.1106 C   0  0  0  0  0  0  0  0  0  0  0  0
   22.6539   -7.5123  -15.4847 C   0  0  2  0  0  0  0  0  0  0  0  0
   21.9551   -6.4015  -16.1209 N   0  0  0  0  0  0  0  0  0  0  0  0
   22.6078   -8.7276  -16.3275 C   0  0  0  0  0  0  0  0  0  0  0  0
   21.9246   -8.6631  -17.4089 O   0  0  0  0  0  0  0  0  0  0  0  0
   19.7355   -6.8268  -14.3275 C   0  0  0  0  0  0  0  0  0  0  0  0
   18.3708   -7.0079  -14.4593 C   0  0  0  0  0  0  0  0  0  0  0  0
   23.2893   -9.9124  -15.9575 N   0  0  0  0  0  0  0  0  0  0  0  0
   24.0391  -10.2525  -14.7765 C   0  0  0  0  0  0  0  0  0  0  0  0
   25.3119  -10.8506  -15.4045 C   0  0  0  0  0  0  0  0  0  0  0  0
   24.8021  -11.4838  -16.6724 C   0  0  0  0  0  0  0  0  0  0  0  0
   23.3452  -11.1024  -16.7826 C   0  0  1  0  0  0  0  0  0  0  0  0
   22.4356  -12.1599  -16.3001 C   0  0  0  0  0  0  0  0  0  0  0  0
   22.0167  -12.1431  -15.1238 O   0  0  0  0  0  0  0  0  0  0  0  0
   22.0309  -13.1994  -17.1617 N   0  0  0  0  0  0  0  0  0  0  0  0
   20.7431  -13.8654  -17.0511 C   0  0  1  0  0  0  0  0  0  0  0  0
   19.6428  -12.8603  -17.2529 C   0  0  0  0  0  0  0  0  0  0  0  0
   18.2820  -13.5070  -17.2086 C   0  0  0  0  0  0  0  0  0  0  0  0
   17.2079  -12.4936  -17.2084 C   0  0  0  0  0  0  0  0  0  0  0  0
   16.0145  -12.8832  -17.3492 O   0  0  0  0  0  0  0  0  0  0  0  0
   20.6308  -14.8946  -18.1230 C   0  0  0  0  0  0  0  0  0  0  0  0
   21.5794  -14.9659  -19.1254 O   0  0  0  0  0  0  0  0  0  0  0  0
   17.4522  -11.1379  -17.0608 O   0  0  0  0  0  0  0  0  0  0  0  0
   19.6702  -15.7020  -18.1173 O   0  0  0  0  0  0  0  0  0  0  0  0
  2  1  1  0
  3  2  2  0
  4  3  1  0
  5  4  2  0
  5 11  1  0
  6  5  1  0
  7  6  1  0
  7  8  1  6
  9  7  1  0
 10  9  2  0
 11 12  2  0
 12  2  1  0
 13 14  1  0
 13  9  1  0
 15 14  1  0
 16 17  1  0
 16 15  1  0
 17 13  1  0
 17 18  1  1
 19 18  2  0
 20 18  1  0
 21 22  1  6
 21 20  1  0
 22 23  1  0
 23 24  1  0
 24 28  1  0
 25 24  2  0
 26 27  1  0
 26 21  1  0
 29 26  2  0
M  END
$$$$
