PHE.pdb
     RDKit          3D

 27 28  0  0  1  0  0  0  0  0999 V2000
    7.1806  -15.1018   19.8402 N   0  0  0  0  0  0  0  0  0  0  0  0
    6.9130  -14.8197   18.4352 C   0  0  0  0  0  0  0  0  0  0  0  0
    7.1492  -13.3111   18.4019 C   0  0  0  0  0  0  0  0  0  0  0  0
    8.2613  -13.1090   19.4112 C   0  0  0  0  0  0  0  0  0  0  0  0
    8.4605  -14.4754   20.0131 C   0  0  1  0  0  0  0  0  0  0  0  0
    8.8846  -14.4089   21.4315 C   0  0  0  0  0  0  0  0  0  0  0  0
   10.0997  -14.2252   21.7235 O   0  0  0  0  0  0  0  0  0  0  0  0
    7.8837  -14.5580   22.4287 N   0  0  0  0  0  0  0  0  0  0  0  0
    8.1237  -14.3876   23.8333 C   0  0  1  0  0  0  0  0  0  0  0  0
    6.9880  -13.8026   24.5940 C   0  0  0  0  0  0  0  0  0  0  0  0
    7.3468  -13.5732   26.0179 C   0  0  0  0  0  0  0  0  0  0  0  0
    6.6900  -13.9870   27.1538 C   0  0  0  0  0  0  0  0  0  0  0  0
    7.3555  -13.5643   28.2498 N   0  0  0  0  0  0  0  0  0  0  0  0
    8.4263  -12.8875   27.8156 C   0  0  0  0  0  0  0  0  0  0  0  0
    8.4257  -12.8900   26.4556 N   0  0  0  0  0  0  0  0  0  0  0  0
    8.6685  -15.6314   24.4373 C   0  0  0  0  0  0  0  0  0  0  0  0
    8.0406  -16.6956   24.2616 O   0  0  0  0  0  0  0  0  0  0  0  0
    9.8609  -15.6475   25.1953 N   0  0  0  0  0  0  0  0  0  0  0  0
   10.4369  -16.9240   25.6074 C   0  0  1  0  0  0  0  0  0  0  0  0
   11.8457  -16.9961   25.0636 C   0  0  0  0  0  0  0  0  0  0  0  0
   12.6015  -18.2156   25.4564 C   0  0  0  0  0  0  0  0  0  0  0  0
   13.9764  -18.3044   24.9427 C   0  0  0  0  0  0  0  0  0  0  0  0
   14.6289  -17.3828   24.4378 O   0  0  0  0  0  0  0  0  0  0  0  0
   10.3909  -17.0415   27.0705 C   0  0  0  0  0  0  0  0  0  0  0  0
   10.2087  -16.0603   27.8040 O   0  0  0  0  0  0  0  0  0  0  0  0
   14.6049  -19.5477   25.0337 O   0  0  0  0  0  0  0  0  0  0  0  0
   10.5554  -18.2839   27.6567 O   0  0  0  0  0  0  0  0  0  0  0  0
  2  1  1  0
  3  2  1  0
  4  3  1  0
  4  5  1  0
  5  1  1  0
  5  6  1  1
  6  7  2  0
  8  6  1  0
  8  9  1  0
  9 10  1  1
 11 10  1  0
 12 11  2  0
 13 12  1  0
 14 13  1  0
 14 15  2  0
 15 11  1  0
 16 17  2  0
 16  9  1  0
 18 16  1  0
 19 18  1  0
 19 20  1  1
 21 20  1  0
 22 23  2  0
 22 21  1  0
 24 19  1  0
 24 27  1  0
 25 24  2  0
 26 22  1  0
M  END
$$$$
