PHE.pdb
     RDKit          3D

 27 28  0  0  1  0  0  0  0  0999 V2000
    7.1219  -14.8087   20.0851 N   0  0  0  0  0  0  0  0  0  0  0  0
    6.8504  -14.1942   18.7913 C   0  0  0  0  0  0  0  0  0  0  0  0
    7.1783  -12.7347   19.0994 C   0  0  0  0  0  0  0  0  0  0  0  0
    8.3162  -12.8346   20.0950 C   0  0  0  0  0  0  0  0  0  0  0  0
    8.4404  -14.3122   20.3600 C   0  0  1  0  0  0  0  0  0  0  0  0
    8.8897  -14.6000   21.7425 C   0  0  0  0  0  0  0  0  0  0  0  0
   10.0746  -14.3377   22.0932 O   0  0  0  0  0  0  0  0  0  0  0  0
    7.9475  -15.1726   22.6385 N   0  0  0  0  0  0  0  0  0  0  0  0
    8.2078  -15.4050   24.0306 C   0  0  1  0  0  0  0  0  0  0  0  0
    7.0034  -15.3873   24.9021 C   0  0  0  0  0  0  0  0  0  0  0  0
    6.7523  -14.0315   25.4568 C   0  0  0  0  0  0  0  0  0  0  0  0
    7.4934  -12.8825   25.3037 C   0  0  0  0  0  0  0  0  0  0  0  0
    6.9115  -11.8667   25.9763 N   0  0  0  0  0  0  0  0  0  0  0  0
    5.8099  -12.3645   26.5524 C   0  0  0  0  0  0  0  0  0  0  0  0
    5.7082  -13.6839   26.2388 N   0  0  0  0  0  0  0  0  0  0  0  0
    9.0644  -16.6044   24.2212 C   0  0  0  0  0  0  0  0  0  0  0  0
    9.0178  -17.5048   23.3582 O   0  0  0  0  0  0  0  0  0  0  0  0
    9.9201  -16.7562   25.3354 N   0  0  0  0  0  0  0  0  0  0  0  0
   10.9256  -17.8145   25.3343 C   0  0  1  0  0  0  0  0  0  0  0  0
   12.1141  -17.3263   24.5376 C   0  0  0  0  0  0  0  0  0  0  0  0
   13.2805  -18.2495   24.5332 C   0  0  0  0  0  0  0  0  0  0  0  0
   14.4451  -17.7987   23.7570 C   0  0  0  0  0  0  0  0  0  0  0  0
   14.6697  -16.6418   23.3815 O   0  0  0  0  0  0  0  0  0  0  0  0
   11.2791  -18.1666   26.7154 C   0  0  0  0  0  0  0  0  0  0  0  0
   12.0120  -19.1288   26.9821 O   0  0  0  0  0  0  0  0  0  0  0  0
   15.3870  -18.7694   23.4112 O   0  0  0  0  0  0  0  0  0  0  0  0
   10.7822  -17.4049   27.7581 O   0  0  0  0  0  0  0  0  0  0  0  0
  2  1  1  0
  3  2  1  0
  4  3  1  0
  4  5  1  0
  5  1  1  0
  5  6  1  1
  6  7  2  0
  8  6  1  0
  8  9  1  0
  9 10  1  1
 11 10  1  0
 12 11  2  0
 13 12  1  0
 14 13  1  0
 14 15  2  0
 15 11  1  0
 16 17  2  0
 16  9  1  0
 18 16  1  0
 19 18  1  0
 19 20  1  6
 21 20  1  0
 22 23  2  0
 22 21  1  0
 24 19  1  0
 24 27  1  0
 25 24  2  0
 26 22  1  0
M  END
$$$$
