PHE.pdb
     RDKit          3D

 27 28  0  0  1  0  0  0  0  0999 V2000
    6.9451  -14.5945   21.0631 N   0  0  0  0  0  0  0  0  0  0  0  0
    6.4750  -13.9402   19.8481 C   0  0  0  0  0  0  0  0  0  0  0  0
    7.1288  -12.5679   19.9975 C   0  0  0  0  0  0  0  0  0  0  0  0
    8.4417  -12.8792   20.6869 C   0  0  0  0  0  0  0  0  0  0  0  0
    8.3579  -14.3539   20.9824 C   0  0  1  0  0  0  0  0  0  0  0  0
    9.0785  -14.7206   22.2243 C   0  0  0  0  0  0  0  0  0  0  0  0
   10.3325  -14.5852   22.2951 O   0  0  0  0  0  0  0  0  0  0  0  0
    8.3118  -15.2214   23.3106 N   0  0  0  0  0  0  0  0  0  0  0  0
    8.8259  -15.3928   24.6394 C   0  0  1  0  0  0  0  0  0  0  0  0
    7.8094  -15.2913   25.7197 C   0  0  0  0  0  0  0  0  0  0  0  0
    7.1846  -13.9433   25.7549 C   0  0  0  0  0  0  0  0  0  0  0  0
    7.6596  -12.7834   26.3222 C   0  0  0  0  0  0  0  0  0  0  0  0
    6.7771  -11.7806   26.1265 N   0  0  0  0  0  0  0  0  0  0  0  0
    5.7495  -12.2973   25.4408 C   0  0  0  0  0  0  0  0  0  0  0  0
    5.9930  -13.6156   25.2116 N   0  0  0  0  0  0  0  0  0  0  0  0
    9.6748  -16.6092   24.7314 C   0  0  0  0  0  0  0  0  0  0  0  0
    9.2086  -17.6864   24.3070 O   0  0  0  0  0  0  0  0  0  0  0  0
   10.9777  -16.5855   25.2777 N   0  0  0  0  0  0  0  0  0  0  0  0
   11.7200  -17.8335   25.4280 C   0  0  1  0  0  0  0  0  0  0  0  0
   13.1848  -17.5336   25.2041 C   0  0  0  0  0  0  0  0  0  0  0  0
   13.4967  -16.9045   23.8927 C   0  0  0  0  0  0  0  0  0  0  0  0
   14.9227  -16.6665   23.6249 C   0  0  0  0  0  0  0  0  0  0  0  0
   15.6795  -15.9439   24.2845 O   0  0  0  0  0  0  0  0  0  0  0  0
   11.4592  -18.4113   26.7527 C   0  0  0  0  0  0  0  0  0  0  0  0
   10.8097  -17.8076   27.6175 O   0  0  0  0  0  0  0  0  0  0  0  0
   15.4748  -17.3185   22.5208 O   0  0  0  0  0  0  0  0  0  0  0  0
   11.9507  -19.6692   27.0529 O   0  0  0  0  0  0  0  0  0  0  0  0
  2  1  1  0
  3  2  1  0
  4  3  1  0
  4  5  1  0
  5  1  1  0
  5  6  1  1
  6  7  2  0
  8  6  1  0
  8  9  1  0
  9 10  1  1
 11 10  1  0
 12 11  2  0
 13 12  1  0
 14 13  1  0
 14 15  2  0
 15 11  1  0
 16 17  2  0
 16  9  1  0
 18 16  1  0
 19 18  1  0
 19 20  1  1
 21 20  1  0
 22 23  2  0
 22 21  1  0
 24 19  1  0
 24 27  1  0
 25 24  2  0
 26 22  1  0
M  END
$$$$
