PHE.pdb
     RDKit          3D

 27 28  0  0  1  0  0  0  0  0999 V2000
    8.5345  -18.7623   18.9449 N   0  0  0  0  0  0  0  0  0  0  0  0
    7.8895  -19.1644   17.7010 C   0  0  0  0  0  0  0  0  0  0  0  0
    7.2641  -17.8399   17.2681 C   0  0  0  0  0  0  0  0  0  0  0  0
    8.2634  -16.8075   17.7495 C   0  0  0  0  0  0  0  0  0  0  0  0
    9.2799  -17.6132   18.5155 C   0  0  1  0  0  0  0  0  0  0  0  0
    9.8680  -16.8515   19.6424 C   0  0  0  0  0  0  0  0  0  0  0  0
   11.0139  -16.3320   19.5290 O   0  0  0  0  0  0  0  0  0  0  0  0
    9.1013  -16.7337   20.8326 N   0  0  0  0  0  0  0  0  0  0  0  0
    9.4725  -15.9042   21.9434 C   0  0  1  0  0  0  0  0  0  0  0  0
    8.3816  -15.0428   22.4710 C   0  0  0  0  0  0  0  0  0  0  0  0
    7.7780  -14.2099   21.3982 C   0  0  0  0  0  0  0  0  0  0  0  0
    6.4793  -14.1903   20.9446 C   0  0  0  0  0  0  0  0  0  0  0  0
    6.3519  -13.2830   19.9530 N   0  0  0  0  0  0  0  0  0  0  0  0
    7.5587  -12.7300   19.7768 C   0  0  0  0  0  0  0  0  0  0  0  0
    8.4318  -13.2916   20.6554 N   0  0  0  0  0  0  0  0  0  0  0  0
   10.1682  -16.6949   22.9919 C   0  0  0  0  0  0  0  0  0  0  0  0
    9.6624  -17.7802   23.3441 O   0  0  0  0  0  0  0  0  0  0  0  0
   11.3702  -16.2622   23.5959 N   0  0  0  0  0  0  0  0  0  0  0  0
   12.0409  -17.1226   24.5659 C   0  0  1  0  0  0  0  0  0  0  0  0
   13.5020  -16.7357   24.5992 C   0  0  0  0  0  0  0  0  0  0  0  0
   14.1911  -16.7971   23.2824 C   0  0  0  0  0  0  0  0  0  0  0  0
   15.6178  -16.4415   23.2943 C   0  0  0  0  0  0  0  0  0  0  0  0
   16.3877  -16.4766   22.3268 O   0  0  0  0  0  0  0  0  0  0  0  0
   11.3935  -16.9930   25.8776 C   0  0  0  0  0  0  0  0  0  0  0  0
   10.5175  -16.1456   26.0981 O   0  0  0  0  0  0  0  0  0  0  0  0
   16.1541  -16.0246   24.5140 O   0  0  0  0  0  0  0  0  0  0  0  0
   11.7678  -17.8400   26.9055 O   0  0  0  0  0  0  0  0  0  0  0  0
  2  1  1  0
  3  2  1  0
  4  3  1  0
  4  5  1  0
  5  1  1  0
  5  6  1  1
  6  7  2  0
  8  6  1  0
  8  9  1  0
  9 10  1  1
 11 10  1  0
 12 11  2  0
 13 12  1  0
 14 13  1  0
 14 15  2  0
 15 11  1  0
 16 17  2  0
 16  9  1  0
 18 16  1  0
 19 18  1  0
 19 20  1  1
 21 20  1  0
 22 23  2  0
 22 21  1  0
 24 19  1  0
 24 27  1  0
 25 24  2  0
 26 22  1  0
M  END
$$$$
