PHE.pdb
     RDKit          3D

 27 28  0  0  1  0  0  0  0  0999 V2000
    7.0670  -15.0042   19.2834 N   0  0  0  0  0  0  0  0  0  0  0  0
    6.9735  -14.7552   17.8500 C   0  0  0  0  0  0  0  0  0  0  0  0
    7.3656  -13.2801   17.7953 C   0  0  0  0  0  0  0  0  0  0  0  0
    8.3846  -13.1476   18.9090 C   0  0  0  0  0  0  0  0  0  0  0  0
    8.3803  -14.5010   19.5703 C   0  0  1  0  0  0  0  0  0  0  0  0
    8.6631  -14.4184   21.0226 C   0  0  0  0  0  0  0  0  0  0  0  0
    9.8467  -14.2514   21.4311 O   0  0  0  0  0  0  0  0  0  0  0  0
    7.5657  -14.5330   21.9177 N   0  0  0  0  0  0  0  0  0  0  0  0
    7.6812  -14.4113   23.3430 C   0  0  1  0  0  0  0  0  0  0  0  0
    6.4089  -14.1038   24.0481 C   0  0  0  0  0  0  0  0  0  0  0  0
    6.6535  -13.6665   25.4473 C   0  0  0  0  0  0  0  0  0  0  0  0
    7.8444  -13.5744   26.1300 C   0  0  0  0  0  0  0  0  0  0  0  0
    7.6218  -13.1317   27.3858 N   0  0  0  0  0  0  0  0  0  0  0  0
    6.3010  -12.9436   27.5017 C   0  0  0  0  0  0  0  0  0  0  0  0
    5.7060  -13.2682   26.3226 N   0  0  0  0  0  0  0  0  0  0  0  0
    8.4190  -15.5652   23.9199 C   0  0  0  0  0  0  0  0  0  0  0  0
    7.9585  -16.7105   23.7357 O   0  0  0  0  0  0  0  0  0  0  0  0
    9.6115  -15.4089   24.6617 N   0  0  0  0  0  0  0  0  0  0  0  0
   10.4372  -16.5764   24.9549 C   0  0  1  0  0  0  0  0  0  0  0  0
   11.8508  -16.2688   24.5159 C   0  0  0  0  0  0  0  0  0  0  0  0
   12.8251  -17.3699   24.7419 C   0  0  0  0  0  0  0  0  0  0  0  0
   14.1977  -17.1082   24.2844 C   0  0  0  0  0  0  0  0  0  0  0  0
   14.6201  -17.2376   23.1291 O   0  0  0  0  0  0  0  0  0  0  0  0
   10.3493  -16.9020   26.3842 C   0  0  0  0  0  0  0  0  0  0  0  0
   10.6624  -18.0160   26.8258 O   0  0  0  0  0  0  0  0  0  0  0  0
   15.1110  -16.6721   25.2460 O   0  0  0  0  0  0  0  0  0  0  0  0
    9.9037  -15.9397   27.2729 O   0  0  0  0  0  0  0  0  0  0  0  0
  2  1  1  0
  3  2  1  0
  4  3  1  0
  4  5  1  0
  5  1  1  0
  5  6  1  1
  6  7  2  0
  8  6  1  0
  8  9  1  0
  9 10  1  1
 11 10  1  0
 12 11  2  0
 13 12  1  0
 14 13  1  0
 14 15  2  0
 15 11  1  0
 16 17  2  0
 16  9  1  0
 18 16  1  0
 19 18  1  0
 19 20  1  1
 21 20  1  0
 22 23  2  0
 22 21  1  0
 24 19  1  0
 24 27  1  0
 25 24  2  0
 26 22  1  0
M  END
$$$$
