PHE.pdb
     RDKit          3D

 27 28  0  0  1  0  0  0  0  0999 V2000
    8.8320  -14.0899   17.9759 N   0  0  0  0  0  0  0  0  0  0  0  0
    8.3568  -12.8392   17.3969 C   0  0  0  0  0  0  0  0  0  0  0  0
    7.1824  -12.5296   18.3230 C   0  0  0  0  0  0  0  0  0  0  0  0
    7.6466  -13.0579   19.6651 C   0  0  0  0  0  0  0  0  0  0  0  0
    8.9608  -13.7275   19.3588 C   0  0  1  0  0  0  0  0  0  0  0  0
    9.2180  -14.8911   20.2397 C   0  0  0  0  0  0  0  0  0  0  0  0
    9.1437  -14.7669   21.4946 O   0  0  0  0  0  0  0  0  0  0  0  0
    9.5456  -16.1282   19.6226 N   0  0  0  0  0  0  0  0  0  0  0  0
    9.6968  -17.3628   20.3384 C   0  0  1  0  0  0  0  0  0  0  0  0
    9.3394  -18.5809   19.5643 C   0  0  0  0  0  0  0  0  0  0  0  0
    9.3435  -19.7932   20.4239 C   0  0  0  0  0  0  0  0  0  0  0  0
    8.6484  -20.0325   21.5868 C   0  0  0  0  0  0  0  0  0  0  0  0
    8.9397  -21.2662   22.0514 N   0  0  0  0  0  0  0  0  0  0  0  0
    9.8124  -21.8076   21.1920 C   0  0  0  0  0  0  0  0  0  0  0  0
   10.0620  -20.9137   20.1979 N   0  0  0  0  0  0  0  0  0  0  0  0
   11.0288  -17.4415   20.9929 C   0  0  0  0  0  0  0  0  0  0  0  0
   11.9897  -16.8641   20.4443 O   0  0  0  0  0  0  0  0  0  0  0  0
   11.2396  -18.1409   22.2024 N   0  0  0  0  0  0  0  0  0  0  0  0
   12.5658  -18.1439   22.8126 C   0  0  1  0  0  0  0  0  0  0  0  0
   12.4343  -18.7083   24.2090 C   0  0  0  0  0  0  0  0  0  0  0  0
   13.7247  -18.9156   24.9193 C   0  0  0  0  0  0  0  0  0  0  0  0
   13.6231  -19.4997   26.2648 C   0  0  0  0  0  0  0  0  0  0  0  0
   12.6805  -20.1718   26.7005 O   0  0  0  0  0  0  0  0  0  0  0  0
   13.4959  -18.9154   21.9782 C   0  0  0  0  0  0  0  0  0  0  0  0
   13.1289  -19.8983   21.3200 O   0  0  0  0  0  0  0  0  0  0  0  0
   14.6928  -19.2741   27.1331 O   0  0  0  0  0  0  0  0  0  0  0  0
   14.8261  -18.5396   21.9197 O   0  0  0  0  0  0  0  0  0  0  0  0
  2  1  1  0
  3  2  1  0
  4  3  1  0
  4  5  1  0
  5  1  1  0
  5  6  1  1
  6  7  2  0
  8  6  1  0
  8  9  1  0
  9 10  1  6
 11 10  1  0
 12 11  2  0
 13 12  1  0
 14 13  1  0
 14 15  2  0
 15 11  1  0
 16 17  2  0
 16  9  1  0
 18 16  1  0
 19 18  1  0
 19 20  1  1
 21 20  1  0
 22 23  2  0
 22 21  1  0
 24 19  1  0
 24 27  1  0
 25 24  2  0
 26 22  1  0
M  END
$$$$
