PHE.pdb
     RDKit          3D

 27 28  0  0  1  0  0  0  0  0999 V2000
    7.5032  -14.8044   20.0275 N   0  0  0  0  0  0  0  0  0  0  0  0
    7.1183  -14.1081   18.8059 C   0  0  0  0  0  0  0  0  0  0  0  0
    7.4567  -12.6678   19.1853 C   0  0  0  0  0  0  0  0  0  0  0  0
    8.6749  -12.8173   20.0740 C   0  0  0  0  0  0  0  0  0  0  0  0
    8.8352  -14.3075   20.2256 C   0  0  1  0  0  0  0  0  0  0  0  0
    9.4015  -14.6811   21.5431 C   0  0  0  0  0  0  0  0  0  0  0  0
   10.5656  -14.3093   21.8629 O   0  0  0  0  0  0  0  0  0  0  0  0
    8.5932  -15.4607   22.4134 N   0  0  0  0  0  0  0  0  0  0  0  0
    8.9605  -15.7941   23.7600 C   0  0  1  0  0  0  0  0  0  0  0  0
    7.8376  -15.7810   24.7345 C   0  0  0  0  0  0  0  0  0  0  0  0
    7.2538  -14.4214   24.8744 C   0  0  0  0  0  0  0  0  0  0  0  0
    7.3492  -13.5424   25.9284 C   0  0  0  0  0  0  0  0  0  0  0  0
    6.6684  -12.4110   25.6471 N   0  0  0  0  0  0  0  0  0  0  0  0
    6.1442  -12.5683   24.4249 C   0  0  0  0  0  0  0  0  0  0  0  0
    6.4981  -13.7923   23.9494 N   0  0  0  0  0  0  0  0  0  0  0  0
    9.7707  -17.0394   23.8004 C   0  0  0  0  0  0  0  0  0  0  0  0
    9.8013  -17.7556   22.7788 O   0  0  0  0  0  0  0  0  0  0  0  0
   10.4991  -17.4337   24.9452 N   0  0  0  0  0  0  0  0  0  0  0  0
   11.2755  -18.6695   24.9163 C   0  0  1  0  0  0  0  0  0  0  0  0
   12.3430  -18.5238   23.8557 C   0  0  0  0  0  0  0  0  0  0  0  0
   13.2807  -17.3891   24.0698 C   0  0  0  0  0  0  0  0  0  0  0  0
   14.3452  -17.2458   23.0657 C   0  0  0  0  0  0  0  0  0  0  0  0
   15.4487  -17.8042   23.0858 O   0  0  0  0  0  0  0  0  0  0  0  0
   11.8361  -18.9364   26.2471 C   0  0  0  0  0  0  0  0  0  0  0  0
   12.5077  -19.9490   26.4871 O   0  0  0  0  0  0  0  0  0  0  0  0
   14.0853  -16.3985   21.9870 O   0  0  0  0  0  0  0  0  0  0  0  0
   11.6120  -18.0335   27.2712 O   0  0  0  0  0  0  0  0  0  0  0  0
  2  1  1  0
  3  2  1  0
  4  3  1  0
  4  5  1  0
  5  1  1  0
  5  6  1  1
  6  7  2  0
  8  6  1  0
  8  9  1  0
  9 10  1  1
 11 10  1  0
 12 11  2  0
 13 12  1  0
 14 13  1  0
 14 15  2  0
 15 11  1  0
 16 17  2  0
 16  9  1  0
 18 16  1  0
 19 18  1  0
 19 20  1  6
 21 20  1  0
 22 23  2  0
 22 21  1  0
 24 19  1  0
 24 27  1  0
 25 24  2  0
 26 22  1  0
M  END
$$$$
