PHE.pdb
     RDKit          3D

 27 28  0  0  1  0  0  0  0  0999 V2000
    8.5665  -13.3768   19.8822 N   0  0  0  0  0  0  0  0  0  0  0  0
    7.2505  -12.8506   19.5411 C   0  0  0  0  0  0  0  0  0  0  0  0
    7.3151  -12.9001   18.0159 C   0  0  0  0  0  0  0  0  0  0  0  0
    8.1541  -14.1317   17.7413 C   0  0  0  0  0  0  0  0  0  0  0  0
    8.5943  -14.5855   19.1086 C   0  0  1  0  0  0  0  0  0  0  0  0
    9.9303  -15.2264   19.0855 C   0  0  0  0  0  0  0  0  0  0  0  0
   10.0985  -16.3235   18.4823 O   0  0  0  0  0  0  0  0  0  0  0  0
   10.9927  -14.5654   19.7584 N   0  0  0  0  0  0  0  0  0  0  0  0
   12.3356  -15.0678   19.8185 C   0  0  1  0  0  0  0  0  0  0  0  0
   13.3407  -14.2510   19.0884 C   0  0  0  0  0  0  0  0  0  0  0  0
   13.8897  -14.9823   17.9168 C   0  0  0  0  0  0  0  0  0  0  0  0
   13.5805  -16.2428   17.4604 C   0  0  0  0  0  0  0  0  0  0  0  0
   14.3113  -16.5262   16.3611 N   0  0  0  0  0  0  0  0  0  0  0  0
   15.0788  -15.4557   16.1198 C   0  0  0  0  0  0  0  0  0  0  0  0
   14.8257  -14.5116   17.0654 N   0  0  0  0  0  0  0  0  0  0  0  0
   12.7261  -15.3837   21.2173 C   0  0  0  0  0  0  0  0  0  0  0  0
   12.6872  -14.4652   22.0615 O   0  0  0  0  0  0  0  0  0  0  0  0
   13.1352  -16.6757   21.6173 N   0  0  0  0  0  0  0  0  0  0  0  0
   13.4338  -16.9353   23.0225 C   0  0  1  0  0  0  0  0  0  0  0  0
   13.3276  -18.4256   23.2533 C   0  0  0  0  0  0  0  0  0  0  0  0
   13.5166  -18.8505   24.6662 C   0  0  0  0  0  0  0  0  0  0  0  0
   13.3429  -20.2871   24.9268 C   0  0  0  0  0  0  0  0  0  0  0  0
   13.3654  -20.8368   26.0346 O   0  0  0  0  0  0  0  0  0  0  0  0
   14.7632  -16.4069   23.3546 C   0  0  0  0  0  0  0  0  0  0  0  0
   15.6560  -16.2901   22.5042 O   0  0  0  0  0  0  0  0  0  0  0  0
   13.1325  -21.1086   23.8178 O   0  0  0  0  0  0  0  0  0  0  0  0
   15.0357  -16.0252   24.6562 O   0  0  0  0  0  0  0  0  0  0  0  0
  2  1  1  0
  3  2  1  0
  4  3  1  0
  4  5  1  0
  5  1  1  0
  5  6  1  6
  6  7  2  0
  8  6  1  0
  8  9  1  0
  9 10  1  1
 11 10  1  0
 12 11  2  0
 13 12  1  0
 14 13  1  0
 14 15  2  0
 15 11  1  0
 16 17  2  0
 16  9  1  0
 18 16  1  0
 19 18  1  0
 19 20  1  6
 21 20  1  0
 22 23  2  0
 22 21  1  0
 24 19  1  0
 24 27  1  0
 25 24  2  0
 26 22  1  0
M  END
$$$$
