PHE.pdb
     RDKit          3D

 27 28  0  0  1  0  0  0  0  0999 V2000
    7.2063  -14.9984   20.2210 N   0  0  0  0  0  0  0  0  0  0  0  0
    6.8636  -14.4979   18.8954 C   0  0  0  0  0  0  0  0  0  0  0  0
    7.0448  -12.9961   19.1069 C   0  0  0  0  0  0  0  0  0  0  0  0
    8.1951  -12.9178   20.0903 C   0  0  0  0  0  0  0  0  0  0  0  0
    8.4700  -14.3557   20.4453 C   0  0  1  0  0  0  0  0  0  0  0  0
    8.9573  -14.5083   21.8365 C   0  0  0  0  0  0  0  0  0  0  0  0
   10.0880  -14.0524   22.1675 O   0  0  0  0  0  0  0  0  0  0  0  0
    8.1133  -15.1770   22.7633 N   0  0  0  0  0  0  0  0  0  0  0  0
    8.4357  -15.3599   24.1497 C   0  0  1  0  0  0  0  0  0  0  0  0
    7.2610  -15.4626   25.0553 C   0  0  0  0  0  0  0  0  0  0  0  0
    6.7647  -14.1209   25.4580 C   0  0  0  0  0  0  0  0  0  0  0  0
    7.2753  -12.8808   25.1510 C   0  0  0  0  0  0  0  0  0  0  0  0
    6.5190  -11.9180   25.7202 N   0  0  0  0  0  0  0  0  0  0  0  0
    5.5358  -12.5396   26.3836 C   0  0  0  0  0  0  0  0  0  0  0  0
    5.6810  -13.8827   26.2270 N   0  0  0  0  0  0  0  0  0  0  0  0
    9.4244  -16.4549   24.3286 C   0  0  0  0  0  0  0  0  0  0  0  0
    9.0619  -17.6226   24.0781 O   0  0  0  0  0  0  0  0  0  0  0  0
   10.7464  -16.2190   24.7683 N   0  0  0  0  0  0  0  0  0  0  0  0
   11.6939  -17.3277   24.8335 C   0  0  1  0  0  0  0  0  0  0  0  0
   13.0676  -16.7856   24.5098 C   0  0  0  0  0  0  0  0  0  0  0  0
   14.1604  -17.7936   24.5583 C   0  0  0  0  0  0  0  0  0  0  0  0
   15.5024  -17.2928   24.2260 C   0  0  0  0  0  0  0  0  0  0  0  0
   16.5746  -17.8602   24.4674 O   0  0  0  0  0  0  0  0  0  0  0  0
   11.6341  -17.9561   26.1595 C   0  0  0  0  0  0  0  0  0  0  0  0
   11.1383  -17.3813   27.1382 O   0  0  0  0  0  0  0  0  0  0  0  0
   15.5725  -16.0592   23.5761 O   0  0  0  0  0  0  0  0  0  0  0  0
   12.1455  -19.2303   26.3300 O   0  0  0  0  0  0  0  0  0  0  0  0
  2  1  1  0
  3  2  1  0
  4  3  1  0
  4  5  1  0
  5  1  1  0
  5  6  1  1
  6  7  2  0
  8  6  1  0
  8  9  1  0
  9 10  1  1
 11 10  1  0
 12 11  2  0
 13 12  1  0
 14 13  1  0
 14 15  2  0
 15 11  1  0
 16 17  2  0
 16  9  1  0
 18 16  1  0
 19 18  1  0
 19 20  1  1
 21 20  1  0
 22 23  2  0
 22 21  1  0
 24 19  1  0
 24 27  1  0
 25 24  2  0
 26 22  1  0
M  END
$$$$
