PHE.pdb
     RDKit          3D

 27 28  0  0  1  0  0  0  0  0999 V2000
   10.0941  -17.8508   17.9270 N   0  0  0  0  0  0  0  0  0  0  0  0
   10.4712  -18.9674   17.0691 C   0  0  0  0  0  0  0  0  0  0  0  0
   10.9020  -19.9927   18.1159 C   0  0  0  0  0  0  0  0  0  0  0  0
    9.9722  -19.7158   19.2799 C   0  0  0  0  0  0  0  0  0  0  0  0
    9.2024  -18.4947   18.8494 C   0  0  1  0  0  0  0  0  0  0  0  0
    8.8325  -17.6302   19.9948 C   0  0  0  0  0  0  0  0  0  0  0  0
    8.0318  -18.0514   20.8764 O   0  0  0  0  0  0  0  0  0  0  0  0
    9.4068  -16.3322   20.0563 N   0  0  0  0  0  0  0  0  0  0  0  0
    9.0470  -15.3449   21.0338 C   0  0  1  0  0  0  0  0  0  0  0  0
    7.7114  -14.7239   20.8311 C   0  0  0  0  0  0  0  0  0  0  0  0
    7.5906  -14.1212   19.4780 C   0  0  0  0  0  0  0  0  0  0  0  0
    7.8776  -12.8381   19.0729 C   0  0  0  0  0  0  0  0  0  0  0  0
    7.6265  -12.7053   17.7530 N   0  0  0  0  0  0  0  0  0  0  0  0
    7.1838  -13.8932   17.3216 C   0  0  0  0  0  0  0  0  0  0  0  0
    7.1599  -14.7600   18.3694 N   0  0  0  0  0  0  0  0  0  0  0  0
    9.2652  -15.8538   22.4129 C   0  0  0  0  0  0  0  0  0  0  0  0
    8.2723  -16.2435   23.0610 O   0  0  0  0  0  0  0  0  0  0  0  0
   10.5461  -15.9099   23.0070 N   0  0  0  0  0  0  0  0  0  0  0  0
   10.8372  -16.9413   23.9982 C   0  0  1  0  0  0  0  0  0  0  0  0
   10.5211  -18.2840   23.3794 C   0  0  0  0  0  0  0  0  0  0  0  0
   10.7008  -19.4458   24.2907 C   0  0  0  0  0  0  0  0  0  0  0  0
   10.4128  -20.7635   23.7053 C   0  0  0  0  0  0  0  0  0  0  0  0
    9.3387  -21.1236   23.2087 O   0  0  0  0  0  0  0  0  0  0  0  0
   12.2367  -16.8354   24.4304 C   0  0  0  0  0  0  0  0  0  0  0  0
   12.6274  -17.2930   25.5130 O   0  0  0  0  0  0  0  0  0  0  0  0
   11.4509  -21.6970   23.7107 O   0  0  0  0  0  0  0  0  0  0  0  0
   13.1547  -16.2062   23.6084 O   0  0  0  0  0  0  0  0  0  0  0  0
  2  1  1  0
  3  2  1  0
  4  3  1  0
  4  5  1  0
  5  1  1  0
  5  6  1  1
  6  7  2  0
  8  6  1  0
  8  9  1  0
  9 10  1  1
 11 10  1  0
 12 11  2  0
 13 12  1  0
 14 13  1  0
 14 15  2  0
 15 11  1  0
 16 17  2  0
 16  9  1  0
 18 16  1  0
 19 18  1  0
 19 20  1  6
 21 20  1  0
 22 23  2  0
 22 21  1  0
 24 19  1  0
 24 27  1  0
 25 24  2  0
 26 22  1  0
M  END
$$$$
