PHE.pdb
     RDKit          3D

 27 28  0  0  1  0  0  0  0  0999 V2000
    7.2244  -15.1800   19.6587 N   0  0  0  0  0  0  0  0  0  0  0  0
    7.0845  -14.9754   18.2221 C   0  0  0  0  0  0  0  0  0  0  0  0
    7.4689  -13.5015   18.1098 C   0  0  0  0  0  0  0  0  0  0  0  0
    8.5222  -13.3318   19.1859 C   0  0  0  0  0  0  0  0  0  0  0  0
    8.5441  -14.6643   19.8882 C   0  0  1  0  0  0  0  0  0  0  0  0
    8.8726  -14.5362   21.3275 C   0  0  0  0  0  0  0  0  0  0  0  0
   10.0491  -14.2507   21.6880 O   0  0  0  0  0  0  0  0  0  0  0  0
    7.8262  -14.7447   22.2658 N   0  0  0  0  0  0  0  0  0  0  0  0
    7.9647  -14.5294   23.6779 C   0  0  1  0  0  0  0  0  0  0  0  0
    6.8423  -13.7859   24.3087 C   0  0  0  0  0  0  0  0  0  0  0  0
    7.1452  -13.4383   25.7216 C   0  0  0  0  0  0  0  0  0  0  0  0
    6.4426  -13.7557   26.8611 C   0  0  0  0  0  0  0  0  0  0  0  0
    7.0656  -13.2428   27.9436 N   0  0  0  0  0  0  0  0  0  0  0  0
    8.1550  -12.6047   27.4973 C   0  0  0  0  0  0  0  0  0  0  0  0
    8.2082  -12.7208   26.1433 N   0  0  0  0  0  0  0  0  0  0  0  0
    8.3126  -15.7925   24.3795 C   0  0  0  0  0  0  0  0  0  0  0  0
    7.5565  -16.7747   24.2340 O   0  0  0  0  0  0  0  0  0  0  0  0
    9.4588  -15.9154   25.1968 N   0  0  0  0  0  0  0  0  0  0  0  0
    9.8036  -17.2149   25.7655 C   0  0  1  0  0  0  0  0  0  0  0  0
   11.2235  -17.5386   25.3597 C   0  0  0  0  0  0  0  0  0  0  0  0
   11.5572  -17.2070   23.9486 C   0  0  0  0  0  0  0  0  0  0  0  0
   12.9325  -17.5171   23.5308 C   0  0  0  0  0  0  0  0  0  0  0  0
   13.8531  -16.7039   23.3858 O   0  0  0  0  0  0  0  0  0  0  0  0
    9.6274  -17.1827   27.2231 C   0  0  0  0  0  0  0  0  0  0  0  0
    9.4096  -16.1290   27.8364 O   0  0  0  0  0  0  0  0  0  0  0  0
   13.2268  -18.8573   23.2734 O   0  0  0  0  0  0  0  0  0  0  0  0
    9.7057  -18.3622   27.9420 O   0  0  0  0  0  0  0  0  0  0  0  0
  2  1  1  0
  3  2  1  0
  4  3  1  0
  4  5  1  0
  5  1  1  0
  5  6  1  1
  6  7  2  0
  8  6  1  0
  8  9  1  0
  9 10  1  1
 11 10  1  0
 12 11  2  0
 13 12  1  0
 14 13  1  0
 14 15  2  0
 15 11  1  0
 16 17  2  0
 16  9  1  0
 18 16  1  0
 19 18  1  0
 19 20  1  1
 21 20  1  0
 22 23  2  0
 22 21  1  0
 24 19  1  0
 24 27  1  0
 25 24  2  0
 26 22  1  0
M  END
$$$$
