PHE.pdb
     RDKit          3D

 27 28  0  0  1  0  0  0  0  0999 V2000
    9.0512  -14.0882   18.4913 N   0  0  0  0  0  0  0  0  0  0  0  0
    8.3098  -13.0027   17.8608 C   0  0  0  0  0  0  0  0  0  0  0  0
    7.0295  -13.0165   18.6935 C   0  0  0  0  0  0  0  0  0  0  0  0
    7.5143  -13.4118   20.0737 C   0  0  0  0  0  0  0  0  0  0  0  0
    8.9769  -13.7119   19.8746 C   0  0  1  0  0  0  0  0  0  0  0  0
    9.4632  -14.7720   20.7888 C   0  0  0  0  0  0  0  0  0  0  0  0
    9.1614  -14.7413   22.0151 O   0  0  0  0  0  0  0  0  0  0  0  0
   10.2680  -15.8042   20.2361 N   0  0  0  0  0  0  0  0  0  0  0  0
   10.7509  -16.9287   20.9855 C   0  0  1  0  0  0  0  0  0  0  0  0
   11.0711  -18.1305   20.1708 C   0  0  0  0  0  0  0  0  0  0  0  0
    9.8707  -18.6417   19.4591 C   0  0  0  0  0  0  0  0  0  0  0  0
    8.7820  -19.3113   19.9681 C   0  0  0  0  0  0  0  0  0  0  0  0
    7.9120  -19.5965   18.9759 N   0  0  0  0  0  0  0  0  0  0  0  0
    8.4420  -19.1128   17.8453 C   0  0  0  0  0  0  0  0  0  0  0  0
    9.6362  -18.5297   18.1343 N   0  0  0  0  0  0  0  0  0  0  0  0
   11.8432  -16.5261   21.9094 C   0  0  0  0  0  0  0  0  0  0  0  0
   12.6177  -15.6176   21.5455 O   0  0  0  0  0  0  0  0  0  0  0  0
   12.0307  -17.1320   23.1721 N   0  0  0  0  0  0  0  0  0  0  0  0
   13.1010  -16.6618   24.0464 C   0  0  1  0  0  0  0  0  0  0  0  0
   12.8519  -17.2204   25.4289 C   0  0  0  0  0  0  0  0  0  0  0  0
   11.5196  -16.8896   26.0019 C   0  0  0  0  0  0  0  0  0  0  0  0
   11.1920  -17.5517   27.2732 C   0  0  0  0  0  0  0  0  0  0  0  0
   11.8299  -18.4681   27.8054 O   0  0  0  0  0  0  0  0  0  0  0  0
   14.4031  -17.0667   23.5012 C   0  0  0  0  0  0  0  0  0  0  0  0
   14.5042  -17.8934   22.5845 O   0  0  0  0  0  0  0  0  0  0  0  0
   10.0522  -17.1030   27.9430 O   0  0  0  0  0  0  0  0  0  0  0  0
   15.5587  -16.5121   24.0220 O   0  0  0  0  0  0  0  0  0  0  0  0
  2  1  1  0
  3  2  1  0
  4  3  1  0
  4  5  1  0
  5  1  1  0
  5  6  1  1
  6  7  2  0
  8  6  1  0
  8  9  1  0
  9 10  1  6
 11 10  1  0
 12 11  2  0
 13 12  1  0
 14 13  1  0
 14 15  2  0
 15 11  1  0
 16 17  2  0
 16  9  1  0
 18 16  1  0
 19 18  1  0
 19 20  1  1
 21 20  1  0
 22 23  2  0
 22 21  1  0
 24 19  1  0
 24 27  1  0
 25 24  2  0
 26 22  1  0
M  END
$$$$
