PRN.pdb
     RDKit          3D

 27 27  0  0  1  0  0  0  0  0999 V2000
    6.4115  -19.6119   22.5814 N   0  0  0  0  0  0  0  0  0  0  0  0
    6.6934  -20.8736   23.2360 C   0  0  0  0  0  0  0  0  0  0  0  0
    7.1837  -20.3849   24.6041 C   0  0  0  0  0  0  0  0  0  0  0  0
    6.0867  -19.3607   24.9212 C   0  0  0  0  0  0  0  0  0  0  0  0
    5.9352  -18.6961   23.5627 C   0  0  1  0  0  0  0  0  0  0  0  0
    6.7982  -17.4913   23.5787 C   0  0  0  0  0  0  0  0  0  0  0  0
    6.5671  -16.6057   24.4374 O   0  0  0  0  0  0  0  0  0  0  0  0
    7.1944  -13.2370   16.7084 N   0  0  0  0  0  0  0  0  0  0  0  0
    7.6962  -13.1397   18.0412 C   0  0  0  0  0  0  0  0  0  0  0  0
    8.6392  -12.2870   18.3390 N   0  0  0  0  0  0  0  0  0  0  0  0
    7.1215  -14.0108   19.0170 N   0  0  0  0  0  0  0  0  0  0  0  0
    7.6852  -13.9904   20.3475 C   0  0  0  0  0  0  0  0  0  0  0  0
    6.9344  -14.9557   21.2561 C   0  0  0  0  0  0  0  0  0  0  0  0
    7.6167  -14.9453   22.5857 C   0  0  0  0  0  0  0  0  0  0  0  0
    8.6210  -16.0617   22.7428 C   0  0  2  0  0  0  0  0  0  0  0  0
    7.8636  -17.2920   22.6785 N   0  0  0  0  0  0  0  0  0  0  0  0
    9.4429  -15.9788   23.9577 C   0  0  0  0  0  0  0  0  0  0  0  0
    8.9269  -15.9417   25.0971 O   0  0  0  0  0  0  0  0  0  0  0  0
    9.0381  -12.2451   19.2984 N   0  0  0  0  0  0  0  0  0  0  0  0
    9.7584  -19.9053   25.6215 C   0  0  0  0  0  0  0  0  0  0  0  0
   10.8614  -18.9797   25.6984 O   0  0  0  0  0  0  0  0  0  0  0  0
   11.5106  -18.8420   26.7594 C   0  0  0  0  0  0  0  0  0  0  0  0
   11.2088  -18.1993   24.5026 C   0  0  2  0  0  0  0  0  0  0  0  0
   11.6537  -16.7900   24.7866 N   0  0  0  0  0  0  0  0  0  0  0  0
   10.8600  -15.9373   23.8894 C   0  0  0  0  0  0  0  0  0  0  0  0
   13.0618  -16.5853   24.3688 O   0  0  0  0  0  0  0  0  0  0  0  0
   13.3715  -16.5633   23.1460 O   0  0  0  0  0  0  0  0  0  0  0  0
  1  5  1  0
  1  2  1  0
  2  3  1  0
  4  3  1  0
  5  4  1  0
  6  7  2  0
  5  6  1  1
  8  9  1  0
  9 10  2  0
 11 12  1  0
 11  9  1  0
 13 12  1  0
 13 14  1  0
 15 14  1  1
 15 16  1  0
 16  6  1  0
 17 15  1  0
 18 17  2  0
 19 20  1  0
 20 21  2  0
 23 22  1  1
 22 20  1  0
 23 24  1  0
 24 17  1  0
 25 27  1  0
 25 23  1  0
 26 25  2  0
M  END
$$$$
