PRN.pdb
     RDKit          3D

 27 27  0  0  1  0  0  0  0  0999 V2000
    7.5971  -11.9908   26.8357 N   0  0  0  0  0  0  0  0  0  0  0  0
    6.7646  -10.8092   26.9394 C   0  0  0  0  0  0  0  0  0  0  0  0
    5.4986  -11.2847   26.2169 C   0  0  0  0  0  0  0  0  0  0  0  0
    5.3160  -12.6519   26.8879 C   0  0  0  0  0  0  0  0  0  0  0  0
    6.7560  -13.1378   26.9101 C   0  0  1  0  0  0  0  0  0  0  0  0
    6.9437  -13.9710   25.6988 C   0  0  0  0  0  0  0  0  0  0  0  0
    6.2873  -15.0363   25.6024 O   0  0  0  0  0  0  0  0  0  0  0  0
    7.7822  -12.4814   17.4564 N   0  0  0  0  0  0  0  0  0  0  0  0
    8.1235  -13.8669   17.4162 C   0  0  0  0  0  0  0  0  0  0  0  0
    8.2078  -14.5011   16.2779 N   0  0  0  0  0  0  0  0  0  0  0  0
    8.3642  -14.5132   18.6675 N   0  0  0  0  0  0  0  0  0  0  0  0
    8.0927  -13.7624   19.8721 C   0  0  0  0  0  0  0  0  0  0  0  0
    8.2685  -14.6477   21.0994 C   0  0  0  0  0  0  0  0  0  0  0  0
    8.0085  -13.8031   22.3046 C   0  0  0  0  0  0  0  0  0  0  0  0
    8.0709  -14.5824   23.5963 C   0  0  2  0  0  0  0  0  0  0  0  0
    7.8216  -13.6261   24.6521 N   0  0  0  0  0  0  0  0  0  0  0  0
    9.3220  -15.3242   23.8035 C   0  0  0  0  0  0  0  0  0  0  0  0
   10.3938  -14.7388   24.0764 O   0  0  0  0  0  0  0  0  0  0  0  0
    8.5208  -15.4920   16.2404 N   0  0  0  0  0  0  0  0  0  0  0  0
   12.6208  -19.2542   24.7116 C   0  0  0  0  0  0  0  0  0  0  0  0
   11.2738  -19.6389   25.0532 O   0  0  0  0  0  0  0  0  0  0  0  0
   11.0445  -20.7199   25.6406 C   0  0  0  0  0  0  0  0  0  0  0  0
   10.1724  -18.7335   24.6967 C   0  0  1  0  0  0  0  0  0  0  0  0
   10.6084  -17.4504   24.0424 N   0  0  0  0  0  0  0  0  0  0  0  0
    9.3672  -16.7393   23.7024 C   0  0  0  0  0  0  0  0  0  0  0  0
   11.2693  -17.7176   22.7419 O   0  0  0  0  0  0  0  0  0  0  0  0
   10.5965  -17.7511   21.6753 O   0  0  0  0  0  0  0  0  0  0  0  0
  1  5  1  0
  1  2  1  0
  2  3  1  0
  4  3  1  0
  5  4  1  0
  6  7  2  0
  5  6  1  6
  8  9  1  0
  9 10  2  0
 11 12  1  0
 11  9  1  0
 13 12  1  0
 13 14  1  0
 15 14  1  6
 15 16  1  0
 16  6  1  0
 17 15  1  0
 18 17  2  0
 19 20  1  0
 20 21  2  0
 23 22  1  1
 22 20  1  0
 23 24  1  0
 24 17  1  0
 25 27  1  0
 25 23  1  0
 26 25  2  0
M  END
$$$$
