PRN.pdb
     RDKit          3D

 27 27  0  0  1  0  0  0  0  0999 V2000
    8.7752  -14.8467   20.0261 N   0  0  0  0  0  0  0  0  0  0  0  0
    8.0867  -14.3751   18.8414 C   0  0  0  0  0  0  0  0  0  0  0  0
    7.0520  -13.4316   19.4662 C   0  0  0  0  0  0  0  0  0  0  0  0
    7.9595  -12.6517   20.4258 C   0  0  0  0  0  0  0  0  0  0  0  0
    8.8118  -13.7844   20.9741 C   0  0  1  0  0  0  0  0  0  0  0  0
    8.1749  -14.2241   22.2381 C   0  0  0  0  0  0  0  0  0  0  0  0
    8.0151  -13.3764   23.1497 O   0  0  0  0  0  0  0  0  0  0  0  0
    4.4094  -20.6922   20.4751 N   0  0  0  0  0  0  0  0  0  0  0  0
    5.8093  -20.5901   20.2154 C   0  0  0  0  0  0  0  0  0  0  0  0
    6.3305  -21.1248   19.1441 N   0  0  0  0  0  0  0  0  0  0  0  0
    6.5981  -19.8833   21.1744 N   0  0  0  0  0  0  0  0  0  0  0  0
    5.9855  -18.7619   21.8494 C   0  0  0  0  0  0  0  0  0  0  0  0
    6.8933  -18.2524   22.9617 C   0  0  0  0  0  0  0  0  0  0  0  0
    6.2541  -17.0320   23.5409 C   0  0  0  0  0  0  0  0  0  0  0  0
    7.2329  -15.9057   23.7711 C   0  0  2  0  0  0  0  0  0  0  0  0
    7.7409  -15.5451   22.4660 N   0  0  0  0  0  0  0  0  0  0  0  0
    8.3109  -16.2162   24.7198 C   0  0  0  0  0  0  0  0  0  0  0  0
    9.4246  -16.6353   24.3325 O   0  0  0  0  0  0  0  0  0  0  0  0
    7.3421  -21.0148   18.9302 N   0  0  0  0  0  0  0  0  0  0  0  0
    8.6629  -12.9033   27.9261 C   0  0  0  0  0  0  0  0  0  0  0  0
    9.5734  -13.9930   27.6760 O   0  0  0  0  0  0  0  0  0  0  0  0
   10.6656  -13.7968   27.0973 C   0  0  0  0  0  0  0  0  0  0  0  0
    9.1921  -15.3426   28.1156 C   0  0  2  0  0  0  0  0  0  0  0  0
    9.2367  -16.3859   27.0321 N   0  0  0  0  0  0  0  0  0  0  0  0
    8.1335  -16.0535   26.1186 C   0  0  0  0  0  0  0  0  0  0  0  0
    8.9001  -17.7252   27.5730 O   0  0  0  0  0  0  0  0  0  0  0  0
    9.6701  -18.2986   28.3915 O   0  0  0  0  0  0  0  0  0  0  0  0
  1  5  1  0
  1  2  1  0
  2  3  1  0
  4  3  1  0
  5  4  1  0
  6  7  2  0
  5  6  1  1
  8  9  1  0
  9 10  2  0
 11 12  1  0
 11  9  1  0
 13 12  1  0
 13 14  1  0
 15 14  1  6
 15 16  1  0
 16  6  1  0
 17 15  1  0
 18 17  2  0
 19 20  1  0
 20 21  2  0
 23 22  1  6
 22 20  1  0
 23 24  1  0
 24 17  1  0
 25 27  1  0
 25 23  1  0
 26 25  2  0
M  END
$$$$
