PRN.pdb
     RDKit          3D

 27 27  0  0  1  0  0  0  0  0999 V2000
    8.5917  -14.1716   17.9214 N   0  0  0  0  0  0  0  0  0  0  0  0
    7.2899  -13.6248   17.5952 C   0  0  0  0  0  0  0  0  0  0  0  0
    6.8519  -13.0887   18.9633 C   0  0  0  0  0  0  0  0  0  0  0  0
    8.1313  -12.3481   19.3725 C   0  0  0  0  0  0  0  0  0  0  0  0
    9.1809  -13.3531   18.9270 C   0  0  1  0  0  0  0  0  0  0  0  0
    9.5092  -14.1805   20.1120 C   0  0  0  0  0  0  0  0  0  0  0  0
    9.8729  -13.5974   21.1621 O   0  0  0  0  0  0  0  0  0  0  0  0
    8.4438  -22.1808   19.4314 N   0  0  0  0  0  0  0  0  0  0  0  0
    8.3200  -21.3013   18.3140 C   0  0  0  0  0  0  0  0  0  0  0  0
    8.3220  -21.7672   17.0941 N   0  0  0  0  0  0  0  0  0  0  0  0
    8.1957  -19.9061   18.5959 N   0  0  0  0  0  0  0  0  0  0  0  0
    8.7301  -19.4262   19.8499 C   0  0  0  0  0  0  0  0  0  0  0  0
    8.4249  -17.9438   20.0235 C   0  0  0  0  0  0  0  0  0  0  0  0
    8.9416  -17.5318   21.3640 C   0  0  0  0  0  0  0  0  0  0  0  0
    9.8282  -16.3111   21.3053 C   0  0  2  0  0  0  0  0  0  0  0  0
    9.4331  -15.5874   20.1172 N   0  0  0  0  0  0  0  0  0  0  0  0
   11.2686  -16.5995   21.3261 C   0  0  0  0  0  0  0  0  0  0  0  0
   11.8107  -17.2964   20.4393 O   0  0  0  0  0  0  0  0  0  0  0  0
    8.2096  -21.1311   16.2792 N   0  0  0  0  0  0  0  0  0  0  0  0
   13.8997  -15.3538   19.9018 C   0  0  0  0  0  0  0  0  0  0  0  0
   14.4709  -14.6544   21.0261 O   0  0  0  0  0  0  0  0  0  0  0  0
   15.0881  -13.5776   20.8657 C   0  0  0  0  0  0  0  0  0  0  0  0
   14.3132  -15.2331   22.3677 C   0  0  2  0  0  0  0  0  0  0  0  0
   13.5181  -16.5102   22.4052 N   0  0  0  0  0  0  0  0  0  0  0  0
   12.1075  -16.0984   22.3556 C   0  0  0  0  0  0  0  0  0  0  0  0
   13.6755  -17.1933   23.7121 O   0  0  0  0  0  0  0  0  0  0  0  0
   12.7668  -17.1262   24.5847 O   0  0  0  0  0  0  0  0  0  0  0  0
  1  5  1  0
  1  2  1  0
  2  3  1  0
  4  3  1  0
  5  4  1  0
  6  7  2  0
  5  6  1  1
  8  9  1  0
  9 10  2  0
 11 12  1  0
 11  9  1  0
 13 12  1  0
 13 14  1  0
 15 14  1  6
 15 16  1  0
 16  6  1  0
 17 15  1  0
 18 17  2  0
 19 20  1  0
 20 21  2  0
 23 22  1  6
 22 20  1  0
 23 24  1  0
 24 17  1  0
 25 27  1  0
 25 23  1  0
 26 25  2  0
M  END
$$$$
