PRN.pdb
     RDKit          3D

 27 27  0  0  1  0  0  0  0  0999 V2000
    8.3089  -14.4991   18.0774 N   0  0  0  0  0  0  0  0  0  0  0  0
    7.1717  -13.6091   17.9571 C   0  0  0  0  0  0  0  0  0  0  0  0
    7.3343  -12.7612   19.2242 C   0  0  0  0  0  0  0  0  0  0  0  0
    8.8290  -12.4312   19.1243 C   0  0  0  0  0  0  0  0  0  0  0  0
    9.3762  -13.7802   18.6878 C   0  0  1  0  0  0  0  0  0  0  0  0
    9.8091  -14.4834   19.9185 C   0  0  0  0  0  0  0  0  0  0  0  0
   10.7640  -14.0006   20.5745 O   0  0  0  0  0  0  0  0  0  0  0  0
    9.6049  -21.4930   20.0876 N   0  0  0  0  0  0  0  0  0  0  0  0
    8.4137  -21.2461   19.3409 C   0  0  0  0  0  0  0  0  0  0  0  0
    8.2275  -21.8063   18.1762 N   0  0  0  0  0  0  0  0  0  0  0  0
    7.4507  -20.3674   19.9257 N   0  0  0  0  0  0  0  0  0  0  0  0
    7.8644  -19.5861   21.0689 C   0  0  0  0  0  0  0  0  0  0  0  0
    8.4971  -18.2766   20.6151 C   0  0  0  0  0  0  0  0  0  0  0  0
    8.8299  -17.4890   21.8408 C   0  0  0  0  0  0  0  0  0  0  0  0
    9.7402  -16.3174   21.5607 C   0  0  2  0  0  0  0  0  0  0  0  0
    9.2022  -15.6654   20.3873 N   0  0  0  0  0  0  0  0  0  0  0  0
   11.1576  -16.6688   21.3994 C   0  0  0  0  0  0  0  0  0  0  0  0
   11.5464  -17.4181   20.4756 O   0  0  0  0  0  0  0  0  0  0  0  0
    7.3669  -21.6175   17.6240 N   0  0  0  0  0  0  0  0  0  0  0  0
   13.8132  -13.6265   20.2444 C   0  0  0  0  0  0  0  0  0  0  0  0
   14.2403  -14.9846   20.4730 O   0  0  0  0  0  0  0  0  0  0  0  0
   14.4993  -15.7459   19.5141 C   0  0  0  0  0  0  0  0  0  0  0  0
   14.3658  -15.4582   21.8586 C   0  0  2  0  0  0  0  0  0  0  0  0
   13.5283  -16.6660   22.1819 N   0  0  0  0  0  0  0  0  0  0  0  0
   12.1474  -16.1719   22.2871 C   0  0  0  0  0  0  0  0  0  0  0  0
   13.8546  -17.1907   23.5300 O   0  0  0  0  0  0  0  0  0  0  0  0
   15.0074  -17.6363   23.7834 O   0  0  0  0  0  0  0  0  0  0  0  0
  1  5  1  0
  1  2  1  0
  2  3  1  0
  4  3  1  0
  5  4  1  0
  6  7  2  0
  5  6  1  1
  8  9  1  0
  9 10  2  0
 11 12  1  0
 11  9  1  0
 13 12  1  0
 13 14  1  0
 15 14  1  6
 15 16  1  0
 16  6  1  0
 17 15  1  0
 18 17  2  0
 19 20  1  0
 20 21  2  0
 23 22  1  6
 22 20  1  0
 23 24  1  0
 24 17  1  0
 25 27  1  0
 25 23  1  0
 26 25  2  0
M  END
$$$$
