PRN.pdb
     RDKit          3D

 27 27  0  0  1  0  0  0  0  0999 V2000
    9.1527  -14.3431   19.1146 N   0  0  0  0  0  0  0  0  0  0  0  0
    8.2826  -13.9711   18.0171 C   0  0  0  0  0  0  0  0  0  0  0  0
    7.1382  -13.2886   18.7755 C   0  0  0  0  0  0  0  0  0  0  0  0
    7.9508  -12.3820   19.7085 C   0  0  0  0  0  0  0  0  0  0  0  0
    9.0579  -13.3386   20.1199 C   0  0  1  0  0  0  0  0  0  0  0  0
    8.6352  -13.9549   21.3999 C   0  0  0  0  0  0  0  0  0  0  0  0
    8.4030  -13.2000   22.3752 O   0  0  0  0  0  0  0  0  0  0  0  0
    7.2358  -21.9487   20.6458 N   0  0  0  0  0  0  0  0  0  0  0  0
    8.5081  -21.8521   21.2859 C   0  0  0  0  0  0  0  0  0  0  0  0
    9.2159  -22.9220   21.5298 N   0  0  0  0  0  0  0  0  0  0  0  0
    8.9593  -20.5436   21.6403 N   0  0  0  0  0  0  0  0  0  0  0  0
    7.9603  -19.5708   22.0199 C   0  0  0  0  0  0  0  0  0  0  0  0
    8.6101  -18.2176   22.2799 C   0  0  0  0  0  0  0  0  0  0  0  0
    7.5178  -17.2461   22.5907 C   0  0  0  0  0  0  0  0  0  0  0  0
    8.0271  -15.8489   22.8518 C   0  0  2  0  0  0  0  0  0  0  0  0
    8.4817  -15.3445   21.5749 N   0  0  0  0  0  0  0  0  0  0  0  0
    9.0670  -15.7600   23.8857 C   0  0  0  0  0  0  0  0  0  0  0  0
   10.2787  -15.6581   23.5899 O   0  0  0  0  0  0  0  0  0  0  0  0
   10.1646  -22.8507   21.9495 N   0  0  0  0  0  0  0  0  0  0  0  0
   10.5693  -13.4244   28.8590 C   0  0  0  0  0  0  0  0  0  0  0  0
    9.9319  -14.6946   28.6149 O   0  0  0  0  0  0  0  0  0  0  0  0
   10.0794  -15.6498   29.4098 C   0  0  0  0  0  0  0  0  0  0  0  0
    9.1032  -14.8452   27.4106 C   0  0  1  0  0  0  0  0  0  0  0  0
    9.7906  -15.5373   26.2647 N   0  0  0  0  0  0  0  0  0  0  0  0
    8.7399  -15.7862   25.2666 C   0  0  0  0  0  0  0  0  0  0  0  0
   10.2668  -16.8827   26.6680 O   0  0  0  0  0  0  0  0  0  0  0  0
    9.4835  -17.8716   26.6534 O   0  0  0  0  0  0  0  0  0  0  0  0
  1  5  1  0
  1  2  1  0
  2  3  1  0
  4  3  1  0
  5  4  1  0
  6  7  2  0
  5  6  1  1
  8  9  1  0
  9 10  2  0
 11 12  1  0
 11  9  1  0
 13 12  1  0
 13 14  1  0
 15 14  1  6
 15 16  1  0
 16  6  1  0
 17 15  1  0
 18 17  2  0
 19 20  1  0
 20 21  2  0
 23 22  1  6
 22 20  1  0
 23 24  1  0
 24 17  1  0
 25 27  1  0
 25 23  1  0
 26 25  2  0
M  END
$$$$
