PRN.pdb
     RDKit          3D

 27 27  0  0  1  0  0  0  0  0999 V2000
    9.0370  -13.9770   17.8919 N   0  0  0  0  0  0  0  0  0  0  0  0
    7.8078  -13.5087   17.2838 C   0  0  0  0  0  0  0  0  0  0  0  0
    6.8821  -13.4617   18.5052 C   0  0  0  0  0  0  0  0  0  0  0  0
    7.8005  -12.7381   19.4980 C   0  0  0  0  0  0  0  0  0  0  0  0
    9.1185  -13.4370   19.2073 C   0  0  1  0  0  0  0  0  0  0  0  0
    9.2426  -14.5394   20.1902 C   0  0  0  0  0  0  0  0  0  0  0  0
    8.9847  -14.2947   21.3938 O   0  0  0  0  0  0  0  0  0  0  0  0
    6.9614  -21.6464   17.7190 N   0  0  0  0  0  0  0  0  0  0  0  0
    6.0267  -20.5700   17.7915 C   0  0  0  0  0  0  0  0  0  0  0  0
    4.8663  -20.6521   17.1982 N   0  0  0  0  0  0  0  0  0  0  0  0
    6.4213  -19.4159   18.5356 N   0  0  0  0  0  0  0  0  0  0  0  0
    7.7293  -19.4304   19.1500 C   0  0  0  0  0  0  0  0  0  0  0  0
    8.0099  -18.0966   19.8306 C   0  0  0  0  0  0  0  0  0  0  0  0
    9.4111  -18.1416   20.3486 C   0  0  0  0  0  0  0  0  0  0  0  0
    9.8846  -16.8127   20.8866 C   0  0  2  0  0  0  0  0  0  0  0  0
    9.6353  -15.8464   19.8399 N   0  0  0  0  0  0  0  0  0  0  0  0
   11.2838  -16.7974   21.3343 C   0  0  0  0  0  0  0  0  0  0  0  0
   12.1505  -16.1064   20.7535 O   0  0  0  0  0  0  0  0  0  0  0  0
    4.2084  -19.8469   17.1978 N   0  0  0  0  0  0  0  0  0  0  0  0
   14.9118  -15.6629   25.2212 C   0  0  0  0  0  0  0  0  0  0  0  0
   14.7482  -15.8956   23.8076 O   0  0  0  0  0  0  0  0  0  0  0  0
   15.7364  -15.9032   23.0399 C   0  0  0  0  0  0  0  0  0  0  0  0
   13.3938  -16.1245   23.2851 C   0  0  2  0  0  0  0  0  0  0  0  0
   13.1266  -17.5390   22.8464 N   0  0  0  0  0  0  0  0  0  0  0  0
   11.7118  -17.5676   22.4470 C   0  0  0  0  0  0  0  0  0  0  0  0
   13.2236  -18.4756   23.9922 O   0  0  0  0  0  0  0  0  0  0  0  0
   12.2856  -18.5621   24.8314 O   0  0  0  0  0  0  0  0  0  0  0  0
  1  5  1  0
  1  2  1  0
  2  3  1  0
  4  3  1  0
  5  4  1  0
  6  7  2  0
  5  6  1  1
  8  9  1  0
  9 10  2  0
 11 12  1  0
 11  9  1  0
 13 12  1  0
 13 14  1  0
 15 14  1  6
 15 16  1  0
 16  6  1  0
 17 15  1  0
 18 17  2  0
 19 20  1  0
 20 21  2  0
 23 22  1  6
 22 20  1  0
 23 24  1  0
 24 17  1  0
 25 27  1  0
 25 23  1  0
 26 25  2  0
M  END
$$$$
