PRN.pdb
     RDKit          3D

 27 27  0  0  1  0  0  0  0  0999 V2000
    9.2620  -14.1904   18.1605 N   0  0  0  0  0  0  0  0  0  0  0  0
    8.0834  -13.7811   17.4234 C   0  0  0  0  0  0  0  0  0  0  0  0
    6.9932  -13.9994   18.4792 C   0  0  0  0  0  0  0  0  0  0  0  0
    7.6592  -13.3204   19.6827 C   0  0  0  0  0  0  0  0  0  0  0  0
    9.0837  -13.8265   19.5259 C   0  0  1  0  0  0  0  0  0  0  0  0
    9.2050  -15.0309   20.3811 C   0  0  0  0  0  0  0  0  0  0  0  0
    8.5047  -15.0950   21.4206 O   0  0  0  0  0  0  0  0  0  0  0  0
   10.2504  -18.9295   15.1671 N   0  0  0  0  0  0  0  0  0  0  0  0
   11.3558  -19.3334   15.9748 C   0  0  0  0  0  0  0  0  0  0  0  0
   12.5749  -18.9872   15.6597 N   0  0  0  0  0  0  0  0  0  0  0  0
   11.0631  -20.1243   17.1281 N   0  0  0  0  0  0  0  0  0  0  0  0
   11.5266  -19.6391   18.4080 C   0  0  0  0  0  0  0  0  0  0  0  0
   10.4984  -18.6972   19.0217 C   0  0  0  0  0  0  0  0  0  0  0  0
   11.0340  -18.2445   20.3415 C   0  0  0  0  0  0  0  0  0  0  0  0
   10.1589  -17.2122   21.0110 C   0  0  2  0  0  0  0  0  0  0  0  0
   10.0666  -16.1056   20.0846 N   0  0  0  0  0  0  0  0  0  0  0  0
   10.6211  -16.7870   22.3392 C   0  0  0  0  0  0  0  0  0  0  0  0
   11.5020  -15.9089   22.4768 O   0  0  0  0  0  0  0  0  0  0  0  0
   13.3732  -19.2127   16.2867 N   0  0  0  0  0  0  0  0  0  0  0  0
    9.6502  -14.2907   24.2757 C   0  0  0  0  0  0  0  0  0  0  0  0
    8.8842  -15.0421   25.2389 O   0  0  0  0  0  0  0  0  0  0  0  0
    7.8836  -14.5385   25.7967 C   0  0  0  0  0  0  0  0  0  0  0  0
    9.3034  -16.4152   25.5533 C   0  0  2  0  0  0  0  0  0  0  0  0
   10.5451  -16.8672   24.8333 N   0  0  0  0  0  0  0  0  0  0  0  0
   10.0865  -17.3560   23.5245 C   0  0  0  0  0  0  0  0  0  0  0  0
   11.1422  -18.0499   25.4997 O   0  0  0  0  0  0  0  0  0  0  0  0
   11.7153  -17.9351   26.6177 O   0  0  0  0  0  0  0  0  0  0  0  0
  1  5  1  0
  1  2  1  0
  2  3  1  0
  4  3  1  0
  5  4  1  0
  6  7  2  0
  5  6  1  1
  8  9  1  0
  9 10  2  0
 11 12  1  0
 11  9  1  0
 13 12  1  0
 13 14  1  0
 15 14  1  6
 15 16  1  0
 16  6  1  0
 17 15  1  0
 18 17  2  0
 19 20  1  0
 20 21  2  0
 23 22  1  6
 22 20  1  0
 23 24  1  0
 24 17  1  0
 25 27  1  0
 25 23  1  0
 26 25  2  0
M  END
$$$$
