PRN.pdb
     RDKit          3D

 27 27  0  0  1  0  0  0  0  0999 V2000
    7.6471  -12.7254   26.6636 N   0  0  0  0  0  0  0  0  0  0  0  0
    7.2223  -11.4103   26.2275 C   0  0  0  0  0  0  0  0  0  0  0  0
    6.1829  -11.7817   25.1632 C   0  0  0  0  0  0  0  0  0  0  0  0
    5.3886  -12.8418   25.9365 C   0  0  0  0  0  0  0  0  0  0  0  0
    6.5250  -13.6004   26.6023 C   0  0  1  0  0  0  0  0  0  0  0  0
    6.8405  -14.7524   25.7248 C   0  0  0  0  0  0  0  0  0  0  0  0
    5.9761  -15.6525   25.5914 O   0  0  0  0  0  0  0  0  0  0  0  0
    8.3934  -14.1173   18.0257 N   0  0  0  0  0  0  0  0  0  0  0  0
    8.1944  -13.0406   18.9415 C   0  0  0  0  0  0  0  0  0  0  0  0
    8.3584  -11.8021   18.5617 N   0  0  0  0  0  0  0  0  0  0  0  0
    7.8125  -13.3839   20.2748 N   0  0  0  0  0  0  0  0  0  0  0  0
    8.5404  -14.4485   20.9267 C   0  0  0  0  0  0  0  0  0  0  0  0
    7.9896  -14.6871   22.3270 C   0  0  0  0  0  0  0  0  0  0  0  0
    8.8381  -15.7348   22.9719 C   0  0  0  0  0  0  0  0  0  0  0  0
    8.3510  -16.1251   24.3467 C   0  0  2  0  0  0  0  0  0  0  0  0
    8.0614  -14.8863   25.0343 N   0  0  0  0  0  0  0  0  0  0  0  0
    9.2770  -16.9773   25.1048 C   0  0  0  0  0  0  0  0  0  0  0  0
    9.7426  -18.0329   24.6202 O   0  0  0  0  0  0  0  0  0  0  0  0
    8.2556  -11.0181   19.2371 N   0  0  0  0  0  0  0  0  0  0  0  0
   10.6159  -15.3060   29.9127 C   0  0  0  0  0  0  0  0  0  0  0  0
   10.7387  -15.3378   28.4764 O   0  0  0  0  0  0  0  0  0  0  0  0
   10.1693  -14.4804   27.7645 C   0  0  0  0  0  0  0  0  0  0  0  0
   11.5484  -16.4002   27.8635 C   0  0  1  0  0  0  0  0  0  0  0  0
   10.7585  -17.4044   27.0683 N   0  0  0  0  0  0  0  0  0  0  0  0
    9.6832  -16.6378   26.4218 C   0  0  0  0  0  0  0  0  0  0  0  0
   10.0657  -18.3619   27.9642 O   0  0  0  0  0  0  0  0  0  0  0  0
    8.8056  -18.3978   28.0134 O   0  0  0  0  0  0  0  0  0  0  0  0
  1  5  1  0
  1  2  1  0
  2  3  1  0
  4  3  1  0
  5  4  1  0
  6  7  2  0
  5  6  1  6
  8  9  1  0
  9 10  2  0
 11 12  1  0
 11  9  1  0
 13 12  1  0
 13 14  1  0
 15 14  1  6
 15 16  1  0
 16  6  1  0
 17 15  1  0
 18 17  2  0
 19 20  1  0
 20 21  2  0
 23 22  1  6
 22 20  1  0
 23 24  1  0
 24 17  1  0
 25 27  1  0
 25 23  1  0
 26 25  2  0
M  END
$$$$
