RYI.pdb
     RDKit          3D

 32 32  0  0  1  0  0  0  0  0999 V2000
   24.2182  -24.6411  -14.5679 N   0  0  0  0  0  0  0  0  0  0  0  0
   24.1184  -24.4402  -15.9716 C   0  0  0  0  0  0  0  0  0  0  0  0
   23.5489  -25.3605  -16.6683 N   0  0  0  0  0  0  0  0  0  0  0  0
   24.6062  -23.2988  -16.6315 N   0  0  0  0  0  0  0  0  0  0  0  0
   25.1326  -22.1383  -15.8946 C   0  0  0  0  0  0  0  0  0  0  0  0
   26.2066  -22.6560  -15.0042 C   0  0  0  0  0  0  0  0  0  0  0  0
   26.7109  -21.7142  -13.9679 C   0  0  0  0  0  0  0  0  0  0  0  0
   25.6835  -21.0409  -13.1262 C   0  0  2  0  0  0  0  0  0  0  0  0
   25.5714  -19.6323  -13.3174 N   0  0  0  0  0  0  0  0  0  0  0  0
   26.0464  -21.3003  -11.6775 C   0  0  0  0  0  0  0  0  0  0  0  0
   26.1410  -22.4844  -11.3098 O   0  0  0  0  0  0  0  0  0  0  0  0
   23.4652  -25.3825  -17.6883 O   0  0  0  0  0  0  0  0  0  0  0  0
   29.2239  -20.1019   -3.6098 C   0  0  0  0  0  0  0  0  0  0  0  0
   28.8015  -19.8981   -4.9166 C   0  0  0  0  0  0  0  0  0  0  0  0
   29.2158  -20.7391   -5.9255 C   0  0  0  0  0  0  0  0  0  0  0  0
   28.7791  -20.5152   -7.2300 C   0  0  0  0  0  0  0  0  0  0  0  0
   27.9416  -19.4735   -7.5430 C   0  0  0  0  0  0  0  0  0  0  0  0
   27.4815  -19.2408   -8.9217 C   0  0  2  0  0  0  0  0  0  0  0  0
   26.4938  -20.2540   -9.3993 N   0  0  0  0  0  0  0  0  0  0  0  0
   26.2653  -20.2419  -10.7926 C   0  0  0  0  0  0  0  0  0  0  0  0
   25.3371  -20.3001   -8.4944 O   0  0  0  0  0  0  0  0  0  0  0  0
   24.4121  -19.4737   -8.5720 C   0  0  0  0  0  0  0  0  0  0  0  0
   27.5455  -18.6521   -6.5173 C   0  0  0  0  0  0  0  0  0  0  0  0
   27.9687  -18.8561   -5.2060 C   0  0  0  0  0  0  0  0  0  0  0  0
   22.5618  -24.8752   -5.3742 C   0  0  0  0  0  0  0  0  0  0  0  0
   22.6005  -23.4316   -5.7592 C   0  0  2  0  0  0  0  0  0  0  0  0
   23.8370  -22.9007   -6.3619 C   0  0  0  0  0  0  0  0  0  0  0  0
   25.0518  -23.1953   -5.4419 C   0  0  2  0  0  0  0  0  0  0  0  0
   23.9483  -21.4715   -6.7289 N   0  0  0  0  0  0  0  0  0  0  0  0
   25.2265  -21.2873   -7.4992 C   0  0  0  0  0  0  0  0  0  0  0  0
   23.9298  -20.4500   -5.7123 O   0  0  0  0  0  0  0  0  0  0  0  0
   22.8383  -19.7603   -5.2280 O   0  0  0  0  0  0  0  0  0  0  0  0
  2  4  1  0
  2  1  1  0
  3  2  2  0
  5  6  1  0
  5  4  1  0
  7  8  1  0
  7  6  1  0
  8 10  1  0
  8  9  1  1
 10 11  2  0
 12 13  1  0
 13 23  2  0
 13 14  1  0
 14 15  2  0
 15 16  1  0
 16 17  1  0
 18 17  1  6
 18 20  1  0
 19 18  1  0
 19 10  1  0
 20 29  1  0
 21 20  2  0
 22 16  2  0
 23 22  1  0
 24 25  1  0
 26 25  1  0
 26 28  1  0
 26 27  1  6
 28 30  1  0
 28 29  1  1
 30 32  2  0
 30 31  1  0
M  END
$$$$
