RYI.pdb
     RDKit          3D

 32 32  0  0  1  0  0  0  0  0999 V2000
   15.4583  -18.0910  -16.7217 N   0  0  0  0  0  0  0  0  0  0  0  0
   16.2096  -17.4801  -15.6811 C   0  0  0  0  0  0  0  0  0  0  0  0
   16.5572  -18.2156  -14.6836 N   0  0  0  0  0  0  0  0  0  0  0  0
   16.5881  -16.1263  -15.6854 N   0  0  0  0  0  0  0  0  0  0  0  0
   15.8182  -15.1045  -16.4135 C   0  0  0  0  0  0  0  0  0  0  0  0
   16.5880  -13.8361  -16.3001 C   0  0  0  0  0  0  0  0  0  0  0  0
   16.0042  -12.6506  -16.9848 C   0  0  0  0  0  0  0  0  0  0  0  0
   16.6919  -12.1943  -18.2243 C   0  0  2  0  0  0  0  0  0  0  0  0
   17.2880  -13.2296  -19.0029 N   0  0  0  0  0  0  0  0  0  0  0  0
   17.7783  -11.2234  -17.8062 C   0  0  0  0  0  0  0  0  0  0  0  0
   18.8598  -11.6998  -17.4195 O   0  0  0  0  0  0  0  0  0  0  0  0
   17.0698  -17.9059  -13.8533 O   0  0  0  0  0  0  0  0  0  0  0  0
   21.8943   -3.3834  -17.8325 C   0  0  0  0  0  0  0  0  0  0  0  0
   20.9235   -4.3752  -17.8729 C   0  0  0  0  0  0  0  0  0  0  0  0
   20.0174   -4.5101  -16.8445 C   0  0  0  0  0  0  0  0  0  0  0  0
   19.0516   -5.5132  -16.9063 C   0  0  0  0  0  0  0  0  0  0  0  0
   18.9750   -6.3780  -17.9697 C   0  0  0  0  0  0  0  0  0  0  0  0
   17.9528   -7.4354  -18.0322 C   0  0  2  0  0  0  0  0  0  0  0  0
   18.4561   -8.7766  -17.6099 N   0  0  0  0  0  0  0  0  0  0  0  0
   17.5651   -9.8438  -17.8563 C   0  0  0  0  0  0  0  0  0  0  0  0
   19.1007   -8.6844  -16.2927 O   0  0  0  0  0  0  0  0  0  0  0  0
   18.4683   -8.8753  -15.2399 C   0  0  0  0  0  0  0  0  0  0  0  0
   19.8909   -6.2197  -18.9793 C   0  0  0  0  0  0  0  0  0  0  0  0
   20.8650   -5.2247  -18.9396 C   0  0  0  0  0  0  0  0  0  0  0  0
   23.0308  -11.8367  -15.0708 C   0  0  0  0  0  0  0  0  0  0  0  0
   21.9078  -10.8507  -15.0888 C   0  0  2  0  0  0  0  0  0  0  0  0
   22.2248   -9.4248  -14.8872 C   0  0  0  0  0  0  0  0  0  0  0  0
   23.0527   -9.2377  -13.5879 C   0  0  2  0  0  0  0  0  0  0  0  0
   21.1492   -8.4103  -14.8277 N   0  0  0  0  0  0  0  0  0  0  0  0
   20.4670   -8.3769  -16.1674 C   0  0  0  0  0  0  0  0  0  0  0  0
   21.4492   -7.0430  -14.4846 O   0  0  0  0  0  0  0  0  0  0  0  0
   21.2988   -6.4272  -13.2600 O   0  0  0  0  0  0  0  0  0  0  0  0
  2  4  1  0
  2  1  1  0
  3  2  2  0
  5  6  1  0
  5  4  1  0
  7  8  1  0
  7  6  1  0
  8 10  1  0
  8  9  1  1
 10 11  2  0
 12 13  1  0
 13 23  2  0
 13 14  1  0
 14 15  2  0
 15 16  1  0
 16 17  1  0
 18 17  1  6
 18 20  1  0
 19 18  1  0
 19 10  1  0
 20 29  1  0
 21 20  2  0
 22 16  2  0
 23 22  1  0
 24 25  1  0
 26 25  1  0
 26 28  1  0
 26 27  1  6
 28 30  1  0
 28 29  1  1
 30 32  2  0
 30 31  1  0
M  END
$$$$
