RYI.pdb
     RDKit          3D

 32 32  0  0  1  0  0  0  0  0999 V2000
   30.5848  -23.1782  -17.5356 N   0  0  0  0  0  0  0  0  0  0  0  0
   29.2564  -22.7642  -17.8260 C   0  0  0  0  0  0  0  0  0  0  0  0
   28.8561  -22.8520  -19.0462 N   0  0  0  0  0  0  0  0  0  0  0  0
   28.3661  -22.2678  -16.8579 N   0  0  0  0  0  0  0  0  0  0  0  0
   28.7476  -22.1388  -15.4421 C   0  0  0  0  0  0  0  0  0  0  0  0
   29.0347  -20.6969  -15.2123 C   0  0  0  0  0  0  0  0  0  0  0  0
   28.3313  -20.0624  -14.0644 C   0  0  0  0  0  0  0  0  0  0  0  0
   26.9513  -20.5452  -13.7822 C   0  0  2  0  0  0  0  0  0  0  0  0
   25.9532  -20.0960  -14.6963 N   0  0  0  0  0  0  0  0  0  0  0  0
   26.5801  -20.0642  -12.3934 C   0  0  0  0  0  0  0  0  0  0  0  0
   26.6212  -18.8405  -12.1768 O   0  0  0  0  0  0  0  0  0  0  0  0
   27.9361  -22.5783  -19.4022 O   0  0  0  0  0  0  0  0  0  0  0  0
   20.3121  -19.2952  -13.1012 C   0  0  0  0  0  0  0  0  0  0  0  0
   21.3180  -19.7789  -12.2753 C   0  0  0  0  0  0  0  0  0  0  0  0
   21.5970  -19.1611  -11.0765 C   0  0  0  0  0  0  0  0  0  0  0  0
   22.6113  -19.6641  -10.2636 C   0  0  0  0  0  0  0  0  0  0  0  0
   23.3469  -20.7657  -10.6240 C   0  0  0  0  0  0  0  0  0  0  0  0
   24.4167  -21.2949   -9.7623 C   0  0  2  0  0  0  0  0  0  0  0  0
   25.7658  -20.7366  -10.0762 N   0  0  0  0  0  0  0  0  0  0  0  0
   26.2062  -20.9693  -11.3974 C   0  0  0  0  0  0  0  0  0  0  0  0
   26.6929  -20.9972   -8.9664 O   0  0  0  0  0  0  0  0  0  0  0  0
   27.4934  -21.9475   -8.9920 C   0  0  0  0  0  0  0  0  0  0  0  0
   23.0465  -21.3602  -11.8239 C   0  0  0  0  0  0  0  0  0  0  0  0
   22.0374  -20.8756  -12.6528 C   0  0  0  0  0  0  0  0  0  0  0  0
   30.1618  -18.4923   -4.6970 C   0  0  0  0  0  0  0  0  0  0  0  0
   29.3222  -19.6641   -5.0915 C   0  0  2  0  0  0  0  0  0  0  0  0
   28.3463  -19.4902   -6.1831 C   0  0  0  0  0  0  0  0  0  0  0  0
   27.4172  -18.2833   -5.8850 C   0  0  2  0  0  0  0  0  0  0  0  0
   27.4502  -20.5981   -6.5821 N   0  0  0  0  0  0  0  0  0  0  0  0
   26.7151  -20.1771   -7.8245 C   0  0  0  0  0  0  0  0  0  0  0  0
   26.4572  -21.1035   -5.6678 O   0  0  0  0  0  0  0  0  0  0  0  0
   26.6526  -21.9292   -4.5809 O   0  0  0  0  0  0  0  0  0  0  0  0
  2  4  1  0
  2  1  1  0
  3  2  2  0
  5  6  1  0
  5  4  1  0
  7  8  1  0
  7  6  1  0
  8 10  1  0
  8  9  1  6
 10 11  2  0
 12 13  1  0
 13 23  2  0
 13 14  1  0
 14 15  2  0
 15 16  1  0
 16 17  1  0
 18 17  1  6
 18 20  1  0
 19 18  1  0
 19 10  1  0
 20 29  1  0
 21 20  2  0
 22 16  2  0
 23 22  1  0
 24 25  1  0
 26 25  1  0
 26 28  1  0
 26 27  1  6
 28 30  1  0
 28 29  1  1
 30 32  2  0
 30 31  1  0
M  END
$$$$
