RYI.pdb
     RDKit          3D

 32 32  0  0  1  0  0  0  0  0999 V2000
   29.1667  -24.8004  -17.4847 N   0  0  0  0  0  0  0  0  0  0  0  0
   29.3745  -24.1544  -18.7337 C   0  0  0  0  0  0  0  0  0  0  0  0
   29.4097  -24.8904  -19.7890 N   0  0  0  0  0  0  0  0  0  0  0  0
   29.5428  -22.7657  -18.8738 N   0  0  0  0  0  0  0  0  0  0  0  0
   29.4021  -21.8452  -17.7337 C   0  0  0  0  0  0  0  0  0  0  0  0
   28.3399  -20.8720  -18.1061 C   0  0  0  0  0  0  0  0  0  0  0  0
   27.5199  -20.3347  -16.9862 C   0  0  0  0  0  0  0  0  0  0  0  0
   26.7157  -21.3246  -16.2177 C   0  0  2  0  0  0  0  0  0  0  0  0
   25.9951  -22.2661  -17.0100 N   0  0  0  0  0  0  0  0  0  0  0  0
   25.7226  -20.5451  -15.3786 C   0  0  0  0  0  0  0  0  0  0  0  0
   26.1516  -19.5738  -14.7315 O   0  0  0  0  0  0  0  0  0  0  0  0
   29.4772  -24.5595  -20.7554 O   0  0  0  0  0  0  0  0  0  0  0  0
   23.6126  -15.4958  -18.9106 C   0  0  0  0  0  0  0  0  0  0  0  0
   23.2643  -16.5716  -18.1049 C   0  0  0  0  0  0  0  0  0  0  0  0
   23.3618  -17.8612  -18.5784 C   0  0  0  0  0  0  0  0  0  0  0  0
   23.0064  -18.9257  -17.7518 C   0  0  0  0  0  0  0  0  0  0  0  0
   22.5584  -18.7267  -16.4695 C   0  0  0  0  0  0  0  0  0  0  0  0
   22.1851  -19.8535  -15.5990 C   0  0  2  0  0  0  0  0  0  0  0  0
   23.2844  -20.2929  -14.6887 N   0  0  0  0  0  0  0  0  0  0  0  0
   24.3751  -20.9106  -15.3385 C   0  0  0  0  0  0  0  0  0  0  0  0
   22.7246  -20.9296  -13.4886 O   0  0  0  0  0  0  0  0  0  0  0  0
   22.2148  -22.0624  -13.5261 C   0  0  0  0  0  0  0  0  0  0  0  0
   22.4715  -17.4311  -16.0253 C   0  0  0  0  0  0  0  0  0  0  0  0
   22.8211  -16.3514  -16.8330 C   0  0  0  0  0  0  0  0  0  0  0  0
   25.3709  -20.0717   -9.1569 C   0  0  0  0  0  0  0  0  0  0  0  0
   24.3728  -21.0056   -9.7612 C   0  0  2  0  0  0  0  0  0  0  0  0
   22.9686  -20.5651   -9.8540 C   0  0  0  0  0  0  0  0  0  0  0  0
   22.1732  -21.0422   -8.6097 C   0  0  2  0  0  0  0  0  0  0  0  0
   22.1373  -20.9245  -11.0243 N   0  0  0  0  0  0  0  0  0  0  0  0
   22.7442  -20.2818  -12.2407 C   0  0  0  0  0  0  0  0  0  0  0  0
   20.7314  -20.6079  -11.0498 O   0  0  0  0  0  0  0  0  0  0  0  0
   19.6726  -21.4425  -10.7603 O   0  0  0  0  0  0  0  0  0  0  0  0
  2  4  1  0
  2  1  1  0
  3  2  2  0
  5  6  1  0
  5  4  1  0
  7  8  1  0
  7  6  1  0
  8 10  1  0
  8  9  1  6
 10 11  2  0
 12 13  1  0
 13 23  2  0
 13 14  1  0
 14 15  2  0
 15 16  1  0
 16 17  1  0
 18 17  1  6
 18 20  1  0
 19 18  1  0
 19 10  1  0
 20 29  1  0
 21 20  2  0
 22 16  2  0
 23 22  1  0
 24 25  1  0
 26 25  1  0
 26 28  1  0
 26 27  1  6
 28 30  1  0
 28 29  1  6
 30 32  2  0
 30 31  1  0
M  END
$$$$
