RYI.pdb
     RDKit          3D

 32 32  0  0  1  0  0  0  0  0999 V2000
   19.1157  -29.7676  -11.0382 N   0  0  0  0  0  0  0  0  0  0  0  0
   20.0608  -28.9521  -11.7180 C   0  0  0  0  0  0  0  0  0  0  0  0
   20.9931  -29.5426  -12.3804 N   0  0  0  0  0  0  0  0  0  0  0  0
   20.0300  -27.5467  -11.7033 N   0  0  0  0  0  0  0  0  0  0  0  0
   19.0459  -26.7975  -10.9051 C   0  0  0  0  0  0  0  0  0  0  0  0
   19.7285  -26.4233   -9.6370 C   0  0  0  0  0  0  0  0  0  0  0  0
   19.3646  -25.0998   -9.0614 C   0  0  0  0  0  0  0  0  0  0  0  0
   17.9116  -24.8349   -8.8719 C   0  0  2  0  0  0  0  0  0  0  0  0
   17.4436  -23.6037   -9.4182 N   0  0  0  0  0  0  0  0  0  0  0  0
   17.6449  -24.8290   -7.3797 C   0  0  0  0  0  0  0  0  0  0  0  0
   18.0504  -23.8526   -6.7253 O   0  0  0  0  0  0  0  0  0  0  0  0
   21.7582  -29.0869  -12.8854 O   0  0  0  0  0  0  0  0  0  0  0  0
   12.5770  -21.5158   -7.2749 C   0  0  0  0  0  0  0  0  0  0  0  0
   13.2145  -22.6321   -6.7504 C   0  0  0  0  0  0  0  0  0  0  0  0
   13.3437  -23.7808   -7.4991 C   0  0  0  0  0  0  0  0  0  0  0  0
   13.9873  -24.8894   -6.9518 C   0  0  0  0  0  0  0  0  0  0  0  0
   14.5010  -24.8714   -5.6788 C   0  0  0  0  0  0  0  0  0  0  0  0
   15.1812  -26.0437   -5.1046 C   0  0  2  0  0  0  0  0  0  0  0  0
   16.6422  -26.0938   -5.4100 N   0  0  0  0  0  0  0  0  0  0  0  0
   16.9670  -25.8862   -6.7683 C   0  0  0  0  0  0  0  0  0  0  0  0
   17.2710  -27.2141   -4.6967 O   0  0  0  0  0  0  0  0  0  0  0  0
   17.4215  -28.3269   -5.2292 C   0  0  0  0  0  0  0  0  0  0  0  0
   14.3573  -23.7133   -4.9566 C   0  0  0  0  0  0  0  0  0  0  0  0
   13.7180  -22.5929   -5.4824 C   0  0  0  0  0  0  0  0  0  0  0  0
   19.6030  -26.2805    0.5332 C   0  0  0  0  0  0  0  0  0  0  0  0
   18.6932  -26.8659   -0.4979 C   0  0  2  0  0  0  0  0  0  0  0  0
   19.2935  -27.6161   -1.6165 C   0  0  0  0  0  0  0  0  0  0  0  0
   20.3435  -26.7387   -2.3487 C   0  0  1  0  0  0  0  0  0  0  0  0
   18.4454  -28.1991   -2.6797 N   0  0  0  0  0  0  0  0  0  0  0  0
   17.7330  -27.0728   -3.3763 C   0  0  0  0  0  0  0  0  0  0  0  0
   17.4433  -29.1846   -2.3604 O   0  0  0  0  0  0  0  0  0  0  0  0
   16.0945  -28.9822   -2.1572 O   0  0  0  0  0  0  0  0  0  0  0  0
  2  4  1  0
  2  1  1  0
  3  2  2  0
  5  6  1  0
  5  4  1  0
  7  8  1  0
  7  6  1  0
  8 10  1  0
  8  9  1  1
 10 11  2  0
 12 13  1  0
 13 23  2  0
 13 14  1  0
 14 15  2  0
 15 16  1  0
 16 17  1  0
 18 17  1  1
 18 20  1  0
 19 18  1  0
 19 10  1  0
 20 29  1  0
 21 20  2  0
 22 16  2  0
 23 22  1  0
 24 25  1  0
 26 25  1  0
 26 28  1  0
 26 27  1  1
 28 30  1  0
 28 29  1  6
 30 32  2  0
 30 31  1  0
M  END
$$$$
