RYI.pdb
     RDKit          3D

 32 32  0  0  1  0  0  0  0  0999 V2000
   30.4338  -18.6074  -18.6290 N   0  0  0  0  0  0  0  0  0  0  0  0
   29.7606  -17.3692  -18.8139 C   0  0  0  0  0  0  0  0  0  0  0  0
   30.0590  -16.6762  -19.8567 N   0  0  0  0  0  0  0  0  0  0  0  0
   28.7952  -16.8672  -17.9237 N   0  0  0  0  0  0  0  0  0  0  0  0
   28.3398  -17.6359  -16.7539 C   0  0  0  0  0  0  0  0  0  0  0  0
   27.0341  -18.2424  -17.1301 C   0  0  0  0  0  0  0  0  0  0  0  0
   26.4089  -19.1355  -16.1169 C   0  0  0  0  0  0  0  0  0  0  0  0
   27.2782  -20.1998  -15.5432 C   0  0  2  0  0  0  0  0  0  0  0  0
   27.6963  -21.2036  -16.4657 N   0  0  0  0  0  0  0  0  0  0  0  0
   26.4976  -20.8682  -14.4290 C   0  0  0  0  0  0  0  0  0  0  0  0
   25.9271  -21.9422  -14.6885 O   0  0  0  0  0  0  0  0  0  0  0  0
   29.6505  -15.7758  -20.1219 O   0  0  0  0  0  0  0  0  0  0  0  0
   31.6238  -21.8691  -10.1318 C   0  0  0  0  0  0  0  0  0  0  0  0
   30.2966  -21.4855  -10.2708 C   0  0  0  0  0  0  0  0  0  0  0  0
   29.2948  -22.1891   -9.6396 C   0  0  0  0  0  0  0  0  0  0  0  0
   27.9695  -21.7859   -9.7936 C   0  0  0  0  0  0  0  0  0  0  0  0
   27.6290  -20.7000  -10.5613 C   0  0  0  0  0  0  0  0  0  0  0  0
   26.2283  -20.2765  -10.7206 C   0  0  2  0  0  0  0  0  0  0  0  0
   25.6394  -20.6494  -12.0414 N   0  0  0  0  0  0  0  0  0  0  0  0
   26.4261  -20.2926  -13.1583 C   0  0  0  0  0  0  0  0  0  0  0  0
   24.2031  -20.3403  -12.0614 O   0  0  0  0  0  0  0  0  0  0  0  0
   23.7861  -19.1732  -12.1537 C   0  0  0  0  0  0  0  0  0  0  0  0
   28.6482  -20.0186  -11.1781 C   0  0  0  0  0  0  0  0  0  0  0  0
   29.9799  -20.4027  -11.0389 C   0  0  0  0  0  0  0  0  0  0  0  0
   21.8776  -22.5562  -15.9675 C   0  0  0  0  0  0  0  0  0  0  0  0
   22.2274  -21.6982  -14.7949 C   0  0  2  0  0  0  0  0  0  0  0  0
   21.4726  -21.8838  -13.5418 C   0  0  0  0  0  0  0  0  0  0  0  0
   19.9564  -21.6663  -13.7914 C   0  0  2  0  0  0  0  0  0  0  0  0
   21.7991  -21.0907  -12.3359 N   0  0  0  0  0  0  0  0  0  0  0  0
   23.2353  -21.3570  -11.9789 C   0  0  0  0  0  0  0  0  0  0  0  0
   21.0369  -21.2529  -11.1233 O   0  0  0  0  0  0  0  0  0  0  0  0
   19.9810  -20.4844  -10.6805 O   0  0  0  0  0  0  0  0  0  0  0  0
  2  4  1  0
  2  1  1  0
  3  2  2  0
  5  6  1  0
  5  4  1  0
  7  8  1  0
  7  6  1  0
  8 10  1  0
  8  9  1  6
 10 11  2  0
 12 13  1  0
 13 23  2  0
 13 14  1  0
 14 15  2  0
 15 16  1  0
 16 17  1  0
 18 17  1  1
 18 20  1  0
 19 18  1  0
 19 10  1  0
 20 29  1  0
 21 20  2  0
 22 16  2  0
 23 22  1  0
 24 25  1  0
 26 25  1  0
 26 28  1  0
 26 27  1  1
 28 30  1  0
 28 29  1  6
 30 32  2  0
 30 31  1  0
M  END
$$$$
