RYI.pdb
     RDKit          3D

 32 32  0  0  1  0  0  0  0  0999 V2000
   27.7946  -22.5537  -18.0000 N   0  0  0  0  0  0  0  0  0  0  0  0
   29.1614  -22.6012  -17.6126 C   0  0  0  0  0  0  0  0  0  0  0  0
   30.0309  -22.8771  -18.5207 N   0  0  0  0  0  0  0  0  0  0  0  0
   29.6077  -22.3652  -16.3006 N   0  0  0  0  0  0  0  0  0  0  0  0
   28.6967  -21.9091  -15.2381 C   0  0  0  0  0  0  0  0  0  0  0  0
   28.8697  -20.4345  -15.1386 C   0  0  0  0  0  0  0  0  0  0  0  0
   27.9517  -19.7275  -14.2044 C   0  0  0  0  0  0  0  0  0  0  0  0
   26.6071  -20.3360  -14.0072 C   0  0  2  0  0  0  0  0  0  0  0  0
   25.6232  -19.9565  -14.9672 N   0  0  0  0  0  0  0  0  0  0  0  0
   26.1208  -19.9204  -12.6330 C   0  0  0  0  0  0  0  0  0  0  0  0
   25.9008  -18.7118  -12.4403 O   0  0  0  0  0  0  0  0  0  0  0  0
   31.0435  -22.9468  -18.3873 O   0  0  0  0  0  0  0  0  0  0  0  0
   20.0658  -18.9368  -13.0908 C   0  0  0  0  0  0  0  0  0  0  0  0
   21.0778  -19.5027  -12.3269 C   0  0  0  0  0  0  0  0  0  0  0  0
   21.8389  -20.5355  -12.8279 C   0  0  0  0  0  0  0  0  0  0  0  0
   22.8493  -21.0883  -12.0431 C   0  0  0  0  0  0  0  0  0  0  0  0
   23.1116  -20.6314  -10.7754 C   0  0  0  0  0  0  0  0  0  0  0  0
   24.1804  -21.2169   -9.9499 C   0  0  2  0  0  0  0  0  0  0  0  0
   25.5405  -20.6942  -10.2773 N   0  0  0  0  0  0  0  0  0  0  0  0
   25.9288  -20.8668  -11.6238 C   0  0  0  0  0  0  0  0  0  0  0  0
   26.4910  -21.0546   -9.2163 O   0  0  0  0  0  0  0  0  0  0  0  0
   27.1049  -22.1352   -9.2271 C   0  0  0  0  0  0  0  0  0  0  0  0
   22.3370  -19.6017  -10.3029 C   0  0  0  0  0  0  0  0  0  0  0  0
   21.3218  -19.0333  -11.0688 C   0  0  0  0  0  0  0  0  0  0  0  0
   30.2985  -18.7239   -5.0196 C   0  0  0  0  0  0  0  0  0  0  0  0
   29.3540  -19.8250   -5.3790 C   0  0  2  0  0  0  0  0  0  0  0  0
   28.4058  -19.6005   -6.4858 C   0  0  0  0  0  0  0  0  0  0  0  0
   27.5195  -18.3613   -6.1900 C   0  0  2  0  0  0  0  0  0  0  0  0
   27.4744  -20.6677   -6.9140 N   0  0  0  0  0  0  0  0  0  0  0  0
   26.7488  -20.1871   -8.1402 C   0  0  0  0  0  0  0  0  0  0  0  0
   26.4690  -21.1691   -6.0111 O   0  0  0  0  0  0  0  0  0  0  0  0
   25.1035  -20.9925   -6.0856 O   0  0  0  0  0  0  0  0  0  0  0  0
  2  4  1  0
  2  1  1  0
  3  2  2  0
  5  6  1  0
  5  4  1  0
  7  8  1  0
  7  6  1  0
  8 10  1  0
  8  9  1  6
 10 11  2  0
 12 13  1  0
 13 23  2  0
 13 14  1  0
 14 15  2  0
 15 16  1  0
 16 17  1  0
 18 17  1  6
 18 20  1  0
 19 18  1  0
 19 10  1  0
 20 29  1  0
 21 20  2  0
 22 16  2  0
 23 22  1  0
 24 25  1  0
 26 25  1  0
 26 28  1  0
 26 27  1  6
 28 30  1  0
 28 29  1  1
 30 32  2  0
 30 31  1  0
M  END
$$$$
