RYI.pdb
     RDKit          3D

 32 32  0  0  1  0  0  0  0  0999 V2000
   28.8522  -31.2480  -17.6235 N   0  0  0  0  0  0  0  0  0  0  0  0
   29.3397  -32.0926  -16.5893 C   0  0  0  0  0  0  0  0  0  0  0  0
   30.5843  -31.9963  -16.2757 N   0  0  0  0  0  0  0  0  0  0  0  0
   28.5396  -33.0195  -15.8987 N   0  0  0  0  0  0  0  0  0  0  0  0
   27.0961  -33.1472  -16.1570 C   0  0  0  0  0  0  0  0  0  0  0  0
   26.4688  -31.8854  -15.6789 C   0  0  0  0  0  0  0  0  0  0  0  0
   25.5529  -32.0085  -14.5123 C   0  0  0  0  0  0  0  0  0  0  0  0
   24.2203  -32.6186  -14.7758 C   0  0  2  0  0  0  0  0  0  0  0  0
   23.3501  -31.8427  -15.5968 N   0  0  0  0  0  0  0  0  0  0  0  0
   23.5486  -32.8324  -13.4338 C   0  0  0  0  0  0  0  0  0  0  0  0
   22.8933  -31.8879  -12.9600 O   0  0  0  0  0  0  0  0  0  0  0  0
   31.0822  -32.5727  -15.5916 O   0  0  0  0  0  0  0  0  0  0  0  0
   17.4247  -32.8207  -13.7573 C   0  0  0  0  0  0  0  0  0  0  0  0
   18.5400  -33.4305  -13.1985 C   0  0  0  0  0  0  0  0  0  0  0  0
   18.7094  -33.4627  -11.8321 C   0  0  0  0  0  0  0  0  0  0  0  0
   19.8369  -34.0801  -11.2935 C   0  0  0  0  0  0  0  0  0  0  0  0
   20.7918  -34.6622  -12.0896 C   0  0  0  0  0  0  0  0  0  0  0  0
   21.9808  -35.3145  -11.5172 C   0  0  2  0  0  0  0  0  0  0  0  0
   23.1872  -34.4347  -11.4879 N   0  0  0  0  0  0  0  0  0  0  0  0
   23.6660  -34.0499  -12.7592 C   0  0  0  0  0  0  0  0  0  0  0  0
   24.1480  -34.9250  -10.4901 O   0  0  0  0  0  0  0  0  0  0  0  0
   25.1107  -35.6443  -10.8069 C   0  0  0  0  0  0  0  0  0  0  0  0
   20.5964  -34.6145  -13.4472 C   0  0  0  0  0  0  0  0  0  0  0  0
   19.4776  -34.0032  -14.0084 C   0  0  0  0  0  0  0  0  0  0  0  0
   25.8612  -31.8501   -6.2785 C   0  0  0  0  0  0  0  0  0  0  0  0
   25.7297  -32.8592   -7.3730 C   0  0  2  0  0  0  0  0  0  0  0  0
   25.1611  -34.1792   -7.0436 C   0  0  0  0  0  0  0  0  0  0  0  0
   26.0245  -34.8802   -5.9610 C   0  0  2  0  0  0  0  0  0  0  0  0
   24.9382  -35.1930   -8.0982 N   0  0  0  0  0  0  0  0  0  0  0  0
   24.0192  -34.5977   -9.1287 C   0  0  0  0  0  0  0  0  0  0  0  0
   24.4009  -36.4890   -7.7675 O   0  0  0  0  0  0  0  0  0  0  0  0
   23.0784  -36.8793   -7.7656 O   0  0  0  0  0  0  0  0  0  0  0  0
  2  4  1  0
  2  1  1  0
  3  2  2  0
  5  6  1  0
  5  4  1  0
  7  8  1  0
  7  6  1  0
  8 10  1  0
  8  9  1  6
 10 11  2  0
 12 13  1  0
 13 23  2  0
 13 14  1  0
 14 15  2  0
 15 16  1  0
 16 17  1  0
 18 17  1  1
 18 20  1  0
 19 18  1  0
 19 10  1  0
 20 29  1  0
 21 20  2  0
 22 16  2  0
 23 22  1  0
 24 25  1  0
 26 25  1  0
 26 28  1  0
 26 27  1  1
 28 30  1  0
 28 29  1  6
 30 32  2  0
 30 31  1  0
M  END
$$$$
