RYI.pdb
     RDKit          3D

 32 32  0  0  1  0  0  0  0  0999 V2000
   23.9374  -21.4561  -19.8930 N   0  0  0  0  0  0  0  0  0  0  0  0
   24.6265  -20.5788  -20.7739 C   0  0  0  0  0  0  0  0  0  0  0  0
   23.9213  -19.7712  -21.4861 N   0  0  0  0  0  0  0  0  0  0  0  0
   26.0258  -20.5490  -20.9063 N   0  0  0  0  0  0  0  0  0  0  0  0
   26.9114  -21.2716  -19.9788 C   0  0  0  0  0  0  0  0  0  0  0  0
   27.5363  -20.2425  -19.1044 C   0  0  0  0  0  0  0  0  0  0  0  0
   27.1595  -20.2873  -17.6653 C   0  0  0  0  0  0  0  0  0  0  0  0
   27.8643  -21.2948  -16.8254 C   0  0  2  0  0  0  0  0  0  0  0  0
   28.1391  -22.5364  -17.4707 N   0  0  0  0  0  0  0  0  0  0  0  0
   26.9901  -21.5661  -15.6172 C   0  0  0  0  0  0  0  0  0  0  0  0
   25.9708  -22.2579  -15.7866 O   0  0  0  0  0  0  0  0  0  0  0  0
   24.2792  -19.0902  -22.1615 O   0  0  0  0  0  0  0  0  0  0  0  0
   24.3257  -20.7642   -7.1797 C   0  0  0  0  0  0  0  0  0  0  0  0
   25.0589  -20.7114   -8.3577 C   0  0  0  0  0  0  0  0  0  0  0  0
   25.4253  -21.8695   -9.0066 C   0  0  0  0  0  0  0  0  0  0  0  0
   26.1614  -21.7923  -10.1876 C   0  0  0  0  0  0  0  0  0  0  0  0
   26.5355  -20.5873  -10.7286 C   0  0  0  0  0  0  0  0  0  0  0  0
   27.3119  -20.5097  -11.9768 C   0  0  2  0  0  0  0  0  0  0  0  0
   26.5570  -20.9757  -13.1782 N   0  0  0  0  0  0  0  0  0  0  0  0
   27.3238  -21.0541  -14.3612 C   0  0  0  0  0  0  0  0  0  0  0  0
   25.2396  -20.3272  -13.2321 O   0  0  0  0  0  0  0  0  0  0  0  0
   25.1200  -19.1013  -13.3976 C   0  0  0  0  0  0  0  0  0  0  0  0
   26.1563  -19.4504  -10.0600 C   0  0  0  0  0  0  0  0  0  0  0  0
   25.4205  -19.5027   -8.8784 C   0  0  0  0  0  0  0  0  0  0  0  0
   22.3451  -20.0098  -17.0168 C   0  0  0  0  0  0  0  0  0  0  0  0
   22.8937  -19.8396  -15.6370 C   0  0  2  0  0  0  0  0  0  0  0  0
   22.1875  -20.4899  -14.5178 C   0  0  0  0  0  0  0  0  0  0  0  0
   20.7191  -19.9922  -14.4482 C   0  0  2  0  0  0  0  0  0  0  0  0
   22.7091  -20.3970  -13.1362 N   0  0  0  0  0  0  0  0  0  0  0  0
   24.0532  -21.0702  -13.1002 C   0  0  0  0  0  0  0  0  0  0  0  0
   21.9532  -20.9282  -12.0298 O   0  0  0  0  0  0  0  0  0  0  0  0
   21.1019  -20.2480  -11.1848 O   0  0  0  0  0  0  0  0  0  0  0  0
  2  4  1  0
  2  1  1  0
  3  2  2  0
  5  6  1  0
  5  4  1  0
  7  8  1  0
  7  6  1  0
  8 10  1  0
  8  9  1  6
 10 11  2  0
 12 13  1  0
 13 23  2  0
 13 14  1  0
 14 15  2  0
 15 16  1  0
 16 17  1  0
 18 17  1  1
 18 20  1  0
 19 18  1  0
 19 10  1  0
 20 29  1  0
 21 20  2  0
 22 16  2  0
 23 22  1  0
 24 25  1  0
 26 25  1  0
 26 28  1  0
 26 27  1  1
 28 30  1  0
 28 29  1  1
 30 32  2  0
 30 31  1  0
M  END
$$$$
