RYI.pdb
     RDKit          3D

 32 32  0  0  1  0  0  0  0  0999 V2000
   21.2280  -31.2363  -15.4974 N   0  0  0  0  0  0  0  0  0  0  0  0
   22.0217  -30.6389  -14.4807 C   0  0  0  0  0  0  0  0  0  0  0  0
   22.1252  -31.2623  -13.3594 N   0  0  0  0  0  0  0  0  0  0  0  0
   22.6924  -29.4132  -14.6357 N   0  0  0  0  0  0  0  0  0  0  0  0
   22.9185  -28.8110  -15.9597 C   0  0  0  0  0  0  0  0  0  0  0  0
   24.3906  -28.6482  -16.1030 C   0  0  0  0  0  0  0  0  0  0  0  0
   24.9477  -27.3287  -15.6982 C   0  0  0  0  0  0  0  0  0  0  0  0
   23.9667  -26.2259  -15.5017 C   0  0  2  0  0  0  0  0  0  0  0  0
   23.3638  -25.7309  -16.6955 N   0  0  0  0  0  0  0  0  0  0  0  0
   24.7006  -25.0841  -14.8267 C   0  0  0  0  0  0  0  0  0  0  0  0
   25.3998  -25.3544  -13.8347 O   0  0  0  0  0  0  0  0  0  0  0  0
   22.5962  -30.9192  -12.5177 O   0  0  0  0  0  0  0  0  0  0  0  0
   28.2200  -17.0420  -13.9113 C   0  0  0  0  0  0  0  0  0  0  0  0
   27.5057  -18.1366  -14.3798 C   0  0  0  0  0  0  0  0  0  0  0  0
   28.1602  -19.2152  -14.9321 C   0  0  0  0  0  0  0  0  0  0  0  0
   27.4225  -20.3030  -15.3960 C   0  0  0  0  0  0  0  0  0  0  0  0
   26.0522  -20.3327  -15.3188 C   0  0  0  0  0  0  0  0  0  0  0  0
   25.2764  -21.4838  -15.8087 C   0  0  2  0  0  0  0  0  0  0  0  0
   25.1243  -22.5732  -14.7987 N   0  0  0  0  0  0  0  0  0  0  0  0
   24.5906  -23.7773  -15.3076 C   0  0  0  0  0  0  0  0  0  0  0  0
   24.5770  -22.0315  -13.5473 O   0  0  0  0  0  0  0  0  0  0  0  0
   23.3683  -22.1161  -13.2709 C   0  0  0  0  0  0  0  0  0  0  0  0
   25.4276  -19.2439  -14.7639 C   0  0  0  0  0  0  0  0  0  0  0  0
   26.1437  -18.1456  -14.2934 C   0  0  0  0  0  0  0  0  0  0  0  0
   27.0212  -20.1721   -8.0883 C   0  0  0  0  0  0  0  0  0  0  0  0
   25.8172  -20.4215   -8.9378 C   0  0  2  0  0  0  0  0  0  0  0  0
   26.0218  -20.8082  -10.3459 C   0  0  0  0  0  0  0  0  0  0  0  0
   26.9620  -19.7935  -11.0498 C   0  0  2  0  0  0  0  0  0  0  0  0
   24.8702  -20.9880  -11.2575 N   0  0  0  0  0  0  0  0  0  0  0  0
   25.4021  -21.3934  -12.6043 C   0  0  0  0  0  0  0  0  0  0  0  0
   23.9430  -19.9091  -11.4891 O   0  0  0  0  0  0  0  0  0  0  0  0
   23.7868  -19.1618  -12.6375 O   0  0  0  0  0  0  0  0  0  0  0  0
  2  4  1  0
  2  1  1  0
  3  2  2  0
  5  6  1  0
  5  4  1  0
  7  8  1  0
  7  6  1  0
  8 10  1  0
  8  9  1  6
 10 11  2  0
 12 13  1  0
 13 23  2  0
 13 14  1  0
 14 15  2  0
 15 16  1  0
 16 17  1  0
 18 17  1  6
 18 20  1  0
 19 18  1  0
 19 10  1  0
 20 29  1  0
 21 20  2  0
 22 16  2  0
 23 22  1  0
 24 25  1  0
 26 25  1  0
 26 28  1  0
 26 27  1  6
 28 30  1  0
 28 29  1  6
 30 32  2  0
 30 31  1  0
M  END
$$$$
