RYI.pdb
     RDKit          3D

 32 32  0  0  1  0  0  0  0  0999 V2000
   24.8990  -32.4495  -13.8748 N   0  0  0  0  0  0  0  0  0  0  0  0
   24.7962  -32.5850  -15.2860 C   0  0  0  0  0  0  0  0  0  0  0  0
   25.7165  -33.2509  -15.8913 N   0  0  0  0  0  0  0  0  0  0  0  0
   23.7510  -32.0335  -16.0473 N   0  0  0  0  0  0  0  0  0  0  0  0
   22.7260  -31.1634  -15.4480 C   0  0  0  0  0  0  0  0  0  0  0  0
   21.5238  -32.0137  -15.2336 C   0  0  0  0  0  0  0  0  0  0  0  0
   20.3431  -31.3403  -14.6273 C   0  0  0  0  0  0  0  0  0  0  0  0
   20.5018  -30.8533  -13.2291 C   0  0  2  0  0  0  0  0  0  0  0  0
   19.9247  -31.6881  -12.2273 N   0  0  0  0  0  0  0  0  0  0  0  0
   19.8481  -29.4880  -13.1499 C   0  0  0  0  0  0  0  0  0  0  0  0
   18.6070  -29.4386  -13.2085 O   0  0  0  0  0  0  0  0  0  0  0  0
   25.7563  -33.4539  -16.8939 O   0  0  0  0  0  0  0  0  0  0  0  0
   17.8144  -25.1855   -7.3272 C   0  0  0  0  0  0  0  0  0  0  0  0
   18.5811  -25.4308   -8.4584 C   0  0  0  0  0  0  0  0  0  0  0  0
   19.3029  -26.5979   -8.5753 C   0  0  0  0  0  0  0  0  0  0  0  0
   20.0657  -26.8227   -9.7199 C   0  0  0  0  0  0  0  0  0  0  0  0
   20.1203  -25.9091  -10.7431 C   0  0  0  0  0  0  0  0  0  0  0  0
   20.9261  -26.1505  -11.9510 C   0  0  2  0  0  0  0  0  0  0  0  0
   20.2252  -26.9753  -12.9800 N   0  0  0  0  0  0  0  0  0  0  0  0
   20.6188  -28.3308  -13.0158 C   0  0  0  0  0  0  0  0  0  0  0  0
   20.1299  -26.2338  -14.2450 O   0  0  0  0  0  0  0  0  0  0  0  0
   21.0154  -26.3059  -15.1140 C   0  0  0  0  0  0  0  0  0  0  0  0
   19.3910  -24.7555  -10.5986 C   0  0  0  0  0  0  0  0  0  0  0  0
   18.6214  -24.5089   -9.4641 C   0  0  0  0  0  0  0  0  0  0  0  0
   18.2145  -24.8513  -19.0348 C   0  0  0  0  0  0  0  0  0  0  0  0
   17.4266  -24.4091  -17.8443 C   0  0  2  0  0  0  0  0  0  0  0  0
   17.7456  -25.0040  -16.5334 C   0  0  0  0  0  0  0  0  0  0  0  0
   16.5677  -24.7897  -15.5459 C   0  0  2  0  0  0  0  0  0  0  0  0
   18.9652  -24.6048  -15.7966 N   0  0  0  0  0  0  0  0  0  0  0  0
   19.0264  -25.4095  -14.5278 C   0  0  0  0  0  0  0  0  0  0  0  0
   19.1782  -23.2293  -15.4220 O   0  0  0  0  0  0  0  0  0  0  0  0
   18.9909  -22.6528  -14.1835 O   0  0  0  0  0  0  0  0  0  0  0  0
  2  4  1  0
  2  1  1  0
  3  2  2  0
  5  6  1  0
  5  4  1  0
  7  8  1  0
  7  6  1  0
  8 10  1  0
  8  9  1  1
 10 11  2  0
 12 13  1  0
 13 23  2  0
 13 14  1  0
 14 15  2  0
 15 16  1  0
 16 17  1  0
 18 17  1  1
 18 20  1  0
 19 18  1  0
 19 10  1  0
 20 29  1  0
 21 20  2  0
 22 16  2  0
 23 22  1  0
 24 25  1  0
 26 25  1  0
 26 28  1  0
 26 27  1  1
 28 30  1  0
 28 29  1  1
 30 32  2  0
 30 31  1  0
M  END
$$$$
