RYI.pdb
     RDKit          3D

 32 32  0  0  1  0  0  0  0  0999 V2000
   26.3942  -22.1171  -22.1928 N   0  0  0  0  0  0  0  0  0  0  0  0
   27.6818  -21.5819  -21.9169 C   0  0  0  0  0  0  0  0  0  0  0  0
   28.3209  -21.0304  -22.8885 N   0  0  0  0  0  0  0  0  0  0  0  0
   28.2876  -21.6246  -20.6490 N   0  0  0  0  0  0  0  0  0  0  0  0
   27.6746  -22.3377  -19.5165 C   0  0  0  0  0  0  0  0  0  0  0  0
   26.9896  -21.3071  -18.6902 C   0  0  0  0  0  0  0  0  0  0  0  0
   27.7618  -20.7714  -17.5360 C   0  0  0  0  0  0  0  0  0  0  0  0
   28.1425  -21.7501  -16.4803 C   0  0  2  0  0  0  0  0  0  0  0  0
   28.4385  -23.0637  -16.9497 N   0  0  0  0  0  0  0  0  0  0  0  0
   26.9830  -21.8388  -15.5079 C   0  0  0  0  0  0  0  0  0  0  0  0
   26.0566  -22.6205  -15.7851 O   0  0  0  0  0  0  0  0  0  0  0  0
   29.2731  -20.6564  -22.8513 O   0  0  0  0  0  0  0  0  0  0  0  0
   22.9507  -20.9403   -7.6936 C   0  0  0  0  0  0  0  0  0  0  0  0
   23.8126  -20.7789   -8.7702 C   0  0  0  0  0  0  0  0  0  0  0  0
   25.0241  -21.4331   -8.8014 C   0  0  0  0  0  0  0  0  0  0  0  0
   25.8733  -21.2559   -9.8923 C   0  0  0  0  0  0  0  0  0  0  0  0
   25.5365  -20.4424  -10.9456 C   0  0  0  0  0  0  0  0  0  0  0  0
   26.4354  -20.2586  -12.0967 C   0  0  2  0  0  0  0  0  0  0  0  0
   25.9918  -20.9885  -13.3217 N   0  0  0  0  0  0  0  0  0  0  0  0
   26.9627  -21.0669  -14.3440 C   0  0  0  0  0  0  0  0  0  0  0  0
   24.6215  -20.5953  -13.6778 O   0  0  0  0  0  0  0  0  0  0  0  0
   24.3689  -19.4888  -14.1841 C   0  0  0  0  0  0  0  0  0  0  0  0
   24.3233  -19.8035  -10.8868 C   0  0  0  0  0  0  0  0  0  0  0  0
   23.4582  -19.9653   -9.8072 C   0  0  0  0  0  0  0  0  0  0  0  0
   20.4008  -22.3959  -17.1789 C   0  0  0  0  0  0  0  0  0  0  0  0
   20.6291  -21.6043  -15.9319 C   0  0  2  0  0  0  0  0  0  0  0  0
   21.9011  -21.7881  -15.2091 C   0  0  0  0  0  0  0  0  0  0  0  0
   22.1463  -23.2948  -14.9292 C   0  0  2  0  0  0  0  0  0  0  0  0
   22.1504  -21.0952  -13.9256 N   0  0  0  0  0  0  0  0  0  0  0  0
   23.5336  -21.4595  -13.4615 C   0  0  0  0  0  0  0  0  0  0  0  0
   21.2725  -21.2977  -12.8006 O   0  0  0  0  0  0  0  0  0  0  0  0
   20.0296  -20.7394  -12.5883 O   0  0  0  0  0  0  0  0  0  0  0  0
  2  4  1  0
  2  1  1  0
  3  2  2  0
  5  6  1  0
  5  4  1  0
  7  8  1  0
  7  6  1  0
  8 10  1  0
  8  9  1  6
 10 11  2  0
 12 13  1  0
 13 23  2  0
 13 14  1  0
 14 15  2  0
 15 16  1  0
 16 17  1  0
 18 17  1  1
 18 20  1  0
 19 18  1  0
 19 10  1  0
 20 29  1  0
 21 20  2  0
 22 16  2  0
 23 22  1  0
 24 25  1  0
 26 25  1  0
 26 28  1  0
 26 27  1  6
 28 30  1  0
 28 29  1  1
 30 32  2  0
 30 31  1  0
M  END
$$$$
