RYI.pdb
     RDKit          3D

 32 32  0  0  1  0  0  0  0  0999 V2000
   31.7770  -22.3462  -18.1663 N   0  0  0  0  0  0  0  0  0  0  0  0
   31.4201  -21.3772  -19.1431 C   0  0  0  0  0  0  0  0  0  0  0  0
   32.3595  -20.8982  -19.8811 N   0  0  0  0  0  0  0  0  0  0  0  0
   30.1060  -20.9191  -19.3418 N   0  0  0  0  0  0  0  0  0  0  0  0
   28.9594  -21.5101  -18.6326 C   0  0  0  0  0  0  0  0  0  0  0  0
   28.1857  -20.3745  -18.0618 C   0  0  0  0  0  0  0  0  0  0  0  0
   28.4401  -20.0610  -16.6293 C   0  0  0  0  0  0  0  0  0  0  0  0
   28.2041  -21.1632  -15.6563 C   0  0  2  0  0  0  0  0  0  0  0  0
   27.5962  -22.3326  -16.2008 N   0  0  0  0  0  0  0  0  0  0  0  0
   27.3025  -20.6177  -14.5666 C   0  0  0  0  0  0  0  0  0  0  0  0
   27.5752  -19.4982  -14.0993 O   0  0  0  0  0  0  0  0  0  0  0  0
   32.2548  -20.1808  -20.6039 O   0  0  0  0  0  0  0  0  0  0  0  0
   20.0082  -18.9240  -10.0989 C   0  0  0  0  0  0  0  0  0  0  0  0
   20.9448  -19.5042  -10.9439 C   0  0  0  0  0  0  0  0  0  0  0  0
   21.3909  -20.7875  -10.7185 C   0  0  0  0  0  0  0  0  0  0  0  0
   22.3317  -21.3494  -11.5798 C   0  0  0  0  0  0  0  0  0  0  0  0
   22.8314  -20.6575  -12.6550 C   0  0  0  0  0  0  0  0  0  0  0  0
   23.8240  -21.2547  -13.5633 C   0  0  2  0  0  0  0  0  0  0  0  0
   25.2365  -21.0270  -13.1352 N   0  0  0  0  0  0  0  0  0  0  0  0
   26.2062  -21.3522  -14.1087 C   0  0  0  0  0  0  0  0  0  0  0  0
   25.4316  -21.5012  -11.7582 O   0  0  0  0  0  0  0  0  0  0  0  0
   25.6343  -22.7001  -11.5015 C   0  0  0  0  0  0  0  0  0  0  0  0
   22.3686  -19.3810  -12.8544 C   0  0  0  0  0  0  0  0  0  0  0  0
   21.4287  -18.7985  -12.0072 C   0  0  0  0  0  0  0  0  0  0  0  0
   28.2916  -19.4790   -6.8368 C   0  0  0  0  0  0  0  0  0  0  0  0
   27.3082  -20.4621   -7.3845 C   0  0  2  0  0  0  0  0  0  0  0  0
   26.5996  -20.1224   -8.6323 C   0  0  0  0  0  0  0  0  0  0  0  0
   25.7738  -18.8220   -8.4434 C   0  0  2  0  0  0  0  0  0  0  0  0
   25.6820  -21.0919   -9.2707 N   0  0  0  0  0  0  0  0  0  0  0  0
   25.3991  -20.6137  -10.6680 C   0  0  0  0  0  0  0  0  0  0  0  0
   24.4059  -21.3962   -8.6737 O   0  0  0  0  0  0  0  0  0  0  0  0
   24.1234  -22.3623   -7.7312 O   0  0  0  0  0  0  0  0  0  0  0  0
  2  4  1  0
  2  1  1  0
  3  2  2  0
  5  6  1  0
  5  4  1  0
  7  8  1  0
  7  6  1  0
  8 10  1  0
  8  9  1  6
 10 11  2  0
 12 13  1  0
 13 23  2  0
 13 14  1  0
 14 15  2  0
 15 16  1  0
 16 17  1  0
 18 17  1  6
 18 20  1  0
 19 18  1  0
 19 10  1  0
 20 29  1  0
 21 20  2  0
 22 16  2  0
 23 22  1  0
 24 25  1  0
 26 25  1  0
 26 28  1  0
 26 27  1  6
 28 30  1  0
 28 29  1  1
 30 32  2  0
 30 31  1  0
M  END
$$$$
