RYI.pdb
     RDKit          3D

 32 32  0  0  1  0  0  0  0  0999 V2000
   21.5862  -20.5465  -19.1114 N   0  0  0  0  0  0  0  0  0  0  0  0
   20.7239  -19.5146  -19.5720 C   0  0  0  0  0  0  0  0  0  0  0  0
   19.5893  -19.8618  -20.0709 N   0  0  0  0  0  0  0  0  0  0  0  0
   21.0443  -18.1471  -19.5117 N   0  0  0  0  0  0  0  0  0  0  0  0
   22.3082  -17.6683  -18.9285 C   0  0  0  0  0  0  0  0  0  0  0  0
   22.0015  -17.2672  -17.5288 C   0  0  0  0  0  0  0  0  0  0  0  0
   22.8887  -17.8309  -16.4751 C   0  0  0  0  0  0  0  0  0  0  0  0
   24.3148  -18.0393  -16.8493 C   0  0  2  0  0  0  0  0  0  0  0  0
   24.5294  -18.5242  -18.1731 N   0  0  0  0  0  0  0  0  0  0  0  0
   24.8959  -19.0417  -15.8719 C   0  0  0  0  0  0  0  0  0  0  0  0
   24.2658  -20.0972  -15.6854 O   0  0  0  0  0  0  0  0  0  0  0  0
   18.8440  -19.2300  -20.3763 O   0  0  0  0  0  0  0  0  0  0  0  0
   29.9400  -21.4589  -19.5312 C   0  0  0  0  0  0  0  0  0  0  0  0
   29.5355  -20.9841  -18.2907 C   0  0  0  0  0  0  0  0  0  0  0  0
   29.3053  -19.6402  -18.0967 C   0  0  0  0  0  0  0  0  0  0  0  0
   28.9002  -19.1861  -16.8428 C   0  0  0  0  0  0  0  0  0  0  0  0
   28.7219  -20.0444  -15.7863 C   0  0  0  0  0  0  0  0  0  0  0  0
   28.2927  -19.5614  -14.4637 C   0  0  2  0  0  0  0  0  0  0  0  0
   26.8108  -19.5695  -14.2783 N   0  0  0  0  0  0  0  0  0  0  0  0
   26.0972  -18.7820  -15.2080 C   0  0  0  0  0  0  0  0  0  0  0  0
   26.4778  -19.4537  -12.8519 O   0  0  0  0  0  0  0  0  0  0  0  0
   26.6414  -18.3927  -12.2258 C   0  0  0  0  0  0  0  0  0  0  0  0
   28.9588  -21.3777  -16.0093 C   0  0  0  0  0  0  0  0  0  0  0  0
   29.3643  -21.8547  -17.2537 C   0  0  0  0  0  0  0  0  0  0  0  0
   21.7185  -19.6794   -9.7240 C   0  0  0  0  0  0  0  0  0  0  0  0
   23.2025  -19.8079   -9.6012 C   0  0  2  0  0  0  0  0  0  0  0  0
   23.9749  -20.1774  -10.8017 C   0  0  0  0  0  0  0  0  0  0  0  0
   23.4080  -21.4812  -11.4241 C   0  0  2  0  0  0  0  0  0  0  0  0
   25.4403  -20.3703  -10.7304 N   0  0  0  0  0  0  0  0  0  0  0  0
   25.9554  -20.5430  -12.1325 C   0  0  0  0  0  0  0  0  0  0  0  0
   26.0012  -21.4450   -9.9507 O   0  0  0  0  0  0  0  0  0  0  0  0
   26.2990  -21.4453   -8.6043 O   0  0  0  0  0  0  0  0  0  0  0  0
  2  4  1  0
  2  1  1  0
  3  2  2  0
  5  6  1  0
  5  4  1  0
  7  8  1  0
  7  6  1  0
  8 10  1  0
  8  9  1  6
 10 11  2  0
 12 13  1  0
 13 23  2  0
 13 14  1  0
 14 15  2  0
 15 16  1  0
 16 17  1  0
 18 17  1  6
 18 20  1  0
 19 18  1  0
 19 10  1  0
 20 29  1  0
 21 20  2  0
 22 16  2  0
 23 22  1  0
 24 25  1  0
 26 25  1  0
 26 28  1  0
 26 27  1  6
 28 30  1  0
 28 29  1  1
 30 32  2  0
 30 31  1  0
M  END
$$$$
