RYI.pdb
     RDKit          3D

 32 32  0  0  1  0  0  0  0  0999 V2000
   29.3573  -19.9210  -21.6966 N   0  0  0  0  0  0  0  0  0  0  0  0
   29.2845  -18.5658  -21.2740 C   0  0  0  0  0  0  0  0  0  0  0  0
   29.1332  -17.6643  -22.1801 N   0  0  0  0  0  0  0  0  0  0  0  0
   29.3692  -18.1636  -19.9296 N   0  0  0  0  0  0  0  0  0  0  0  0
   29.5188  -19.1351  -18.8339 C   0  0  0  0  0  0  0  0  0  0  0  0
   28.3713  -20.0760  -18.9448 C   0  0  0  0  0  0  0  0  0  0  0  0
   27.5617  -20.2721  -17.7115 C   0  0  0  0  0  0  0  0  0  0  0  0
   28.1646  -21.1247  -16.6499 C   0  0  2  0  0  0  0  0  0  0  0  0
   28.6713  -22.3807  -17.0963 N   0  0  0  0  0  0  0  0  0  0  0  0
   27.0889  -21.3831  -15.6136 C   0  0  0  0  0  0  0  0  0  0  0  0
   26.0854  -22.0241  -15.9716 O   0  0  0  0  0  0  0  0  0  0  0  0
   29.0932  -16.6530  -22.0266 O   0  0  0  0  0  0  0  0  0  0  0  0
   23.2380  -21.0149   -7.6317 C   0  0  0  0  0  0  0  0  0  0  0  0
   24.1249  -20.8650   -8.6895 C   0  0  0  0  0  0  0  0  0  0  0  0
   25.1664  -21.7497   -8.8605 C   0  0  0  0  0  0  0  0  0  0  0  0
   26.0445  -21.5795   -9.9295 C   0  0  0  0  0  0  0  0  0  0  0  0
   25.9020  -20.5485  -10.8246 C   0  0  0  0  0  0  0  0  0  0  0  0
   26.8306  -20.3726  -11.9532 C   0  0  2  0  0  0  0  0  0  0  0  0
   26.2835  -20.8556  -13.2561 N   0  0  0  0  0  0  0  0  0  0  0  0
   27.2270  -20.9149  -14.3048 C   0  0  0  0  0  0  0  0  0  0  0  0
   24.9757  -20.2386  -13.5167 O   0  0  0  0  0  0  0  0  0  0  0  0
   24.8551  -19.0164  -13.7075 C   0  0  0  0  0  0  0  0  0  0  0  0
   24.8553  -19.6828  -10.6288 C   0  0  0  0  0  0  0  0  0  0  0  0
   23.9650  -19.8328   -9.5680 C   0  0  0  0  0  0  0  0  0  0  0  0
   22.3802  -20.7549  -17.7374 C   0  0  0  0  0  0  0  0  0  0  0  0
   22.8207  -20.3001  -16.3836 C   0  0  2  0  0  0  0  0  0  0  0  0
   22.0528  -20.7527  -15.2089 C   0  0  0  0  0  0  0  0  0  0  0  0
   20.5689  -20.3163  -15.3373 C   0  0  2  0  0  0  0  0  0  0  0  0
   22.4666  -20.3717  -13.8403 N   0  0  0  0  0  0  0  0  0  0  0  0
   23.8003  -21.0089  -13.5634 C   0  0  0  0  0  0  0  0  0  0  0  0
   21.6247  -20.6718  -12.7095 O   0  0  0  0  0  0  0  0  0  0  0  0
   20.6928  -19.8515  -12.1094 O   0  0  0  0  0  0  0  0  0  0  0  0
  2  4  1  0
  2  1  1  0
  3  2  2  0
  5  6  1  0
  5  4  1  0
  7  8  1  0
  7  6  1  0
  8 10  1  0
  8  9  1  6
 10 11  2  0
 12 13  1  0
 13 23  2  0
 13 14  1  0
 14 15  2  0
 15 16  1  0
 16 17  1  0
 18 17  1  1
 18 20  1  0
 19 18  1  0
 19 10  1  0
 20 29  1  0
 21 20  2  0
 22 16  2  0
 23 22  1  0
 24 25  1  0
 26 25  1  0
 26 28  1  0
 26 27  1  1
 28 30  1  0
 28 29  1  1
 30 32  2  0
 30 31  1  0
M  END
$$$$
