RYI.pdb
     RDKit          3D

 32 32  0  0  1  0  0  0  0  0999 V2000
   31.1482  -23.4339  -17.8404 N   0  0  0  0  0  0  0  0  0  0  0  0
   30.4096  -24.0542  -16.7962 C   0  0  0  0  0  0  0  0  0  0  0  0
   31.0070  -24.9515  -16.0929 N   0  0  0  0  0  0  0  0  0  0  0  0
   29.0725  -23.7412  -16.4958 N   0  0  0  0  0  0  0  0  0  0  0  0
   28.3354  -22.6945  -17.2224 C   0  0  0  0  0  0  0  0  0  0  0  0
   28.8311  -21.3914  -16.7026 C   0  0  0  0  0  0  0  0  0  0  0  0
   28.0623  -20.7995  -15.5740 C   0  0  0  0  0  0  0  0  0  0  0  0
   26.5932  -20.6596  -15.7725 C   0  0  2  0  0  0  0  0  0  0  0  0
   26.2040  -19.7422  -16.7925 N   0  0  0  0  0  0  0  0  0  0  0  0
   26.0026  -20.1920  -14.4570 C   0  0  0  0  0  0  0  0  0  0  0  0
   26.2070  -19.0127  -14.1199 O   0  0  0  0  0  0  0  0  0  0  0  0
   30.5910  -25.5054  -15.3391 O   0  0  0  0  0  0  0  0  0  0  0  0
   19.7928  -18.7586  -15.9912 C   0  0  0  0  0  0  0  0  0  0  0  0
   20.6382  -19.3742  -15.0778 C   0  0  0  0  0  0  0  0  0  0  0  0
   20.9597  -18.7520  -13.8919 C   0  0  0  0  0  0  0  0  0  0  0  0
   21.8104  -19.3888  -12.9901 C   0  0  0  0  0  0  0  0  0  0  0  0
   22.3423  -20.6275  -13.2496 C   0  0  0  0  0  0  0  0  0  0  0  0
   23.2395  -21.2975  -12.2941 C   0  0  2  0  0  0  0  0  0  0  0  0
   24.6602  -20.8483  -12.3950 N   0  0  0  0  0  0  0  0  0  0  0  0
   25.2564  -21.0606  -13.6572 C   0  0  0  0  0  0  0  0  0  0  0  0
   25.4023  -21.2392  -11.1886 O   0  0  0  0  0  0  0  0  0  0  0  0
   25.9191  -22.3636  -11.0739 C   0  0  0  0  0  0  0  0  0  0  0  0
   22.0044  -21.2229  -14.4390 C   0  0  0  0  0  0  0  0  0  0  0  0
   21.1561  -20.6060  -15.3556 C   0  0  0  0  0  0  0  0  0  0  0  0
   28.7156  -19.1616   -6.4863 C   0  0  0  0  0  0  0  0  0  0  0  0
   27.7624  -20.1904   -7.0026 C   0  0  2  0  0  0  0  0  0  0  0  0
   26.9978  -19.8850   -8.2259 C   0  0  0  0  0  0  0  0  0  0  0  0
   26.2363  -18.5427   -8.0616 C   0  0  2  0  0  0  0  0  0  0  0  0
   26.0074  -20.8459   -8.7602 N   0  0  0  0  0  0  0  0  0  0  0  0
   25.5616  -20.3526  -10.1090 C   0  0  0  0  0  0  0  0  0  0  0  0
   24.8104  -21.1537   -8.0186 O   0  0  0  0  0  0  0  0  0  0  0  0
   24.6631  -22.0634   -6.9928 O   0  0  0  0  0  0  0  0  0  0  0  0
  2  4  1  0
  2  1  1  0
  3  2  2  0
  5  6  1  0
  5  4  1  0
  7  8  1  0
  7  6  1  0
  8 10  1  0
  8  9  1  6
 10 11  2  0
 12 13  1  0
 13 23  2  0
 13 14  1  0
 14 15  2  0
 15 16  1  0
 16 17  1  0
 18 17  1  6
 18 20  1  0
 19 18  1  0
 19 10  1  0
 20 29  1  0
 21 20  2  0
 22 16  2  0
 23 22  1  0
 24 25  1  0
 26 25  1  0
 26 28  1  0
 26 27  1  6
 28 30  1  0
 28 29  1  1
 30 32  2  0
 30 31  1  0
M  END
$$$$
