RYI.pdb
     RDKit          3D

 32 32  0  0  1  0  0  0  0  0999 V2000
   27.8574  -17.3489  -20.9164 N   0  0  0  0  0  0  0  0  0  0  0  0
   27.8018  -16.2118  -20.0653 C   0  0  0  0  0  0  0  0  0  0  0  0
   27.3161  -15.1237  -20.5521 N   0  0  0  0  0  0  0  0  0  0  0  0
   28.2468  -16.2146  -18.7317 N   0  0  0  0  0  0  0  0  0  0  0  0
   28.5157  -17.4650  -18.0030 C   0  0  0  0  0  0  0  0  0  0  0  0
   27.5918  -18.4874  -18.5645 C   0  0  0  0  0  0  0  0  0  0  0  0
   26.9451  -19.3984  -17.5812 C   0  0  0  0  0  0  0  0  0  0  0  0
   27.7874  -20.5036  -17.0460 C   0  0  2  0  0  0  0  0  0  0  0  0
   28.0754  -21.5491  -17.9719 N   0  0  0  0  0  0  0  0  0  0  0  0
   27.0506  -21.1005  -15.8634 C   0  0  0  0  0  0  0  0  0  0  0  0
   26.1591  -21.9342  -16.1005 O   0  0  0  0  0  0  0  0  0  0  0  0
   27.2484  -14.2229  -20.0706 O   0  0  0  0  0  0  0  0  0  0  0  0
   24.1139  -20.6594   -7.4789 C   0  0  0  0  0  0  0  0  0  0  0  0
   24.8900  -20.5627   -8.6262 C   0  0  0  0  0  0  0  0  0  0  0  0
   24.9653  -19.3769   -9.3225 C   0  0  0  0  0  0  0  0  0  0  0  0
   25.7505  -19.3031  -10.4717 C   0  0  0  0  0  0  0  0  0  0  0  0
   26.4571  -20.3852  -10.9348 C   0  0  0  0  0  0  0  0  0  0  0  0
   27.2863  -20.3032  -12.1483 C   0  0  2  0  0  0  0  0  0  0  0  0
   26.5846  -20.7676  -13.3821 N   0  0  0  0  0  0  0  0  0  0  0  0
   27.3672  -20.7227  -14.5564 C   0  0  0  0  0  0  0  0  0  0  0  0
   25.2189  -20.2270  -13.4224 O   0  0  0  0  0  0  0  0  0  0  0  0
   24.9983  -19.0208  -13.6245 C   0  0  0  0  0  0  0  0  0  0  0  0
   26.3626  -21.5532  -10.2206 C   0  0  0  0  0  0  0  0  0  0  0  0
   25.5845  -21.6508   -9.0694 C   0  0  0  0  0  0  0  0  0  0  0  0
   20.3988  -20.2275  -16.4184 C   0  0  0  0  0  0  0  0  0  0  0  0
   20.8528  -20.1025  -14.9999 C   0  0  2  0  0  0  0  0  0  0  0  0
   22.1925  -20.6070  -14.6466 C   0  0  0  0  0  0  0  0  0  0  0  0
   22.3160  -22.1084  -15.0195 C   0  0  2  0  0  0  0  0  0  0  0  0
   22.7046  -20.4931  -13.2630 N   0  0  0  0  0  0  0  0  0  0  0  0
   24.0987  -21.0561  -13.2353 C   0  0  0  0  0  0  0  0  0  0  0  0
   21.9939  -21.1004  -12.1659 O   0  0  0  0  0  0  0  0  0  0  0  0
   20.8431  -20.6510  -11.5534 O   0  0  0  0  0  0  0  0  0  0  0  0
  2  4  1  0
  2  1  1  0
  3  2  2  0
  5  6  1  0
  5  4  1  0
  7  8  1  0
  7  6  1  0
  8 10  1  0
  8  9  1  6
 10 11  2  0
 12 13  1  0
 13 23  2  0
 13 14  1  0
 14 15  2  0
 15 16  1  0
 16 17  1  0
 18 17  1  1
 18 20  1  0
 19 18  1  0
 19 10  1  0
 20 29  1  0
 21 20  2  0
 22 16  2  0
 23 22  1  0
 24 25  1  0
 26 25  1  0
 26 28  1  0
 26 27  1  6
 28 30  1  0
 28 29  1  1
 30 32  2  0
 30 31  1  0
M  END
$$$$
