LIS.pdb
     RDKit          3D

 23 22  0  0  1  0  0  0  0  0999 V2000
   25.2173  -14.9325  -14.5926 C   0  0  0  0  0  0  0  0  0  0  0  0
   25.7161  -14.7084  -16.0044 C   0  0  2  0  0  0  0  0  0  0  0  0
   27.1997  -14.5190  -15.9350 C   0  0  0  0  0  0  0  0  0  0  0  0
   25.0449  -13.5242  -16.6560 C   0  0  0  0  0  0  0  0  0  0  0  0
   23.5378  -13.6517  -16.6067 C   0  0  2  0  0  0  0  0  0  0  0  0
   23.0887  -14.7410  -17.4493 N   0  0  0  0  0  0  0  0  0  0  0  0
   22.8644  -12.4189  -17.0725 C   0  0  0  0  0  0  0  0  0  0  0  0
   23.0005  -12.0244  -18.2526 O   0  0  0  0  0  0  0  0  0  0  0  0
   18.4242  -12.4490  -17.2641 C   0  0  0  0  0  0  0  0  0  0  0  0
   19.3846  -11.3911  -17.7353 C   0  0  0  0  0  0  0  0  0  0  0  0
   19.8901  -10.6319  -16.5428 C   0  0  2  0  0  0  0  0  0  0  0  0
   19.1813   -9.2980  -16.4907 C   0  0  0  0  0  0  0  0  0  0  0  0
   21.3905  -10.4155  -16.6005 C   0  0  2  0  0  0  0  0  0  0  0  0
   22.0384  -11.6271  -16.2174 N   0  0  0  0  0  0  0  0  0  0  0  0
   21.7507   -9.2685  -15.7107 C   0  0  0  0  0  0  0  0  0  0  0  0
   21.6763   -9.4394  -14.4865 O   0  0  0  0  0  0  0  0  0  0  0  0
   23.4360   -4.6837  -15.4824 O   0  0  0  0  0  0  0  0  0  0  0  0
   23.0506   -5.7556  -16.2839 C   0  0  0  0  0  0  0  0  0  0  0  0
   22.5128   -6.8973  -15.4446 C   0  0  2  0  0  0  0  0  0  0  0  0
   22.1596   -8.0398  -16.2591 N   0  0  0  0  0  0  0  0  0  0  0  0
   21.3785   -6.4535  -14.5994 C   0  0  0  0  0  0  0  0  0  0  0  0
   21.5102   -6.1360  -13.3938 O   0  0  0  0  0  0  0  0  0  0  0  0
   20.1312   -6.3878  -15.1624 O   0  0  0  0  0  0  0  0  0  0  0  0
  2  1  1  1
  2  3  1  0
  4  2  1  0
  5  4  1  0
  5  6  1  6
  7  8  2  0
  7  5  1  0
 10  9  1  0
 11 10  1  0
 11 12  1  6
 13 11  1  0
 13 14  1  1
 14  7  1  0
 15 20  1  0
 15 13  1  0
 16 15  2  0
 18 17  1  0
 19 18  1  6
 19 20  1  0
 21 19  1  0
 21 23  1  0
 22 21  2  0
M  END
$$$$
