LIS.pdb
     RDKit          3D

 23 22  0  0  1  0  0  0  0  0999 V2000
   21.9358  -10.8850  -22.2252 C   0  0  0  0  0  0  0  0  0  0  0  0
   20.6078  -11.5593  -21.9533 C   0  0  2  0  0  0  0  0  0  0  0  0
   19.6451  -11.1026  -23.0052 C   0  0  0  0  0  0  0  0  0  0  0  0
   20.0923  -11.2473  -20.5697 C   0  0  0  0  0  0  0  0  0  0  0  0
   21.1206  -11.5839  -19.5118 C   0  0  2  0  0  0  0  0  0  0  0  0
   21.1857  -13.0153  -19.2987 N   0  0  0  0  0  0  0  0  0  0  0  0
   20.8020  -10.9522  -18.2119 C   0  0  0  0  0  0  0  0  0  0  0  0
   19.8542  -11.3751  -17.5122 O   0  0  0  0  0  0  0  0  0  0  0  0
   24.0825  -10.4019  -14.3158 C   0  0  0  0  0  0  0  0  0  0  0  0
   22.8074  -10.4897  -15.1094 C   0  0  0  0  0  0  0  0  0  0  0  0
   22.4535   -9.1185  -15.6081 C   0  0  2  0  0  0  0  0  0  0  0  0
   22.2070   -8.2252  -14.4141 C   0  0  0  0  0  0  0  0  0  0  0  0
   21.2260   -9.1367  -16.4994 C   0  0  2  0  0  0  0  0  0  0  0  0
   21.5442   -9.8468  -17.6949 N   0  0  0  0  0  0  0  0  0  0  0  0
   20.7989   -7.7286  -16.7673 C   0  0  0  0  0  0  0  0  0  0  0  0
   21.5909   -6.9864  -17.3635 O   0  0  0  0  0  0  0  0  0  0  0  0
   17.1464   -4.5074  -16.7242 O   0  0  0  0  0  0  0  0  0  0  0  0
   17.5683   -5.8234  -16.5502 C   0  0  0  0  0  0  0  0  0  0  0  0
   19.0809   -5.9169  -16.5659 C   0  0  2  0  0  0  0  0  0  0  0  0
   19.5353   -7.2735  -16.3504 N   0  0  0  0  0  0  0  0  0  0  0  0
   19.6865   -4.9740  -15.5951 C   0  0  0  0  0  0  0  0  0  0  0  0
   20.1861   -5.3440  -14.5065 O   0  0  0  0  0  0  0  0  0  0  0  0
   19.7000   -3.6391  -15.9028 O   0  0  0  0  0  0  0  0  0  0  0  0
  2  1  1  6
  2  3  1  0
  4  2  1  0
  5  4  1  0
  5  6  1  1
  7  8  2  0
  7  5  1  0
 10  9  1  0
 11 10  1  0
 11 12  1  1
 13 11  1  0
 13 14  1  6
 14  7  1  0
 15 20  1  0
 15 13  1  0
 16 15  2  0
 18 17  1  0
 19 18  1  1
 19 20  1  0
 21 19  1  0
 21 23  1  0
 22 21  2  0
M  END
$$$$
