LIS.pdb
     RDKit          3D

 23 22  0  0  1  0  0  0  0  0999 V2000
   18.2845  -10.0738  -20.3425 C   0  0  0  0  0  0  0  0  0  0  0  0
   17.0947   -9.4189  -19.6735 C   0  0  2  0  0  0  0  0  0  0  0  0
   16.6646   -8.2735  -20.5365 C   0  0  0  0  0  0  0  0  0  0  0  0
   17.4213   -8.9556  -18.2749 C   0  0  0  0  0  0  0  0  0  0  0  0
   17.9808  -10.0859  -17.4387 C   0  0  2  0  0  0  0  0  0  0  0  0
   16.9191  -10.9610  -16.9855 N   0  0  0  0  0  0  0  0  0  0  0  0
   18.6909   -9.5863  -16.2402 C   0  0  0  0  0  0  0  0  0  0  0  0
   18.0627   -9.3211  -15.1905 O   0  0  0  0  0  0  0  0  0  0  0  0
   22.9441  -11.9776  -14.4901 C   0  0  0  0  0  0  0  0  0  0  0  0
   21.6841  -11.1719  -14.6535 C   0  0  0  0  0  0  0  0  0  0  0  0
   22.0557   -9.7352  -14.8817 C   0  0  2  0  0  0  0  0  0  0  0  0
   22.8218   -9.2430  -13.6754 C   0  0  0  0  0  0  0  0  0  0  0  0
   20.8364   -8.8616  -15.1086 C   0  0  2  0  0  0  0  0  0  0  0  0
   20.1046   -9.3833  -16.2163 N   0  0  0  0  0  0  0  0  0  0  0  0
   21.2833   -7.4517  -15.3317 C   0  0  0  0  0  0  0  0  0  0  0  0
   22.0574   -7.2314  -16.2729 O   0  0  0  0  0  0  0  0  0  0  0  0
   18.9933   -4.4727  -15.4815 O   0  0  0  0  0  0  0  0  0  0  0  0
   19.9868   -4.1174  -14.5722 C   0  0  0  0  0  0  0  0  0  0  0  0
   21.1900   -5.0308  -14.6958 C   0  0  2  0  0  0  0  0  0  0  0  0
   20.8318   -6.4177  -14.4923 N   0  0  0  0  0  0  0  0  0  0  0  0
   22.2812   -4.6061  -13.7864 C   0  0  0  0  0  0  0  0  0  0  0  0
   22.6454   -5.2831  -12.7961 O   0  0  0  0  0  0  0  0  0  0  0  0
   22.9192   -3.4207  -14.0409 O   0  0  0  0  0  0  0  0  0  0  0  0
  2  1  1  6
  2  3  1  0
  4  2  1  0
  5  4  1  0
  5  6  1  1
  7  8  2  0
  7  5  1  0
 10  9  1  0
 11 10  1  0
 11 12  1  1
 13 11  1  0
 13 14  1  6
 14  7  1  0
 15 20  1  0
 15 13  1  0
 16 15  2  0
 18 17  1  0
 19 18  1  1
 19 20  1  0
 21 19  1  0
 21 23  1  0
 22 21  2  0
M  END
$$$$
