LIS.pdb
     RDKit          3D

 23 22  0  0  1  0  0  0  0  0999 V2000
   27.8838  -14.7575  -16.4500 C   0  0  0  0  0  0  0  0  0  0  0  0
   26.5309  -15.4106  -16.6376 C   0  0  2  0  0  0  0  0  0  0  0  0
   26.7011  -16.5305  -17.6166 C   0  0  0  0  0  0  0  0  0  0  0  0
   25.4920  -14.4242  -17.1125 C   0  0  0  0  0  0  0  0  0  0  0  0
   25.5872  -13.1186  -16.3534 C   0  0  2  0  0  0  0  0  0  0  0  0
   25.1796  -13.2974  -14.9749 N   0  0  0  0  0  0  0  0  0  0  0  0
   24.7219  -12.0730  -16.9436 C   0  0  0  0  0  0  0  0  0  0  0  0
   24.8766  -11.7127  -18.1323 O   0  0  0  0  0  0  0  0  0  0  0  0
   19.4414  -11.9332  -15.6966 C   0  0  0  0  0  0  0  0  0  0  0  0
   20.8544  -11.4514  -15.5092 C   0  0  0  0  0  0  0  0  0  0  0  0
   21.4118  -11.0579  -16.8466 C   0  0  2  0  0  0  0  0  0  0  0  0
   21.4692  -12.2894  -17.7208 C   0  0  0  0  0  0  0  0  0  0  0  0
   22.7947  -10.4456  -16.7284 C   0  0  2  0  0  0  0  0  0  0  0  0
   23.6832  -11.4302  -16.2033 N   0  0  0  0  0  0  0  0  0  0  0  0
   22.7149   -9.2280  -15.8635 C   0  0  0  0  0  0  0  0  0  0  0  0
   22.9773   -9.3541  -14.6598 O   0  0  0  0  0  0  0  0  0  0  0  0
   22.0267   -4.3891  -15.7306 O   0  0  0  0  0  0  0  0  0  0  0  0
   22.0493   -5.5530  -16.4955 C   0  0  0  0  0  0  0  0  0  0  0  0
   22.2869   -6.7715  -15.6260 C   0  0  2  0  0  0  0  0  0  0  0  0
   22.3524   -7.9847  -16.4116 N   0  0  0  0  0  0  0  0  0  0  0  0
   21.2719   -6.8682  -14.5496 C   0  0  0  0  0  0  0  0  0  0  0  0
   20.1593   -7.4231  -14.7097 O   0  0  0  0  0  0  0  0  0  0  0  0
   21.5645   -6.3265  -13.3257 O   0  0  0  0  0  0  0  0  0  0  0  0
  2  1  1  6
  2  3  1  0
  4  2  1  0
  5  4  1  0
  5  6  1  1
  7  8  2  0
  7  5  1  0
 10  9  1  0
 11 10  1  0
 11 12  1  6
 13 11  1  0
 13 14  1  1
 14  7  1  0
 15 20  1  0
 15 13  1  0
 16 15  2  0
 18 17  1  0
 19 18  1  6
 19 20  1  0
 21 19  1  0
 21 23  1  0
 22 21  2  0
M  END
$$$$
