LIS.pdb
     RDKit          3D

 23 22  0  0  1  0  0  0  0  0999 V2000
   16.7110  -14.8580  -11.8493 C   0  0  0  0  0  0  0  0  0  0  0  0
   16.2499  -14.3098  -13.1831 C   0  0  2  0  0  0  0  0  0  0  0  0
   17.3311  -14.5824  -14.1823 C   0  0  0  0  0  0  0  0  0  0  0  0
   15.9370  -12.8354  -13.1066 C   0  0  0  0  0  0  0  0  0  0  0  0
   14.7726  -12.5688  -12.1776 C   0  0  2  0  0  0  0  0  0  0  0  0
   13.5428  -13.0936  -12.7350 N   0  0  0  0  0  0  0  0  0  0  0  0
   14.5749  -11.1210  -11.9423 C   0  0  0  0  0  0  0  0  0  0  0  0
   13.9105  -10.4287  -12.7460 O   0  0  0  0  0  0  0  0  0  0  0  0
   12.3544   -8.4627   -9.4238 C   0  0  0  0  0  0  0  0  0  0  0  0
   13.3581   -9.2939   -8.6719 C   0  0  0  0  0  0  0  0  0  0  0  0
   14.7393   -8.8562   -9.0655 C   0  0  2  0  0  0  0  0  0  0  0  0
   14.8986   -7.3972   -8.7045 C   0  0  0  0  0  0  0  0  0  0  0  0
   14.9966   -9.0506  -10.5479 C   0  0  2  0  0  0  0  0  0  0  0  0
   15.1211  -10.4477  -10.8071 N   0  0  0  0  0  0  0  0  0  0  0  0
   16.2234   -8.2862  -10.9326 C   0  0  0  0  0  0  0  0  0  0  0  0
   17.2358   -8.4253  -10.2332 O   0  0  0  0  0  0  0  0  0  0  0  0
   17.1039   -7.3979  -14.7745 O   0  0  0  0  0  0  0  0  0  0  0  0
   18.0123   -7.3400  -13.7201 C   0  0  0  0  0  0  0  0  0  0  0  0
   17.3838   -6.7085  -12.4940 C   0  0  2  0  0  0  0  0  0  0  0  0
   16.2149   -7.4395  -12.0554 N   0  0  0  0  0  0  0  0  0  0  0  0
   17.0811   -5.2755  -12.7245 C   0  0  0  0  0  0  0  0  0  0  0  0
   15.9134   -4.8193  -12.7388 O   0  0  0  0  0  0  0  0  0  0  0  0
   18.1249   -4.4125  -12.9308 O   0  0  0  0  0  0  0  0  0  0  0  0
  2  1  1  1
  2  3  1  0
  4  2  1  0
  5  4  1  0
  5  6  1  6
  7  8  2  0
  7  5  1  0
 10  9  1  0
 11 10  1  0
 11 12  1  6
 13 11  1  0
 13 14  1  1
 14  7  1  0
 15 20  1  0
 15 13  1  0
 16 15  2  0
 18 17  1  0
 19 18  1  6
 19 20  1  0
 21 19  1  0
 21 23  1  0
 22 21  2  0
M  END
$$$$
