LIS.pdb
     RDKit          3D

 23 22  0  0  1  0  0  0  0  0999 V2000
   20.1251  -22.9312   -9.4001 C   0  0  0  0  0  0  0  0  0  0  0  0
   18.9393  -23.4585  -10.1799 C   0  0  2  0  0  0  0  0  0  0  0  0
   18.3142  -22.2990  -10.8914 C   0  0  0  0  0  0  0  0  0  0  0  0
   17.9414  -24.1513   -9.2844 C   0  0  0  0  0  0  0  0  0  0  0  0
   18.5665  -25.3348   -8.5782 C   0  0  2  0  0  0  0  0  0  0  0  0
   18.8641  -26.3940   -9.5204 N   0  0  0  0  0  0  0  0  0  0  0  0
   17.6700  -25.8958   -7.5429 C   0  0  0  0  0  0  0  0  0  0  0  0
   16.8071  -26.7519   -7.8418 O   0  0  0  0  0  0  0  0  0  0  0  0
   19.4259  -27.2209   -2.6556 C   0  0  0  0  0  0  0  0  0  0  0  0
   18.5999  -27.2256   -3.9131 C   0  0  0  0  0  0  0  0  0  0  0  0
   17.6291  -26.0817   -3.8575 C   0  0  2  0  0  0  0  0  0  0  0  0
   16.6785  -26.3181   -2.7064 C   0  0  0  0  0  0  0  0  0  0  0  0
   16.8470  -25.9363   -5.1492 C   0  0  2  0  0  0  0  0  0  0  0  0
   17.7390  -25.4986   -6.1726 N   0  0  0  0  0  0  0  0  0  0  0  0
   15.7174  -24.9810   -4.9285 C   0  0  0  0  0  0  0  0  0  0  0  0
   15.9967  -23.8150   -4.6191 O   0  0  0  0  0  0  0  0  0  0  0  0
   11.9496  -25.9014   -6.3722 O   0  0  0  0  0  0  0  0  0  0  0  0
   12.3187  -24.5850   -6.1062 C   0  0  0  0  0  0  0  0  0  0  0  0
   13.2569  -24.5119   -4.9182 C   0  0  2  0  0  0  0  0  0  0  0  0
   14.3843  -25.4056   -5.0711 N   0  0  0  0  0  0  0  0  0  0  0  0
   12.5326  -24.7537   -3.6473 C   0  0  0  0  0  0  0  0  0  0  0  0
   12.8247  -25.6873   -2.8633 O   0  0  0  0  0  0  0  0  0  0  0  0
   11.4982  -23.9187   -3.3162 O   0  0  0  0  0  0  0  0  0  0  0  0
  2  1  1  1
  2  3  1  0
  4  2  1  0
  5  4  1  0
  5  6  1  6
  7  8  2  0
  7  5  1  0
 10  9  1  0
 11 10  1  0
 11 12  1  1
 13 11  1  0
 13 14  1  6
 14  7  1  0
 15 20  1  0
 15 13  1  0
 16 15  2  0
 18 17  1  0
 19 18  1  6
 19 20  1  0
 21 19  1  0
 21 23  1  0
 22 21  2  0
M  END
$$$$
