LIS.pdb
     RDKit          3D

 23 22  0  0  1  0  0  0  0  0999 V2000
   28.1282  -21.5848  -19.5719 C   0  0  0  0  0  0  0  0  0  0  0  0
   29.2177  -20.8460  -18.8240 C   0  0  2  0  0  0  0  0  0  0  0  0
   30.2943  -21.8349  -18.5001 C   0  0  0  0  0  0  0  0  0  0  0  0
   28.6913  -20.1839  -17.5742 C   0  0  0  0  0  0  0  0  0  0  0  0
   27.5233  -19.2735  -17.8856 C   0  0  2  0  0  0  0  0  0  0  0  0
   27.9855  -18.0264  -18.4595 N   0  0  0  0  0  0  0  0  0  0  0  0
   26.7412  -18.9451  -16.6728 C   0  0  0  0  0  0  0  0  0  0  0  0
   27.1779  -18.1242  -15.8348 O   0  0  0  0  0  0  0  0  0  0  0  0
   22.7475  -17.4331  -17.6560 C   0  0  0  0  0  0  0  0  0  0  0  0
   23.3578  -17.4049  -16.2812 C   0  0  0  0  0  0  0  0  0  0  0  0
   23.3087  -18.7894  -15.7025 C   0  0  2  0  0  0  0  0  0  0  0  0
   22.3499  -18.7844  -14.5340 C   0  0  0  0  0  0  0  0  0  0  0  0
   24.6752  -19.2634  -15.2449 C   0  0  2  0  0  0  0  0  0  0  0  0
   25.4701  -19.5356  -16.3976 N   0  0  0  0  0  0  0  0  0  0  0  0
   24.5052  -20.4651  -14.3708 C   0  0  0  0  0  0  0  0  0  0  0  0
   23.9777  -21.4708  -14.8646 O   0  0  0  0  0  0  0  0  0  0  0  0
   25.2133  -20.2479  -10.1510 O   0  0  0  0  0  0  0  0  0  0  0  0
   25.5304  -21.4055  -10.8576 C   0  0  0  0  0  0  0  0  0  0  0  0
   24.6852  -21.5278  -12.1098 C   0  0  2  0  0  0  0  0  0  0  0  0
   24.9351  -20.4414  -13.0320 N   0  0  0  0  0  0  0  0  0  0  0  0
   23.2455  -21.6446  -11.7756 C   0  0  0  0  0  0  0  0  0  0  0  0
   22.4114  -20.7440  -12.0304 O   0  0  0  0  0  0  0  0  0  0  0  0
   22.8085  -22.7884  -11.1610 O   0  0  0  0  0  0  0  0  0  0  0  0
  2  1  1  1
  2  3  1  0
  4  2  1  0
  5  4  1  0
  5  6  1  1
  7  8  2  0
  7  5  1  0
 10  9  1  0
 11 10  1  0
 11 12  1  1
 13 11  1  0
 13 14  1  6
 14  7  1  0
 15 20  1  0
 15 13  1  0
 16 15  2  0
 18 17  1  0
 19 18  1  1
 19 20  1  0
 21 19  1  0
 21 23  1  0
 22 21  2  0
M  END
$$$$
