LIS.pdb
     RDKit          3D

 23 22  0  0  1  0  0  0  0  0999 V2000
   21.9154  -23.9442  -18.6187 C   0  0  0  0  0  0  0  0  0  0  0  0
   23.1561  -23.2578  -19.1495 C   0  0  2  0  0  0  0  0  0  0  0  0
   24.1708  -24.3195  -19.4406 C   0  0  0  0  0  0  0  0  0  0  0  0
   23.6957  -22.2401  -18.1745 C   0  0  0  0  0  0  0  0  0  0  0  0
   22.6411  -21.2192  -17.8066 C   0  0  2  0  0  0  0  0  0  0  0  0
   22.5458  -20.1927  -18.8242 N   0  0  0  0  0  0  0  0  0  0  0  0
   22.9459  -20.5493  -16.5226 C   0  0  0  0  0  0  0  0  0  0  0  0
   23.7132  -19.5611  -16.4848 O   0  0  0  0  0  0  0  0  0  0  0  0
   19.0664  -20.0781  -13.9472 C   0  0  0  0  0  0  0  0  0  0  0  0
   20.3953  -19.3824  -13.8309 C   0  0  0  0  0  0  0  0  0  0  0  0
   21.3840  -20.3296  -13.2151 C   0  0  2  0  0  0  0  0  0  0  0  0
   21.6750  -19.8662  -11.8062 C   0  0  0  0  0  0  0  0  0  0  0  0
   22.6741  -20.4013  -14.0100 C   0  0  2  0  0  0  0  0  0  0  0  0
   22.3920  -20.9856  -15.2803 N   0  0  0  0  0  0  0  0  0  0  0  0
   23.6820  -21.1854  -13.2312 C   0  0  0  0  0  0  0  0  0  0  0  0
   23.3574  -22.3121  -12.8328 O   0  0  0  0  0  0  0  0  0  0  0  0
   28.2991  -21.6510  -11.8315 O   0  0  0  0  0  0  0  0  0  0  0  0
   27.3505  -20.8786  -12.4975 C   0  0  0  0  0  0  0  0  0  0  0  0
   25.9446  -21.3391  -12.1679 C   0  0  2  0  0  0  0  0  0  0  0  0
   24.9548  -20.6493  -12.9663 N   0  0  0  0  0  0  0  0  0  0  0  0
   25.6653  -21.2129  -10.7173 C   0  0  0  0  0  0  0  0  0  0  0  0
   26.0402  -22.0620   -9.8746 O   0  0  0  0  0  0  0  0  0  0  0  0
   24.9663  -20.1190  -10.2796 O   0  0  0  0  0  0  0  0  0  0  0  0
  2  1  1  1
  2  3  1  0
  4  2  1  0
  5  4  1  0
  5  6  1  6
  7  8  2  0
  7  5  1  0
 10  9  1  0
 11 10  1  0
 11 12  1  1
 13 11  1  0
 13 14  1  6
 14  7  1  0
 15 20  1  0
 15 13  1  0
 16 15  2  0
 18 17  1  0
 19 18  1  1
 19 20  1  0
 21 19  1  0
 21 23  1  0
 22 21  2  0
M  END
$$$$
