LIS.pdb
     RDKit          3D

 23 22  0  0  1  0  0  0  0  0999 V2000
   19.7433  -11.6049  -20.6027 C   0  0  0  0  0  0  0  0  0  0  0  0
   18.7054  -11.7544  -19.5107 C   0  0  2  0  0  0  0  0  0  0  0  0
   17.4391  -11.1237  -20.0010 C   0  0  0  0  0  0  0  0  0  0  0  0
   19.1598  -11.1294  -18.2144 C   0  0  0  0  0  0  0  0  0  0  0  0
   20.4781  -11.7139  -17.7556 C   0  0  2  0  0  0  0  0  0  0  0  0
   20.3090  -13.0898  -17.3352 N   0  0  0  0  0  0  0  0  0  0  0  0
   21.0463  -10.9638  -16.6133 C   0  0  0  0  0  0  0  0  0  0  0  0
   20.5527  -11.0743  -15.4684 O   0  0  0  0  0  0  0  0  0  0  0  0
   26.0863  -11.0758  -15.5150 C   0  0  0  0  0  0  0  0  0  0  0  0
   24.5905  -10.9377  -15.4318 C   0  0  0  0  0  0  0  0  0  0  0  0
   24.2231   -9.5039  -15.6833 C   0  0  2  0  0  0  0  0  0  0  0  0
   24.8433   -8.6548  -14.5977 C   0  0  0  0  0  0  0  0  0  0  0  0
   22.7204   -9.2970  -15.7033 C   0  0  2  0  0  0  0  0  0  0  0  0
   22.1673  -10.0895  -16.7524 N   0  0  0  0  0  0  0  0  0  0  0  0
   22.4327   -7.8393  -15.8755 C   0  0  0  0  0  0  0  0  0  0  0  0
   22.9133   -7.2666  -16.8627 O   0  0  0  0  0  0  0  0  0  0  0  0
   19.0141   -6.1670  -15.2777 O   0  0  0  0  0  0  0  0  0  0  0  0
   19.9533   -5.4083  -14.5833 C   0  0  0  0  0  0  0  0  0  0  0  0
   21.3615   -5.7356  -15.0382 C   0  0  2  0  0  0  0  0  0  0  0  0
   21.6401   -7.1519  -14.9391 N   0  0  0  0  0  0  0  0  0  0  0  0
   22.3638   -4.9260  -14.3045 C   0  0  0  0  0  0  0  0  0  0  0  0
   22.3823   -3.6729  -14.3352 O   0  0  0  0  0  0  0  0  0  0  0  0
   23.3114   -5.5778  -13.5601 O   0  0  0  0  0  0  0  0  0  0  0  0
  2  1  1  6
  2  3  1  0
  4  2  1  0
  5  4  1  0
  5  6  1  1
  7  8  2  0
  7  5  1  0
 10  9  1  0
 11 10  1  0
 11 12  1  1
 13 11  1  0
 13 14  1  6
 14  7  1  0
 15 20  1  0
 15 13  1  0
 16 15  2  0
 18 17  1  0
 19 18  1  1
 19 20  1  0
 21 19  1  0
 21 23  1  0
 22 21  2  0
M  END
$$$$
