LIS.pdb
     RDKit          3D

 23 22  0  0  1  0  0  0  0  0999 V2000
   27.3740  -16.7096  -17.3510 C   0  0  0  0  0  0  0  0  0  0  0  0
   26.3682  -15.8989  -16.5614 C   0  0  2  0  0  0  0  0  0  0  0  0
   27.0746  -14.6864  -16.0394 C   0  0  0  0  0  0  0  0  0  0  0  0
   25.7583  -16.7009  -15.4379 C   0  0  0  0  0  0  0  0  0  0  0  0
   25.0900  -17.9549  -15.9583 C   0  0  2  0  0  0  0  0  0  0  0  0
   23.9369  -17.6213  -16.7691 N   0  0  0  0  0  0  0  0  0  0  0  0
   24.6255  -18.8295  -14.8585 C   0  0  0  0  0  0  0  0  0  0  0  0
   23.6304  -18.5130  -14.1684 O   0  0  0  0  0  0  0  0  0  0  0  0
   23.8493  -23.9182  -15.6407 C   0  0  0  0  0  0  0  0  0  0  0  0
   23.7807  -22.5160  -15.0996 C   0  0  0  0  0  0  0  0  0  0  0  0
   24.8318  -22.3554  -14.0397 C   0  0  2  0  0  0  0  0  0  0  0  0
   24.5397  -23.3341  -12.9257 C   0  0  0  0  0  0  0  0  0  0  0  0
   24.8710  -20.9432  -13.4870 C   0  0  2  0  0  0  0  0  0  0  0  0
   25.2749  -20.0588  -14.5307 N   0  0  0  0  0  0  0  0  0  0  0  0
   25.7990  -20.9056  -12.3146 C   0  0  0  0  0  0  0  0  0  0  0  0
   26.9080  -21.4432  -12.4361 O   0  0  0  0  0  0  0  0  0  0  0  0
   26.0733  -18.2592   -9.2373 O   0  0  0  0  0  0  0  0  0  0  0  0
   26.8434  -19.4168   -9.3213 C   0  0  0  0  0  0  0  0  0  0  0  0
   26.0228  -20.5802   -9.8411 C   0  0  2  0  0  0  0  0  0  0  0  0
   25.4130  -20.2766  -11.1175 N   0  0  0  0  0  0  0  0  0  0  0  0
   25.0179  -21.0163   -8.8421 C   0  0  0  0  0  0  0  0  0  0  0  0
   23.7899  -21.0695   -9.0890 O   0  0  0  0  0  0  0  0  0  0  0  0
   25.4520  -21.3771   -7.5938 O   0  0  0  0  0  0  0  0  0  0  0  0
  2  1  1  1
  2  3  1  0
  4  2  1  0
  5  4  1  0
  5  6  1  1
  7  8  2  0
  7  5  1  0
 10  9  1  0
 11 10  1  0
 11 12  1  1
 13 11  1  0
 13 14  1  6
 14  7  1  0
 15 20  1  0
 15 13  1  0
 16 15  2  0
 18 17  1  0
 19 18  1  1
 19 20  1  0
 21 19  1  0
 21 23  1  0
 22 21  2  0
M  END
$$$$
