LIS.pdb
     RDKit          3D

 23 22  0  0  1  0  0  0  0  0999 V2000
   20.0297  -23.1622   -8.6971 C   0  0  0  0  0  0  0  0  0  0  0  0
   18.7544  -23.5290   -9.4258 C   0  0  2  0  0  0  0  0  0  0  0  0
   18.1774  -22.2681   -9.9903 C   0  0  0  0  0  0  0  0  0  0  0  0
   17.7678  -24.2215   -8.5175 C   0  0  0  0  0  0  0  0  0  0  0  0
   18.3926  -25.4234   -7.8430 C   0  0  2  0  0  0  0  0  0  0  0  0
   18.6157  -26.4883   -8.7994 N   0  0  0  0  0  0  0  0  0  0  0  0
   17.5310  -25.9619   -6.7669 C   0  0  0  0  0  0  0  0  0  0  0  0
   16.5845  -26.7360   -7.0345 O   0  0  0  0  0  0  0  0  0  0  0  0
   19.6693  -27.5224   -2.1880 C   0  0  0  0  0  0  0  0  0  0  0  0
   18.6887  -27.4727   -3.3279 C   0  0  0  0  0  0  0  0  0  0  0  0
   17.7450  -26.3268   -3.1036 C   0  0  2  0  0  0  0  0  0  0  0  0
   16.8677  -26.6562   -1.9178 C   0  0  0  0  0  0  0  0  0  0  0  0
   16.8829  -26.0532   -4.3214 C   0  0  2  0  0  0  0  0  0  0  0  0
   17.7286  -25.6339   -5.3908 N   0  0  0  0  0  0  0  0  0  0  0  0
   15.8553  -25.0253   -3.9685 C   0  0  0  0  0  0  0  0  0  0  0  0
   16.2481  -23.8826   -3.6975 O   0  0  0  0  0  0  0  0  0  0  0  0
   12.6150  -23.9407   -5.8116 O   0  0  0  0  0  0  0  0  0  0  0  0
   12.2847  -24.4845   -4.5726 C   0  0  0  0  0  0  0  0  0  0  0  0
   13.4550  -24.4035   -3.6129 C   0  0  2  0  0  0  0  0  0  0  0  0
   14.4891  -25.3582   -3.9486 N   0  0  0  0  0  0  0  0  0  0  0  0
   13.0070  -24.5506   -2.2073 C   0  0  0  0  0  0  0  0  0  0  0  0
   13.0841  -25.6314   -1.5769 O   0  0  0  0  0  0  0  0  0  0  0  0
   12.4858  -23.4555   -1.5701 O   0  0  0  0  0  0  0  0  0  0  0  0
  2  1  1  1
  2  3  1  0
  4  2  1  0
  5  4  1  0
  5  6  1  6
  7  8  2  0
  7  5  1  0
 10  9  1  0
 11 10  1  0
 11 12  1  1
 13 11  1  0
 13 14  1  6
 14  7  1  0
 15 20  1  0
 15 13  1  0
 16 15  2  0
 18 17  1  0
 19 18  1  6
 19 20  1  0
 21 19  1  0
 21 23  1  0
 22 21  2  0
M  END
$$$$
