LIS.pdb
     RDKit          3D

 23 22  0  0  1  0  0  0  0  0999 V2000
   25.1298  -13.3476  -15.7976 C   0  0  0  0  0  0  0  0  0  0  0  0
   24.0783  -13.5182  -16.8735 C   0  0  2  0  0  0  0  0  0  0  0  0
   24.7425  -14.1460  -18.0594 C   0  0  0  0  0  0  0  0  0  0  0  0
   23.4331  -12.2045  -17.2416 C   0  0  0  0  0  0  0  0  0  0  0  0
   22.8070  -11.5426  -16.0334 C   0  0  2  0  0  0  0  0  0  0  0  0
   21.7520  -12.3707  -15.4858 N   0  0  0  0  0  0  0  0  0  0  0  0
   22.2154  -10.2283  -16.3690 C   0  0  0  0  0  0  0  0  0  0  0  0
   22.8602   -9.3906  -17.0393 O   0  0  0  0  0  0  0  0  0  0  0  0
   17.6115  -10.7977  -17.3855 C   0  0  0  0  0  0  0  0  0  0  0  0
   18.4680   -9.6051  -17.7135 C   0  0  0  0  0  0  0  0  0  0  0  0
   18.7781   -8.8689  -16.4424 C   0  0  2  0  0  0  0  0  0  0  0  0
   18.0337   -7.5536  -16.4588 C   0  0  0  0  0  0  0  0  0  0  0  0
   20.2652   -8.6166  -16.2795 C   0  0  2  0  0  0  0  0  0  0  0  0
   20.9016   -9.8510  -15.9544 N   0  0  0  0  0  0  0  0  0  0  0  0
   20.4688   -7.5737  -15.2269 C   0  0  0  0  0  0  0  0  0  0  0  0
   20.2445   -7.8868  -14.0500 O   0  0  0  0  0  0  0  0  0  0  0  0
   22.9202   -3.7868  -13.7885 O   0  0  0  0  0  0  0  0  0  0  0  0
   22.6040   -4.7011  -14.7905 C   0  0  0  0  0  0  0  0  0  0  0  0
   21.2124   -5.2678  -14.5912 C   0  0  2  0  0  0  0  0  0  0  0  0
   20.9017   -6.2818  -15.5753 N   0  0  0  0  0  0  0  0  0  0  0  0
   20.1930   -4.1915  -14.5708 C   0  0  0  0  0  0  0  0  0  0  0  0
   19.6891   -3.7500  -13.5112 O   0  0  0  0  0  0  0  0  0  0  0  0
   19.7844   -3.6564  -15.7639 O   0  0  0  0  0  0  0  0  0  0  0  0
  2  1  1  1
  2  3  1  0
  4  2  1  0
  5  4  1  0
  5  6  1  6
  7  8  2  0
  7  5  1  0
 10  9  1  0
 11 10  1  0
 11 12  1  6
 13 11  1  0
 13 14  1  1
 14  7  1  0
 15 20  1  0
 15 13  1  0
 16 15  2  0
 18 17  1  0
 19 18  1  6
 19 20  1  0
 21 19  1  0
 21 23  1  0
 22 21  2  0
M  END
$$$$
