LIS.pdb
     RDKit          3D

 23 22  0  0  1  0  0  0  0  0999 V2000
   25.8735  -12.4016  -21.2194 C   0  0  0  0  0  0  0  0  0  0  0  0
   24.8922  -13.2917  -20.4867 C   0  0  2  0  0  0  0  0  0  0  0  0
   24.4468  -14.3557  -21.4413 C   0  0  0  0  0  0  0  0  0  0  0  0
   23.7162  -12.5110  -19.9527 C   0  0  0  0  0  0  0  0  0  0  0  0
   24.1688  -11.3926  -19.0393 C   0  0  2  0  0  0  0  0  0  0  0  0
   24.9008  -11.9216  -17.9067 N   0  0  0  0  0  0  0  0  0  0  0  0
   23.0257  -10.6159  -18.5099 C   0  0  0  0  0  0  0  0  0  0  0  0
   22.2069  -10.0752  -19.2871 O   0  0  0  0  0  0  0  0  0  0  0  0
   19.1794  -10.7246  -13.9228 C   0  0  0  0  0  0  0  0  0  0  0  0
   19.9477   -9.7694  -14.7950 C   0  0  0  0  0  0  0  0  0  0  0  0
   21.0407  -10.5255  -15.4934 C   0  0  2  0  0  0  0  0  0  0  0  0
   22.0413  -10.9835  -14.4573 C   0  0  0  0  0  0  0  0  0  0  0  0
   21.7369   -9.6793  -16.5425 C   0  0  2  0  0  0  0  0  0  0  0  0
   22.7988  -10.4440  -17.1102 N   0  0  0  0  0  0  0  0  0  0  0  0
   22.2199   -8.4152  -15.9053 C   0  0  0  0  0  0  0  0  0  0  0  0
   23.1774   -8.4896  -15.1236 O   0  0  0  0  0  0  0  0  0  0  0  0
   20.8365   -4.6089  -17.2873 O   0  0  0  0  0  0  0  0  0  0  0  0
   22.1322   -4.8888  -16.8594 C   0  0  0  0  0  0  0  0  0  0  0  0
   22.1277   -5.9172  -15.7460 C   0  0  2  0  0  0  0  0  0  0  0  0
   21.5980   -7.1871  -16.1930 N   0  0  0  0  0  0  0  0  0  0  0  0
   21.4086   -5.4117  -14.5520 C   0  0  0  0  0  0  0  0  0  0  0  0
   21.7551   -4.3767  -13.9352 O   0  0  0  0  0  0  0  0  0  0  0  0
   20.3169   -6.1077  -14.1040 O   0  0  0  0  0  0  0  0  0  0  0  0
  2  1  1  6
  2  3  1  0
  4  2  1  0
  5  4  1  0
  5  6  1  1
  7  8  2  0
  7  5  1  0
 10  9  1  0
 11 10  1  0
 11 12  1  1
 13 11  1  0
 13 14  1  1
 14  7  1  0
 15 20  1  0
 15 13  1  0
 16 15  2  0
 18 17  1  0
 19 18  1  6
 19 20  1  0
 21 19  1  0
 21 23  1  0
 22 21  2  0
M  END
$$$$
