GRD.pdb
     RDKit          3D

 24 23  0  0  1  0  0  0  0  0999 V2000
    7.7543  -21.7589   21.3545 N   0  0  0  0  0  0  0  0  0  0  0  0
    7.4561  -20.6239   22.2097 C   0  0  0  0  0  0  0  0  0  0  0  0
    8.3262  -19.4689   21.8716 C   0  0  0  0  0  0  0  0  0  0  0  0
    9.4439  -19.6870   21.3848 O   0  0  0  0  0  0  0  0  0  0  0  0
    8.7132  -11.8226   19.2117 N   0  0  0  0  0  0  0  0  0  0  0  0
    7.7656  -12.8298   18.8673 C   0  0  0  0  0  0  0  0  0  0  0  0
    7.5487  -13.0476   17.6121 N   0  0  0  0  0  0  0  0  0  0  0  0
    7.1014  -13.5486   19.8918 N   0  0  0  0  0  0  0  0  0  0  0  0
    7.5975  -13.4247   21.2436 C   0  0  0  0  0  0  0  0  0  0  0  0
    8.6796  -14.4984   21.5112 C   0  0  0  0  0  0  0  0  0  0  0  0
    7.9542  -15.7836   21.6149 C   0  0  0  0  0  0  0  0  0  0  0  0
    8.7902  -17.0180   21.8228 C   0  0  2  0  0  0  0  0  0  0  0  0
    7.8848  -18.1522   22.1010 N   0  0  0  0  0  0  0  0  0  0  0  0
    9.7056  -16.9546   22.9826 C   0  0  0  0  0  0  0  0  0  0  0  0
    9.2812  -16.6451   24.1551 O   0  0  0  0  0  0  0  0  0  0  0  0
    6.8525  -13.7010   17.2323 N   0  0  0  0  0  0  0  0  0  0  0  0
   11.1020  -17.2260   22.9115 C   0  0  2  0  0  0  0  0  0  0  0  0
   11.9733  -17.0914   24.0653 C   0  0  0  0  0  0  0  0  0  0  0  0
   12.1021  -18.3422   24.8788 C   0  0  0  0  0  0  0  0  0  0  0  0
   12.6397  -19.4789   24.1006 O   0  0  0  0  0  0  0  0  0  0  0  0
   12.9669  -19.4099   22.8757 C   0  0  0  0  0  0  0  0  0  0  0  0
   13.3265  -16.5686   23.6671 O   0  0  0  0  0  0  0  0  0  0  0  0
   14.1712  -16.2990   24.5407 O   0  0  0  0  0  0  0  0  0  0  0  0
   12.8165  -20.7179   24.6975 O   0  0  0  0  0  0  0  0  0  0  0  0
  1  2  1  0
  2  3  1  0
  3  4  2  0
  3 13  1  0
  5  6  1  0
  6  8  1  0
  7  6  2  0
  9  8  1  0
  9 10  1  0
 10 11  1  0
 12 11  1  1
 12 14  1  0
 13 12  1  0
 14 15  2  0
 14 16  1  0
 16 17  1  0
 17 21  1  0
 17 18  1  1
 19 18  1  0
 19 23  1  0
 20 19  2  0
 21 22  2  0
 21 24  1  0
M  END
$$$$
