GRD.pdb
     RDKit          3D

 24 23  0  0  1  0  0  0  0  0999 V2000
    6.0672  -20.9888   24.6644 N   0  0  0  0  0  0  0  0  0  0  0  0
    6.0664  -19.5901   25.0544 C   0  0  0  0  0  0  0  0  0  0  0  0
    6.9194  -18.7894   24.1398 C   0  0  0  0  0  0  0  0  0  0  0  0
    7.4959  -19.3641   23.2065 O   0  0  0  0  0  0  0  0  0  0  0  0
    8.4823  -14.0176   18.2456 N   0  0  0  0  0  0  0  0  0  0  0  0
    8.2091  -12.9158   19.1072 C   0  0  0  0  0  0  0  0  0  0  0  0
    8.7763  -11.7864   18.8377 N   0  0  0  0  0  0  0  0  0  0  0  0
    7.3406  -13.0881   20.2133 N   0  0  0  0  0  0  0  0  0  0  0  0
    7.2449  -14.4022   20.8073 C   0  0  0  0  0  0  0  0  0  0  0  0
    7.9629  -14.4173   22.1782 C   0  0  0  0  0  0  0  0  0  0  0  0
    7.2130  -15.3802   23.0145 C   0  0  0  0  0  0  0  0  0  0  0  0
    7.9445  -16.6279   23.4315 C   0  0  2  0  0  0  0  0  0  0  0  0
    7.0667  -17.4030   24.3329 N   0  0  0  0  0  0  0  0  0  0  0  0
    9.1831  -16.3877   24.2031 C   0  0  0  0  0  0  0  0  0  0  0  0
    9.1755  -16.3476   25.4873 O   0  0  0  0  0  0  0  0  0  0  0  0
    8.6941  -10.9294   19.3987 N   0  0  0  0  0  0  0  0  0  0  0  0
   10.4636  -16.1874   23.6126 C   0  0  2  0  0  0  0  0  0  0  0  0
   11.6914  -16.5748   24.2841 C   0  0  0  0  0  0  0  0  0  0  0  0
   11.6939  -17.9886   24.7783 C   0  0  0  0  0  0  0  0  0  0  0  0
   12.9884  -18.3852   25.3731 O   0  0  0  0  0  0  0  0  0  0  0  0
   13.9664  -18.8437   24.7056 C   0  0  0  0  0  0  0  0  0  0  0  0
   12.8926  -16.3068   23.4190 O   0  0  0  0  0  0  0  0  0  0  0  0
   14.0384  -16.4746   23.8756 O   0  0  0  0  0  0  0  0  0  0  0  0
   13.1988  -18.2696   26.7388 O   0  0  0  0  0  0  0  0  0  0  0  0
  1  2  1  0
  2  3  1  0
  3  4  2  0
  3 13  1  0
  5  6  1  0
  6  8  1  0
  7  6  2  0
  9  8  1  0
  9 10  1  0
 10 11  1  0
 12 11  1  1
 12 14  1  0
 13 12  1  0
 14 15  2  0
 14 16  1  0
 16 17  1  0
 17 21  1  0
 17 18  1  6
 19 18  1  0
 19 23  1  0
 20 19  2  0
 21 22  2  0
 21 24  1  0
M  END
$$$$
