GRD.pdb
     RDKit          3D

 24 23  0  0  1  0  0  0  0  0999 V2000
   10.2463  -19.2380   18.0661 N   0  0  0  0  0  0  0  0  0  0  0  0
    9.1901  -18.6136   18.8427 C   0  0  0  0  0  0  0  0  0  0  0  0
    9.7600  -17.6979   19.8635 C   0  0  0  0  0  0  0  0  0  0  0  0
   10.9905  -17.5766   19.9347 O   0  0  0  0  0  0  0  0  0  0  0  0
    9.6737  -12.9302   19.2892 N   0  0  0  0  0  0  0  0  0  0  0  0
    8.6044  -12.2535   19.9447 C   0  0  0  0  0  0  0  0  0  0  0  0
    8.7666  -11.0027   20.2259 N   0  0  0  0  0  0  0  0  0  0  0  0
    7.4176  -12.9590   20.2632 N   0  0  0  0  0  0  0  0  0  0  0  0
    7.4107  -14.3942   20.0933 C   0  0  0  0  0  0  0  0  0  0  0  0
    7.2213  -15.0888   21.4632 C   0  0  0  0  0  0  0  0  0  0  0  0
    8.5436  -15.0403   22.1252 C   0  0  0  0  0  0  0  0  0  0  0  0
    9.4998  -16.1593   21.8102 C   0  0  2  0  0  0  0  0  0  0  0  0
    8.9142  -16.9824   20.7317 N   0  0  0  0  0  0  0  0  0  0  0  0
    9.7430  -17.0958   22.9287 C   0  0  0  0  0  0  0  0  0  0  0  0
    9.1778  -18.2488   22.9723 O   0  0  0  0  0  0  0  0  0  0  0  0
    8.0784  -10.4041   20.6991 N   0  0  0  0  0  0  0  0  0  0  0  0
   10.6038  -16.8170   24.0286 C   0  0  2  0  0  0  0  0  0  0  0  0
   11.8110  -17.5849   24.2768 C   0  0  0  0  0  0  0  0  0  0  0  0
   12.7732  -17.5924   23.1292 C   0  0  0  0  0  0  0  0  0  0  0  0
   13.9957  -18.3750   23.4119 O   0  0  0  0  0  0  0  0  0  0  0  0
   13.9910  -19.5737   23.8307 C   0  0  0  0  0  0  0  0  0  0  0  0
   12.4894  -17.1379   25.5429 O   0  0  0  0  0  0  0  0  0  0  0  0
   13.5180  -17.7184   25.9362 O   0  0  0  0  0  0  0  0  0  0  0  0
   15.2491  -17.8122   23.2251 O   0  0  0  0  0  0  0  0  0  0  0  0
  1  2  1  0
  2  3  1  0
  3  4  2  0
  3 13  1  0
  5  6  1  0
  6  8  1  0
  7  6  2  0
  9  8  1  0
  9 10  1  0
 10 11  1  0
 12 11  1  1
 12 14  1  0
 13 12  1  0
 14 15  2  0
 14 16  1  0
 16 17  1  0
 17 21  1  0
 17 18  1  6
 19 18  1  0
 19 23  1  0
 20 19  2  0
 21 22  2  0
 21 24  1  0
M  END
$$$$
