GRD.pdb
     RDKit          3D

 24 23  0  0  1  0  0  0  0  0999 V2000
   11.3216  -18.5876   17.4206 N   0  0  0  0  0  0  0  0  0  0  0  0
   10.3214  -18.5199   18.4712 C   0  0  0  0  0  0  0  0  0  0  0  0
   10.7299  -17.5551   19.5236 C   0  0  0  0  0  0  0  0  0  0  0  0
   11.8715  -17.0767   19.4830 O   0  0  0  0  0  0  0  0  0  0  0  0
    7.0334  -12.4459   19.9597 N   0  0  0  0  0  0  0  0  0  0  0  0
    7.2753  -13.4534   18.9813 C   0  0  0  0  0  0  0  0  0  0  0  0
    7.4562  -13.0740   17.7592 N   0  0  0  0  0  0  0  0  0  0  0  0
    7.3090  -14.8155   19.3697 N   0  0  0  0  0  0  0  0  0  0  0  0
    7.1566  -15.1288   20.7723 C   0  0  0  0  0  0  0  0  0  0  0  0
    8.3296  -14.5238   21.5806 C   0  0  0  0  0  0  0  0  0  0  0  0
    9.0028  -15.6693   22.2315 C   0  0  0  0  0  0  0  0  0  0  0  0
   10.2416  -16.1976   21.5592 C   0  0  2  0  0  0  0  0  0  0  0  0
    9.8331  -17.1930   20.5462 N   0  0  0  0  0  0  0  0  0  0  0  0
   11.1730  -16.9134   22.4576 C   0  0  0  0  0  0  0  0  0  0  0  0
   10.9813  -18.1422   22.7804 O   0  0  0  0  0  0  0  0  0  0  0  0
    7.6221  -13.6980   16.9599 N   0  0  0  0  0  0  0  0  0  0  0  0
   12.3377  -16.3263   23.0298 C   0  0  1  0  0  0  0  0  0  0  0  0
   13.3055  -17.1068   23.7799 C   0  0  0  0  0  0  0  0  0  0  0  0
   14.7257  -16.6829   23.5651 C   0  0  0  0  0  0  0  0  0  0  0  0
   15.6890  -17.4934   24.3410 O   0  0  0  0  0  0  0  0  0  0  0  0
   15.4102  -18.6122   24.8727 C   0  0  0  0  0  0  0  0  0  0  0  0
   12.9680  -17.1287   25.2458 O   0  0  0  0  0  0  0  0  0  0  0  0
   12.0868  -16.3715   25.6929 O   0  0  0  0  0  0  0  0  0  0  0  0
   16.9890  -17.0496   24.5296 O   0  0  0  0  0  0  0  0  0  0  0  0
  1  2  1  0
  2  3  1  0
  3  4  2  0
  3 13  1  0
  5  6  1  0
  6  8  1  0
  7  6  2  0
  9  8  1  0
  9 10  1  0
 10 11  1  0
 12 11  1  1
 12 14  1  0
 13 12  1  0
 14 15  2  0
 14 16  1  0
 16 17  1  0
 17 21  1  0
 17 18  1  1
 19 18  1  0
 19 23  1  0
 20 19  2  0
 21 22  2  0
 21 24  1  0
M  END
$$$$
