GRD.pdb
     RDKit          3D

 24 23  0  0  1  0  0  0  0  0999 V2000
    6.7671  -20.6169   26.0924 N   0  0  0  0  0  0  0  0  0  0  0  0
    6.5326  -19.1904   26.2284 C   0  0  0  0  0  0  0  0  0  0  0  0
    7.2543  -18.4365   25.1720 C   0  0  0  0  0  0  0  0  0  0  0  0
    7.9435  -19.0645   24.3569 O   0  0  0  0  0  0  0  0  0  0  0  0
    7.2617  -14.6737   18.7395 N   0  0  0  0  0  0  0  0  0  0  0  0
    7.8430  -13.4756   19.2470 C   0  0  0  0  0  0  0  0  0  0  0  0
    8.0893  -12.5241   18.4079 N   0  0  0  0  0  0  0  0  0  0  0  0
    8.1290  -13.3653   20.6303 N   0  0  0  0  0  0  0  0  0  0  0  0
    7.4849  -14.2893   21.5358 C   0  0  0  0  0  0  0  0  0  0  0  0
    7.9116  -13.9876   22.9925 C   0  0  0  0  0  0  0  0  0  0  0  0
    7.1994  -14.9750   23.8332 C   0  0  0  0  0  0  0  0  0  0  0  0
    7.8797  -16.3011   24.0433 C   0  0  2  0  0  0  0  0  0  0  0  0
    7.1538  -17.0344   25.1012 N   0  0  0  0  0  0  0  0  0  0  0  0
    9.2768  -16.2088   24.5196 C   0  0  0  0  0  0  0  0  0  0  0  0
    9.6104  -15.4065   25.4661 O   0  0  0  0  0  0  0  0  0  0  0  0
    8.4025  -11.5773   18.6556 N   0  0  0  0  0  0  0  0  0  0  0  0
   10.3513  -16.9803   23.9918 C   0  0  1  0  0  0  0  0  0  0  0  0
   11.7335  -16.7305   24.3600 C   0  0  0  0  0  0  0  0  0  0  0  0
   12.4785  -17.9558   24.7917 C   0  0  0  0  0  0  0  0  0  0  0  0
   11.8103  -18.6719   25.8996 O   0  0  0  0  0  0  0  0  0  0  0  0
   11.4437  -18.1207   26.9831 C   0  0  0  0  0  0  0  0  0  0  0  0
   12.4689  -16.0153   23.2596 O   0  0  0  0  0  0  0  0  0  0  0  0
   13.5983  -15.5378   23.4740 O   0  0  0  0  0  0  0  0  0  0  0  0
   11.5450  -20.0292   25.8000 O   0  0  0  0  0  0  0  0  0  0  0  0
  1  2  1  0
  2  3  1  0
  3  4  2  0
  3 13  1  0
  5  6  1  0
  6  8  1  0
  7  6  2  0
  9  8  1  0
  9 10  1  0
 10 11  1  0
 12 11  1  1
 12 14  1  0
 13 12  1  0
 14 15  2  0
 14 16  1  0
 16 17  1  0
 17 21  1  0
 17 18  1  6
 19 18  1  0
 19 23  1  0
 20 19  2  0
 21 22  2  0
 21 24  1  0
M  END
$$$$
