GRD.pdb
     RDKit          3D

 24 23  0  0  1  0  0  0  0  0999 V2000
   14.7467  -16.7185   14.4897 N   0  0  0  0  0  0  0  0  0  0  0  0
   13.4748  -16.7891   15.1866 C   0  0  0  0  0  0  0  0  0  0  0  0
   13.5080  -15.9692   16.4244 C   0  0  0  0  0  0  0  0  0  0  0  0
   14.6041  -15.5914   16.8598 O   0  0  0  0  0  0  0  0  0  0  0  0
    6.5197  -12.6566   19.4408 N   0  0  0  0  0  0  0  0  0  0  0  0
    7.0644  -13.9516   19.6800 C   0  0  0  0  0  0  0  0  0  0  0  0
    6.2374  -14.9302   19.8494 N   0  0  0  0  0  0  0  0  0  0  0  0
    8.4699  -14.1247   19.7248 N   0  0  0  0  0  0  0  0  0  0  0  0
    9.3034  -12.9441   19.7107 C   0  0  0  0  0  0  0  0  0  0  0  0
   10.7968  -13.3501   19.7087 C   0  0  0  0  0  0  0  0  0  0  0  0
   10.9602  -14.2771   18.5672 C   0  0  0  0  0  0  0  0  0  0  0  0
   12.3596  -14.7459   18.2708 C   0  0  2  0  0  0  0  0  0  0  0  0
   12.3137  -15.6294   17.0872 N   0  0  0  0  0  0  0  0  0  0  0  0
   12.9775  -15.5580   19.3413 C   0  0  0  0  0  0  0  0  0  0  0  0
   12.8336  -16.8341   19.3821 O   0  0  0  0  0  0  0  0  0  0  0  0
    6.4991  -15.9135   19.9929 N   0  0  0  0  0  0  0  0  0  0  0  0
   13.7696  -15.0180   20.3946 C   0  0  1  0  0  0  0  0  0  0  0  0
   14.4274  -15.8628   21.3755 C   0  0  0  0  0  0  0  0  0  0  0  0
   15.8952  -15.6009   21.5164 C   0  0  0  0  0  0  0  0  0  0  0  0
   16.5329  -16.4521   22.5440 O   0  0  0  0  0  0  0  0  0  0  0  0
   16.2098  -17.6597   22.7667 C   0  0  0  0  0  0  0  0  0  0  0  0
   13.7379  -15.7851   22.7103 O   0  0  0  0  0  0  0  0  0  0  0  0
   14.1507  -16.4694   23.6647 O   0  0  0  0  0  0  0  0  0  0  0  0
   17.5505  -15.9491   23.3402 O   0  0  0  0  0  0  0  0  0  0  0  0
  1  2  1  0
  2  3  1  0
  3  4  2  0
  3 13  1  0
  5  6  1  0
  6  8  1  0
  7  6  2  0
  9  8  1  0
  9 10  1  0
 10 11  1  0
 12 11  1  1
 12 14  1  0
 13 12  1  0
 14 15  2  0
 14 16  1  0
 16 17  1  0
 17 21  1  0
 17 18  1  1
 19 18  1  0
 19 23  1  0
 20 19  2  0
 21 22  2  0
 21 24  1  0
M  END
$$$$
