GRD.pdb
     RDKit          3D

 24 23  0  0  1  0  0  0  0  0999 V2000
    6.2746  -20.1110   25.6014 N   0  0  0  0  0  0  0  0  0  0  0  0
    6.3429  -18.6616   25.5463 C   0  0  0  0  0  0  0  0  0  0  0  0
    7.1505  -18.2178   24.3818 C   0  0  0  0  0  0  0  0  0  0  0  0
    7.6793  -19.0754   23.6616 O   0  0  0  0  0  0  0  0  0  0  0  0
    8.4337  -13.4236   17.0547 N   0  0  0  0  0  0  0  0  0  0  0  0
    8.3848  -13.1105   18.4442 C   0  0  0  0  0  0  0  0  0  0  0  0
    9.2907  -12.3178   18.9144 N   0  0  0  0  0  0  0  0  0  0  0  0
    7.3642  -13.6674   19.2538 N   0  0  0  0  0  0  0  0  0  0  0  0
    7.4378  -13.4610   20.6824 C   0  0  0  0  0  0  0  0  0  0  0  0
    8.3771  -14.5119   21.3216 C   0  0  0  0  0  0  0  0  0  0  0  0
    7.5710  -15.1950   22.3572 C   0  0  0  0  0  0  0  0  0  0  0  0
    8.1753  -16.4223   22.9852 C   0  0  2  0  0  0  0  0  0  0  0  0
    7.3092  -16.8470   24.1046 N   0  0  0  0  0  0  0  0  0  0  0  0
    9.5124  -16.2147   23.5821 C   0  0  0  0  0  0  0  0  0  0  0  0
    9.7036  -15.3507   24.5137 O   0  0  0  0  0  0  0  0  0  0  0  0
    9.4011  -12.0587   19.9026 N   0  0  0  0  0  0  0  0  0  0  0  0
   10.6787  -16.9343   23.1943 C   0  0  1  0  0  0  0  0  0  0  0  0
   11.9969  -16.5969   23.7012 C   0  0  0  0  0  0  0  0  0  0  0  0
   12.6833  -17.7248   24.4080 C   0  0  0  0  0  0  0  0  0  0  0  0
   11.9476  -18.1820   25.6066 O   0  0  0  0  0  0  0  0  0  0  0  0
   10.9092  -17.6117   26.0634 C   0  0  0  0  0  0  0  0  0  0  0  0
   12.8707  -16.0346   22.6133 O   0  0  0  0  0  0  0  0  0  0  0  0
   12.4973  -16.0849   21.4268 O   0  0  0  0  0  0  0  0  0  0  0  0
   12.3766  -19.2962   26.3117 O   0  0  0  0  0  0  0  0  0  0  0  0
  1  2  1  0
  2  3  1  0
  3  4  2  0
  3 13  1  0
  5  6  1  0
  6  8  1  0
  7  6  2  0
  9  8  1  0
  9 10  1  0
 10 11  1  0
 12 11  1  1
 12 14  1  0
 13 12  1  0
 14 15  2  0
 14 16  1  0
 16 17  1  0
 17 21  1  0
 17 18  1  6
 19 18  1  0
 19 23  1  0
 20 19  2  0
 21 22  2  0
 21 24  1  0
M  END
$$$$
