GRD.pdb
     RDKit          3D

 24 23  0  0  1  0  0  0  0  0999 V2000
    8.0670  -22.7700   20.3902 N   0  0  0  0  0  0  0  0  0  0  0  0
    7.5927  -21.5659   21.0488 C   0  0  0  0  0  0  0  0  0  0  0  0
    8.3929  -20.3876   20.6285 C   0  0  0  0  0  0  0  0  0  0  0  0
    9.3825  -20.5663   19.9057 O   0  0  0  0  0  0  0  0  0  0  0  0
    8.5981  -11.4625   21.0179 N   0  0  0  0  0  0  0  0  0  0  0  0
    8.4591  -12.6225   20.2017 C   0  0  0  0  0  0  0  0  0  0  0  0
    9.2382  -12.7337   19.1767 N   0  0  0  0  0  0  0  0  0  0  0  0
    7.4888  -13.6008   20.5316 N   0  0  0  0  0  0  0  0  0  0  0  0
    7.2622  -14.6793   19.5965 C   0  0  0  0  0  0  0  0  0  0  0  0
    8.4384  -15.6837   19.6515 C   0  0  0  0  0  0  0  0  0  0  0  0
    8.0468  -16.7078   20.6449 C   0  0  0  0  0  0  0  0  0  0  0  0
    8.8998  -17.9462   20.7128 C   0  0  2  0  0  0  0  0  0  0  0  0
    8.0297  -19.0933   21.0455 N   0  0  0  0  0  0  0  0  0  0  0  0
    9.9370  -17.9233   21.7668 C   0  0  0  0  0  0  0  0  0  0  0  0
    9.7122  -18.3998   22.9386 O   0  0  0  0  0  0  0  0  0  0  0  0
    9.2654  -13.5341   18.5329 N   0  0  0  0  0  0  0  0  0  0  0  0
   11.2452  -17.3899   21.5860 C   0  0  2  0  0  0  0  0  0  0  0  0
   12.3108  -17.6195   22.5454 C   0  0  0  0  0  0  0  0  0  0  0  0
   13.6342  -17.9355   21.9197 C   0  0  0  0  0  0  0  0  0  0  0  0
   14.7202  -18.0712   22.9143 O   0  0  0  0  0  0  0  0  0  0  0  0
   14.5985  -18.6828   24.0203 C   0  0  0  0  0  0  0  0  0  0  0  0
   12.4332  -16.4699   23.5079 O   0  0  0  0  0  0  0  0  0  0  0  0
   13.3003  -16.4954   24.4008 O   0  0  0  0  0  0  0  0  0  0  0  0
   15.9670  -17.5143   22.6734 O   0  0  0  0  0  0  0  0  0  0  0  0
  1  2  1  0
  2  3  1  0
  3  4  2  0
  3 13  1  0
  5  6  1  0
  6  8  1  0
  7  6  2  0
  9  8  1  0
  9 10  1  0
 10 11  1  0
 12 11  1  1
 12 14  1  0
 13 12  1  0
 14 15  2  0
 14 16  1  0
 16 17  1  0
 17 21  1  0
 17 18  1  6
 19 18  1  0
 19 23  1  0
 20 19  2  0
 21 22  2  0
 21 24  1  0
M  END
$$$$
