GRD.pdb
     RDKit          3D

 24 23  0  0  1  0  0  0  0  0999 V2000
    5.7830  -20.2232   24.7931 N   0  0  0  0  0  0  0  0  0  0  0  0
    6.1449  -18.9031   25.2777 C   0  0  0  0  0  0  0  0  0  0  0  0
    6.8877  -18.1473   24.2373 C   0  0  0  0  0  0  0  0  0  0  0  0
    7.1722  -18.7175   23.1754 O   0  0  0  0  0  0  0  0  0  0  0  0
    8.7041  -15.0739   19.0781 N   0  0  0  0  0  0  0  0  0  0  0  0
    8.3878  -13.6854   19.0226 C   0  0  0  0  0  0  0  0  0  0  0  0
    8.8134  -13.0117   18.0052 N   0  0  0  0  0  0  0  0  0  0  0  0
    7.6308  -13.0956   20.0650 N   0  0  0  0  0  0  0  0  0  0  0  0
    7.1478  -13.9508   21.1252 C   0  0  0  0  0  0  0  0  0  0  0  0
    7.9410  -13.6807   22.4264 C   0  0  0  0  0  0  0  0  0  0  0  0
    7.3989  -14.6220   23.4308 C   0  0  0  0  0  0  0  0  0  0  0  0
    7.9033  -16.0390   23.3723 C   0  0  2  0  0  0  0  0  0  0  0  0
    7.2592  -16.8077   24.4576 N   0  0  0  0  0  0  0  0  0  0  0  0
    9.3573  -16.1858   23.5986 C   0  0  0  0  0  0  0  0  0  0  0  0
    9.9099  -15.7849   24.6871 O   0  0  0  0  0  0  0  0  0  0  0  0
    8.6693  -12.0056   17.8542 N   0  0  0  0  0  0  0  0  0  0  0  0
   10.2548  -16.7712   22.6604 C   0  0  2  0  0  0  0  0  0  0  0  0
   11.6849  -16.8416   22.9019 C   0  0  0  0  0  0  0  0  0  0  0  0
   12.3080  -18.1392   22.4888 C   0  0  0  0  0  0  0  0  0  0  0  0
   11.8109  -19.2892   23.2746 O   0  0  0  0  0  0  0  0  0  0  0  0
   11.5975  -19.2557   24.5258 C   0  0  0  0  0  0  0  0  0  0  0  0
   12.4009  -15.6781   22.2721 O   0  0  0  0  0  0  0  0  0  0  0  0
   11.9403  -15.1457   21.2454 O   0  0  0  0  0  0  0  0  0  0  0  0
   11.5464  -20.5013   22.6554 O   0  0  0  0  0  0  0  0  0  0  0  0
  1  2  1  0
  2  3  1  0
  3  4  2  0
  3 13  1  0
  5  6  1  0
  6  8  1  0
  7  6  2  0
  9  8  1  0
  9 10  1  0
 10 11  1  0
 12 11  1  1
 12 14  1  0
 13 12  1  0
 14 15  2  0
 14 16  1  0
 16 17  1  0
 17 21  1  0
 17 18  1  6
 19 18  1  0
 19 23  1  0
 20 19  2  0
 21 22  2  0
 21 24  1  0
M  END
$$$$
