GRD.pdb
     RDKit          3D

 24 23  0  0  1  0  0  0  0  0999 V2000
   15.2892  -14.3384   17.4366 N   0  0  0  0  0  0  0  0  0  0  0  0
   14.4294  -15.4826   17.6818 C   0  0  0  0  0  0  0  0  0  0  0  0
   13.6429  -15.2911   18.9268 C   0  0  0  0  0  0  0  0  0  0  0  0
   14.0749  -14.5171   19.7917 O   0  0  0  0  0  0  0  0  0  0  0  0
    7.7034  -12.6405   17.3088 N   0  0  0  0  0  0  0  0  0  0  0  0
    7.3581  -12.6690   18.6912 C   0  0  0  0  0  0  0  0  0  0  0  0
    7.1564  -11.5386   19.2842 N   0  0  0  0  0  0  0  0  0  0  0  0
    7.2487  -13.9121   19.3620 N   0  0  0  0  0  0  0  0  0  0  0  0
    8.2749  -14.9036   19.1327 C   0  0  0  0  0  0  0  0  0  0  0  0
    9.2120  -14.9900   20.3613 C   0  0  0  0  0  0  0  0  0  0  0  0
   10.1958  -16.0482   20.0434 C   0  0  0  0  0  0  0  0  0  0  0  0
   11.6391  -15.7429   20.3429 C   0  0  2  0  0  0  0  0  0  0  0  0
   12.4290  -15.9779   19.1163 N   0  0  0  0  0  0  0  0  0  0  0  0
   12.2512  -16.6083   21.3742 C   0  0  0  0  0  0  0  0  0  0  0  0
   12.8187  -17.7191   21.0661 O   0  0  0  0  0  0  0  0  0  0  0  0
    6.8976  -11.4216   20.2717 N   0  0  0  0  0  0  0  0  0  0  0  0
   12.2716  -16.2991   22.7643 C   0  0  2  0  0  0  0  0  0  0  0  0
   12.8158  -17.2159   23.7501 C   0  0  0  0  0  0  0  0  0  0  0  0
   13.8527  -16.6049   24.6412 C   0  0  0  0  0  0  0  0  0  0  0  0
   14.4556  -17.5825   25.5727 O   0  0  0  0  0  0  0  0  0  0  0  0
   14.8613  -18.7353   25.2282 C   0  0  0  0  0  0  0  0  0  0  0  0
   11.7216  -17.8558   24.5604 O   0  0  0  0  0  0  0  0  0  0  0  0
   10.5667  -17.3928   24.5220 O   0  0  0  0  0  0  0  0  0  0  0  0
   14.6099  -17.2711   26.9150 O   0  0  0  0  0  0  0  0  0  0  0  0
  1  2  1  0
  2  3  1  0
  3  4  2  0
  3 13  1  0
  5  6  1  0
  6  8  1  0
  7  6  2  0
  9  8  1  0
  9 10  1  0
 10 11  1  0
 12 11  1  6
 12 14  1  0
 13 12  1  0
 14 15  2  0
 14 16  1  0
 16 17  1  0
 17 21  1  0
 17 18  1  1
 19 18  1  0
 19 23  1  0
 20 19  2  0
 21 22  2  0
 21 24  1  0
M  END
$$$$
