GRD.pdb
     RDKit          3D

 24 23  0  0  1  0  0  0  0  0999 V2000
    8.2987  -13.4588   16.8879 N   0  0  0  0  0  0  0  0  0  0  0  0
    7.5364  -14.1945   17.8810 C   0  0  0  0  0  0  0  0  0  0  0  0
    8.2239  -14.1667   19.1971 C   0  0  0  0  0  0  0  0  0  0  0  0
    9.4482  -13.9828   19.2262 O   0  0  0  0  0  0  0  0  0  0  0  0
    5.1146  -11.8688   26.8405 N   0  0  0  0  0  0  0  0  0  0  0  0
    6.3643  -12.4070   27.2643 C   0  0  0  0  0  0  0  0  0  0  0  0
    6.7376  -12.1761   28.4797 N   0  0  0  0  0  0  0  0  0  0  0  0
    7.1461  -13.1645   26.3574 N   0  0  0  0  0  0  0  0  0  0  0  0
    6.7767  -13.1491   24.9603 C   0  0  0  0  0  0  0  0  0  0  0  0
    7.6670  -14.1349   24.1661 C   0  0  0  0  0  0  0  0  0  0  0  0
    7.1773  -14.0848   22.7709 C   0  0  0  0  0  0  0  0  0  0  0  0
    8.1956  -14.3183   21.6872 C   0  0  2  0  0  0  0  0  0  0  0  0
    7.4938  -14.3457   20.3871 N   0  0  0  0  0  0  0  0  0  0  0  0
    8.9050  -15.6128   21.7762 C   0  0  0  0  0  0  0  0  0  0  0  0
    8.4246  -16.6783   21.2426 O   0  0  0  0  0  0  0  0  0  0  0  0
    7.6289  -12.4730   28.8960 N   0  0  0  0  0  0  0  0  0  0  0  0
   10.1524  -15.7940   22.4394 C   0  0  2  0  0  0  0  0  0  0  0  0
   10.7271  -17.1100   22.6546 C   0  0  0  0  0  0  0  0  0  0  0  0
   11.9992  -17.3483   21.9010 C   0  0  0  0  0  0  0  0  0  0  0  0
   13.0822  -16.4229   22.2982 O   0  0  0  0  0  0  0  0  0  0  0  0
   12.9754  -15.5593   23.2228 C   0  0  0  0  0  0  0  0  0  0  0  0
   10.9118  -17.3898   24.1211 O   0  0  0  0  0  0  0  0  0  0  0  0
   11.3425  -18.4966   24.4941 O   0  0  0  0  0  0  0  0  0  0  0  0
   14.3090  -16.4590   21.6529 O   0  0  0  0  0  0  0  0  0  0  0  0
  1  2  1  0
  2  3  1  0
  3  4  2  0
  3 13  1  0
  5  6  1  0
  6  8  1  0
  7  6  2  0
  9  8  1  0
  9 10  1  0
 10 11  1  0
 12 11  1  1
 12 14  1  0
 13 12  1  0
 14 15  2  0
 14 16  1  0
 16 17  1  0
 17 21  1  0
 17 18  1  6
 19 18  1  0
 19 23  1  0
 20 19  2  0
 21 22  2  0
 21 24  1  0
M  END
$$$$
