GRD.pdb
     RDKit          3D

 24 23  0  0  1  0  0  0  0  0999 V2000
    8.8645  -16.6433   17.0893 N   0  0  0  0  0  0  0  0  0  0  0  0
    8.0095  -16.7567   18.2574 C   0  0  0  0  0  0  0  0  0  0  0  0
    8.6202  -16.0697   19.4237 C   0  0  0  0  0  0  0  0  0  0  0  0
    9.8034  -15.7112   19.3520 O   0  0  0  0  0  0  0  0  0  0  0  0
    7.2209  -13.1602   27.4250 N   0  0  0  0  0  0  0  0  0  0  0  0
    6.8390  -12.1965   26.4470 C   0  0  0  0  0  0  0  0  0  0  0  0
    6.8193  -10.9541   26.8023 N   0  0  0  0  0  0  0  0  0  0  0  0
    6.4980  -12.6209   25.1389 N   0  0  0  0  0  0  0  0  0  0  0  0
    6.5609  -14.0340   24.8422 C   0  0  0  0  0  0  0  0  0  0  0  0
    7.8613  -14.3549   24.0668 C   0  0  0  0  0  0  0  0  0  0  0  0
    7.4319  -14.7503   22.7073 C   0  0  0  0  0  0  0  0  0  0  0  0
    8.5098  -15.2156   21.7654 C   0  0  2  0  0  0  0  0  0  0  0  0
    7.8646  -15.8315   20.5872 N   0  0  0  0  0  0  0  0  0  0  0  0
    9.3998  -16.2611   22.3150 C   0  0  0  0  0  0  0  0  0  0  0  0
    9.0412  -17.4943   22.3533 O   0  0  0  0  0  0  0  0  0  0  0  0
    6.5821  -10.1631   26.1908 N   0  0  0  0  0  0  0  0  0  0  0  0
   10.7012  -16.0071   22.8351 C   0  0  2  0  0  0  0  0  0  0  0  0
   11.5098  -17.0538   23.4344 C   0  0  0  0  0  0  0  0  0  0  0  0
   12.9806  -16.7728   23.4132 C   0  0  0  0  0  0  0  0  0  0  0  0
   13.7832  -17.8787   23.9787 O   0  0  0  0  0  0  0  0  0  0  0  0
   13.3449  -19.0574   24.1538 C   0  0  0  0  0  0  0  0  0  0  0  0
   11.0439  -17.3697   24.8295 O   0  0  0  0  0  0  0  0  0  0  0  0
   10.7355  -16.4473   25.6065 O   0  0  0  0  0  0  0  0  0  0  0  0
   15.1005  -17.6686   24.3574 O   0  0  0  0  0  0  0  0  0  0  0  0
  1  2  1  0
  2  3  1  0
  3  4  2  0
  3 13  1  0
  5  6  1  0
  6  8  1  0
  7  6  2  0
  9  8  1  0
  9 10  1  0
 10 11  1  0
 12 11  1  1
 12 14  1  0
 13 12  1  0
 14 15  2  0
 14 16  1  0
 16 17  1  0
 17 21  1  0
 17 18  1  6
 19 18  1  0
 19 23  1  0
 20 19  2  0
 21 22  2  0
 21 24  1  0
M  END
$$$$
