GRD.pdb
     RDKit          3D

 24 23  0  0  1  0  0  0  0  0999 V2000
    9.2007  -19.4354   17.0896 N   0  0  0  0  0  0  0  0  0  0  0  0
    8.1679  -19.2297   18.0894 C   0  0  0  0  0  0  0  0  0  0  0  0
    8.6363  -18.2941   19.1433 C   0  0  0  0  0  0  0  0  0  0  0  0
    9.8014  -17.8771   19.0952 O   0  0  0  0  0  0  0  0  0  0  0  0
    8.6984  -11.5925   20.1088 N   0  0  0  0  0  0  0  0  0  0  0  0
    8.4084  -12.9056   19.6369 C   0  0  0  0  0  0  0  0  0  0  0  0
    8.7806  -13.2095   18.4372 N   0  0  0  0  0  0  0  0  0  0  0  0
    7.7329  -13.8216   20.4807 N   0  0  0  0  0  0  0  0  0  0  0  0
    8.0302  -13.7933   21.8947 C   0  0  0  0  0  0  0  0  0  0  0  0
    7.3710  -15.0036   22.5988 C   0  0  0  0  0  0  0  0  0  0  0  0
    7.1157  -15.9985   21.5340 C   0  0  0  0  0  0  0  0  0  0  0  0
    8.2439  -16.9373   21.2000 C   0  0  2  0  0  0  0  0  0  0  0  0
    7.7688  -17.8905   20.1756 N   0  0  0  0  0  0  0  0  0  0  0  0
    8.7046  -17.7740   22.3291 C   0  0  0  0  0  0  0  0  0  0  0  0
    8.2952  -18.9827   22.4781 O   0  0  0  0  0  0  0  0  0  0  0  0
    8.6625  -14.1276   17.9912 N   0  0  0  0  0  0  0  0  0  0  0  0
    9.6210  -17.3326   23.3260 C   0  0  2  0  0  0  0  0  0  0  0  0
   10.8056  -18.0958   23.6764 C   0  0  0  0  0  0  0  0  0  0  0  0
   11.6735  -18.4424   22.5062 C   0  0  0  0  0  0  0  0  0  0  0  0
   12.8828  -19.1999   22.8943 O   0  0  0  0  0  0  0  0  0  0  0  0
   13.3771  -20.1484   22.2101 C   0  0  0  0  0  0  0  0  0  0  0  0
   11.6019  -17.4028   24.7483 O   0  0  0  0  0  0  0  0  0  0  0  0
   11.9111  -18.0144   25.7875 O   0  0  0  0  0  0  0  0  0  0  0  0
   13.5556  -18.8960   24.0681 O   0  0  0  0  0  0  0  0  0  0  0  0
  1  2  1  0
  2  3  1  0
  3  4  2  0
  3 13  1  0
  5  6  1  0
  6  8  1  0
  7  6  2  0
  9  8  1  0
  9 10  1  0
 10 11  1  0
 12 11  1  1
 12 14  1  0
 13 12  1  0
 14 15  2  0
 14 16  1  0
 16 17  1  0
 17 21  1  0
 17 18  1  6
 19 18  1  0
 19 23  1  0
 20 19  2  0
 21 22  2  0
 21 24  1  0
M  END
$$$$
