LLE.pdb
     RDKit          3D

 26 25  0  0  1  0  0  0  0  0999 V2000
   27.6187  -21.7222   -8.9478 C   0  0  0  0  0  0  0  0  0  0  0  0
   26.2823  -21.4084   -9.5875 C   0  0  1  0  0  0  0  0  0  0  0  0
   25.2361  -21.0687   -8.5635 C   0  0  0  0  0  0  0  0  0  0  0  0
   26.3883  -20.2455  -10.5514 C   0  0  0  0  0  0  0  0  0  0  0  0
   26.3215  -20.8107  -11.9483 C   0  0  2  0  0  0  0  0  0  0  0  0
   27.6345  -21.0421  -12.4606 N   0  0  0  0  0  0  0  0  0  0  0  0
   25.4942  -19.9342  -12.8463 C   0  0  0  0  0  0  0  0  0  0  0  0
   24.8733  -19.0194  -12.2748 O   0  0  0  0  0  0  0  0  0  0  0  0
   26.3092  -16.8544  -15.6047 C   0  0  0  0  0  0  0  0  0  0  0  0
   26.7622  -18.2585  -16.0388 C   0  0  2  0  0  0  0  0  0  0  0  0
   27.8116  -18.1387  -17.0984 C   0  0  0  0  0  0  0  0  0  0  0  0
   25.5628  -19.0679  -16.4756 C   0  0  0  0  0  0  0  0  0  0  0  0
   24.7476  -19.3746  -15.2287 C   0  0  2  0  0  0  0  0  0  0  0  0
   25.4268  -20.1349  -14.2391 N   0  0  0  0  0  0  0  0  0  0  0  0
   23.3606  -19.7507  -15.4786 C   0  0  0  0  0  0  0  0  0  0  0  0
   23.0420  -20.9214  -15.8891 O   0  0  0  0  0  0  0  0  0  0  0  0
   22.2648  -18.8754  -15.2938 N   0  0  0  0  0  0  0  0  0  0  0  0
   20.8718  -19.3045  -15.3668 C   0  0  1  0  0  0  0  0  0  0  0  0
   20.0181  -18.4815  -14.4695 C   0  0  0  0  0  0  0  0  0  0  0  0
   18.5924  -18.9333  -14.5217 C   0  0  0  0  0  0  0  0  0  0  0  0
   17.6367  -18.1060  -13.7668 C   0  0  0  0  0  0  0  0  0  0  0  0
   16.8196  -17.3768  -14.3748 O   0  0  0  0  0  0  0  0  0  0  0  0
   20.3939  -19.3339  -16.7656 C   0  0  0  0  0  0  0  0  0  0  0  0
   20.7793  -18.3328  -17.6207 O   0  0  0  0  0  0  0  0  0  0  0  0
   17.6280  -18.1230  -12.3519 O   0  0  0  0  0  0  0  0  0  0  0  0
   19.6566  -20.2536  -17.1496 O   0  0  0  0  0  0  0  0  0  0  0  0
  2  1  1  1
  3  2  1  0
  4  2  1  0
  5  4  1  0
  5  6  1  6
  7  8  2  0
  7  5  1  0
 10 11  1  6
 10  9  1  0
 12 10  1  0
 13 12  1  6
 13 14  1  0
 14  7  1  0
 15 13  1  0
 16 15  2  0
 17 15  1  0
 18 17  1  0
 19 20  1  0
 18 19  1  1
 20 21  1  0
 21 22  2  0
 21 25  1  0
 23 18  1  0
 23 24  1  0
 26 23  2  0
M  END
$$$$
