LLE.pdb
     RDKit          3D

 26 25  0  0  1  0  0  0  0  0999 V2000
   27.9634  -19.1215   -6.8006 C   0  0  0  0  0  0  0  0  0  0  0  0
   27.3229  -20.2111   -7.6351 C   0  0  1  0  0  0  0  0  0  0  0  0
   26.3916  -21.0658   -6.8224 C   0  0  0  0  0  0  0  0  0  0  0  0
   26.5366  -19.6330   -8.7928 C   0  0  0  0  0  0  0  0  0  0  0  0
   26.1096  -20.7854   -9.6674 C   0  0  2  0  0  0  0  0  0  0  0  0
   27.2148  -21.6490   -9.9367 N   0  0  0  0  0  0  0  0  0  0  0  0
   25.4388  -20.2934  -10.9192 C   0  0  0  0  0  0  0  0  0  0  0  0
   24.4441  -19.5667  -10.7416 O   0  0  0  0  0  0  0  0  0  0  0  0
   27.0875  -18.0311  -14.1724 C   0  0  0  0  0  0  0  0  0  0  0  0
   27.5400  -19.4975  -14.2723 C   0  0  2  0  0  0  0  0  0  0  0  0
   28.6715  -19.6052  -15.2451 C   0  0  0  0  0  0  0  0  0  0  0  0
   26.3597  -20.3710  -14.6307 C   0  0  0  0  0  0  0  0  0  0  0  0
   25.3720  -20.2898  -13.4770 C   0  0  2  0  0  0  0  0  0  0  0  0
   25.9047  -20.6318  -12.2050 N   0  0  0  0  0  0  0  0  0  0  0  0
   24.0412  -20.8103  -13.7697 C   0  0  0  0  0  0  0  0  0  0  0  0
   23.6873  -21.9919  -13.4243 O   0  0  0  0  0  0  0  0  0  0  0  0
   23.0416  -20.0730  -14.4469 N   0  0  0  0  0  0  0  0  0  0  0  0
   21.6455  -20.4913  -14.5210 C   0  0  1  0  0  0  0  0  0  0  0  0
   21.0702  -20.6546  -13.1595 C   0  0  0  0  0  0  0  0  0  0  0  0
   19.6360  -21.0759  -13.2296 C   0  0  0  0  0  0  0  0  0  0  0  0
   19.4071  -22.5065  -13.4917 C   0  0  0  0  0  0  0  0  0  0  0  0
   19.7984  -23.3665  -12.6692 O   0  0  0  0  0  0  0  0  0  0  0  0
   20.8602  -19.5831  -15.3838 C   0  0  0  0  0  0  0  0  0  0  0  0
   20.7793  -18.2547  -15.0506 O   0  0  0  0  0  0  0  0  0  0  0  0
   18.7458  -22.9275  -14.6697 O   0  0  0  0  0  0  0  0  0  0  0  0
   20.2877  -20.0253  -16.3906 O   0  0  0  0  0  0  0  0  0  0  0  0
  2  1  1  1
  3  2  1  0
  4  2  1  0
  5  4  1  0
  5  6  1  6
  7  8  2  0
  7  5  1  0
 10 11  1  6
 10  9  1  0
 12 10  1  0
 13 12  1  6
 13 14  1  0
 14  7  1  0
 15 13  1  0
 16 15  2  0
 17 15  1  0
 18 17  1  0
 19 20  1  0
 18 19  1  1
 20 21  1  0
 21 22  2  0
 21 25  1  0
 23 18  1  0
 23 24  1  0
 26 23  2  0
M  END
$$$$
