LLE.pdb
     RDKit          3D

 26 25  0  0  1  0  0  0  0  0999 V2000
   26.0008  -16.6628  -19.6504 C   0  0  0  0  0  0  0  0  0  0  0  0
   24.7873  -16.8807  -18.7708 C   0  0  1  0  0  0  0  0  0  0  0  0
   23.5068  -16.8121  -19.5545 C   0  0  0  0  0  0  0  0  0  0  0  0
   24.8395  -18.2256  -18.0771 C   0  0  0  0  0  0  0  0  0  0  0  0
   23.8754  -18.1725  -16.9183 C   0  0  2  0  0  0  0  0  0  0  0  0
   24.0753  -16.9840  -16.1517 N   0  0  0  0  0  0  0  0  0  0  0  0
   23.9620  -19.4213  -16.0863 C   0  0  0  0  0  0  0  0  0  0  0  0
   23.8547  -20.4900  -16.7150 O   0  0  0  0  0  0  0  0  0  0  0  0
   24.9970  -21.0287  -10.0925 C   0  0  0  0  0  0  0  0  0  0  0  0
   24.8339  -21.3664  -11.5839 C   0  0  2  0  0  0  0  0  0  0  0  0
   25.9469  -22.2679  -12.0159 C   0  0  0  0  0  0  0  0  0  0  0  0
   24.7534  -20.0897  -12.3890 C   0  0  0  0  0  0  0  0  0  0  0  0
   24.1977  -20.4538  -13.7572 C   0  0  2  0  0  0  0  0  0  0  0  0
   24.1517  -19.3838  -14.6908 N   0  0  0  0  0  0  0  0  0  0  0  0
   23.0299  -21.3274  -13.7334 C   0  0  0  0  0  0  0  0  0  0  0  0
   23.0507  -22.4666  -13.1483 O   0  0  0  0  0  0  0  0  0  0  0  0
   21.7944  -21.0026  -14.3411 N   0  0  0  0  0  0  0  0  0  0  0  0
   20.6324  -21.8854  -14.3223 C   0  0  1  0  0  0  0  0  0  0  0  0
   19.6620  -21.4586  -13.2795 C   0  0  0  0  0  0  0  0  0  0  0  0
   18.4141  -22.2824  -13.3379 C   0  0  0  0  0  0  0  0  0  0  0  0
   17.3231  -21.8451  -12.4513 C   0  0  0  0  0  0  0  0  0  0  0  0
   17.4650  -20.8271  -11.7354 O   0  0  0  0  0  0  0  0  0  0  0  0
   20.0312  -22.0070  -15.6675 C   0  0  0  0  0  0  0  0  0  0  0  0
   19.8384  -20.8723  -16.4142 O   0  0  0  0  0  0  0  0  0  0  0  0
   16.1058  -22.5646  -12.3959 O   0  0  0  0  0  0  0  0  0  0  0  0
   19.7100  -23.1217  -16.1046 O   0  0  0  0  0  0  0  0  0  0  0  0
  2  1  1  6
  3  2  1  0
  4  2  1  0
  5  4  1  0
  5  6  1  1
  7  8  2  0
  7  5  1  0
 10 11  1  6
 10  9  1  0
 12 10  1  0
 13 12  1  1
 13 14  1  0
 14  7  1  0
 15 13  1  0
 16 15  2  0
 17 15  1  0
 18 17  1  0
 19 20  1  0
 18 19  1  1
 20 21  1  0
 21 22  2  0
 21 25  1  0
 23 18  1  0
 23 24  1  0
 26 23  2  0
M  END
$$$$
