LLE.pdb
     RDKit          3D

 26 25  0  0  1  0  0  0  0  0999 V2000
   14.7059  -12.1682    2.4415 C   0  0  0  0  0  0  0  0  0  0  0  0
   15.2848  -13.0310    3.5434 C   0  0  1  0  0  0  0  0  0  0  0  0
   14.3672  -13.1155    4.7305 C   0  0  0  0  0  0  0  0  0  0  0  0
   15.5552  -14.4403    3.0600 C   0  0  0  0  0  0  0  0  0  0  0  0
   16.3012  -15.1576    4.1573 C   0  0  2  0  0  0  0  0  0  0  0  0
   17.4504  -14.4092    4.5567 N   0  0  0  0  0  0  0  0  0  0  0  0
   16.6375  -16.5649    3.7508 C   0  0  0  0  0  0  0  0  0  0  0  0
   15.6613  -17.3008    3.5173 O   0  0  0  0  0  0  0  0  0  0  0  0
   19.0426  -16.7411    0.5599 C   0  0  0  0  0  0  0  0  0  0  0  0
   19.8362  -16.9347    1.8629 C   0  0  2  0  0  0  0  0  0  0  0  0
   21.2721  -16.5863    1.6289 C   0  0  0  0  0  0  0  0  0  0  0  0
   19.6395  -18.3435    2.3741 C   0  0  0  0  0  0  0  0  0  0  0  0
   18.4543  -18.3160    3.3268 C   0  0  2  0  0  0  0  0  0  0  0  0
   17.9666  -17.0191    3.6416 N   0  0  0  0  0  0  0  0  0  0  0  0
   18.5417  -19.2506    4.4433 C   0  0  0  0  0  0  0  0  0  0  0  0
   18.9670  -20.4489    4.2890 O   0  0  0  0  0  0  0  0  0  0  0  0
   18.1728  -18.9253    5.7697 N   0  0  0  0  0  0  0  0  0  0  0  0
   18.1227  -19.9022    6.8528 C   0  0  1  0  0  0  0  0  0  0  0  0
   18.4069  -19.2549    8.1611 C   0  0  0  0  0  0  0  0  0  0  0  0
   18.3481  -20.2506    9.2768 C   0  0  0  0  0  0  0  0  0  0  0  0
   19.2639  -19.9979   10.4014 C   0  0  0  0  0  0  0  0  0  0  0  0
   20.1441  -19.1115   10.3082 O   0  0  0  0  0  0  0  0  0  0  0  0
   16.8504  -20.6549    6.8356 C   0  0  0  0  0  0  0  0  0  0  0  0
   15.6948  -19.9990    6.4943 O   0  0  0  0  0  0  0  0  0  0  0  0
   19.1634  -20.7487   11.5967 O   0  0  0  0  0  0  0  0  0  0  0  0
   16.8390  -21.8600    7.1266 O   0  0  0  0  0  0  0  0  0  0  0  0
  2  1  1  6
  3  2  1  0
  4  2  1  0
  5  4  1  0
  5  6  1  6
  7  8  2  0
  7  5  1  0
 10 11  1  6
 10  9  1  0
 12 10  1  0
 13 12  1  1
 13 14  1  0
 14  7  1  0
 15 13  1  0
 16 15  2  0
 17 15  1  0
 18 17  1  0
 19 20  1  0
 18 19  1  1
 20 21  1  0
 21 22  2  0
 21 25  1  0
 23 18  1  0
 23 24  1  0
 26 23  2  0
M  END
$$$$
