LLE.pdb
     RDKit          3D

 26 25  0  0  1  0  0  0  0  0999 V2000
   24.5444  -32.1801   -7.6777 C   0  0  0  0  0  0  0  0  0  0  0  0
   25.7623  -33.0116   -8.0228 C   0  0  1  0  0  0  0  0  0  0  0  0
   26.8193  -32.1981   -8.7152 C   0  0  0  0  0  0  0  0  0  0  0  0
   26.3817  -33.6276   -6.7860 C   0  0  0  0  0  0  0  0  0  0  0  0
   27.6037  -34.3935   -7.2280 C   0  0  2  0  0  0  0  0  0  0  0  0
   27.2476  -35.4131   -8.1627 N   0  0  0  0  0  0  0  0  0  0  0  0
   28.3621  -34.9290   -6.0459 C   0  0  0  0  0  0  0  0  0  0  0  0
   27.8889  -35.9579   -5.5298 O   0  0  0  0  0  0  0  0  0  0  0  0
   32.7803  -36.0375   -5.4940 C   0  0  0  0  0  0  0  0  0  0  0  0
   32.3857  -34.5613   -5.6677 C   0  0  2  0  0  0  0  0  0  0  0  0
   33.5925  -33.7639   -6.0497 C   0  0  0  0  0  0  0  0  0  0  0  0
   31.7147  -34.0623   -4.4086 C   0  0  0  0  0  0  0  0  0  0  0  0
   30.2982  -34.6161   -4.4028 C   0  0  2  0  0  0  0  0  0  0  0  0
   29.5283  -34.3083   -5.5566 N   0  0  0  0  0  0  0  0  0  0  0  0
   29.6014  -34.5076   -3.1260 C   0  0  0  0  0  0  0  0  0  0  0  0
   28.8966  -33.4808   -2.8265 O   0  0  0  0  0  0  0  0  0  0  0  0
   29.6395  -35.5054   -2.1239 N   0  0  0  0  0  0  0  0  0  0  0  0
   28.9643  -35.3781   -0.8364 C   0  0  1  0  0  0  0  0  0  0  0  0
   27.9477  -36.4497   -0.6651 C   0  0  0  0  0  0  0  0  0  0  0  0
   27.2545  -36.3262    0.6554 C   0  0  0  0  0  0  0  0  0  0  0  0
   26.2499  -37.3630    0.9440 C   0  0  0  0  0  0  0  0  0  0  0  0
   25.9120  -38.1760    0.0529 O   0  0  0  0  0  0  0  0  0  0  0  0
   29.9383  -35.3116    0.2740 C   0  0  0  0  0  0  0  0  0  0  0  0
   29.5170  -34.8671    1.5016 O   0  0  0  0  0  0  0  0  0  0  0  0
   25.6554  -37.4552    2.2249 O   0  0  0  0  0  0  0  0  0  0  0  0
   31.1150  -35.6546    0.0879 O   0  0  0  0  0  0  0  0  0  0  0  0
  2  1  1  1
  3  2  1  0
  4  2  1  0
  5  4  1  0
  5  6  1  6
  7  8  2  0
  7  5  1  0
 10 11  1  1
 10  9  1  0
 12 10  1  0
 13 12  1  1
 13 14  1  0
 14  7  1  0
 15 13  1  0
 16 15  2  0
 17 15  1  0
 18 17  1  0
 19 20  1  0
 18 19  1  1
 20 21  1  0
 21 22  2  0
 21 25  1  0
 23 18  1  0
 23 24  1  0
 26 23  2  0
M  END
$$$$
