LLE.pdb
     RDKit          3D

 26 25  0  0  1  0  0  0  0  0999 V2000
   29.3503  -18.8335  -16.9252 C   0  0  0  0  0  0  0  0  0  0  0  0
   27.8570  -18.6704  -16.7326 C   0  0  1  0  0  0  0  0  0  0  0  0
   27.1221  -18.6420  -18.0432 C   0  0  0  0  0  0  0  0  0  0  0  0
   27.2797  -19.7935  -15.8970 C   0  0  0  0  0  0  0  0  0  0  0  0
   25.8310  -19.4630  -15.6373 C   0  0  2  0  0  0  0  0  0  0  0  0
   25.7027  -18.1399  -15.1149 N   0  0  0  0  0  0  0  0  0  0  0  0
   25.1903  -20.4993  -14.7572 C   0  0  0  0  0  0  0  0  0  0  0  0
   25.0964  -21.6369  -15.2533 O   0  0  0  0  0  0  0  0  0  0  0  0
   26.5784  -21.9649  -11.5095 C   0  0  0  0  0  0  0  0  0  0  0  0
   25.8862  -20.6748  -11.0385 C   0  0  2  0  0  0  0  0  0  0  0  0
   26.3909  -20.3055   -9.6794 C   0  0  0  0  0  0  0  0  0  0  0  0
   24.3863  -20.8542  -11.0897 C   0  0  0  0  0  0  0  0  0  0  0  0
   24.0016  -21.0190  -12.5519 C   0  0  2  0  0  0  0  0  0  0  0  0
   24.7283  -20.2027  -13.4598 N   0  0  0  0  0  0  0  0  0  0  0  0
   22.5686  -21.1278  -12.8017 C   0  0  0  0  0  0  0  0  0  0  0  0
   21.7832  -21.7196  -11.9810 O   0  0  0  0  0  0  0  0  0  0  0  0
   21.9297  -20.6006  -13.9484 N   0  0  0  0  0  0  0  0  0  0  0  0
   20.4921  -20.6929  -14.1817 C   0  0  1  0  0  0  0  0  0  0  0  0
   19.9971  -19.4937  -14.9086 C   0  0  0  0  0  0  0  0  0  0  0  0
   18.5248  -19.5878  -15.1598 C   0  0  0  0  0  0  0  0  0  0  0  0
   17.9891  -18.6425  -16.1533 C   0  0  0  0  0  0  0  0  0  0  0  0
   18.5242  -17.5201  -16.3051 O   0  0  0  0  0  0  0  0  0  0  0  0
   20.1383  -21.9667  -14.8435 C   0  0  0  0  0  0  0  0  0  0  0  0
   18.9797  -22.6051  -14.4799 O   0  0  0  0  0  0  0  0  0  0  0  0
   16.8685  -18.9867  -16.9459 O   0  0  0  0  0  0  0  0  0  0  0  0
   20.8839  -22.4419  -15.7125 O   0  0  0  0  0  0  0  0  0  0  0  0
  2  1  1  6
  3  2  1  0
  4  2  1  0
  5  4  1  0
  5  6  1  1
  7  8  2  0
  7  5  1  0
 10 11  1  1
 10  9  1  0
 12 10  1  0
 13 12  1  1
 13 14  1  0
 14  7  1  0
 15 13  1  0
 16 15  2  0
 17 15  1  0
 18 17  1  0
 19 20  1  0
 18 19  1  6
 20 21  1  0
 21 22  2  0
 21 25  1  0
 23 18  1  0
 23 24  1  0
 26 23  2  0
M  END
$$$$
