LLE.pdb
     RDKit          3D

 26 25  0  0  1  0  0  0  0  0999 V2000
   29.2937  -17.3327  -16.7007 C   0  0  0  0  0  0  0  0  0  0  0  0
   27.9211  -17.9682  -16.6231 C   0  0  1  0  0  0  0  0  0  0  0  0
   27.0901  -17.6585  -17.8364 C   0  0  0  0  0  0  0  0  0  0  0  0
   28.0137  -19.4738  -16.4916 C   0  0  0  0  0  0  0  0  0  0  0  0
   26.6374  -19.9807  -16.1393 C   0  0  2  0  0  0  0  0  0  0  0  0
   25.7899  -18.9014  -15.7433 N   0  0  0  0  0  0  0  0  0  0  0  0
   26.7114  -21.0699  -15.1062 C   0  0  0  0  0  0  0  0  0  0  0  0
   27.4000  -22.0578  -15.4205 O   0  0  0  0  0  0  0  0  0  0  0  0
   25.3224  -19.6153  -11.5720 C   0  0  0  0  0  0  0  0  0  0  0  0
   25.2835  -20.9652  -10.8363 C   0  0  2  0  0  0  0  0  0  0  0  0
   25.7439  -20.7778   -9.4253 C   0  0  0  0  0  0  0  0  0  0  0  0
   26.0981  -21.9844  -11.5995 C   0  0  0  0  0  0  0  0  0  0  0  0
   25.5639  -22.0138  -13.0233 C   0  0  2  0  0  0  0  0  0  0  0  0
   26.0468  -20.9780  -13.8674 N   0  0  0  0  0  0  0  0  0  0  0  0
   24.1421  -22.3182  -13.1399 C   0  0  0  0  0  0  0  0  0  0  0  0
   23.6125  -23.3131  -12.5313 O   0  0  0  0  0  0  0  0  0  0  0  0
   23.2383  -21.5582  -13.9188 N   0  0  0  0  0  0  0  0  0  0  0  0
   21.8239  -21.8890  -14.0605 C   0  0  1  0  0  0  0  0  0  0  0  0
   20.9867  -21.0040  -13.2077 C   0  0  0  0  0  0  0  0  0  0  0  0
   19.5356  -21.3430  -13.3443 C   0  0  0  0  0  0  0  0  0  0  0  0
   18.6089  -20.4787  -12.5947 C   0  0  0  0  0  0  0  0  0  0  0  0
   19.0544  -19.5597  -11.8695 O   0  0  0  0  0  0  0  0  0  0  0  0
   21.4150  -21.8912  -15.4813 C   0  0  0  0  0  0  0  0  0  0  0  0
   20.2435  -22.5118  -15.8346 O   0  0  0  0  0  0  0  0  0  0  0  0
   17.2100  -20.6730  -12.6827 O   0  0  0  0  0  0  0  0  0  0  0  0
   22.1268  -21.3379  -16.3322 O   0  0  0  0  0  0  0  0  0  0  0  0
  2  1  1  6
  3  2  1  0
  4  2  1  0
  5  4  1  0
  5  6  1  1
  7  8  2  0
  7  5  1  0
 10 11  1  1
 10  9  1  0
 12 10  1  0
 13 12  1  1
 13 14  1  0
 14  7  1  0
 15 13  1  0
 16 15  2  0
 17 15  1  0
 18 17  1  0
 19 20  1  0
 18 19  1  1
 20 21  1  0
 21 22  2  0
 21 25  1  0
 23 18  1  0
 23 24  1  0
 26 23  2  0
M  END
$$$$
