LLE.pdb
     RDKit          3D

 26 25  0  0  1  0  0  0  0  0999 V2000
   31.8157  -10.9286  -18.8179 C   0  0  0  0  0  0  0  0  0  0  0  0
   33.1732  -10.2652  -18.7131 C   0  0  1  0  0  0  0  0  0  0  0  0
   33.2827   -9.0665  -19.6128 C   0  0  0  0  0  0  0  0  0  0  0  0
   33.4623   -9.8147  -17.2967 C   0  0  0  0  0  0  0  0  0  0  0  0
   34.8675   -9.2667  -17.2763 C   0  0  2  0  0  0  0  0  0  0  0  0
   35.8002  -10.2574  -17.7104 N   0  0  0  0  0  0  0  0  0  0  0  0
   35.2071   -8.7019  -15.9255 C   0  0  0  0  0  0  0  0  0  0  0  0
   34.4020   -7.8643  -15.4793 O   0  0  0  0  0  0  0  0  0  0  0  0
   35.6741  -10.5851  -12.1979 C   0  0  0  0  0  0  0  0  0  0  0  0
   36.9135  -10.8369  -13.0728 C   0  0  2  0  0  0  0  0  0  0  0  0
   37.6968  -11.9809  -12.5110 C   0  0  0  0  0  0  0  0  0  0  0  0
   37.7192   -9.5636  -13.1925 C   0  0  0  0  0  0  0  0  0  0  0  0
   36.8885   -8.5788  -14.0008 C   0  0  2  0  0  0  0  0  0  0  0  0
   36.3579   -9.0944  -15.2138 N   0  0  0  0  0  0  0  0  0  0  0  0
   37.4323   -7.2270  -14.0686 C   0  0  0  0  0  0  0  0  0  0  0  0
   38.3436   -6.9072  -14.9099 O   0  0  0  0  0  0  0  0  0  0  0  0
   37.0112   -6.1688  -13.2295 N   0  0  0  0  0  0  0  0  0  0  0  0
   37.4700   -4.7917  -13.3804 C   0  0  1  0  0  0  0  0  0  0  0  0
   36.3200   -3.8713  -13.5844 C   0  0  0  0  0  0  0  0  0  0  0  0
   36.7846   -2.4570  -13.7367 C   0  0  0  0  0  0  0  0  0  0  0  0
   35.7326   -1.4729  -14.0409 C   0  0  0  0  0  0  0  0  0  0  0  0
   34.5340   -1.8322  -14.0994 O   0  0  0  0  0  0  0  0  0  0  0  0
   38.3468   -4.3941  -12.2583 C   0  0  0  0  0  0  0  0  0  0  0  0
   39.4545   -3.6281  -12.5198 O   0  0  0  0  0  0  0  0  0  0  0  0
   36.0590   -0.1152  -14.2703 O   0  0  0  0  0  0  0  0  0  0  0  0
   38.0761   -4.7526  -11.1029 O   0  0  0  0  0  0  0  0  0  0  0  0
  2  1  1  1
  3  2  1  0
  4  2  1  0
  5  4  1  0
  5  6  1  1
  7  8  2  0
  7  5  1  0
 10 11  1  1
 10  9  1  0
 12 10  1  0
 13 12  1  6
 13 14  1  0
 14  7  1  0
 15 13  1  0
 16 15  2  0
 17 15  1  0
 18 17  1  0
 19 20  1  0
 18 19  1  1
 20 21  1  0
 21 22  2  0
 21 25  1  0
 23 18  1  0
 23 24  1  0
 26 23  2  0
M  END
$$$$
