LLE.pdb
     RDKit          3D

 26 25  0  0  1  0  0  0  0  0999 V2000
   29.3508  -22.2288  -15.7717 C   0  0  0  0  0  0  0  0  0  0  0  0
   28.2663  -21.2652  -15.3371 C   0  0  1  0  0  0  0  0  0  0  0  0
   27.3441  -20.9106  -16.4695 C   0  0  0  0  0  0  0  0  0  0  0  0
   27.4289  -21.8421  -14.2151 C   0  0  0  0  0  0  0  0  0  0  0  0
   26.3753  -20.8200  -13.8680 C   0  0  2  0  0  0  0  0  0  0  0  0
   26.9788  -19.5704  -13.5299 N   0  0  0  0  0  0  0  0  0  0  0  0
   25.4598  -21.3326  -12.7917 C   0  0  0  0  0  0  0  0  0  0  0  0
   24.8213  -22.3614  -13.0794 O   0  0  0  0  0  0  0  0  0  0  0  0
   27.3864  -21.1148   -9.3720 C   0  0  0  0  0  0  0  0  0  0  0  0
   26.3714  -19.9620   -9.2964 C   0  0  2  0  0  0  0  0  0  0  0  0
   26.7852  -19.0022   -8.2260 C   0  0  0  0  0  0  0  0  0  0  0  0
   24.9816  -20.5201   -9.0927 C   0  0  0  0  0  0  0  0  0  0  0  0
   24.4907  -21.0123  -10.4455 C   0  0  2  0  0  0  0  0  0  0  0  0
   25.3339  -20.6920  -11.5433 N   0  0  0  0  0  0  0  0  0  0  0  0
   23.0593  -20.8517  -10.6753 C   0  0  0  0  0  0  0  0  0  0  0  0
   22.2078  -20.9460   -9.7230 O   0  0  0  0  0  0  0  0  0  0  0  0
   22.4934  -20.5825  -11.9436 N   0  0  0  0  0  0  0  0  0  0  0  0
   21.0560  -20.4966  -12.1809 C   0  0  1  0  0  0  0  0  0  0  0  0
   20.7038  -19.2041  -12.8264 C   0  0  0  0  0  0  0  0  0  0  0  0
   19.2256  -19.0910  -13.0304 C   0  0  0  0  0  0  0  0  0  0  0  0
   18.7951  -18.0669  -13.9965 C   0  0  0  0  0  0  0  0  0  0  0  0
   19.6404  -17.3136  -14.5324 O   0  0  0  0  0  0  0  0  0  0  0  0
   20.5653  -21.6761  -12.9251 C   0  0  0  0  0  0  0  0  0  0  0  0
   19.2881  -22.1218  -12.6966 O   0  0  0  0  0  0  0  0  0  0  0  0
   17.4280  -17.9200  -14.3313 O   0  0  0  0  0  0  0  0  0  0  0  0
   21.3046  -22.2461  -13.7407 O   0  0  0  0  0  0  0  0  0  0  0  0
  2  1  1  6
  3  2  1  0
  4  2  1  0
  5  4  1  0
  5  6  1  1
  7  8  2  0
  7  5  1  0
 10 11  1  1
 10  9  1  0
 12 10  1  0
 13 12  1  1
 13 14  1  0
 14  7  1  0
 15 13  1  0
 16 15  2  0
 17 15  1  0
 18 17  1  0
 19 20  1  0
 18 19  1  6
 20 21  1  0
 21 22  2  0
 21 25  1  0
 23 18  1  0
 23 24  1  0
 26 23  2  0
M  END
$$$$
