LLE.pdb
     RDKit          3D

 26 25  0  0  1  0  0  0  0  0999 V2000
   23.0215  -18.1072  -16.6850 C   0  0  0  0  0  0  0  0  0  0  0  0
   22.3665  -16.8577  -16.1344 C   0  0  1  0  0  0  0  0  0  0  0  0
   22.6387  -16.6817  -14.6669 C   0  0  0  0  0  0  0  0  0  0  0  0
   22.8507  -15.6154  -16.8521 C   0  0  0  0  0  0  0  0  0  0  0  0
   22.1318  -14.4360  -16.2461 C   0  0  2  0  0  0  0  0  0  0  0  0
   20.7169  -14.6149  -16.3243 N   0  0  0  0  0  0  0  0  0  0  0  0
   22.5893  -13.1468  -16.8688 C   0  0  0  0  0  0  0  0  0  0  0  0
   23.7963  -12.8816  -16.7215 O   0  0  0  0  0  0  0  0  0  0  0  0
   22.9765  -10.4538  -21.8947 C   0  0  0  0  0  0  0  0  0  0  0  0
   22.9603  -10.1591  -20.3854 C   0  0  2  0  0  0  0  0  0  0  0  0
   24.1752   -9.3668  -20.0188 C   0  0  0  0  0  0  0  0  0  0  0  0
   22.8374  -11.4539  -19.6154 C   0  0  0  0  0  0  0  0  0  0  0  0
   22.0038  -11.1643  -18.3766 C   0  0  2  0  0  0  0  0  0  0  0  0
   21.7115  -12.2975  -17.5710 N   0  0  0  0  0  0  0  0  0  0  0  0
   20.9035  -10.2289  -18.5813 C   0  0  0  0  0  0  0  0  0  0  0  0
   19.8362  -10.5676  -19.2033 O   0  0  0  0  0  0  0  0  0  0  0  0
   20.9148   -8.8912  -18.1211 N   0  0  0  0  0  0  0  0  0  0  0  0
   19.7715   -7.9916  -18.2367 C   0  0  1  0  0  0  0  0  0  0  0  0
   19.7580   -7.0090  -17.1205 C   0  0  0  0  0  0  0  0  0  0  0  0
   18.5927   -6.0776  -17.2392 C   0  0  0  0  0  0  0  0  0  0  0  0
   18.5001   -5.0415  -16.1974 C   0  0  0  0  0  0  0  0  0  0  0  0
   19.3525   -4.9939  -15.2808 O   0  0  0  0  0  0  0  0  0  0  0  0
   19.7200   -7.3611  -19.5729 C   0  0  0  0  0  0  0  0  0  0  0  0
   18.5226   -6.8733  -20.0318 O   0  0  0  0  0  0  0  0  0  0  0  0
   17.4526   -4.0902  -16.2168 O   0  0  0  0  0  0  0  0  0  0  0  0
   20.7486   -7.2793  -20.2600 O   0  0  0  0  0  0  0  0  0  0  0  0
  2  1  1  6
  3  2  1  0
  4  2  1  0
  5  4  1  0
  5  6  1  6
  7  8  2  0
  7  5  1  0
 10 11  1  1
 10  9  1  0
 12 10  1  0
 13 12  1  6
 13 14  1  0
 14  7  1  0
 15 13  1  0
 16 15  2  0
 17 15  1  0
 18 17  1  0
 19 20  1  0
 18 19  1  1
 20 21  1  0
 21 22  2  0
 21 25  1  0
 23 18  1  0
 23 24  1  0
 26 23  2  0
M  END
$$$$
