LLE.pdb
     RDKit          3D

 26 25  0  0  1  0  0  0  0  0999 V2000
   29.6298  -22.7473  -16.7035 C   0  0  0  0  0  0  0  0  0  0  0  0
   28.6177  -21.6545  -16.4293 C   0  0  1  0  0  0  0  0  0  0  0  0
   27.8893  -21.2387  -17.6763 C   0  0  0  0  0  0  0  0  0  0  0  0
   27.5875  -22.0956  -15.4110 C   0  0  0  0  0  0  0  0  0  0  0  0
   26.6315  -20.9462  -15.2105 C   0  0  2  0  0  0  0  0  0  0  0  0
   27.3405  -19.7585  -14.8543 N   0  0  0  0  0  0  0  0  0  0  0  0
   25.5599  -21.3021  -14.2185 C   0  0  0  0  0  0  0  0  0  0  0  0
   24.8822  -22.3067  -14.5023 O   0  0  0  0  0  0  0  0  0  0  0  0
   26.0118  -22.0520  -10.0714 C   0  0  0  0  0  0  0  0  0  0  0  0
   26.0402  -20.5279  -10.2748 C   0  0  2  0  0  0  0  0  0  0  0  0
   26.5285  -19.8668   -9.0247 C   0  0  0  0  0  0  0  0  0  0  0  0
   24.6751  -20.0470  -10.7102 C   0  0  0  0  0  0  0  0  0  0  0  0
   24.3589  -20.7258  -12.0340 C   0  0  2  0  0  0  0  0  0  0  0  0
   25.3384  -20.5499  -13.0481 N   0  0  0  0  0  0  0  0  0  0  0  0
   22.9700  -20.6143  -12.4654 C   0  0  0  0  0  0  0  0  0  0  0  0
   21.9947  -20.8006  -11.6563 O   0  0  0  0  0  0  0  0  0  0  0  0
   22.5823  -20.2968  -13.7883 N   0  0  0  0  0  0  0  0  0  0  0  0
   21.1936  -20.1091  -14.1960 C   0  0  1  0  0  0  0  0  0  0  0  0
   21.1154  -19.3335  -15.4624 C   0  0  0  0  0  0  0  0  0  0  0  0
   19.6938  -19.1477  -15.8912 C   0  0  0  0  0  0  0  0  0  0  0  0
   19.5037  -18.4415  -17.1690 C   0  0  0  0  0  0  0  0  0  0  0  0
   20.4972  -18.0755  -17.8385 O   0  0  0  0  0  0  0  0  0  0  0  0
   20.4741  -21.3994  -14.2537 C   0  0  0  0  0  0  0  0  0  0  0  0
   19.1492  -21.4378  -13.8997 O   0  0  0  0  0  0  0  0  0  0  0  0
   18.2035  -18.1679  -17.6559 O   0  0  0  0  0  0  0  0  0  0  0  0
   21.0681  -22.4248  -14.6179 O   0  0  0  0  0  0  0  0  0  0  0  0
  2  1  1  6
  3  2  1  0
  4  2  1  0
  5  4  1  0
  5  6  1  1
  7  8  2  0
  7  5  1  0
 10 11  1  1
 10  9  1  0
 12 10  1  0
 13 12  1  1
 13 14  1  0
 14  7  1  0
 15 13  1  0
 16 15  2  0
 17 15  1  0
 18 17  1  0
 19 20  1  0
 18 19  1  6
 20 21  1  0
 21 22  2  0
 21 25  1  0
 23 18  1  0
 23 24  1  0
 26 23  2  0
M  END
$$$$
