LLE.pdb
     RDKit          3D

 26 25  0  0  1  0  0  0  0  0999 V2000
   29.4337  -19.2229  -17.5454 C   0  0  0  0  0  0  0  0  0  0  0  0
   27.9826  -19.3096  -17.1205 C   0  0  1  0  0  0  0  0  0  0  0  0
   27.0894  -19.7240  -18.2559 C   0  0  0  0  0  0  0  0  0  0  0  0
   27.7938  -20.3005  -15.9913 C   0  0  0  0  0  0  0  0  0  0  0  0
   26.3468  -20.2334  -15.5703 C   0  0  2  0  0  0  0  0  0  0  0  0
   25.8512  -18.8988  -15.6844 N   0  0  0  0  0  0  0  0  0  0  0  0
   26.1578  -20.8072  -14.1941 C   0  0  0  0  0  0  0  0  0  0  0  0
   26.4779  -22.0030  -14.0657 O   0  0  0  0  0  0  0  0  0  0  0  0
   25.5518  -19.5774   -8.1799 C   0  0  0  0  0  0  0  0  0  0  0  0
   25.2386  -20.4273   -9.4227 C   0  0  2  0  0  0  0  0  0  0  0  0
   25.8673  -21.7768   -9.2757 C   0  0  0  0  0  0  0  0  0  0  0  0
   25.6844  -19.6935  -10.6666 C   0  0  0  0  0  0  0  0  0  0  0  0
   25.1588  -20.4726  -11.8625 C   0  0  2  0  0  0  0  0  0  0  0  0
   25.6532  -20.0432  -13.1234 N   0  0  0  0  0  0  0  0  0  0  0  0
   23.7360  -20.7896  -11.8119 C   0  0  0  0  0  0  0  0  0  0  0  0
   23.1406  -21.0479  -10.7076 O   0  0  0  0  0  0  0  0  0  0  0  0
   22.9020  -20.8392  -12.9535 N   0  0  0  0  0  0  0  0  0  0  0  0
   21.4448  -20.8763  -12.8837 C   0  0  1  0  0  0  0  0  0  0  0  0
   20.8426  -20.3613  -14.1421 C   0  0  0  0  0  0  0  0  0  0  0  0
   21.4730  -19.0662  -14.5482 C   0  0  0  0  0  0  0  0  0  0  0  0
   20.9633  -18.4767  -15.7973 C   0  0  0  0  0  0  0  0  0  0  0  0
   19.8121  -18.7600  -16.2019 O   0  0  0  0  0  0  0  0  0  0  0  0
   20.9613  -22.2228  -12.5111 C   0  0  0  0  0  0  0  0  0  0  0  0
   19.6280  -22.3986  -12.2397 O   0  0  0  0  0  0  0  0  0  0  0  0
   21.7621  -17.5869  -16.5540 O   0  0  0  0  0  0  0  0  0  0  0  0
   21.7567  -23.1717  -12.4479 O   0  0  0  0  0  0  0  0  0  0  0  0
  2  1  1  6
  3  2  1  0
  4  2  1  0
  5  4  1  0
  5  6  1  1
  7  8  2  0
  7  5  1  0
 10 11  1  1
 10  9  1  0
 12 10  1  0
 13 12  1  1
 13 14  1  0
 14  7  1  0
 15 13  1  0
 16 15  2  0
 17 15  1  0
 18 17  1  0
 19 20  1  0
 18 19  1  6
 20 21  1  0
 21 22  2  0
 21 25  1  0
 23 18  1  0
 23 24  1  0
 26 23  2  0
M  END
$$$$
