LLE.pdb
     RDKit          3D

 26 25  0  0  1  0  0  0  0  0999 V2000
   27.4886  -22.0144  -11.8559 C   0  0  0  0  0  0  0  0  0  0  0  0
   25.9953  -21.7675  -11.8059 C   0  0  1  0  0  0  0  0  0  0  0  0
   25.5741  -21.1363  -10.5087 C   0  0  0  0  0  0  0  0  0  0  0  0
   25.5446  -20.8634  -12.9339 C   0  0  0  0  0  0  0  0  0  0  0  0
   24.0783  -20.5783  -12.7243 C   0  0  2  0  0  0  0  0  0  0  0  0
   23.3716  -21.7801  -12.4138 N   0  0  0  0  0  0  0  0  0  0  0  0
   23.4959  -19.8505  -13.9033 C   0  0  0  0  0  0  0  0  0  0  0  0
   24.1060  -18.8229  -14.2508 O   0  0  0  0  0  0  0  0  0  0  0  0
   23.4669  -20.8302  -18.0582 C   0  0  0  0  0  0  0  0  0  0  0  0
   22.5788  -21.6310  -17.0911 C   0  0  2  0  0  0  0  0  0  0  0  0
   22.2907  -22.9771  -17.6770 C   0  0  0  0  0  0  0  0  0  0  0  0
   21.3313  -20.8395  -16.7721 C   0  0  0  0  0  0  0  0  0  0  0  0
   21.7143  -19.7913  -15.7388 C   0  0  2  0  0  0  0  0  0  0  0  0
   22.3390  -20.3012  -14.5690 N   0  0  0  0  0  0  0  0  0  0  0  0
   20.7184  -18.7475  -15.5241 C   0  0  0  0  0  0  0  0  0  0  0  0
   19.7083  -18.9256  -14.7569 O   0  0  0  0  0  0  0  0  0  0  0  0
   20.7764  -17.4707  -16.1305 N   0  0  0  0  0  0  0  0  0  0  0  0
   19.7539  -16.4459  -15.9464 C   0  0  1  0  0  0  0  0  0  0  0  0
   20.1797  -15.1593  -16.5585 C   0  0  0  0  0  0  0  0  0  0  0  0
   19.1790  -14.0796  -16.2895 C   0  0  0  0  0  0  0  0  0  0  0  0
   19.4964  -12.7625  -16.8658 C   0  0  0  0  0  0  0  0  0  0  0  0
   20.5536  -12.6002  -17.5179 O   0  0  0  0  0  0  0  0  0  0  0  0
   18.4354  -16.9140  -16.4242 C   0  0  0  0  0  0  0  0  0  0  0  0
   17.3224  -16.6515  -15.6662 O   0  0  0  0  0  0  0  0  0  0  0  0
   18.6167  -11.6678  -16.6922 O   0  0  0  0  0  0  0  0  0  0  0  0
   18.3479  -17.5332  -17.4946 O   0  0  0  0  0  0  0  0  0  0  0  0
  2  1  1  1
  3  2  1  0
  4  2  1  0
  5  4  1  0
  5  6  1  6
  7  8  2  0
  7  5  1  0
 10 11  1  6
 10  9  1  0
 12 10  1  0
 13 12  1  1
 13 14  1  0
 14  7  1  0
 15 13  1  0
 16 15  2  0
 17 15  1  0
 18 17  1  0
 19 20  1  0
 18 19  1  6
 20 21  1  0
 21 22  2  0
 21 25  1  0
 23 18  1  0
 23 24  1  0
 26 23  2  0
M  END
$$$$
