LLE.pdb
     RDKit          3D

 26 25  0  0  1  0  0  0  0  0999 V2000
   27.8276  -22.3636  -16.2050 C   0  0  0  0  0  0  0  0  0  0  0  0
   27.2879  -21.2943  -15.2782 C   0  0  1  0  0  0  0  0  0  0  0  0
   26.1869  -20.4984  -15.9209 C   0  0  0  0  0  0  0  0  0  0  0  0
   26.7458  -21.8927  -13.9972 C   0  0  0  0  0  0  0  0  0  0  0  0
   26.4773  -20.7532  -13.0461 C   0  0  2  0  0  0  0  0  0  0  0  0
   27.4125  -19.6938  -13.2534 N   0  0  0  0  0  0  0  0  0  0  0  0
   26.4506  -21.2335  -11.6221 C   0  0  0  0  0  0  0  0  0  0  0  0
   26.0086  -22.3850  -11.4554 O   0  0  0  0  0  0  0  0  0  0  0  0
   27.4059  -18.6921   -6.0120 C   0  0  0  0  0  0  0  0  0  0  0  0
   26.8969  -19.8822   -6.8425 C   0  0  2  0  0  0  0  0  0  0  0  0
   27.1721  -21.1566   -6.1089 C   0  0  0  0  0  0  0  0  0  0  0  0
   27.5147  -19.8419   -8.2214 C   0  0  0  0  0  0  0  0  0  0  0  0
   26.5146  -20.4666   -9.1820 C   0  0  2  0  0  0  0  0  0  0  0  0
   26.8956  -20.4348  -10.5504 N   0  0  0  0  0  0  0  0  0  0  0  0
   25.1174  -20.1536   -8.9036 C   0  0  0  0  0  0  0  0  0  0  0  0
   24.6713  -18.9540   -8.9538 O   0  0  0  0  0  0  0  0  0  0  0  0
   24.1487  -21.1258   -8.5606 N   0  0  0  0  0  0  0  0  0  0  0  0
   22.7521  -20.8062   -8.2827 C   0  0  1  0  0  0  0  0  0  0  0  0
   22.0417  -20.4157   -9.5294 C   0  0  0  0  0  0  0  0  0  0  0  0
   21.7737  -21.6095  -10.3911 C   0  0  0  0  0  0  0  0  0  0  0  0
   21.1600  -21.3234  -11.6984 C   0  0  0  0  0  0  0  0  0  0  0  0
   20.7622  -20.1662  -11.9660 O   0  0  0  0  0  0  0  0  0  0  0  0
   22.0878  -21.9046   -7.5493 C   0  0  0  0  0  0  0  0  0  0  0  0
   22.7759  -23.0720   -7.3348 O   0  0  0  0  0  0  0  0  0  0  0  0
   21.0117  -22.3459  -12.6653 O   0  0  0  0  0  0  0  0  0  0  0  0
   20.9267  -21.7627   -7.1386 O   0  0  0  0  0  0  0  0  0  0  0  0
  2  1  1  6
  3  2  1  0
  4  2  1  0
  5  4  1  0
  5  6  1  1
  7  8  2  0
  7  5  1  0
 10 11  1  1
 10  9  1  0
 12 10  1  0
 13 12  1  1
 13 14  1  0
 14  7  1  0
 15 13  1  0
 16 15  2  0
 17 15  1  0
 18 17  1  0
 19 20  1  0
 18 19  1  6
 20 21  1  0
 21 22  2  0
 21 25  1  0
 23 18  1  0
 23 24  1  0
 26 23  2  0
M  END
$$$$
