LLE.pdb
     RDKit          3D

 26 25  0  0  1  0  0  0  0  0999 V2000
   27.3392  -17.0314  -17.7787 C   0  0  0  0  0  0  0  0  0  0  0  0
   27.8305  -18.0570  -16.7785 C   0  0  1  0  0  0  0  0  0  0  0  0
   28.6210  -17.4240  -15.6682 C   0  0  0  0  0  0  0  0  0  0  0  0
   26.6802  -18.8208  -16.1570 C   0  0  0  0  0  0  0  0  0  0  0  0
   27.2719  -19.8313  -15.2062 C   0  0  2  0  0  0  0  0  0  0  0  0
   28.1664  -20.7063  -15.8947 N   0  0  0  0  0  0  0  0  0  0  0  0
   26.1937  -20.5701  -14.4639 C   0  0  0  0  0  0  0  0  0  0  0  0
   25.6964  -21.5377  -15.0685 O   0  0  0  0  0  0  0  0  0  0  0  0
   26.2687  -22.2343  -10.7196 C   0  0  0  0  0  0  0  0  0  0  0  0
   26.0598  -20.7326  -10.4619 C   0  0  2  0  0  0  0  0  0  0  0  0
   26.2891  -20.4384   -9.0132 C   0  0  0  0  0  0  0  0  0  0  0  0
   24.6886  -20.3193  -10.9452 C   0  0  0  0  0  0  0  0  0  0  0  0
   24.6315  -20.6053  -12.4379 C   0  0  2  0  0  0  0  0  0  0  0  0
   25.7755  -20.1927  -13.1727 N   0  0  0  0  0  0  0  0  0  0  0  0
   23.3423  -20.3383  -13.0658 C   0  0  0  0  0  0  0  0  0  0  0  0
   23.0167  -19.1664  -13.4674 O   0  0  0  0  0  0  0  0  0  0  0  0
   22.3556  -21.3283  -13.2838 N   0  0  0  0  0  0  0  0  0  0  0  0
   21.0910  -21.0670  -13.9637 C   0  0  1  0  0  0  0  0  0  0  0  0
   20.9053  -21.9971  -15.1091 C   0  0  0  0  0  0  0  0  0  0  0  0
   19.6590  -21.6698  -15.8700 C   0  0  0  0  0  0  0  0  0  0  0  0
   18.7006  -22.7766  -16.0241 C   0  0  0  0  0  0  0  0  0  0  0  0
   17.4910  -22.5348  -16.2417 O   0  0  0  0  0  0  0  0  0  0  0  0
   19.9599  -21.0769  -13.0117 C   0  0  0  0  0  0  0  0  0  0  0  0
   18.8086  -20.4071  -13.3405 O   0  0  0  0  0  0  0  0  0  0  0  0
   19.1301  -24.1216  -15.9289 O   0  0  0  0  0  0  0  0  0  0  0  0
   20.0605  -21.6842  -11.9356 O   0  0  0  0  0  0  0  0  0  0  0  0
  2  1  1  6
  3  2  1  0
  4  2  1  0
  5  4  1  0
  5  6  1  6
  7  8  2  0
  7  5  1  0
 10 11  1  1
 10  9  1  0
 12 10  1  0
 13 12  1  1
 13 14  1  0
 14  7  1  0
 15 13  1  0
 16 15  2  0
 17 15  1  0
 18 17  1  0
 19 20  1  0
 18 19  1  6
 20 21  1  0
 21 22  2  0
 21 25  1  0
 23 18  1  0
 23 24  1  0
 26 23  2  0
M  END
$$$$
