LKF.pdb
     RDKit          3D

 29 29  0  0  1  0  0  0  0  0999 V2000
   18.2260  -21.5845  -12.7958 C   0  0  0  0  0  0  0  0  0  0  0  0
   19.4548  -21.1771  -13.5443 C   0  0  2  0  0  0  0  0  0  0  0  0
   19.2201  -21.4114  -15.0100 C   0  0  0  0  0  0  0  0  0  0  0  0
   20.6777  -21.9063  -13.0240 C   0  0  0  0  0  0  0  0  0  0  0  0
   21.8825  -21.2682  -13.6786 C   0  0  2  0  0  0  0  0  0  0  0  0
   21.9095  -21.6713  -15.0568 N   0  0  0  0  0  0  0  0  0  0  0  0
   23.1420  -21.5647  -12.9672 C   0  0  0  0  0  0  0  0  0  0  0  0
   23.4067  -22.7057  -12.5563 O   0  0  0  0  0  0  0  0  0  0  0  0
   24.0727  -20.5058  -12.7513 N   0  0  0  0  0  0  0  0  0  0  0  0
   25.3688  -20.7058  -12.1673 C   0  0  1  0  0  0  0  0  0  0  0  0
   26.4232  -20.0239  -12.9425 C   0  0  0  0  0  0  0  0  0  0  0  0
   26.8527  -20.5887  -14.2330 C   0  0  0  0  0  0  0  0  0  0  0  0
   27.8106  -21.7162  -14.2314 C   0  0  0  0  0  0  0  0  0  0  0  0
   28.1242  -22.0527  -15.6831 C   0  0  0  0  0  0  0  0  0  0  0  0
   29.0004  -23.1812  -15.8049 N   0  0  0  0  0  0  0  0  0  0  0  0
   25.3612  -20.2136  -10.7262 C   0  0  0  0  0  0  0  0  0  0  0  0
   24.7450  -19.1688  -10.4036 O   0  0  0  0  0  0  0  0  0  0  0  0
   26.0472  -20.9195   -9.7152 N   0  0  0  0  0  0  0  0  0  0  0  0
   26.4213  -20.3157   -8.4283 C   0  0  1  0  0  0  0  0  0  0  0  0
   27.2866  -21.3237   -7.7074 C   0  0  0  0  0  0  0  0  0  0  0  0
   27.8177  -20.8023   -6.4298 C   0  0  0  0  0  0  0  0  0  0  0  0
   27.1696  -21.0400   -5.2370 C   0  0  0  0  0  0  0  0  0  0  0  0
   27.7033  -20.5317   -4.0596 C   0  0  0  0  0  0  0  0  0  0  0  0
   28.8610  -19.7935   -4.0238 C   0  0  0  0  0  0  0  0  0  0  0  0
   29.5112  -19.5543   -5.2157 C   0  0  0  0  0  0  0  0  0  0  0  0
   28.9924  -20.0532   -6.3923 C   0  0  0  0  0  0  0  0  0  0  0  0
   27.0264  -18.9994   -8.6007 C   0  0  0  0  0  0  0  0  0  0  0  0
   26.6971  -17.9206   -7.7957 O   0  0  0  0  0  0  0  0  0  0  0  0
   27.8760  -18.8147   -9.5015 O   0  0  0  0  0  0  0  0  0  0  0  0
  2  1  1  1
  2  3  1  0
  4  2  1  0
  5  4  1  0
  5  6  1  6
  7  5  1  0
  7  8  2  0
  9  7  1  0
 10  9  1  0
 11 12  1  0
 10 11  1  6
 12 13  1  0
 13 14  1  0
 14 15  1  0
 16 10  1  0
 17 16  2  0
 18 16  1  0
 19 18  1  0
 19 20  1  6
 21 22  2  0
 21 20  1  0
 23 22  1  0
 24 23  2  0
 25 24  1  0
 25 26  2  0
 26 21  1  0
 27 19  1  0
 28 27  1  0
 29 27  2  0
M  END
$$$$
