LKF.pdb
     RDKit          3D

 29 29  0  0  1  0  0  0  0  0999 V2000
   28.2698  -16.2544  -15.9445 C   0  0  0  0  0  0  0  0  0  0  0  0
   26.9384  -15.6336  -15.6648 C   0  0  2  0  0  0  0  0  0  0  0  0
   27.1488  -14.1834  -15.3320 C   0  0  0  0  0  0  0  0  0  0  0  0
   26.2051  -16.3843  -14.5708 C   0  0  0  0  0  0  0  0  0  0  0  0
   26.2402  -17.8498  -14.9427 C   0  0  2  0  0  0  0  0  0  0  0  0
   25.5687  -18.0085  -16.2022 N   0  0  0  0  0  0  0  0  0  0  0  0
   25.6912  -18.7202  -13.8837 C   0  0  0  0  0  0  0  0  0  0  0  0
   24.5573  -18.5393  -13.4126 O   0  0  0  0  0  0  0  0  0  0  0  0
   26.4926  -19.7945  -13.3958 N   0  0  0  0  0  0  0  0  0  0  0  0
   25.9546  -20.9068  -12.6649 C   0  0  1  0  0  0  0  0  0  0  0  0
   26.2165  -22.1852  -13.3539 C   0  0  0  0  0  0  0  0  0  0  0  0
   25.0828  -23.0182  -13.7895 C   0  0  0  0  0  0  0  0  0  0  0  0
   24.5027  -23.9853  -12.8318 C   0  0  0  0  0  0  0  0  0  0  0  0
   23.4683  -24.8111  -13.5850 C   0  0  0  0  0  0  0  0  0  0  0  0
   22.7721  -25.7267  -12.7287 N   0  0  0  0  0  0  0  0  0  0  0  0
   26.5414  -20.9264  -11.2598 C   0  0  0  0  0  0  0  0  0  0  0  0
   27.7792  -21.0285  -11.0778 O   0  0  0  0  0  0  0  0  0  0  0  0
   25.7086  -20.8303  -10.1247 N   0  0  0  0  0  0  0  0  0  0  0  0
   26.2062  -20.9813   -8.7500 C   0  0  1  0  0  0  0  0  0  0  0  0
   27.2755  -19.9312   -8.5541 C   0  0  0  0  0  0  0  0  0  0  0  0
   27.8070  -19.9155   -7.1744 C   0  0  0  0  0  0  0  0  0  0  0  0
   27.5564  -18.8600   -6.3246 C   0  0  0  0  0  0  0  0  0  0  0  0
   28.0749  -18.8858   -5.0362 C   0  0  0  0  0  0  0  0  0  0  0  0
   28.8357  -19.9253   -4.5597 C   0  0  0  0  0  0  0  0  0  0  0  0
   29.0879  -20.9824   -5.4079 C   0  0  0  0  0  0  0  0  0  0  0  0
   28.5792  -20.9698   -6.6899 C   0  0  0  0  0  0  0  0  0  0  0  0
   25.1236  -20.9444   -7.7726 C   0  0  0  0  0  0  0  0  0  0  0  0
   25.2262  -21.5473   -6.5291 O   0  0  0  0  0  0  0  0  0  0  0  0
   24.0545  -20.3527   -8.0454 O   0  0  0  0  0  0  0  0  0  0  0  0
  2  1  1  1
  2  3  1  0
  4  2  1  0
  5  4  1  0
  5  6  1  6
  7  5  1  0
  7  8  2  0
  9  7  1  0
 10  9  1  0
 11 12  1  0
 10 11  1  6
 12 13  1  0
 13 14  1  0
 14 15  1  0
 16 10  1  0
 17 16  2  0
 18 16  1  0
 19 18  1  0
 19 20  1  1
 21 22  2  0
 21 20  1  0
 23 22  1  0
 24 23  2  0
 25 24  1  0
 25 26  2  0
 26 21  1  0
 27 19  1  0
 28 27  1  0
 29 27  2  0
M  END
$$$$
