LKF.pdb
     RDKit          3D

 29 29  0  0  1  0  0  0  0  0999 V2000
   29.0336  -17.1847  -16.0740 C   0  0  0  0  0  0  0  0  0  0  0  0
   27.5594  -16.9988  -16.2420 C   0  0  2  0  0  0  0  0  0  0  0  0
   27.3158  -15.6498  -16.8575 C   0  0  0  0  0  0  0  0  0  0  0  0
   26.8327  -17.1801  -14.9240 C   0  0  0  0  0  0  0  0  0  0  0  0
   27.3519  -18.4597  -14.3073 C   0  0  2  0  0  0  0  0  0  0  0  0
   27.3801  -19.4696  -15.3280 N   0  0  0  0  0  0  0  0  0  0  0  0
   26.5857  -18.8691  -13.1132 C   0  0  0  0  0  0  0  0  0  0  0  0
   26.1927  -18.0427  -12.2746 O   0  0  0  0  0  0  0  0  0  0  0  0
   26.2945  -20.2529  -12.9272 N   0  0  0  0  0  0  0  0  0  0  0  0
   25.4910  -20.7481  -11.8455 C   0  0  1  0  0  0  0  0  0  0  0  0
   24.7910  -21.9931  -12.2166 C   0  0  0  0  0  0  0  0  0  0  0  0
   23.4090  -21.9237  -12.7209 C   0  0  0  0  0  0  0  0  0  0  0  0
   22.5097  -20.8774  -12.1867 C   0  0  0  0  0  0  0  0  0  0  0  0
   21.1309  -21.1064  -12.7914 C   0  0  0  0  0  0  0  0  0  0  0  0
   20.1540  -20.1857  -12.2874 N   0  0  0  0  0  0  0  0  0  0  0  0
   26.3665  -20.9717  -10.6197 C   0  0  0  0  0  0  0  0  0  0  0  0
   27.2610  -21.8523  -10.6165 O   0  0  0  0  0  0  0  0  0  0  0  0
   26.1951  -20.1944   -9.4546 N   0  0  0  0  0  0  0  0  0  0  0  0
   26.8231  -20.5284   -8.1683 C   0  0  1  0  0  0  0  0  0  0  0  0
   27.5738  -19.2973   -7.7154 C   0  0  0  0  0  0  0  0  0  0  0  0
   28.1755  -19.4628   -6.3750 C   0  0  0  0  0  0  0  0  0  0  0  0
   29.3038  -20.2320   -6.1888 C   0  0  0  0  0  0  0  0  0  0  0  0
   29.8365  -20.3607   -4.9124 C   0  0  0  0  0  0  0  0  0  0  0  0
   29.2877  -19.7512   -3.8108 C   0  0  0  0  0  0  0  0  0  0  0  0
   28.1590  -18.9811   -3.9944 C   0  0  0  0  0  0  0  0  0  0  0  0
   27.6195  -18.8447   -5.2564 C   0  0  0  0  0  0  0  0  0  0  0  0
   25.8537  -21.0440   -7.2075 C   0  0  0  0  0  0  0  0  0  0  0  0
   26.2273  -21.8132   -6.1170 O   0  0  0  0  0  0  0  0  0  0  0  0
   24.6353  -20.7952   -7.3534 O   0  0  0  0  0  0  0  0  0  0  0  0
  2  1  1  1
  2  3  1  0
  4  2  1  0
  5  4  1  0
  5  6  1  6
  7  5  1  0
  7  8  2  0
  9  7  1  0
 10  9  1  0
 11 12  1  0
 10 11  1  6
 12 13  1  0
 13 14  1  0
 14 15  1  0
 16 10  1  0
 17 16  2  0
 18 16  1  0
 19 18  1  0
 19 20  1  1
 21 22  2  0
 21 20  1  0
 23 22  1  0
 24 23  2  0
 25 24  1  0
 25 26  2  0
 26 21  1  0
 27 19  1  0
 28 27  1  0
 29 27  2  0
M  END
$$$$
