LKF.pdb
     RDKit          3D

 29 29  0  0  1  0  0  0  0  0999 V2000
   29.1065  -17.4489  -16.0672 C   0  0  0  0  0  0  0  0  0  0  0  0
   27.9142  -16.5656  -15.8812 C   0  0  2  0  0  0  0  0  0  0  0  0
   28.3691  -15.1342  -15.9292 C   0  0  0  0  0  0  0  0  0  0  0  0
   27.1797  -16.9031  -14.5988 C   0  0  0  0  0  0  0  0  0  0  0  0
   26.8273  -18.3722  -14.6668 C   0  0  2  0  0  0  0  0  0  0  0  0
   26.1625  -18.6161  -15.9162 N   0  0  0  0  0  0  0  0  0  0  0  0
   26.0443  -18.8255  -13.4997 C   0  0  0  0  0  0  0  0  0  0  0  0
   25.1814  -18.1055  -12.9729 O   0  0  0  0  0  0  0  0  0  0  0  0
   26.2933  -20.1266  -12.9710 N   0  0  0  0  0  0  0  0  0  0  0  0
   25.5449  -20.6886  -11.8825 C   0  0  1  0  0  0  0  0  0  0  0  0
   24.9511  -21.9892  -12.2480 C   0  0  0  0  0  0  0  0  0  0  0  0
   23.7326  -22.0219  -13.0746 C   0  0  0  0  0  0  0  0  0  0  0  0
   22.4537  -21.5861  -12.4720 C   0  0  0  0  0  0  0  0  0  0  0  0
   21.3749  -21.7240  -13.5380 C   0  0  0  0  0  0  0  0  0  0  0  0
   20.0939  -21.2705  -13.0802 N   0  0  0  0  0  0  0  0  0  0  0  0
   26.4472  -20.8359  -10.6646 C   0  0  0  0  0  0  0  0  0  0  0  0
   27.5053  -21.5087  -10.7219 O   0  0  0  0  0  0  0  0  0  0  0  0
   26.1173  -20.2195   -9.4389 N   0  0  0  0  0  0  0  0  0  0  0  0
   26.7633  -20.5695   -8.1659 C   0  0  1  0  0  0  0  0  0  0  0  0
   27.5825  -19.3704   -7.7469 C   0  0  0  0  0  0  0  0  0  0  0  0
   28.1900  -19.5396   -6.4096 C   0  0  0  0  0  0  0  0  0  0  0  0
   29.2257  -20.4250   -6.2027 C   0  0  0  0  0  0  0  0  0  0  0  0
   29.7676  -20.5528   -4.9301 C   0  0  0  0  0  0  0  0  0  0  0  0
   29.3168  -19.8308   -3.8522 C   0  0  0  0  0  0  0  0  0  0  0  0
   28.2809  -18.9445   -4.0565 C   0  0  0  0  0  0  0  0  0  0  0  0
   27.7334  -18.8076   -5.3151 C   0  0  0  0  0  0  0  0  0  0  0  0
   25.7970  -21.0293   -7.1741 C   0  0  0  0  0  0  0  0  0  0  0  0
   26.1739  -21.7376   -6.0443 O   0  0  0  0  0  0  0  0  0  0  0  0
   24.5785  -20.7866   -7.3286 O   0  0  0  0  0  0  0  0  0  0  0  0
  2  1  1  1
  2  3  1  0
  4  2  1  0
  5  4  1  0
  5  6  1  6
  7  5  1  0
  7  8  2  0
  9  7  1  0
 10  9  1  0
 11 12  1  0
 10 11  1  6
 12 13  1  0
 13 14  1  0
 14 15  1  0
 16 10  1  0
 17 16  2  0
 18 16  1  0
 19 18  1  0
 19 20  1  1
 21 22  2  0
 21 20  1  0
 23 22  1  0
 24 23  2  0
 25 24  1  0
 25 26  2  0
 26 21  1  0
 27 19  1  0
 28 27  1  0
 29 27  2  0
M  END
$$$$
