LKF.pdb
     RDKit          3D

 29 29  0  0  1  0  0  0  0  0999 V2000
   29.2025  -16.4709  -16.0068 C   0  0  0  0  0  0  0  0  0  0  0  0
   27.7953  -16.5959  -16.4970 C   0  0  2  0  0  0  0  0  0  0  0  0
   27.3669  -15.2702  -17.0601 C   0  0  0  0  0  0  0  0  0  0  0  0
   26.8759  -17.0888  -15.3971 C   0  0  0  0  0  0  0  0  0  0  0  0
   27.5835  -18.2373  -14.7134 C   0  0  2  0  0  0  0  0  0  0  0  0
   28.0484  -19.1434  -15.7260 N   0  0  0  0  0  0  0  0  0  0  0  0
   26.7454  -18.8963  -13.6917 C   0  0  0  0  0  0  0  0  0  0  0  0
   26.1855  -18.2511  -12.7912 O   0  0  0  0  0  0  0  0  0  0  0  0
   26.5810  -20.3119  -13.7493 N   0  0  0  0  0  0  0  0  0  0  0  0
   25.7375  -21.0422  -12.8460 C   0  0  1  0  0  0  0  0  0  0  0  0
   25.4633  -22.4044  -13.3427 C   0  0  0  0  0  0  0  0  0  0  0  0
   24.5690  -23.2882  -12.5757 C   0  0  0  0  0  0  0  0  0  0  0  0
   23.4752  -23.9838  -13.2887 C   0  0  0  0  0  0  0  0  0  0  0  0
   24.1141  -24.9836  -14.2435 C   0  0  0  0  0  0  0  0  0  0  0  0
   23.1395  -25.7383  -14.9760 N   0  0  0  0  0  0  0  0  0  0  0  0
   26.3878  -21.0953  -11.4700 C   0  0  0  0  0  0  0  0  0  0  0  0
   27.5856  -21.4455  -11.3345 O   0  0  0  0  0  0  0  0  0  0  0  0
   25.6606  -20.7521  -10.3105 N   0  0  0  0  0  0  0  0  0  0  0  0
   26.2115  -20.8737   -8.9532 C   0  0  1  0  0  0  0  0  0  0  0  0
   27.0545  -19.6427   -8.7115 C   0  0  0  0  0  0  0  0  0  0  0  0
   27.5433  -19.5562   -7.3187 C   0  0  0  0  0  0  0  0  0  0  0  0
   26.9714  -18.6882   -6.4139 C   0  0  0  0  0  0  0  0  0  0  0  0
   27.4614  -18.6390   -5.1151 C   0  0  0  0  0  0  0  0  0  0  0  0
   28.5021  -19.4232   -4.6810 C   0  0  0  0  0  0  0  0  0  0  0  0
   29.0759  -20.2924   -5.5842 C   0  0  0  0  0  0  0  0  0  0  0  0
   28.5992  -20.3514   -6.8771 C   0  0  0  0  0  0  0  0  0  0  0  0
   25.1672  -21.1066   -7.9613 C   0  0  0  0  0  0  0  0  0  0  0  0
   25.4289  -21.6901   -6.7319 O   0  0  0  0  0  0  0  0  0  0  0  0
   23.9852  -20.7755   -8.2079 O   0  0  0  0  0  0  0  0  0  0  0  0
  2  1  1  1
  2  3  1  0
  4  2  1  0
  5  4  1  0
  5  6  1  6
  7  5  1  0
  7  8  2  0
  9  7  1  0
 10  9  1  0
 11 12  1  0
 10 11  1  6
 12 13  1  0
 13 14  1  0
 14 15  1  0
 16 10  1  0
 17 16  2  0
 18 16  1  0
 19 18  1  0
 19 20  1  1
 21 22  2  0
 21 20  1  0
 23 22  1  0
 24 23  2  0
 25 24  1  0
 25 26  2  0
 26 21  1  0
 27 19  1  0
 28 27  1  0
 29 27  2  0
M  END
$$$$
