LKF.pdb
     RDKit          3D

 29 29  0  0  1  0  0  0  0  0999 V2000
   17.9846  -19.1322  -13.6323 C   0  0  0  0  0  0  0  0  0  0  0  0
   18.7934  -20.3562  -13.9221 C   0  0  2  0  0  0  0  0  0  0  0  0
   17.8832  -21.4040  -14.4981 C   0  0  0  0  0  0  0  0  0  0  0  0
   19.5242  -20.8336  -12.6826 C   0  0  0  0  0  0  0  0  0  0  0  0
   20.8107  -20.0431  -12.5981 C   0  0  2  0  0  0  0  0  0  0  0  0
   21.1697  -19.6284  -13.9254 N   0  0  0  0  0  0  0  0  0  0  0  0
   21.8904  -20.7825  -11.9140 C   0  0  0  0  0  0  0  0  0  0  0  0
   21.7031  -21.3565  -10.8295 O   0  0  0  0  0  0  0  0  0  0  0  0
   23.1791  -20.8327  -12.5231 N   0  0  0  0  0  0  0  0  0  0  0  0
   24.2818  -21.5662  -11.9693 C   0  0  1  0  0  0  0  0  0  0  0  0
   25.1500  -22.1193  -13.0266 C   0  0  0  0  0  0  0  0  0  0  0  0
   26.2700  -21.3121  -13.5394 C   0  0  0  0  0  0  0  0  0  0  0  0
   27.1146  -21.8726  -14.6170 C   0  0  0  0  0  0  0  0  0  0  0  0
   28.2306  -20.8732  -14.8908 C   0  0  0  0  0  0  0  0  0  0  0  0
   29.1396  -21.3330  -15.8999 N   0  0  0  0  0  0  0  0  0  0  0  0
   25.0807  -20.6627  -11.0394 C   0  0  0  0  0  0  0  0  0  0  0  0
   25.2955  -19.4614  -11.3329 O   0  0  0  0  0  0  0  0  0  0  0  0
   25.6006  -21.1526   -9.8225 N   0  0  0  0  0  0  0  0  0  0  0  0
   26.4999  -20.3707   -8.9621 C   0  0  1  0  0  0  0  0  0  0  0  0
   26.6581  -21.1469   -7.6749 C   0  0  0  0  0  0  0  0  0  0  0  0
   27.5102  -20.4443   -6.6917 C   0  0  0  0  0  0  0  0  0  0  0  0
   28.8789  -20.3894   -6.8433 C   0  0  0  0  0  0  0  0  0  0  0  0
   29.6419  -19.7186   -5.8961 C   0  0  0  0  0  0  0  0  0  0  0  0
   29.0933  -19.0985   -4.8003 C   0  0  0  0  0  0  0  0  0  0  0  0
   27.7243  -19.1521   -4.6463 C   0  0  0  0  0  0  0  0  0  0  0  0
   26.9545  -19.8147   -5.5794 C   0  0  0  0  0  0  0  0  0  0  0  0
   27.7504  -20.0425   -9.6383 C   0  0  0  0  0  0  0  0  0  0  0  0
   28.2794  -18.7617   -9.6386 O   0  0  0  0  0  0  0  0  0  0  0  0
   28.3853  -20.9340  -10.2464 O   0  0  0  0  0  0  0  0  0  0  0  0
  2  1  1  1
  2  3  1  0
  4  2  1  0
  5  4  1  0
  5  6  1  6
  7  5  1  0
  7  8  2  0
  9  7  1  0
 10  9  1  0
 11 12  1  0
 10 11  1  6
 12 13  1  0
 13 14  1  0
 14 15  1  0
 16 10  1  0
 17 16  2  0
 18 16  1  0
 19 18  1  0
 19 20  1  1
 21 22  2  0
 21 20  1  0
 23 22  1  0
 24 23  2  0
 25 24  1  0
 25 26  2  0
 26 21  1  0
 27 19  1  0
 28 27  1  0
 29 27  2  0
M  END
$$$$
