LKF.pdb
     RDKit          3D

 29 29  0  0  1  0  0  0  0  0999 V2000
   28.5823  -15.5938  -16.3528 C   0  0  0  0  0  0  0  0  0  0  0  0
   27.1310  -15.8753  -16.5779 C   0  0  2  0  0  0  0  0  0  0  0  0
   26.5063  -14.6709  -17.2239 C   0  0  0  0  0  0  0  0  0  0  0  0
   26.4441  -16.2676  -15.2847 C   0  0  0  0  0  0  0  0  0  0  0  0
   27.1958  -17.4569  -14.7301 C   0  0  2  0  0  0  0  0  0  0  0  0
   27.7846  -18.1676  -15.8306 N   0  0  0  0  0  0  0  0  0  0  0  0
   26.3528  -18.3161  -13.8748 C   0  0  0  0  0  0  0  0  0  0  0  0
   25.5724  -17.8379  -13.0364 O   0  0  0  0  0  0  0  0  0  0  0  0
   26.4446  -19.7317  -14.0233 N   0  0  0  0  0  0  0  0  0  0  0  0
   25.5962  -20.6520  -13.3204 C   0  0  1  0  0  0  0  0  0  0  0  0
   25.5016  -21.9462  -14.0230 C   0  0  0  0  0  0  0  0  0  0  0  0
   24.5449  -22.9598  -13.5473 C   0  0  0  0  0  0  0  0  0  0  0  0
   24.4068  -24.2197  -14.3104 C   0  0  0  0  0  0  0  0  0  0  0  0
   23.7750  -25.2496  -13.3835 C   0  0  0  0  0  0  0  0  0  0  0  0
   22.3778  -25.0082  -13.1706 N   0  0  0  0  0  0  0  0  0  0  0  0
   26.1195  -20.8493  -11.9040 C   0  0  0  0  0  0  0  0  0  0  0  0
   27.3505  -20.9444  -11.6773 O   0  0  0  0  0  0  0  0  0  0  0  0
   25.2340  -20.9304  -10.8084 N   0  0  0  0  0  0  0  0  0  0  0  0
   25.6897  -21.0411   -9.4154 C   0  0  1  0  0  0  0  0  0  0  0  0
   26.5191  -19.8107   -9.1275 C   0  0  0  0  0  0  0  0  0  0  0  0
   26.9180  -19.7171   -7.7068 C   0  0  0  0  0  0  0  0  0  0  0  0
   26.7163  -20.7675   -6.8377 C   0  0  0  0  0  0  0  0  0  0  0  0
   27.1062  -20.6372   -5.5109 C   0  0  0  0  0  0  0  0  0  0  0  0
   27.6910  -19.4981   -5.0144 C   0  0  0  0  0  0  0  0  0  0  0  0
   27.8939  -18.4458   -5.8817 C   0  0  0  0  0  0  0  0  0  0  0  0
   27.5115  -18.5616   -7.2018 C   0  0  0  0  0  0  0  0  0  0  0  0
   24.5788  -21.2612   -8.4956 C   0  0  0  0  0  0  0  0  0  0  0  0
   23.2832  -20.8672   -8.7897 O   0  0  0  0  0  0  0  0  0  0  0  0
   24.7797  -21.8242   -7.3955 O   0  0  0  0  0  0  0  0  0  0  0  0
  2  1  1  1
  2  3  1  0
  4  2  1  0
  5  4  1  0
  5  6  1  6
  7  5  1  0
  7  8  2  0
  9  7  1  0
 10  9  1  0
 11 12  1  0
 10 11  1  6
 12 13  1  0
 13 14  1  0
 14 15  1  0
 16 10  1  0
 17 16  2  0
 18 16  1  0
 19 18  1  0
 19 20  1  1
 21 22  2  0
 21 20  1  0
 23 22  1  0
 24 23  2  0
 25 24  1  0
 25 26  2  0
 26 21  1  0
 27 19  1  0
 28 27  1  0
 29 27  2  0
M  END
$$$$
