LKF.pdb
     RDKit          3D

 29 29  0  0  1  0  0  0  0  0999 V2000
   29.0808  -17.6909  -16.3918 C   0  0  0  0  0  0  0  0  0  0  0  0
   27.6439  -17.2840  -16.3143 C   0  0  2  0  0  0  0  0  0  0  0  0
   27.4741  -15.9893  -17.0580 C   0  0  0  0  0  0  0  0  0  0  0  0
   27.1782  -17.1968  -14.8743 C   0  0  0  0  0  0  0  0  0  0  0  0
   27.4601  -18.5395  -14.2382 C   0  0  2  0  0  0  0  0  0  0  0  0
   27.2358  -19.5586  -15.2250 N   0  0  0  0  0  0  0  0  0  0  0  0
   26.6867  -18.7574  -12.9994 C   0  0  0  0  0  0  0  0  0  0  0  0
   26.5079  -17.8487  -12.1730 O   0  0  0  0  0  0  0  0  0  0  0  0
   26.1344  -20.0494  -12.7547 N   0  0  0  0  0  0  0  0  0  0  0  0
   25.3085  -20.3486  -11.6192 C   0  0  1  0  0  0  0  0  0  0  0  0
   24.3472  -21.4277  -11.9180 C   0  0  0  0  0  0  0  0  0  0  0  0
   22.9476  -21.0861  -12.2236 C   0  0  0  0  0  0  0  0  0  0  0  0
   22.5345  -20.9839  -13.6405 C   0  0  0  0  0  0  0  0  0  0  0  0
   21.0136  -21.0500  -13.6800 C   0  0  0  0  0  0  0  0  0  0  0  0
   20.5253  -22.3981  -13.6674 N   0  0  0  0  0  0  0  0  0  0  0  0
   26.1868  -20.7275  -10.4343 C   0  0  0  0  0  0  0  0  0  0  0  0
   27.1533  -21.5164  -10.5726 O   0  0  0  0  0  0  0  0  0  0  0  0
   25.9372  -20.2014   -9.1490 N   0  0  0  0  0  0  0  0  0  0  0  0
   26.7156  -20.5820   -7.9618 C   0  0  1  0  0  0  0  0  0  0  0  0
   27.5401  -19.3759   -7.5743 C   0  0  0  0  0  0  0  0  0  0  0  0
   28.2555  -19.5672   -6.2945 C   0  0  0  0  0  0  0  0  0  0  0  0
   27.8692  -18.8977   -5.1535 C   0  0  0  0  0  0  0  0  0  0  0  0
   28.5691  -19.1068   -3.9721 C   0  0  0  0  0  0  0  0  0  0  0  0
   29.6421  -19.9594   -3.8824 C   0  0  0  0  0  0  0  0  0  0  0  0
   30.0306  -20.6303   -5.0224 C   0  0  0  0  0  0  0  0  0  0  0  0
   29.3445  -20.4321   -6.2023 C   0  0  0  0  0  0  0  0  0  0  0  0
   25.8654  -21.1106   -6.9005 C   0  0  0  0  0  0  0  0  0  0  0  0
   24.4889  -21.2050   -7.0307 O   0  0  0  0  0  0  0  0  0  0  0  0
   26.3756  -21.4987   -5.8251 O   0  0  0  0  0  0  0  0  0  0  0  0
  2  1  1  1
  2  3  1  0
  4  2  1  0
  5  4  1  0
  5  6  1  6
  7  5  1  0
  7  8  2  0
  9  7  1  0
 10  9  1  0
 11 12  1  0
 10 11  1  6
 12 13  1  0
 13 14  1  0
 14 15  1  0
 16 10  1  0
 17 16  2  0
 18 16  1  0
 19 18  1  0
 19 20  1  1
 21 22  2  0
 21 20  1  0
 23 22  1  0
 24 23  2  0
 25 24  1  0
 25 26  2  0
 26 21  1  0
 27 19  1  0
 28 27  1  0
 29 27  2  0
M  END
$$$$
