LKF.pdb
     RDKit          3D

 29 29  0  0  1  0  0  0  0  0999 V2000
   31.4074  -24.9836  -20.0175 C   0  0  0  0  0  0  0  0  0  0  0  0
   29.9849  -24.9530  -20.4780 C   0  0  2  0  0  0  0  0  0  0  0  0
   29.2737  -23.8434  -19.7561 C   0  0  0  0  0  0  0  0  0  0  0  0
   29.3185  -26.3003  -20.2811 C   0  0  0  0  0  0  0  0  0  0  0  0
   30.1080  -27.3046  -21.0905 C   0  0  2  0  0  0  0  0  0  0  0  0
   29.8054  -27.0979  -22.4791 N   0  0  0  0  0  0  0  0  0  0  0  0
   29.8796  -28.6961  -20.6523 C   0  0  0  0  0  0  0  0  0  0  0  0
   28.8687  -29.3304  -20.9934 O   0  0  0  0  0  0  0  0  0  0  0  0
   30.8519  -29.3193  -19.8153 N   0  0  0  0  0  0  0  0  0  0  0  0
   30.6943  -30.6410  -19.2776 C   0  0  1  0  0  0  0  0  0  0  0  0
   31.9738  -31.3759  -19.2630 C   0  0  0  0  0  0  0  0  0  0  0  0
   32.2149  -32.4294  -20.2635 C   0  0  0  0  0  0  0  0  0  0  0  0
   31.4346  -33.6833  -20.1768 C   0  0  0  0  0  0  0  0  0  0  0  0
   31.9398  -34.6136  -21.2715 C   0  0  0  0  0  0  0  0  0  0  0  0
   31.2367  -35.8631  -21.2936 N   0  0  0  0  0  0  0  0  0  0  0  0
   30.1108  -30.5549  -17.8735 C   0  0  0  0  0  0  0  0  0  0  0  0
   30.7025  -29.9214  -16.9657 O   0  0  0  0  0  0  0  0  0  0  0  0
   28.8890  -31.1853  -17.5561 N   0  0  0  0  0  0  0  0  0  0  0  0
   28.2825  -31.1310  -16.2183 C   0  0  1  0  0  0  0  0  0  0  0  0
   26.9083  -30.5242  -16.3854 C   0  0  0  0  0  0  0  0  0  0  0  0
   26.9590  -29.1500  -16.9288 C   0  0  0  0  0  0  0  0  0  0  0  0
   27.3012  -28.0791  -16.1317 C   0  0  0  0  0  0  0  0  0  0  0  0
   27.3366  -26.8046  -16.6829 C   0  0  0  0  0  0  0  0  0  0  0  0
   27.0435  -26.5543  -18.0011 C   0  0  0  0  0  0  0  0  0  0  0  0
   26.7009  -27.6239  -18.8006 C   0  0  0  0  0  0  0  0  0  0  0  0
   26.6618  -28.8949  -18.2663 C   0  0  0  0  0  0  0  0  0  0  0  0
   28.3026  -32.4323  -15.5589 C   0  0  0  0  0  0  0  0  0  0  0  0
   27.8718  -32.6091  -14.2537 O   0  0  0  0  0  0  0  0  0  0  0  0
   28.7199  -33.4393  -16.1749 O   0  0  0  0  0  0  0  0  0  0  0  0
  2  1  1  1
  2  3  1  0
  4  2  1  0
  5  4  1  0
  5  6  1  6
  7  5  1  0
  7  8  2  0
  9  7  1  0
 10  9  1  0
 11 12  1  0
 10 11  1  1
 12 13  1  0
 13 14  1  0
 14 15  1  0
 16 10  1  0
 17 16  2  0
 18 16  1  0
 19 18  1  0
 19 20  1  6
 21 22  2  0
 21 20  1  0
 23 22  1  0
 24 23  2  0
 25 24  1  0
 25 26  2  0
 26 21  1  0
 27 19  1  0
 28 27  1  0
 29 27  2  0
M  END
$$$$
