LKF.pdb
     RDKit          3D

 29 29  0  0  1  0  0  0  0  0999 V2000
   28.5639  -16.8200  -15.8326 C   0  0  0  0  0  0  0  0  0  0  0  0
   27.0709  -16.7387  -15.8091 C   0  0  2  0  0  0  0  0  0  0  0  0
   26.6622  -15.3526  -16.2216 C   0  0  0  0  0  0  0  0  0  0  0  0
   26.5243  -17.1295  -14.4503 C   0  0  0  0  0  0  0  0  0  0  0  0
   27.0525  -18.5132  -14.1446 C   0  0  2  0  0  0  0  0  0  0  0  0
   27.0776  -19.2637  -15.3689 N   0  0  0  0  0  0  0  0  0  0  0  0
   26.2960  -19.1881  -13.0709 C   0  0  0  0  0  0  0  0  0  0  0  0
   25.4939  -18.5724  -12.3511 O   0  0  0  0  0  0  0  0  0  0  0  0
   26.4992  -20.5844  -12.8631 N   0  0  0  0  0  0  0  0  0  0  0  0
   25.8189  -21.3344  -11.8455 C   0  0  1  0  0  0  0  0  0  0  0  0
   25.7023  -22.7597  -12.2097 C   0  0  0  0  0  0  0  0  0  0  0  0
   24.5735  -23.2033  -13.0453 C   0  0  0  0  0  0  0  0  0  0  0  0
   24.2801  -22.4646  -14.2930 C   0  0  0  0  0  0  0  0  0  0  0  0
   23.8494  -23.4847  -15.3385 C   0  0  0  0  0  0  0  0  0  0  0  0
   22.4592  -23.8198  -15.2340 N   0  0  0  0  0  0  0  0  0  0  0  0
   26.5527  -21.1793  -10.5201 C   0  0  0  0  0  0  0  0  0  0  0  0
   27.8058  -21.2278  -10.4658 O   0  0  0  0  0  0  0  0  0  0  0  0
   25.8428  -20.9768   -9.3175 N   0  0  0  0  0  0  0  0  0  0  0  0
   26.4842  -20.9939   -7.9952 C   0  0  1  0  0  0  0  0  0  0  0  0
   27.4284  -19.8145   -7.9518 C   0  0  0  0  0  0  0  0  0  0  0  0
   28.0626  -19.6460   -6.6267 C   0  0  0  0  0  0  0  0  0  0  0  0
   27.7568  -18.5710   -5.8203 C   0  0  0  0  0  0  0  0  0  0  0  0
   28.3758  -18.4513   -4.5826 C   0  0  0  0  0  0  0  0  0  0  0  0
   29.2902  -19.3632   -4.1152 C   0  0  0  0  0  0  0  0  0  0  0  0
   29.5978  -20.4394   -4.9200 C   0  0  0  0  0  0  0  0  0  0  0  0
   28.9906  -20.5707   -6.1515 C   0  0  0  0  0  0  0  0  0  0  0  0
   25.5036  -21.0348   -6.9156 C   0  0  0  0  0  0  0  0  0  0  0  0
   25.8441  -21.3778   -5.6169 O   0  0  0  0  0  0  0  0  0  0  0  0
   24.3058  -20.7539   -7.1476 O   0  0  0  0  0  0  0  0  0  0  0  0
  2  1  1  1
  2  3  1  0
  4  2  1  0
  5  4  1  0
  5  6  1  6
  7  5  1  0
  7  8  2  0
  9  7  1  0
 10  9  1  0
 11 12  1  0
 10 11  1  6
 12 13  1  0
 13 14  1  0
 14 15  1  0
 16 10  1  0
 17 16  2  0
 18 16  1  0
 19 18  1  0
 19 20  1  1
 21 22  2  0
 21 20  1  0
 23 22  1  0
 24 23  2  0
 25 24  1  0
 25 26  2  0
 26 21  1  0
 27 19  1  0
 28 27  1  0
 29 27  2  0
M  END
$$$$
