LKF.pdb
     RDKit          3D

 29 29  0  0  1  0  0  0  0  0999 V2000
   29.1239  -16.1706  -18.0438 C   0  0  0  0  0  0  0  0  0  0  0  0
   28.1045  -15.9426  -19.1138 C   0  0  2  0  0  0  0  0  0  0  0  0
   28.3285  -14.5785  -19.7031 C   0  0  0  0  0  0  0  0  0  0  0  0
   26.6988  -16.1236  -18.5759 C   0  0  0  0  0  0  0  0  0  0  0  0
   26.6774  -17.4416  -17.8345 C   0  0  2  0  0  0  0  0  0  0  0  0
   27.1462  -18.4649  -18.7264 N   0  0  0  0  0  0  0  0  0  0  0  0
   25.3553  -17.7469  -17.2520 C   0  0  0  0  0  0  0  0  0  0  0  0
   24.8594  -17.0464  -16.3553 O   0  0  0  0  0  0  0  0  0  0  0  0
   24.6367  -18.8785  -17.7392 N   0  0  0  0  0  0  0  0  0  0  0  0
   23.3246  -19.2340  -17.2778 C   0  0  1  0  0  0  0  0  0  0  0  0
   22.5655  -19.9624  -18.3127 C   0  0  0  0  0  0  0  0  0  0  0  0
   21.2383  -19.4694  -18.7184 C   0  0  0  0  0  0  0  0  0  0  0  0
   21.0312  -18.0102  -18.8462 C   0  0  0  0  0  0  0  0  0  0  0  0
   19.5816  -17.7877  -19.2565 C   0  0  0  0  0  0  0  0  0  0  0  0
   19.2502  -16.3963  -19.3574 N   0  0  0  0  0  0  0  0  0  0  0  0
   23.4380  -20.0699  -16.0099 C   0  0  0  0  0  0  0  0  0  0  0  0
   24.1903  -21.0736  -15.9629 O   0  0  0  0  0  0  0  0  0  0  0  0
   22.7000  -19.7378  -14.8540 N   0  0  0  0  0  0  0  0  0  0  0  0
   22.8293  -20.4656  -13.5836 C   0  0  1  0  0  0  0  0  0  0  0  0
   23.5094  -19.5298  -12.6108 C   0  0  0  0  0  0  0  0  0  0  0  0
   23.6481  -20.1192  -11.2618 C   0  0  0  0  0  0  0  0  0  0  0  0
   22.5989  -20.1123  -10.3682 C   0  0  0  0  0  0  0  0  0  0  0  0
   22.7722  -20.6771   -9.1111 C   0  0  0  0  0  0  0  0  0  0  0  0
   23.9534  -21.2503   -8.7080 C   0  0  0  0  0  0  0  0  0  0  0  0
   25.0045  -21.2585   -9.6000 C   0  0  0  0  0  0  0  0  0  0  0  0
   24.8462  -20.7011  -10.8517 C   0  0  0  0  0  0  0  0  0  0  0  0
   21.5494  -20.9985  -13.1294 C   0  0  0  0  0  0  0  0  0  0  0  0
   21.4299  -22.2556  -12.5585 O   0  0  0  0  0  0  0  0  0  0  0  0
   20.5084  -20.3134  -13.2498 O   0  0  0  0  0  0  0  0  0  0  0  0
  2  1  1  1
  2  3  1  0
  4  2  1  0
  5  4  1  0
  5  6  1  6
  7  5  1  0
  7  8  2  0
  9  7  1  0
 10  9  1  0
 11 12  1  0
 10 11  1  6
 12 13  1  0
 13 14  1  0
 14 15  1  0
 16 10  1  0
 17 16  2  0
 18 16  1  0
 19 18  1  0
 19 20  1  1
 21 22  2  0
 21 20  1  0
 23 22  1  0
 24 23  2  0
 25 24  1  0
 25 26  2  0
 26 21  1  0
 27 19  1  0
 28 27  1  0
 29 27  2  0
M  END
$$$$
