HFH.pdb
     RDKit          3D

 32 34  0  0  1  0  0  0  0  0999 V2000
   10.4734  -16.8727   19.3043 N   0  0  0  0  0  0  0  0  0  0  0  0
    9.4477  -17.1603   20.2501 C   0  0  1  0  0  0  0  0  0  0  0  0
    9.5225  -18.6492   20.5797 C   0  0  0  0  0  0  0  0  0  0  0  0
    9.2768  -19.4621   19.3547 C   0  0  0  0  0  0  0  0  0  0  0  0
    8.0689  -19.8624   18.8448 C   0  0  0  0  0  0  0  0  0  0  0  0
    8.3497  -20.5727   17.7327 N   0  0  0  0  0  0  0  0  0  0  0  0
    9.6823  -20.6073   17.5658 C   0  0  0  0  0  0  0  0  0  0  0  0
   10.2712  -19.9156   18.5750 N   0  0  0  0  0  0  0  0  0  0  0  0
    9.5958  -16.4252   21.5267 C   0  0  0  0  0  0  0  0  0  0  0  0
   10.6906  -16.3752   22.1188 O   0  0  0  0  0  0  0  0  0  0  0  0
    8.4923  -15.7730   22.0839 N   0  0  0  0  0  0  0  0  0  0  0  0
    8.5183  -14.9607   23.2943 C   0  0  1  0  0  0  0  0  0  0  0  0
    7.2905  -14.1661   23.4887 C   0  0  0  0  0  0  0  0  0  0  0  0
    7.3527  -13.3825   24.7382 C   0  0  0  0  0  0  0  0  0  0  0  0
    6.4982  -13.6632   25.8077 C   0  0  0  0  0  0  0  0  0  0  0  0
    6.5381  -12.9784   27.0000 C   0  0  0  0  0  0  0  0  0  0  0  0
    7.4527  -11.9627   27.1776 C   0  0  0  0  0  0  0  0  0  0  0  0
    8.3093  -11.6524   26.1594 C   0  0  0  0  0  0  0  0  0  0  0  0
    8.2520  -12.3517   24.9735 C   0  0  0  0  0  0  0  0  0  0  0  0
    8.7220  -15.9057   24.4107 C   0  0  0  0  0  0  0  0  0  0  0  0
    7.9296  -16.8671   24.5442 O   0  0  0  0  0  0  0  0  0  0  0  0
    9.7811  -15.7752   25.3468 N   0  0  0  0  0  0  0  0  0  0  0  0
   10.0538  -16.7625   26.3987 C   0  0  1  0  0  0  0  0  0  0  0  0
   11.4868  -17.1393   26.2457 C   0  0  0  0  0  0  0  0  0  0  0  0
   11.7309  -18.2179   25.2602 C   0  0  0  0  0  0  0  0  0  0  0  0
   10.7438  -18.8630   24.5234 C   0  0  0  0  0  0  0  0  0  0  0  0
   11.3568  -19.7609   23.7561 N   0  0  0  0  0  0  0  0  0  0  0  0
   12.6850  -19.7371   23.9511 C   0  0  0  0  0  0  0  0  0  0  0  0
   12.8822  -18.7882   24.8718 N   0  0  0  0  0  0  0  0  0  0  0  0
    9.6935  -16.1921   27.7184 C   0  0  0  0  0  0  0  0  0  0  0  0
    9.1201  -17.0543   28.6715 O   0  0  0  0  0  0  0  0  0  0  0  0
    9.8723  -14.9964   28.0219 O   0  0  0  0  0  0  0  0  0  0  0  0
  2  1  1  6
  3  2  1  0
  3  4  1  0
  4  8  1  0
  4  5  2  0
  5  6  1  0
  7  6  1  0
  8  7  2  0
  9 10  2  0
  9  2  1  0
 11  9  1  0
 12 11  1  0
 12 13  1  1
 13 14  1  0
 14 19  1  0
 14 15  2  0
 15 16  1  0
 16 17  2  0
 18 17  1  0
 19 18  2  0
 20 12  1  0
 21 20  2  0
 22 20  1  0
 23 22  1  0
 23 24  1  1
 24 25  1  0
 25 29  1  0
 26 25  2  0
 26 27  1  0
 27 28  1  0
 29 28  2  0
 30 31  1  0
 30 23  1  0
 32 30  2  0
M  END
$$$$
