HFH.pdb
     RDKit          3D

 32 34  0  0  1  0  0  0  0  0999 V2000
    9.7317  -16.2868   18.7173 N   0  0  0  0  0  0  0  0  0  0  0  0
    8.6033  -16.2916   19.5868 C   0  0  1  0  0  0  0  0  0  0  0  0
    8.1890  -17.7450   19.8038 C   0  0  0  0  0  0  0  0  0  0  0  0
    7.6022  -18.3066   18.5541 C   0  0  0  0  0  0  0  0  0  0  0  0
    7.5089  -17.7007   17.3280 C   0  0  0  0  0  0  0  0  0  0  0  0
    6.9068  -18.5932   16.5148 N   0  0  0  0  0  0  0  0  0  0  0  0
    6.6400  -19.7073   17.2167 C   0  0  0  0  0  0  0  0  0  0  0  0
    7.0710  -19.5382   18.4932 N   0  0  0  0  0  0  0  0  0  0  0  0
    8.8817  -15.7156   20.9221 C   0  0  0  0  0  0  0  0  0  0  0  0
   10.0061  -15.8204   21.4479 O   0  0  0  0  0  0  0  0  0  0  0  0
    7.8702  -15.0409   21.6114 N   0  0  0  0  0  0  0  0  0  0  0  0
    8.0043  -14.4544   22.9394 C   0  0  1  0  0  0  0  0  0  0  0  0
    6.8067  -13.7077   23.3697 C   0  0  0  0  0  0  0  0  0  0  0  0
    6.9517  -13.2160   24.7540 C   0  0  0  0  0  0  0  0  0  0  0  0
    7.7073  -12.0753   25.0378 C   0  0  0  0  0  0  0  0  0  0  0  0
    7.8482  -11.5650   26.3074 C   0  0  0  0  0  0  0  0  0  0  0  0
    7.2269  -12.1862   27.3694 C   0  0  0  0  0  0  0  0  0  0  0  0
    6.4770  -13.3051   27.1404 C   0  0  0  0  0  0  0  0  0  0  0  0
    6.3493  -13.7989   25.8603 C   0  0  0  0  0  0  0  0  0  0  0  0
    8.2843  -15.5810   23.8522 C   0  0  0  0  0  0  0  0  0  0  0  0
    7.5354  -16.5851   23.8244 O   0  0  0  0  0  0  0  0  0  0  0  0
    9.3703  -15.5800   24.7664 N   0  0  0  0  0  0  0  0  0  0  0  0
    9.8137  -16.7763   25.4931 C   0  0  1  0  0  0  0  0  0  0  0  0
   11.1244  -17.1563   24.8960 C   0  0  0  0  0  0  0  0  0  0  0  0
   11.7687  -18.3265   25.5362 C   0  0  0  0  0  0  0  0  0  0  0  0
   11.4437  -18.8278   26.7917 C   0  0  0  0  0  0  0  0  0  0  0  0
   12.2370  -19.8738   27.0090 N   0  0  0  0  0  0  0  0  0  0  0  0
   13.0588  -20.0818   25.9679 C   0  0  0  0  0  0  0  0  0  0  0  0
   12.7502  -19.1244   25.0875 N   0  0  0  0  0  0  0  0  0  0  0  0
    9.8474  -16.4882   26.9466 C   0  0  0  0  0  0  0  0  0  0  0  0
   10.0268  -17.5720   27.8263 O   0  0  0  0  0  0  0  0  0  0  0  0
    9.7255  -15.3429   27.4229 O   0  0  0  0  0  0  0  0  0  0  0  0
  2  1  1  6
  3  2  1  0
  3  4  1  0
  4  8  1  0
  4  5  2  0
  5  6  1  0
  7  6  1  0
  8  7  2  0
  9 10  2  0
  9  2  1  0
 11  9  1  0
 12 11  1  0
 12 13  1  1
 13 14  1  0
 14 19  1  0
 14 15  2  0
 15 16  1  0
 16 17  2  0
 18 17  1  0
 19 18  2  0
 20 12  1  0
 21 20  2  0
 22 20  1  0
 23 22  1  0
 23 24  1  6
 24 25  1  0
 25 29  1  0
 26 25  2  0
 26 27  1  0
 27 28  1  0
 29 28  2  0
 30 31  1  0
 30 23  1  0
 32 30  2  0
M  END
$$$$
