HFH.pdb
     RDKit          3D

 32 34  0  0  1  0  0  0  0  0999 V2000
    9.2972  -15.4268   20.3360 N   0  0  0  0  0  0  0  0  0  0  0  0
    8.4582  -16.2474   21.1434 C   0  0  1  0  0  0  0  0  0  0  0  0
    8.5176  -17.6667   20.5838 C   0  0  0  0  0  0  0  0  0  0  0  0
    8.2001  -17.6612   19.1275 C   0  0  0  0  0  0  0  0  0  0  0  0
    7.2655  -16.8971   18.4781 C   0  0  0  0  0  0  0  0  0  0  0  0
    7.3425  -17.2395   17.1754 N   0  0  0  0  0  0  0  0  0  0  0  0
    8.2906  -18.1803   17.0303 C   0  0  0  0  0  0  0  0  0  0  0  0
    8.8329  -18.4510   18.2454 N   0  0  0  0  0  0  0  0  0  0  0  0
    8.8859  -16.3206   22.5589 C   0  0  0  0  0  0  0  0  0  0  0  0
   10.0554  -16.6220   22.8644 O   0  0  0  0  0  0  0  0  0  0  0  0
    7.9673  -16.0483   23.5764 N   0  0  0  0  0  0  0  0  0  0  0  0
    8.2544  -16.1001   25.0048 C   0  0  1  0  0  0  0  0  0  0  0  0
    7.1462  -15.5989   25.8400 C   0  0  0  0  0  0  0  0  0  0  0  0
    7.1241  -14.1231   25.8703 C   0  0  0  0  0  0  0  0  0  0  0  0
    5.9322  -13.4168   25.6878 C   0  0  0  0  0  0  0  0  0  0  0  0
    5.8588  -12.0440   25.7348 C   0  0  0  0  0  0  0  0  0  0  0  0
    6.9971  -11.3035   25.9709 C   0  0  0  0  0  0  0  0  0  0  0  0
    8.1860  -11.9508   26.1556 C   0  0  0  0  0  0  0  0  0  0  0  0
    8.2366  -13.3269   26.1046 C   0  0  0  0  0  0  0  0  0  0  0  0
    8.5491  -17.5153   25.3066 C   0  0  0  0  0  0  0  0  0  0  0  0
    8.3657  -18.3768   24.4154 O   0  0  0  0  0  0  0  0  0  0  0  0
    9.0341  -17.9490   26.5682 N   0  0  0  0  0  0  0  0  0  0  0  0
   10.2379  -18.7740   26.7291 C   0  0  1  0  0  0  0  0  0  0  0  0
   11.2942  -18.1232   25.9047 C   0  0  0  0  0  0  0  0  0  0  0  0
   11.8125  -18.9667   24.8029 C   0  0  0  0  0  0  0  0  0  0  0  0
   11.0263  -19.7152   23.9341 C   0  0  0  0  0  0  0  0  0  0  0  0
   11.8544  -20.3291   23.0927 N   0  0  0  0  0  0  0  0  0  0  0  0
   13.1333  -20.0234   23.3638 C   0  0  0  0  0  0  0  0  0  0  0  0
   13.0758  -19.1926   24.4094 N   0  0  0  0  0  0  0  0  0  0  0  0
   10.5595  -18.9045   28.1701 C   0  0  0  0  0  0  0  0  0  0  0  0
   11.2693  -20.0474   28.5831 O   0  0  0  0  0  0  0  0  0  0  0  0
   10.2346  -18.0585   29.0258 O   0  0  0  0  0  0  0  0  0  0  0  0
  2  1  1  6
  3  2  1  0
  3  4  1  0
  4  8  1  0
  4  5  2  0
  5  6  1  0
  7  6  1  0
  8  7  2  0
  9 10  2  0
  9  2  1  0
 11  9  1  0
 12 11  1  0
 12 13  1  1
 13 14  1  0
 14 19  1  0
 14 15  2  0
 15 16  1  0
 16 17  2  0
 18 17  1  0
 19 18  2  0
 20 12  1  0
 21 20  2  0
 22 20  1  0
 23 22  1  0
 23 24  1  6
 24 25  1  0
 25 29  1  0
 26 25  2  0
 26 27  1  0
 27 28  1  0
 29 28  2  0
 30 31  1  0
 30 23  1  0
 32 30  2  0
M  END
$$$$
