HFH.pdb
     RDKit          3D

 32 34  0  0  1  0  0  0  0  0999 V2000
   10.3789  -14.2627   18.7641 N   0  0  0  0  0  0  0  0  0  0  0  0
    9.4848  -15.0646   19.5300 C   0  0  1  0  0  0  0  0  0  0  0  0
    9.8130  -16.5285   19.2461 C   0  0  0  0  0  0  0  0  0  0  0  0
    9.4165  -16.8860   17.8545 C   0  0  0  0  0  0  0  0  0  0  0  0
    9.0246  -16.0369   16.8522 C   0  0  0  0  0  0  0  0  0  0  0  0
    8.7676  -16.8163   15.7813 N   0  0  0  0  0  0  0  0  0  0  0  0
    8.9937  -18.0981   16.1143 C   0  0  0  0  0  0  0  0  0  0  0  0
    9.3999  -18.1523   17.4089 N   0  0  0  0  0  0  0  0  0  0  0  0
    9.6145  -14.8662   20.9914 C   0  0  0  0  0  0  0  0  0  0  0  0
   10.7327  -14.7925   21.5354 O   0  0  0  0  0  0  0  0  0  0  0  0
    8.4667  -14.7587   21.7817 N   0  0  0  0  0  0  0  0  0  0  0  0
    8.4140  -14.1637   23.1116 C   0  0  1  0  0  0  0  0  0  0  0  0
    7.1334  -13.4890   23.3972 C   0  0  0  0  0  0  0  0  0  0  0  0
    7.0881  -12.9934   24.7870 C   0  0  0  0  0  0  0  0  0  0  0  0
    7.9070  -11.9402   25.2031 C   0  0  0  0  0  0  0  0  0  0  0  0
    7.8800  -11.4276   26.4793 C   0  0  0  0  0  0  0  0  0  0  0  0
    7.0155  -11.9569   27.4132 C   0  0  0  0  0  0  0  0  0  0  0  0
    6.1952  -12.9880   27.0521 C   0  0  0  0  0  0  0  0  0  0  0  0
    6.2387  -13.4860   25.7680 C   0  0  0  0  0  0  0  0  0  0  0  0
    8.6543  -15.2706   24.0593 C   0  0  0  0  0  0  0  0  0  0  0  0
    7.9831  -16.3226   23.9463 O   0  0  0  0  0  0  0  0  0  0  0  0
    9.6171  -15.1983   25.0999 N   0  0  0  0  0  0  0  0  0  0  0  0
    9.7750  -16.2367   26.1258 C   0  0  1  0  0  0  0  0  0  0  0  0
   10.7581  -15.6977   27.1066 C   0  0  0  0  0  0  0  0  0  0  0  0
   11.0235  -16.5924   28.2570 C   0  0  0  0  0  0  0  0  0  0  0  0
   10.5513  -16.3910   29.5492 C   0  0  0  0  0  0  0  0  0  0  0  0
   11.0003  -17.4023   30.2883 N   0  0  0  0  0  0  0  0  0  0  0  0
   11.7370  -18.2494   29.5520 C   0  0  0  0  0  0  0  0  0  0  0  0
   11.7329  -17.7300   28.3203 N   0  0  0  0  0  0  0  0  0  0  0  0
    8.4487  -16.5790   26.6919 C   0  0  0  0  0  0  0  0  0  0  0  0
    8.2059  -17.9239   27.0278 O   0  0  0  0  0  0  0  0  0  0  0  0
    7.5463  -15.7407   26.8830 O   0  0  0  0  0  0  0  0  0  0  0  0
  2  1  1  6
  3  2  1  0
  3  4  1  0
  4  8  1  0
  4  5  2  0
  5  6  1  0
  7  6  1  0
  8  7  2  0
  9 10  2  0
  9  2  1  0
 11  9  1  0
 12 11  1  0
 12 13  1  1
 13 14  1  0
 14 19  1  0
 14 15  2  0
 15 16  1  0
 16 17  2  0
 18 17  1  0
 19 18  2  0
 20 12  1  0
 21 20  2  0
 22 20  1  0
 23 22  1  0
 23 24  1  1
 24 25  1  0
 25 29  1  0
 26 25  2  0
 26 27  1  0
 27 28  1  0
 29 28  2  0
 30 31  1  0
 30 23  1  0
 32 30  2  0
M  END
$$$$
