HFH.pdb
     RDKit          3D

 32 34  0  0  1  0  0  0  0  0999 V2000
    9.1148  -15.3377   20.1170 N   0  0  0  0  0  0  0  0  0  0  0  0
    8.4898  -16.1685   21.0908 C   0  0  1  0  0  0  0  0  0  0  0  0
    8.8868  -17.6127   20.7943 C   0  0  0  0  0  0  0  0  0  0  0  0
    8.3422  -18.0371   19.4733 C   0  0  0  0  0  0  0  0  0  0  0  0
    7.1397  -18.6447   19.2205 C   0  0  0  0  0  0  0  0  0  0  0  0
    7.0899  -18.8339   17.8856 N   0  0  0  0  0  0  0  0  0  0  0  0
    8.2214  -18.3594   17.3384 C   0  0  0  0  0  0  0  0  0  0  0  0
    9.0113  -17.8589   18.3231 N   0  0  0  0  0  0  0  0  0  0  0  0
    8.9152  -15.8776   22.4788 C   0  0  0  0  0  0  0  0  0  0  0  0
   10.0697  -15.4832   22.7302 O   0  0  0  0  0  0  0  0  0  0  0  0
    8.0112  -16.0461   23.5313 N   0  0  0  0  0  0  0  0  0  0  0  0
    8.2986  -15.7856   24.9367 C   0  0  1  0  0  0  0  0  0  0  0  0
    7.0957  -15.4588   25.7261 C   0  0  0  0  0  0  0  0  0  0  0  0
    6.9903  -14.0056   25.9637 C   0  0  0  0  0  0  0  0  0  0  0  0
    7.8151  -13.3662   26.8931 C   0  0  0  0  0  0  0  0  0  0  0  0
    7.7714  -12.0116   27.1282 C   0  0  0  0  0  0  0  0  0  0  0  0
    6.8832  -11.2222   26.4299 C   0  0  0  0  0  0  0  0  0  0  0  0
    6.0566  -11.8033   25.5103 C   0  0  0  0  0  0  0  0  0  0  0  0
    6.1173  -13.1622   25.2906 C   0  0  0  0  0  0  0  0  0  0  0  0
    8.9541  -17.0062   25.4480 C   0  0  0  0  0  0  0  0  0  0  0  0
    8.3006  -18.0744   25.4884 O   0  0  0  0  0  0  0  0  0  0  0  0
   10.2999  -17.0263   25.8990 N   0  0  0  0  0  0  0  0  0  0  0  0
   10.9200  -18.1957   26.5345 C   0  0  1  0  0  0  0  0  0  0  0  0
   12.3878  -18.0422   26.3320 C   0  0  0  0  0  0  0  0  0  0  0  0
   12.8261  -18.1827   24.9241 C   0  0  0  0  0  0  0  0  0  0  0  0
   12.0857  -18.7889   23.9152 C   0  0  0  0  0  0  0  0  0  0  0  0
   12.8133  -18.7170   22.8035 N   0  0  0  0  0  0  0  0  0  0  0  0
   13.9835  -18.0995   23.0306 C   0  0  0  0  0  0  0  0  0  0  0  0
   13.9624  -17.7860   24.3299 N   0  0  0  0  0  0  0  0  0  0  0  0
   10.4880  -18.2769   27.9500 C   0  0  0  0  0  0  0  0  0  0  0  0
   10.9372  -19.3719   28.7113 O   0  0  0  0  0  0  0  0  0  0  0  0
    9.7527  -17.4298   28.4935 O   0  0  0  0  0  0  0  0  0  0  0  0
  2  1  1  6
  3  2  1  0
  3  4  1  0
  4  8  1  0
  4  5  2  0
  5  6  1  0
  7  6  1  0
  8  7  2  0
  9 10  2  0
  9  2  1  0
 11  9  1  0
 12 11  1  0
 12 13  1  1
 13 14  1  0
 14 19  1  0
 14 15  2  0
 15 16  1  0
 16 17  2  0
 18 17  1  0
 19 18  2  0
 20 12  1  0
 21 20  2  0
 22 20  1  0
 23 22  1  0
 23 24  1  1
 24 25  1  0
 25 29  1  0
 26 25  2  0
 26 27  1  0
 27 28  1  0
 29 28  2  0
 30 31  1  0
 30 23  1  0
 32 30  2  0
M  END
$$$$
