HFH.pdb
     RDKit          3D

 32 34  0  0  1  0  0  0  0  0999 V2000
    9.7954  -16.3317   19.3346 N   0  0  0  0  0  0  0  0  0  0  0  0
    9.3258  -17.0067   20.4978 C   0  0  1  0  0  0  0  0  0  0  0  0
   10.1551  -18.2776   20.6653 C   0  0  0  0  0  0  0  0  0  0  0  0
   10.1040  -19.0952   19.4201 C   0  0  0  0  0  0  0  0  0  0  0  0
    9.1632  -19.0448   18.4244 C   0  0  0  0  0  0  0  0  0  0  0  0
    9.5356  -19.9656   17.5113 N   0  0  0  0  0  0  0  0  0  0  0  0
   10.6647  -20.5601   17.9315 C   0  0  0  0  0  0  0  0  0  0  0  0
   11.0285  -20.0228   19.1243 N   0  0  0  0  0  0  0  0  0  0  0  0
    9.4808  -16.2200   21.7425 C   0  0  0  0  0  0  0  0  0  0  0  0
   10.6037  -16.0203   22.2435 O   0  0  0  0  0  0  0  0  0  0  0  0
    8.3521  -15.6887   22.3727 N   0  0  0  0  0  0  0  0  0  0  0  0
    8.3664  -14.9009   23.5994 C   0  0  1  0  0  0  0  0  0  0  0  0
    7.0930  -14.2016   23.8571 C   0  0  0  0  0  0  0  0  0  0  0  0
    7.1356  -13.4673   25.1370 C   0  0  0  0  0  0  0  0  0  0  0  0
    7.9156  -12.3169   25.2817 C   0  0  0  0  0  0  0  0  0  0  0  0
    7.9653  -11.5854   26.4456 C   0  0  0  0  0  0  0  0  0  0  0  0
    7.2220  -11.9807   27.5368 C   0  0  0  0  0  0  0  0  0  0  0  0
    6.4438  -13.0997   27.4423 C   0  0  0  0  0  0  0  0  0  0  0  0
    6.4088  -13.8175   26.2666 C   0  0  0  0  0  0  0  0  0  0  0  0
    8.6803  -15.8506   24.6858 C   0  0  0  0  0  0  0  0  0  0  0  0
    7.9348  -16.8427   24.8589 O   0  0  0  0  0  0  0  0  0  0  0  0
    9.7954  -15.6914   25.5498 N   0  0  0  0  0  0  0  0  0  0  0  0
   10.1658  -16.6724   26.5775 C   0  0  1  0  0  0  0  0  0  0  0  0
   11.5287  -17.1515   26.2146 C   0  0  0  0  0  0  0  0  0  0  0  0
   11.5422  -18.3873   25.3980 C   0  0  0  0  0  0  0  0  0  0  0  0
   10.4119  -19.0931   25.0011 C   0  0  0  0  0  0  0  0  0  0  0  0
   10.8349  -20.1339   24.2881 N   0  0  0  0  0  0  0  0  0  0  0  0
   12.1744  -20.1460   24.1983 C   0  0  0  0  0  0  0  0  0  0  0  0
   12.5764  -19.0709   24.8835 N   0  0  0  0  0  0  0  0  0  0  0  0
   10.0570  -16.0497   27.9181 C   0  0  0  0  0  0  0  0  0  0  0  0
   10.1408  -16.8926   29.0419 O   0  0  0  0  0  0  0  0  0  0  0  0
    9.8963  -14.8265   28.0964 O   0  0  0  0  0  0  0  0  0  0  0  0
  2  1  1  6
  3  2  1  0
  3  4  1  0
  4  8  1  0
  4  5  2  0
  5  6  1  0
  7  6  1  0
  8  7  2  0
  9 10  2  0
  9  2  1  0
 11  9  1  0
 12 11  1  0
 12 13  1  1
 13 14  1  0
 14 19  1  0
 14 15  2  0
 15 16  1  0
 16 17  2  0
 18 17  1  0
 19 18  2  0
 20 12  1  0
 21 20  2  0
 22 20  1  0
 23 22  1  0
 23 24  1  6
 24 25  1  0
 25 29  1  0
 26 25  2  0
 26 27  1  0
 27 28  1  0
 29 28  2  0
 30 31  1  0
 30 23  1  0
 32 30  2  0
M  END
$$$$
