HFH.pdb
     RDKit          3D

 32 34  0  0  1  0  0  0  0  0999 V2000
    8.5743  -16.0205   18.2461 N   0  0  0  0  0  0  0  0  0  0  0  0
    8.2127  -16.7264   19.4294 C   0  0  1  0  0  0  0  0  0  0  0  0
    8.9203  -18.0790   19.3990 C   0  0  0  0  0  0  0  0  0  0  0  0
    8.5271  -18.8400   18.1792 C   0  0  0  0  0  0  0  0  0  0  0  0
    7.2589  -19.1135   17.7365 C   0  0  0  0  0  0  0  0  0  0  0  0
    7.4052  -19.8246   16.5993 N   0  0  0  0  0  0  0  0  0  0  0  0
    8.7165  -19.9821   16.3528 C   0  0  0  0  0  0  0  0  0  0  0  0
    9.4266  -19.3700   17.3351 N   0  0  0  0  0  0  0  0  0  0  0  0
    8.6304  -16.0459   20.6762 C   0  0  0  0  0  0  0  0  0  0  0  0
    9.8285  -15.7894   20.9007 O   0  0  0  0  0  0  0  0  0  0  0  0
    7.6692  -15.6816   21.6233 N   0  0  0  0  0  0  0  0  0  0  0  0
    7.9371  -14.9466   22.8536 C   0  0  1  0  0  0  0  0  0  0  0  0
    6.7151  -14.4400   23.5069 C   0  0  0  0  0  0  0  0  0  0  0  0
    7.0308  -13.7615   24.7794 C   0  0  0  0  0  0  0  0  0  0  0  0
    7.4740  -12.4363   24.7984 C   0  0  0  0  0  0  0  0  0  0  0  0
    7.7540  -11.7552   25.9602 C   0  0  0  0  0  0  0  0  0  0  0  0
    7.5997  -12.3827   27.1777 C   0  0  0  0  0  0  0  0  0  0  0  0
    7.1683  -13.6787   27.2088 C   0  0  0  0  0  0  0  0  0  0  0  0
    6.8934  -14.3419   26.0327 C   0  0  0  0  0  0  0  0  0  0  0  0
    8.6609  -15.8846   23.7351 C   0  0  0  0  0  0  0  0  0  0  0  0
    8.1933  -17.0333   23.9135 O   0  0  0  0  0  0  0  0  0  0  0  0
    9.8707  -15.5436   24.3949 N   0  0  0  0  0  0  0  0  0  0  0  0
   10.7023  -16.5200   25.1095 C   0  0  1  0  0  0  0  0  0  0  0  0
   12.1077  -16.2346   24.7063 C   0  0  0  0  0  0  0  0  0  0  0  0
   13.1134  -17.1233   25.3332 C   0  0  0  0  0  0  0  0  0  0  0  0
   12.8203  -18.2761   26.0531 C   0  0  0  0  0  0  0  0  0  0  0  0
   13.9812  -18.7911   26.4502 N   0  0  0  0  0  0  0  0  0  0  0  0
   15.0120  -18.0403   26.0304 C   0  0  0  0  0  0  0  0  0  0  0  0
   14.4524  -17.0326   25.3535 N   0  0  0  0  0  0  0  0  0  0  0  0
   10.4367  -16.4255   26.5646 C   0  0  0  0  0  0  0  0  0  0  0  0
   10.6217  -17.5839   27.3420 O   0  0  0  0  0  0  0  0  0  0  0  0
   10.0607  -15.3790   27.1277 O   0  0  0  0  0  0  0  0  0  0  0  0
  2  1  1  6
  3  2  1  0
  3  4  1  0
  4  8  1  0
  4  5  2  0
  5  6  1  0
  7  6  1  0
  8  7  2  0
  9 10  2  0
  9  2  1  0
 11  9  1  0
 12 11  1  0
 12 13  1  1
 13 14  1  0
 14 19  1  0
 14 15  2  0
 15 16  1  0
 16 17  2  0
 18 17  1  0
 19 18  2  0
 20 12  1  0
 21 20  2  0
 22 20  1  0
 23 22  1  0
 23 24  1  1
 24 25  1  0
 25 29  1  0
 26 25  2  0
 26 27  1  0
 27 28  1  0
 29 28  2  0
 30 31  1  0
 30 23  1  0
 32 30  2  0
M  END
$$$$
