HFH.pdb
     RDKit          3D

 32 34  0  0  1  0  0  0  0  0999 V2000
   11.0956  -16.6318   19.8042 N   0  0  0  0  0  0  0  0  0  0  0  0
    9.7711  -16.5626   20.3239 C   0  0  1  0  0  0  0  0  0  0  0  0
    9.2001  -17.9787   20.3329 C   0  0  0  0  0  0  0  0  0  0  0  0
    8.9470  -18.4421   18.9391 C   0  0  0  0  0  0  0  0  0  0  0  0
    7.7718  -18.3771   18.2364 C   0  0  0  0  0  0  0  0  0  0  0  0
    8.0293  -18.9159   17.0266 N   0  0  0  0  0  0  0  0  0  0  0  0
    9.3168  -19.2980   16.9879 C   0  0  0  0  0  0  0  0  0  0  0  0
    9.8994  -19.0060   18.1792 N   0  0  0  0  0  0  0  0  0  0  0  0
    9.7058  -16.0594   21.7147 C   0  0  0  0  0  0  0  0  0  0  0  0
   10.6265  -16.2802   22.5243 O   0  0  0  0  0  0  0  0  0  0  0  0
    8.5948  -15.3227   22.1347 N   0  0  0  0  0  0  0  0  0  0  0  0
    8.4377  -14.7137   23.4500 C   0  0  1  0  0  0  0  0  0  0  0  0
    7.2582  -13.8327   23.5466 C   0  0  0  0  0  0  0  0  0  0  0  0
    7.1416  -13.2405   24.8938 C   0  0  0  0  0  0  0  0  0  0  0  0
    6.0930  -13.5935   25.7474 C   0  0  0  0  0  0  0  0  0  0  0  0
    5.9589  -13.0888   27.0200 C   0  0  0  0  0  0  0  0  0  0  0  0
    6.8865  -12.1913   27.5035 C   0  0  0  0  0  0  0  0  0  0  0  0
    7.9297  -11.8167   26.7047 C   0  0  0  0  0  0  0  0  0  0  0  0
    8.0447  -12.3349   25.4331 C   0  0  0  0  0  0  0  0  0  0  0  0
    8.3427  -15.8354   24.4058 C   0  0  0  0  0  0  0  0  0  0  0  0
    7.6679  -16.8438   24.0930 O   0  0  0  0  0  0  0  0  0  0  0  0
    8.9846  -15.8250   25.6719 N   0  0  0  0  0  0  0  0  0  0  0  0
    9.3202  -17.0455   26.4159 C   0  0  1  0  0  0  0  0  0  0  0  0
   10.3519  -17.7497   25.6043 C   0  0  0  0  0  0  0  0  0  0  0  0
    9.8062  -18.7660   24.6750 C   0  0  0  0  0  0  0  0  0  0  0  0
    8.4546  -18.9696   24.4203 C   0  0  0  0  0  0  0  0  0  0  0  0
    8.3712  -19.9618   23.5377 N   0  0  0  0  0  0  0  0  0  0  0  0
    9.5899  -20.4154   23.2037 C   0  0  0  0  0  0  0  0  0  0  0  0
   10.4427  -19.6683   23.9119 N   0  0  0  0  0  0  0  0  0  0  0  0
    9.7420  -16.6868   27.7907 C   0  0  0  0  0  0  0  0  0  0  0  0
   10.2289  -15.3846   28.0090 O   0  0  0  0  0  0  0  0  0  0  0  0
    9.6868  -17.4758   28.7541 O   0  0  0  0  0  0  0  0  0  0  0  0
  2  1  1  1
  3  2  1  0
  3  4  1  0
  4  8  1  0
  4  5  2  0
  5  6  1  0
  7  6  1  0
  8  7  2  0
  9 10  2  0
  9  2  1  0
 11  9  1  0
 12 11  1  0
 12 13  1  6
 13 14  1  0
 14 19  1  0
 14 15  2  0
 15 16  1  0
 16 17  2  0
 18 17  1  0
 19 18  2  0
 20 12  1  0
 21 20  2  0
 22 20  1  0
 23 22  1  0
 23 24  1  6
 24 25  1  0
 25 29  1  0
 26 25  2  0
 26 27  1  0
 27 28  1  0
 29 28  2  0
 30 31  1  0
 30 23  1  0
 32 30  2  0
M  END
$$$$
