HFH.pdb
     RDKit          3D

 32 34  0  0  1  0  0  0  0  0999 V2000
    8.1350  -16.7918   19.6564 N   0  0  0  0  0  0  0  0  0  0  0  0
    9.4617  -16.6060   20.1407 C   0  0  1  0  0  0  0  0  0  0  0  0
   10.2095  -15.7402   19.1295 C   0  0  0  0  0  0  0  0  0  0  0  0
    9.2631  -14.8182   18.4396 C   0  0  0  0  0  0  0  0  0  0  0  0
    8.9196  -13.5432   18.8076 C   0  0  0  0  0  0  0  0  0  0  0  0
    8.0370  -13.1122   17.8827 N   0  0  0  0  0  0  0  0  0  0  0  0
    7.8454  -14.0878   16.9792 C   0  0  0  0  0  0  0  0  0  0  0  0
    8.6078  -15.1591   17.3185 N   0  0  0  0  0  0  0  0  0  0  0  0
    9.5243  -15.9045   21.4430 C   0  0  0  0  0  0  0  0  0  0  0  0
   10.6161  -15.6430   21.9828 O   0  0  0  0  0  0  0  0  0  0  0  0
    8.3418  -15.5257   22.0847 N   0  0  0  0  0  0  0  0  0  0  0  0
    8.2623  -14.8864   23.3925 C   0  0  1  0  0  0  0  0  0  0  0  0
    7.0234  -14.1087   23.5861 C   0  0  0  0  0  0  0  0  0  0  0  0
    7.0080  -13.4466   24.9054 C   0  0  0  0  0  0  0  0  0  0  0  0
    7.7737  -12.3026   25.1461 C   0  0  0  0  0  0  0  0  0  0  0  0
    7.7703  -11.6369   26.3497 C   0  0  0  0  0  0  0  0  0  0  0  0
    6.9852  -12.0957   27.3855 C   0  0  0  0  0  0  0  0  0  0  0  0
    6.2191  -13.2111   27.1966 C   0  0  0  0  0  0  0  0  0  0  0  0
    6.2376  -13.8624   25.9825 C   0  0  0  0  0  0  0  0  0  0  0  0
    8.3648  -15.9774   24.3825 C   0  0  0  0  0  0  0  0  0  0  0  0
    7.7542  -17.0504   24.1684 O   0  0  0  0  0  0  0  0  0  0  0  0
    9.1283  -15.8671   25.5741 N   0  0  0  0  0  0  0  0  0  0  0  0
    9.5658  -17.0263   26.3617 C   0  0  1  0  0  0  0  0  0  0  0  0
   10.5109  -17.7802   25.4913 C   0  0  0  0  0  0  0  0  0  0  0  0
   11.0746  -18.9988   26.1169 C   0  0  0  0  0  0  0  0  0  0  0  0
   10.7389  -19.4752   27.3793 C   0  0  0  0  0  0  0  0  0  0  0  0
   11.4517  -20.5811   27.5787 N   0  0  0  0  0  0  0  0  0  0  0  0
   12.2312  -20.8514   26.5196 C   0  0  0  0  0  0  0  0  0  0  0  0
   11.9799  -19.8710   25.6464 N   0  0  0  0  0  0  0  0  0  0  0  0
   10.1342  -16.5634   27.6499 C   0  0  0  0  0  0  0  0  0  0  0  0
   10.2276  -15.1758   27.8650 O   0  0  0  0  0  0  0  0  0  0  0  0
   10.5297  -17.3369   28.5437 O   0  0  0  0  0  0  0  0  0  0  0  0
  2  1  1  6
  3  2  1  0
  3  4  1  0
  4  8  1  0
  4  5  2  0
  5  6  1  0
  7  6  1  0
  8  7  2  0
  9 10  2  0
  9  2  1  0
 11  9  1  0
 12 11  1  0
 12 13  1  6
 13 14  1  0
 14 19  1  0
 14 15  2  0
 15 16  1  0
 16 17  2  0
 18 17  1  0
 19 18  2  0
 20 12  1  0
 21 20  2  0
 22 20  1  0
 23 22  1  0
 23 24  1  6
 24 25  1  0
 25 29  1  0
 26 25  2  0
 26 27  1  0
 27 28  1  0
 29 28  2  0
 30 31  1  0
 30 23  1  0
 32 30  2  0
M  END
$$$$
