HFH.pdb
     RDKit          3D

 32 34  0  0  1  0  0  0  0  0999 V2000
    8.9264  -18.4608   18.9585 N   0  0  0  0  0  0  0  0  0  0  0  0
   10.0050  -17.5332   18.8848 C   0  0  1  0  0  0  0  0  0  0  0  0
    9.7633  -16.6334   17.6752 C   0  0  0  0  0  0  0  0  0  0  0  0
    9.7599  -17.4417   16.4229 C   0  0  0  0  0  0  0  0  0  0  0  0
   10.6317  -18.4384   16.0684 C   0  0  0  0  0  0  0  0  0  0  0  0
   10.2310  -18.8714   14.8550 N   0  0  0  0  0  0  0  0  0  0  0  0
    9.1516  -18.1657   14.4782 C   0  0  0  0  0  0  0  0  0  0  0  0
    8.8490  -17.2690   15.4519 N   0  0  0  0  0  0  0  0  0  0  0  0
   10.1091  -16.6502   20.0687 C   0  0  0  0  0  0  0  0  0  0  0  0
   10.8960  -15.6846   20.0858 O   0  0  0  0  0  0  0  0  0  0  0  0
    9.3139  -16.8978   21.1912 N   0  0  0  0  0  0  0  0  0  0  0  0
    9.3655  -16.1480   22.4404 C   0  0  1  0  0  0  0  0  0  0  0  0
    8.0573  -15.5970   22.8431 C   0  0  0  0  0  0  0  0  0  0  0  0
    7.6621  -14.4692   21.9763 C   0  0  0  0  0  0  0  0  0  0  0  0
    8.2092  -13.1961   22.1568 C   0  0  0  0  0  0  0  0  0  0  0  0
    7.8918  -12.1227   21.3573 C   0  0  0  0  0  0  0  0  0  0  0  0
    6.9955  -12.2794   20.3220 C   0  0  0  0  0  0  0  0  0  0  0  0
    6.4348  -13.5066   20.1069 C   0  0  0  0  0  0  0  0  0  0  0  0
    6.7672  -14.5682   20.9200 C   0  0  0  0  0  0  0  0  0  0  0  0
    9.8809  -17.0887   23.4553 C   0  0  0  0  0  0  0  0  0  0  0  0
    9.3637  -18.2263   23.5465 O   0  0  0  0  0  0  0  0  0  0  0  0
   10.9427  -16.7625   24.3391 N   0  0  0  0  0  0  0  0  0  0  0  0
   11.5389  -17.7254   25.2735 C   0  0  1  0  0  0  0  0  0  0  0  0
   12.9254  -17.2444   25.5288 C   0  0  0  0  0  0  0  0  0  0  0  0
   13.7344  -17.0413   24.3046 C   0  0  0  0  0  0  0  0  0  0  0  0
   13.9306  -17.9944   23.3114 C   0  0  0  0  0  0  0  0  0  0  0  0
   14.7081  -17.4366   22.3868 N   0  0  0  0  0  0  0  0  0  0  0  0
   15.0288  -16.1764   22.7209 C   0  0  0  0  0  0  0  0  0  0  0  0
   14.4217  -15.9645   23.8928 N   0  0  0  0  0  0  0  0  0  0  0  0
   10.6837  -17.8400   26.4787 C   0  0  0  0  0  0  0  0  0  0  0  0
   11.0389  -18.7979   27.4466 O   0  0  0  0  0  0  0  0  0  0  0  0
    9.6744  -17.1353   26.6743 O   0  0  0  0  0  0  0  0  0  0  0  0
  2  1  1  1
  3  2  1  0
  3  4  1  0
  4  8  1  0
  4  5  2  0
  5  6  1  0
  7  6  1  0
  8  7  2  0
  9 10  2  0
  9  2  1  0
 11  9  1  0
 12 11  1  0
 12 13  1  1
 13 14  1  0
 14 19  1  0
 14 15  2  0
 15 16  1  0
 16 17  2  0
 18 17  1  0
 19 18  2  0
 20 12  1  0
 21 20  2  0
 22 20  1  0
 23 22  1  0
 23 24  1  1
 24 25  1  0
 25 29  1  0
 26 25  2  0
 26 27  1  0
 27 28  1  0
 29 28  2  0
 30 31  1  0
 30 23  1  0
 32 30  2  0
M  END
$$$$
