HFH.pdb
     RDKit          3D

 32 34  0  0  1  0  0  0  0  0999 V2000
   10.2677  -16.4393   19.1709 N   0  0  0  0  0  0  0  0  0  0  0  0
    9.1490  -16.6152   20.0351 C   0  0  1  0  0  0  0  0  0  0  0  0
    8.9646  -18.1143   20.2586 C   0  0  0  0  0  0  0  0  0  0  0  0
    8.5582  -18.7796   18.9883 C   0  0  0  0  0  0  0  0  0  0  0  0
    9.3437  -19.5200   18.1434 C   0  0  0  0  0  0  0  0  0  0  0  0
    8.5397  -19.9126   17.1336 N   0  0  0  0  0  0  0  0  0  0  0  0
    7.3046  -19.4304   17.3508 C   0  0  0  0  0  0  0  0  0  0  0  0
    7.3057  -18.7203   18.5083 N   0  0  0  0  0  0  0  0  0  0  0  0
    9.3269  -15.9961   21.3681 C   0  0  0  0  0  0  0  0  0  0  0  0
   10.4075  -16.0850   21.9814 O   0  0  0  0  0  0  0  0  0  0  0  0
    8.2683  -15.2978   21.9558 N   0  0  0  0  0  0  0  0  0  0  0  0
    8.3051  -14.6626   23.2676 C   0  0  1  0  0  0  0  0  0  0  0  0
    7.1149  -13.8370   23.5482 C   0  0  0  0  0  0  0  0  0  0  0  0
    7.1647  -13.2727   24.9114 C   0  0  0  0  0  0  0  0  0  0  0  0
    8.0728  -12.2627   25.2401 C   0  0  0  0  0  0  0  0  0  0  0  0
    8.1370  -11.6883   26.4883 C   0  0  0  0  0  0  0  0  0  0  0  0
    7.2785  -12.1077   27.4817 C   0  0  0  0  0  0  0  0  0  0  0  0
    6.3728  -13.0930   27.2068 C   0  0  0  0  0  0  0  0  0  0  0  0
    6.3257  -13.6544   25.9493 C   0  0  0  0  0  0  0  0  0  0  0  0
    8.4316  -15.7620   24.2454 C   0  0  0  0  0  0  0  0  0  0  0  0
    7.5594  -16.6615   24.2635 O   0  0  0  0  0  0  0  0  0  0  0  0
    9.5029  -15.8486   25.1727 N   0  0  0  0  0  0  0  0  0  0  0  0
    9.7019  -16.9933   26.0704 C   0  0  1  0  0  0  0  0  0  0  0  0
   10.8465  -17.7621   25.5068 C   0  0  0  0  0  0  0  0  0  0  0  0
   11.2723  -18.9145   26.3343 C   0  0  0  0  0  0  0  0  0  0  0  0
   10.4365  -19.6501   27.1673 C   0  0  0  0  0  0  0  0  0  0  0  0
   11.1854  -20.5928   27.7339 N   0  0  0  0  0  0  0  0  0  0  0  0
   12.4594  -20.5131   27.3179 C   0  0  0  0  0  0  0  0  0  0  0  0
   12.4813  -19.4823   26.4670 N   0  0  0  0  0  0  0  0  0  0  0  0
    9.8961  -16.5069   27.4569 C   0  0  0  0  0  0  0  0  0  0  0  0
    9.5647  -17.3790   28.5106 O   0  0  0  0  0  0  0  0  0  0  0  0
   10.3347  -15.3731   27.7321 O   0  0  0  0  0  0  0  0  0  0  0  0
  2  1  1  6
  3  2  1  0
  3  4  1  0
  4  8  1  0
  4  5  2  0
  5  6  1  0
  7  6  1  0
  8  7  2  0
  9 10  2  0
  9  2  1  0
 11  9  1  0
 12 11  1  0
 12 13  1  1
 13 14  1  0
 14 19  1  0
 14 15  2  0
 15 16  1  0
 16 17  2  0
 18 17  1  0
 19 18  2  0
 20 12  1  0
 21 20  2  0
 22 20  1  0
 23 22  1  0
 23 24  1  6
 24 25  1  0
 25 29  1  0
 26 25  2  0
 26 27  1  0
 27 28  1  0
 29 28  2  0
 30 31  1  0
 30 23  1  0
 32 30  2  0
M  END
$$$$
