HFH.pdb
     RDKit          3D

 32 34  0  0  1  0  0  0  0  0999 V2000
   10.3251  -16.8131   19.5199 N   0  0  0  0  0  0  0  0  0  0  0  0
    9.1503  -16.9380   20.3159 C   0  0  1  0  0  0  0  0  0  0  0  0
    8.8548  -18.4271   20.4791 C   0  0  0  0  0  0  0  0  0  0  0  0
    8.5404  -19.0390   19.1569 C   0  0  0  0  0  0  0  0  0  0  0  0
    7.5752  -18.6514   18.2641 C   0  0  0  0  0  0  0  0  0  0  0  0
    7.6697  -19.5000   17.2196 N   0  0  0  0  0  0  0  0  0  0  0  0
    8.6577  -20.3774   17.4625 C   0  0  0  0  0  0  0  0  0  0  0  0
    9.2086  -20.0976   18.6716 N   0  0  0  0  0  0  0  0  0  0  0  0
    9.2935  -16.3721   21.6765 C   0  0  0  0  0  0  0  0  0  0  0  0
   10.3677  -16.4589   22.3012 O   0  0  0  0  0  0  0  0  0  0  0  0
    8.2087  -15.7276   22.2777 N   0  0  0  0  0  0  0  0  0  0  0  0
    8.2516  -15.0199   23.5516 C   0  0  1  0  0  0  0  0  0  0  0  0
    7.0582  -14.1872   23.7954 C   0  0  0  0  0  0  0  0  0  0  0  0
    7.1380  -13.5083   25.1038 C   0  0  0  0  0  0  0  0  0  0  0  0
    6.2443  -13.8192   26.1322 C   0  0  0  0  0  0  0  0  0  0  0  0
    6.2973  -13.2327   27.3753 C   0  0  0  0  0  0  0  0  0  0  0  0
    7.2659  -12.2911   27.6491 C   0  0  0  0  0  0  0  0  0  0  0  0
    8.1621  -11.9550   26.6742 C   0  0  0  0  0  0  0  0  0  0  0  0
    8.0908  -12.5552   25.4359 C   0  0  0  0  0  0  0  0  0  0  0  0
    8.3931  -16.0621   24.5882 C   0  0  0  0  0  0  0  0  0  0  0  0
    7.4224  -16.8180   24.8253 O   0  0  0  0  0  0  0  0  0  0  0  0
    9.5861  -16.2493   25.3344 N   0  0  0  0  0  0  0  0  0  0  0  0
    9.6866  -17.1643   26.4782 C   0  0  1  0  0  0  0  0  0  0  0  0
   10.7938  -18.1065   26.1535 C   0  0  0  0  0  0  0  0  0  0  0  0
   10.4165  -19.1892   25.2156 C   0  0  0  0  0  0  0  0  0  0  0  0
    9.1606  -19.3430   24.6391 C   0  0  0  0  0  0  0  0  0  0  0  0
    9.2193  -20.4229   23.8639 N   0  0  0  0  0  0  0  0  0  0  0  0
   10.4401  -20.9802   23.9028 C   0  0  0  0  0  0  0  0  0  0  0  0
   11.1465  -20.2071   24.7336 N   0  0  0  0  0  0  0  0  0  0  0  0
    9.8746  -16.3819   27.7229 C   0  0  0  0  0  0  0  0  0  0  0  0
    9.6421  -17.0329   28.9487 O   0  0  0  0  0  0  0  0  0  0  0  0
   10.2256  -15.1859   27.7361 O   0  0  0  0  0  0  0  0  0  0  0  0
  2  1  1  6
  3  2  1  0
  3  4  1  0
  4  8  1  0
  4  5  2  0
  5  6  1  0
  7  6  1  0
  8  7  2  0
  9 10  2  0
  9  2  1  0
 11  9  1  0
 12 11  1  0
 12 13  1  1
 13 14  1  0
 14 19  1  0
 14 15  2  0
 15 16  1  0
 16 17  2  0
 18 17  1  0
 19 18  2  0
 20 12  1  0
 21 20  2  0
 22 20  1  0
 23 22  1  0
 23 24  1  6
 24 25  1  0
 25 29  1  0
 26 25  2  0
 26 27  1  0
 27 28  1  0
 29 28  2  0
 30 31  1  0
 30 23  1  0
 32 30  2  0
M  END
$$$$
