HFH.pdb
     RDKit          3D

 32 34  0  0  1  0  0  0  0  0999 V2000
   10.3254  -16.9974   19.2535 N   0  0  0  0  0  0  0  0  0  0  0  0
    9.3998  -17.3514   20.2768 C   0  0  1  0  0  0  0  0  0  0  0  0
    9.6544  -18.8097   20.6507 C   0  0  0  0  0  0  0  0  0  0  0  0
    9.4223  -19.6928   19.4726 C   0  0  0  0  0  0  0  0  0  0  0  0
   10.3646  -20.3080   18.6899 C   0  0  0  0  0  0  0  0  0  0  0  0
    9.6803  -20.9968   17.7531 N   0  0  0  0  0  0  0  0  0  0  0  0
    8.3649  -20.8110   17.9535 C   0  0  0  0  0  0  0  0  0  0  0  0
    8.1930  -19.9969   19.0266 N   0  0  0  0  0  0  0  0  0  0  0  0
    9.5509  -16.5532   21.5146 C   0  0  0  0  0  0  0  0  0  0  0  0
   10.6659  -16.3930   22.0465 O   0  0  0  0  0  0  0  0  0  0  0  0
    8.4275  -15.9656   22.1029 N   0  0  0  0  0  0  0  0  0  0  0  0
    8.4397  -15.1547   23.3144 C   0  0  1  0  0  0  0  0  0  0  0  0
    7.1991  -14.3801   23.5091 C   0  0  0  0  0  0  0  0  0  0  0  0
    7.2542  -13.5852   24.7518 C   0  0  0  0  0  0  0  0  0  0  0  0
    8.0889  -12.4694   24.8566 C   0  0  0  0  0  0  0  0  0  0  0  0
    8.1533  -11.6835   25.9837 C   0  0  0  0  0  0  0  0  0  0  0  0
    7.3699  -11.9858   27.0767 C   0  0  0  0  0  0  0  0  0  0  0  0
    6.5376  -13.0679   27.0204 C   0  0  0  0  0  0  0  0  0  0  0  0
    6.4889  -13.8414   25.8811 C   0  0  0  0  0  0  0  0  0  0  0  0
    8.6579  -16.0977   24.4297 C   0  0  0  0  0  0  0  0  0  0  0  0
    7.8005  -16.9842   24.6513 O   0  0  0  0  0  0  0  0  0  0  0  0
    9.8017  -16.0469   25.2688 N   0  0  0  0  0  0  0  0  0  0  0  0
   10.0379  -16.9910   26.3682 C   0  0  1  0  0  0  0  0  0  0  0  0
   11.5044  -17.2521   26.3764 C   0  0  0  0  0  0  0  0  0  0  0  0
   11.9650  -18.1721   25.3107 C   0  0  0  0  0  0  0  0  0  0  0  0
   11.1337  -18.8297   24.4108 C   0  0  0  0  0  0  0  0  0  0  0  0
   11.9175  -19.5566   23.6186 N   0  0  0  0  0  0  0  0  0  0  0  0
   13.2100  -19.4101   23.9509 C   0  0  0  0  0  0  0  0  0  0  0  0
   13.2072  -18.5617   24.9839 N   0  0  0  0  0  0  0  0  0  0  0  0
    9.4944  -16.4300   27.6277 C   0  0  0  0  0  0  0  0  0  0  0  0
   10.0229  -15.2079   28.0836 O   0  0  0  0  0  0  0  0  0  0  0  0
    8.5999  -16.9833   28.2966 O   0  0  0  0  0  0  0  0  0  0  0  0
  2  1  1  6
  3  2  1  0
  3  4  1  0
  4  8  1  0
  4  5  2  0
  5  6  1  0
  7  6  1  0
  8  7  2  0
  9 10  2  0
  9  2  1  0
 11  9  1  0
 12 11  1  0
 12 13  1  1
 13 14  1  0
 14 19  1  0
 14 15  2  0
 15 16  1  0
 16 17  2  0
 18 17  1  0
 19 18  2  0
 20 12  1  0
 21 20  2  0
 22 20  1  0
 23 22  1  0
 23 24  1  1
 24 25  1  0
 25 29  1  0
 26 25  2  0
 26 27  1  0
 27 28  1  0
 29 28  2  0
 30 31  1  0
 30 23  1  0
 32 30  2  0
M  END
$$$$
