HFH.pdb
     RDKit          3D

 32 34  0  0  1  0  0  0  0  0999 V2000
   10.3052  -16.7052   19.2671 N   0  0  0  0  0  0  0  0  0  0  0  0
    9.1740  -16.8218   20.1250 C   0  0  1  0  0  0  0  0  0  0  0  0
    8.9127  -18.3090   20.3513 C   0  0  0  0  0  0  0  0  0  0  0  0
    8.5143  -18.9635   19.0728 C   0  0  0  0  0  0  0  0  0  0  0  0
    7.3395  -18.8074   18.3839 C   0  0  0  0  0  0  0  0  0  0  0  0
    7.4373  -19.5973   17.2945 N   0  0  0  0  0  0  0  0  0  0  0  0
    8.6295  -20.2163   17.3140 C   0  0  0  0  0  0  0  0  0  0  0  0
    9.3107  -19.8266   18.4223 N   0  0  0  0  0  0  0  0  0  0  0  0
    9.3753  -16.2088   21.4576 C   0  0  0  0  0  0  0  0  0  0  0  0
   10.4673  -16.2983   22.0503 O   0  0  0  0  0  0  0  0  0  0  0  0
    8.3264  -15.5157   22.0682 N   0  0  0  0  0  0  0  0  0  0  0  0
    8.4142  -14.8062   23.3388 C   0  0  1  0  0  0  0  0  0  0  0  0
    7.2316  -13.9707   23.6220 C   0  0  0  0  0  0  0  0  0  0  0  0
    7.3641  -13.2782   24.9190 C   0  0  0  0  0  0  0  0  0  0  0  0
    8.2377  -12.1984   25.0729 C   0  0  0  0  0  0  0  0  0  0  0  0
    8.3743  -11.5060   26.2536 C   0  0  0  0  0  0  0  0  0  0  0  0
    7.6280  -11.8710   27.3535 C   0  0  0  0  0  0  0  0  0  0  0  0
    6.7600  -12.9210   27.2504 C   0  0  0  0  0  0  0  0  0  0  0  0
    6.6389  -13.6005   26.0578 C   0  0  0  0  0  0  0  0  0  0  0  0
    8.5889  -15.8472   24.3716 C   0  0  0  0  0  0  0  0  0  0  0  0
    7.7371  -16.7617   24.4616 O   0  0  0  0  0  0  0  0  0  0  0  0
    9.6847  -15.8608   25.2739 N   0  0  0  0  0  0  0  0  0  0  0  0
    9.9597  -16.9732   26.1918 C   0  0  1  0  0  0  0  0  0  0  0  0
   11.3816  -17.3528   25.9615 C   0  0  0  0  0  0  0  0  0  0  0  0
   11.6207  -18.0751   24.6905 C   0  0  0  0  0  0  0  0  0  0  0  0
   12.8494  -18.1706   24.0467 C   0  0  0  0  0  0  0  0  0  0  0  0
   12.6558  -18.8936   22.9466 N   0  0  0  0  0  0  0  0  0  0  0  0
   11.3728  -19.2739   22.8376 C   0  0  0  0  0  0  0  0  0  0  0  0
   10.7677  -18.7607   23.9135 N   0  0  0  0  0  0  0  0  0  0  0  0
    9.6379  -16.5615   27.5788 C   0  0  0  0  0  0  0  0  0  0  0  0
    9.3360  -17.5725   28.5101 O   0  0  0  0  0  0  0  0  0  0  0  0
    9.6221  -15.3738   27.9566 O   0  0  0  0  0  0  0  0  0  0  0  0
  2  1  1  6
  3  2  1  0
  3  4  1  0
  4  8  1  0
  4  5  2  0
  5  6  1  0
  7  6  1  0
  8  7  2  0
  9 10  2  0
  9  2  1  0
 11  9  1  0
 12 11  1  0
 12 13  1  1
 13 14  1  0
 14 19  1  0
 14 15  2  0
 15 16  1  0
 16 17  2  0
 18 17  1  0
 19 18  2  0
 20 12  1  0
 21 20  2  0
 22 20  1  0
 23 22  1  0
 23 24  1  1
 24 25  1  0
 25 29  1  0
 26 25  2  0
 26 27  1  0
 27 28  1  0
 29 28  2  0
 30 31  1  0
 30 23  1  0
 32 30  2  0
M  END
$$$$
