DPC.pdb
     RDKit          3D

 22 22  0  0  1  0  0  0  0  0999 V2000
   10.5267  -16.1605   15.9352 N   0  0  0  0  0  0  0  0  0  0  0  0
    9.3750  -15.7797   16.7292 C   0  0  1  0  0  0  0  0  0  0  0  0
    8.2773  -16.8342   16.6275 C   0  0  0  0  0  0  0  0  0  0  0  0
    7.9579  -17.0200   15.1990 C   0  0  0  0  0  0  0  0  0  0  0  0
    8.5110  -16.2739   14.3441 O   0  0  0  0  0  0  0  0  0  0  0  0
    9.6486  -15.3769   18.0991 C   0  0  0  0  0  0  0  0  0  0  0  0
   10.5183  -16.0936   18.7267 O   0  0  0  0  0  0  0  0  0  0  0  0
    7.0599  -18.0103   14.8223 O   0  0  0  0  0  0  0  0  0  0  0  0
    9.0645  -14.2944   18.8080 N   0  0  0  0  0  0  0  0  0  0  0  0
    8.6823  -13.0754   18.1208 C   0  0  0  0  0  0  0  0  0  0  0  0
    7.4893  -12.5860   18.8958 C   0  0  0  0  0  0  0  0  0  0  0  0
    7.4124  -13.3893   20.1438 C   0  0  0  0  0  0  0  0  0  0  0  0
    8.8302  -14.0293   20.1874 C   0  0  1  0  0  0  0  0  0  0  0  0
    8.8047  -15.1300   21.1311 C   0  0  0  0  0  0  0  0  0  0  0  0
    8.0589  -16.1005   21.0232 O   0  0  0  0  0  0  0  0  0  0  0  0
    9.6738  -15.1197   22.2553 N   0  0  0  0  0  0  0  0  0  0  0  0
    9.6892  -16.1852   23.2337 C   0  0  1  0  0  0  0  0  0  0  0  0
   11.0937  -16.4080   23.7228 C   0  0  0  0  0  0  0  0  0  0  0  0
   12.1597  -16.6580   22.2716 S   0  0  0  0  0  0  0  0  0  0  0  0
    8.8490  -15.8615   24.4275 C   0  0  0  0  0  0  0  0  0  0  0  0
    8.3476  -14.7441   24.5260 O   0  0  0  0  0  0  0  0  0  0  0  0
    8.6682  -16.8494   25.3897 O   0  0  0  0  0  0  0  0  0  0  0  0
  2  3  1  0
  2  1  1  1
  3  4  1  0
  4  8  1  0
  5  4  2  0
  6  2  1  0
  7  6  2  0
  9  6  1  0
  9 13  1  0
 10  9  1  0
 11 10  1  0
 11 12  1  0
 12 13  1  0
 13 14  1  1
 14 16  1  0
 14 15  2  0
 16 17  1  0
 17 20  1  0
 17 18  1  1
 19 18  1  0
 20 22  1  0
 21 20  2  0
M  END
$$$$
