DPC.pdb
     RDKit          3D

 22 22  0  0  1  0  0  0  0  0999 V2000
   12.5160  -16.7663   20.1231 N   0  0  0  0  0  0  0  0  0  0  0  0
   11.7445  -17.4255   21.1585 C   0  0  1  0  0  0  0  0  0  0  0  0
   12.5044  -18.6248   21.7163 C   0  0  0  0  0  0  0  0  0  0  0  0
   12.9479  -19.4507   20.5769 C   0  0  0  0  0  0  0  0  0  0  0  0
   14.1628  -19.7836   20.4960 O   0  0  0  0  0  0  0  0  0  0  0  0
   11.2030  -16.5646   22.1974 C   0  0  0  0  0  0  0  0  0  0  0  0
   12.0715  -15.8788   22.8604 O   0  0  0  0  0  0  0  0  0  0  0  0
   12.0234  -19.8476   19.6193 O   0  0  0  0  0  0  0  0  0  0  0  0
    9.8383  -16.4049   22.5546 N   0  0  0  0  0  0  0  0  0  0  0  0
    8.7880  -16.5599   21.5661 C   0  0  0  0  0  0  0  0  0  0  0  0
    7.6297  -17.1050   22.3563 C   0  0  0  0  0  0  0  0  0  0  0  0
    7.9772  -16.9781   23.7958 C   0  0  0  0  0  0  0  0  0  0  0  0
    9.1707  -15.9812   23.7389 C   0  0  1  0  0  0  0  0  0  0  0  0
    9.8690  -16.0332   25.0089 C   0  0  0  0  0  0  0  0  0  0  0  0
   10.6589  -16.9234   25.3141 O   0  0  0  0  0  0  0  0  0  0  0  0
    9.6518  -15.0177   25.9789 N   0  0  0  0  0  0  0  0  0  0  0  0
   10.3031  -15.0267   27.2705 C   0  0  1  0  0  0  0  0  0  0  0  0
    9.8766  -13.8232   28.0650 C   0  0  0  0  0  0  0  0  0  0  0  0
   10.7308  -13.8787   29.6688 S   0  0  0  0  0  0  0  0  0  0  0  0
    9.9434  -16.2376   28.0707 C   0  0  0  0  0  0  0  0  0  0  0  0
    8.7903  -16.6607   28.0374 O   0  0  0  0  0  0  0  0  0  0  0  0
   10.9397  -16.8420   28.8298 O   0  0  0  0  0  0  0  0  0  0  0  0
  2  3  1  0
  2  1  1  6
  3  4  1  0
  4  8  1  0
  5  4  2  0
  6  2  1  0
  7  6  2  0
  9  6  1  0
  9 13  1  0
 10  9  1  0
 11 10  1  0
 11 12  1  0
 12 13  1  0
 13 14  1  1
 14 16  1  0
 14 15  2  0
 16 17  1  0
 17 20  1  0
 17 18  1  1
 19 18  1  0
 20 22  1  0
 21 20  2  0
M  END
$$$$
