DPC.pdb
     RDKit          3D

 22 22  0  0  1  0  0  0  0  0999 V2000
    8.5393  -17.3236   17.2217 N   0  0  0  0  0  0  0  0  0  0  0  0
    7.9980  -17.5510   18.5473 C   0  0  1  0  0  0  0  0  0  0  0  0
    7.6850  -19.0294   18.7557 C   0  0  0  0  0  0  0  0  0  0  0  0
    6.8309  -19.4742   17.6377 C   0  0  0  0  0  0  0  0  0  0  0  0
    5.9062  -18.7165   17.2324 O   0  0  0  0  0  0  0  0  0  0  0  0
    8.7446  -16.9689   19.6506 C   0  0  0  0  0  0  0  0  0  0  0  0
    9.6925  -17.7016   20.1289 O   0  0  0  0  0  0  0  0  0  0  0  0
    7.0608  -20.7125   17.0522 O   0  0  0  0  0  0  0  0  0  0  0  0
    8.5400  -15.6979   20.2491 N   0  0  0  0  0  0  0  0  0  0  0  0
    7.9131  -14.6195   19.5086 C   0  0  0  0  0  0  0  0  0  0  0  0
    7.1810  -13.8375   20.5649 C   0  0  0  0  0  0  0  0  0  0  0  0
    7.6431  -14.3379   21.8858 C   0  0  0  0  0  0  0  0  0  0  0  0
    8.9310  -15.1158   21.4885 C   0  0  1  0  0  0  0  0  0  0  0  0
    9.3035  -15.9762   22.5949 C   0  0  0  0  0  0  0  0  0  0  0  0
    8.5247  -16.7509   23.1452 O   0  0  0  0  0  0  0  0  0  0  0  0
   10.6321  -15.9480   23.0981 N   0  0  0  0  0  0  0  0  0  0  0  0
   11.0743  -16.8140   24.1692 C   0  0  1  0  0  0  0  0  0  0  0  0
   11.7672  -18.0197   23.5966 C   0  0  0  0  0  0  0  0  0  0  0  0
   13.1059  -17.4357   22.5143 S   0  0  0  0  0  0  0  0  0  0  0  0
   12.0476  -16.1310   25.0759 C   0  0  0  0  0  0  0  0  0  0  0  0
   12.4596  -15.0110   24.7834 O   0  0  0  0  0  0  0  0  0  0  0  0
   12.4528  -16.7996   26.2262 O   0  0  0  0  0  0  0  0  0  0  0  0
  2  3  1  0
  2  1  1  6
  3  4  1  0
  4  8  1  0
  5  4  2  0
  6  2  1  0
  7  6  2  0
  9  6  1  0
  9 13  1  0
 10  9  1  0
 11 10  1  0
 11 12  1  0
 12 13  1  0
 13 14  1  1
 14 16  1  0
 14 15  2  0
 16 17  1  0
 17 20  1  0
 17 18  1  6
 19 18  1  0
 20 22  1  0
 21 20  2  0
M  END
$$$$
