DPC.pdb
     RDKit          3D

 22 22  0  0  1  0  0  0  0  0999 V2000
    9.1787  -17.8816   17.9710 N   0  0  0  0  0  0  0  0  0  0  0  0
    8.3626  -17.4277   19.0800 C   0  0  1  0  0  0  0  0  0  0  0  0
    7.4199  -18.5336   19.5440 C   0  0  0  0  0  0  0  0  0  0  0  0
    6.6935  -19.0360   18.3621 C   0  0  0  0  0  0  0  0  0  0  0  0
    6.3689  -18.2253   17.4506 O   0  0  0  0  0  0  0  0  0  0  0  0
    9.0731  -16.7914   20.1773 C   0  0  0  0  0  0  0  0  0  0  0  0
   10.2488  -17.2608   20.4256 O   0  0  0  0  0  0  0  0  0  0  0  0
    6.3838  -20.3870   18.2730 O   0  0  0  0  0  0  0  0  0  0  0  0
    8.6130  -15.7248   20.9935 N   0  0  0  0  0  0  0  0  0  0  0  0
    7.8487  -14.6303   20.4258 C   0  0  0  0  0  0  0  0  0  0  0  0
    6.9306  -14.2166   21.5434 C   0  0  0  0  0  0  0  0  0  0  0  0
    7.3975  -14.9024   22.7765 C   0  0  0  0  0  0  0  0  0  0  0  0
    8.8232  -15.3612   22.3542 C   0  0  1  0  0  0  0  0  0  0  0  0
    9.2780  -16.3635   23.2984 C   0  0  0  0  0  0  0  0  0  0  0  0
    8.6790  -17.4141   23.5152 O   0  0  0  0  0  0  0  0  0  0  0  0
   10.4763  -16.1532   24.0326 N   0  0  0  0  0  0  0  0  0  0  0  0
   10.9884  -17.1231   24.9759 C   0  0  1  0  0  0  0  0  0  0  0  0
   12.4608  -16.9011   25.1867 C   0  0  0  0  0  0  0  0  0  0  0  0
   13.2454  -16.7560   23.5533 S   0  0  0  0  0  0  0  0  0  0  0  0
   10.3261  -17.0091   26.3116 C   0  0  0  0  0  0  0  0  0  0  0  0
    9.5365  -16.0901   26.5159 O   0  0  0  0  0  0  0  0  0  0  0  0
   10.6353  -17.9581   27.2802 O   0  0  0  0  0  0  0  0  0  0  0  0
  2  3  1  0
  2  1  1  6
  3  4  1  0
  4  8  1  0
  5  4  2  0
  6  2  1  0
  7  6  2  0
  9  6  1  0
  9 13  1  0
 10  9  1  0
 11 10  1  0
 11 12  1  0
 12 13  1  0
 13 14  1  1
 14 16  1  0
 14 15  2  0
 16 17  1  0
 17 20  1  0
 17 18  1  1
 19 18  1  0
 20 22  1  0
 21 20  2  0
M  END
$$$$
