DPC.pdb
     RDKit          3D

 22 22  0  0  1  0  0  0  0  0999 V2000
    8.1682  -14.1560   21.1181 N   0  0  0  0  0  0  0  0  0  0  0  0
    7.3697  -14.0178   22.3202 C   0  0  1  0  0  0  0  0  0  0  0  0
    6.1893  -14.9839   22.2976 C   0  0  0  0  0  0  0  0  0  0  0  0
    6.7173  -16.3394   22.0511 C   0  0  0  0  0  0  0  0  0  0  0  0
    6.9529  -16.7001   20.8645 O   0  0  0  0  0  0  0  0  0  0  0  0
    8.0989  -14.0434   23.5777 C   0  0  0  0  0  0  0  0  0  0  0  0
    9.1459  -14.7967   23.5986 O   0  0  0  0  0  0  0  0  0  0  0  0
    6.9472  -17.1896   23.1250 O   0  0  0  0  0  0  0  0  0  0  0  0
    7.7814  -13.3381   24.7682 N   0  0  0  0  0  0  0  0  0  0  0  0
    7.0728  -12.0733   24.7166 C   0  0  0  0  0  0  0  0  0  0  0  0
    6.2666  -12.0621   25.9867 C   0  0  0  0  0  0  0  0  0  0  0  0
    6.7560  -13.1825   26.8316 C   0  0  0  0  0  0  0  0  0  0  0  0
    8.1091  -13.5217   26.1418 C   0  0  1  0  0  0  0  0  0  0  0  0
    8.5420  -14.8263   26.6038 C   0  0  0  0  0  0  0  0  0  0  0  0
    7.8709  -15.8481   26.4800 O   0  0  0  0  0  0  0  0  0  0  0  0
    9.8041  -14.9695   27.2408 N   0  0  0  0  0  0  0  0  0  0  0  0
   10.2871  -16.2432   27.7279 C   0  0  1  0  0  0  0  0  0  0  0  0
   11.7099  -16.4511   27.2877 C   0  0  0  0  0  0  0  0  0  0  0  0
   12.6576  -14.9653   27.7337 S   0  0  0  0  0  0  0  0  0  0  0  0
   10.2690  -16.3148   29.2214 C   0  0  0  0  0  0  0  0  0  0  0  0
   10.0108  -15.3036   29.8698 O   0  0  0  0  0  0  0  0  0  0  0  0
   10.5500  -17.5370   29.8229 O   0  0  0  0  0  0  0  0  0  0  0  0
  2  3  1  0
  2  1  1  6
  3  4  1  0
  4  8  1  0
  5  4  2  0
  6  2  1  0
  7  6  2  0
  9  6  1  0
  9 13  1  0
 10  9  1  0
 11 10  1  0
 11 12  1  0
 12 13  1  0
 13 14  1  6
 14 16  1  0
 14 15  2  0
 16 17  1  0
 17 20  1  0
 17 18  1  1
 19 18  1  0
 20 22  1  0
 21 20  2  0
M  END
$$$$
