DPC.pdb
     RDKit          3D

 22 22  0  0  1  0  0  0  0  0999 V2000
    9.0982  -17.4515   16.8369 N   0  0  0  0  0  0  0  0  0  0  0  0
    8.3089  -17.3544   18.0491 C   0  0  1  0  0  0  0  0  0  0  0  0
    7.6621  -18.6956   18.3805 C   0  0  0  0  0  0  0  0  0  0  0  0
    7.0499  -19.2214   17.1452 C   0  0  0  0  0  0  0  0  0  0  0  0
    6.2749  -18.4795   16.4802 O   0  0  0  0  0  0  0  0  0  0  0  0
    8.9675  -16.7449   19.1930 C   0  0  0  0  0  0  0  0  0  0  0  0
   10.1968  -17.0902   19.3765 O   0  0  0  0  0  0  0  0  0  0  0  0
    7.3385  -20.5172   16.7369 O   0  0  0  0  0  0  0  0  0  0  0  0
    8.4056  -15.8251   20.1170 N   0  0  0  0  0  0  0  0  0  0  0  0
    7.5387  -14.7533   19.6652 C   0  0  0  0  0  0  0  0  0  0  0  0
    6.5843  -14.5569   20.8115 C   0  0  0  0  0  0  0  0  0  0  0  0
    7.1152  -15.3272   21.9663 C   0  0  0  0  0  0  0  0  0  0  0  0
    8.5789  -15.5963   21.5118 C   0  0  1  0  0  0  0  0  0  0  0  0
    9.1287  -16.6487   22.3444 C   0  0  0  0  0  0  0  0  0  0  0  0
    8.6208  -17.7619   22.4563 O   0  0  0  0  0  0  0  0  0  0  0  0
   10.3173  -16.4160   23.0876 N   0  0  0  0  0  0  0  0  0  0  0  0
   10.9329  -17.4378   23.9060 C   0  0  1  0  0  0  0  0  0  0  0  0
   12.3763  -17.0940   24.1507 C   0  0  0  0  0  0  0  0  0  0  0  0
   12.4377  -15.4500   24.9242 S   0  0  0  0  0  0  0  0  0  0  0  0
   10.2722  -17.5586   25.2420 C   0  0  0  0  0  0  0  0  0  0  0  0
    9.4732  -16.6961   25.5990 O   0  0  0  0  0  0  0  0  0  0  0  0
   10.5938  -18.6543   26.0361 O   0  0  0  0  0  0  0  0  0  0  0  0
  2  3  1  0
  2  1  1  6
  3  4  1  0
  4  8  1  0
  5  4  2  0
  6  2  1  0
  7  6  2  0
  9  6  1  0
  9 13  1  0
 10  9  1  0
 11 10  1  0
 11 12  1  0
 12 13  1  0
 13 14  1  1
 14 16  1  0
 14 15  2  0
 16 17  1  0
 17 20  1  0
 17 18  1  1
 19 18  1  0
 20 22  1  0
 21 20  2  0
M  END
$$$$
