DPC.pdb
     RDKit          3D

 22 22  0  0  1  0  0  0  0  0999 V2000
    9.0918  -16.7291   16.8758 N   0  0  0  0  0  0  0  0  0  0  0  0
    8.4747  -17.1993   18.1006 C   0  0  1  0  0  0  0  0  0  0  0  0
    8.3344  -18.7182   18.0852 C   0  0  0  0  0  0  0  0  0  0  0  0
    7.7411  -19.1058   16.7910 C   0  0  0  0  0  0  0  0  0  0  0  0
    8.4909  -19.5625   15.8841 O   0  0  0  0  0  0  0  0  0  0  0  0
    9.0472  -16.6957   19.3384 C   0  0  0  0  0  0  0  0  0  0  0  0
   10.2135  -17.1570   19.6402 O   0  0  0  0  0  0  0  0  0  0  0  0
    6.3732  -18.9640   16.5960 O   0  0  0  0  0  0  0  0  0  0  0  0
    8.4635  -15.7649   20.2375 N   0  0  0  0  0  0  0  0  0  0  0  0
    7.6016  -14.7033   19.7530 C   0  0  0  0  0  0  0  0  0  0  0  0
    6.6238  -14.4943   20.8771 C   0  0  0  0  0  0  0  0  0  0  0  0
    7.1346  -15.2456   22.0534 C   0  0  0  0  0  0  0  0  0  0  0  0
    8.6081  -15.5152   21.6320 C   0  0  1  0  0  0  0  0  0  0  0  0
    9.1452  -16.5531   22.4907 C   0  0  0  0  0  0  0  0  0  0  0  0
    8.6616  -17.6790   22.5798 O   0  0  0  0  0  0  0  0  0  0  0  0
   10.2913  -16.2898   23.2885 N   0  0  0  0  0  0  0  0  0  0  0  0
   10.9047  -17.3004   24.1223 C   0  0  1  0  0  0  0  0  0  0  0  0
   12.3839  -17.3519   23.8561 C   0  0  0  0  0  0  0  0  0  0  0  0
   13.0527  -15.6766   24.0818 S   0  0  0  0  0  0  0  0  0  0  0  0
   10.7250  -17.0101   25.5781 C   0  0  0  0  0  0  0  0  0  0  0  0
   10.1879  -15.9595   25.9209 O   0  0  0  0  0  0  0  0  0  0  0  0
   11.1796  -17.9513   26.4956 O   0  0  0  0  0  0  0  0  0  0  0  0
  2  3  1  0
  2  1  1  6
  3  4  1  0
  4  8  1  0
  5  4  2  0
  6  2  1  0
  7  6  2  0
  9  6  1  0
  9 13  1  0
 10  9  1  0
 11 10  1  0
 11 12  1  0
 12 13  1  0
 13 14  1  1
 14 16  1  0
 14 15  2  0
 16 17  1  0
 17 20  1  0
 17 18  1  1
 19 18  1  0
 20 22  1  0
 21 20  2  0
M  END
$$$$
