DPC.pdb
     RDKit          3D

 22 22  0  0  1  0  0  0  0  0999 V2000
   11.4205  -17.6987   20.6922 N   0  0  0  0  0  0  0  0  0  0  0  0
   10.1845  -17.6025   21.4438 C   0  0  1  0  0  0  0  0  0  0  0  0
   10.0855  -18.7306   22.4659 C   0  0  0  0  0  0  0  0  0  0  0  0
   10.4100  -19.9952   21.7784 C   0  0  0  0  0  0  0  0  0  0  0  0
    9.4827  -20.6481   21.2242 O   0  0  0  0  0  0  0  0  0  0  0  0
    9.8803  -16.2979   22.0087 C   0  0  0  0  0  0  0  0  0  0  0  0
   10.6579  -15.9092   22.9618 O   0  0  0  0  0  0  0  0  0  0  0  0
   11.7251  -20.4411   21.7514 O   0  0  0  0  0  0  0  0  0  0  0  0
    8.8304  -15.4215   21.6278 N   0  0  0  0  0  0  0  0  0  0  0  0
    8.4110  -15.3214   20.2427 C   0  0  0  0  0  0  0  0  0  0  0  0
    6.9407  -15.0167   20.3344 C   0  0  0  0  0  0  0  0  0  0  0  0
    6.6450  -14.6858   21.7528 C   0  0  0  0  0  0  0  0  0  0  0  0
    8.0733  -14.4303   22.3150 C   0  0  1  0  0  0  0  0  0  0  0  0
    8.0056  -14.4612   23.7633 C   0  0  0  0  0  0  0  0  0  0  0  0
    7.4389  -15.3475   24.3982 O   0  0  0  0  0  0  0  0  0  0  0  0
    8.6143  -13.4263   24.5233 N   0  0  0  0  0  0  0  0  0  0  0  0
    8.0646  -12.9586   25.7770 C   0  0  1  0  0  0  0  0  0  0  0  0
    6.6971  -12.3761   25.5483 C   0  0  0  0  0  0  0  0  0  0  0  0
    6.0854  -11.7407   27.1379 S   0  0  0  0  0  0  0  0  0  0  0  0
    7.9154  -14.0659   26.7708 C   0  0  0  0  0  0  0  0  0  0  0  0
    7.6876  -15.2057   26.3728 O   0  0  0  0  0  0  0  0  0  0  0  0
    8.0407  -13.7567   28.1210 O   0  0  0  0  0  0  0  0  0  0  0  0
  2  3  1  0
  2  1  1  1
  3  4  1  0
  4  8  1  0
  5  4  2  0
  6  2  1  0
  7  6  2  0
  9  6  1  0
  9 13  1  0
 10  9  1  0
 11 10  1  0
 11 12  1  0
 12 13  1  0
 13 14  1  1
 14 16  1  0
 14 15  2  0
 16 17  1  0
 17 20  1  0
 17 18  1  6
 19 18  1  0
 20 22  1  0
 21 20  2  0
M  END
$$$$
