DPC.pdb
     RDKit          3D

 22 22  0  0  1  0  0  0  0  0999 V2000
   10.7712  -16.9596   19.2547 N   0  0  0  0  0  0  0  0  0  0  0  0
    9.6688  -17.0095   20.1950 C   0  0  1  0  0  0  0  0  0  0  0  0
    9.3503  -18.4517   20.5767 C   0  0  0  0  0  0  0  0  0  0  0  0
    9.0310  -19.1885   19.3389 C   0  0  0  0  0  0  0  0  0  0  0  0
    8.0902  -18.7770   18.6047 O   0  0  0  0  0  0  0  0  0  0  0  0
    9.7711  -16.1280   21.3466 C   0  0  0  0  0  0  0  0  0  0  0  0
   10.9270  -16.0911   21.9182 O   0  0  0  0  0  0  0  0  0  0  0  0
    9.7704  -20.3156   19.0039 O   0  0  0  0  0  0  0  0  0  0  0  0
    8.7455  -15.3177   21.9007 N   0  0  0  0  0  0  0  0  0  0  0  0
    7.7342  -14.7153   21.0530 C   0  0  0  0  0  0  0  0  0  0  0  0
    6.5125  -14.6695   21.9298 C   0  0  0  0  0  0  0  0  0  0  0  0
    6.9488  -14.9896   23.3139 C   0  0  0  0  0  0  0  0  0  0  0  0
    8.4897  -14.8025   23.2034 C   0  0  1  0  0  0  0  0  0  0  0  0
    9.1091  -15.4318   24.3538 C   0  0  0  0  0  0  0  0  0  0  0  0
    9.2215  -16.6483   24.4843 O   0  0  0  0  0  0  0  0  0  0  0  0
    9.6238  -14.6302   25.4083 N   0  0  0  0  0  0  0  0  0  0  0  0
   10.2957  -15.1977   26.5569 C   0  0  1  0  0  0  0  0  0  0  0  0
   10.6637  -14.1057   27.5231 C   0  0  0  0  0  0  0  0  0  0  0  0
    9.1582  -13.1583   27.8984 S   0  0  0  0  0  0  0  0  0  0  0  0
    9.4262  -16.1670   27.2919 C   0  0  0  0  0  0  0  0  0  0  0  0
    8.2266  -16.2179   27.0311 O   0  0  0  0  0  0  0  0  0  0  0  0
   10.0173  -16.9802   28.2531 O   0  0  0  0  0  0  0  0  0  0  0  0
  2  3  1  0
  2  1  1  1
  3  4  1  0
  4  8  1  0
  5  4  2  0
  6  2  1  0
  7  6  2  0
  9  6  1  0
  9 13  1  0
 10  9  1  0
 11 10  1  0
 11 12  1  0
 12 13  1  0
 13 14  1  1
 14 16  1  0
 14 15  2  0
 16 17  1  0
 17 20  1  0
 17 18  1  1
 19 18  1  0
 20 22  1  0
 21 20  2  0
M  END
$$$$
