DPC.pdb
     RDKit          3D

 22 22  0  0  1  0  0  0  0  0999 V2000
   10.1206  -17.6233   19.7251 N   0  0  0  0  0  0  0  0  0  0  0  0
   10.8641  -17.2105   20.8992 C   0  0  1  0  0  0  0  0  0  0  0  0
   12.2765  -16.7774   20.5185 C   0  0  0  0  0  0  0  0  0  0  0  0
   13.0447  -17.9888   20.1730 C   0  0  0  0  0  0  0  0  0  0  0  0
   13.1933  -18.2958   18.9577 O   0  0  0  0  0  0  0  0  0  0  0  0
   10.1976  -16.2617   21.7763 C   0  0  0  0  0  0  0  0  0  0  0  0
   10.8406  -15.9504   22.8505 O   0  0  0  0  0  0  0  0  0  0  0  0
   13.5904  -18.7649   21.1874 O   0  0  0  0  0  0  0  0  0  0  0  0
    8.9304  -15.6534   21.5776 N   0  0  0  0  0  0  0  0  0  0  0  0
    8.3005  -15.6571   20.2708 C   0  0  0  0  0  0  0  0  0  0  0  0
    6.8293  -15.7009   20.5821 C   0  0  0  0  0  0  0  0  0  0  0  0
    6.6772  -15.4434   22.0379 C   0  0  0  0  0  0  0  0  0  0  0  0
    8.0754  -14.8624   22.3969 C   0  0  1  0  0  0  0  0  0  0  0  0
    8.2300  -14.9040   23.8383 C   0  0  0  0  0  0  0  0  0  0  0  0
    8.6727  -15.8755   24.4464 O   0  0  0  0  0  0  0  0  0  0  0  0
    7.8581  -13.7795   24.6234 N   0  0  0  0  0  0  0  0  0  0  0  0
    7.9170  -13.7890   26.0688 C   0  0  1  0  0  0  0  0  0  0  0  0
    7.3843  -12.4907   26.6093 C   0  0  0  0  0  0  0  0  0  0  0  0
    5.5784  -12.4956   26.4010 S   0  0  0  0  0  0  0  0  0  0  0  0
    7.0896  -14.8876   26.6557 C   0  0  0  0  0  0  0  0  0  0  0  0
    6.2085  -15.4074   25.9751 O   0  0  0  0  0  0  0  0  0  0  0  0
    7.3531  -15.2800   27.9638 O   0  0  0  0  0  0  0  0  0  0  0  0
  2  3  1  0
  2  1  1  6
  3  4  1  0
  4  8  1  0
  5  4  2  0
  6  2  1  0
  7  6  2  0
  9  6  1  0
  9 13  1  0
 10  9  1  0
 11 10  1  0
 11 12  1  0
 12 13  1  0
 13 14  1  1
 14 16  1  0
 14 15  2  0
 16 17  1  0
 17 20  1  0
 17 18  1  1
 19 18  1  0
 20 22  1  0
 21 20  2  0
M  END
$$$$
