DPC.pdb
     RDKit          3D

 22 22  0  0  1  0  0  0  0  0999 V2000
    9.8280  -17.0867   17.0898 N   0  0  0  0  0  0  0  0  0  0  0  0
    8.8770  -16.6377   18.0878 C   0  0  1  0  0  0  0  0  0  0  0  0
    7.7722  -17.6713   18.2835 C   0  0  0  0  0  0  0  0  0  0  0  0
    7.3984  -18.1927   16.9548 C   0  0  0  0  0  0  0  0  0  0  0  0
    7.1847  -17.3789   16.0138 O   0  0  0  0  0  0  0  0  0  0  0  0
    9.4418  -16.1676   19.3423 C   0  0  0  0  0  0  0  0  0  0  0  0
   10.5389  -16.7395   19.7077 O   0  0  0  0  0  0  0  0  0  0  0  0
    7.2915  -19.5642   16.7637 O   0  0  0  0  0  0  0  0  0  0  0  0
    8.9175  -15.1615   20.1957 N   0  0  0  0  0  0  0  0  0  0  0  0
    8.3017  -13.9680   19.6472 C   0  0  0  0  0  0  0  0  0  0  0  0
    7.2478  -13.6108   20.6596 C   0  0  0  0  0  0  0  0  0  0  0  0
    7.4902  -14.4465   21.8644 C   0  0  0  0  0  0  0  0  0  0  0  0
    8.9389  -14.9516   21.6040 C   0  0  1  0  0  0  0  0  0  0  0  0
    9.1972  -16.0715   22.4884 C   0  0  0  0  0  0  0  0  0  0  0  0
    8.9788  -17.2418   22.1843 O   0  0  0  0  0  0  0  0  0  0  0  0
    9.7297  -15.8418   23.7856 N   0  0  0  0  0  0  0  0  0  0  0  0
   10.3090  -16.8994   24.5847 C   0  0  1  0  0  0  0  0  0  0  0  0
   11.5754  -17.3906   23.9394 C   0  0  0  0  0  0  0  0  0  0  0  0
   12.2929  -18.6692   25.0143 S   0  0  0  0  0  0  0  0  0  0  0  0
   10.6635  -16.4320   25.9602 C   0  0  0  0  0  0  0  0  0  0  0  0
   10.3882  -17.1394   26.9263 O   0  0  0  0  0  0  0  0  0  0  0  0
   11.2964  -15.2005   26.0916 O   0  0  0  0  0  0  0  0  0  0  0  0
  2  3  1  0
  2  1  1  6
  3  4  1  0
  4  8  1  0
  5  4  2  0
  6  2  1  0
  7  6  2  0
  9  6  1  0
  9 13  1  0
 10  9  1  0
 11 10  1  0
 11 12  1  0
 12 13  1  0
 13 14  1  1
 14 16  1  0
 14 15  2  0
 16 17  1  0
 17 20  1  0
 17 18  1  6
 19 18  1  0
 20 22  1  0
 21 20  2  0
M  END
$$$$
