DPC.pdb
     RDKit          3D

 22 22  0  0  1  0  0  0  0  0999 V2000
   10.1411  -15.6066   14.9586 N   0  0  0  0  0  0  0  0  0  0  0  0
    9.1180  -15.6307   15.9855 C   0  0  1  0  0  0  0  0  0  0  0  0
    8.3046  -16.9188   15.9063 C   0  0  0  0  0  0  0  0  0  0  0  0
    7.7278  -17.0083   14.5512 C   0  0  0  0  0  0  0  0  0  0  0  0
    6.4901  -16.8141   14.3967 O   0  0  0  0  0  0  0  0  0  0  0  0
    9.5608  -15.3223   17.3355 C   0  0  0  0  0  0  0  0  0  0  0  0
   10.5718  -16.0027   17.7586 O   0  0  0  0  0  0  0  0  0  0  0  0
    8.5544  -17.3010   13.4742 O   0  0  0  0  0  0  0  0  0  0  0  0
    9.0026  -14.3662   18.2242 N   0  0  0  0  0  0  0  0  0  0  0  0
    8.4359  -13.1280   17.7241 C   0  0  0  0  0  0  0  0  0  0  0  0
    7.3308  -12.8206   18.6976 C   0  0  0  0  0  0  0  0  0  0  0  0
    7.4923  -13.7391   19.8547 C   0  0  0  0  0  0  0  0  0  0  0  0
    8.9463  -14.2512   19.6425 C   0  0  1  0  0  0  0  0  0  0  0  0
    9.1379  -15.4321   20.4621 C   0  0  0  0  0  0  0  0  0  0  0  0
    8.4431  -16.4415   20.3725 O   0  0  0  0  0  0  0  0  0  0  0  0
   10.1744  -15.4596   21.4339 N   0  0  0  0  0  0  0  0  0  0  0  0
   10.5164  -16.6573   22.1696 C   0  0  1  0  0  0  0  0  0  0  0  0
   12.0097  -16.7556   22.3177 C   0  0  0  0  0  0  0  0  0  0  0  0
   12.5973  -15.2243   23.1014 S   0  0  0  0  0  0  0  0  0  0  0  0
    9.9324  -16.6548   23.5461 C   0  0  0  0  0  0  0  0  0  0  0  0
    9.3149  -15.6669   23.9366 O   0  0  0  0  0  0  0  0  0  0  0  0
   10.1154  -17.7833   24.3383 O   0  0  0  0  0  0  0  0  0  0  0  0
  2  3  1  0
  2  1  1  6
  3  4  1  0
  4  8  1  0
  5  4  2  0
  6  2  1  0
  7  6  2  0
  9  6  1  0
  9 13  1  0
 10  9  1  0
 11 10  1  0
 11 12  1  0
 12 13  1  0
 13 14  1  1
 14 16  1  0
 14 15  2  0
 16 17  1  0
 17 20  1  0
 17 18  1  1
 19 18  1  0
 20 22  1  0
 21 20  2  0
M  END
$$$$
