DPC.pdb
     RDKit          3D

 22 22  0  0  1  0  0  0  0  0999 V2000
   10.1883  -15.5704   15.0138 N   0  0  0  0  0  0  0  0  0  0  0  0
    9.2089  -15.6837   16.0768 C   0  0  1  0  0  0  0  0  0  0  0  0
    8.5434  -17.0562   16.0529 C   0  0  0  0  0  0  0  0  0  0  0  0
    7.9560  -17.2521   14.7137 C   0  0  0  0  0  0  0  0  0  0  0  0
    8.6417  -17.8215   13.8198 O   0  0  0  0  0  0  0  0  0  0  0  0
    9.6586  -15.2951   17.4036 C   0  0  0  0  0  0  0  0  0  0  0  0
   10.7329  -15.8758   17.8194 O   0  0  0  0  0  0  0  0  0  0  0  0
    6.6632  -16.8106   14.4627 O   0  0  0  0  0  0  0  0  0  0  0  0
    9.0457  -14.3588   18.2773 N   0  0  0  0  0  0  0  0  0  0  0  0
    8.3460  -13.2009   17.7538 C   0  0  0  0  0  0  0  0  0  0  0  0
    7.2537  -12.9573   18.7593 C   0  0  0  0  0  0  0  0  0  0  0  0
    7.5444  -13.8074   19.9431 C   0  0  0  0  0  0  0  0  0  0  0  0
    9.0316  -14.1903   19.6912 C   0  0  1  0  0  0  0  0  0  0  0  0
    9.3646  -15.3128   20.5468 C   0  0  0  0  0  0  0  0  0  0  0  0
    8.8318  -16.4164   20.4580 O   0  0  0  0  0  0  0  0  0  0  0  0
   10.3547  -15.1656   21.5555 N   0  0  0  0  0  0  0  0  0  0  0  0
   10.6803  -16.2265   22.4835 C   0  0  1  0  0  0  0  0  0  0  0  0
   12.1150  -16.1024   22.9166 C   0  0  0  0  0  0  0  0  0  0  0  0
   12.4634  -17.4436   24.0932 S   0  0  0  0  0  0  0  0  0  0  0  0
    9.8372  -16.1697   23.7171 C   0  0  0  0  0  0  0  0  0  0  0  0
    9.8971  -17.0888   24.5303 O   0  0  0  0  0  0  0  0  0  0  0  0
    9.0088  -15.0668   23.8953 O   0  0  0  0  0  0  0  0  0  0  0  0
  2  3  1  0
  2  1  1  6
  3  4  1  0
  4  8  1  0
  5  4  2  0
  6  2  1  0
  7  6  2  0
  9  6  1  0
  9 13  1  0
 10  9  1  0
 11 10  1  0
 11 12  1  0
 12 13  1  0
 13 14  1  1
 14 16  1  0
 14 15  2  0
 16 17  1  0
 17 20  1  0
 17 18  1  1
 19 18  1  0
 20 22  1  0
 21 20  2  0
M  END
$$$$
