DPC.pdb
     RDKit          3D

 22 22  0  0  1  0  0  0  0  0999 V2000
   10.6766  -17.8646   21.0178 N   0  0  0  0  0  0  0  0  0  0  0  0
    9.3027  -17.4688   21.2580 C   0  0  1  0  0  0  0  0  0  0  0  0
    8.4623  -18.6686   21.6838 C   0  0  0  0  0  0  0  0  0  0  0  0
    8.5073  -19.6632   20.5949 C   0  0  0  0  0  0  0  0  0  0  0  0
    8.1900  -19.3084   19.4258 O   0  0  0  0  0  0  0  0  0  0  0  0
    9.1123  -16.3106   22.1159 C   0  0  0  0  0  0  0  0  0  0  0  0
    9.4961  -16.4550   23.3390 O   0  0  0  0  0  0  0  0  0  0  0  0
    8.8991  -20.9661   20.8745 O   0  0  0  0  0  0  0  0  0  0  0  0
    8.5537  -15.0568   21.7533 N   0  0  0  0  0  0  0  0  0  0  0  0
    8.6373  -14.5722   20.3885 C   0  0  0  0  0  0  0  0  0  0  0  0
    7.3787  -13.7663   20.2165 C   0  0  0  0  0  0  0  0  0  0  0  0
    6.7729  -13.5988   21.5633 C   0  0  0  0  0  0  0  0  0  0  0  0
    7.9619  -13.9901   22.4879 C   0  0  1  0  0  0  0  0  0  0  0  0
    7.4414  -14.2423   23.8178 C   0  0  0  0  0  0  0  0  0  0  0  0
    6.6818  -15.1701   24.0855 O   0  0  0  0  0  0  0  0  0  0  0  0
    7.8062  -13.3900   24.8948 N   0  0  0  0  0  0  0  0  0  0  0  0
    7.0795  -13.3662   26.1454 C   0  0  1  0  0  0  0  0  0  0  0  0
    8.0253  -13.0805   27.2792 C   0  0  0  0  0  0  0  0  0  0  0  0
    9.4614  -14.1810   27.1020 S   0  0  0  0  0  0  0  0  0  0  0  0
    6.0301  -12.3011   26.1631 C   0  0  0  0  0  0  0  0  0  0  0  0
    6.0601  -11.4119   25.3157 O   0  0  0  0  0  0  0  0  0  0  0  0
    5.0522  -12.3601   27.1504 O   0  0  0  0  0  0  0  0  0  0  0  0
  2  3  1  0
  2  1  1  1
  3  4  1  0
  4  8  1  0
  5  4  2  0
  6  2  1  0
  7  6  2  0
  9  6  1  0
  9 13  1  0
 10  9  1  0
 11 10  1  0
 11 12  1  0
 12 13  1  0
 13 14  1  1
 14 16  1  0
 14 15  2  0
 16 17  1  0
 17 20  1  0
 17 18  1  1
 19 18  1  0
 20 22  1  0
 21 20  2  0
M  END
$$$$
