DPC.pdb
     RDKit          3D

 22 22  0  0  1  0  0  0  0  0999 V2000
    8.8582  -17.7450   18.5028 N   0  0  0  0  0  0  0  0  0  0  0  0
    8.0569  -17.5223   19.6903 C   0  0  1  0  0  0  0  0  0  0  0  0
    7.1954  -18.7434   19.9964 C   0  0  0  0  0  0  0  0  0  0  0  0
    6.4768  -19.1125   18.7617 C   0  0  0  0  0  0  0  0  0  0  0  0
    6.1792  -18.2096   17.9313 O   0  0  0  0  0  0  0  0  0  0  0  0
    8.7680  -17.0238   20.8563 C   0  0  0  0  0  0  0  0  0  0  0  0
    9.6432  -17.8267   21.3597 O   0  0  0  0  0  0  0  0  0  0  0  0
    6.1445  -20.4420   18.5354 O   0  0  0  0  0  0  0  0  0  0  0  0
    8.5996  -15.7648   21.4906 N   0  0  0  0  0  0  0  0  0  0  0  0
    8.2195  -14.5920   20.7262 C   0  0  0  0  0  0  0  0  0  0  0  0
    7.4072  -13.7791   21.6970 C   0  0  0  0  0  0  0  0  0  0  0  0
    7.5891  -14.3847   23.0420 C   0  0  0  0  0  0  0  0  0  0  0  0
    8.8375  -15.2843   22.8098 C   0  0  1  0  0  0  0  0  0  0  0  0
    8.9299  -16.2279   23.9070 C   0  0  0  0  0  0  0  0  0  0  0  0
    8.0000  -16.9468   24.2651 O   0  0  0  0  0  0  0  0  0  0  0  0
   10.1454  -16.3546   24.6321 N   0  0  0  0  0  0  0  0  0  0  0  0
   10.2923  -17.2648   25.7468 C   0  0  1  0  0  0  0  0  0  0  0  0
   11.1513  -18.4312   25.3427 C   0  0  0  0  0  0  0  0  0  0  0  0
   11.3165  -19.5307   26.7810 S   0  0  0  0  0  0  0  0  0  0  0  0
   10.9521  -16.6124   26.9194 C   0  0  0  0  0  0  0  0  0  0  0  0
   10.5484  -16.8610   28.0529 O   0  0  0  0  0  0  0  0  0  0  0  0
   12.0071  -15.7393   26.6764 O   0  0  0  0  0  0  0  0  0  0  0  0
  2  3  1  0
  2  1  1  6
  3  4  1  0
  4  8  1  0
  5  4  2  0
  6  2  1  0
  7  6  2  0
  9  6  1  0
  9 13  1  0
 10  9  1  0
 11 10  1  0
 11 12  1  0
 12 13  1  0
 13 14  1  1
 14 16  1  0
 14 15  2  0
 16 17  1  0
 17 20  1  0
 17 18  1  6
 19 18  1  0
 20 22  1  0
 21 20  2  0
M  END
$$$$
