WGE.pdb
     RDKit          3D

 28 29  0  0  1  0  0  0  0  0999 V2000
   28.1542  -19.0936  -16.9187 N   0  0  0  0  0  0  0  0  0  0  0  0
   26.8571  -18.4903  -16.7382 C   0  0  1  0  0  0  0  0  0  0  0  0
   26.5054  -17.4446  -17.7399 C   0  0  0  0  0  0  0  0  0  0  0  0
   27.5270  -16.3744  -17.7425 C   0  0  0  0  0  0  0  0  0  0  0  0
   28.5428  -16.0844  -18.6245 C   0  0  0  0  0  0  0  0  0  0  0  0
   29.2002  -14.9994  -18.1617 N   0  0  0  0  0  0  0  0  0  0  0  0
   28.6352  -14.5947  -17.0196 C   0  0  0  0  0  0  0  0  0  0  0  0
   28.9313  -13.5375  -16.1575 C   0  0  0  0  0  0  0  0  0  0  0  0
   28.1605  -13.3579  -15.0306 C   0  0  0  0  0  0  0  0  0  0  0  0
   27.0995  -14.1849  -14.7131 C   0  0  0  0  0  0  0  0  0  0  0  0
   26.8192  -15.2275  -15.5757 C   0  0  0  0  0  0  0  0  0  0  0  0
   27.5811  -15.4216  -16.7095 C   0  0  0  0  0  0  0  0  0  0  0  0
   25.7999  -19.5032  -16.5709 C   0  0  0  0  0  0  0  0  0  0  0  0
   26.1636  -20.7322  -16.6096 O   0  0  0  0  0  0  0  0  0  0  0  0
   24.4506  -19.1707  -16.3786 N   0  0  0  0  0  0  0  0  0  0  0  0
   23.4786  -20.2065  -16.1708 C   0  0  0  0  0  0  0  0  0  0  0  0
   22.1431  -19.5588  -15.9804 C   0  0  0  0  0  0  0  0  0  0  0  0
   21.9883  -18.3076  -15.9816 O   0  0  0  0  0  0  0  0  0  0  0  0
   20.9662  -20.3354  -15.7868 N   0  0  0  0  0  0  0  0  0  0  0  0
   19.6530  -19.6843  -15.5106 C   0  0  1  0  0  0  0  0  0  0  0  0
   18.6140  -20.6355  -15.9984 C   0  0  0  0  0  0  0  0  0  0  0  0
   18.9834  -21.3331  -17.2592 C   0  0  0  0  0  0  0  0  0  0  0  0
   19.8924  -22.4703  -17.1120 C   0  0  0  0  0  0  0  0  0  0  0  0
   21.0874  -22.3461  -17.5589 O   0  0  0  0  0  0  0  0  0  0  0  0
   19.5085  -19.2836  -14.1238 C   0  0  0  0  0  0  0  0  0  0  0  0
   20.4306  -19.5596  -13.1104 O   0  0  0  0  0  0  0  0  0  0  0  0
   19.5736  -23.6808  -16.5273 O   0  0  0  0  0  0  0  0  0  0  0  0
   18.4717  -18.6429  -13.7749 O   0  0  0  0  0  0  0  0  0  0  0  0
  2 13  1  0
  2  3  1  0
  2  1  1  6
  4  3  1  0
  4 12  1  0
  5  4  2  0
  6  5  1  0
  6  7  1  0
  7  8  1  0
  7 12  2  0
  8  9  2  0
  9 10  1  0
 11 10  2  0
 12 11  1  0
 13 14  2  0
 15 16  1  0
 15 13  1  0
 17 16  1  0
 18 17  2  0
 19 17  1  0
 20 21  1  1
 20 19  1  0
 21 22  1  0
 23 22  1  0
 23 24  2  0
 25 20  1  0
 26 25  1  0
 27 23  1  0
 28 25  2  0
M  END
$$$$
