WGE.pdb
     RDKit          3D

 28 29  0  0  1  0  0  0  0  0999 V2000
   27.6802  -19.6050   -9.8387 N   0  0  0  0  0  0  0  0  0  0  0  0
   27.0268  -20.7936   -9.3494 C   0  0  1  0  0  0  0  0  0  0  0  0
   26.3512  -20.6416   -8.0299 C   0  0  0  0  0  0  0  0  0  0  0  0
   27.0560  -19.6339   -7.2074 C   0  0  0  0  0  0  0  0  0  0  0  0
   27.2040  -18.2740   -7.3584 C   0  0  0  0  0  0  0  0  0  0  0  0
   27.9501  -17.8185   -6.3292 N   0  0  0  0  0  0  0  0  0  0  0  0
   28.2777  -18.8424   -5.5343 C   0  0  0  0  0  0  0  0  0  0  0  0
   29.0250  -18.9055   -4.3570 C   0  0  0  0  0  0  0  0  0  0  0  0
   29.2006  -20.1246   -3.7410 C   0  0  0  0  0  0  0  0  0  0  0  0
   28.6662  -21.2968   -4.2416 C   0  0  0  0  0  0  0  0  0  0  0  0
   27.9295  -21.2186   -5.4081 C   0  0  0  0  0  0  0  0  0  0  0  0
   27.7434  -20.0051   -6.0380 C   0  0  0  0  0  0  0  0  0  0  0  0
   26.1576  -21.4018  -10.3723 C   0  0  0  0  0  0  0  0  0  0  0  0
   25.5258  -22.4662  -10.0374 O   0  0  0  0  0  0  0  0  0  0  0  0
   26.0087  -20.8669  -11.6606 N   0  0  0  0  0  0  0  0  0  0  0  0
   25.1301  -21.4994  -12.6034 C   0  0  0  0  0  0  0  0  0  0  0  0
   23.8327  -20.7537  -12.6019 C   0  0  0  0  0  0  0  0  0  0  0  0
   23.5658  -19.8561  -11.7578 O   0  0  0  0  0  0  0  0  0  0  0  0
   22.8233  -21.0253  -13.5679 N   0  0  0  0  0  0  0  0  0  0  0  0
   21.5479  -20.2521  -13.5843 C   0  0  1  0  0  0  0  0  0  0  0  0
   21.0988  -20.2340  -15.0056 C   0  0  0  0  0  0  0  0  0  0  0  0
   20.7629  -21.5784  -15.5464 C   0  0  0  0  0  0  0  0  0  0  0  0
   20.4215  -21.6229  -16.9686 C   0  0  0  0  0  0  0  0  0  0  0  0
   20.1819  -22.7675  -17.4935 O   0  0  0  0  0  0  0  0  0  0  0  0
   20.5705  -20.7661  -12.6435 C   0  0  0  0  0  0  0  0  0  0  0  0
   20.5229  -22.0829  -12.1777 O   0  0  0  0  0  0  0  0  0  0  0  0
   20.3335  -20.5278  -17.8064 O   0  0  0  0  0  0  0  0  0  0  0  0
   19.6736  -19.9860  -12.2027 O   0  0  0  0  0  0  0  0  0  0  0  0
  2 13  1  0
  2  3  1  0
  2  1  1  6
  4  3  1  0
  4 12  1  0
  5  4  2  0
  6  5  1  0
  6  7  1  0
  7  8  1  0
  7 12  2  0
  8  9  2  0
  9 10  1  0
 11 10  2  0
 12 11  1  0
 13 14  2  0
 15 16  1  0
 15 13  1  0
 17 16  1  0
 18 17  2  0
 19 17  1  0
 20 21  1  6
 20 19  1  0
 21 22  1  0
 23 22  1  0
 23 24  2  0
 25 20  1  0
 26 25  1  0
 27 23  1  0
 28 25  2  0
M  END
$$$$
