WGE.pdb
     RDKit          3D

 28 29  0  0  1  0  0  0  0  0999 V2000
   26.2615  -22.3302  -12.8300 N   0  0  0  0  0  0  0  0  0  0  0  0
   26.1240  -21.0037  -13.3782 C   0  0  1  0  0  0  0  0  0  0  0  0
   26.6752  -19.9116  -12.5273 C   0  0  0  0  0  0  0  0  0  0  0  0
   26.2234  -20.0758  -11.1281 C   0  0  0  0  0  0  0  0  0  0  0  0
   24.9639  -20.1426  -10.5775 C   0  0  0  0  0  0  0  0  0  0  0  0
   25.0994  -20.2907   -9.2422 N   0  0  0  0  0  0  0  0  0  0  0  0
   26.3994  -20.3199   -8.9309 C   0  0  0  0  0  0  0  0  0  0  0  0
   27.0619  -20.4535   -7.7095 C   0  0  0  0  0  0  0  0  0  0  0  0
   28.4388  -20.4508   -7.6920 C   0  0  0  0  0  0  0  0  0  0  0  0
   29.1990  -20.3198   -8.8389 C   0  0  0  0  0  0  0  0  0  0  0  0
   28.5290  -20.1876  -10.0402 C   0  0  0  0  0  0  0  0  0  0  0  0
   27.1496  -20.1887  -10.0759 C   0  0  0  0  0  0  0  0  0  0  0  0
   26.5929  -20.9360  -14.7736 C   0  0  0  0  0  0  0  0  0  0  0  0
   27.7921  -21.3286  -15.0016 O   0  0  0  0  0  0  0  0  0  0  0  0
   25.7904  -20.4675  -15.8246 N   0  0  0  0  0  0  0  0  0  0  0  0
   26.3894  -20.0994  -17.0762 C   0  0  0  0  0  0  0  0  0  0  0  0
   25.3133  -19.5602  -17.9654 C   0  0  0  0  0  0  0  0  0  0  0  0
   24.1170  -19.4376  -17.5869 O   0  0  0  0  0  0  0  0  0  0  0  0
   25.5929  -19.1532  -19.3003 N   0  0  0  0  0  0  0  0  0  0  0  0
   24.6806  -18.2234  -20.0268 C   0  0  1  0  0  0  0  0  0  0  0  0
   24.5921  -16.9962  -19.1851 C   0  0  0  0  0  0  0  0  0  0  0  0
   24.7563  -15.7307  -19.9496 C   0  0  0  0  0  0  0  0  0  0  0  0
   24.1537  -14.5420  -19.3453 C   0  0  0  0  0  0  0  0  0  0  0  0
   23.2909  -14.7137  -18.4130 O   0  0  0  0  0  0  0  0  0  0  0  0
   25.0941  -17.9926  -21.3981 C   0  0  0  0  0  0  0  0  0  0  0  0
   24.2260  -17.7489  -22.4659 O   0  0  0  0  0  0  0  0  0  0  0  0
   24.4351  -13.2352  -19.6944 O   0  0  0  0  0  0  0  0  0  0  0  0
   26.3300  -18.0191  -21.6792 O   0  0  0  0  0  0  0  0  0  0  0  0
  2 13  1  0
  2  3  1  0
  2  1  1  1
  4  3  1  0
  4 12  1  0
  5  4  2  0
  6  5  1  0
  6  7  1  0
  7  8  1  0
  7 12  2  0
  8  9  2  0
  9 10  1  0
 11 10  2  0
 12 11  1  0
 13 14  2  0
 15 16  1  0
 15 13  1  0
 17 16  1  0
 18 17  2  0
 19 17  1  0
 20 21  1  1
 20 19  1  0
 21 22  1  0
 23 22  1  0
 23 24  2  0
 25 20  1  0
 26 25  1  0
 27 23  1  0
 28 25  2  0
M  END
$$$$
