WGE.pdb
     RDKit          3D

 28 29  0  0  1  0  0  0  0  0999 V2000
   27.0192  -21.7992  -11.1228 N   0  0  0  0  0  0  0  0  0  0  0  0
   26.2354  -20.8636  -10.3551 C   0  0  1  0  0  0  0  0  0  0  0  0
   26.9977  -19.7069   -9.8060 C   0  0  0  0  0  0  0  0  0  0  0  0
   28.1481  -20.1848   -9.0079 C   0  0  0  0  0  0  0  0  0  0  0  0
   29.3452  -20.7521   -9.3811 C   0  0  0  0  0  0  0  0  0  0  0  0
   30.0496  -21.0160   -8.2597 N   0  0  0  0  0  0  0  0  0  0  0  0
   29.3397  -20.6354   -7.1926 C   0  0  0  0  0  0  0  0  0  0  0  0
   29.6130  -20.6886   -5.8247 C   0  0  0  0  0  0  0  0  0  0  0  0
   28.6751  -20.2116   -4.9364 C   0  0  0  0  0  0  0  0  0  0  0  0
   27.4660  -19.6795   -5.3428 C   0  0  0  0  0  0  0  0  0  0  0  0
   27.2093  -19.6342   -6.6999 C   0  0  0  0  0  0  0  0  0  0  0  0
   28.1383  -20.1074   -7.6038 C   0  0  0  0  0  0  0  0  0  0  0  0
   25.0122  -20.4574  -11.0696 C   0  0  0  0  0  0  0  0  0  0  0  0
   24.1521  -19.7768  -10.4052 O   0  0  0  0  0  0  0  0  0  0  0  0
   24.7700  -20.7855  -12.4118 N   0  0  0  0  0  0  0  0  0  0  0  0
   23.5865  -20.3039  -13.0664 C   0  0  0  0  0  0  0  0  0  0  0  0
   22.8683  -21.4793  -13.6512 C   0  0  0  0  0  0  0  0  0  0  0  0
   23.4709  -22.5051  -14.0683 O   0  0  0  0  0  0  0  0  0  0  0  0
   21.4497  -21.4962  -13.7655 N   0  0  0  0  0  0  0  0  0  0  0  0
   20.7328  -22.7098  -14.2533 C   0  0  1  0  0  0  0  0  0  0  0  0
   19.4690  -22.7824  -13.4661 C   0  0  0  0  0  0  0  0  0  0  0  0
   19.6246  -23.4376  -12.1397 C   0  0  0  0  0  0  0  0  0  0  0  0
   18.7665  -22.9214  -11.0727 C   0  0  0  0  0  0  0  0  0  0  0  0
   17.9155  -22.0111  -11.3735 O   0  0  0  0  0  0  0  0  0  0  0  0
   20.5544  -22.7127  -15.6930 C   0  0  0  0  0  0  0  0  0  0  0  0
   20.4557  -23.8598  -16.4852 O   0  0  0  0  0  0  0  0  0  0  0  0
   18.7923  -23.3323   -9.7539 O   0  0  0  0  0  0  0  0  0  0  0  0
   20.4908  -21.6047  -16.3057 O   0  0  0  0  0  0  0  0  0  0  0  0
  2 13  1  0
  2  3  1  0
  2  1  1  6
  4  3  1  0
  4 12  1  0
  5  4  2  0
  6  5  1  0
  6  7  1  0
  7  8  1  0
  7 12  2  0
  8  9  2  0
  9 10  1  0
 11 10  2  0
 12 11  1  0
 13 14  2  0
 15 16  1  0
 15 13  1  0
 17 16  1  0
 18 17  2  0
 19 17  1  0
 20 21  1  1
 20 19  1  0
 21 22  1  0
 23 22  1  0
 23 24  2  0
 25 20  1  0
 26 25  1  0
 27 23  1  0
 28 25  2  0
M  END
$$$$
