WGE.pdb
     RDKit          3D

 28 29  0  0  1  0  0  0  0  0999 V2000
   20.7580  -31.0761  -10.3934 N   0  0  0  0  0  0  0  0  0  0  0  0
   21.9737  -30.3231  -10.5780 C   0  0  1  0  0  0  0  0  0  0  0  0
   21.9440  -28.9374  -10.0308 C   0  0  0  0  0  0  0  0  0  0  0  0
   20.7432  -28.2217  -10.5153 C   0  0  0  0  0  0  0  0  0  0  0  0
   19.5054  -28.0264   -9.9463 C   0  0  0  0  0  0  0  0  0  0  0  0
   18.7585  -27.3047  -10.8094 N   0  0  0  0  0  0  0  0  0  0  0  0
   19.4811  -27.0377  -11.9022 C   0  0  0  0  0  0  0  0  0  0  0  0
   19.1787  -26.3353  -13.0700 C   0  0  0  0  0  0  0  0  0  0  0  0
   20.1414  -26.2178  -14.0477 C   0  0  0  0  0  0  0  0  0  0  0  0
   21.4025  -26.7694  -13.9227 C   0  0  0  0  0  0  0  0  0  0  0  0
   21.6867  -27.4625  -12.7614 C   0  0  0  0  0  0  0  0  0  0  0  0
   20.7339  -27.5895  -11.7715 C   0  0  0  0  0  0  0  0  0  0  0  0
   23.1604  -31.0841  -10.1486 C   0  0  0  0  0  0  0  0  0  0  0  0
   24.2789  -30.4572  -10.1401 O   0  0  0  0  0  0  0  0  0  0  0  0
   23.1020  -32.4318   -9.7633 N   0  0  0  0  0  0  0  0  0  0  0  0
   24.2723  -33.0812   -9.2439 C   0  0  0  0  0  0  0  0  0  0  0  0
   23.9691  -33.5416   -7.8527 C   0  0  0  0  0  0  0  0  0  0  0  0
   22.9001  -33.2420   -7.2555 O   0  0  0  0  0  0  0  0  0  0  0  0
   24.8862  -34.3525   -7.1266 N   0  0  0  0  0  0  0  0  0  0  0  0
   24.5164  -34.9346   -5.8040 C   0  0  1  0  0  0  0  0  0  0  0  0
   25.3225  -36.1810   -5.6658 C   0  0  0  0  0  0  0  0  0  0  0  0
   24.9865  -36.9824   -4.4585 C   0  0  0  0  0  0  0  0  0  0  0  0
   25.8007  -38.1794   -4.2451 C   0  0  0  0  0  0  0  0  0  0  0  0
   26.7000  -38.4574   -5.1153 O   0  0  0  0  0  0  0  0  0  0  0  0
   24.6671  -33.9882   -4.7149 C   0  0  0  0  0  0  0  0  0  0  0  0
   25.3119  -32.7520   -4.8119 O   0  0  0  0  0  0  0  0  0  0  0  0
   25.6850  -39.0475   -3.1766 O   0  0  0  0  0  0  0  0  0  0  0  0
   24.1973  -34.2842   -3.5752 O   0  0  0  0  0  0  0  0  0  0  0  0
  2 13  1  0
  2  3  1  0
  2  1  1  1
  4  3  1  0
  4 12  1  0
  5  4  2  0
  6  5  1  0
  6  7  1  0
  7  8  1  0
  7 12  2  0
  8  9  2  0
  9 10  1  0
 11 10  2  0
 12 11  1  0
 13 14  2  0
 15 16  1  0
 15 13  1  0
 17 16  1  0
 18 17  2  0
 19 17  1  0
 20 21  1  1
 20 19  1  0
 21 22  1  0
 23 22  1  0
 23 24  2  0
 25 20  1  0
 26 25  1  0
 27 23  1  0
 28 25  2  0
M  END
$$$$
