WGE.pdb
     RDKit          3D

 28 29  0  0  1  0  0  0  0  0999 V2000
   21.5138  -12.9092  -16.9653 N   0  0  0  0  0  0  0  0  0  0  0  0
   22.0671  -12.8074  -18.2928 C   0  0  1  0  0  0  0  0  0  0  0  0
   21.7605  -13.9559  -19.1914 C   0  0  0  0  0  0  0  0  0  0  0  0
   22.1214  -15.2309  -18.5332 C   0  0  0  0  0  0  0  0  0  0  0  0
   21.5413  -15.9158  -17.4900 C   0  0  0  0  0  0  0  0  0  0  0  0
   22.2679  -17.0322  -17.2683 N   0  0  0  0  0  0  0  0  0  0  0  0
   23.2854  -17.0759  -18.1345 C   0  0  0  0  0  0  0  0  0  0  0  0
   24.3100  -18.0054  -18.3217 C   0  0  0  0  0  0  0  0  0  0  0  0
   25.2385  -17.7860  -19.3147 C   0  0  0  0  0  0  0  0  0  0  0  0
   25.2006  -16.6775  -20.1395 C   0  0  0  0  0  0  0  0  0  0  0  0
   24.1811  -15.7659  -19.9415 C   0  0  0  0  0  0  0  0  0  0  0  0
   23.2421  -15.9705  -18.9514 C   0  0  0  0  0  0  0  0  0  0  0  0
   21.7738  -11.5018  -18.9102 C   0  0  0  0  0  0  0  0  0  0  0  0
   22.2418  -11.2990  -20.0867 O   0  0  0  0  0  0  0  0  0  0  0  0
   21.0230  -10.5068  -18.2666 N   0  0  0  0  0  0  0  0  0  0  0  0
   20.7103   -9.2859  -18.9541 C   0  0  0  0  0  0  0  0  0  0  0  0
   19.3560   -8.8341  -18.5055 C   0  0  0  0  0  0  0  0  0  0  0  0
   18.7208   -9.4068  -17.5793 O   0  0  0  0  0  0  0  0  0  0  0  0
   18.7109   -7.7194  -19.1114 N   0  0  0  0  0  0  0  0  0  0  0  0
   17.3497   -7.2907  -18.6778 C   0  0  1  0  0  0  0  0  0  0  0  0
   17.4672   -6.9592  -17.2292 C   0  0  0  0  0  0  0  0  0  0  0  0
   18.3386   -5.7863  -16.9505 C   0  0  0  0  0  0  0  0  0  0  0  0
   18.4131   -5.3701  -15.5496 C   0  0  0  0  0  0  0  0  0  0  0  0
   17.7301   -6.0310  -14.6894 O   0  0  0  0  0  0  0  0  0  0  0  0
   16.8089   -6.2277  -19.5038 C   0  0  0  0  0  0  0  0  0  0  0  0
   15.5593   -5.6291  -19.3214 O   0  0  0  0  0  0  0  0  0  0  0  0
   19.1627   -4.3154  -15.0656 O   0  0  0  0  0  0  0  0  0  0  0  0
   17.4964   -5.7976  -20.4783 O   0  0  0  0  0  0  0  0  0  0  0  0
  2 13  1  0
  2  3  1  0
  2  1  1  1
  4  3  1  0
  4 12  1  0
  5  4  2  0
  6  5  1  0
  6  7  1  0
  7  8  1  0
  7 12  2  0
  8  9  2  0
  9 10  1  0
 11 10  2  0
 12 11  1  0
 13 14  2  0
 15 16  1  0
 15 13  1  0
 17 16  1  0
 18 17  2  0
 19 17  1  0
 20 21  1  1
 20 19  1  0
 21 22  1  0
 23 22  1  0
 23 24  2  0
 25 20  1  0
 26 25  1  0
 27 23  1  0
 28 25  2  0
M  END
$$$$
