WGE.pdb
     RDKit          3D

 28 29  0  0  1  0  0  0  0  0999 V2000
   19.7888  -21.2132  -12.8240 N   0  0  0  0  0  0  0  0  0  0  0  0
   20.7893  -21.7741  -11.9502 C   0  0  1  0  0  0  0  0  0  0  0  0
   22.0950  -21.0559  -11.9471 C   0  0  0  0  0  0  0  0  0  0  0  0
   22.6796  -21.0513  -13.3062 C   0  0  0  0  0  0  0  0  0  0  0  0
   22.6090  -20.1310  -14.3271 C   0  0  0  0  0  0  0  0  0  0  0  0
   23.3180  -20.6110  -15.3713 N   0  0  0  0  0  0  0  0  0  0  0  0
   23.8334  -21.8008  -15.0455 C   0  0  0  0  0  0  0  0  0  0  0  0
   24.6309  -22.6973  -15.7588 C   0  0  0  0  0  0  0  0  0  0  0  0
   25.0208  -23.8719  -15.1550 C   0  0  0  0  0  0  0  0  0  0  0  0
   24.6537  -24.2049  -13.8648 C   0  0  0  0  0  0  0  0  0  0  0  0
   23.8635  -23.3078  -13.1716 C   0  0  0  0  0  0  0  0  0  0  0  0
   23.4642  -22.1260  -13.7613 C   0  0  0  0  0  0  0  0  0  0  0  0
   20.2622  -22.0120  -10.5948 C   0  0  0  0  0  0  0  0  0  0  0  0
   19.5765  -21.0666  -10.0655 O   0  0  0  0  0  0  0  0  0  0  0  0
   20.4842  -23.2046   -9.8902 N   0  0  0  0  0  0  0  0  0  0  0  0
   20.0889  -23.3096   -8.5140 C   0  0  0  0  0  0  0  0  0  0  0  0
   18.6738  -23.7946   -8.4731 C   0  0  0  0  0  0  0  0  0  0  0  0
   18.0177  -24.0651   -9.5151 O   0  0  0  0  0  0  0  0  0  0  0  0
   17.9909  -23.9774   -7.2377 N   0  0  0  0  0  0  0  0  0  0  0  0
   16.6254  -24.5759   -7.1961 C   0  0  1  0  0  0  0  0  0  0  0  0
   16.7477  -25.9188   -7.8315 C   0  0  0  0  0  0  0  0  0  0  0  0
   17.5949  -26.8710   -7.0644 C   0  0  0  0  0  0  0  0  0  0  0  0
   17.6681  -28.2300   -7.6020 C   0  0  0  0  0  0  0  0  0  0  0  0
   18.8268  -28.7614   -7.7365 O   0  0  0  0  0  0  0  0  0  0  0  0
   16.0589  -24.5836   -5.8605 C   0  0  0  0  0  0  0  0  0  0  0  0
   14.7310  -24.8948   -5.5559 O   0  0  0  0  0  0  0  0  0  0  0  0
   16.5864  -29.0007   -7.9826 O   0  0  0  0  0  0  0  0  0  0  0  0
   16.7996  -24.2781   -4.8780 O   0  0  0  0  0  0  0  0  0  0  0  0
  2 13  1  0
  2  3  1  0
  2  1  1  6
  4  3  1  0
  4 12  1  0
  5  4  2  0
  6  5  1  0
  6  7  1  0
  7  8  1  0
  7 12  2  0
  8  9  2  0
  9 10  1  0
 11 10  2  0
 12 11  1  0
 13 14  2  0
 15 16  1  0
 15 13  1  0
 17 16  1  0
 18 17  2  0
 19 17  1  0
 20 21  1  1
 20 19  1  0
 21 22  1  0
 23 22  1  0
 23 24  2  0
 25 20  1  0
 26 25  1  0
 27 23  1  0
 28 25  2  0
M  END
$$$$
