WGE.pdb
     RDKit          3D

 28 29  0  0  1  0  0  0  0  0999 V2000
   25.4152  -20.2739   -9.2580 N   0  0  0  0  0  0  0  0  0  0  0  0
   26.7787  -20.3971   -9.7106 C   0  0  1  0  0  0  0  0  0  0  0  0
   27.7135  -21.0152   -8.7284 C   0  0  0  0  0  0  0  0  0  0  0  0
   27.6788  -20.2703   -7.4505 C   0  0  0  0  0  0  0  0  0  0  0  0
   26.7497  -19.4015   -6.9253 C   0  0  0  0  0  0  0  0  0  0  0  0
   27.1995  -18.9871   -5.7214 N   0  0  0  0  0  0  0  0  0  0  0  0
   28.3789  -19.5636   -5.4684 C   0  0  0  0  0  0  0  0  0  0  0  0
   29.2464  -19.4707   -4.3788 C   0  0  0  0  0  0  0  0  0  0  0  0
   30.4169  -20.1959   -4.3923 C   0  0  0  0  0  0  0  0  0  0  0  0
   30.7734  -21.0170   -5.4455 C   0  0  0  0  0  0  0  0  0  0  0  0
   29.9049  -21.0981   -6.5173 C   0  0  0  0  0  0  0  0  0  0  0  0
   28.7276  -20.3784   -6.5199 C   0  0  0  0  0  0  0  0  0  0  0  0
   26.8593  -21.0145  -11.0462 C   0  0  0  0  0  0  0  0  0  0  0  0
   27.2829  -22.2235  -11.1010 O   0  0  0  0  0  0  0  0  0  0  0  0
   26.4987  -20.3376  -12.2208 N   0  0  0  0  0  0  0  0  0  0  0  0
   25.8210  -21.0389  -13.2743 C   0  0  0  0  0  0  0  0  0  0  0  0
   24.3504  -20.9728  -13.0052 C   0  0  0  0  0  0  0  0  0  0  0  0
   23.8614  -20.2874  -12.0668 O   0  0  0  0  0  0  0  0  0  0  0  0
   23.4195  -21.6903  -13.8078 N   0  0  0  0  0  0  0  0  0  0  0  0
   21.9580  -21.6483  -13.5124 C   0  0  1  0  0  0  0  0  0  0  0  0
   21.5916  -20.2041  -13.4651 C   0  0  0  0  0  0  0  0  0  0  0  0
   20.1635  -19.9578  -13.1293 C   0  0  0  0  0  0  0  0  0  0  0  0
   19.4067  -19.1788  -14.1099 C   0  0  0  0  0  0  0  0  0  0  0  0
   20.0282  -18.2663  -14.7613 O   0  0  0  0  0  0  0  0  0  0  0  0
   21.1772  -22.4444  -14.4403 C   0  0  0  0  0  0  0  0  0  0  0  0
   21.3597  -22.4678  -15.8257 O   0  0  0  0  0  0  0  0  0  0  0  0
   18.0656  -19.3409  -14.3995 O   0  0  0  0  0  0  0  0  0  0  0  0
   20.2450  -23.1752  -13.9883 O   0  0  0  0  0  0  0  0  0  0  0  0
  2 13  1  0
  2  3  1  0
  2  1  1  1
  4  3  1  0
  4 12  1  0
  5  4  2  0
  6  5  1  0
  6  7  1  0
  7  8  1  0
  7 12  2  0
  8  9  2  0
  9 10  1  0
 11 10  2  0
 12 11  1  0
 13 14  2  0
 15 16  1  0
 15 13  1  0
 17 16  1  0
 18 17  2  0
 19 17  1  0
 20 21  1  6
 20 19  1  0
 21 22  1  0
 23 22  1  0
 23 24  2  0
 25 20  1  0
 26 25  1  0
 27 23  1  0
 28 25  2  0
M  END
$$$$
