WGE.pdb
     RDKit          3D

 28 29  0  0  1  0  0  0  0  0999 V2000
   26.7187  -22.5792  -11.7407 N   0  0  0  0  0  0  0  0  0  0  0  0
   26.0518  -21.3478  -11.3976 C   0  0  1  0  0  0  0  0  0  0  0  0
   26.9577  -20.2260  -11.0216 C   0  0  0  0  0  0  0  0  0  0  0  0
   28.0500  -20.7193  -10.1541 C   0  0  0  0  0  0  0  0  0  0  0  0
   29.1206  -21.5439  -10.4144 C   0  0  0  0  0  0  0  0  0  0  0  0
   29.8227  -21.6900   -9.2702 N   0  0  0  0  0  0  0  0  0  0  0  0
   29.2333  -20.9868   -8.2977 C   0  0  0  0  0  0  0  0  0  0  0  0
   29.5561  -20.8071   -6.9516 C   0  0  0  0  0  0  0  0  0  0  0  0
   28.7496  -20.0087   -6.1715 C   0  0  0  0  0  0  0  0  0  0  0  0
   27.6260  -19.3739   -6.6664 C   0  0  0  0  0  0  0  0  0  0  0  0
   27.3189  -19.5620   -8.0005 C   0  0  0  0  0  0  0  0  0  0  0  0
   28.1165  -20.3583   -8.7965 C   0  0  0  0  0  0  0  0  0  0  0  0
   25.0537  -20.9640  -12.4117 C   0  0  0  0  0  0  0  0  0  0  0  0
   25.4977  -20.6595  -13.5754 O   0  0  0  0  0  0  0  0  0  0  0  0
   23.6767  -20.9224  -12.1469 N   0  0  0  0  0  0  0  0  0  0  0  0
   22.8098  -20.1333  -12.9757 C   0  0  0  0  0  0  0  0  0  0  0  0
   21.4011  -20.3639  -12.5264 C   0  0  0  0  0  0  0  0  0  0  0  0
   20.8310  -19.6304  -11.6742 O   0  0  0  0  0  0  0  0  0  0  0  0
   20.6258  -21.4376  -13.0478 N   0  0  0  0  0  0  0  0  0  0  0  0
   19.1902  -21.5992  -12.6769 C   0  0  1  0  0  0  0  0  0  0  0  0
   18.5739  -22.4059  -13.7685 C   0  0  0  0  0  0  0  0  0  0  0  0
   17.1266  -22.6835  -13.5661 C   0  0  0  0  0  0  0  0  0  0  0  0
   16.4927  -23.5204  -14.5855 C   0  0  0  0  0  0  0  0  0  0  0  0
   17.2387  -24.0252  -15.4975 O   0  0  0  0  0  0  0  0  0  0  0  0
   19.0152  -22.1443  -11.3439 C   0  0  0  0  0  0  0  0  0  0  0  0
   17.8702  -21.9865  -10.5583 O   0  0  0  0  0  0  0  0  0  0  0  0
   15.1453  -23.8184  -14.6535 O   0  0  0  0  0  0  0  0  0  0  0  0
   19.9611  -22.8092  -10.8238 O   0  0  0  0  0  0  0  0  0  0  0  0
  2 13  1  0
  2  3  1  0
  2  1  1  6
  4  3  1  0
  4 12  1  0
  5  4  2  0
  6  5  1  0
  6  7  1  0
  7  8  1  0
  7 12  2  0
  8  9  2  0
  9 10  1  0
 11 10  2  0
 12 11  1  0
 13 14  2  0
 15 16  1  0
 15 13  1  0
 17 16  1  0
 18 17  2  0
 19 17  1  0
 20 21  1  6
 20 19  1  0
 21 22  1  0
 23 22  1  0
 23 24  2  0
 25 20  1  0
 26 25  1  0
 27 23  1  0
 28 25  2  0
M  END
$$$$
