NRR.pdb
     RDKit          3D

 31 30  0  0  1  0  0  0  0  0999 V2000
    7.1843  -11.9337   17.7883 N   0  0  0  0  0  0  0  0  0  0  0  0
    7.7227  -13.2496   17.9318 C   0  0  0  0  0  0  0  0  0  0  0  0
    7.9264  -13.9791   16.9494 O   0  0  0  0  0  0  0  0  0  0  0  0
    8.0222  -13.6939   19.3006 C   0  0  0  0  0  0  0  0  0  0  0  0
    8.7953  -14.9660   19.2975 C   0  0  2  0  0  0  0  0  0  0  0  0
    8.1374  -16.1006   18.7350 N   0  0  0  0  0  0  0  0  0  0  0  0
    9.2474  -15.2963   20.6866 C   0  0  0  0  0  0  0  0  0  0  0  0
    9.8995  -14.3980   21.3224 O   0  0  0  0  0  0  0  0  0  0  0  0
   12.3481  -19.8342   17.3638 N   0  0  0  0  0  0  0  0  0  0  0  0
   10.9678  -19.7224   17.6800 C   0  0  0  0  0  0  0  0  0  0  0  0
   10.1528  -19.1720   16.8477 N   0  0  0  0  0  0  0  0  0  0  0  0
   10.5179  -20.2301   18.9262 N   0  0  0  0  0  0  0  0  0  0  0  0
    9.1179  -20.1532   19.2748 C   0  0  0  0  0  0  0  0  0  0  0  0
    8.9407  -18.9182   20.1685 C   0  0  0  0  0  0  0  0  0  0  0  0
   10.2202  -18.5929   20.8785 C   0  0  0  0  0  0  0  0  0  0  0  0
   10.0275  -17.4121   21.7889 C   0  0  2  0  0  0  0  0  0  0  0  0
    8.9644  -16.5472   21.2670 N   0  0  0  0  0  0  0  0  0  0  0  0
   11.2525  -16.6022   21.8378 C   0  0  0  0  0  0  0  0  0  0  0  0
   11.9694  -16.3466   20.8257 O   0  0  0  0  0  0  0  0  0  0  0  0
    9.1370  -19.0692   17.0488 N   0  0  0  0  0  0  0  0  0  0  0  0
   12.9882  -21.3061   28.0800 C   0  0  0  0  0  0  0  0  0  0  0  0
   11.8139  -20.5160   28.2040 N   0  0  0  0  0  0  0  0  0  0  0  0
   10.9545  -20.8368   29.0947 N   0  0  0  0  0  0  0  0  0  0  0  0
   11.5859  -19.3893   27.3605 C   0  0  0  0  0  0  0  0  0  0  0  0
   12.4483  -19.2164   26.2199 C   0  0  0  0  0  0  0  0  0  0  0  0
   11.9136  -18.1194   25.2906 C   0  0  0  0  0  0  0  0  0  0  0  0
   12.7391  -18.0269   24.0500 C   0  0  2  0  0  0  0  0  0  0  0  0
   12.9352  -16.5881   23.6454 N   0  0  0  0  0  0  0  0  0  0  0  0
   11.6918  -16.0535   23.0897 C   0  0  0  0  0  0  0  0  0  0  0  0
   13.9833  -16.5343   22.5929 O   0  0  0  0  0  0  0  0  0  0  0  0
   14.8847  -17.3595   22.4070 O   0  0  0  0  0  0  0  0  0  0  0  0
  2  1  1  0
  3  2  2  0
  4  2  1  0
  4  5  1  0
  5  6  1  1
  7  8  2  0
  7  5  1  0
  9 10  1  0
 10 12  1  0
 11 10  2  0
 12 13  1  0
 13 14  1  0
 14 15  1  0
 16 15  1  6
 16 17  1  0
 17  7  1  0
 18 16  1  0
 19 18  2  0
 20 21  1  0
 21 22  2  0
 23 21  1  0
 23 24  1  0
 24 25  1  0
 25 26  1  0
 27 26  1  1
 27 28  1  0
 28 18  1  0
 29 27  1  0
 30 29  2  0
 31 29  1  0
M  END
$$$$
