NRR.pdb
     RDKit          3D

 31 30  0  0  1  0  0  0  0  0999 V2000
    5.9343  -23.0134   18.9302 N   0  0  0  0  0  0  0  0  0  0  0  0
    7.1305  -22.5854   18.2761 C   0  0  0  0  0  0  0  0  0  0  0  0
    7.6876  -23.2858   17.4170 O   0  0  0  0  0  0  0  0  0  0  0  0
    7.6662  -21.2752   18.6723 C   0  0  0  0  0  0  0  0  0  0  0  0
    6.9070  -20.7069   19.8198 C   0  0  2  0  0  0  0  0  0  0  0  0
    5.5373  -20.3912   19.5733 N   0  0  0  0  0  0  0  0  0  0  0  0
    7.6061  -19.4921   20.3476 C   0  0  0  0  0  0  0  0  0  0  0  0
    8.8524  -19.6000   20.6151 O   0  0  0  0  0  0  0  0  0  0  0  0
    9.5865  -12.7164   18.4639 N   0  0  0  0  0  0  0  0  0  0  0  0
    8.6536  -12.0375   19.2924 C   0  0  0  0  0  0  0  0  0  0  0  0
    8.4895  -10.7646   19.1789 N   0  0  0  0  0  0  0  0  0  0  0  0
    7.9152  -12.7946   20.2383 N   0  0  0  0  0  0  0  0  0  0  0  0
    8.2822  -14.1650   20.5119 C   0  0  0  0  0  0  0  0  0  0  0  0
    7.3113  -14.6899   21.5782 C   0  0  0  0  0  0  0  0  0  0  0  0
    6.6224  -15.9319   21.0987 C   0  0  0  0  0  0  0  0  0  0  0  0
    7.6038  -17.0657   20.9903 C   0  0  2  0  0  0  0  0  0  0  0  0
    6.9160  -18.2805   20.5408 N   0  0  0  0  0  0  0  0  0  0  0  0
    8.1833  -17.3645   22.3070 C   0  0  0  0  0  0  0  0  0  0  0  0
    7.4970  -17.6727   23.3256 O   0  0  0  0  0  0  0  0  0  0  0  0
    7.8692  -10.2243   19.8163 N   0  0  0  0  0  0  0  0  0  0  0  0
   12.9840  -20.9721   27.7577 C   0  0  0  0  0  0  0  0  0  0  0  0
   13.5930  -21.4136   26.5524 N   0  0  0  0  0  0  0  0  0  0  0  0
   14.5820  -22.2204   26.6289 N   0  0  0  0  0  0  0  0  0  0  0  0
   13.1230  -20.9740   25.2801 C   0  0  0  0  0  0  0  0  0  0  0  0
   13.0258  -19.5553   25.0514 C   0  0  0  0  0  0  0  0  0  0  0  0
   11.5699  -19.0830   25.1526 C   0  0  0  0  0  0  0  0  0  0  0  0
   11.0072  -18.8060   23.7977 C   0  0  1  0  0  0  0  0  0  0  0  0
   10.1156  -17.5909   23.8282 N   0  0  0  0  0  0  0  0  0  0  0  0
    9.6070  -17.3130   22.4848 C   0  0  0  0  0  0  0  0  0  0  0  0
   10.9230  -16.4264   24.2768 O   0  0  0  0  0  0  0  0  0  0  0  0
   11.4118  -15.5473   23.5583 O   0  0  0  0  0  0  0  0  0  0  0  0
  2  1  1  0
  3  2  2  0
  4  2  1  0
  4  5  1  0
  5  6  1  6
  7  8  2  0
  7  5  1  0
  9 10  1  0
 10 12  1  0
 11 10  2  0
 12 13  1  0
 13 14  1  0
 14 15  1  0
 16 15  1  1
 16 17  1  0
 17  7  1  0
 18 16  1  0
 19 18  2  0
 20 21  1  0
 21 22  2  0
 23 21  1  0
 23 24  1  0
 24 25  1  0
 25 26  1  0
 27 26  1  1
 27 28  1  0
 28 18  1  0
 29 27  1  0
 30 29  2  0
 31 29  1  0
M  END
$$$$
