NRR.pdb
     RDKit          3D

 31 30  0  0  1  0  0  0  0  0999 V2000
    6.8717  -20.2838   23.7690 N   0  0  0  0  0  0  0  0  0  0  0  0
    6.2519  -19.5120   24.7996 C   0  0  0  0  0  0  0  0  0  0  0  0
    6.3614  -19.8191   25.9965 O   0  0  0  0  0  0  0  0  0  0  0  0
    5.4794  -18.3376   24.3699 C   0  0  0  0  0  0  0  0  0  0  0  0
    5.4632  -18.2162   22.8863 C   0  0  2  0  0  0  0  0  0  0  0  0
    5.3652  -19.4384   22.1562 N   0  0  0  0  0  0  0  0  0  0  0  0
    6.6673  -17.4578   22.4194 C   0  0  0  0  0  0  0  0  0  0  0  0
    7.7220  -18.1322   22.1561 O   0  0  0  0  0  0  0  0  0  0  0  0
    8.4564  -12.5799   17.1198 N   0  0  0  0  0  0  0  0  0  0  0  0
    8.8960  -13.5454   18.0643 C   0  0  0  0  0  0  0  0  0  0  0  0
    9.9207  -14.2839   17.8099 N   0  0  0  0  0  0  0  0  0  0  0  0
    8.1813  -13.6707   19.2835 N   0  0  0  0  0  0  0  0  0  0  0  0
    6.7366  -13.6537   19.2794 C   0  0  0  0  0  0  0  0  0  0  0  0
    6.2783  -13.7273   20.7421 C   0  0  0  0  0  0  0  0  0  0  0  0
    7.4578  -13.8539   21.6586 C   0  0  0  0  0  0  0  0  0  0  0  0
    7.8182  -15.3009   21.8503 C   0  0  2  0  0  0  0  0  0  0  0  0
    6.6366  -16.0577   22.2769 N   0  0  0  0  0  0  0  0  0  0  0  0
    8.8215  -15.4385   22.9149 C   0  0  0  0  0  0  0  0  0  0  0  0
    8.5889  -15.2043   24.1373 O   0  0  0  0  0  0  0  0  0  0  0  0
   10.2258  -15.0502   18.4445 N   0  0  0  0  0  0  0  0  0  0  0  0
   10.6360  -21.1339   28.0044 C   0  0  0  0  0  0  0  0  0  0  0  0
   11.8075  -20.3514   28.1885 N   0  0  0  0  0  0  0  0  0  0  0  0
   12.6695  -20.7376   29.0503 N   0  0  0  0  0  0  0  0  0  0  0  0
   12.0289  -19.1600   27.4371 C   0  0  0  0  0  0  0  0  0  0  0  0
   11.0932  -18.8407   26.3897 C   0  0  0  0  0  0  0  0  0  0  0  0
   11.5860  -17.6481   25.5603 C   0  0  0  0  0  0  0  0  0  0  0  0
   10.6257  -17.3342   24.4610 C   0  0  1  0  0  0  0  0  0  0  0  0
   11.0644  -16.1070   23.7033 N   0  0  0  0  0  0  0  0  0  0  0  0
   10.1536  -15.8605   22.5851 C   0  0  0  0  0  0  0  0  0  0  0  0
   12.4249  -16.3527   23.1577 O   0  0  0  0  0  0  0  0  0  0  0  0
   12.7185  -16.5634   21.9756 O   0  0  0  0  0  0  0  0  0  0  0  0
  2  1  1  0
  3  2  2  0
  4  2  1  0
  4  5  1  0
  5  6  1  6
  7  8  2  0
  7  5  1  0
  9 10  1  0
 10 12  1  0
 11 10  2  0
 12 13  1  0
 13 14  1  0
 14 15  1  0
 16 15  1  1
 16 17  1  0
 17  7  1  0
 18 16  1  0
 19 18  2  0
 20 21  1  0
 21 22  2  0
 23 21  1  0
 23 24  1  0
 24 25  1  0
 25 26  1  0
 27 26  1  1
 27 28  1  0
 28 18  1  0
 29 27  1  0
 30 29  2  0
 31 29  1  0
M  END
$$$$
