NRR.pdb
     RDKit          3D

 31 30  0  0  1  0  0  0  0  0999 V2000
    5.0484  -23.9753   22.3755 N   0  0  0  0  0  0  0  0  0  0  0  0
    5.6552  -23.1208   21.4043 C   0  0  0  0  0  0  0  0  0  0  0  0
    6.3420  -23.5760   20.4768 O   0  0  0  0  0  0  0  0  0  0  0  0
    5.4246  -21.6774   21.5598 C   0  0  0  0  0  0  0  0  0  0  0  0
    4.6300  -21.3873   22.7847 C   0  0  2  0  0  0  0  0  0  0  0  0
    3.2660  -21.0225   22.5780 N   0  0  0  0  0  0  0  0  0  0  0  0
    5.3067  -20.3267   23.5973 C   0  0  0  0  0  0  0  0  0  0  0  0
    4.6913  -19.2147   23.7430 O   0  0  0  0  0  0  0  0  0  0  0  0
   10.0930  -16.4431   28.6565 N   0  0  0  0  0  0  0  0  0  0  0  0
    9.9370  -17.7697   29.1398 C   0  0  0  0  0  0  0  0  0  0  0  0
    9.2169  -18.0009   30.1829 N   0  0  0  0  0  0  0  0  0  0  0  0
   10.5902  -18.8214   28.4468 N   0  0  0  0  0  0  0  0  0  0  0  0
    9.8129  -19.8612   27.8126 C   0  0  0  0  0  0  0  0  0  0  0  0
    8.9190  -19.1838   26.7652 C   0  0  0  0  0  0  0  0  0  0  0  0
    8.0797  -20.2001   26.0512 C   0  0  0  0  0  0  0  0  0  0  0  0
    7.2232  -19.5335   25.0108 C   0  0  2  0  0  0  0  0  0  0  0  0
    6.5705  -20.5478   24.1765 N   0  0  0  0  0  0  0  0  0  0  0  0
    8.0533  -18.7142   24.1173 C   0  0  0  0  0  0  0  0  0  0  0  0
    8.9998  -19.1759   23.4141 O   0  0  0  0  0  0  0  0  0  0  0  0
    9.0041  -18.9657   30.5096 N   0  0  0  0  0  0  0  0  0  0  0  0
    8.5383  -12.7847   17.3171 C   0  0  0  0  0  0  0  0  0  0  0  0
    8.1299  -12.5710   18.6610 N   0  0  0  0  0  0  0  0  0  0  0  0
    7.1414  -11.7904   18.8811 N   0  0  0  0  0  0  0  0  0  0  0  0
    8.7988  -13.2051   19.7489 C   0  0  0  0  0  0  0  0  0  0  0  0
    7.9919  -13.8609   20.7456 C   0  0  0  0  0  0  0  0  0  0  0  0
    8.8617  -14.3884   21.8937 C   0  0  0  0  0  0  0  0  0  0  0  0
    8.0409  -15.1739   22.8625 C   0  0  1  0  0  0  0  0  0  0  0  0
    8.5959  -16.5659   23.0266 N   0  0  0  0  0  0  0  0  0  0  0  0
    7.8048  -17.3041   24.0114 C   0  0  0  0  0  0  0  0  0  0  0  0
    9.9914  -16.4596   23.5270 O   0  0  0  0  0  0  0  0  0  0  0  0
   10.3843  -16.7029   24.6735 O   0  0  0  0  0  0  0  0  0  0  0  0
  2  1  1  0
  3  2  2  0
  4  2  1  0
  4  5  1  0
  5  6  1  6
  7  8  2  0
  7  5  1  0
  9 10  1  0
 10 12  1  0
 11 10  2  0
 12 13  1  0
 13 14  1  0
 14 15  1  0
 16 15  1  1
 16 17  1  0
 17  7  1  0
 18 16  1  0
 19 18  2  0
 20 21  1  0
 21 22  2  0
 23 21  1  0
 23 24  1  0
 24 25  1  0
 25 26  1  0
 27 26  1  6
 27 28  1  0
 28 18  1  0
 29 27  1  0
 30 29  2  0
 31 29  1  0
M  END
$$$$
