NRR.pdb
     RDKit          3D

 31 30  0  0  1  0  0  0  0  0999 V2000
    9.2009  -13.7095   13.9730 N   0  0  0  0  0  0  0  0  0  0  0  0
    8.4559  -14.6010   14.8048 C   0  0  0  0  0  0  0  0  0  0  0  0
    7.3784  -15.0899   14.4321 O   0  0  0  0  0  0  0  0  0  0  0  0
    9.0304  -14.9088   16.1224 C   0  0  0  0  0  0  0  0  0  0  0  0
    8.0414  -14.6741   17.2099 C   0  0  2  0  0  0  0  0  0  0  0  0
    7.5983  -13.3281   17.3776 N   0  0  0  0  0  0  0  0  0  0  0  0
    8.5789  -15.1824   18.5122 C   0  0  0  0  0  0  0  0  0  0  0  0
    9.1803  -14.3437   19.2681 O   0  0  0  0  0  0  0  0  0  0  0  0
    8.2666  -23.2643   21.2345 N   0  0  0  0  0  0  0  0  0  0  0  0
    9.4438  -22.6665   20.7104 C   0  0  0  0  0  0  0  0  0  0  0  0
   10.3534  -23.3951   20.1610 N   0  0  0  0  0  0  0  0  0  0  0  0
    9.5863  -21.2583   20.8081 N   0  0  0  0  0  0  0  0  0  0  0  0
    8.7917  -20.5157   21.7593 C   0  0  0  0  0  0  0  0  0  0  0  0
    9.1545  -19.0338   21.5938 C   0  0  0  0  0  0  0  0  0  0  0  0
    8.6045  -18.4966   20.3070 C   0  0  0  0  0  0  0  0  0  0  0  0
    8.9304  -17.0354   20.1684 C   0  0  2  0  0  0  0  0  0  0  0  0
    8.4270  -16.5308   18.8867 N   0  0  0  0  0  0  0  0  0  0  0  0
   10.3863  -16.8372   20.1640 C   0  0  0  0  0  0  0  0  0  0  0  0
   11.1007  -16.8825   19.1195 O   0  0  0  0  0  0  0  0  0  0  0  0
   11.2206  -22.9892   19.7534 N   0  0  0  0  0  0  0  0  0  0  0  0
   15.6680  -14.6791   16.3693 C   0  0  0  0  0  0  0  0  0  0  0  0
   16.3762  -14.1184   17.4659 N   0  0  0  0  0  0  0  0  0  0  0  0
   17.5521  -13.6597   17.2618 N   0  0  0  0  0  0  0  0  0  0  0  0
   15.8013  -14.0632   18.7695 C   0  0  0  0  0  0  0  0  0  0  0  0
   14.4061  -14.3944   18.9049 C   0  0  0  0  0  0  0  0  0  0  0  0
   13.9983  -14.4534   20.3824 C   0  0  0  0  0  0  0  0  0  0  0  0
   12.5730  -14.8753   20.5223 C   0  0  2  0  0  0  0  0  0  0  0  0
   12.4711  -16.1613   21.3023 N   0  0  0  0  0  0  0  0  0  0  0  0
   11.0711  -16.5754   21.3984 C   0  0  0  0  0  0  0  0  0  0  0  0
   12.9867  -15.9204   22.6753 O   0  0  0  0  0  0  0  0  0  0  0  0
   12.3201  -15.8700   23.7152 O   0  0  0  0  0  0  0  0  0  0  0  0
  2  1  1  0
  3  2  2  0
  4  2  1  0
  4  5  1  0
  5  6  1  1
  7  8  2  0
  7  5  1  0
  9 10  1  0
 10 12  1  0
 11 10  2  0
 12 13  1  0
 13 14  1  0
 14 15  1  0
 16 15  1  6
 16 17  1  0
 17  7  1  0
 18 16  1  0
 19 18  2  0
 20 21  1  0
 21 22  2  0
 23 21  1  0
 23 24  1  0
 24 25  1  0
 25 26  1  0
 27 26  1  6
 27 28  1  0
 28 18  1  0
 29 27  1  0
 30 29  2  0
 31 29  1  0
M  END
$$$$
