NRR.pdb
     RDKit          3D

 31 30  0  0  1  0  0  0  0  0999 V2000
   14.9870  -18.7509   18.6224 N   0  0  0  0  0  0  0  0  0  0  0  0
   13.7954  -18.1905   19.1773 C   0  0  0  0  0  0  0  0  0  0  0  0
   13.7543  -17.0170   19.5776 O   0  0  0  0  0  0  0  0  0  0  0  0
   12.6227  -19.0739   19.2495 C   0  0  0  0  0  0  0  0  0  0  0  0
   12.2723  -19.3905   20.6612 C   0  0  2  0  0  0  0  0  0  0  0  0
   11.4188  -20.5166   20.8601 N   0  0  0  0  0  0  0  0  0  0  0  0
   11.6676  -18.1903   21.3223 C   0  0  0  0  0  0  0  0  0  0  0  0
   12.4683  -17.3413   21.8464 O   0  0  0  0  0  0  0  0  0  0  0  0
    7.9543  -11.8499   21.1373 N   0  0  0  0  0  0  0  0  0  0  0  0
    8.0694  -12.4606   19.8600 C   0  0  0  0  0  0  0  0  0  0  0  0
    8.6446  -11.8365   18.8906 N   0  0  0  0  0  0  0  0  0  0  0  0
    7.5383  -13.7646   19.6853 N   0  0  0  0  0  0  0  0  0  0  0  0
    6.9164  -14.4466   20.7969 C   0  0  0  0  0  0  0  0  0  0  0  0
    8.0447  -14.9982   21.6787 C   0  0  0  0  0  0  0  0  0  0  0  0
    8.5906  -16.2699   21.1025 C   0  0  0  0  0  0  0  0  0  0  0  0
    9.6698  -16.8253   21.9899 C   0  0  2  0  0  0  0  0  0  0  0  0
   10.2726  -18.0065   21.3637 N   0  0  0  0  0  0  0  0  0  0  0  0
    9.0993  -17.2643   23.2707 C   0  0  0  0  0  0  0  0  0  0  0  0
    8.4253  -18.3265   23.4151 O   0  0  0  0  0  0  0  0  0  0  0  0
    8.6448  -12.2013   17.9160 N   0  0  0  0  0  0  0  0  0  0  0  0
    7.8113  -22.4283   28.8271 C   0  0  0  0  0  0  0  0  0  0  0  0
    6.7384  -22.0142   27.9930 N   0  0  0  0  0  0  0  0  0  0  0  0
    6.0849  -22.9069   27.3519 N   0  0  0  0  0  0  0  0  0  0  0  0
    6.3884  -20.6381   27.8635 C   0  0  0  0  0  0  0  0  0  0  0  0
    6.7076  -19.9756   26.6251 C   0  0  0  0  0  0  0  0  0  0  0  0
    7.9086  -19.0374   26.7999 C   0  0  0  0  0  0  0  0  0  0  0  0
    8.2866  -18.4124   25.4977 C   0  0  1  0  0  0  0  0  0  0  0  0
    8.7753  -17.0014   25.7049 N   0  0  0  0  0  0  0  0  0  0  0  0
    9.2979  -16.4661   24.4475 C   0  0  0  0  0  0  0  0  0  0  0  0
    9.8782  -17.0274   26.7008 O   0  0  0  0  0  0  0  0  0  0  0  0
    9.7801  -16.8197   27.9154 O   0  0  0  0  0  0  0  0  0  0  0  0
  2  1  1  0
  3  2  2  0
  4  2  1  0
  4  5  1  0
  5  6  1  6
  7  8  2  0
  7  5  1  0
  9 10  1  0
 10 12  1  0
 11 10  2  0
 12 13  1  0
 13 14  1  0
 14 15  1  0
 16 15  1  6
 16 17  1  0
 17  7  1  0
 18 16  1  0
 19 18  2  0
 20 21  1  0
 21 22  2  0
 23 21  1  0
 23 24  1  0
 24 25  1  0
 25 26  1  0
 27 26  1  6
 27 28  1  0
 28 18  1  0
 29 27  1  0
 30 29  2  0
 31 29  1  0
M  END
$$$$
