NRR.pdb
     RDKit          3D

 31 30  0  0  1  0  0  0  0  0999 V2000
    7.1166  -12.7199   17.7198 N   0  0  0  0  0  0  0  0  0  0  0  0
    7.1505  -14.0309   17.1524 C   0  0  0  0  0  0  0  0  0  0  0  0
    7.3096  -14.2082   15.9350 O   0  0  0  0  0  0  0  0  0  0  0  0
    6.9877  -15.1568   18.0834 C   0  0  0  0  0  0  0  0  0  0  0  0
    8.2957  -15.8004   18.3850 C   0  0  2  0  0  0  0  0  0  0  0  0
    8.9670  -16.4081   17.2821 N   0  0  0  0  0  0  0  0  0  0  0  0
    8.1318  -16.8095   19.4796 C   0  0  0  0  0  0  0  0  0  0  0  0
    7.4892  -16.4455   20.5241 O   0  0  0  0  0  0  0  0  0  0  0  0
   10.3673  -21.4104   16.5062 N   0  0  0  0  0  0  0  0  0  0  0  0
    9.5794  -22.3709   17.1949 C   0  0  0  0  0  0  0  0  0  0  0  0
   10.1138  -23.4608   17.6270 N   0  0  0  0  0  0  0  0  0  0  0  0
    8.2011  -22.0973   17.3913 N   0  0  0  0  0  0  0  0  0  0  0  0
    7.6037  -22.2931   18.6921 C   0  0  0  0  0  0  0  0  0  0  0  0
    7.4512  -20.9076   19.3340 C   0  0  0  0  0  0  0  0  0  0  0  0
    8.7454  -20.4652   19.9475 C   0  0  0  0  0  0  0  0  0  0  0  0
    8.6225  -19.0618   20.4728 C   0  0  2  0  0  0  0  0  0  0  0  0
    8.6654  -18.1067   19.3607 N   0  0  0  0  0  0  0  0  0  0  0  0
    9.7571  -18.7464   21.3515 C   0  0  0  0  0  0  0  0  0  0  0  0
   10.9252  -18.4954   20.9318 O   0  0  0  0  0  0  0  0  0  0  0  0
    9.6055  -24.1209   18.2505 N   0  0  0  0  0  0  0  0  0  0  0  0
   10.8321  -13.5906   19.1503 C   0  0  0  0  0  0  0  0  0  0  0  0
   12.1190  -13.8249   19.7049 N   0  0  0  0  0  0  0  0  0  0  0  0
   13.1242  -13.8685   18.9158 N   0  0  0  0  0  0  0  0  0  0  0  0
   12.2995  -14.0102   21.1070 C   0  0  0  0  0  0  0  0  0  0  0  0
   11.1819  -14.5023   21.8707 C   0  0  0  0  0  0  0  0  0  0  0  0
   11.4181  -15.9515   22.3148 C   0  0  0  0  0  0  0  0  0  0  0  0
   10.2988  -16.4298   23.1795 C   0  0  2  0  0  0  0  0  0  0  0  0
   10.4890  -17.8798   23.5452 N   0  0  0  0  0  0  0  0  0  0  0  0
    9.5659  -18.7127   22.7740 C   0  0  0  0  0  0  0  0  0  0  0  0
   10.1787  -18.0451   24.9893 O   0  0  0  0  0  0  0  0  0  0  0  0
    9.1142  -18.4453   25.4738 O   0  0  0  0  0  0  0  0  0  0  0  0
  2  1  1  0
  3  2  2  0
  4  2  1  0
  4  5  1  0
  5  6  1  6
  7  8  2  0
  7  5  1  0
  9 10  1  0
 10 12  1  0
 11 10  2  0
 12 13  1  0
 13 14  1  0
 14 15  1  0
 16 15  1  6
 16 17  1  0
 17  7  1  0
 18 16  1  0
 19 18  2  0
 20 21  1  0
 21 22  2  0
 23 21  1  0
 23 24  1  0
 24 25  1  0
 25 26  1  0
 27 26  1  6
 27 28  1  0
 28 18  1  0
 29 27  1  0
 30 29  2  0
 31 29  1  0
M  END
$$$$
