NRR.pdb
     RDKit          3D

 31 30  0  0  1  0  0  0  0  0999 V2000
    5.8887  -22.9843   25.9059 N   0  0  0  0  0  0  0  0  0  0  0  0
    5.3899  -21.7785   25.3236 C   0  0  0  0  0  0  0  0  0  0  0  0
    4.1771  -21.5181   25.3071 O   0  0  0  0  0  0  0  0  0  0  0  0
    6.3854  -20.8639   24.7463 C   0  0  0  0  0  0  0  0  0  0  0  0
    6.0345  -20.4992   23.3464 C   0  0  2  0  0  0  0  0  0  0  0  0
    5.9125  -21.5827   22.4257 N   0  0  0  0  0  0  0  0  0  0  0  0
    7.0198  -19.5060   22.8116 C   0  0  0  0  0  0  0  0  0  0  0  0
    8.1317  -19.9592   22.3703 O   0  0  0  0  0  0  0  0  0  0  0  0
    7.4828  -12.7823   17.6881 N   0  0  0  0  0  0  0  0  0  0  0  0
    8.4236  -12.6588   18.7451 C   0  0  0  0  0  0  0  0  0  0  0  0
    9.6644  -12.4263   18.4869 N   0  0  0  0  0  0  0  0  0  0  0  0
    7.9615  -12.7968   20.0794 N   0  0  0  0  0  0  0  0  0  0  0  0
    7.0244  -13.8442   20.4149 C   0  0  0  0  0  0  0  0  0  0  0  0
    7.8251  -14.9736   21.0769 C   0  0  0  0  0  0  0  0  0  0  0  0
    6.9089  -15.9223   21.7893 C   0  0  0  0  0  0  0  0  0  0  0  0
    7.6596  -17.1529   22.2166 C   0  0  2  0  0  0  0  0  0  0  0  0
    6.7307  -18.1284   22.7966 N   0  0  0  0  0  0  0  0  0  0  0  0
    8.6347  -16.8162   23.2629 C   0  0  0  0  0  0  0  0  0  0  0  0
    8.3334  -16.2338   24.3462 O   0  0  0  0  0  0  0  0  0  0  0  0
   10.3863  -12.3651   19.2339 N   0  0  0  0  0  0  0  0  0  0  0  0
    9.1403  -21.1297   25.2100 C   0  0  0  0  0  0  0  0  0  0  0  0
    9.4720  -21.2168   26.5887 N   0  0  0  0  0  0  0  0  0  0  0  0
    8.6657  -21.8255   27.3725 N   0  0  0  0  0  0  0  0  0  0  0  0
   10.6724  -20.6421   27.1002 C   0  0  0  0  0  0  0  0  0  0  0  0
   11.5164  -19.9188   26.1841 C   0  0  0  0  0  0  0  0  0  0  0  0
   10.8206  -18.6449   25.6881 C   0  0  0  0  0  0  0  0  0  0  0  0
   11.6682  -17.9345   24.6851 C   0  0  2  0  0  0  0  0  0  0  0  0
   10.9454  -16.7334   24.1305 N   0  0  0  0  0  0  0  0  0  0  0  0
   10.0183  -17.1522   23.0789 C   0  0  0  0  0  0  0  0  0  0  0  0
   11.9498  -15.8140   23.5347 O   0  0  0  0  0  0  0  0  0  0  0  0
   12.0861  -15.5480   22.3353 O   0  0  0  0  0  0  0  0  0  0  0  0
  2  1  1  0
  3  2  2  0
  4  2  1  0
  4  5  1  0
  5  6  1  6
  7  8  2  0
  7  5  1  0
  9 10  1  0
 10 12  1  0
 11 10  2  0
 12 13  1  0
 13 14  1  0
 14 15  1  0
 16 15  1  1
 16 17  1  0
 17  7  1  0
 18 16  1  0
 19 18  2  0
 20 21  1  0
 21 22  2  0
 23 21  1  0
 23 24  1  0
 24 25  1  0
 25 26  1  0
 27 26  1  1
 27 28  1  0
 28 18  1  0
 29 27  1  0
 30 29  2  0
 31 29  1  0
M  END
$$$$
