NRR.pdb
     RDKit          3D

 31 30  0  0  1  0  0  0  0  0999 V2000
   13.7250  -16.9460   11.6474 N   0  0  0  0  0  0  0  0  0  0  0  0
   12.6654  -17.5015   12.4289 C   0  0  0  0  0  0  0  0  0  0  0  0
   12.2773  -18.6678   12.2619 O   0  0  0  0  0  0  0  0  0  0  0  0
   12.0599  -16.6218   13.4390 C   0  0  0  0  0  0  0  0  0  0  0  0
   11.8803  -17.3324   14.7347 C   0  0  2  0  0  0  0  0  0  0  0  0
   10.7416  -18.1871   14.8310 N   0  0  0  0  0  0  0  0  0  0  0  0
   11.8542  -16.3468   15.8621 C   0  0  0  0  0  0  0  0  0  0  0  0
   12.8575  -15.5621   15.9811 O   0  0  0  0  0  0  0  0  0  0  0  0
    6.6153  -14.8995   17.3613 N   0  0  0  0  0  0  0  0  0  0  0  0
    7.0833  -13.5694   17.1900 C   0  0  0  0  0  0  0  0  0  0  0  0
    6.9794  -12.9860   16.0459 N   0  0  0  0  0  0  0  0  0  0  0  0
    7.6620  -12.9090   18.3045 N   0  0  0  0  0  0  0  0  0  0  0  0
    7.8524  -13.6206   19.5474 C   0  0  0  0  0  0  0  0  0  0  0  0
    9.2613  -14.2278   19.5107 C   0  0  0  0  0  0  0  0  0  0  0  0
    9.3488  -15.2945   18.4611 C   0  0  0  0  0  0  0  0  0  0  0  0
   10.7239  -15.3191   17.8537 C   0  0  2  0  0  0  0  0  0  0  0  0
   10.7670  -16.2889   16.7544 N   0  0  0  0  0  0  0  0  0  0  0  0
   11.7119  -15.7568   18.8492 C   0  0  0  0  0  0  0  0  0  0  0  0
   11.7459  -16.9221   19.3436 O   0  0  0  0  0  0  0  0  0  0  0  0
    7.3078  -12.0116   15.8861 N   0  0  0  0  0  0  0  0  0  0  0  0
   18.3714  -15.6142   18.6613 C   0  0  0  0  0  0  0  0  0  0  0  0
   18.3372  -14.5433   17.7283 N   0  0  0  0  0  0  0  0  0  0  0  0
   18.9656  -14.6774   16.6228 N   0  0  0  0  0  0  0  0  0  0  0  0
   17.6234  -13.3407   18.0059 C   0  0  0  0  0  0  0  0  0  0  0  0
   16.7901  -13.3079   19.1803 C   0  0  0  0  0  0  0  0  0  0  0  0
   15.6545  -14.3336   19.0745 C   0  0  0  0  0  0  0  0  0  0  0  0
   14.8671  -14.3849   20.3420 C   0  0  2  0  0  0  0  0  0  0  0  0
   13.7264  -15.3633   20.2225 N   0  0  0  0  0  0  0  0  0  0  0  0
   12.7112  -14.8351   19.3110 C   0  0  0  0  0  0  0  0  0  0  0  0
   13.1115  -15.5346   21.5648 O   0  0  0  0  0  0  0  0  0  0  0  0
   12.0515  -15.0358   21.9594 O   0  0  0  0  0  0  0  0  0  0  0  0
  2  1  1  0
  3  2  2  0
  4  2  1  0
  4  5  1  0
  5  6  1  6
  7  8  2  0
  7  5  1  0
  9 10  1  0
 10 12  1  0
 11 10  2  0
 12 13  1  0
 13 14  1  0
 14 15  1  0
 16 15  1  1
 16 17  1  0
 17  7  1  0
 18 16  1  0
 19 18  2  0
 20 21  1  0
 21 22  2  0
 23 21  1  0
 23 24  1  0
 24 25  1  0
 25 26  1  0
 27 26  1  6
 27 28  1  0
 28 18  1  0
 29 27  1  0
 30 29  2  0
 31 29  1  0
M  END
$$$$
