NRR.pdb
     RDKit          3D

 31 30  0  0  1  0  0  0  0  0999 V2000
   16.6345  -13.7291   18.4547 N   0  0  0  0  0  0  0  0  0  0  0  0
   15.3933  -13.9080   17.7697 C   0  0  0  0  0  0  0  0  0  0  0  0
   15.3523  -14.2191   16.5695 O   0  0  0  0  0  0  0  0  0  0  0  0
   14.1695  -13.7051   18.5584 C   0  0  0  0  0  0  0  0  0  0  0  0
   13.5714  -15.0049   18.9696 C   0  0  2  0  0  0  0  0  0  0  0  0
   12.9658  -15.7749   17.9320 N   0  0  0  0  0  0  0  0  0  0  0  0
   12.5766  -14.7884   20.0681 C   0  0  0  0  0  0  0  0  0  0  0  0
   13.0115  -14.3015   21.1682 O   0  0  0  0  0  0  0  0  0  0  0  0
    8.1101  -12.6295   16.5973 N   0  0  0  0  0  0  0  0  0  0  0  0
    7.7500  -13.9856   16.8182 C   0  0  0  0  0  0  0  0  0  0  0  0
    7.9880  -14.8763   15.9181 N   0  0  0  0  0  0  0  0  0  0  0  0
    7.1276  -14.3269   18.0467 N   0  0  0  0  0  0  0  0  0  0  0  0
    7.1591  -13.4002   19.1547 C   0  0  0  0  0  0  0  0  0  0  0  0
    8.5724  -13.4539   19.7504 C   0  0  0  0  0  0  0  0  0  0  0  0
    8.8459  -14.8054   20.3385 C   0  0  0  0  0  0  0  0  0  0  0  0
   10.2234  -14.8452   20.9395 C   0  0  2  0  0  0  0  0  0  0  0  0
   11.2172  -15.1093   19.8937 N   0  0  0  0  0  0  0  0  0  0  0  0
   10.3229  -15.9429   21.9111 C   0  0  0  0  0  0  0  0  0  0  0  0
   10.6283  -17.1323   21.6021 O   0  0  0  0  0  0  0  0  0  0  0  0
    7.7708  -15.8839   16.0610 N   0  0  0  0  0  0  0  0  0  0  0  0
   10.3592  -15.7646   30.5999 C   0  0  0  0  0  0  0  0  0  0  0  0
   10.6618  -15.0104   29.4344 N   0  0  0  0  0  0  0  0  0  0  0  0
   10.9763  -13.7785   29.5700 N   0  0  0  0  0  0  0  0  0  0  0  0
   10.6183  -15.6008   28.1373 C   0  0  0  0  0  0  0  0  0  0  0  0
   10.2525  -16.9906   28.0418 C   0  0  0  0  0  0  0  0  0  0  0  0
   10.3253  -17.4772   26.5890 C   0  0  0  0  0  0  0  0  0  0  0  0
   10.0859  -16.3498   25.6399 C   0  0  2  0  0  0  0  0  0  0  0  0
   10.1718  -16.8264   24.2123 N   0  0  0  0  0  0  0  0  0  0  0  0
   10.0649  -15.6874   23.3002 C   0  0  0  0  0  0  0  0  0  0  0  0
    9.0326  -17.7455   23.9542 O   0  0  0  0  0  0  0  0  0  0  0  0
    8.8982  -18.8941   24.3909 O   0  0  0  0  0  0  0  0  0  0  0  0
  2  1  1  0
  3  2  2  0
  4  2  1  0
  4  5  1  0
  5  6  1  6
  7  8  2  0
  7  5  1  0
  9 10  1  0
 10 12  1  0
 11 10  2  0
 12 13  1  0
 13 14  1  0
 14 15  1  0
 16 15  1  6
 16 17  1  0
 17  7  1  0
 18 16  1  0
 19 18  2  0
 20 21  1  0
 21 22  2  0
 23 21  1  0
 23 24  1  0
 24 25  1  0
 25 26  1  0
 27 26  1  1
 27 28  1  0
 28 18  1  0
 29 27  1  0
 30 29  2  0
 31 29  1  0
M  END
$$$$
