NRR.pdb
     RDKit          3D

 31 30  0  0  1  0  0  0  0  0999 V2000
   14.8413  -14.5131   15.3784 N   0  0  0  0  0  0  0  0  0  0  0  0
   14.9910  -14.7258   16.7834 C   0  0  0  0  0  0  0  0  0  0  0  0
   16.0880  -15.0186   17.2831 O   0  0  0  0  0  0  0  0  0  0  0  0
   13.7809  -14.5801   17.6052 C   0  0  0  0  0  0  0  0  0  0  0  0
   14.0875  -14.7518   19.0517 C   0  0  2  0  0  0  0  0  0  0  0  0
   14.7360  -15.9694   19.4170 N   0  0  0  0  0  0  0  0  0  0  0  0
   12.8392  -14.5947   19.8640 C   0  0  0  0  0  0  0  0  0  0  0  0
   12.2072  -13.4869   19.7636 O   0  0  0  0  0  0  0  0  0  0  0  0
    7.4175  -14.5497   17.0628 N   0  0  0  0  0  0  0  0  0  0  0  0
    7.7260  -13.2758   17.6102 C   0  0  0  0  0  0  0  0  0  0  0  0
    6.9151  -12.2870   17.4528 N   0  0  0  0  0  0  0  0  0  0  0  0
    8.9405  -13.1262   18.3283 N   0  0  0  0  0  0  0  0  0  0  0  0
    9.7012  -14.2928   18.7127 C   0  0  0  0  0  0  0  0  0  0  0  0
    9.2267  -14.7017   20.1137 C   0  0  0  0  0  0  0  0  0  0  0  0
    9.9697  -15.9136   20.5895 C   0  0  0  0  0  0  0  0  0  0  0  0
   11.1289  -15.5091   21.4575 C   0  0  2  0  0  0  0  0  0  0  0  0
   12.3818  -15.6273   20.7044 N   0  0  0  0  0  0  0  0  0  0  0  0
   11.2378  -16.4100   22.6130 C   0  0  0  0  0  0  0  0  0  0  0  0
   10.5722  -17.4801   22.7377 O   0  0  0  0  0  0  0  0  0  0  0  0
    7.1642  -11.3141   17.7253 N   0  0  0  0  0  0  0  0  0  0  0  0
   19.5577  -15.8865   23.1667 C   0  0  0  0  0  0  0  0  0  0  0  0
   19.0789  -16.1829   24.4711 N   0  0  0  0  0  0  0  0  0  0  0  0
   19.8555  -15.9800   25.4664 N   0  0  0  0  0  0  0  0  0  0  0  0
   17.7652  -16.6963   24.6797 C   0  0  0  0  0  0  0  0  0  0  0  0
   16.9736  -17.0131   23.5188 C   0  0  0  0  0  0  0  0  0  0  0  0
   15.5940  -17.5459   23.9258 C   0  0  0  0  0  0  0  0  0  0  0  0
   14.5312  -16.5363   23.6421 C   0  0  2  0  0  0  0  0  0  0  0  0
   13.1705  -17.0797   23.9968 N   0  0  0  0  0  0  0  0  0  0  0  0
   12.1413  -16.0888   23.6814 C   0  0  0  0  0  0  0  0  0  0  0  0
   13.1369  -17.3454   25.4588 O   0  0  0  0  0  0  0  0  0  0  0  0
   13.8228  -18.1689   26.0747 O   0  0  0  0  0  0  0  0  0  0  0  0
  2  1  1  0
  3  2  2  0
  4  2  1  0
  4  5  1  0
  5  6  1  6
  7  8  2  0
  7  5  1  0
  9 10  1  0
 10 12  1  0
 11 10  2  0
 12 13  1  0
 13 14  1  0
 14 15  1  0
 16 15  1  6
 16 17  1  0
 17  7  1  0
 18 16  1  0
 19 18  2  0
 20 21  1  0
 21 22  2  0
 23 21  1  0
 23 24  1  0
 24 25  1  0
 25 26  1  0
 27 26  1  6
 27 28  1  0
 28 18  1  0
 29 27  1  0
 30 29  2  0
 31 29  1  0
M  END
$$$$
