FKG.pdb
     RDKit          3D

 25 25  0  0  1  0  0  0  0  0999 V2000
   26.3875  -23.3926  -16.7713 N   0  0  0  0  0  0  0  0  0  0  0  0
   27.2065  -24.5808  -16.9515 C   0  0  1  0  0  0  0  0  0  0  0  0
   26.2646  -25.7652  -16.9793 C   0  0  0  0  0  0  0  0  0  0  0  0
   27.0293  -27.0193  -17.2047 C   0  0  0  0  0  0  0  0  0  0  0  0
   26.9889  -27.6993  -18.4177 C   0  0  0  0  0  0  0  0  0  0  0  0
   27.7122  -28.8709  -18.6074 C   0  0  0  0  0  0  0  0  0  0  0  0
   28.4859  -29.3723  -17.5762 C   0  0  0  0  0  0  0  0  0  0  0  0
   28.5429  -28.7237  -16.3747 C   0  0  0  0  0  0  0  0  0  0  0  0
   27.8092  -27.5467  -16.2012 C   0  0  0  0  0  0  0  0  0  0  0  0
   28.0158  -24.4776  -18.1779 C   0  0  0  0  0  0  0  0  0  0  0  0
   27.8295  -23.5335  -18.9740 O   0  0  0  0  0  0  0  0  0  0  0  0
   29.0096  -25.4348  -18.4766 N   0  0  0  0  0  0  0  0  0  0  0  0
   30.4143  -25.1056  -18.7016 C   0  0  1  0  0  0  0  0  0  0  0  0
   31.0761  -24.6020  -17.4792 C   0  0  0  0  0  0  0  0  0  0  0  0
   32.5240  -24.2597  -17.6905 C   0  0  0  0  0  0  0  0  0  0  0  0
   33.4487  -25.2329  -16.9773 C   0  0  0  0  0  0  0  0  0  0  0  0
   34.8976  -24.8307  -17.1549 C   0  0  0  0  0  0  0  0  0  0  0  0
   35.6894  -25.6259  -16.2545 N   0  0  0  0  0  0  0  0  0  0  0  0
   31.0109  -26.2729  -19.3512 C   0  0  0  0  0  0  0  0  0  0  0  0
   32.0285  -26.1490  -20.0724 O   0  0  0  0  0  0  0  0  0  0  0  0
   30.5010  -27.5977  -19.2208 N   0  0  0  0  0  0  0  0  0  0  0  0
   29.6462  -28.2228  -20.1778 C   0  0  0  0  0  0  0  0  0  0  0  0
   30.4066  -28.4270  -21.4373 C   0  0  0  0  0  0  0  0  0  0  0  0
   30.5558  -27.4756  -22.2755 O   0  0  0  0  0  0  0  0  0  0  0  0
   30.9952  -29.6317  -21.7885 O   0  0  0  0  0  0  0  0  0  0  0  0
  2  1  1  6
  3  2  1  0
  4  9  2  0
  4  3  1  0
  5  4  1  0
  6  5  2  0
  6  7  1  0
  7  8  2  0
  8  9  1  0
 10 11  2  0
 10  2  1  0
 12 10  1  0
 13 12  1  0
 13 14  1  1
 14 15  1  0
 15 16  1  0
 17 16  1  0
 17 18  1  0
 19 13  1  0
 20 19  2  0
 21 19  1  0
 22 21  1  0
 23 22  1  0
 23 25  1  0
 24 23  2  0
M  END
$$$$
