FKG.pdb
     RDKit          3D

 25 25  0  0  1  0  0  0  0  0999 V2000
   27.7791  -21.2280   -8.5396 N   0  0  0  0  0  0  0  0  0  0  0  0
   26.5533  -20.4855   -8.2917 C   0  0  1  0  0  0  0  0  0  0  0  0
   26.9424  -19.2311   -7.5394 C   0  0  0  0  0  0  0  0  0  0  0  0
   27.5958  -19.5901   -6.2539 C   0  0  0  0  0  0  0  0  0  0  0  0
   28.9453  -19.3467   -6.0197 C   0  0  0  0  0  0  0  0  0  0  0  0
   29.5366  -19.6904   -4.8097 C   0  0  0  0  0  0  0  0  0  0  0  0
   28.7745  -20.2842   -3.8196 C   0  0  0  0  0  0  0  0  0  0  0  0
   27.4466  -20.5341   -4.0242 C   0  0  0  0  0  0  0  0  0  0  0  0
   26.8682  -20.1820   -5.2470 C   0  0  0  0  0  0  0  0  0  0  0  0
   25.8561  -20.1896   -9.5550 C   0  0  0  0  0  0  0  0  0  0  0  0
   25.1263  -19.1801   -9.6464 O   0  0  0  0  0  0  0  0  0  0  0  0
   25.9966  -21.0328  -10.6785 N   0  0  0  0  0  0  0  0  0  0  0  0
   25.6887  -20.6238  -12.0460 C   0  0  1  0  0  0  0  0  0  0  0  0
   26.8344  -20.8144  -12.9609 C   0  0  0  0  0  0  0  0  0  0  0  0
   26.5323  -20.4111  -14.3766 C   0  0  0  0  0  0  0  0  0  0  0  0
   27.7417  -20.5699  -15.2839 C   0  0  0  0  0  0  0  0  0  0  0  0
   27.4058  -20.1751  -16.7065 C   0  0  0  0  0  0  0  0  0  0  0  0
   28.5555  -20.4553  -17.5249 N   0  0  0  0  0  0  0  0  0  0  0  0
   24.4337  -21.2868  -12.4005 C   0  0  0  0  0  0  0  0  0  0  0  0
   24.3051  -22.5251  -12.2552 O   0  0  0  0  0  0  0  0  0  0  0  0
   23.2968  -20.6024  -12.9210 N   0  0  0  0  0  0  0  0  0  0  0  0
   22.1779  -21.2536  -13.5220 C   0  0  0  0  0  0  0  0  0  0  0  0
   20.9972  -21.0922  -12.6353 C   0  0  0  0  0  0  0  0  0  0  0  0
   20.8833  -20.0745  -11.8729 O   0  0  0  0  0  0  0  0  0  0  0  0
   19.9590  -22.0080  -12.5700 O   0  0  0  0  0  0  0  0  0  0  0  0
  2  1  1  6
  3  2  1  0
  4  9  2  0
  4  3  1  0
  5  4  1  0
  6  5  2  0
  6  7  1  0
  7  8  2  0
  8  9  1  0
 10 11  2  0
 10  2  1  0
 12 10  1  0
 13 12  1  0
 13 14  1  6
 14 15  1  0
 15 16  1  0
 17 16  1  0
 17 18  1  0
 19 13  1  0
 20 19  2  0
 21 19  1  0
 22 21  1  0
 23 22  1  0
 23 25  1  0
 24 23  2  0
M  END
$$$$
