FKG.pdb
     RDKit          3D

 25 25  0  0  1  0  0  0  0  0999 V2000
   17.4523   -9.9549  -10.1400 N   0  0  0  0  0  0  0  0  0  0  0  0
   17.5997   -8.5549  -10.5053 C   0  0  1  0  0  0  0  0  0  0  0  0
   18.0029   -8.5202  -11.9637 C   0  0  0  0  0  0  0  0  0  0  0  0
   19.4689   -8.7272  -12.0921 C   0  0  0  0  0  0  0  0  0  0  0  0
   20.0089   -9.9440  -12.4959 C   0  0  0  0  0  0  0  0  0  0  0  0
   21.3834  -10.1162  -12.6095 C   0  0  0  0  0  0  0  0  0  0  0  0
   22.2316   -9.0633  -12.3173 C   0  0  0  0  0  0  0  0  0  0  0  0
   21.7269   -7.8576  -11.9185 C   0  0  0  0  0  0  0  0  0  0  0  0
   20.3421   -7.7019  -11.8096 C   0  0  0  0  0  0  0  0  0  0  0  0
   16.3532   -7.8131  -10.2491 C   0  0  0  0  0  0  0  0  0  0  0  0
   15.2473   -8.3580  -10.4491 O   0  0  0  0  0  0  0  0  0  0  0  0
   16.3820   -6.4831   -9.7765 N   0  0  0  0  0  0  0  0  0  0  0  0
   15.1862   -5.6881   -9.5114 C   0  0  1  0  0  0  0  0  0  0  0  0
   15.4373   -4.6026   -8.5394 C   0  0  0  0  0  0  0  0  0  0  0  0
   14.2306   -3.7423   -8.2911 C   0  0  0  0  0  0  0  0  0  0  0  0
   13.4224   -4.2263   -7.0979 C   0  0  0  0  0  0  0  0  0  0  0  0
   12.2444   -3.3119   -6.8361 C   0  0  0  0  0  0  0  0  0  0  0  0
   11.5150   -3.8425   -5.7151 N   0  0  0  0  0  0  0  0  0  0  0  0
   14.6503   -5.3041  -10.8174 C   0  0  0  0  0  0  0  0  0  0  0  0
   15.3835   -4.7459  -11.6670 O   0  0  0  0  0  0  0  0  0  0  0  0
   13.2994   -5.5259  -11.2146 N   0  0  0  0  0  0  0  0  0  0  0  0
   12.7359   -5.0456  -12.4349 C   0  0  0  0  0  0  0  0  0  0  0  0
   12.4663   -3.5914  -12.2978 C   0  0  0  0  0  0  0  0  0  0  0  0
   12.7227   -2.9762  -11.2089 O   0  0  0  0  0  0  0  0  0  0  0  0
   11.9310   -2.8139  -13.3127 O   0  0  0  0  0  0  0  0  0  0  0  0
  2  1  1  6
  3  2  1  0
  4  9  2  0
  4  3  1  0
  5  4  1  0
  6  5  2  0
  6  7  1  0
  7  8  2  0
  8  9  1  0
 10 11  2  0
 10  2  1  0
 12 10  1  0
 13 12  1  0
 13 14  1  1
 14 15  1  0
 15 16  1  0
 17 16  1  0
 17 18  1  0
 19 13  1  0
 20 19  2  0
 21 19  1  0
 22 21  1  0
 23 22  1  0
 23 25  1  0
 24 23  2  0
M  END
$$$$
