FKG.pdb
     RDKit          3D

 25 25  0  0  1  0  0  0  0  0999 V2000
   28.4657  -20.8633   -8.9933 N   0  0  0  0  0  0  0  0  0  0  0  0
   27.0529  -20.5571   -8.8339 C   0  0  1  0  0  0  0  0  0  0  0  0
   26.9679  -19.2576   -8.0627 C   0  0  0  0  0  0  0  0  0  0  0  0
   27.5231  -19.4388   -6.6962 C   0  0  0  0  0  0  0  0  0  0  0  0
   26.9310  -20.2878   -5.7667 C   0  0  0  0  0  0  0  0  0  0  0  0
   27.4669  -20.4427   -4.4936 C   0  0  0  0  0  0  0  0  0  0  0  0
   28.6071  -19.7434   -4.1411 C   0  0  0  0  0  0  0  0  0  0  0  0
   29.2083  -18.9030   -5.0355 C   0  0  0  0  0  0  0  0  0  0  0  0
   28.6560  -18.7591   -6.3115 C   0  0  0  0  0  0  0  0  0  0  0  0
   26.3835  -20.4781  -10.1436 C   0  0  0  0  0  0  0  0  0  0  0  0
   26.6999  -19.5840  -10.9562 O   0  0  0  0  0  0  0  0  0  0  0  0
   25.3796  -21.4028  -10.5046 N   0  0  0  0  0  0  0  0  0  0  0  0
   24.7476  -21.4447  -11.8203 C   0  0  1  0  0  0  0  0  0  0  0  0
   24.7957  -22.7936  -12.4239 C   0  0  0  0  0  0  0  0  0  0  0  0
   24.2202  -22.8399  -13.8113 C   0  0  0  0  0  0  0  0  0  0  0  0
   25.2684  -23.2044  -14.8502 C   0  0  0  0  0  0  0  0  0  0  0  0
   24.6541  -23.2879  -16.2316 C   0  0  0  0  0  0  0  0  0  0  0  0
   25.7249  -23.4260  -17.1826 N   0  0  0  0  0  0  0  0  0  0  0  0
   23.4292  -20.8305  -11.6626 C   0  0  0  0  0  0  0  0  0  0  0  0
   22.8570  -20.8294  -10.5475 O   0  0  0  0  0  0  0  0  0  0  0  0
   22.7149  -20.2061  -12.7265 N   0  0  0  0  0  0  0  0  0  0  0  0
   21.7493  -19.1713  -12.5418 C   0  0  0  0  0  0  0  0  0  0  0  0
   20.3917  -19.7456  -12.7244 C   0  0  0  0  0  0  0  0  0  0  0  0
   19.3481  -19.0291  -12.5586 O   0  0  0  0  0  0  0  0  0  0  0  0
   20.1611  -21.0656  -13.0787 O   0  0  0  0  0  0  0  0  0  0  0  0
  2  1  1  6
  3  2  1  0
  4  9  2  0
  4  3  1  0
  5  4  1  0
  6  5  2  0
  6  7  1  0
  7  8  2  0
  8  9  1  0
 10 11  2  0
 10  2  1  0
 12 10  1  0
 13 12  1  0
 13 14  1  1
 14 15  1  0
 15 16  1  0
 17 16  1  0
 17 18  1  0
 19 13  1  0
 20 19  2  0
 21 19  1  0
 22 21  1  0
 23 22  1  0
 23 25  1  0
 24 23  2  0
M  END
$$$$
