FKG.pdb
     RDKit          3D

 25 25  0  0  1  0  0  0  0  0999 V2000
   28.3721  -20.8313   -9.1029 N   0  0  0  0  0  0  0  0  0  0  0  0
   26.9396  -20.6484   -8.9301 C   0  0  1  0  0  0  0  0  0  0  0  0
   26.7513  -19.3808   -8.1248 C   0  0  0  0  0  0  0  0  0  0  0  0
   27.3001  -19.5607   -6.7555 C   0  0  0  0  0  0  0  0  0  0  0  0
   28.4735  -18.9371   -6.3439 C   0  0  0  0  0  0  0  0  0  0  0  0
   28.9693  -19.1190   -5.0582 C   0  0  0  0  0  0  0  0  0  0  0  0
   28.2882  -19.9325   -4.1706 C   0  0  0  0  0  0  0  0  0  0  0  0
   27.1332  -20.5568   -4.5499 C   0  0  0  0  0  0  0  0  0  0  0  0
   26.6488  -20.3627   -5.8466 C   0  0  0  0  0  0  0  0  0  0  0  0
   26.2580  -20.5918  -10.2346 C   0  0  0  0  0  0  0  0  0  0  0  0
   26.6442  -19.7880  -11.1090 O   0  0  0  0  0  0  0  0  0  0  0  0
   25.1643  -21.4371  -10.5213 N   0  0  0  0  0  0  0  0  0  0  0  0
   24.4558  -21.4456  -11.7982 C   0  0  1  0  0  0  0  0  0  0  0  0
   24.2332  -22.8155  -12.3080 C   0  0  0  0  0  0  0  0  0  0  0  0
   24.2306  -22.8933  -13.8087 C   0  0  0  0  0  0  0  0  0  0  0  0
   25.4584  -23.6128  -14.3433 C   0  0  0  0  0  0  0  0  0  0  0  0
   25.4396  -23.6626  -15.8565 C   0  0  0  0  0  0  0  0  0  0  0  0
   26.7517  -24.0508  -16.3011 N   0  0  0  0  0  0  0  0  0  0  0  0
   23.2756  -20.5999  -11.6189 C   0  0  0  0  0  0  0  0  0  0  0  0
   22.5183  -20.7648  -10.6339 O   0  0  0  0  0  0  0  0  0  0  0  0
   22.9052  -19.5575  -12.5179 N   0  0  0  0  0  0  0  0  0  0  0  0
   22.0208  -19.7331  -13.6244 C   0  0  0  0  0  0  0  0  0  0  0  0
   20.6442  -19.9438  -13.1078 C   0  0  0  0  0  0  0  0  0  0  0  0
   19.9249  -18.9571  -12.7349 O   0  0  0  0  0  0  0  0  0  0  0  0
   20.0526  -21.1921  -12.9945 O   0  0  0  0  0  0  0  0  0  0  0  0
  2  1  1  6
  3  2  1  0
  4  9  2  0
  4  3  1  0
  5  4  1  0
  6  5  2  0
  6  7  1  0
  7  8  2  0
  8  9  1  0
 10 11  2  0
 10  2  1  0
 12 10  1  0
 13 12  1  0
 13 14  1  1
 14 15  1  0
 15 16  1  0
 17 16  1  0
 17 18  1  0
 19 13  1  0
 20 19  2  0
 21 19  1  0
 22 21  1  0
 23 22  1  0
 23 25  1  0
 24 23  2  0
M  END
$$$$
