FKG.pdb
     RDKit          3D

 25 25  0  0  1  0  0  0  0  0999 V2000
   16.7045  -24.5678   -5.1144 N   0  0  0  0  0  0  0  0  0  0  0  0
   16.9988  -25.9591   -5.4195 C   0  0  1  0  0  0  0  0  0  0  0  0
   16.5438  -26.7767   -4.2298 C   0  0  0  0  0  0  0  0  0  0  0  0
   17.5389  -26.6745   -3.1308 C   0  0  0  0  0  0  0  0  0  0  0  0
   18.9086  -26.7179   -3.3703 C   0  0  0  0  0  0  0  0  0  0  0  0
   19.8223  -26.6204   -2.3274 C   0  0  0  0  0  0  0  0  0  0  0  0
   19.3666  -26.4779   -1.0291 C   0  0  0  0  0  0  0  0  0  0  0  0
   18.0262  -26.4326   -0.7667 C   0  0  0  0  0  0  0  0  0  0  0  0
   17.1213  -26.5320   -1.8274 C   0  0  0  0  0  0  0  0  0  0  0  0
   16.3390  -26.3715   -6.6701 C   0  0  0  0  0  0  0  0  0  0  0  0
   15.3047  -25.7869   -7.0553 O   0  0  0  0  0  0  0  0  0  0  0  0
   16.8570  -27.4263   -7.4525 N   0  0  0  0  0  0  0  0  0  0  0  0
   16.3053  -27.8284   -8.7433 C   0  0  1  0  0  0  0  0  0  0  0  0
   17.2644  -28.6212   -9.5418 C   0  0  0  0  0  0  0  0  0  0  0  0
   17.9058  -27.8315  -10.6478 C   0  0  0  0  0  0  0  0  0  0  0  0
   19.4211  -27.9520  -10.6282 C   0  0  0  0  0  0  0  0  0  0  0  0
   20.0415  -27.1530  -11.7548 C   0  0  0  0  0  0  0  0  0  0  0  0
   21.4714  -27.2335  -11.6169 N   0  0  0  0  0  0  0  0  0  0  0  0
   15.0055  -28.4384   -8.4626 C   0  0  0  0  0  0  0  0  0  0  0  0
   14.9106  -29.3883   -7.6504 O   0  0  0  0  0  0  0  0  0  0  0  0
   13.7861  -28.0167   -9.0685 N   0  0  0  0  0  0  0  0  0  0  0  0
   12.5530  -28.7275   -8.9619 C   0  0  0  0  0  0  0  0  0  0  0  0
   12.0473  -28.6024   -7.5709 C   0  0  0  0  0  0  0  0  0  0  0  0
   12.6935  -29.1027   -6.5901 O   0  0  0  0  0  0  0  0  0  0  0  0
   10.8689  -27.9513   -7.2413 O   0  0  0  0  0  0  0  0  0  0  0  0
  2  1  1  1
  3  2  1  0
  4  9  2  0
  4  3  1  0
  5  4  1  0
  6  5  2  0
  6  7  1  0
  7  8  2  0
  8  9  1  0
 10 11  2  0
 10  2  1  0
 12 10  1  0
 13 12  1  0
 13 14  1  1
 14 15  1  0
 15 16  1  0
 17 16  1  0
 17 18  1  0
 19 13  1  0
 20 19  2  0
 21 19  1  0
 22 21  1  0
 23 22  1  0
 23 25  1  0
 24 23  2  0
M  END
$$$$
