FKG.pdb
     RDKit          3D

 25 25  0  0  1  0  0  0  0  0999 V2000
   28.3292  -20.9529   -8.7165 N   0  0  0  0  0  0  0  0  0  0  0  0
   26.9873  -20.4269   -8.5216 C   0  0  1  0  0  0  0  0  0  0  0  0
   27.1266  -19.1499   -7.7214 C   0  0  0  0  0  0  0  0  0  0  0  0
   27.6833  -19.4495   -6.3765 C   0  0  0  0  0  0  0  0  0  0  0  0
   28.9033  -18.9332   -5.9520 C   0  0  0  0  0  0  0  0  0  0  0  0
   29.4058  -19.2261   -4.6896 C   0  0  0  0  0  0  0  0  0  0  0  0
   28.6843  -20.0438   -3.8385 C   0  0  0  0  0  0  0  0  0  0  0  0
   27.4831  -20.5639   -4.2310 C   0  0  0  0  0  0  0  0  0  0  0  0
   26.9927  -20.2590   -5.5040 C   0  0  0  0  0  0  0  0  0  0  0  0
   26.3175  -20.2092   -9.8153 C   0  0  0  0  0  0  0  0  0  0  0  0
   26.6572  -19.2533  -10.5438 O   0  0  0  0  0  0  0  0  0  0  0  0
   25.2870  -21.0683  -10.2548 N   0  0  0  0  0  0  0  0  0  0  0  0
   24.5902  -20.9171  -11.5291 C   0  0  1  0  0  0  0  0  0  0  0  0
   24.9316  -21.9904  -12.4869 C   0  0  0  0  0  0  0  0  0  0  0  0
   25.1760  -21.4823  -13.8799 C   0  0  0  0  0  0  0  0  0  0  0  0
   25.5979  -22.5952  -14.8256 C   0  0  0  0  0  0  0  0  0  0  0  0
   25.9031  -22.0468  -16.2036 C   0  0  0  0  0  0  0  0  0  0  0  0
   26.3675  -23.1373  -17.0191 N   0  0  0  0  0  0  0  0  0  0  0  0
   23.1750  -20.7370  -11.2047 C   0  0  0  0  0  0  0  0  0  0  0  0
   22.6675  -21.3263  -10.2219 O   0  0  0  0  0  0  0  0  0  0  0  0
   22.2911  -19.9065  -11.9537 N   0  0  0  0  0  0  0  0  0  0  0  0
   20.9259  -19.6752  -11.6072 C   0  0  0  0  0  0  0  0  0  0  0  0
   20.0801  -20.6836  -12.2955 C   0  0  0  0  0  0  0  0  0  0  0  0
   20.6026  -21.6993  -12.8658 O   0  0  0  0  0  0  0  0  0  0  0  0
   18.6985  -20.6009  -12.3691 O   0  0  0  0  0  0  0  0  0  0  0  0
  2  1  1  6
  3  2  1  0
  4  9  2  0
  4  3  1  0
  5  4  1  0
  6  5  2  0
  6  7  1  0
  7  8  2  0
  8  9  1  0
 10 11  2  0
 10  2  1  0
 12 10  1  0
 13 12  1  0
 13 14  1  6
 14 15  1  0
 15 16  1  0
 17 16  1  0
 17 18  1  0
 19 13  1  0
 20 19  2  0
 21 19  1  0
 22 21  1  0
 23 22  1  0
 23 25  1  0
 24 23  2  0
M  END
$$$$
