FKG.pdb
     RDKit          3D

 25 25  0  0  1  0  0  0  0  0999 V2000
   25.5283  -25.6330  -18.5462 N   0  0  0  0  0  0  0  0  0  0  0  0
   26.2375  -26.2008  -17.4104 C   0  0  1  0  0  0  0  0  0  0  0  0
   25.1989  -26.5167  -16.3558 C   0  0  0  0  0  0  0  0  0  0  0  0
   24.5309  -25.2671  -15.9081 C   0  0  0  0  0  0  0  0  0  0  0  0
   25.2411  -24.2143  -15.3403 C   0  0  0  0  0  0  0  0  0  0  0  0
   24.5964  -23.0539  -14.9283 C   0  0  0  0  0  0  0  0  0  0  0  0
   23.2265  -22.9400  -15.0835 C   0  0  0  0  0  0  0  0  0  0  0  0
   22.5054  -23.9596  -15.6384 C   0  0  0  0  0  0  0  0  0  0  0  0
   23.1699  -25.1194  -16.0472 C   0  0  0  0  0  0  0  0  0  0  0  0
   27.0072  -27.3896  -17.8151 C   0  0  0  0  0  0  0  0  0  0  0  0
   26.6536  -28.0562  -18.8104 O   0  0  0  0  0  0  0  0  0  0  0  0
   28.1500  -27.7969  -17.0932 N   0  0  0  0  0  0  0  0  0  0  0  0
   28.9722  -28.9486  -17.4540 C   0  0  1  0  0  0  0  0  0  0  0  0
   30.4176  -28.6393  -17.4214 C   0  0  0  0  0  0  0  0  0  0  0  0
   30.8214  -27.6001  -18.4289 C   0  0  0  0  0  0  0  0  0  0  0  0
   32.3285  -27.4068  -18.4742 C   0  0  0  0  0  0  0  0  0  0  0  0
   32.7093  -26.3654  -19.5052 C   0  0  0  0  0  0  0  0  0  0  0  0
   34.1357  -26.1871  -19.4458 N   0  0  0  0  0  0  0  0  0  0  0  0
   28.5084  -30.0606  -16.6240 C   0  0  0  0  0  0  0  0  0  0  0  0
   28.4882  -29.9571  -15.3751 O   0  0  0  0  0  0  0  0  0  0  0  0
   28.0584  -31.3066  -17.1503 N   0  0  0  0  0  0  0  0  0  0  0  0
   27.6007  -32.3945  -16.3477 C   0  0  0  0  0  0  0  0  0  0  0  0
   27.2589  -33.5343  -17.2367 C   0  0  0  0  0  0  0  0  0  0  0  0
   27.2837  -33.4065  -18.5067 O   0  0  0  0  0  0  0  0  0  0  0  0
   26.8974  -34.7877  -16.7684 O   0  0  0  0  0  0  0  0  0  0  0  0
  2  1  1  6
  3  2  1  0
  4  9  2  0
  4  3  1  0
  5  4  1  0
  6  5  2  0
  6  7  1  0
  7  8  2  0
  8  9  1  0
 10 11  2  0
 10  2  1  0
 12 10  1  0
 13 12  1  0
 13 14  1  1
 14 15  1  0
 15 16  1  0
 17 16  1  0
 17 18  1  0
 19 13  1  0
 20 19  2  0
 21 19  1  0
 22 21  1  0
 23 22  1  0
 23 25  1  0
 24 23  2  0
M  END
$$$$
