FKG.pdb
     RDKit          3D

 25 25  0  0  1  0  0  0  0  0999 V2000
   21.7138  -17.8420  -19.1184 N   0  0  0  0  0  0  0  0  0  0  0  0
   21.9311  -17.4217  -17.7432 C   0  0  1  0  0  0  0  0  0  0  0  0
   20.6666  -16.7239  -17.2907 C   0  0  0  0  0  0  0  0  0  0  0  0
   20.4636  -15.4780  -18.0748 C   0  0  0  0  0  0  0  0  0  0  0  0
   21.1536  -14.3050  -17.7864 C   0  0  0  0  0  0  0  0  0  0  0  0
   20.9487  -13.1505  -18.5328 C   0  0  0  0  0  0  0  0  0  0  0  0
   20.0451  -13.1639  -19.5801 C   0  0  0  0  0  0  0  0  0  0  0  0
   19.3544  -14.3031  -19.8843 C   0  0  0  0  0  0  0  0  0  0  0  0
   19.5727  -15.4551  -19.1233 C   0  0  0  0  0  0  0  0  0  0  0  0
   22.2726  -18.5739  -16.8915 C   0  0  0  0  0  0  0  0  0  0  0  0
   21.7451  -19.6864  -17.1012 O   0  0  0  0  0  0  0  0  0  0  0  0
   23.1947  -18.4463  -15.8302 N   0  0  0  0  0  0  0  0  0  0  0  0
   23.6449  -19.5638  -15.0050 C   0  0  1  0  0  0  0  0  0  0  0  0
   25.0498  -19.4110  -14.5704 C   0  0  0  0  0  0  0  0  0  0  0  0
   26.0408  -19.8300  -15.6194 C   0  0  0  0  0  0  0  0  0  0  0  0
   26.1567  -21.3424  -15.7209 C   0  0  0  0  0  0  0  0  0  0  0  0
   27.1392  -21.7378  -16.8030 C   0  0  0  0  0  0  0  0  0  0  0  0
   27.1491  -23.1742  -16.8860 N   0  0  0  0  0  0  0  0  0  0  0  0
   22.6369  -19.7339  -13.9584 C   0  0  0  0  0  0  0  0  0  0  0  0
   22.1888  -18.7406  -13.3391 O   0  0  0  0  0  0  0  0  0  0  0  0
   22.1025  -20.9978  -13.5726 N   0  0  0  0  0  0  0  0  0  0  0  0
   21.2313  -21.1907  -12.4584 C   0  0  0  0  0  0  0  0  0  0  0  0
   19.8312  -21.2512  -12.9507 C   0  0  0  0  0  0  0  0  0  0  0  0
   19.5612  -21.0705  -14.1853 O   0  0  0  0  0  0  0  0  0  0  0  0
   18.7424  -21.5013  -12.1303 O   0  0  0  0  0  0  0  0  0  0  0  0
  2  1  1  6
  3  2  1  0
  4  9  2  0
  4  3  1  0
  5  4  1  0
  6  5  2  0
  6  7  1  0
  7  8  2  0
  8  9  1  0
 10 11  2  0
 10  2  1  0
 12 10  1  0
 13 12  1  0
 13 14  1  1
 14 15  1  0
 15 16  1  0
 17 16  1  0
 17 18  1  0
 19 13  1  0
 20 19  2  0
 21 19  1  0
 22 21  1  0
 23 22  1  0
 23 25  1  0
 24 23  2  0
M  END
$$$$
