FKG.pdb
     RDKit          3D

 25 25  0  0  1  0  0  0  0  0999 V2000
   26.2480  -17.9563  -18.1752 N   0  0  0  0  0  0  0  0  0  0  0  0
   26.4816  -18.5210  -16.8554 C   0  0  1  0  0  0  0  0  0  0  0  0
   26.9008  -17.3786  -15.9553 C   0  0  0  0  0  0  0  0  0  0  0  0
   28.1941  -16.8125  -16.4194 C   0  0  0  0  0  0  0  0  0  0  0  0
   28.2701  -15.5865  -17.0725 C   0  0  0  0  0  0  0  0  0  0  0  0
   29.4904  -15.0752  -17.4983 C   0  0  0  0  0  0  0  0  0  0  0  0
   30.6504  -15.7938  -17.2711 C   0  0  0  0  0  0  0  0  0  0  0  0
   30.6033  -17.0006  -16.6318 C   0  0  0  0  0  0  0  0  0  0  0  0
   29.3677  -17.4999  -16.2103 C   0  0  0  0  0  0  0  0  0  0  0  0
   25.2787  -19.2129  -16.3617 C   0  0  0  0  0  0  0  0  0  0  0  0
   24.1435  -18.7930  -16.6695 O   0  0  0  0  0  0  0  0  0  0  0  0
   25.3826  -20.3547  -15.5380 N   0  0  0  0  0  0  0  0  0  0  0  0
   24.2492  -21.1996  -15.1722 C   0  0  1  0  0  0  0  0  0  0  0  0
   24.6320  -22.6200  -15.0238 C   0  0  0  0  0  0  0  0  0  0  0  0
   23.4683  -23.5140  -14.7005 C   0  0  0  0  0  0  0  0  0  0  0  0
   23.8556  -24.9838  -14.7257 C   0  0  0  0  0  0  0  0  0  0  0  0
   22.6296  -25.8676  -14.6349 C   0  0  0  0  0  0  0  0  0  0  0  0
   23.0634  -27.2354  -14.7394 N   0  0  0  0  0  0  0  0  0  0  0  0
   23.6113  -20.5566  -14.0233 C   0  0  0  0  0  0  0  0  0  0  0  0
   24.3057  -20.0461  -13.1132 O   0  0  0  0  0  0  0  0  0  0  0  0
   22.1993  -20.4622  -13.8525 N   0  0  0  0  0  0  0  0  0  0  0  0
   21.5694  -19.8652  -12.7194 C   0  0  0  0  0  0  0  0  0  0  0  0
   20.1806  -20.3817  -12.6165 C   0  0  0  0  0  0  0  0  0  0  0  0
   19.7290  -21.2237  -13.4634 O   0  0  0  0  0  0  0  0  0  0  0  0
   19.2944  -19.9999  -11.6216 O   0  0  0  0  0  0  0  0  0  0  0  0
  2  1  1  6
  3  2  1  0
  4  9  2  0
  4  3  1  0
  5  4  1  0
  6  5  2  0
  6  7  1  0
  7  8  2  0
  8  9  1  0
 10 11  2  0
 10  2  1  0
 12 10  1  0
 13 12  1  0
 13 14  1  1
 14 15  1  0
 15 16  1  0
 17 16  1  0
 17 18  1  0
 19 13  1  0
 20 19  2  0
 21 19  1  0
 22 21  1  0
 23 22  1  0
 23 25  1  0
 24 23  2  0
M  END
$$$$
