FKG.pdb
     RDKit          3D

 25 25  0  0  1  0  0  0  0  0999 V2000
   25.9863  -22.5004  -12.6789 N   0  0  0  0  0  0  0  0  0  0  0  0
   25.3897  -21.4833  -11.8274 C   0  0  1  0  0  0  0  0  0  0  0  0
   26.3404  -20.3057  -11.8155 C   0  0  0  0  0  0  0  0  0  0  0  0
   27.5886  -20.6657  -11.0938 C   0  0  0  0  0  0  0  0  0  0  0  0
   27.6000  -20.9318   -9.7284 C   0  0  0  0  0  0  0  0  0  0  0  0
   28.7790  -21.2669   -9.0729 C   0  0  0  0  0  0  0  0  0  0  0  0
   29.9621  -21.3381   -9.7860 C   0  0  0  0  0  0  0  0  0  0  0  0
   29.9783  -21.0815  -11.1281 C   0  0  0  0  0  0  0  0  0  0  0  0
   28.7836  -20.7459  -11.7713 C   0  0  0  0  0  0  0  0  0  0  0  0
   24.0475  -21.1172  -12.3111 C   0  0  0  0  0  0  0  0  0  0  0  0
   23.6626  -21.4953  -13.4374 O   0  0  0  0  0  0  0  0  0  0  0  0
   23.1761  -20.3384  -11.5192 N   0  0  0  0  0  0  0  0  0  0  0  0
   21.7627  -20.1349  -11.8246 C   0  0  1  0  0  0  0  0  0  0  0  0
   20.9869  -19.7127  -10.6389 C   0  0  0  0  0  0  0  0  0  0  0  0
   20.5185  -20.8672   -9.7987 C   0  0  0  0  0  0  0  0  0  0  0  0
   19.9701  -22.0030  -10.6473 C   0  0  0  0  0  0  0  0  0  0  0  0
   19.3906  -23.0975   -9.7762 C   0  0  0  0  0  0  0  0  0  0  0  0
   19.0441  -24.2030  -10.6295 N   0  0  0  0  0  0  0  0  0  0  0  0
   21.7174  -19.2619  -12.9977 C   0  0  0  0  0  0  0  0  0  0  0  0
   21.8212  -18.0193  -12.8705 O   0  0  0  0  0  0  0  0  0  0  0  0
   21.5573  -19.7372  -14.3320 N   0  0  0  0  0  0  0  0  0  0  0  0
   21.4836  -18.8904  -15.4786 C   0  0  0  0  0  0  0  0  0  0  0  0
   21.3690  -19.7381  -16.6929 C   0  0  0  0  0  0  0  0  0  0  0  0
   20.2740  -20.3280  -16.9806 O   0  0  0  0  0  0  0  0  0  0  0  0
   22.4126  -19.9471  -17.5807 O   0  0  0  0  0  0  0  0  0  0  0  0
  2  1  1  6
  3  2  1  0
  4  9  2  0
  4  3  1  0
  5  4  1  0
  6  5  2  0
  6  7  1  0
  7  8  2  0
  8  9  1  0
 10 11  2  0
 10  2  1  0
 12 10  1  0
 13 12  1  0
 13 14  1  1
 14 15  1  0
 15 16  1  0
 17 16  1  0
 17 18  1  0
 19 13  1  0
 20 19  2  0
 21 19  1  0
 22 21  1  0
 23 22  1  0
 23 25  1  0
 24 23  2  0
M  END
$$$$
