FKG.pdb
     RDKit          3D

 25 25  0  0  1  0  0  0  0  0999 V2000
   28.2044  -21.2351   -8.8882 N   0  0  0  0  0  0  0  0  0  0  0  0
   26.9011  -20.6091   -8.7301 C   0  0  1  0  0  0  0  0  0  0  0  0
   27.1317  -19.2774   -8.0488 C   0  0  0  0  0  0  0  0  0  0  0  0
   27.7504  -19.4883   -6.7143 C   0  0  0  0  0  0  0  0  0  0  0  0
   27.1244  -20.2347   -5.7212 C   0  0  0  0  0  0  0  0  0  0  0  0
   27.7210  -20.4196   -4.4795 C   0  0  0  0  0  0  0  0  0  0  0  0
   28.9571  -19.8540   -4.2229 C   0  0  0  0  0  0  0  0  0  0  0  0
   29.5934  -19.1162   -5.1813 C   0  0  0  0  0  0  0  0  0  0  0  0
   28.9790  -18.9404   -6.4244 C   0  0  0  0  0  0  0  0  0  0  0  0
   26.2283  -20.4650  -10.0325 C   0  0  0  0  0  0  0  0  0  0  0  0
   26.7348  -19.7519  -10.9240 O   0  0  0  0  0  0  0  0  0  0  0  0
   25.0082  -21.1237  -10.2980 N   0  0  0  0  0  0  0  0  0  0  0  0
   24.2921  -21.0290  -11.5671 C   0  0  1  0  0  0  0  0  0  0  0  0
   24.4051  -22.2657  -12.3695 C   0  0  0  0  0  0  0  0  0  0  0  0
   25.7235  -22.3897  -13.0798 C   0  0  0  0  0  0  0  0  0  0  0  0
   25.6775  -21.7864  -14.4744 C   0  0  0  0  0  0  0  0  0  0  0  0
   26.9769  -22.0308  -15.2123 C   0  0  0  0  0  0  0  0  0  0  0  0
   26.8756  -21.4034  -16.5030 N   0  0  0  0  0  0  0  0  0  0  0  0
   22.9433  -20.5636  -11.2440 C   0  0  0  0  0  0  0  0  0  0  0  0
   22.5319  -20.5775  -10.0602 O   0  0  0  0  0  0  0  0  0  0  0  0
   22.0213  -20.0745  -12.2150 N   0  0  0  0  0  0  0  0  0  0  0  0
   20.8413  -19.3374  -11.8965 C   0  0  0  0  0  0  0  0  0  0  0  0
   20.1230  -19.0165  -13.1564 C   0  0  0  0  0  0  0  0  0  0  0  0
   18.9900  -18.4284  -13.1345 O   0  0  0  0  0  0  0  0  0  0  0  0
   20.6141  -19.3223  -14.4158 O   0  0  0  0  0  0  0  0  0  0  0  0
  2  1  1  6
  3  2  1  0
  4  9  2  0
  4  3  1  0
  5  4  1  0
  6  5  2  0
  6  7  1  0
  7  8  2  0
  8  9  1  0
 10 11  2  0
 10  2  1  0
 12 10  1  0
 13 12  1  0
 13 14  1  1
 14 15  1  0
 15 16  1  0
 17 16  1  0
 17 18  1  0
 19 13  1  0
 20 19  2  0
 21 19  1  0
 22 21  1  0
 23 22  1  0
 23 25  1  0
 24 23  2  0
M  END
$$$$
