FKG.pdb
     RDKit          3D

 25 25  0  0  1  0  0  0  0  0999 V2000
   25.8057  -21.4959   -7.8268 N   0  0  0  0  0  0  0  0  0  0  0  0
   26.2267  -20.1764   -8.2704 C   0  0  1  0  0  0  0  0  0  0  0  0
   27.7180  -20.0854   -8.0287 C   0  0  0  0  0  0  0  0  0  0  0  0
   27.9866  -19.8387   -6.5881 C   0  0  0  0  0  0  0  0  0  0  0  0
   29.2568  -19.9841   -6.0397 C   0  0  0  0  0  0  0  0  0  0  0  0
   29.4862  -19.7482   -4.6892 C   0  0  0  0  0  0  0  0  0  0  0  0
   28.4373  -19.3626   -3.8739 C   0  0  0  0  0  0  0  0  0  0  0  0
   27.1799  -19.2126   -4.3876 C   0  0  0  0  0  0  0  0  0  0  0  0
   26.9671  -19.4539   -5.7478 C   0  0  0  0  0  0  0  0  0  0  0  0
   25.8723  -19.9616   -9.6838 C   0  0  0  0  0  0  0  0  0  0  0  0
   26.1463  -18.8778  -10.2409 O   0  0  0  0  0  0  0  0  0  0  0  0
   25.2217  -20.9668  -10.4317 N   0  0  0  0  0  0  0  0  0  0  0  0
   24.7899  -20.7992  -11.8165 C   0  0  1  0  0  0  0  0  0  0  0  0
   25.3891  -21.8066  -12.7176 C   0  0  0  0  0  0  0  0  0  0  0  0
   24.9926  -21.6223  -14.1553 C   0  0  0  0  0  0  0  0  0  0  0  0
   25.5935  -22.6919  -15.0530 C   0  0  0  0  0  0  0  0  0  0  0  0
   25.1656  -22.4932  -16.4917 C   0  0  0  0  0  0  0  0  0  0  0  0
   25.7583  -23.5430  -17.2769 N   0  0  0  0  0  0  0  0  0  0  0  0
   23.3295  -20.7167  -11.7844 C   0  0  0  0  0  0  0  0  0  0  0  0
   22.6753  -21.3493  -10.9226 O   0  0  0  0  0  0  0  0  0  0  0  0
   22.5608  -19.9380  -12.6980 N   0  0  0  0  0  0  0  0  0  0  0  0
   21.1593  -19.7026  -12.5651 C   0  0  0  0  0  0  0  0  0  0  0  0
   20.4287  -20.6608  -13.4336 C   0  0  0  0  0  0  0  0  0  0  0  0
   20.9367  -21.0714  -14.5306 O   0  0  0  0  0  0  0  0  0  0  0  0
   19.1755  -21.1677  -13.1279 O   0  0  0  0  0  0  0  0  0  0  0  0
  2  1  1  6
  3  2  1  0
  4  9  2  0
  4  3  1  0
  5  4  1  0
  6  5  2  0
  6  7  1  0
  7  8  2  0
  8  9  1  0
 10 11  2  0
 10  2  1  0
 12 10  1  0
 13 12  1  0
 13 14  1  6
 14 15  1  0
 15 16  1  0
 17 16  1  0
 17 18  1  0
 19 13  1  0
 20 19  2  0
 21 19  1  0
 22 21  1  0
 23 22  1  0
 23 25  1  0
 24 23  2  0
M  END
$$$$
