FKG.pdb
     RDKit          3D

 25 25  0  0  1  0  0  0  0  0999 V2000
   28.0936  -21.0735   -9.1789 N   0  0  0  0  0  0  0  0  0  0  0  0
   26.7766  -20.5514   -8.8503 C   0  0  1  0  0  0  0  0  0  0  0  0
   26.9915  -19.2574   -8.0951 C   0  0  0  0  0  0  0  0  0  0  0  0
   27.6862  -19.5271   -6.8095 C   0  0  0  0  0  0  0  0  0  0  0  0
   28.8880  -18.9101   -6.4774 C   0  0  0  0  0  0  0  0  0  0  0  0
   29.5212  -19.1767   -5.2692 C   0  0  0  0  0  0  0  0  0  0  0  0
   28.9506  -20.0694   -4.3797 C   0  0  0  0  0  0  0  0  0  0  0  0
   27.7706  -20.6890   -4.6816 C   0  0  0  0  0  0  0  0  0  0  0  0
   27.1475  -20.4092   -5.9011 C   0  0  0  0  0  0  0  0  0  0  0  0
   25.9691  -20.3639  -10.0678 C   0  0  0  0  0  0  0  0  0  0  0  0
   26.2588  -19.4594  -10.8788 O   0  0  0  0  0  0  0  0  0  0  0  0
   24.8611  -21.1950  -10.3412 N   0  0  0  0  0  0  0  0  0  0  0  0
   23.9453  -20.9878  -11.4595 C   0  0  1  0  0  0  0  0  0  0  0  0
   24.1055  -22.0116  -12.5141 C   0  0  0  0  0  0  0  0  0  0  0  0
   25.3053  -21.7760  -13.3876 C   0  0  0  0  0  0  0  0  0  0  0  0
   25.3317  -22.7144  -14.5833 C   0  0  0  0  0  0  0  0  0  0  0  0
   25.4083  -24.1587  -14.1354 C   0  0  0  0  0  0  0  0  0  0  0  0
   25.4409  -24.9844  -15.3132 N   0  0  0  0  0  0  0  0  0  0  0  0
   22.6126  -20.8332  -10.8760 C   0  0  0  0  0  0  0  0  0  0  0  0
   22.4079  -21.1182   -9.6727 O   0  0  0  0  0  0  0  0  0  0  0  0
   21.4803  -20.3629  -11.6030 N   0  0  0  0  0  0  0  0  0  0  0  0
   21.3339  -19.0242  -12.0761 C   0  0  0  0  0  0  0  0  0  0  0  0
   20.0079  -18.8908  -12.7319 C   0  0  0  0  0  0  0  0  0  0  0  0
   19.2503  -19.9057  -12.8932 O   0  0  0  0  0  0  0  0  0  0  0  0
   19.5064  -17.6885  -13.2052 O   0  0  0  0  0  0  0  0  0  0  0  0
  2  1  1  6
  3  2  1  0
  4  9  2  0
  4  3  1  0
  5  4  1  0
  6  5  2  0
  6  7  1  0
  7  8  2  0
  8  9  1  0
 10 11  2  0
 10  2  1  0
 12 10  1  0
 13 12  1  0
 13 14  1  6
 14 15  1  0
 15 16  1  0
 17 16  1  0
 17 18  1  0
 19 13  1  0
 20 19  2  0
 21 19  1  0
 22 21  1  0
 23 22  1  0
 23 25  1  0
 24 23  2  0
M  END
$$$$
