FKG.pdb
     RDKit          3D

 25 25  0  0  1  0  0  0  0  0999 V2000
   28.5965  -20.9884   -8.9145 N   0  0  0  0  0  0  0  0  0  0  0  0
   27.1815  -20.6760   -8.7902 C   0  0  1  0  0  0  0  0  0  0  0  0
   27.0854  -19.3426   -8.0805 C   0  0  0  0  0  0  0  0  0  0  0  0
   27.5664  -19.4746   -6.6807 C   0  0  0  0  0  0  0  0  0  0  0  0
   28.6397  -18.7334   -6.1971 C   0  0  0  0  0  0  0  0  0  0  0  0
   29.0735  -18.8723   -4.8839 C   0  0  0  0  0  0  0  0  0  0  0  0
   28.4304  -19.7608   -4.0409 C   0  0  0  0  0  0  0  0  0  0  0  0
   27.3735  -20.5010   -4.4911 C   0  0  0  0  0  0  0  0  0  0  0  0
   26.9505  -20.3487   -5.8145 C   0  0  0  0  0  0  0  0  0  0  0  0
   26.5316  -20.6573  -10.1118 C   0  0  0  0  0  0  0  0  0  0  0  0
   26.9203  -19.8588  -10.9900 O   0  0  0  0  0  0  0  0  0  0  0  0
   25.4656  -21.5332  -10.4109 N   0  0  0  0  0  0  0  0  0  0  0  0
   24.8224  -21.6145  -11.7194 C   0  0  1  0  0  0  0  0  0  0  0  0
   24.6367  -23.0109  -12.1683 C   0  0  0  0  0  0  0  0  0  0  0  0
   24.0183  -23.1142  -13.5340 C   0  0  0  0  0  0  0  0  0  0  0  0
   24.6883  -24.1828  -14.3826 C   0  0  0  0  0  0  0  0  0  0  0  0
   24.0926  -24.2203  -15.7741 C   0  0  0  0  0  0  0  0  0  0  0  0
   24.9018  -25.0986  -16.5765 N   0  0  0  0  0  0  0  0  0  0  0  0
   23.6279  -20.7733  -11.6430 C   0  0  0  0  0  0  0  0  0  0  0  0
   22.9812  -20.6820  -10.5732 O   0  0  0  0  0  0  0  0  0  0  0  0
   23.1214  -20.0168  -12.7399 N   0  0  0  0  0  0  0  0  0  0  0  0
   21.9590  -19.1912  -12.6724 C   0  0  0  0  0  0  0  0  0  0  0  0
   20.7658  -20.0183  -12.9861 C   0  0  0  0  0  0  0  0  0  0  0  0
   20.8898  -21.1853  -13.4886 O   0  0  0  0  0  0  0  0  0  0  0  0
   19.4640  -19.5979  -12.7633 O   0  0  0  0  0  0  0  0  0  0  0  0
  2  1  1  6
  3  2  1  0
  4  9  2  0
  4  3  1  0
  5  4  1  0
  6  5  2  0
  6  7  1  0
  7  8  2  0
  8  9  1  0
 10 11  2  0
 10  2  1  0
 12 10  1  0
 13 12  1  0
 13 14  1  1
 14 15  1  0
 15 16  1  0
 17 16  1  0
 17 18  1  0
 19 13  1  0
 20 19  2  0
 21 19  1  0
 22 21  1  0
 23 22  1  0
 23 25  1  0
 24 23  2  0
M  END
$$$$
