VTQ.pdb
     RDKit          3D

 24 23  0  0  1  0  0  0  0  0999 V2000
    8.2787  -12.4033   18.3657 C   0  0  0  0  0  0  0  0  0  0  0  0
    7.8864  -13.4364   19.3966 C   0  0  2  0  0  0  0  0  0  0  0  0
    8.1111  -12.8878   20.7724 C   0  0  0  0  0  0  0  0  0  0  0  0
    8.6706  -14.7116   19.2511 C   0  0  2  0  0  0  0  0  0  0  0  0
    8.5086  -15.3415   17.9699 N   0  0  0  0  0  0  0  0  0  0  0  0
    8.3616  -15.6960   20.3211 C   0  0  0  0  0  0  0  0  0  0  0  0
    7.7082  -16.7503   20.0963 O   0  0  0  0  0  0  0  0  0  0  0  0
    8.4421  -18.2315   20.9950 C   0  0  0  0  0  0  0  0  0  0  0  0
    9.1108  -17.8108   22.2769 C   0  0  1  0  0  0  0  0  0  0  0  0
   10.4750  -17.6488   21.9793 O   0  0  0  0  0  0  0  0  0  0  0  0
    8.5808  -16.4566   22.7329 C   0  0  2  0  0  0  0  0  0  0  0  0
    8.7964  -15.4843   21.6555 N   0  0  0  0  0  0  0  0  0  0  0  0
    9.2841  -15.9198   23.9152 C   0  0  0  0  0  0  0  0  0  0  0  0
   10.4205  -15.3571   23.7200 O   0  0  0  0  0  0  0  0  0  0  0  0
    5.4546  -12.5946   26.5163 N   0  0  0  0  0  0  0  0  0  0  0  0
    6.8387  -12.4234   26.7229 C   0  0  0  0  0  0  0  0  0  0  0  0
    7.2329  -11.5458   27.5295 O   0  0  0  0  0  0  0  0  0  0  0  0
    7.7862  -13.3006   25.9672 C   0  0  0  0  0  0  0  0  0  0  0  0
    8.2951  -14.3550   26.9508 C   0  0  0  0  0  0  0  0  0  0  0  0
    9.3649  -15.2067   26.3002 C   0  0  2  0  0  0  0  0  0  0  0  0
    8.7677  -15.9964   25.2199 N   0  0  0  0  0  0  0  0  0  0  0  0
    9.9186  -16.1654   27.2861 C   0  0  0  0  0  0  0  0  0  0  0  0
   10.5823  -15.7359   28.2851 O   0  0  0  0  0  0  0  0  0  0  0  0
    9.7630  -17.5405   27.1992 O   0  0  0  0  0  0  0  0  0  0  0  0
  2  1  1  6
  2  3  1  0
  4  6  1  0
  4  2  1  0
  4  5  1  6
  6  7  2  0
  9  8  1  6
 10  9  1  0
 11  9  1  0
 11 12  1  6
 12  6  1  0
 13 21  1  0
 13 11  1  0
 14 13  2  0
 16 15  1  0
 16 17  2  0
 18 16  1  0
 19 18  1  0
 20 19  1  1
 20 21  1  0
 22 20  1  0
 22 24  1  0
 23 22  2  0
M  END
$$$$
