VTQ.pdb
     RDKit          3D

 24 23  0  0  1  0  0  0  0  0999 V2000
    6.6936  -13.0090   18.5121 C   0  0  0  0  0  0  0  0  0  0  0  0
    8.0245  -13.3400   17.8773 C   0  0  2  0  0  0  0  0  0  0  0  0
    7.8182  -13.7316   16.4462 C   0  0  0  0  0  0  0  0  0  0  0  0
    8.7305  -14.4619   18.5881 C   0  0  2  0  0  0  0  0  0  0  0  0
    8.1287  -15.7482   18.3693 N   0  0  0  0  0  0  0  0  0  0  0  0
    8.8527  -14.2231   20.0501 C   0  0  0  0  0  0  0  0  0  0  0  0
    8.2410  -13.2869   20.6319 O   0  0  0  0  0  0  0  0  0  0  0  0
    7.3304  -14.2559   22.3294 C   0  0  0  0  0  0  0  0  0  0  0  0
    8.3276  -15.2459   22.8705 C   0  0  1  0  0  0  0  0  0  0  0  0
    7.9417  -16.5063   22.3823 O   0  0  0  0  0  0  0  0  0  0  0  0
    9.7189  -14.9522   22.3220 C   0  0  2  0  0  0  0  0  0  0  0  0
    9.6741  -15.0511   20.8589 N   0  0  0  0  0  0  0  0  0  0  0  0
   10.7408  -15.9210   22.7666 C   0  0  0  0  0  0  0  0  0  0  0  0
   11.0223  -16.8876   21.9712 O   0  0  0  0  0  0  0  0  0  0  0  0
   16.2249  -17.8348   23.0381 N   0  0  0  0  0  0  0  0  0  0  0  0
   15.8684  -16.5855   23.5856 C   0  0  0  0  0  0  0  0  0  0  0  0
   16.2636  -15.5354   23.0224 O   0  0  0  0  0  0  0  0  0  0  0  0
   15.0283  -16.5632   24.8235 C   0  0  0  0  0  0  0  0  0  0  0  0
   13.7846  -15.7344   24.5007 C   0  0  0  0  0  0  0  0  0  0  0  0
   12.5958  -16.6421   24.2641 C   0  0  2  0  0  0  0  0  0  0  0  0
   11.4066  -15.8274   24.0006 N   0  0  0  0  0  0  0  0  0  0  0  0
   12.3165  -17.4395   25.4822 C   0  0  0  0  0  0  0  0  0  0  0  0
   11.3656  -17.0995   26.2589 O   0  0  0  0  0  0  0  0  0  0  0  0
   13.0368  -18.5653   25.8516 O   0  0  0  0  0  0  0  0  0  0  0  0
  2  1  1  1
  2  3  1  0
  4  6  1  0
  4  2  1  0
  4  5  1  1
  6  7  2  0
  9  8  1  6
 10  9  1  0
 11  9  1  0
 11 12  1  6
 12  6  1  0
 13 21  1  0
 13 11  1  0
 14 13  2  0
 16 15  1  0
 16 17  2  0
 18 16  1  0
 19 18  1  0
 20 19  1  1
 20 21  1  0
 22 20  1  0
 22 24  1  0
 23 22  2  0
M  END
$$$$
