VTQ.pdb
     RDKit          3D

 24 23  0  0  1  0  0  0  0  0999 V2000
    6.6543  -26.2278   27.9015 C   0  0  0  0  0  0  0  0  0  0  0  0
    8.0460  -25.8974   28.3894 C   0  0  2  0  0  0  0  0  0  0  0  0
    7.9615  -25.0489   29.6210 C   0  0  0  0  0  0  0  0  0  0  0  0
    8.8533  -25.1652   27.3528 C   0  0  2  0  0  0  0  0  0  0  0  0
    8.8780  -25.8225   26.0754 N   0  0  0  0  0  0  0  0  0  0  0  0
   10.2486  -24.9063   27.7951 C   0  0  0  0  0  0  0  0  0  0  0  0
   11.0825  -25.8357   27.9681 O   0  0  0  0  0  0  0  0  0  0  0  0
   12.7665  -22.8011   26.1469 C   0  0  0  0  0  0  0  0  0  0  0  0
   12.6602  -22.2390   27.5398 C   0  0  1  0  0  0  0  0  0  0  0  0
   11.7534  -21.1673   27.4680 O   0  0  0  0  0  0  0  0  0  0  0  0
   12.0662  -23.2749   28.4868 C   0  0  2  0  0  0  0  0  0  0  0  0
   10.7023  -23.5846   28.0433 N   0  0  0  0  0  0  0  0  0  0  0  0
   11.9452  -22.7957   29.8783 C   0  0  0  0  0  0  0  0  0  0  0  0
   10.8642  -22.1834   30.1990 O   0  0  0  0  0  0  0  0  0  0  0  0
   12.9497  -26.3875   34.0864 N   0  0  0  0  0  0  0  0  0  0  0  0
   13.9787  -25.4240   34.1064 C   0  0  0  0  0  0  0  0  0  0  0  0
   14.8247  -25.4516   35.0335 O   0  0  0  0  0  0  0  0  0  0  0  0
   14.0196  -24.4019   33.0145 C   0  0  0  0  0  0  0  0  0  0  0  0
   12.8177  -23.4802   33.2243 C   0  0  0  0  0  0  0  0  0  0  0  0
   12.8073  -22.3850   32.1786 C   0  0  2  0  0  0  0  0  0  0  0  0
   12.9455  -22.9820   30.8475 N   0  0  0  0  0  0  0  0  0  0  0  0
   13.9691  -21.4853   32.3753 C   0  0  0  0  0  0  0  0  0  0  0  0
   14.8582  -21.3896   31.4679 O   0  0  0  0  0  0  0  0  0  0  0  0
   14.1668  -20.7144   33.5108 O   0  0  0  0  0  0  0  0  0  0  0  0
  2  1  1  6
  2  3  1  0
  4  6  1  0
  4  2  1  0
  4  5  1  6
  6  7  2  0
  9  8  1  6
 10  9  1  0
 11  9  1  0
 11 12  1  6
 12  6  1  0
 13 21  1  0
 13 11  1  0
 14 13  2  0
 16 15  1  0
 16 17  2  0
 18 16  1  0
 19 18  1  0
 20 19  1  1
 20 21  1  0
 22 20  1  0
 22 24  1  0
 23 22  2  0
M  END
$$$$
