VTQ.pdb
     RDKit          3D

 24 23  0  0  1  0  0  0  0  0999 V2000
    2.4261  -19.8295   21.0463 C   0  0  0  0  0  0  0  0  0  0  0  0
    3.7488  -19.4357   21.6622 C   0  0  2  0  0  0  0  0  0  0  0  0
    3.5110  -18.7386   22.9667 C   0  0  0  0  0  0  0  0  0  0  0  0
    4.5451  -18.5266   20.7669 C   0  0  2  0  0  0  0  0  0  0  0  0
    4.7555  -19.0595   19.4493 N   0  0  0  0  0  0  0  0  0  0  0  0
    5.8571  -18.1518   21.3566 C   0  0  0  0  0  0  0  0  0  0  0  0
    6.8565  -18.9190   21.3154 O   0  0  0  0  0  0  0  0  0  0  0  0
    7.4621  -14.8639   20.6344 C   0  0  0  0  0  0  0  0  0  0  0  0
    7.5526  -15.0050   22.1309 C   0  0  1  0  0  0  0  0  0  0  0  0
    6.4969  -14.2469   22.6664 O   0  0  0  0  0  0  0  0  0  0  0  0
    7.3260  -16.4549   22.5425 C   0  0  2  0  0  0  0  0  0  0  0  0
    6.0379  -16.8985   21.9977 N   0  0  0  0  0  0  0  0  0  0  0  0
    7.2384  -16.6423   24.0046 C   0  0  0  0  0  0  0  0  0  0  0  0
    6.0754  -16.5619   24.5406 O   0  0  0  0  0  0  0  0  0  0  0  0
    6.1035  -20.4991   27.1567 N   0  0  0  0  0  0  0  0  0  0  0  0
    7.3953  -20.7270   26.6401 C   0  0  0  0  0  0  0  0  0  0  0  0
    7.7940  -21.9078   26.4884 O   0  0  0  0  0  0  0  0  0  0  0  0
    8.2428  -19.5443   26.2917 C   0  0  0  0  0  0  0  0  0  0  0  0
    7.3990  -18.2985   26.5634 C   0  0  0  0  0  0  0  0  0  0  0  0
    8.1991  -17.0476   26.2665 C   0  0  2  0  0  0  0  0  0  0  0  0
    8.3552  -16.9028   24.8166 N   0  0  0  0  0  0  0  0  0  0  0  0
    9.5602  -17.1680   26.8414 C   0  0  0  0  0  0  0  0  0  0  0  0
    9.7085  -17.2900   28.1008 O   0  0  0  0  0  0  0  0  0  0  0  0
   10.7227  -17.1575   26.0857 O   0  0  0  0  0  0  0  0  0  0  0  0
  2  1  1  6
  2  3  1  0
  4  6  1  0
  4  2  1  0
  4  5  1  6
  6  7  2  0
  9  8  1  6
 10  9  1  0
 11  9  1  0
 11 12  1  6
 12  6  1  0
 13 21  1  0
 13 11  1  0
 14 13  2  0
 16 15  1  0
 16 17  2  0
 18 16  1  0
 19 18  1  0
 20 19  1  6
 20 21  1  0
 22 20  1  0
 22 24  1  0
 23 22  2  0
M  END
$$$$
