VTQ.pdb
     RDKit          3D

 24 23  0  0  1  0  0  0  0  0999 V2000
    5.7254  -11.4388   26.4559 C   0  0  0  0  0  0  0  0  0  0  0  0
    6.7111  -12.4865   25.9925 C   0  0  2  0  0  0  0  0  0  0  0  0
    7.6634  -11.8832   25.0060 C   0  0  0  0  0  0  0  0  0  0  0  0
    6.0300  -13.6631   25.3489 C   0  0  2  0  0  0  0  0  0  0  0  0
    5.0702  -14.3074   26.2021 N   0  0  0  0  0  0  0  0  0  0  0  0
    6.9952  -14.6766   24.8482 C   0  0  0  0  0  0  0  0  0  0  0  0
    7.4285  -15.6099   25.5764 O   0  0  0  0  0  0  0  0  0  0  0  0
    9.3023  -16.5115   20.8100 C   0  0  0  0  0  0  0  0  0  0  0  0
    8.3795  -15.4971   21.4321 C   0  0  1  0  0  0  0  0  0  0  0  0
    7.0857  -15.8044   20.9767 O   0  0  0  0  0  0  0  0  0  0  0  0
    8.3746  -15.6434   22.9491 C   0  0  2  0  0  0  0  0  0  0  0  0
    7.4729  -14.6323   23.5124 N   0  0  0  0  0  0  0  0  0  0  0  0
    9.6948  -15.4033   23.5655 C   0  0  0  0  0  0  0  0  0  0  0  0
    9.9908  -14.1931   23.8722 O   0  0  0  0  0  0  0  0  0  0  0  0
    9.6467  -16.8443   28.6162 N   0  0  0  0  0  0  0  0  0  0  0  0
   10.9182  -16.2379   28.6744 C   0  0  0  0  0  0  0  0  0  0  0  0
   11.3095  -15.7402   29.7584 O   0  0  0  0  0  0  0  0  0  0  0  0
   11.7536  -16.2129   27.4335 C   0  0  0  0  0  0  0  0  0  0  0  0
   10.7893  -16.2722   26.2482 C   0  0  0  0  0  0  0  0  0  0  0  0
   11.5605  -16.3077   24.9455 C   0  0  2  0  0  0  0  0  0  0  0  0
   10.6210  -16.4271   23.8273 N   0  0  0  0  0  0  0  0  0  0  0  0
   12.4370  -17.5028   24.9076 C   0  0  0  0  0  0  0  0  0  0  0  0
   13.5697  -17.4775   25.4902 O   0  0  0  0  0  0  0  0  0  0  0  0
   12.1051  -18.6853   24.2642 O   0  0  0  0  0  0  0  0  0  0  0  0
  2  1  1  6
  2  3  1  0
  4  6  1  0
  4  2  1  0
  4  5  1  1
  6  7  2  0
  9  8  1  6
 10  9  1  0
 11  9  1  0
 11 12  1  1
 12  6  1  0
 13 21  1  0
 13 11  1  0
 14 13  2  0
 16 15  1  0
 16 17  2  0
 18 16  1  0
 19 18  1  0
 20 19  1  1
 20 21  1  0
 22 20  1  0
 22 24  1  0
 23 22  2  0
M  END
$$$$
