VTQ.pdb
     RDKit          3D

 24 23  0  0  1  0  0  0  0  0999 V2000
    8.1501  -12.4889   18.4382 C   0  0  0  0  0  0  0  0  0  0  0  0
    7.8673  -13.4783   19.5451 C   0  0  2  0  0  0  0  0  0  0  0  0
    8.2101  -12.8669   20.8690 C   0  0  0  0  0  0  0  0  0  0  0  0
    8.6512  -14.7518   19.3837 C   0  0  2  0  0  0  0  0  0  0  0  0
    8.3913  -15.4323   18.1452 N   0  0  0  0  0  0  0  0  0  0  0  0
    8.4426  -15.6964   20.5123 C   0  0  0  0  0  0  0  0  0  0  0  0
    7.8848  -16.8162   20.3575 O   0  0  0  0  0  0  0  0  0  0  0  0
    9.0410  -18.1357   21.2988 C   0  0  0  0  0  0  0  0  0  0  0  0
    9.5325  -17.5720   22.6058 C   0  0  1  0  0  0  0  0  0  0  0  0
   10.8764  -17.2128   22.4038 O   0  0  0  0  0  0  0  0  0  0  0  0
    8.7694  -16.3000   22.9562 C   0  0  2  0  0  0  0  0  0  0  0  0
    8.8693  -15.3698   21.8260 N   0  0  0  0  0  0  0  0  0  0  0  0
    9.3244  -15.5865   24.1238 C   0  0  0  0  0  0  0  0  0  0  0  0
   10.3815  -14.8836   23.9374 O   0  0  0  0  0  0  0  0  0  0  0  0
    6.3849  -10.7466   26.8666 N   0  0  0  0  0  0  0  0  0  0  0  0
    6.3505  -12.1441   26.6836 C   0  0  0  0  0  0  0  0  0  0  0  0
    5.3328  -12.7837   27.0460 O   0  0  0  0  0  0  0  0  0  0  0  0
    7.5363  -12.8109   26.0610 C   0  0  0  0  0  0  0  0  0  0  0  0
    7.9169  -13.9792   26.9710 C   0  0  0  0  0  0  0  0  0  0  0  0
    9.1481  -14.6808   26.4373 C   0  0  2  0  0  0  0  0  0  0  0  0
    8.7511  -15.6427   25.4056 N   0  0  0  0  0  0  0  0  0  0  0  0
    9.8031  -15.4507   27.5218 C   0  0  0  0  0  0  0  0  0  0  0  0
   10.3550  -14.8363   28.4919 O   0  0  0  0  0  0  0  0  0  0  0  0
    9.8619  -16.8355   27.5605 O   0  0  0  0  0  0  0  0  0  0  0  0
  2  1  1  6
  2  3  1  0
  4  6  1  0
  4  2  1  0
  4  5  1  6
  6  7  2  0
  9  8  1  6
 10  9  1  0
 11  9  1  0
 11 12  1  6
 12  6  1  0
 13 21  1  0
 13 11  1  0
 14 13  2  0
 16 15  1  0
 16 17  2  0
 18 16  1  0
 19 18  1  0
 20 19  1  1
 20 21  1  0
 22 20  1  0
 22 24  1  0
 23 22  2  0
M  END
$$$$
