VTQ.pdb
     RDKit          3D

 24 23  0  0  1  0  0  0  0  0999 V2000
    5.8047  -24.1212   20.7261 C   0  0  0  0  0  0  0  0  0  0  0  0
    5.3455  -22.8337   20.0815 C   0  0  2  0  0  0  0  0  0  0  0  0
    3.9662  -23.0113   19.5247 C   0  0  0  0  0  0  0  0  0  0  0  0
    6.2614  -22.3948   18.9721 C   0  0  2  0  0  0  0  0  0  0  0  0
    6.2394  -23.2677   17.8310 N   0  0  0  0  0  0  0  0  0  0  0  0
    7.6659  -22.2221   19.4270 C   0  0  0  0  0  0  0  0  0  0  0  0
    8.5446  -23.1080   19.2474 O   0  0  0  0  0  0  0  0  0  0  0  0
   11.2856  -19.1884   20.7571 C   0  0  0  0  0  0  0  0  0  0  0  0
    9.9682  -19.5125   20.1036 C   0  0  1  0  0  0  0  0  0  0  0  0
   10.2326  -19.6694   18.7320 O   0  0  0  0  0  0  0  0  0  0  0  0
    9.4328  -20.8432   20.6188 C   0  0  2  0  0  0  0  0  0  0  0  0
    8.0779  -21.0369   20.0903 N   0  0  0  0  0  0  0  0  0  0  0  0
    9.3100  -20.8957   22.0894 C   0  0  0  0  0  0  0  0  0  0  0  0
    8.4700  -20.0969   22.6396 O   0  0  0  0  0  0  0  0  0  0  0  0
   11.0470  -24.4191   28.3841 N   0  0  0  0  0  0  0  0  0  0  0  0
   11.0136  -24.2043   26.9911 C   0  0  0  0  0  0  0  0  0  0  0  0
   11.4574  -25.0936   26.2241 O   0  0  0  0  0  0  0  0  0  0  0  0
   10.4467  -22.9168   26.4817 C   0  0  0  0  0  0  0  0  0  0  0  0
   10.4685  -22.9957   24.9548 C   0  0  0  0  0  0  0  0  0  0  0  0
    9.9568  -21.7029   24.3551 C   0  0  2  0  0  0  0  0  0  0  0  0
   10.0592  -21.7701   22.8948 N   0  0  0  0  0  0  0  0  0  0  0  0
   10.8018  -20.5686   24.7993 C   0  0  0  0  0  0  0  0  0  0  0  0
   10.4875  -19.9156   25.8470 O   0  0  0  0  0  0  0  0  0  0  0  0
   11.9467  -20.1515   24.1376 O   0  0  0  0  0  0  0  0  0  0  0  0
  2  1  1  6
  2  3  1  0
  4  6  1  0
  4  2  1  0
  4  5  1  6
  6  7  2  0
  9  8  1  1
 10  9  1  0
 11  9  1  0
 11 12  1  6
 12  6  1  0
 13 21  1  0
 13 11  1  0
 14 13  2  0
 16 15  1  0
 16 17  2  0
 18 16  1  0
 19 18  1  0
 20 19  1  1
 20 21  1  0
 22 20  1  0
 22 24  1  0
 23 22  2  0
M  END
$$$$
