VTQ.pdb
     RDKit          3D

 24 23  0  0  1  0  0  0  0  0999 V2000
    6.8676  -13.4892   19.5363 C   0  0  0  0  0  0  0  0  0  0  0  0
    8.2819  -12.9569   19.5153 C   0  0  2  0  0  0  0  0  0  0  0  0
    8.7161  -12.7319   18.0993 C   0  0  0  0  0  0  0  0  0  0  0  0
    9.2534  -13.8969   20.1747 C   0  0  2  0  0  0  0  0  0  0  0  0
    9.5618  -15.0535   19.3799 N   0  0  0  0  0  0  0  0  0  0  0  0
    8.7975  -14.3368   21.5194 C   0  0  0  0  0  0  0  0  0  0  0  0
    8.3742  -13.5241   22.3850 O   0  0  0  0  0  0  0  0  0  0  0  0
    6.2704  -17.1542   22.3090 C   0  0  0  0  0  0  0  0  0  0  0  0
    7.5715  -17.4670   22.9995 C   0  0  1  0  0  0  0  0  0  0  0  0
    8.2963  -18.2958   22.1257 O   0  0  0  0  0  0  0  0  0  0  0  0
    8.3859  -16.1944   23.1998 C   0  0  2  0  0  0  0  0  0  0  0  0
    8.8216  -15.7078   21.8860 N   0  0  0  0  0  0  0  0  0  0  0  0
    9.6171  -16.4044   23.9874 C   0  0  0  0  0  0  0  0  0  0  0  0
   10.7141  -16.5523   23.3384 O   0  0  0  0  0  0  0  0  0  0  0  0
   10.5003  -13.7319   29.7897 N   0  0  0  0  0  0  0  0  0  0  0  0
    9.8434  -14.4722   28.7857 C   0  0  0  0  0  0  0  0  0  0  0  0
    8.8032  -14.0037   28.2618 O   0  0  0  0  0  0  0  0  0  0  0  0
   10.4173  -15.7942   28.3840 C   0  0  0  0  0  0  0  0  0  0  0  0
   11.1654  -15.5720   27.0691 C   0  0  0  0  0  0  0  0  0  0  0  0
   10.8871  -16.7089   26.1083 C   0  0  2  0  0  0  0  0  0  0  0  0
    9.6362  -16.4452   25.3920 N   0  0  0  0  0  0  0  0  0  0  0  0
   10.7009  -17.9733   26.8594 C   0  0  0  0  0  0  0  0  0  0  0  0
    9.5274  -18.4315   27.0493 O   0  0  0  0  0  0  0  0  0  0  0  0
   11.7432  -18.7194   27.3882 O   0  0  0  0  0  0  0  0  0  0  0  0
  2  1  1  6
  2  3  1  0
  4  6  1  0
  4  2  1  0
  4  5  1  6
  6  7  2  0
  9  8  1  6
 10  9  1  0
 11  9  1  0
 11 12  1  6
 12  6  1  0
 13 21  1  0
 13 11  1  0
 14 13  2  0
 16 15  1  0
 16 17  2  0
 18 16  1  0
 19 18  1  0
 20 19  1  1
 20 21  1  0
 22 20  1  0
 22 24  1  0
 23 22  2  0
M  END
$$$$
