VTQ.pdb
     RDKit          3D

 24 23  0  0  1  0  0  0  0  0999 V2000
    3.0076  -23.3078   23.2716 C   0  0  0  0  0  0  0  0  0  0  0  0
    2.3167  -22.1570   22.5771 C   0  0  2  0  0  0  0  0  0  0  0  0
    0.8939  -22.5239   22.2853 C   0  0  0  0  0  0  0  0  0  0  0  0
    2.9932  -21.7824   21.2870 C   0  0  2  0  0  0  0  0  0  0  0  0
    2.8939  -22.7948   20.2722 N   0  0  0  0  0  0  0  0  0  0  0  0
    4.4224  -21.4207   21.4768 C   0  0  0  0  0  0  0  0  0  0  0  0
    5.3570  -22.2400   21.2659 O   0  0  0  0  0  0  0  0  0  0  0  0
    5.8004  -17.5214   21.1319 C   0  0  0  0  0  0  0  0  0  0  0  0
    6.6486  -18.7656   21.1178 C   0  0  1  0  0  0  0  0  0  0  0  0
    7.9525  -18.3618   21.4532 O   0  0  0  0  0  0  0  0  0  0  0  0
    6.1825  -19.7384   22.1945 C   0  0  2  0  0  0  0  0  0  0  0  0
    4.7953  -20.1212   21.9087 N   0  0  0  0  0  0  0  0  0  0  0  0
    6.1745  -19.1526   23.5500 C   0  0  0  0  0  0  0  0  0  0  0  0
    5.0863  -18.6008   23.9472 O   0  0  0  0  0  0  0  0  0  0  0  0
    9.5323  -20.7641   28.3978 N   0  0  0  0  0  0  0  0  0  0  0  0
    8.7681  -19.7453   29.0025 C   0  0  0  0  0  0  0  0  0  0  0  0
    8.8264  -19.5939   30.2474 O   0  0  0  0  0  0  0  0  0  0  0  0
    7.9139  -18.8813   28.1295 C   0  0  0  0  0  0  0  0  0  0  0  0
    8.0198  -19.4418   26.7108 C   0  0  0  0  0  0  0  0  0  0  0  0
    7.1992  -18.6040   25.7528 C   0  0  2  0  0  0  0  0  0  0  0  0
    7.2879  -19.1769   24.4070 N   0  0  0  0  0  0  0  0  0  0  0  0
    7.7521  -17.2305   25.6790 C   0  0  0  0  0  0  0  0  0  0  0  0
    8.7351  -16.9829   24.9073 O   0  0  0  0  0  0  0  0  0  0  0  0
    7.2630  -16.1595   26.4113 O   0  0  0  0  0  0  0  0  0  0  0  0
  2  1  1  6
  2  3  1  0
  4  6  1  0
  4  2  1  0
  4  5  1  6
  6  7  2  0
  9  8  1  1
 10  9  1  0
 11  9  1  0
 11 12  1  6
 12  6  1  0
 13 21  1  0
 13 11  1  0
 14 13  2  0
 16 15  1  0
 16 17  2  0
 18 16  1  0
 19 18  1  0
 20 19  1  1
 20 21  1  0
 22 20  1  0
 22 24  1  0
 23 22  2  0
M  END
$$$$
