VTQ.pdb
     RDKit          3D

 24 23  0  0  1  0  0  0  0  0999 V2000
    5.9710  -10.9244   26.6877 C   0  0  0  0  0  0  0  0  0  0  0  0
    6.8002  -12.0796   26.1759 C   0  0  2  0  0  0  0  0  0  0  0  0
    7.7865  -11.5839   25.1632 C   0  0  0  0  0  0  0  0  0  0  0  0
    5.9547  -13.1503   25.5428 C   0  0  2  0  0  0  0  0  0  0  0  0
    5.0013  -13.7361   26.4441 N   0  0  0  0  0  0  0  0  0  0  0  0
    6.7694  -14.2297   24.9258 C   0  0  0  0  0  0  0  0  0  0  0  0
    7.1665  -15.2306   25.5812 O   0  0  0  0  0  0  0  0  0  0  0  0
    8.4228  -13.7349   21.0271 C   0  0  0  0  0  0  0  0  0  0  0  0
    7.7036  -15.0178   21.3503 C   0  0  1  0  0  0  0  0  0  0  0  0
    8.4127  -16.0451   20.7040 O   0  0  0  0  0  0  0  0  0  0  0  0
    7.7620  -15.2969   22.8474 C   0  0  2  0  0  0  0  0  0  0  0  0
    7.1370  -14.1744   23.5560 N   0  0  0  0  0  0  0  0  0  0  0  0
    9.1388  -15.3964   23.3718 C   0  0  0  0  0  0  0  0  0  0  0  0
    9.7284  -14.3024   23.6909 O   0  0  0  0  0  0  0  0  0  0  0  0
   11.3542  -19.7603   26.7899 N   0  0  0  0  0  0  0  0  0  0  0  0
   10.5985  -18.6556   27.2327 C   0  0  0  0  0  0  0  0  0  0  0  0
   10.0618  -18.6966   28.3669 O   0  0  0  0  0  0  0  0  0  0  0  0
   10.4670  -17.4725   26.3264 C   0  0  0  0  0  0  0  0  0  0  0  0
   11.2956  -17.7759   25.0776 C   0  0  0  0  0  0  0  0  0  0  0  0
   11.1753  -16.6431   24.0799 C   0  0  2  0  0  0  0  0  0  0  0  0
    9.8152  -16.6172   23.5351 N   0  0  0  0  0  0  0  0  0  0  0  0
   12.0966  -16.8708   22.9410 C   0  0  0  0  0  0  0  0  0  0  0  0
   13.3564  -16.8284   23.1258 O   0  0  0  0  0  0  0  0  0  0  0  0
   11.6757  -17.1352   21.6466 O   0  0  0  0  0  0  0  0  0  0  0  0
  2  1  1  6
  2  3  1  0
  4  6  1  0
  4  2  1  0
  4  5  1  1
  6  7  2  0
  9  8  1  1
 10  9  1  0
 11  9  1  0
 11 12  1  1
 12  6  1  0
 13 21  1  0
 13 11  1  0
 14 13  2  0
 16 15  1  0
 16 17  2  0
 18 16  1  0
 19 18  1  0
 20 19  1  1
 20 21  1  0
 22 20  1  0
 22 24  1  0
 23 22  2  0
M  END
$$$$
