VTQ.pdb
     RDKit          3D

 24 23  0  0  1  0  0  0  0  0999 V2000
    8.1807  -19.5212   18.5181 C   0  0  0  0  0  0  0  0  0  0  0  0
    6.8881  -18.7452   18.4129 C   0  0  2  0  0  0  0  0  0  0  0  0
    5.8755  -19.5503   17.6576 C   0  0  0  0  0  0  0  0  0  0  0  0
    7.0722  -17.4248   17.7166 C   0  0  2  0  0  0  0  0  0  0  0  0
    7.3738  -17.5514   16.3175 N   0  0  0  0  0  0  0  0  0  0  0  0
    8.1084  -16.5784   18.3642 C   0  0  0  0  0  0  0  0  0  0  0  0
    9.2701  -16.4571   17.8901 O   0  0  0  0  0  0  0  0  0  0  0  0
    7.4788  -13.0302   19.6861 C   0  0  0  0  0  0  0  0  0  0  0  0
    8.1305  -13.8017   20.8031 C   0  0  1  0  0  0  0  0  0  0  0  0
    7.0922  -14.2355   21.6455 O   0  0  0  0  0  0  0  0  0  0  0  0
    8.8225  -15.0449   20.2568 C   0  0  2  0  0  0  0  0  0  0  0  0
    7.8261  -15.8642   19.5578 N   0  0  0  0  0  0  0  0  0  0  0  0
    9.3956  -15.9071   21.3097 C   0  0  0  0  0  0  0  0  0  0  0  0
    8.6598  -16.8576   21.7585 O   0  0  0  0  0  0  0  0  0  0  0  0
   10.9076  -20.8014   20.6519 N   0  0  0  0  0  0  0  0  0  0  0  0
   11.7310  -20.1227   21.5733 C   0  0  0  0  0  0  0  0  0  0  0  0
   12.9518  -20.4098   21.6299 O   0  0  0  0  0  0  0  0  0  0  0  0
   11.1113  -19.0815   22.4510 C   0  0  0  0  0  0  0  0  0  0  0  0
   11.9115  -17.7948   22.2459 C   0  0  0  0  0  0  0  0  0  0  0  0
   11.1920  -16.6226   22.8795 C   0  0  2  0  0  0  0  0  0  0  0  0
   10.6902  -15.7339   21.8280 N   0  0  0  0  0  0  0  0  0  0  0  0
   12.1379  -15.8324   23.7032 C   0  0  0  0  0  0  0  0  0  0  0  0
   12.7570  -14.8456   23.1875 O   0  0  0  0  0  0  0  0  0  0  0  0
   12.4081  -16.0957   25.0375 O   0  0  0  0  0  0  0  0  0  0  0  0
  2  1  1  6
  2  3  1  0
  4  6  1  0
  4  2  1  0
  4  5  1  6
  6  7  2  0
  9  8  1  6
 10  9  1  0
 11  9  1  0
 11 12  1  1
 12  6  1  0
 13 21  1  0
 13 11  1  0
 14 13  2  0
 16 15  1  0
 16 17  2  0
 18 16  1  0
 19 18  1  0
 20 19  1  6
 20 21  1  0
 22 20  1  0
 22 24  1  0
 23 22  2  0
M  END
$$$$
