VTQ.pdb
     RDKit          3D

 24 23  0  0  1  0  0  0  0  0999 V2000
   14.1226  -20.2088   18.2179 C   0  0  0  0  0  0  0  0  0  0  0  0
   12.7084  -20.6392   17.9035 C   0  0  2  0  0  0  0  0  0  0  0  0
   12.7298  -21.7479   16.8962 C   0  0  0  0  0  0  0  0  0  0  0  0
   11.8773  -19.5093   17.3605 C   0  0  2  0  0  0  0  0  0  0  0  0
   12.3480  -19.0053   16.1000 N   0  0  0  0  0  0  0  0  0  0  0  0
   11.7519  -18.3814   18.3205 C   0  0  0  0  0  0  0  0  0  0  0  0
   12.4651  -17.3453   18.2374 O   0  0  0  0  0  0  0  0  0  0  0  0
    9.0007  -15.9949   21.6124 C   0  0  0  0  0  0  0  0  0  0  0  0
    9.1939  -17.1523   20.6686 C   0  0  1  0  0  0  0  0  0  0  0  0
    8.5794  -16.7858   19.4588 O   0  0  0  0  0  0  0  0  0  0  0  0
   10.6759  -17.3614   20.3810 C   0  0  2  0  0  0  0  0  0  0  0  0
   10.8114  -18.4278   19.3825 N   0  0  0  0  0  0  0  0  0  0  0  0
   11.4450  -17.8053   21.5608 C   0  0  0  0  0  0  0  0  0  0  0  0
   11.2880  -19.0197   21.9440 O   0  0  0  0  0  0  0  0  0  0  0  0
   17.7334  -16.3862   22.2852 N   0  0  0  0  0  0  0  0  0  0  0  0
   16.4618  -15.8811   22.6252 C   0  0  0  0  0  0  0  0  0  0  0  0
   16.3760  -14.7460   23.1545 O   0  0  0  0  0  0  0  0  0  0  0  0
   15.2598  -16.7247   22.3391 C   0  0  0  0  0  0  0  0  0  0  0  0
   14.3538  -16.6373   23.5678 C   0  0  0  0  0  0  0  0  0  0  0  0
   13.1236  -17.4990   23.3752 C   0  0  2  0  0  0  0  0  0  0  0  0
   12.3271  -16.9685   22.2655 N   0  0  0  0  0  0  0  0  0  0  0  0
   12.2720  -17.4452   24.5875 C   0  0  0  0  0  0  0  0  0  0  0  0
   11.2786  -16.6487   24.6302 O   0  0  0  0  0  0  0  0  0  0  0  0
   12.4830  -18.2228   25.7160 O   0  0  0  0  0  0  0  0  0  0  0  0
  2  1  1  6
  2  3  1  0
  4  6  1  0
  4  2  1  0
  4  5  1  6
  6  7  2  0
  9  8  1  1
 10  9  1  0
 11  9  1  0
 11 12  1  6
 12  6  1  0
 13 21  1  0
 13 11  1  0
 14 13  2  0
 16 15  1  0
 16 17  2  0
 18 16  1  0
 19 18  1  0
 20 19  1  1
 20 21  1  0
 22 20  1  0
 22 24  1  0
 23 22  2  0
M  END
$$$$
