PYM.pdb
     RDKit          3D

 28 29  0  0  1  0  0  0  0  0999 V2000
    9.1377  -18.3685   19.3630 N   0  0  0  0  0  0  0  0  0  0  0  0
    8.1704  -18.4662   18.2872 C   0  0  0  0  0  0  0  0  0  0  0  0
    8.7446  -17.6566   17.1499 C   0  0  0  0  0  0  0  0  0  0  0  0
    9.4676  -16.5547   17.8550 C   0  0  0  0  0  0  0  0  0  0  0  0
    9.9017  -17.1822   19.1383 C   0  0  1  0  0  0  0  0  0  0  0  0
    9.8592  -16.2449   20.2931 C   0  0  0  0  0  0  0  0  0  0  0  0
   10.5290  -15.1806   20.2736 O   0  0  0  0  0  0  0  0  0  0  0  0
    5.6168  -11.8951   26.8392 O   0  0  0  0  0  0  0  0  0  0  0  0
    6.0675  -12.7853   25.8681 C   0  0  0  0  0  0  0  0  0  0  0  0
    6.7365  -12.3017   24.7622 C   0  0  0  0  0  0  0  0  0  0  0  0
    7.1922  -13.1592   23.7883 C   0  0  0  0  0  0  0  0  0  0  0  0
    7.0074  -14.5457   23.8609 C   0  0  0  0  0  0  0  0  0  0  0  0
    7.4472  -15.4555   22.8246 C   0  0  0  0  0  0  0  0  0  0  0  0
    8.8864  -15.6205   22.5530 C   0  0  2  0  0  0  0  0  0  0  0  0
    9.0545  -16.5652   21.4170 N   0  0  0  0  0  0  0  0  0  0  0  0
    9.6473  -16.1802   23.6744 C   0  0  0  0  0  0  0  0  0  0  0  0
    9.8679  -17.4304   23.7052 O   0  0  0  0  0  0  0  0  0  0  0  0
    6.3382  -15.0056   24.9720 C   0  0  0  0  0  0  0  0  0  0  0  0
    5.8715  -14.1442   25.9661 C   0  0  0  0  0  0  0  0  0  0  0  0
   10.4090  -13.3830   29.6556 C   0  0  0  0  0  0  0  0  0  0  0  0
   11.4783  -14.8498   29.7846 S   0  0  0  0  0  0  0  0  0  0  0  0
   11.3854  -15.8778   28.3255 C   0  0  0  0  0  0  0  0  0  0  0  0
   10.8250  -15.2370   27.1082 C   0  0  0  0  0  0  0  0  0  0  0  0
   10.8088  -16.1493   25.8819 C   0  0  2  0  0  0  0  0  0  0  0  0
   10.1874  -15.4373   24.7652 N   0  0  0  0  0  0  0  0  0  0  0  0
   10.0752  -17.3743   26.2041 C   0  0  0  0  0  0  0  0  0  0  0  0
   10.6584  -18.4282   26.5292 O   0  0  0  0  0  0  0  0  0  0  0  0
    8.6720  -17.4417   26.1704 O   0  0  0  0  0  0  0  0  0  0  0  0
  1  5  1  0
  2  3  1  0
  2  1  1  0
  3  4  1  0
  4  5  1  0
  5  6  1  1
  6  7  2  0
  9  8  1  0
  9 19  2  0
 10  9  1  0
 11 10  2  0
 11 12  1  0
 12 18  2  0
 13 12  1  0
 14 13  1  1
 14 16  1  0
 15 14  1  0
 15  6  1  0
 16 17  2  0
 16 25  1  0
 18 19  1  0
 21 22  1  0
 21 20  1  0
 22 23  1  0
 24 23  1  1
 24 26  1  0
 25 24  1  0
 26 27  2  0
 26 28  1  0
M  END
$$$$
