PYM.pdb
     RDKit          3D

 28 29  0  0  1  0  0  0  0  0999 V2000
    9.0793  -14.7910   19.6281 N   0  0  0  0  0  0  0  0  0  0  0  0
    8.5427  -14.7268   18.2826 C   0  0  0  0  0  0  0  0  0  0  0  0
    7.9067  -13.3631   18.1636 C   0  0  0  0  0  0  0  0  0  0  0  0
    7.3922  -13.1119   19.5442 C   0  0  0  0  0  0  0  0  0  0  0  0
    8.3538  -13.8471   20.4182 C   0  0  1  0  0  0  0  0  0  0  0  0
    7.7092  -14.4684   21.6065 C   0  0  0  0  0  0  0  0  0  0  0  0
    6.7704  -13.8799   22.2016 O   0  0  0  0  0  0  0  0  0  0  0  0
    3.0240  -19.4616   19.8118 O   0  0  0  0  0  0  0  0  0  0  0  0
    4.1148  -19.0702   20.5833 C   0  0  0  0  0  0  0  0  0  0  0  0
    3.9141  -18.6693   21.8885 C   0  0  0  0  0  0  0  0  0  0  0  0
    4.9741  -18.2778   22.6724 C   0  0  0  0  0  0  0  0  0  0  0  0
    6.2930  -18.2635   22.2008 C   0  0  0  0  0  0  0  0  0  0  0  0
    7.4126  -17.8169   23.0023 C   0  0  0  0  0  0  0  0  0  0  0  0
    7.5962  -16.3798   23.2731 C   0  0  2  0  0  0  0  0  0  0  0  0
    8.1654  -15.7328   22.0612 N   0  0  0  0  0  0  0  0  0  0  0  0
    8.5230  -16.0909   24.3719 C   0  0  0  0  0  0  0  0  0  0  0  0
    9.7529  -16.3732   24.2298 O   0  0  0  0  0  0  0  0  0  0  0  0
    6.4697  -18.6673   20.8971 C   0  0  0  0  0  0  0  0  0  0  0  0
    5.4010  -19.0664   20.0930 C   0  0  0  0  0  0  0  0  0  0  0  0
    6.3298  -11.1776   25.7588 C   0  0  0  0  0  0  0  0  0  0  0  0
    6.9349  -12.0197   27.2542 S   0  0  0  0  0  0  0  0  0  0  0  0
    8.5242  -12.7939   26.9913 C   0  0  0  0  0  0  0  0  0  0  0  0
    8.6978  -14.1473   27.5784 C   0  0  0  0  0  0  0  0  0  0  0  0
    9.2236  -15.1869   26.5888 C   0  0  2  0  0  0  0  0  0  0  0  0
    8.1720  -15.4999   25.6213 N   0  0  0  0  0  0  0  0  0  0  0  0
    9.6411  -16.3819   27.3239 C   0  0  0  0  0  0  0  0  0  0  0  0
    9.0125  -17.4570   27.2501 O   0  0  0  0  0  0  0  0  0  0  0  0
   10.7739  -16.3960   28.1554 O   0  0  0  0  0  0  0  0  0  0  0  0
  1  5  1  0
  2  3  1  0
  2  1  1  0
  3  4  1  0
  4  5  1  0
  5  6  1  1
  6  7  2  0
  9  8  1  0
  9 19  2  0
 10  9  1  0
 11 10  2  0
 11 12  1  0
 12 18  2  0
 13 12  1  0
 14 13  1  6
 14 16  1  0
 15 14  1  0
 15  6  1  0
 16 17  2  0
 16 25  1  0
 18 19  1  0
 21 22  1  0
 21 20  1  0
 22 23  1  0
 24 23  1  1
 24 26  1  0
 25 24  1  0
 26 27  2  0
 26 28  1  0
M  END
$$$$
