PYM.pdb
     RDKit          3D

 28 29  0  0  1  0  0  0  0  0999 V2000
    6.7590  -18.1027   20.6114 N   0  0  0  0  0  0  0  0  0  0  0  0
    5.9955  -18.2104   19.3835 C   0  0  0  0  0  0  0  0  0  0  0  0
    6.8596  -19.0070   18.4364 C   0  0  0  0  0  0  0  0  0  0  0  0
    8.2439  -18.5885   18.8137 C   0  0  0  0  0  0  0  0  0  0  0  0
    8.1350  -18.2822   20.2709 C   0  0  1  0  0  0  0  0  0  0  0  0
    8.9852  -17.1371   20.6945 C   0  0  0  0  0  0  0  0  0  0  0  0
   10.2333  -17.1818   20.5454 O   0  0  0  0  0  0  0  0  0  0  0  0
    8.0729  -14.0293   15.2193 O   0  0  0  0  0  0  0  0  0  0  0  0
    8.1917  -13.9141   16.6017 C   0  0  0  0  0  0  0  0  0  0  0  0
    9.2851  -14.4662   17.2374 C   0  0  0  0  0  0  0  0  0  0  0  0
    9.4268  -14.3668   18.6018 C   0  0  0  0  0  0  0  0  0  0  0  0
    8.4880  -13.7123   19.4094 C   0  0  0  0  0  0  0  0  0  0  0  0
    8.6048  -13.6342   20.8500 C   0  0  0  0  0  0  0  0  0  0  0  0
    9.1536  -14.7740   21.6062 C   0  0  2  0  0  0  0  0  0  0  0  0
    8.3723  -15.9935   21.2690 N   0  0  0  0  0  0  0  0  0  0  0  0
    9.0754  -14.6204   23.0622 C   0  0  0  0  0  0  0  0  0  0  0  0
    8.7315  -13.4972   23.5448 O   0  0  0  0  0  0  0  0  0  0  0  0
    7.4062  -13.1692   18.7545 C   0  0  0  0  0  0  0  0  0  0  0  0
    7.2527  -13.2645   17.3706 C   0  0  0  0  0  0  0  0  0  0  0  0
    6.9498  -11.9517   27.2073 C   0  0  0  0  0  0  0  0  0  0  0  0
    6.1616  -13.5759   27.4357 S   0  0  0  0  0  0  0  0  0  0  0  0
    7.2930  -14.9215   27.1138 C   0  0  0  0  0  0  0  0  0  0  0  0
    7.6386  -15.1589   25.6887 C   0  0  0  0  0  0  0  0  0  0  0  0
    9.1329  -15.3661   25.4420 C   0  0  2  0  0  0  0  0  0  0  0  0
    9.3489  -15.6397   24.0213 N   0  0  0  0  0  0  0  0  0  0  0  0
    9.6082  -16.4730   26.2737 C   0  0  0  0  0  0  0  0  0  0  0  0
    9.8851  -17.5902   25.7925 O   0  0  0  0  0  0  0  0  0  0  0  0
    9.7848  -16.3485   27.6623 O   0  0  0  0  0  0  0  0  0  0  0  0
  1  5  1  0
  2  3  1  0
  2  1  1  0
  3  4  1  0
  4  5  1  0
  5  6  1  6
  6  7  2  0
  9  8  1  0
  9 19  2  0
 10  9  1  0
 11 10  2  0
 11 12  1  0
 12 18  2  0
 13 12  1  0
 14 13  1  6
 14 16  1  0
 15 14  1  0
 15  6  1  0
 16 17  2  0
 16 25  1  0
 18 19  1  0
 21 22  1  0
 21 20  1  0
 22 23  1  0
 24 23  1  6
 24 26  1  0
 25 24  1  0
 26 27  2  0
 26 28  1  0
M  END
$$$$
