PYM.pdb
     RDKit          3D

 28 29  0  0  1  0  0  0  0  0999 V2000
    4.8146  -20.5277   22.2062 N   0  0  0  0  0  0  0  0  0  0  0  0
    5.0538  -21.9429   22.0000 C   0  0  0  0  0  0  0  0  0  0  0  0
    5.4742  -22.4840   23.3450 C   0  0  0  0  0  0  0  0  0  0  0  0
    6.2227  -21.3390   23.9474 C   0  0  0  0  0  0  0  0  0  0  0  0
    5.5600  -20.1366   23.3608 C   0  0  1  0  0  0  0  0  0  0  0  0
    6.5063  -19.0227   23.0827 C   0  0  0  0  0  0  0  0  0  0  0  0
    7.7430  -19.1827   23.2460 O   0  0  0  0  0  0  0  0  0  0  0  0
    9.4917  -12.4957   18.0569 O   0  0  0  0  0  0  0  0  0  0  0  0
    8.6998  -13.3060   18.8661 C   0  0  0  0  0  0  0  0  0  0  0  0
    7.5928  -12.7676   19.4897 C   0  0  0  0  0  0  0  0  0  0  0  0
    6.7938  -13.5459   20.2943 C   0  0  0  0  0  0  0  0  0  0  0  0
    7.0522  -14.9034   20.5229 C   0  0  0  0  0  0  0  0  0  0  0  0
    6.2423  -15.7242   21.3979 C   0  0  0  0  0  0  0  0  0  0  0  0
    6.8893  -16.6142   22.3785 C   0  0  2  0  0  0  0  0  0  0  0  0
    5.9979  -17.7771   22.6314 N   0  0  0  0  0  0  0  0  0  0  0  0
    7.1372  -15.9900   23.6819 C   0  0  0  0  0  0  0  0  0  0  0  0
    6.3341  -15.0997   24.1004 O   0  0  0  0  0  0  0  0  0  0  0  0
    8.1607  -15.4191   19.8910 C   0  0  0  0  0  0  0  0  0  0  0  0
    8.9782  -14.6382   19.0726 C   0  0  0  0  0  0  0  0  0  0  0  0
    7.3330  -11.3070   27.1712 C   0  0  0  0  0  0  0  0  0  0  0  0
    6.3714  -12.8518   27.1486 S   0  0  0  0  0  0  0  0  0  0  0  0
    7.0234  -14.0306   25.9740 C   0  0  0  0  0  0  0  0  0  0  0  0
    8.3744  -14.5716   26.2714 C   0  0  0  0  0  0  0  0  0  0  0  0
    9.0616  -15.2133   25.0662 C   0  0  2  0  0  0  0  0  0  0  0  0
    8.2201  -16.2965   24.5576 N   0  0  0  0  0  0  0  0  0  0  0  0
   10.3777  -15.7096   25.4715 C   0  0  0  0  0  0  0  0  0  0  0  0
   10.6257  -16.9290   25.5617 O   0  0  0  0  0  0  0  0  0  0  0  0
   11.4436  -14.8480   25.7819 O   0  0  0  0  0  0  0  0  0  0  0  0
  1  5  1  0
  2  3  1  0
  2  1  1  0
  3  4  1  0
  4  5  1  0
  5  6  1  6
  6  7  2  0
  9  8  1  0
  9 19  2  0
 10  9  1  0
 11 10  2  0
 11 12  1  0
 12 18  2  0
 13 12  1  0
 14 13  1  6
 14 16  1  0
 15 14  1  0
 15  6  1  0
 16 17  2  0
 16 25  1  0
 18 19  1  0
 21 22  1  0
 21 20  1  0
 22 23  1  0
 24 23  1  1
 24 26  1  0
 25 24  1  0
 26 27  2  0
 26 28  1  0
M  END
$$$$
