PYM.pdb
     RDKit          3D

 28 29  0  0  1  0  0  0  0  0999 V2000
    6.5517  -18.3729   20.8172 N   0  0  0  0  0  0  0  0  0  0  0  0
    5.8102  -18.3209   19.5722 C   0  0  0  0  0  0  0  0  0  0  0  0
    6.6306  -19.1059   18.5777 C   0  0  0  0  0  0  0  0  0  0  0  0
    8.0345  -18.8307   19.0104 C   0  0  0  0  0  0  0  0  0  0  0  0
    7.9168  -18.6341   20.4857 C   0  0  1  0  0  0  0  0  0  0  0  0
    8.8443  -17.5980   21.0149 C   0  0  0  0  0  0  0  0  0  0  0  0
   10.0890  -17.7458   20.9117 O   0  0  0  0  0  0  0  0  0  0  0  0
    7.7020  -13.4271   16.0818 O   0  0  0  0  0  0  0  0  0  0  0  0
    7.9614  -13.6017   17.4385 C   0  0  0  0  0  0  0  0  0  0  0  0
    7.0559  -13.1332   18.3685 C   0  0  0  0  0  0  0  0  0  0  0  0
    7.2878  -13.2926   19.7147 C   0  0  0  0  0  0  0  0  0  0  0  0
    8.4340  -13.9272   20.2101 C   0  0  0  0  0  0  0  0  0  0  0  0
    8.7093  -14.0671   21.6243 C   0  0  0  0  0  0  0  0  0  0  0  0
    9.1840  -15.3567   22.1571 C   0  0  2  0  0  0  0  0  0  0  0  0
    8.3088  -16.4409   21.6378 N   0  0  0  0  0  0  0  0  0  0  0  0
    9.1409  -15.4530   23.6195 C   0  0  0  0  0  0  0  0  0  0  0  0
    9.7219  -14.5612   24.3123 O   0  0  0  0  0  0  0  0  0  0  0  0
    9.3228  -14.3866   19.2652 C   0  0  0  0  0  0  0  0  0  0  0  0
    9.0972  -14.2299   17.8968 C   0  0  0  0  0  0  0  0  0  0  0  0
    6.8512  -11.3046   27.1706 C   0  0  0  0  0  0  0  0  0  0  0  0
    6.2918  -13.0184   26.9232 S   0  0  0  0  0  0  0  0  0  0  0  0
    7.6250  -14.0911   26.4071 C   0  0  0  0  0  0  0  0  0  0  0  0
    7.2888  -15.5311   26.2661 C   0  0  0  0  0  0  0  0  0  0  0  0
    8.4671  -16.4001   25.8267 C   0  0  2  0  0  0  0  0  0  0  0  0
    8.4858  -16.4763   24.3660 N   0  0  0  0  0  0  0  0  0  0  0  0
    8.3336  -17.7291   26.4257 C   0  0  0  0  0  0  0  0  0  0  0  0
    7.9629  -18.7190   25.7629 O   0  0  0  0  0  0  0  0  0  0  0  0
    8.6153  -17.9755   27.7802 O   0  0  0  0  0  0  0  0  0  0  0  0
  1  5  1  0
  2  3  1  0
  2  1  1  0
  3  4  1  0
  4  5  1  0
  5  6  1  6
  6  7  2  0
  9  8  1  0
  9 19  2  0
 10  9  1  0
 11 10  2  0
 11 12  1  0
 12 18  2  0
 13 12  1  0
 14 13  1  1
 14 16  1  0
 15 14  1  0
 15  6  1  0
 16 17  2  0
 16 25  1  0
 18 19  1  0
 21 22  1  0
 21 20  1  0
 22 23  1  0
 24 23  1  6
 24 26  1  0
 25 24  1  0
 26 27  2  0
 26 28  1  0
M  END
$$$$
