PYM.pdb
     RDKit          3D

 28 29  0  0  1  0  0  0  0  0999 V2000
    8.9133  -18.0507   19.1989 N   0  0  0  0  0  0  0  0  0  0  0  0
    8.0808  -17.8718   18.0253 C   0  0  0  0  0  0  0  0  0  0  0  0
    8.9370  -17.1277   17.0295 C   0  0  0  0  0  0  0  0  0  0  0  0
    9.7783  -16.2513   17.9002 C   0  0  0  0  0  0  0  0  0  0  0  0
    9.9217  -17.0393   19.1602 C   0  0  1  0  0  0  0  0  0  0  0  0
    9.9323  -16.1923   20.3834 C   0  0  0  0  0  0  0  0  0  0  0  0
   10.7785  -15.2708   20.5121 O   0  0  0  0  0  0  0  0  0  0  0  0
    5.6519  -11.6109   26.7573 O   0  0  0  0  0  0  0  0  0  0  0  0
    6.0822  -12.5276   25.8018 C   0  0  0  0  0  0  0  0  0  0  0  0
    6.6787  -12.0716   24.6440 C   0  0  0  0  0  0  0  0  0  0  0  0
    7.1127  -12.9556   23.6840 C   0  0  0  0  0  0  0  0  0  0  0  0
    6.9772  -14.3428   23.8231 C   0  0  0  0  0  0  0  0  0  0  0  0
    7.3940  -15.2823   22.8039 C   0  0  0  0  0  0  0  0  0  0  0  0
    8.8288  -15.5251   22.5700 C   0  0  2  0  0  0  0  0  0  0  0  0
    8.9768  -16.4359   21.4039 N   0  0  0  0  0  0  0  0  0  0  0  0
    9.5177  -16.1712   23.6914 C   0  0  0  0  0  0  0  0  0  0  0  0
    9.7693  -17.4142   23.6251 O   0  0  0  0  0  0  0  0  0  0  0  0
    6.3800  -14.7750   24.9852 C   0  0  0  0  0  0  0  0  0  0  0  0
    5.9359  -13.8864   25.9656 C   0  0  0  0  0  0  0  0  0  0  0  0
   11.3069  -13.3790   29.5360 C   0  0  0  0  0  0  0  0  0  0  0  0
   11.9437  -15.0773   29.6846 S   0  0  0  0  0  0  0  0  0  0  0  0
   11.4341  -16.1067   28.3153 C   0  0  0  0  0  0  0  0  0  0  0  0
   10.8751  -15.3973   27.1360 C   0  0  0  0  0  0  0  0  0  0  0  0
   10.5155  -16.3215   25.9728 C   0  0  2  0  0  0  0  0  0  0  0  0
    9.9532  -15.5222   24.8842 N   0  0  0  0  0  0  0  0  0  0  0  0
    9.5621  -17.3302   26.4377 C   0  0  0  0  0  0  0  0  0  0  0  0
    8.3294  -17.1410   26.4026 O   0  0  0  0  0  0  0  0  0  0  0  0
    9.9718  -18.5732   26.9494 O   0  0  0  0  0  0  0  0  0  0  0  0
  1  5  1  0
  2  3  1  0
  2  1  1  0
  3  4  1  0
  4  5  1  0
  5  6  1  1
  6  7  2  0
  9  8  1  0
  9 19  2  0
 10  9  1  0
 11 10  2  0
 11 12  1  0
 12 18  2  0
 13 12  1  0
 14 13  1  1
 14 16  1  0
 15 14  1  0
 15  6  1  0
 16 17  2  0
 16 25  1  0
 18 19  1  0
 21 22  1  0
 21 20  1  0
 22 23  1  0
 24 23  1  1
 24 26  1  0
 25 24  1  0
 26 27  2  0
 26 28  1  0
M  END
$$$$
