PYM.pdb
     RDKit          3D

 28 29  0  0  1  0  0  0  0  0999 V2000
    9.2423  -15.0216   18.5753 N   0  0  0  0  0  0  0  0  0  0  0  0
    8.5700  -14.9181   17.2948 C   0  0  0  0  0  0  0  0  0  0  0  0
    7.9475  -13.5433   17.2728 C   0  0  0  0  0  0  0  0  0  0  0  0
    7.5832  -13.3176   18.7047 C   0  0  0  0  0  0  0  0  0  0  0  0
    8.6183  -14.0866   19.4573 C   0  0  1  0  0  0  0  0  0  0  0  0
    8.0904  -14.7268   20.6923 C   0  0  0  0  0  0  0  0  0  0  0  0
    7.4057  -14.0615   21.5110 O   0  0  0  0  0  0  0  0  0  0  0  0
    6.9468  -21.8438   26.2222 O   0  0  0  0  0  0  0  0  0  0  0  0
    7.2296  -20.9525   25.1907 C   0  0  0  0  0  0  0  0  0  0  0  0
    6.1929  -20.4100   24.4590 C   0  0  0  0  0  0  0  0  0  0  0  0
    6.4447  -19.5272   23.4349 C   0  0  0  0  0  0  0  0  0  0  0  0
    7.7423  -19.1354   23.0820 C   0  0  0  0  0  0  0  0  0  0  0  0
    8.0235  -18.2378   21.9817 C   0  0  0  0  0  0  0  0  0  0  0  0
    7.9013  -16.7813   22.1711 C   0  0  2  0  0  0  0  0  0  0  0  0
    8.3682  -16.0968   20.9364 N   0  0  0  0  0  0  0  0  0  0  0  0
    8.7113  -16.2502   23.2718 C   0  0  0  0  0  0  0  0  0  0  0  0
    9.9473  -16.0332   23.0771 O   0  0  0  0  0  0  0  0  0  0  0  0
    8.7602  -19.6883   23.8249 C   0  0  0  0  0  0  0  0  0  0  0  0
    8.5158  -20.5851   24.8661 C   0  0  0  0  0  0  0  0  0  0  0  0
    6.4777  -12.0847   28.1266 C   0  0  0  0  0  0  0  0  0  0  0  0
    8.2313  -11.7891   27.7411 S   0  0  0  0  0  0  0  0  0  0  0  0
    9.0385  -13.2581   27.1207 C   0  0  0  0  0  0  0  0  0  0  0  0
    8.3151  -14.0029   26.0584 C   0  0  0  0  0  0  0  0  0  0  0  0
    9.0946  -15.1925   25.4983 C   0  0  2  0  0  0  0  0  0  0  0  0
    8.2343  -15.9368   24.5786 N   0  0  0  0  0  0  0  0  0  0  0  0
    9.5435  -16.0374   26.6062 C   0  0  0  0  0  0  0  0  0  0  0  0
   10.7102  -16.4740   26.6743 O   0  0  0  0  0  0  0  0  0  0  0  0
    8.6932  -16.4081   27.6618 O   0  0  0  0  0  0  0  0  0  0  0  0
  1  5  1  0
  2  3  1  0
  2  1  1  0
  3  4  1  0
  4  5  1  0
  5  6  1  1
  6  7  2  0
  9  8  1  0
  9 19  2  0
 10  9  1  0
 11 10  2  0
 11 12  1  0
 12 18  2  0
 13 12  1  0
 14 13  1  6
 14 16  1  0
 15 14  1  0
 15  6  1  0
 16 17  2  0
 16 25  1  0
 18 19  1  0
 21 22  1  0
 21 20  1  0
 22 23  1  0
 24 23  1  1
 24 26  1  0
 25 24  1  0
 26 27  2  0
 26 28  1  0
M  END
$$$$
