PYM.pdb
     RDKit          3D

 28 29  0  0  1  0  0  0  0  0999 V2000
    8.8647  -15.5997   20.0120 N   0  0  0  0  0  0  0  0  0  0  0  0
    8.0860  -15.7937   18.8044 C   0  0  0  0  0  0  0  0  0  0  0  0
    7.3232  -14.5071   18.6018 C   0  0  0  0  0  0  0  0  0  0  0  0
    7.0520  -14.0548   20.0003 C   0  0  0  0  0  0  0  0  0  0  0  0
    8.2182  -14.5773   20.7724 C   0  0  1  0  0  0  0  0  0  0  0  0
    7.8596  -15.0234   22.1458 C   0  0  0  0  0  0  0  0  0  0  0  0
    7.0990  -14.3247   22.8635 O   0  0  0  0  0  0  0  0  0  0  0  0
    7.8447  -21.1830   28.8214 O   0  0  0  0  0  0  0  0  0  0  0  0
    7.9563  -20.4482   27.6441 C   0  0  0  0  0  0  0  0  0  0  0  0
    6.8139  -20.0781   26.9642 C   0  0  0  0  0  0  0  0  0  0  0  0
    6.8959  -19.3523   25.7989 C   0  0  0  0  0  0  0  0  0  0  0  0
    8.1196  -18.9544   25.2455 C   0  0  0  0  0  0  0  0  0  0  0  0
    8.2219  -18.2242   23.9999 C   0  0  0  0  0  0  0  0  0  0  0  0
    8.0341  -16.7624   23.9868 C   0  0  2  0  0  0  0  0  0  0  0  0
    8.3856  -16.2463   22.6372 N   0  0  0  0  0  0  0  0  0  0  0  0
    8.8819  -16.0410   24.9409 C   0  0  0  0  0  0  0  0  0  0  0  0
   10.1078  -15.8620   24.6618 O   0  0  0  0  0  0  0  0  0  0  0  0
    9.2453  -19.3341   25.9402 C   0  0  0  0  0  0  0  0  0  0  0  0
    9.1733  -20.0708   27.1234 C   0  0  0  0  0  0  0  0  0  0  0  0
    5.9032  -10.6299   25.6213 C   0  0  0  0  0  0  0  0  0  0  0  0
    6.6043  -11.5950   26.9956 S   0  0  0  0  0  0  0  0  0  0  0  0
    7.9814  -12.6062   26.4709 C   0  0  0  0  0  0  0  0  0  0  0  0
    8.6018  -13.4601   27.5161 C   0  0  0  0  0  0  0  0  0  0  0  0
    9.3704  -14.6581   26.9588 C   0  0  2  0  0  0  0  0  0  0  0  0
    8.4533  -15.4970   26.1875 N   0  0  0  0  0  0  0  0  0  0  0  0
    9.9667  -15.4045   28.0679 C   0  0  0  0  0  0  0  0  0  0  0  0
    9.5042  -16.4969   28.4542 O   0  0  0  0  0  0  0  0  0  0  0  0
   11.0956  -14.9417   28.7652 O   0  0  0  0  0  0  0  0  0  0  0  0
  1  5  1  0
  2  3  1  0
  2  1  1  0
  3  4  1  0
  4  5  1  0
  5  6  1  1
  6  7  2  0
  9  8  1  0
  9 19  2  0
 10  9  1  0
 11 10  2  0
 11 12  1  0
 12 18  2  0
 13 12  1  0
 14 13  1  6
 14 16  1  0
 15 14  1  0
 15  6  1  0
 16 17  2  0
 16 25  1  0
 18 19  1  0
 21 22  1  0
 21 20  1  0
 22 23  1  0
 24 23  1  1
 24 26  1  0
 25 24  1  0
 26 27  2  0
 26 28  1  0
M  END
$$$$
