PYM.pdb
     RDKit          3D

 28 29  0  0  1  0  0  0  0  0999 V2000
    8.9671  -18.1097   19.5205 N   0  0  0  0  0  0  0  0  0  0  0  0
    8.0387  -18.0953   18.4069 C   0  0  0  0  0  0  0  0  0  0  0  0
    8.7416  -17.3451   17.3016 C   0  0  0  0  0  0  0  0  0  0  0  0
    9.5504  -16.3324   18.0461 C   0  0  0  0  0  0  0  0  0  0  0  0
    9.8628  -17.0114   19.3386 C   0  0  1  0  0  0  0  0  0  0  0  0
    9.8755  -16.0826   20.5008 C   0  0  0  0  0  0  0  0  0  0  0  0
   10.6671  -15.1056   20.5259 O   0  0  0  0  0  0  0  0  0  0  0  0
    5.5220  -11.6222   26.9717 O   0  0  0  0  0  0  0  0  0  0  0  0
    5.9760  -12.4953   25.9868 C   0  0  0  0  0  0  0  0  0  0  0  0
    6.6849  -11.9973   24.9126 C   0  0  0  0  0  0  0  0  0  0  0  0
    7.1447  -12.8379   23.9259 C   0  0  0  0  0  0  0  0  0  0  0  0
    6.9245  -14.2209   23.9536 C   0  0  0  0  0  0  0  0  0  0  0  0
    7.3688  -15.1116   22.9026 C   0  0  0  0  0  0  0  0  0  0  0  0
    8.8101  -15.3186   22.6745 C   0  0  2  0  0  0  0  0  0  0  0  0
    8.9844  -16.3113   21.5812 N   0  0  0  0  0  0  0  0  0  0  0  0
    9.5303  -15.8496   23.8361 C   0  0  0  0  0  0  0  0  0  0  0  0
    9.8174  -17.0861   23.8695 O   0  0  0  0  0  0  0  0  0  0  0  0
    6.2159  -14.6954   25.0337 C   0  0  0  0  0  0  0  0  0  0  0  0
    5.7447  -13.8512   26.0403 C   0  0  0  0  0  0  0  0  0  0  0  0
   11.4253  -15.3107   31.5473 C   0  0  0  0  0  0  0  0  0  0  0  0
   10.8186  -14.4449   30.0661 S   0  0  0  0  0  0  0  0  0  0  0  0
   10.9370  -15.4603   28.6001 C   0  0  0  0  0  0  0  0  0  0  0  0
   10.4646  -14.8409   27.3353 C   0  0  0  0  0  0  0  0  0  0  0  0
   10.4967  -15.7867   26.1350 C   0  0  2  0  0  0  0  0  0  0  0  0
    9.9602  -15.0917   24.9649 N   0  0  0  0  0  0  0  0  0  0  0  0
    9.7143  -16.9842   26.4458 C   0  0  0  0  0  0  0  0  0  0  0  0
    8.4675  -16.9891   26.4030 O   0  0  0  0  0  0  0  0  0  0  0  0
   10.3148  -18.2018   26.8088 O   0  0  0  0  0  0  0  0  0  0  0  0
  1  5  1  0
  2  3  1  0
  2  1  1  0
  3  4  1  0
  4  5  1  0
  5  6  1  1
  6  7  2  0
  9  8  1  0
  9 19  2  0
 10  9  1  0
 11 10  2  0
 11 12  1  0
 12 18  2  0
 13 12  1  0
 14 13  1  1
 14 16  1  0
 15 14  1  0
 15  6  1  0
 16 17  2  0
 16 25  1  0
 18 19  1  0
 21 22  1  0
 21 20  1  0
 22 23  1  0
 24 23  1  1
 24 26  1  0
 25 24  1  0
 26 27  2  0
 26 28  1  0
M  END
$$$$
