PYM.pdb
     RDKit          3D

 28 29  0  0  1  0  0  0  0  0999 V2000
    8.4703  -18.1011   19.1875 N   0  0  0  0  0  0  0  0  0  0  0  0
    7.4275  -18.0604   18.1807 C   0  0  0  0  0  0  0  0  0  0  0  0
    7.9950  -17.2502   17.0407 C   0  0  0  0  0  0  0  0  0  0  0  0
    8.8619  -16.2521   17.7381 C   0  0  0  0  0  0  0  0  0  0  0  0
    9.3226  -16.9773   18.9592 C   0  0  1  0  0  0  0  0  0  0  0  0
    9.4443  -16.0974   20.1528 C   0  0  0  0  0  0  0  0  0  0  0  0
   10.1347  -15.0474   20.1015 O   0  0  0  0  0  0  0  0  0  0  0  0
    6.3729  -12.1032   27.5411 O   0  0  0  0  0  0  0  0  0  0  0  0
    6.6357  -12.9247   26.4482 C   0  0  0  0  0  0  0  0  0  0  0  0
    7.1928  -12.3809   25.3087 C   0  0  0  0  0  0  0  0  0  0  0  0
    7.4623  -13.1699   24.2150 C   0  0  0  0  0  0  0  0  0  0  0  0
    7.1923  -14.5442   24.1946 C   0  0  0  0  0  0  0  0  0  0  0  0
    7.4348  -15.3786   23.0369 C   0  0  0  0  0  0  0  0  0  0  0  0
    8.8127  -15.5904   22.5585 C   0  0  2  0  0  0  0  0  0  0  0  0
    8.7726  -16.4561   21.3502 N   0  0  0  0  0  0  0  0  0  0  0  0
    9.6849  -16.2657   23.5243 C   0  0  0  0  0  0  0  0  0  0  0  0
    9.5459  -17.5141   23.7110 O   0  0  0  0  0  0  0  0  0  0  0  0
    6.6374  -15.0650   25.3411 C   0  0  0  0  0  0  0  0  0  0  0  0
    6.3598  -14.2732   26.4565 C   0  0  0  0  0  0  0  0  0  0  0  0
    8.9820  -13.6654   28.9664 C   0  0  0  0  0  0  0  0  0  0  0  0
   10.2574  -14.8762   29.4341 S   0  0  0  0  0  0  0  0  0  0  0  0
   10.7188  -15.9273   28.0642 C   0  0  0  0  0  0  0  0  0  0  0  0
   10.5081  -15.3627   26.7065 C   0  0  0  0  0  0  0  0  0  0  0  0
   11.0918  -16.2203   25.5838 C   0  0  2  0  0  0  0  0  0  0  0  0
   10.7108  -15.6431   24.2947 N   0  0  0  0  0  0  0  0  0  0  0  0
   10.5960  -17.5909   25.7188 C   0  0  0  0  0  0  0  0  0  0  0  0
   11.2791  -18.4924   26.2455 O   0  0  0  0  0  0  0  0  0  0  0  0
    9.3227  -17.9781   25.2678 O   0  0  0  0  0  0  0  0  0  0  0  0
  1  5  1  0
  2  3  1  0
  2  1  1  0
  3  4  1  0
  4  5  1  0
  5  6  1  1
  6  7  2  0
  9  8  1  0
  9 19  2  0
 10  9  1  0
 11 10  2  0
 11 12  1  0
 12 18  2  0
 13 12  1  0
 14 13  1  1
 14 16  1  0
 15 14  1  0
 15  6  1  0
 16 17  2  0
 16 25  1  0
 18 19  1  0
 21 22  1  0
 21 20  1  0
 22 23  1  0
 24 23  1  1
 24 26  1  0
 25 24  1  0
 26 27  2  0
 26 28  1  0
M  END
$$$$
