PYM.pdb
     RDKit          3D

 28 29  0  0  1  0  0  0  0  0999 V2000
    9.0583  -17.6731   19.4181 N   0  0  0  0  0  0  0  0  0  0  0  0
    8.0899  -17.6014   18.3413 C   0  0  0  0  0  0  0  0  0  0  0  0
    8.6011  -16.5329   17.4058 C   0  0  0  0  0  0  0  0  0  0  0  0
    9.2582  -15.5622   18.3333 C   0  0  0  0  0  0  0  0  0  0  0  0
    9.7427  -16.4195   19.4555 C   0  0  1  0  0  0  0  0  0  0  0  0
    9.6504  -15.7545   20.7833 C   0  0  0  0  0  0  0  0  0  0  0  0
   10.1884  -14.6335   20.9723 O   0  0  0  0  0  0  0  0  0  0  0  0
    5.6976  -12.2823   27.7703 O   0  0  0  0  0  0  0  0  0  0  0  0
    6.1100  -13.0950   26.7177 C   0  0  0  0  0  0  0  0  0  0  0  0
    6.7782  -12.5339   25.6486 C   0  0  0  0  0  0  0  0  0  0  0  0
    7.1965  -13.3139   24.5959 C   0  0  0  0  0  0  0  0  0  0  0  0
    6.9730  -14.6959   24.5489 C   0  0  0  0  0  0  0  0  0  0  0  0
    7.3731  -15.5221   23.4297 C   0  0  0  0  0  0  0  0  0  0  0  0
    8.8029  -15.7745   23.1760 C   0  0  2  0  0  0  0  0  0  0  0  0
    8.9484  -16.3993   21.8345 N   0  0  0  0  0  0  0  0  0  0  0  0
    9.4278  -16.6937   24.1321 C   0  0  0  0  0  0  0  0  0  0  0  0
    9.7191  -17.8704   23.7540 O   0  0  0  0  0  0  0  0  0  0  0  0
    6.3053  -15.2339   25.6253 C   0  0  0  0  0  0  0  0  0  0  0  0
    5.8765  -14.4514   26.6985 C   0  0  0  0  0  0  0  0  0  0  0  0
   11.4571  -12.4072   27.8554 C   0  0  0  0  0  0  0  0  0  0  0  0
   10.6015  -13.9994   28.0657 S   0  0  0  0  0  0  0  0  0  0  0  0
   11.5302  -15.3573   27.3672 C   0  0  0  0  0  0  0  0  0  0  0  0
   10.9633  -16.7142   27.5771 C   0  0  0  0  0  0  0  0  0  0  0  0
   10.4642  -17.3800   26.2949 C   0  0  2  0  0  0  0  0  0  0  0  0
    9.7579  -16.3873   25.4852 N   0  0  0  0  0  0  0  0  0  0  0  0
    9.5886  -18.4997   26.6445 C   0  0  0  0  0  0  0  0  0  0  0  0
    8.3629  -18.4783   26.4125 O   0  0  0  0  0  0  0  0  0  0  0  0
   10.0703  -19.6677   27.2596 O   0  0  0  0  0  0  0  0  0  0  0  0
  1  5  1  0
  2  3  1  0
  2  1  1  0
  3  4  1  0
  4  5  1  0
  5  6  1  1
  6  7  2  0
  9  8  1  0
  9 19  2  0
 10  9  1  0
 11 10  2  0
 11 12  1  0
 12 18  2  0
 13 12  1  0
 14 13  1  1
 14 16  1  0
 15 14  1  0
 15  6  1  0
 16 17  2  0
 16 25  1  0
 18 19  1  0
 21 22  1  0
 21 20  1  0
 22 23  1  0
 24 23  1  1
 24 26  1  0
 25 24  1  0
 26 27  2  0
 26 28  1  0
M  END
$$$$
