PYM.pdb
     RDKit          3D

 28 29  0  0  1  0  0  0  0  0999 V2000
    8.7367  -18.5486   19.3963 N   0  0  0  0  0  0  0  0  0  0  0  0
    7.7928  -18.5767   18.2960 C   0  0  0  0  0  0  0  0  0  0  0  0
    8.5068  -17.9342   17.1317 C   0  0  0  0  0  0  0  0  0  0  0  0
    9.3645  -16.9036   17.7923 C   0  0  0  0  0  0  0  0  0  0  0  0
    9.6704  -17.5014   19.1257 C   0  0  1  0  0  0  0  0  0  0  0  0
    9.7357  -16.4941   20.2188 C   0  0  0  0  0  0  0  0  0  0  0  0
   10.5409  -15.5305   20.1487 O   0  0  0  0  0  0  0  0  0  0  0  0
    6.3490  -11.6761   26.9646 O   0  0  0  0  0  0  0  0  0  0  0  0
    6.6157  -12.5613   25.9236 C   0  0  0  0  0  0  0  0  0  0  0  0
    6.3329  -13.9025   26.0838 C   0  0  0  0  0  0  0  0  0  0  0  0
    6.5866  -14.7982   25.0715 C   0  0  0  0  0  0  0  0  0  0  0  0
    7.1360  -14.4088   23.8433 C   0  0  0  0  0  0  0  0  0  0  0  0
    7.4442  -15.3462   22.7842 C   0  0  0  0  0  0  0  0  0  0  0  0
    8.8485  -15.6211   22.4311 C   0  0  2  0  0  0  0  0  0  0  0  0
    8.8794  -16.6328   21.3417 N   0  0  0  0  0  0  0  0  0  0  0  0
    9.6463  -16.1713   23.5314 C   0  0  0  0  0  0  0  0  0  0  0  0
    9.3677  -17.3282   23.9747 O   0  0  0  0  0  0  0  0  0  0  0  0
    7.4097  -13.0671   23.7055 C   0  0  0  0  0  0  0  0  0  0  0  0
    7.1563  -12.1499   24.7264 C   0  0  0  0  0  0  0  0  0  0  0  0
    8.9921  -13.6535   28.8115 C   0  0  0  0  0  0  0  0  0  0  0  0
   10.3206  -14.7909   29.3142 S   0  0  0  0  0  0  0  0  0  0  0  0
   10.9340  -15.7549   27.9399 C   0  0  0  0  0  0  0  0  0  0  0  0
   10.5305  -15.2950   26.5863 C   0  0  0  0  0  0  0  0  0  0  0  0
   11.2367  -16.0311   25.4480 C   0  0  2  0  0  0  0  0  0  0  0  0
   10.7425  -15.5199   24.1696 N   0  0  0  0  0  0  0  0  0  0  0  0
   10.9872  -17.4677   25.5771 C   0  0  0  0  0  0  0  0  0  0  0  0
   11.6875  -18.1976   26.3075 O   0  0  0  0  0  0  0  0  0  0  0  0
    9.9453  -18.1148   24.8912 O   0  0  0  0  0  0  0  0  0  0  0  0
  1  5  1  0
  2  3  1  0
  2  1  1  0
  3  4  1  0
  4  5  1  0
  5  6  1  1
  6  7  2  0
  9  8  1  0
  9 19  2  0
 10  9  1  0
 11 10  2  0
 11 12  1  0
 12 18  2  0
 13 12  1  0
 14 13  1  1
 14 16  1  0
 15 14  1  0
 15  6  1  0
 16 17  2  0
 16 25  1  0
 18 19  1  0
 21 22  1  0
 21 20  1  0
 22 23  1  0
 24 23  1  1
 24 26  1  0
 25 24  1  0
 26 27  2  0
 26 28  1  0
M  END
$$$$
