PYM.pdb
     RDKit          3D

 28 29  0  0  1  0  0  0  0  0999 V2000
    8.6591  -14.8842   18.7470 N   0  0  0  0  0  0  0  0  0  0  0  0
    7.8752  -14.5204   17.5827 C   0  0  0  0  0  0  0  0  0  0  0  0
    7.5862  -13.0465   17.7318 C   0  0  0  0  0  0  0  0  0  0  0  0
    7.4635  -12.8774   19.2118 C   0  0  0  0  0  0  0  0  0  0  0  0
    8.3799  -13.9192   19.7631 C   0  0  1  0  0  0  0  0  0  0  0  0
    7.8764  -14.5377   21.0191 C   0  0  0  0  0  0  0  0  0  0  0  0
    7.3983  -13.8200   21.9346 O   0  0  0  0  0  0  0  0  0  0  0  0
    2.0209  -18.4936   19.1730 O   0  0  0  0  0  0  0  0  0  0  0  0
    3.2336  -18.3805   19.8476 C   0  0  0  0  0  0  0  0  0  0  0  0
    3.2382  -18.0201   21.1797 C   0  0  0  0  0  0  0  0  0  0  0  0
    4.4220  -17.9011   21.8695 C   0  0  0  0  0  0  0  0  0  0  0  0
    5.6671  -18.1342   21.2718 C   0  0  0  0  0  0  0  0  0  0  0  0
    6.9221  -17.9748   21.9752 C   0  0  0  0  0  0  0  0  0  0  0  0
    7.3792  -16.6298   22.3681 C   0  0  2  0  0  0  0  0  0  0  0  0
    7.9417  -15.9468   21.1729 N   0  0  0  0  0  0  0  0  0  0  0  0
    8.4375  -16.6293   23.3829 C   0  0  0  0  0  0  0  0  0  0  0  0
    9.6491  -16.6956   23.0084 O   0  0  0  0  0  0  0  0  0  0  0  0
    5.6387  -18.4926   19.9434 C   0  0  0  0  0  0  0  0  0  0  0  0
    4.4430  -18.6160   19.2340 C   0  0  0  0  0  0  0  0  0  0  0  0
   10.7292  -13.6958   30.3715 C   0  0  0  0  0  0  0  0  0  0  0  0
    9.3688  -14.0179   29.2065 S   0  0  0  0  0  0  0  0  0  0  0  0
    9.9104  -14.9585   27.7866 C   0  0  0  0  0  0  0  0  0  0  0  0
    8.8550  -15.3405   26.8136 C   0  0  0  0  0  0  0  0  0  0  0  0
    9.3622  -16.2068   25.6609 C   0  0  2  0  0  0  0  0  0  0  0  0
    8.2368  -16.5529   24.7926 N   0  0  0  0  0  0  0  0  0  0  0  0
   10.0003  -17.4062   26.2060 C   0  0  0  0  0  0  0  0  0  0  0  0
   11.0745  -17.3544   26.8382 O   0  0  0  0  0  0  0  0  0  0  0  0
    9.4451  -18.6882   26.0549 O   0  0  0  0  0  0  0  0  0  0  0  0
  1  5  1  0
  2  3  1  0
  2  1  1  0
  3  4  1  0
  4  5  1  0
  5  6  1  1
  6  7  2  0
  9  8  1  0
  9 19  2  0
 10  9  1  0
 11 10  2  0
 11 12  1  0
 12 18  2  0
 13 12  1  0
 14 13  1  6
 14 16  1  0
 15 14  1  0
 15  6  1  0
 16 17  2  0
 16 25  1  0
 18 19  1  0
 21 22  1  0
 21 20  1  0
 22 23  1  0
 24 23  1  1
 24 26  1  0
 25 24  1  0
 26 27  2  0
 26 28  1  0
M  END
$$$$
