VNV.pdb
     RDKit          3D

 23 22  0  0  1  0  0  0  0  0999 V2000
    7.0113  -12.6491   20.9543 C   0  0  0  0  0  0  0  0  0  0  0  0
    8.2544  -13.0995   20.2288 C   0  0  2  0  0  0  0  0  0  0  0  0
    8.2552  -12.4159   18.8669 C   0  0  0  0  0  0  0  0  0  0  0  0
    8.2404  -14.5846   19.9701 C   0  0  2  0  0  0  0  0  0  0  0  0
    7.1197  -14.9674   19.1684 N   0  0  0  0  0  0  0  0  0  0  0  0
    8.1965  -15.3725   21.2294 C   0  0  0  0  0  0  0  0  0  0  0  0
    7.1374  -15.9005   21.6662 O   0  0  0  0  0  0  0  0  0  0  0  0
    9.1494  -19.0263   22.0999 N   0  0  0  0  0  0  0  0  0  0  0  0
   10.3870  -18.3783   22.3191 C   0  0  0  0  0  0  0  0  0  0  0  0
   11.3745  -18.7344   21.6430 O   0  0  0  0  0  0  0  0  0  0  0  0
   10.4684  -17.3225   23.3210 C   0  0  0  0  0  0  0  0  0  0  0  0
    9.3479  -16.3196   23.2629 C   0  0  2  0  0  0  0  0  0  0  0  0
    9.3706  -15.5660   22.0072 N   0  0  0  0  0  0  0  0  0  0  0  0
    9.4969  -15.3197   24.3555 C   0  0  0  0  0  0  0  0  0  0  0  0
   10.5181  -14.5880   24.4836 O   0  0  0  0  0  0  0  0  0  0  0  0
    6.2201  -14.3633   26.9174 C   0  0  0  0  0  0  0  0  0  0  0  0
    7.3737  -13.4177   26.7027 C   0  0  2  0  0  0  0  0  0  0  0  0
    7.0850  -12.6193   25.4527 C   0  0  0  0  0  0  0  0  0  0  0  0
    8.6370  -14.2199   26.4633 C   0  0  2  0  0  0  0  0  0  0  0  0
    8.4735  -15.1258   25.3418 N   0  0  0  0  0  0  0  0  0  0  0  0
    9.0457  -14.9584   27.6698 C   0  0  0  0  0  0  0  0  0  0  0  0
    8.9810  -16.2168   27.6612 O   0  0  0  0  0  0  0  0  0  0  0  0
    9.4874  -14.2654   28.7763 O   0  0  0  0  0  0  0  0  0  0  0  0
  2  1  1  1
  2  3  1  0
  4  2  1  0
  4  5  1  6
  6  4  1  0
  6 13  1  0
  7  6  2  0
  8  9  1  0
  9 11  1  0
  9 10  2  0
 12 11  1  6
 12 13  1  0
 12 14  1  0
 14 20  1  0
 15 14  2  0
 17 16  1  6
 18 17  1  0
 19 17  1  0
 19 21  1  0
 19 20  1  6
 21 23  1  0
 22 21  2  0
M  END
$$$$
