VNV.pdb
     RDKit          3D

 23 22  0  0  1  0  0  0  0  0999 V2000
    7.0849  -14.7728   18.7556 C   0  0  0  0  0  0  0  0  0  0  0  0
    7.5042  -13.4165   19.2646 C   0  0  2  0  0  0  0  0  0  0  0  0
    8.0488  -12.6360   18.0745 C   0  0  0  0  0  0  0  0  0  0  0  0
    8.6257  -13.5205   20.2666 C   0  0  2  0  0  0  0  0  0  0  0  0
    9.7456  -14.2294   19.7296 N   0  0  0  0  0  0  0  0  0  0  0  0
    8.2008  -14.2074   21.5141 C   0  0  0  0  0  0  0  0  0  0  0  0
    7.1597  -13.8846   22.1490 O   0  0  0  0  0  0  0  0  0  0  0  0
    9.7000  -18.7775   21.5445 N   0  0  0  0  0  0  0  0  0  0  0  0
    8.8325  -18.3019   22.5548 C   0  0  0  0  0  0  0  0  0  0  0  0
    7.6883  -18.7947   22.6387 O   0  0  0  0  0  0  0  0  0  0  0  0
    9.2999  -17.2585   23.4593 C   0  0  0  0  0  0  0  0  0  0  0  0
    8.5952  -15.9378   23.3053 C   0  0  2  0  0  0  0  0  0  0  0  0
    8.9670  -15.2774   22.0520 N   0  0  0  0  0  0  0  0  0  0  0  0
    8.9933  -15.0128   24.4015 C   0  0  0  0  0  0  0  0  0  0  0  0
   10.1582  -14.5379   24.5117 O   0  0  0  0  0  0  0  0  0  0  0  0
    6.0766  -13.3576   27.0755 C   0  0  0  0  0  0  0  0  0  0  0  0
    7.3892  -12.6825   26.7713 C   0  0  2  0  0  0  0  0  0  0  0  0
    7.2105  -11.8854   25.5002 C   0  0  0  0  0  0  0  0  0  0  0  0
    8.4450  -13.7392   26.5155 C   0  0  2  0  0  0  0  0  0  0  0  0
    8.0627  -14.6005   25.4123 N   0  0  0  0  0  0  0  0  0  0  0  0
    8.7170  -14.5357   27.7237 C   0  0  0  0  0  0  0  0  0  0  0  0
    8.4478  -15.7667   27.7115 O   0  0  0  0  0  0  0  0  0  0  0  0
    9.2562  -13.9253   28.8356 O   0  0  0  0  0  0  0  0  0  0  0  0
  2  1  1  6
  2  3  1  0
  4  2  1  0
  4  5  1  6
  6  4  1  0
  6 13  1  0
  7  6  2  0
  8  9  1  0
  9 11  1  0
  9 10  2  0
 12 11  1  1
 12 13  1  0
 12 14  1  0
 14 20  1  0
 15 14  2  0
 17 16  1  6
 18 17  1  0
 19 17  1  0
 19 21  1  0
 19 20  1  6
 21 23  1  0
 22 21  2  0
M  END
$$$$
