VNV.pdb
     RDKit          3D

 23 22  0  0  1  0  0  0  0  0999 V2000
    7.2204  -12.7813   19.9249 C   0  0  0  0  0  0  0  0  0  0  0  0
    8.5062  -13.5557   19.7779 C   0  0  2  0  0  0  0  0  0  0  0  0
    9.1446  -13.1257   18.4627 C   0  0  0  0  0  0  0  0  0  0  0  0
    8.2541  -15.0384   19.6749 C   0  0  2  0  0  0  0  0  0  0  0  0
    7.5026  -15.3631   18.5023 N   0  0  0  0  0  0  0  0  0  0  0  0
    7.5185  -15.5651   20.8539 C   0  0  0  0  0  0  0  0  0  0  0  0
    6.2620  -15.6729   20.8807 O   0  0  0  0  0  0  0  0  0  0  0  0
    7.7416  -19.2731   25.5641 N   0  0  0  0  0  0  0  0  0  0  0  0
    7.1308  -18.2138   24.8540 C   0  0  0  0  0  0  0  0  0  0  0  0
    6.1277  -17.6621   25.3527 O   0  0  0  0  0  0  0  0  0  0  0  0
    7.6889  -17.8034   23.5713 C   0  0  0  0  0  0  0  0  0  0  0  0
    7.5116  -16.3434   23.2523 C   0  0  2  0  0  0  0  0  0  0  0  0
    8.2166  -15.9766   22.0220 N   0  0  0  0  0  0  0  0  0  0  0  0
    8.0952  -15.5067   24.3362 C   0  0  0  0  0  0  0  0  0  0  0  0
    9.3391  -15.3835   24.5159 O   0  0  0  0  0  0  0  0  0  0  0  0
    6.3769  -12.0133   25.3367 C   0  0  0  0  0  0  0  0  0  0  0  0
    6.7729  -12.7804   26.5719 C   0  0  2  0  0  0  0  0  0  0  0  0
    7.4170  -11.8054   27.5298 C   0  0  0  0  0  0  0  0  0  0  0  0
    7.8081  -13.8229   26.2001 C   0  0  2  0  0  0  0  0  0  0  0  0
    7.2661  -14.7802   25.2541 N   0  0  0  0  0  0  0  0  0  0  0  0
    8.3333  -14.5122   27.3905 C   0  0  0  0  0  0  0  0  0  0  0  0
    8.9855  -13.8460   28.2383 O   0  0  0  0  0  0  0  0  0  0  0  0
    8.1038  -15.8614   27.5537 O   0  0  0  0  0  0  0  0  0  0  0  0
  2  1  1  6
  2  3  1  0
  4  2  1  0
  4  5  1  6
  6  4  1  0
  6 13  1  0
  7  6  2  0
  8  9  1  0
  9 11  1  0
  9 10  2  0
 12 11  1  1
 12 13  1  0
 12 14  1  0
 14 20  1  0
 15 14  2  0
 17 16  1  6
 18 17  1  0
 19 17  1  0
 19 21  1  0
 19 20  1  6
 21 23  1  0
 22 21  2  0
M  END
$$$$
