VNV.pdb
     RDKit          3D

 23 22  0  0  1  0  0  0  0  0999 V2000
    7.0509  -12.7960   20.1055 C   0  0  0  0  0  0  0  0  0  0  0  0
    8.3397  -13.5331   19.8408 C   0  0  2  0  0  0  0  0  0  0  0  0
    8.7230  -13.2662   18.3904 C   0  0  0  0  0  0  0  0  0  0  0  0
    8.1660  -15.0244   19.9776 C   0  0  2  0  0  0  0  0  0  0  0  0
    7.3392  -15.5543   18.9381 N   0  0  0  0  0  0  0  0  0  0  0  0
    7.5634  -15.4011   21.2827 C   0  0  0  0  0  0  0  0  0  0  0  0
    6.3187  -15.3890   21.4873 O   0  0  0  0  0  0  0  0  0  0  0  0
    6.0671  -18.7846   23.5259 N   0  0  0  0  0  0  0  0  0  0  0  0
    7.4370  -18.5114   23.3064 C   0  0  0  0  0  0  0  0  0  0  0  0
    8.0377  -19.1511   22.4181 O   0  0  0  0  0  0  0  0  0  0  0  0
    8.0985  -17.4982   24.1195 C   0  0  0  0  0  0  0  0  0  0  0  0
    7.8211  -16.0806   23.6972 C   0  0  2  0  0  0  0  0  0  0  0  0
    8.3829  -15.7982   22.3744 N   0  0  0  0  0  0  0  0  0  0  0  0
    8.4684  -15.1282   24.6404 C   0  0  0  0  0  0  0  0  0  0  0  0
    9.7055  -14.8757   24.6219 O   0  0  0  0  0  0  0  0  0  0  0  0
    6.0712  -12.8475   27.3080 C   0  0  0  0  0  0  0  0  0  0  0  0
    7.4160  -12.3336   26.8625 C   0  0  2  0  0  0  0  0  0  0  0  0
    7.2123  -11.5778   25.5701 C   0  0  0  0  0  0  0  0  0  0  0  0
    8.3288  -13.5093   26.5772 C   0  0  2  0  0  0  0  0  0  0  0  0
    7.7131  -14.4309   25.6409 N   0  0  0  0  0  0  0  0  0  0  0  0
    8.7129  -14.2086   27.8148 C   0  0  0  0  0  0  0  0  0  0  0  0
    9.3833  -13.5847   28.6804 O   0  0  0  0  0  0  0  0  0  0  0  0
    8.3353  -15.5209   28.0016 O   0  0  0  0  0  0  0  0  0  0  0  0
  2  1  1  6
  2  3  1  0
  4  2  1  0
  4  5  1  6
  6  4  1  0
  6 13  1  0
  7  6  2  0
  8  9  1  0
  9 11  1  0
  9 10  2  0
 12 11  1  1
 12 13  1  0
 12 14  1  0
 14 20  1  0
 15 14  2  0
 17 16  1  6
 18 17  1  0
 19 17  1  0
 19 21  1  0
 19 20  1  6
 21 23  1  0
 22 21  2  0
M  END
$$$$
