VNV.pdb
     RDKit          3D

 23 22  0  0  1  0  0  0  0  0999 V2000
    7.7849  -12.6674   18.3506 C   0  0  0  0  0  0  0  0  0  0  0  0
    7.4397  -13.3734   19.6377 C   0  0  2  0  0  0  0  0  0  0  0  0
    8.1102  -12.6036   20.7691 C   0  0  0  0  0  0  0  0  0  0  0  0
    7.9993  -14.7728   19.6722 C   0  0  2  0  0  0  0  0  0  0  0  0
    7.4512  -15.5834   18.6293 N   0  0  0  0  0  0  0  0  0  0  0  0
    7.7360  -15.4500   20.9686 C   0  0  0  0  0  0  0  0  0  0  0  0
    6.6531  -16.0471   21.2178 O   0  0  0  0  0  0  0  0  0  0  0  0
   10.3004  -18.8651   25.0424 N   0  0  0  0  0  0  0  0  0  0  0  0
    9.1599  -18.1811   24.5619 C   0  0  0  0  0  0  0  0  0  0  0  0
    8.1150  -18.2111   25.2449 O   0  0  0  0  0  0  0  0  0  0  0  0
    9.2413  -17.4680   23.2930 C   0  0  0  0  0  0  0  0  0  0  0  0
    8.5002  -16.1585   23.2647 C   0  0  2  0  0  0  0  0  0  0  0  0
    8.7143  -15.4514   22.0001 N   0  0  0  0  0  0  0  0  0  0  0  0
    9.0045  -15.2600   24.3389 C   0  0  0  0  0  0  0  0  0  0  0  0
   10.1961  -14.8445   24.3850 O   0  0  0  0  0  0  0  0  0  0  0  0
    6.2935  -13.3494   26.9040 C   0  0  0  0  0  0  0  0  0  0  0  0
    7.6944  -12.8168   26.7458 C   0  0  2  0  0  0  0  0  0  0  0  0
    7.7084  -11.9185   25.5309 C   0  0  0  0  0  0  0  0  0  0  0  0
    8.6396  -13.9720   26.4835 C   0  0  2  0  0  0  0  0  0  0  0  0
    8.1534  -14.8066   25.4008 N   0  0  0  0  0  0  0  0  0  0  0  0
    8.8612  -14.7759   27.6972 C   0  0  0  0  0  0  0  0  0  0  0  0
    8.4605  -15.9705   27.7145 O   0  0  0  0  0  0  0  0  0  0  0  0
    9.4970  -14.2115   28.7820 O   0  0  0  0  0  0  0  0  0  0  0  0
  2  1  1  6
  2  3  1  0
  4  2  1  0
  4  5  1  6
  6  4  1  0
  6 13  1  0
  7  6  2  0
  8  9  1  0
  9 11  1  0
  9 10  2  0
 12 11  1  6
 12 13  1  0
 12 14  1  0
 14 20  1  0
 15 14  2  0
 17 16  1  6
 18 17  1  0
 19 17  1  0
 19 21  1  0
 19 20  1  6
 21 23  1  0
 22 21  2  0
M  END
$$$$
