VNV.pdb
     RDKit          3D

 23 22  0  0  1  0  0  0  0  0999 V2000
    7.2414  -12.7121   19.9500 C   0  0  0  0  0  0  0  0  0  0  0  0
    8.5749  -13.3009   19.5636 C   0  0  2  0  0  0  0  0  0  0  0  0
    8.9415  -12.7318   18.1983 C   0  0  0  0  0  0  0  0  0  0  0  0
    8.4970  -14.7980   19.4042 C   0  0  2  0  0  0  0  0  0  0  0  0
    7.6227  -15.1674   18.3345 N   0  0  0  0  0  0  0  0  0  0  0  0
    8.0204  -15.4693   20.6415 C   0  0  0  0  0  0  0  0  0  0  0  0
    6.8196  -15.8178   20.8082 O   0  0  0  0  0  0  0  0  0  0  0  0
    9.5436  -19.2845   21.3961 N   0  0  0  0  0  0  0  0  0  0  0  0
    8.6375  -18.7339   22.3317 C   0  0  0  0  0  0  0  0  0  0  0  0
    7.4710  -19.1780   22.3643 O   0  0  0  0  0  0  0  0  0  0  0  0
    9.0925  -17.6727   23.2216 C   0  0  0  0  0  0  0  0  0  0  0  0
    8.4563  -16.3322   22.9702 C   0  0  2  0  0  0  0  0  0  0  0  0
    8.9177  -15.7508   21.7076 N   0  0  0  0  0  0  0  0  0  0  0  0
    8.8421  -15.3723   24.0404 C   0  0  0  0  0  0  0  0  0  0  0  0
   10.0329  -14.9983   24.2323 O   0  0  0  0  0  0  0  0  0  0  0  0
    7.5092  -11.7857   27.1350 C   0  0  0  0  0  0  0  0  0  0  0  0
    7.1173  -12.7805   26.0730 C   0  0  2  0  0  0  0  0  0  0  0  0
    5.8683  -13.4873   26.5460 C   0  0  0  0  0  0  0  0  0  0  0  0
    8.2148  -13.8160   25.9315 C   0  0  2  0  0  0  0  0  0  0  0  0
    7.8689  -14.8073   24.9300 N   0  0  0  0  0  0  0  0  0  0  0  0
    8.5161  -14.4642   27.2188 C   0  0  0  0  0  0  0  0  0  0  0  0
    8.0460  -15.6115   27.4444 O   0  0  0  0  0  0  0  0  0  0  0  0
    9.2997  -13.8098   28.1447 O   0  0  0  0  0  0  0  0  0  0  0  0
  2  1  1  6
  2  3  1  0
  4  2  1  0
  4  5  1  6
  6  4  1  0
  6 13  1  0
  7  6  2  0
  8  9  1  0
  9 11  1  0
  9 10  2  0
 12 11  1  1
 12 13  1  0
 12 14  1  0
 14 20  1  0
 15 14  2  0
 17 16  1  1
 18 17  1  0
 19 17  1  0
 19 21  1  0
 19 20  1  6
 21 23  1  0
 22 21  2  0
M  END
$$$$
