VNV.pdb
     RDKit          3D

 23 22  0  0  1  0  0  0  0  0999 V2000
    8.4153  -12.9948   18.1097 C   0  0  0  0  0  0  0  0  0  0  0  0
    7.6609  -13.5632   19.2853 C   0  0  2  0  0  0  0  0  0  0  0  0
    8.0232  -12.7227   20.5037 C   0  0  0  0  0  0  0  0  0  0  0  0
    8.0875  -14.9768   19.5895 C   0  0  2  0  0  0  0  0  0  0  0  0
    7.7111  -15.8756   18.5428 N   0  0  0  0  0  0  0  0  0  0  0  0
    7.5016  -15.4780   20.8599 C   0  0  0  0  0  0  0  0  0  0  0  0
    6.3562  -16.0029   20.9217 O   0  0  0  0  0  0  0  0  0  0  0  0
    6.2328  -18.2640   25.1234 N   0  0  0  0  0  0  0  0  0  0  0  0
    7.5499  -17.8111   24.8790 C   0  0  0  0  0  0  0  0  0  0  0  0
    8.3762  -17.8482   25.8144 O   0  0  0  0  0  0  0  0  0  0  0  0
    7.8971  -17.3190   23.5515 C   0  0  0  0  0  0  0  0  0  0  0  0
    7.6575  -15.8472   23.3494 C   0  0  2  0  0  0  0  0  0  0  0  0
    8.2239  -15.3835   22.0807 N   0  0  0  0  0  0  0  0  0  0  0  0
    8.3325  -15.0654   24.4213 C   0  0  0  0  0  0  0  0  0  0  0  0
    9.5882  -14.9755   24.5201 O   0  0  0  0  0  0  0  0  0  0  0  0
    6.0037  -12.9849   27.3487 C   0  0  0  0  0  0  0  0  0  0  0  0
    7.3134  -12.4102   26.8737 C   0  0  2  0  0  0  0  0  0  0  0  0
    7.0246  -11.5489   25.6663 C   0  0  0  0  0  0  0  0  0  0  0  0
    8.2228  -13.5402   26.4346 C   0  0  2  0  0  0  0  0  0  0  0  0
    7.5845  -14.3576   25.4199 N   0  0  0  0  0  0  0  0  0  0  0  0
    8.6458  -14.3688   27.5759 C   0  0  0  0  0  0  0  0  0  0  0  0
    8.2408  -15.5602   27.6431 O   0  0  0  0  0  0  0  0  0  0  0  0
    9.4695  -13.8305   28.5410 O   0  0  0  0  0  0  0  0  0  0  0  0
  2  1  1  6
  2  3  1  0
  4  2  1  0
  4  5  1  6
  6  4  1  0
  6 13  1  0
  7  6  2  0
  8  9  1  0
  9 11  1  0
  9 10  2  0
 12 11  1  1
 12 13  1  0
 12 14  1  0
 14 20  1  0
 15 14  2  0
 17 16  1  6
 18 17  1  0
 19 17  1  0
 19 21  1  0
 19 20  1  6
 21 23  1  0
 22 21  2  0
M  END
$$$$
