VNV.pdb
     RDKit          3D

 23 22  0  0  1  0  0  0  0  0999 V2000
    7.6946  -11.9702   19.7570 C   0  0  0  0  0  0  0  0  0  0  0  0
    8.2529  -13.2231   19.1300 C   0  0  2  0  0  0  0  0  0  0  0  0
    7.0989  -14.2071   18.9822 C   0  0  0  0  0  0  0  0  0  0  0  0
    9.2757  -13.8825   20.0198 C   0  0  2  0  0  0  0  0  0  0  0  0
    9.8693  -15.0184   19.3854 N   0  0  0  0  0  0  0  0  0  0  0  0
    8.6906  -14.3293   21.3108 C   0  0  0  0  0  0  0  0  0  0  0  0
    7.8683  -13.6308   21.9643 O   0  0  0  0  0  0  0  0  0  0  0  0
    9.1375  -19.3356   21.6959 N   0  0  0  0  0  0  0  0  0  0  0  0
    8.2477  -18.4803   22.3859 C   0  0  0  0  0  0  0  0  0  0  0  0
    7.0260  -18.5707   22.1445 O   0  0  0  0  0  0  0  0  0  0  0  0
    8.7829  -17.5271   23.3504 C   0  0  0  0  0  0  0  0  0  0  0  0
    8.4036  -16.0946   23.0882 C   0  0  2  0  0  0  0  0  0  0  0  0
    9.0419  -15.5876   21.8714 N   0  0  0  0  0  0  0  0  0  0  0  0
    8.8745  -15.2269   24.2022 C   0  0  0  0  0  0  0  0  0  0  0  0
   10.0956  -15.0715   24.4841 O   0  0  0  0  0  0  0  0  0  0  0  0
    6.0440  -13.2094   26.7330 C   0  0  0  0  0  0  0  0  0  0  0  0
    7.4091  -12.6189   26.4904 C   0  0  2  0  0  0  0  0  0  0  0  0
    7.3151  -11.7343   25.2690 C   0  0  0  0  0  0  0  0  0  0  0  0
    8.3873  -13.7353   26.1845 C   0  0  2  0  0  0  0  0  0  0  0  0
    7.9546  -14.5054   25.0334 N   0  0  0  0  0  0  0  0  0  0  0  0
    8.5872  -14.6135   27.3493 C   0  0  0  0  0  0  0  0  0  0  0  0
    8.1652  -15.7996   27.2936 O   0  0  0  0  0  0  0  0  0  0  0  0
    9.2266  -14.1262   28.4688 O   0  0  0  0  0  0  0  0  0  0  0  0
  2  1  1  1
  2  3  1  0
  4  2  1  0
  4  5  1  6
  6  4  1  0
  6 13  1  0
  7  6  2  0
  8  9  1  0
  9 11  1  0
  9 10  2  0
 12 11  1  1
 12 13  1  0
 12 14  1  0
 14 20  1  0
 15 14  2  0
 17 16  1  6
 18 17  1  0
 19 17  1  0
 19 21  1  0
 19 20  1  6
 21 23  1  0
 22 21  2  0
M  END
$$$$
