VNV.pdb
     RDKit          3D

 23 22  0  0  1  0  0  0  0  0999 V2000
    8.1503  -12.8703   18.2322 C   0  0  0  0  0  0  0  0  0  0  0  0
    7.6715  -13.3974   19.5616 C   0  0  2  0  0  0  0  0  0  0  0  0
    8.3501  -12.5700   20.6466 C   0  0  0  0  0  0  0  0  0  0  0  0
    8.0937  -14.8283   19.7777 C   0  0  2  0  0  0  0  0  0  0  0  0
    7.5151  -15.6995   18.8023 N   0  0  0  0  0  0  0  0  0  0  0  0
    7.7134  -15.3276   21.1247 C   0  0  0  0  0  0  0  0  0  0  0  0
    6.5223  -15.5978   21.4400 O   0  0  0  0  0  0  0  0  0  0  0  0
    9.9765  -18.7209   21.8786 N   0  0  0  0  0  0  0  0  0  0  0  0
    8.8476  -18.3441   22.6422 C   0  0  0  0  0  0  0  0  0  0  0  0
    7.7440  -18.8607   22.3694 O   0  0  0  0  0  0  0  0  0  0  0  0
    9.0085  -17.3712   23.7157 C   0  0  0  0  0  0  0  0  0  0  0  0
    8.3511  -16.0424   23.4572 C   0  0  2  0  0  0  0  0  0  0  0  0
    8.6975  -15.5245   22.1316 N   0  0  0  0  0  0  0  0  0  0  0  0
    8.8300  -15.0329   24.4407 C   0  0  0  0  0  0  0  0  0  0  0  0
   10.0105  -14.5844   24.4466 O   0  0  0  0  0  0  0  0  0  0  0  0
    6.1318  -13.3473   27.3289 C   0  0  0  0  0  0  0  0  0  0  0  0
    7.3067  -12.5675   26.7972 C   0  0  2  0  0  0  0  0  0  0  0  0
    6.8597  -11.8707   25.5332 C   0  0  0  0  0  0  0  0  0  0  0  0
    8.4187  -13.5301   26.4317 C   0  0  2  0  0  0  0  0  0  0  0  0
    7.9653  -14.5023   25.4548 N   0  0  0  0  0  0  0  0  0  0  0  0
    8.9614  -14.2066   27.6216 C   0  0  0  0  0  0  0  0  0  0  0  0
    9.5318  -13.5131   28.5058 O   0  0  0  0  0  0  0  0  0  0  0  0
    8.8365  -15.5736   27.7450 O   0  0  0  0  0  0  0  0  0  0  0  0
  2  1  1  6
  2  3  1  0
  4  2  1  0
  4  5  1  6
  6  4  1  0
  6 13  1  0
  7  6  2  0
  8  9  1  0
  9 11  1  0
  9 10  2  0
 12 11  1  1
 12 13  1  0
 12 14  1  0
 14 20  1  0
 15 14  2  0
 17 16  1  6
 18 17  1  0
 19 17  1  0
 19 21  1  0
 19 20  1  6
 21 23  1  0
 22 21  2  0
M  END
$$$$
