VNV.pdb
     RDKit          3D

 23 22  0  0  1  0  0  0  0  0999 V2000
    8.0545  -12.7539   18.1604 C   0  0  0  0  0  0  0  0  0  0  0  0
    7.5915  -13.3967   19.4437 C   0  0  2  0  0  0  0  0  0  0  0  0
    8.1015  -12.5332   20.5911 C   0  0  0  0  0  0  0  0  0  0  0  0
    8.1937  -14.7663   19.6289 C   0  0  2  0  0  0  0  0  0  0  0  0
    7.7721  -15.6685   18.6026 N   0  0  0  0  0  0  0  0  0  0  0  0
    7.8360  -15.3629   20.9422 C   0  0  0  0  0  0  0  0  0  0  0  0
    6.6790  -15.7925   21.2029 O   0  0  0  0  0  0  0  0  0  0  0  0
   11.2097  -17.5296   22.1283 N   0  0  0  0  0  0  0  0  0  0  0  0
   10.6408  -17.2359   23.3891 C   0  0  0  0  0  0  0  0  0  0  0  0
   11.4013  -16.9164   24.3265 O   0  0  0  0  0  0  0  0  0  0  0  0
    9.1943  -17.3152   23.5516 C   0  0  0  0  0  0  0  0  0  0  0  0
    8.4656  -16.0243   23.2925 C   0  0  2  0  0  0  0  0  0  0  0  0
    8.8038  -15.4752   21.9775 N   0  0  0  0  0  0  0  0  0  0  0  0
    8.8686  -14.9979   24.2924 C   0  0  0  0  0  0  0  0  0  0  0  0
    9.9277  -14.3177   24.1913 O   0  0  0  0  0  0  0  0  0  0  0  0
    6.0556  -13.4907   26.9750 C   0  0  0  0  0  0  0  0  0  0  0  0
    7.3275  -12.7382   26.6797 C   0  0  2  0  0  0  0  0  0  0  0  0
    7.1127  -11.9588   25.4032 C   0  0  0  0  0  0  0  0  0  0  0  0
    8.4481  -13.7297   26.4387 C   0  0  2  0  0  0  0  0  0  0  0  0
    8.0650  -14.7171   25.4470 N   0  0  0  0  0  0  0  0  0  0  0  0
    8.8671  -14.3867   27.6881 C   0  0  0  0  0  0  0  0  0  0  0  0
    9.3233  -13.6757   28.6233 O   0  0  0  0  0  0  0  0  0  0  0  0
    8.7534  -15.7548   27.8103 O   0  0  0  0  0  0  0  0  0  0  0  0
  2  1  1  6
  2  3  1  0
  4  2  1  0
  4  5  1  6
  6  4  1  0
  6 13  1  0
  7  6  2  0
  8  9  1  0
  9 11  1  0
  9 10  2  0
 12 11  1  1
 12 13  1  0
 12 14  1  0
 14 20  1  0
 15 14  2  0
 17 16  1  6
 18 17  1  0
 19 17  1  0
 19 21  1  0
 19 20  1  6
 21 23  1  0
 22 21  2  0
M  END
$$$$
