SKV.pdb
     RDKit          3D

 23 22  0  0  1  0  0  0  0  0999 V2000
    9.1375  -15.1636   18.4815 O   0  0  0  0  0  0  0  0  0  0  0  0
    8.2309  -15.0516   19.5216 C   0  0  0  0  0  0  0  0  0  0  0  0
    7.8274  -16.4693   19.9266 C   0  0  2  0  0  0  0  0  0  0  0  0
    6.9236  -16.9530   18.9337 N   0  0  0  0  0  0  0  0  0  0  0  0
    7.2505  -16.3838   21.2742 C   0  0  0  0  0  0  0  0  0  0  0  0
    6.0783  -15.9654   21.4109 O   0  0  0  0  0  0  0  0  0  0  0  0
    7.9919  -16.7618   22.3945 N   0  0  0  0  0  0  0  0  0  0  0  0
    7.4580  -16.7705   23.7617 C   0  0  1  0  0  0  0  0  0  0  0  0
    7.7146  -18.1373   24.2944 C   0  0  0  0  0  0  0  0  0  0  0  0
    6.7064  -19.1254   23.8202 C   0  0  0  0  0  0  0  0  0  0  0  0
    6.9660  -20.5103   24.4189 C   0  0  0  0  0  0  0  0  0  0  0  0
    5.9657  -21.4576   23.7726 C   0  0  0  0  0  0  0  0  0  0  0  0
    5.4527  -22.4324   24.6854 N   0  0  0  0  0  0  0  0  0  0  0  0
    8.0027  -15.6594   24.5429 C   0  0  0  0  0  0  0  0  0  0  0  0
    9.2117  -15.3278   24.5328 O   0  0  0  0  0  0  0  0  0  0  0  0
    5.8807  -12.3018   25.4163 C   0  0  0  0  0  0  0  0  0  0  0  0
    6.6192  -12.8080   26.6218 C   0  0  2  0  0  0  0  0  0  0  0  0
    7.1757  -11.6350   27.3684 C   0  0  0  0  0  0  0  0  0  0  0  0
    7.7131  -13.7561   26.1328 C   0  0  2  0  0  0  0  0  0  0  0  0
    7.1551  -14.8583   25.3944 N   0  0  0  0  0  0  0  0  0  0  0  0
    8.4504  -14.2573   27.3167 C   0  0  0  0  0  0  0  0  0  0  0  0
    8.1744  -15.3815   27.7866 O   0  0  0  0  0  0  0  0  0  0  0  0
    9.4496  -13.5356   27.9460 O   0  0  0  0  0  0  0  0  0  0  0  0
  2  1  1  0
  2  3  1  0
  3  4  1  6
  3  5  1  0
  5  6  2  0
  7  5  1  0
  7  8  1  0
  8  9  1  1
  9 10  1  0
 11 12  1  0
 11 10  1  0
 12 13  1  0
 14  8  1  0
 14 15  2  0
 17 16  1  6
 17 19  1  0
 18 17  1  0
 19 21  1  0
 19 20  1  1
 20 14  1  0
 21 23  1  0
 22 21  2  0
M  END
$$$$
