SKV.pdb
     RDKit          3D

 23 22  0  0  1  0  0  0  0  0999 V2000
    9.2665  -13.2510   18.6627 O   0  0  0  0  0  0  0  0  0  0  0  0
    8.5377  -13.3532   19.8352 C   0  0  0  0  0  0  0  0  0  0  0  0
    7.8127  -14.6986   19.8030 C   0  0  2  0  0  0  0  0  0  0  0  0
    6.6987  -14.5591   18.9220 N   0  0  0  0  0  0  0  0  0  0  0  0
    7.4472  -15.0233   21.1876 C   0  0  0  0  0  0  0  0  0  0  0  0
    6.4996  -14.4093   21.7288 O   0  0  0  0  0  0  0  0  0  0  0  0
    8.1417  -16.0025   21.8994 N   0  0  0  0  0  0  0  0  0  0  0  0
    7.8189  -16.3935   23.2769 C   0  0  1  0  0  0  0  0  0  0  0  0
    8.4023  -17.7505   23.4663 C   0  0  0  0  0  0  0  0  0  0  0  0
    8.3095  -18.2117   24.8792 C   0  0  0  0  0  0  0  0  0  0  0  0
    7.4936  -19.5026   24.9867 C   0  0  0  0  0  0  0  0  0  0  0  0
    7.3153  -19.7816   26.4719 C   0  0  0  0  0  0  0  0  0  0  0  0
    6.5103  -20.9361   26.7284 N   0  0  0  0  0  0  0  0  0  0  0  0
    8.2493  -15.3665   24.2263 C   0  0  0  0  0  0  0  0  0  0  0  0
    9.3845  -14.8347   24.2099 O   0  0  0  0  0  0  0  0  0  0  0  0
    6.0917  -12.3299   25.4166 C   0  0  0  0  0  0  0  0  0  0  0  0
    6.6615  -12.9911   26.6386 C   0  0  2  0  0  0  0  0  0  0  0  0
    7.1048  -11.9270   27.5946 C   0  0  0  0  0  0  0  0  0  0  0  0
    7.8168  -13.8839   26.1883 C   0  0  2  0  0  0  0  0  0  0  0  0
    7.3662  -14.8930   25.2662 N   0  0  0  0  0  0  0  0  0  0  0  0
    8.4033  -14.5191   27.3919 C   0  0  0  0  0  0  0  0  0  0  0  0
    8.9872  -13.8130   28.2413 O   0  0  0  0  0  0  0  0  0  0  0  0
    8.3403  -15.8800   27.6349 O   0  0  0  0  0  0  0  0  0  0  0  0
  2  1  1  0
  2  3  1  0
  3  4  1  6
  3  5  1  0
  5  6  2  0
  7  5  1  0
  7  8  1  0
  8  9  1  1
  9 10  1  0
 11 12  1  0
 11 10  1  0
 12 13  1  0
 14  8  1  0
 14 15  2  0
 17 16  1  6
 17 19  1  0
 18 17  1  0
 19 21  1  0
 19 20  1  6
 20 14  1  0
 21 23  1  0
 22 21  2  0
M  END
$$$$
