SKV.pdb
     RDKit          3D

 23 22  0  0  1  0  0  0  0  0999 V2000
    8.7059  -14.6589   20.2686 O   0  0  0  0  0  0  0  0  0  0  0  0
    7.5854  -15.0951   19.5826 C   0  0  0  0  0  0  0  0  0  0  0  0
    7.3401  -16.5476   19.9909 C   0  0  2  0  0  0  0  0  0  0  0  0
    6.2852  -17.0467   19.1695 N   0  0  0  0  0  0  0  0  0  0  0  0
    7.0339  -16.5447   21.4269 C   0  0  0  0  0  0  0  0  0  0  0  0
    5.9094  -16.1495   21.8105 O   0  0  0  0  0  0  0  0  0  0  0  0
    7.9781  -16.9753   22.3601 N   0  0  0  0  0  0  0  0  0  0  0  0
    7.7465  -16.9877   23.8095 C   0  0  1  0  0  0  0  0  0  0  0  0
    8.4388  -18.2009   24.3258 C   0  0  0  0  0  0  0  0  0  0  0  0
    8.4196  -18.2706   25.8133 C   0  0  0  0  0  0  0  0  0  0  0  0
    7.6602  -19.5082   26.2988 C   0  0  0  0  0  0  0  0  0  0  0  0
    7.6982  -19.4725   27.8195 C   0  0  0  0  0  0  0  0  0  0  0  0
    6.9344  -20.5226   28.4199 N   0  0  0  0  0  0  0  0  0  0  0  0
    8.1389  -15.7135   24.4127 C   0  0  0  0  0  0  0  0  0  0  0  0
    9.1557  -15.0649   24.0706 O   0  0  0  0  0  0  0  0  0  0  0  0
    5.8038  -12.6494   25.2866 C   0  0  0  0  0  0  0  0  0  0  0  0
    6.5796  -13.0386   26.5120 C   0  0  2  0  0  0  0  0  0  0  0  0
    6.9931  -11.7920   27.2315 C   0  0  0  0  0  0  0  0  0  0  0  0
    7.7780  -13.8711   26.0587 C   0  0  2  0  0  0  0  0  0  0  0  0
    7.3553  -15.1129   25.4665 N   0  0  0  0  0  0  0  0  0  0  0  0
    8.6290  -14.1351   27.2430 C   0  0  0  0  0  0  0  0  0  0  0  0
    9.2202  -13.1877   27.8030 O   0  0  0  0  0  0  0  0  0  0  0  0
    8.8107  -15.3990   27.7763 O   0  0  0  0  0  0  0  0  0  0  0  0
  2  1  1  0
  2  3  1  0
  3  4  1  6
  3  5  1  0
  5  6  2  0
  7  5  1  0
  7  8  1  0
  8  9  1  1
  9 10  1  0
 11 12  1  0
 11 10  1  0
 12 13  1  0
 14  8  1  0
 14 15  2  0
 17 16  1  6
 17 19  1  0
 18 17  1  0
 19 21  1  0
 19 20  1  1
 20 14  1  0
 21 23  1  0
 22 21  2  0
M  END
$$$$
