SKV.pdb
     RDKit          3D

 23 22  0  0  1  0  0  0  0  0999 V2000
    9.2241  -15.1258   19.8046 O   0  0  0  0  0  0  0  0  0  0  0  0
    9.1482  -16.4861   20.0495 C   0  0  0  0  0  0  0  0  0  0  0  0
    7.6671  -16.8429   20.1748 C   0  0  2  0  0  0  0  0  0  0  0  0
    6.9800  -16.1800   19.1140 N   0  0  0  0  0  0  0  0  0  0  0  0
    7.2382  -16.4326   21.5178 C   0  0  0  0  0  0  0  0  0  0  0  0
    6.5687  -15.3829   21.6507 O   0  0  0  0  0  0  0  0  0  0  0  0
    7.5679  -17.1968   22.6382 N   0  0  0  0  0  0  0  0  0  0  0  0
    7.0137  -16.9636   23.9772 C   0  0  1  0  0  0  0  0  0  0  0  0
    7.0332  -18.2840   24.6656 C   0  0  0  0  0  0  0  0  0  0  0  0
    5.9503  -19.1862   24.1850 C   0  0  0  0  0  0  0  0  0  0  0  0
    6.4532  -20.6250   24.0403 C   0  0  0  0  0  0  0  0  0  0  0  0
    5.2622  -21.4586   23.5910 C   0  0  0  0  0  0  0  0  0  0  0  0
    5.6016  -22.8263   23.3447 N   0  0  0  0  0  0  0  0  0  0  0  0
    7.7177  -15.8724   24.6517 C   0  0  0  0  0  0  0  0  0  0  0  0
    8.9516  -15.6736   24.5532 O   0  0  0  0  0  0  0  0  0  0  0  0
    6.0154  -12.2659   25.3872 C   0  0  0  0  0  0  0  0  0  0  0  0
    6.7679  -12.7588   26.5896 C   0  0  2  0  0  0  0  0  0  0  0  0
    7.4883  -11.6015   27.2097 C   0  0  0  0  0  0  0  0  0  0  0  0
    7.7247  -13.8546   26.1223 C   0  0  2  0  0  0  0  0  0  0  0  0
    7.0117  -14.9352   25.4935 N   0  0  0  0  0  0  0  0  0  0  0  0
    8.4657  -14.3532   27.3050 C   0  0  0  0  0  0  0  0  0  0  0  0
    8.0993  -15.4086   27.8644 O   0  0  0  0  0  0  0  0  0  0  0  0
    9.5649  -13.7027   27.8376 O   0  0  0  0  0  0  0  0  0  0  0  0
  2  1  1  0
  2  3  1  0
  3  4  1  6
  3  5  1  0
  5  6  2  0
  7  5  1  0
  7  8  1  0
  8  9  1  1
  9 10  1  0
 11 12  1  0
 11 10  1  0
 12 13  1  0
 14  8  1  0
 14 15  2  0
 17 16  1  6
 17 19  1  0
 18 17  1  0
 19 21  1  0
 19 20  1  1
 20 14  1  0
 21 23  1  0
 22 21  2  0
M  END
$$$$
