SKV.pdb
     RDKit          3D

 23 22  0  0  1  0  0  0  0  0999 V2000
   10.9324  -13.0687   18.9777 O   0  0  0  0  0  0  0  0  0  0  0  0
    9.7758  -12.7733   19.6785 C   0  0  0  0  0  0  0  0  0  0  0  0
    8.7402  -13.8369   19.3140 C   0  0  2  0  0  0  0  0  0  0  0  0
    8.0019  -13.3446   18.1963 N   0  0  0  0  0  0  0  0  0  0  0  0
    7.9276  -14.0747   20.5136 C   0  0  0  0  0  0  0  0  0  0  0  0
    6.9570  -13.3207   20.7528 O   0  0  0  0  0  0  0  0  0  0  0  0
    8.2257  -15.1256   21.3823 N   0  0  0  0  0  0  0  0  0  0  0  0
    7.4694  -15.4117   22.6073 C   0  0  1  0  0  0  0  0  0  0  0  0
    7.2486  -16.8844   22.6195 C   0  0  0  0  0  0  0  0  0  0  0  0
    8.5232  -17.6463   22.5081 C   0  0  0  0  0  0  0  0  0  0  0  0
    8.2595  -19.1491   22.3823 C   0  0  0  0  0  0  0  0  0  0  0  0
    9.6123  -19.8110   22.1643 C   0  0  0  0  0  0  0  0  0  0  0  0
    9.5247  -21.2352   22.0613 N   0  0  0  0  0  0  0  0  0  0  0  0
    8.1405  -14.8489   23.7796 C   0  0  0  0  0  0  0  0  0  0  0  0
    9.3843  -14.8482   23.9365 O   0  0  0  0  0  0  0  0  0  0  0  0
    5.9011  -13.0601   26.9210 C   0  0  0  0  0  0  0  0  0  0  0  0
    7.2823  -12.5530   26.6210 C   0  0  2  0  0  0  0  0  0  0  0  0
    7.1697  -11.3745   25.7037 C   0  0  0  0  0  0  0  0  0  0  0  0
    8.0736  -13.7009   25.9959 C   0  0  2  0  0  0  0  0  0  0  0  0
    7.3875  -14.2448   24.8535 N   0  0  0  0  0  0  0  0  0  0  0  0
    8.2558  -14.7492   27.0274 C   0  0  0  0  0  0  0  0  0  0  0  0
    7.6020  -15.8112   26.9519 O   0  0  0  0  0  0  0  0  0  0  0  0
    9.1282  -14.6169   28.0935 O   0  0  0  0  0  0  0  0  0  0  0  0
  2  1  1  0
  2  3  1  0
  3  4  1  6
  3  5  1  0
  5  6  2  0
  7  5  1  0
  7  8  1  0
  8  9  1  1
  9 10  1  0
 11 12  1  0
 11 10  1  0
 12 13  1  0
 14  8  1  0
 14 15  2  0
 17 16  1  6
 17 19  1  0
 18 17  1  0
 19 21  1  0
 19 20  1  6
 20 14  1  0
 21 23  1  0
 22 21  2  0
M  END
$$$$
