SKV.pdb
     RDKit          3D

 23 22  0  0  1  0  0  0  0  0999 V2000
    9.6106  -15.5137   19.0584 O   0  0  0  0  0  0  0  0  0  0  0  0
    8.7790  -14.9854   20.0308 C   0  0  0  0  0  0  0  0  0  0  0  0
    7.5606  -15.9029   20.1333 C   0  0  2  0  0  0  0  0  0  0  0  0
    6.5966  -15.4346   19.1909 N   0  0  0  0  0  0  0  0  0  0  0  0
    7.1068  -15.8606   21.5291 C   0  0  0  0  0  0  0  0  0  0  0  0
    6.2820  -14.9849   21.8765 O   0  0  0  0  0  0  0  0  0  0  0  0
    7.5832  -16.7810   22.4639 N   0  0  0  0  0  0  0  0  0  0  0  0
    7.1712  -16.8013   23.8725 C   0  0  1  0  0  0  0  0  0  0  0  0
    7.4319  -18.1851   24.3570 C   0  0  0  0  0  0  0  0  0  0  0  0
    7.2338  -18.3142   25.8273 C   0  0  0  0  0  0  0  0  0  0  0  0
    7.5682  -19.7288   26.3079 C   0  0  0  0  0  0  0  0  0  0  0  0
    7.3817  -19.7301   27.8181 C   0  0  0  0  0  0  0  0  0  0  0  0
    7.7387  -20.9771   28.4217 N   0  0  0  0  0  0  0  0  0  0  0  0
    7.8156  -15.7219   24.6215 C   0  0  0  0  0  0  0  0  0  0  0  0
    9.0485  -15.4960   24.5955 O   0  0  0  0  0  0  0  0  0  0  0  0
    6.0692  -12.1497   25.3002 C   0  0  0  0  0  0  0  0  0  0  0  0
    6.7078  -12.6678   26.5566 C   0  0  2  0  0  0  0  0  0  0  0  0
    7.3693  -11.5248   27.2627 C   0  0  0  0  0  0  0  0  0  0  0  0
    7.7026  -13.7568   26.1577 C   0  0  2  0  0  0  0  0  0  0  0  0
    7.0470  -14.8297   25.4571 N   0  0  0  0  0  0  0  0  0  0  0  0
    8.3420  -14.2703   27.3921 C   0  0  0  0  0  0  0  0  0  0  0  0
    7.8876  -15.2952   27.9435 O   0  0  0  0  0  0  0  0  0  0  0  0
    9.4382  -13.6665   27.9827 O   0  0  0  0  0  0  0  0  0  0  0  0
  2  1  1  0
  2  3  1  0
  3  4  1  6
  3  5  1  0
  5  6  2  0
  7  5  1  0
  7  8  1  0
  8  9  1  1
  9 10  1  0
 11 12  1  0
 11 10  1  0
 12 13  1  0
 14  8  1  0
 14 15  2  0
 17 16  1  6
 17 19  1  0
 18 17  1  0
 19 21  1  0
 19 20  1  1
 20 14  1  0
 21 23  1  0
 22 21  2  0
M  END
$$$$
