SKV.pdb
     RDKit          3D

 23 22  0  0  1  0  0  0  0  0999 V2000
   10.4919  -13.0218   20.3028 O   0  0  0  0  0  0  0  0  0  0  0  0
   10.0613  -14.0591   19.4936 C   0  0  0  0  0  0  0  0  0  0  0  0
    8.5424  -13.9384   19.3709 C   0  0  2  0  0  0  0  0  0  0  0  0
    8.2584  -12.6226   18.8966 N   0  0  0  0  0  0  0  0  0  0  0  0
    7.9792  -14.2351   20.6940 C   0  0  0  0  0  0  0  0  0  0  0  0
    7.3955  -13.3260   21.3268 O   0  0  0  0  0  0  0  0  0  0  0  0
    8.0882  -15.5118   21.2474 N   0  0  0  0  0  0  0  0  0  0  0  0
    7.4940  -15.8976   22.5329 C   0  0  1  0  0  0  0  0  0  0  0  0
    7.5171  -17.3862   22.5660 C   0  0  0  0  0  0  0  0  0  0  0  0
    7.0529  -17.9282   23.8731 C   0  0  0  0  0  0  0  0  0  0  0  0
    7.1336  -19.4568   23.8975 C   0  0  0  0  0  0  0  0  0  0  0  0
    6.5523  -19.9015   25.2316 C   0  0  0  0  0  0  0  0  0  0  0  0
    6.4085  -21.3214   25.3303 N   0  0  0  0  0  0  0  0  0  0  0  0
    8.1609  -15.2159   23.6428 C   0  0  0  0  0  0  0  0  0  0  0  0
    9.4061  -15.1281   23.7588 O   0  0  0  0  0  0  0  0  0  0  0  0
    5.9128  -13.3801   26.7671 C   0  0  0  0  0  0  0  0  0  0  0  0
    7.2519  -12.8183   26.3850 C   0  0  2  0  0  0  0  0  0  0  0  0
    7.0411  -11.7052   25.4054 C   0  0  0  0  0  0  0  0  0  0  0  0
    8.0838  -13.9575   25.7980 C   0  0  2  0  0  0  0  0  0  0  0  0
    7.4017  -14.5873   24.6981 N   0  0  0  0  0  0  0  0  0  0  0  0
    8.3355  -14.9451   26.8740 C   0  0  0  0  0  0  0  0  0  0  0  0
    7.7450  -16.0458   26.8534 O   0  0  0  0  0  0  0  0  0  0  0  0
    9.2067  -14.7131   27.9239 O   0  0  0  0  0  0  0  0  0  0  0  0
  2  1  1  0
  2  3  1  0
  3  4  1  1
  3  5  1  0
  5  6  2  0
  7  5  1  0
  7  8  1  0
  8  9  1  1
  9 10  1  0
 11 12  1  0
 11 10  1  0
 12 13  1  0
 14  8  1  0
 14 15  2  0
 17 16  1  6
 17 19  1  0
 18 17  1  0
 19 21  1  0
 19 20  1  6
 20 14  1  0
 21 23  1  0
 22 21  2  0
M  END
$$$$
