SKV.pdb
     RDKit          3D

 23 22  0  0  1  0  0  0  0  0999 V2000
   10.0567  -12.9361   18.6298 O   0  0  0  0  0  0  0  0  0  0  0  0
    9.3153  -13.0000   19.7970 C   0  0  0  0  0  0  0  0  0  0  0  0
    8.1856  -14.0028   19.5627 C   0  0  2  0  0  0  0  0  0  0  0  0
    7.2462  -13.3856   18.6833 N   0  0  0  0  0  0  0  0  0  0  0  0
    7.6379  -14.3491   20.8803 C   0  0  0  0  0  0  0  0  0  0  0  0
    6.7514  -13.6219   21.3832 O   0  0  0  0  0  0  0  0  0  0  0  0
    8.0937  -15.4731   21.5710 N   0  0  0  0  0  0  0  0  0  0  0  0
    7.5343  -15.9278   22.8495 C   0  0  1  0  0  0  0  0  0  0  0  0
    7.5768  -17.4159   22.8106 C   0  0  0  0  0  0  0  0  0  0  0  0
    7.1050  -18.0268   24.0841 C   0  0  0  0  0  0  0  0  0  0  0  0
    7.2052  -19.5537   24.0351 C   0  0  0  0  0  0  0  0  0  0  0  0
    7.7805  -19.9947   25.3729 C   0  0  0  0  0  0  0  0  0  0  0  0
    6.9271  -19.6789   26.4768 N   0  0  0  0  0  0  0  0  0  0  0  0
    8.2179  -15.2907   23.9756 C   0  0  0  0  0  0  0  0  0  0  0  0
    9.4649  -15.2145   24.0803 O   0  0  0  0  0  0  0  0  0  0  0  0
    5.9928  -13.3288   27.0059 C   0  0  0  0  0  0  0  0  0  0  0  0
    7.3512  -12.8150   26.6245 C   0  0  2  0  0  0  0  0  0  0  0  0
    7.1843  -11.7480   25.5869 C   0  0  0  0  0  0  0  0  0  0  0  0
    8.1694  -13.9993   26.1119 C   0  0  2  0  0  0  0  0  0  0  0  0
    7.4747  -14.6964   25.0617 N   0  0  0  0  0  0  0  0  0  0  0  0
    8.4193  -14.9132   27.2515 C   0  0  0  0  0  0  0  0  0  0  0  0
    7.7545  -15.9657   27.3572 O   0  0  0  0  0  0  0  0  0  0  0  0
    9.3679  -14.6625   28.2273 O   0  0  0  0  0  0  0  0  0  0  0  0
  2  1  1  0
  2  3  1  0
  3  4  1  6
  3  5  1  0
  5  6  2  0
  7  5  1  0
  7  8  1  0
  8  9  1  1
  9 10  1  0
 11 12  1  0
 11 10  1  0
 12 13  1  0
 14  8  1  0
 14 15  2  0
 17 16  1  6
 17 19  1  0
 18 17  1  0
 19 21  1  0
 19 20  1  6
 20 14  1  0
 21 23  1  0
 22 21  2  0
M  END
$$$$
