SKV.pdb
     RDKit          3D

 23 22  0  0  1  0  0  0  0  0999 V2000
   11.0288  -13.7910   18.9528 O   0  0  0  0  0  0  0  0  0  0  0  0
   10.0065  -13.2595   19.7200 C   0  0  0  0  0  0  0  0  0  0  0  0
    8.7330  -14.0324   19.3773 C   0  0  2  0  0  0  0  0  0  0  0  0
    7.9607  -13.2108   18.5025 N   0  0  0  0  0  0  0  0  0  0  0  0
    8.0678  -14.3498   20.6472 C   0  0  0  0  0  0  0  0  0  0  0  0
    7.3608  -13.4772   21.2008 O   0  0  0  0  0  0  0  0  0  0  0  0
    8.2159  -15.6058   21.2374 N   0  0  0  0  0  0  0  0  0  0  0  0
    7.5458  -16.0081   22.4798 C   0  0  1  0  0  0  0  0  0  0  0  0
    7.6333  -17.4938   22.5314 C   0  0  0  0  0  0  0  0  0  0  0  0
    7.1150  -18.0447   23.8143 C   0  0  0  0  0  0  0  0  0  0  0  0
    7.3181  -19.5603   23.8870 C   0  0  0  0  0  0  0  0  0  0  0  0
    6.7307  -20.0143   25.2153 C   0  0  0  0  0  0  0  0  0  0  0  0
    7.7304  -20.2876   26.2014 N   0  0  0  0  0  0  0  0  0  0  0  0
    8.0971  -15.2877   23.6281 C   0  0  0  0  0  0  0  0  0  0  0  0
    9.3212  -15.2314   23.8925 O   0  0  0  0  0  0  0  0  0  0  0  0
    7.5646  -11.8535   27.0817 C   0  0  0  0  0  0  0  0  0  0  0  0
    6.8596  -12.6770   26.0426 C   0  0  2  0  0  0  0  0  0  0  0  0
    5.5952  -13.2159   26.6372 C   0  0  0  0  0  0  0  0  0  0  0  0
    7.8131  -13.7873   25.6035 C   0  0  2  0  0  0  0  0  0  0  0  0
    7.2385  -14.5803   24.5488 N   0  0  0  0  0  0  0  0  0  0  0  0
    8.1014  -14.6387   26.7818 C   0  0  0  0  0  0  0  0  0  0  0  0
    7.4563  -15.6947   26.9542 O   0  0  0  0  0  0  0  0  0  0  0  0
    9.0655  -14.3245   27.7235 O   0  0  0  0  0  0  0  0  0  0  0  0
  2  1  1  0
  2  3  1  0
  3  4  1  6
  3  5  1  0
  5  6  2  0
  7  5  1  0
  7  8  1  0
  8  9  1  1
  9 10  1  0
 11 12  1  0
 11 10  1  0
 12 13  1  0
 14  8  1  0
 14 15  2  0
 17 16  1  1
 17 19  1  0
 18 17  1  0
 19 21  1  0
 19 20  1  6
 20 14  1  0
 21 23  1  0
 22 21  2  0
M  END
$$$$
