SKV.pdb
     RDKit          3D

 23 22  0  0  1  0  0  0  0  0999 V2000
    9.7158  -14.2304   18.6705 O   0  0  0  0  0  0  0  0  0  0  0  0
    9.0992  -14.1438   19.9069 C   0  0  0  0  0  0  0  0  0  0  0  0
    7.8454  -15.0164   19.8510 C   0  0  2  0  0  0  0  0  0  0  0  0
    6.9557  -14.4205   18.9075 N   0  0  0  0  0  0  0  0  0  0  0  0
    7.3118  -15.0904   21.2169 C   0  0  0  0  0  0  0  0  0  0  0  0
    6.5395  -14.1911   21.6201 O   0  0  0  0  0  0  0  0  0  0  0  0
    7.6555  -16.1463   22.0624 N   0  0  0  0  0  0  0  0  0  0  0  0
    7.0999  -16.3279   23.4088 C   0  0  1  0  0  0  0  0  0  0  0  0
    7.0612  -17.7981   23.6426 C   0  0  0  0  0  0  0  0  0  0  0  0
    5.9821  -18.4646   22.8621 C   0  0  0  0  0  0  0  0  0  0  0  0
    5.9918  -19.9789   23.0875 C   0  0  0  0  0  0  0  0  0  0  0  0
    4.9632  -20.5670   22.1328 C   0  0  0  0  0  0  0  0  0  0  0  0
    4.9091  -21.9956   22.1844 N   0  0  0  0  0  0  0  0  0  0  0  0
    7.8411  -15.5363   24.3914 C   0  0  0  0  0  0  0  0  0  0  0  0
    9.0885  -15.4113   24.3868 O   0  0  0  0  0  0  0  0  0  0  0  0
    6.3794  -12.1300   25.9586 C   0  0  0  0  0  0  0  0  0  0  0  0
    6.9999  -12.9722   27.0360 C   0  0  2  0  0  0  0  0  0  0  0  0
    7.7559  -12.0755   27.9672 C   0  0  0  0  0  0  0  0  0  0  0  0
    7.9048  -14.0006   26.3591 C   0  0  2  0  0  0  0  0  0  0  0  0
    7.1591  -14.8339   25.4529 N   0  0  0  0  0  0  0  0  0  0  0  0
    8.5299  -14.8299   27.4164 C   0  0  0  0  0  0  0  0  0  0  0  0
    8.0418  -15.9453   27.6967 O   0  0  0  0  0  0  0  0  0  0  0  0
    9.6482  -14.4311   28.1272 O   0  0  0  0  0  0  0  0  0  0  0  0
  2  1  1  0
  2  3  1  0
  3  4  1  6
  3  5  1  0
  5  6  2  0
  7  5  1  0
  7  8  1  0
  8  9  1  1
  9 10  1  0
 11 12  1  0
 11 10  1  0
 12 13  1  0
 14  8  1  0
 14 15  2  0
 17 16  1  6
 17 19  1  0
 18 17  1  0
 19 21  1  0
 19 20  1  6
 20 14  1  0
 21 23  1  0
 22 21  2  0
M  END
$$$$
