SKV.pdb
     RDKit          3D

 23 22  0  0  1  0  0  0  0  0999 V2000
   10.1794  -12.6038   18.9842 O   0  0  0  0  0  0  0  0  0  0  0  0
    9.0612  -12.5919   19.8002 C   0  0  0  0  0  0  0  0  0  0  0  0
    8.3151  -13.9054   19.5667 C   0  0  2  0  0  0  0  0  0  0  0  0
    7.2838  -13.6441   18.6154 N   0  0  0  0  0  0  0  0  0  0  0  0
    7.8257  -14.3602   20.8742 C   0  0  0  0  0  0  0  0  0  0  0  0
    6.7982  -13.8333   21.3584 O   0  0  0  0  0  0  0  0  0  0  0  0
    8.4909  -15.3667   21.5760 N   0  0  0  0  0  0  0  0  0  0  0  0
    8.0398  -15.8953   22.8688 C   0  0  1  0  0  0  0  0  0  0  0  0
    8.4017  -17.3398   22.8710 C   0  0  0  0  0  0  0  0  0  0  0  0
    8.0527  -18.0063   24.1562 C   0  0  0  0  0  0  0  0  0  0  0  0
    8.3529  -19.5065   24.1000 C   0  0  0  0  0  0  0  0  0  0  0  0
    7.8899  -20.0923   25.4259 C   0  0  0  0  0  0  0  0  0  0  0  0
    7.9392  -21.5218   25.4500 N   0  0  0  0  0  0  0  0  0  0  0  0
    8.5681  -15.0948   23.9741 C   0  0  0  0  0  0  0  0  0  0  0  0
    9.7865  -14.8467   24.1341 O   0  0  0  0  0  0  0  0  0  0  0  0
    5.9655  -13.1948   26.7554 C   0  0  0  0  0  0  0  0  0  0  0  0
    7.3190  -12.6169   26.4570 C   0  0  2  0  0  0  0  0  0  0  0  0
    7.1758  -11.6066   25.3608 C   0  0  0  0  0  0  0  0  0  0  0  0
    8.2412  -13.7705   26.0655 C   0  0  2  0  0  0  0  0  0  0  0  0
    7.6916  -14.5285   24.9723 N   0  0  0  0  0  0  0  0  0  0  0  0
    8.4173  -14.6415   27.2515 C   0  0  0  0  0  0  0  0  0  0  0  0
    7.8387  -15.7478   27.2976 O   0  0  0  0  0  0  0  0  0  0  0  0
    9.2035  -14.2922   28.3355 O   0  0  0  0  0  0  0  0  0  0  0  0
  2  1  1  0
  2  3  1  0
  3  4  1  6
  3  5  1  0
  5  6  2  0
  7  5  1  0
  7  8  1  0
  8  9  1  1
  9 10  1  0
 11 12  1  0
 11 10  1  0
 12 13  1  0
 14  8  1  0
 14 15  2  0
 17 16  1  6
 17 19  1  0
 18 17  1  0
 19 21  1  0
 19 20  1  6
 20 14  1  0
 21 23  1  0
 22 21  2  0
M  END
$$$$
