SKV.pdb
     RDKit          3D

 23 22  0  0  1  0  0  0  0  0999 V2000
   10.2286  -13.3453   18.7703 O   0  0  0  0  0  0  0  0  0  0  0  0
    9.3581  -13.1293   19.8248 C   0  0  0  0  0  0  0  0  0  0  0  0
    8.2060  -14.1224   19.6730 C   0  0  2  0  0  0  0  0  0  0  0  0
    7.2444  -13.5266   18.8029 N   0  0  0  0  0  0  0  0  0  0  0  0
    7.7017  -14.4055   21.0226 C   0  0  0  0  0  0  0  0  0  0  0  0
    6.8853  -13.6144   21.5475 O   0  0  0  0  0  0  0  0  0  0  0  0
    8.1215  -15.5396   21.7193 N   0  0  0  0  0  0  0  0  0  0  0  0
    7.6084  -15.9225   23.0401 C   0  0  1  0  0  0  0  0  0  0  0  0
    7.7513  -17.4025   23.1232 C   0  0  0  0  0  0  0  0  0  0  0  0
    7.3769  -17.9305   24.4644 C   0  0  0  0  0  0  0  0  0  0  0  0
    7.4554  -19.4591   24.4982 C   0  0  0  0  0  0  0  0  0  0  0  0
    7.0510  -19.8841   25.9022 C   0  0  0  0  0  0  0  0  0  0  0  0
    6.8656  -21.2974   26.0239 N   0  0  0  0  0  0  0  0  0  0  0  0
    8.2599  -15.1497   24.0984 C   0  0  0  0  0  0  0  0  0  0  0  0
    9.5003  -15.1223   24.2776 O   0  0  0  0  0  0  0  0  0  0  0  0
    5.9660  -12.7721   26.7617 C   0  0  0  0  0  0  0  0  0  0  0  0
    7.3632  -12.3426   26.4178 C   0  0  2  0  0  0  0  0  0  0  0  0
    7.2967  -11.3596   25.2899 C   0  0  0  0  0  0  0  0  0  0  0  0
    8.1573  -13.5950   26.0494 C   0  0  2  0  0  0  0  0  0  0  0  0
    7.4897  -14.3517   25.0231 N   0  0  0  0  0  0  0  0  0  0  0  0
    8.3102  -14.4188   27.2718 C   0  0  0  0  0  0  0  0  0  0  0  0
    7.6434  -15.4678   27.3978 O   0  0  0  0  0  0  0  0  0  0  0  0
    9.1683  -14.0857   28.3050 O   0  0  0  0  0  0  0  0  0  0  0  0
  2  1  1  0
  2  3  1  0
  3  4  1  6
  3  5  1  0
  5  6  2  0
  7  5  1  0
  7  8  1  0
  8  9  1  1
  9 10  1  0
 11 12  1  0
 11 10  1  0
 12 13  1  0
 14  8  1  0
 14 15  2  0
 17 16  1  6
 17 19  1  0
 18 17  1  0
 19 21  1  0
 19 20  1  6
 20 14  1  0
 21 23  1  0
 22 21  2  0
M  END
$$$$
