SKV.pdb
     RDKit          3D

 23 22  0  0  1  0  0  0  0  0999 V2000
    9.9017  -13.2198   18.6294 O   0  0  0  0  0  0  0  0  0  0  0  0
    9.1446  -13.2277   19.7882 C   0  0  0  0  0  0  0  0  0  0  0  0
    8.0404  -14.2683   19.6019 C   0  0  2  0  0  0  0  0  0  0  0  0
    7.0397  -13.6808   18.7712 N   0  0  0  0  0  0  0  0  0  0  0  0
    7.5680  -14.6386   20.9419 C   0  0  0  0  0  0  0  0  0  0  0  0
    6.7161  -13.9177   21.5097 O   0  0  0  0  0  0  0  0  0  0  0  0
    8.0567  -15.7782   21.5826 N   0  0  0  0  0  0  0  0  0  0  0  0
    7.6078  -16.2262   22.9063 C   0  0  1  0  0  0  0  0  0  0  0  0
    7.9306  -17.6781   22.9801 C   0  0  0  0  0  0  0  0  0  0  0  0
    7.6076  -18.2603   24.3121 C   0  0  0  0  0  0  0  0  0  0  0  0
    8.0432  -19.7257   24.3951 C   0  0  0  0  0  0  0  0  0  0  0  0
    7.6272  -20.2255   25.7708 C   0  0  0  0  0  0  0  0  0  0  0  0
    6.4743  -21.0714   25.7302 N   0  0  0  0  0  0  0  0  0  0  0  0
    8.1713  -15.3842   23.9622 C   0  0  0  0  0  0  0  0  0  0  0  0
    9.3913  -15.1129   24.0598 O   0  0  0  0  0  0  0  0  0  0  0  0
    7.6042  -11.8924   27.3104 C   0  0  0  0  0  0  0  0  0  0  0  0
    6.9107  -12.8116   26.3465 C   0  0  2  0  0  0  0  0  0  0  0  0
    5.6825  -13.3579   27.0070 C   0  0  0  0  0  0  0  0  0  0  0  0
    7.8987  -13.9110   25.9596 C   0  0  2  0  0  0  0  0  0  0  0  0
    7.3308  -14.8008   24.9812 N   0  0  0  0  0  0  0  0  0  0  0  0
    8.2540  -14.6628   27.1864 C   0  0  0  0  0  0  0  0  0  0  0  0
    7.7311  -15.7767   27.4021 O   0  0  0  0  0  0  0  0  0  0  0  0
    9.1518  -14.1914   28.1281 O   0  0  0  0  0  0  0  0  0  0  0  0
  2  1  1  0
  2  3  1  0
  3  4  1  6
  3  5  1  0
  5  6  2  0
  7  5  1  0
  7  8  1  0
  8  9  1  1
  9 10  1  0
 11 12  1  0
 11 10  1  0
 12 13  1  0
 14  8  1  0
 14 15  2  0
 17 16  1  1
 17 19  1  0
 18 17  1  0
 19 21  1  0
 19 20  1  6
 20 14  1  0
 21 23  1  0
 22 21  2  0
M  END
$$$$
