SKV.pdb
     RDKit          3D

 23 22  0  0  1  0  0  0  0  0999 V2000
   10.1931  -12.7489   20.1869 O   0  0  0  0  0  0  0  0  0  0  0  0
    9.8111  -13.8917   19.5053 C   0  0  0  0  0  0  0  0  0  0  0  0
    8.2829  -13.9231   19.4927 C   0  0  2  0  0  0  0  0  0  0  0  0
    7.8367  -12.6571   19.0080 N   0  0  0  0  0  0  0  0  0  0  0  0
    7.8478  -14.2304   20.8610 C   0  0  0  0  0  0  0  0  0  0  0  0
    7.3557  -13.3187   21.5643 O   0  0  0  0  0  0  0  0  0  0  0  0
    7.9773  -15.5195   21.3798 N   0  0  0  0  0  0  0  0  0  0  0  0
    7.4850  -15.9200   22.7033 C   0  0  1  0  0  0  0  0  0  0  0  0
    7.6237  -17.4015   22.7624 C   0  0  0  0  0  0  0  0  0  0  0  0
    7.2141  -17.9538   24.0834 C   0  0  0  0  0  0  0  0  0  0  0  0
    7.3399  -19.4793   24.1076 C   0  0  0  0  0  0  0  0  0  0  0  0
    6.8232  -19.9365   25.4639 C   0  0  0  0  0  0  0  0  0  0  0  0
    6.7090  -21.3589   25.5651 N   0  0  0  0  0  0  0  0  0  0  0  0
    8.1569  -15.1650   23.7616 C   0  0  0  0  0  0  0  0  0  0  0  0
    9.3926  -14.9559   23.7907 O   0  0  0  0  0  0  0  0  0  0  0  0
    5.9565  -13.4601   27.0016 C   0  0  0  0  0  0  0  0  0  0  0  0
    7.1457  -12.7405   26.4335 C   0  0  2  0  0  0  0  0  0  0  0  0
    6.6664  -11.7652   25.4030 C   0  0  0  0  0  0  0  0  0  0  0  0
    8.0869  -13.7903   25.8448 C   0  0  2  0  0  0  0  0  0  0  0  0
    7.4143  -14.6016   24.8645 N   0  0  0  0  0  0  0  0  0  0  0  0
    8.5820  -14.6384   26.9548 C   0  0  0  0  0  0  0  0  0  0  0  0
    8.1702  -15.8125   27.0669 O   0  0  0  0  0  0  0  0  0  0  0  0
    9.4948  -14.1947   27.8956 O   0  0  0  0  0  0  0  0  0  0  0  0
  2  1  1  0
  2  3  1  0
  3  4  1  1
  3  5  1  0
  5  6  2  0
  7  5  1  0
  7  8  1  0
  8  9  1  1
  9 10  1  0
 11 12  1  0
 11 10  1  0
 12 13  1  0
 14  8  1  0
 14 15  2  0
 17 16  1  6
 17 19  1  0
 18 17  1  0
 19 21  1  0
 19 20  1  6
 20 14  1  0
 21 23  1  0
 22 21  2  0
M  END
$$$$
