FFA.pdb
     RDKit          3D

 28 29  0  0  1  0  0  0  0  0999 V2000
   16.7313  -17.1079    2.1869 N   0  0  0  0  0  0  0  0  0  0  0  0
   17.4339  -18.1032    2.9365 C   0  0  1  0  0  0  0  0  0  0  0  0
   18.3143  -18.9772    2.0829 C   0  0  0  0  0  0  0  0  0  0  0  0
   17.7339  -20.2752    1.7487 C   0  0  0  0  0  0  0  0  0  0  0  0
   16.9798  -20.5079    0.6180 C   0  0  0  0  0  0  0  0  0  0  0  0
   16.4407  -21.7397    0.3203 C   0  0  0  0  0  0  0  0  0  0  0  0
   16.6524  -22.8128    1.1834 C   0  0  0  0  0  0  0  0  0  0  0  0
   17.4034  -22.6027    2.3200 C   0  0  0  0  0  0  0  0  0  0  0  0
   17.9412  -21.3414    2.6012 C   0  0  0  0  0  0  0  0  0  0  0  0
   18.3187  -17.4183    3.9047 C   0  0  0  0  0  0  0  0  0  0  0  0
   19.2769  -16.7395    3.4703 O   0  0  0  0  0  0  0  0  0  0  0  0
   18.1149  -17.5076    5.2982 N   0  0  0  0  0  0  0  0  0  0  0  0
   18.9305  -16.7244    6.1879 C   0  0  1  0  0  0  0  0  0  0  0  0
   18.1029  -15.5802    6.7409 C   0  0  0  0  0  0  0  0  0  0  0  0
   18.6784  -14.3256    6.1474 C   0  0  0  0  0  0  0  0  0  0  0  0
   18.1037  -13.7221    5.0400 C   0  0  0  0  0  0  0  0  0  0  0  0
   18.6381  -12.5655    4.4967 C   0  0  0  0  0  0  0  0  0  0  0  0
   19.7617  -11.9901    5.0544 C   0  0  0  0  0  0  0  0  0  0  0  0
   20.3166  -12.5999    6.1486 C   0  0  0  0  0  0  0  0  0  0  0  0
   19.8010  -13.7550    6.7087 C   0  0  0  0  0  0  0  0  0  0  0  0
   19.5138  -17.5697    7.2438 C   0  0  0  0  0  0  0  0  0  0  0  0
   18.8117  -18.5024    7.7108 O   0  0  0  0  0  0  0  0  0  0  0  0
   22.7630  -18.0854    8.9406 C   0  0  0  0  0  0  0  0  0  0  0  0
   21.2498  -18.2033    8.8688 C   0  0  2  0  0  0  0  0  0  0  0  0
   20.8213  -17.3893    7.7612 N   0  0  0  0  0  0  0  0  0  0  0  0
   20.6257  -17.7934   10.1445 C   0  0  0  0  0  0  0  0  0  0  0  0
   20.4910  -16.5821   10.3908 O   0  0  0  0  0  0  0  0  0  0  0  0
   20.1964  -18.7300   11.0536 O   0  0  0  0  0  0  0  0  0  0  0  0
  2 10  1  0
  2  1  1  6
  3  2  1  0
  3  4  1  0
  4  5  2  0
  4  9  1  0
  5  6  1  0
  6  7  2  0
  8  7  1  0
  9  8  2  0
 10 11  2  0
 12 13  1  0
 12 10  1  0
 13 21  1  0
 14 15  1  0
 13 14  1  1
 15 20  2  0
 16 17  2  0
 16 15  1  0
 17 18  1  0
 18 19  2  0
 20 19  1  0
 21 22  2  0
 24 23  1  1
 24 26  1  0
 25 21  1  0
 25 24  1  0
 26 27  2  0
 26 28  1  0
M  END
$$$$
