FFA.pdb
     RDKit          3D

 28 29  0  0  1  0  0  0  0  0999 V2000
   26.9503  -21.2944  -18.5586 N   0  0  0  0  0  0  0  0  0  0  0  0
   27.1304  -20.2480  -17.6000 C   0  0  1  0  0  0  0  0  0  0  0  0
   26.4080  -18.9782  -17.9654 C   0  0  0  0  0  0  0  0  0  0  0  0
   27.0827  -18.1697  -18.9774 C   0  0  0  0  0  0  0  0  0  0  0  0
   28.2510  -17.4743  -18.7473 C   0  0  0  0  0  0  0  0  0  0  0  0
   28.8723  -16.7168  -19.7152 C   0  0  0  0  0  0  0  0  0  0  0  0
   28.3157  -16.6339  -20.9899 C   0  0  0  0  0  0  0  0  0  0  0  0
   27.1478  -17.3213  -21.2421 C   0  0  0  0  0  0  0  0  0  0  0  0
   26.5348  -18.0848  -20.2419 C   0  0  0  0  0  0  0  0  0  0  0  0
   26.5739  -20.7012  -16.3061 C   0  0  0  0  0  0  0  0  0  0  0  0
   25.6824  -21.5803  -16.3080 O   0  0  0  0  0  0  0  0  0  0  0  0
   27.0169  -20.1734  -15.0746 N   0  0  0  0  0  0  0  0  0  0  0  0
   26.4066  -20.6176  -13.8497 C   0  0  1  0  0  0  0  0  0  0  0  0
   27.2934  -20.2257  -12.6836 C   0  0  0  0  0  0  0  0  0  0  0  0
   26.4893  -20.4896  -11.4421 C   0  0  0  0  0  0  0  0  0  0  0  0
   26.2115  -21.7814  -11.0238 C   0  0  0  0  0  0  0  0  0  0  0  0
   25.4697  -22.0194   -9.8786 C   0  0  0  0  0  0  0  0  0  0  0  0
   24.9909  -20.9643   -9.1286 C   0  0  0  0  0  0  0  0  0  0  0  0
   25.2750  -19.6942   -9.5568 C   0  0  0  0  0  0  0  0  0  0  0  0
   26.0135  -19.4318  -10.6968 C   0  0  0  0  0  0  0  0  0  0  0  0
   25.0362  -20.0916  -13.7270 C   0  0  0  0  0  0  0  0  0  0  0  0
   24.8741  -18.8455  -13.7720 O   0  0  0  0  0  0  0  0  0  0  0  0
   21.8601  -20.5420  -14.7355 C   0  0  0  0  0  0  0  0  0  0  0  0
   22.6009  -20.2884  -13.4333 C   0  0  2  0  0  0  0  0  0  0  0  0
   23.8922  -20.9123  -13.5611 N   0  0  0  0  0  0  0  0  0  0  0  0
   21.8360  -20.8065  -12.2795 C   0  0  0  0  0  0  0  0  0  0  0  0
   21.9986  -21.9877  -11.9267 O   0  0  0  0  0  0  0  0  0  0  0  0
   20.9542  -20.0024  -11.5984 O   0  0  0  0  0  0  0  0  0  0  0  0
  2 10  1  0
  2  1  1  6
  3  2  1  0
  3  4  1  0
  4  5  2  0
  4  9  1  0
  5  6  1  0
  6  7  2  0
  8  7  1  0
  9  8  2  0
 10 11  2  0
 12 13  1  0
 12 10  1  0
 13 21  1  0
 14 15  1  0
 13 14  1  1
 15 20  2  0
 16 17  2  0
 16 15  1  0
 17 18  1  0
 18 19  2  0
 20 19  1  0
 21 22  2  0
 24 23  1  6
 24 26  1  0
 25 21  1  0
 25 24  1  0
 26 27  2  0
 26 28  1  0
M  END
$$$$
