FFA.pdb
     RDKit          3D

 28 29  0  0  1  0  0  0  0  0999 V2000
   26.9986  -21.6362  -16.2132 N   0  0  0  0  0  0  0  0  0  0  0  0
   26.1850  -20.6655  -15.5483 C   0  0  1  0  0  0  0  0  0  0  0  0
   24.9132  -20.3492  -16.2902 C   0  0  0  0  0  0  0  0  0  0  0  0
   25.1035  -19.5634  -17.5065 C   0  0  0  0  0  0  0  0  0  0  0  0
   25.3849  -18.2136  -17.5093 C   0  0  0  0  0  0  0  0  0  0  0  0
   25.5609  -17.4897  -18.6676 C   0  0  0  0  0  0  0  0  0  0  0  0
   25.4549  -18.1264  -19.9025 C   0  0  0  0  0  0  0  0  0  0  0  0
   25.1741  -19.4757  -19.9232 C   0  0  0  0  0  0  0  0  0  0  0  0
   24.9994  -20.1903  -18.7323 C   0  0  0  0  0  0  0  0  0  0  0  0
   25.7890  -21.2130  -14.2320 C   0  0  0  0  0  0  0  0  0  0  0  0
   25.7154  -22.4552  -14.0931 O   0  0  0  0  0  0  0  0  0  0  0  0
   25.4931  -20.3792  -13.1327 N   0  0  0  0  0  0  0  0  0  0  0  0
   25.1118  -20.9674  -11.8762 C   0  0  1  0  0  0  0  0  0  0  0  0
   25.8927  -20.3011  -10.7598 C   0  0  0  0  0  0  0  0  0  0  0  0
   27.3439  -20.5405  -11.0667 C   0  0  0  0  0  0  0  0  0  0  0  0
   27.9953  -19.8362  -12.0668 C   0  0  0  0  0  0  0  0  0  0  0  0
   29.3334  -20.0606  -12.3457 C   0  0  0  0  0  0  0  0  0  0  0  0
   30.0460  -20.9978  -11.6256 C   0  0  0  0  0  0  0  0  0  0  0  0
   29.3862  -21.6847  -10.6406 C   0  0  0  0  0  0  0  0  0  0  0  0
   28.0509  -21.4780  -10.3440 C   0  0  0  0  0  0  0  0  0  0  0  0
   23.6542  -20.8860  -11.6809 C   0  0  0  0  0  0  0  0  0  0  0  0
   23.1858  -21.2333  -10.5669 O   0  0  0  0  0  0  0  0  0  0  0  0
   20.8048  -19.1327  -13.0655 C   0  0  0  0  0  0  0  0  0  0  0  0
   21.3483  -20.3678  -12.3668 C   0  0  2  0  0  0  0  0  0  0  0  0
   22.7522  -20.4382  -12.6787 N   0  0  0  0  0  0  0  0  0  0  0  0
   20.6155  -21.5803  -12.7884 C   0  0  0  0  0  0  0  0  0  0  0  0
   21.2018  -22.4328  -13.4779 O   0  0  0  0  0  0  0  0  0  0  0  0
   19.3033  -21.7731  -12.4288 O   0  0  0  0  0  0  0  0  0  0  0  0
  2 10  1  0
  2  1  1  6
  3  2  1  0
  3  4  1  0
  4  5  2  0
  4  9  1  0
  5  6  1  0
  6  7  2  0
  8  7  1  0
  9  8  2  0
 10 11  2  0
 12 13  1  0
 12 10  1  0
 13 21  1  0
 14 15  1  0
 13 14  1  1
 15 20  2  0
 16 17  2  0
 16 15  1  0
 17 18  1  0
 18 19  2  0
 20 19  1  0
 21 22  2  0
 24 23  1  6
 24 26  1  0
 25 21  1  0
 25 24  1  0
 26 27  2  0
 26 28  1  0
M  END
$$$$
