FFA.pdb
     RDKit          3D

 28 29  0  0  1  0  0  0  0  0999 V2000
   26.6700  -22.0081  -12.7989 N   0  0  0  0  0  0  0  0  0  0  0  0
   26.8579  -20.7500  -12.1446 C   0  0  1  0  0  0  0  0  0  0  0  0
   25.7578  -19.7623  -12.4308 C   0  0  0  0  0  0  0  0  0  0  0  0
   26.0076  -18.8971  -13.5806 C   0  0  0  0  0  0  0  0  0  0  0  0
   26.0139  -19.3417  -14.8858 C   0  0  0  0  0  0  0  0  0  0  0  0
   26.2519  -18.5097  -15.9572 C   0  0  0  0  0  0  0  0  0  0  0  0
   26.4995  -17.1561  -15.7384 C   0  0  0  0  0  0  0  0  0  0  0  0
   26.4979  -16.6899  -14.4412 C   0  0  0  0  0  0  0  0  0  0  0  0
   26.2534  -17.5551  -13.3685 C   0  0  0  0  0  0  0  0  0  0  0  0
   26.8578  -20.9808  -10.6831 C   0  0  0  0  0  0  0  0  0  0  0  0
   26.0940  -21.8532  -10.2105 O   0  0  0  0  0  0  0  0  0  0  0  0
   27.6903  -20.2493   -9.8095 N   0  0  0  0  0  0  0  0  0  0  0  0
   27.6684  -20.5358   -8.3997 C   0  0  1  0  0  0  0  0  0  0  0  0
   28.7463  -19.7207   -7.7115 C   0  0  0  0  0  0  0  0  0  0  0  0
   28.5549  -19.9382   -6.2372 C   0  0  0  0  0  0  0  0  0  0  0  0
   27.9974  -18.9592   -5.4300 C   0  0  0  0  0  0  0  0  0  0  0  0
   27.8231  -19.1648   -4.0714 C   0  0  0  0  0  0  0  0  0  0  0  0
   28.2052  -20.3587   -3.4943 C   0  0  0  0  0  0  0  0  0  0  0  0
   28.7545  -21.3153   -4.3070 C   0  0  0  0  0  0  0  0  0  0  0  0
   28.9385  -21.1330   -5.6659 C   0  0  0  0  0  0  0  0  0  0  0  0
   26.3274  -20.2990   -7.8383 C   0  0  0  0  0  0  0  0  0  0  0  0
   25.7844  -19.1851   -8.0519 O   0  0  0  0  0  0  0  0  0  0  0  0
   23.2906  -21.7339   -7.1497 C   0  0  0  0  0  0  0  0  0  0  0  0
   24.3574  -20.8814   -6.4834 C   0  0  2  0  0  0  0  0  0  0  0  0
   25.6169  -21.2566   -7.0715 N   0  0  0  0  0  0  0  0  0  0  0  0
   24.3427  -21.0656   -5.0168 C   0  0  0  0  0  0  0  0  0  0  0  0
   23.3648  -20.6589   -4.3654 O   0  0  0  0  0  0  0  0  0  0  0  0
   25.3905  -21.6770   -4.3714 O   0  0  0  0  0  0  0  0  0  0  0  0
  2 10  1  0
  2  1  1  6
  3  2  1  0
  3  4  1  0
  4  5  2  0
  4  9  1  0
  5  6  1  0
  6  7  2  0
  8  7  1  0
  9  8  2  0
 10 11  2  0
 12 13  1  0
 12 10  1  0
 13 21  1  0
 14 15  1  0
 13 14  1  1
 15 20  2  0
 16 17  2  0
 16 15  1  0
 17 18  1  0
 18 19  2  0
 20 19  1  0
 21 22  2  0
 24 23  1  6
 24 26  1  0
 25 21  1  0
 25 24  1  0
 26 27  2  0
 26 28  1  0
M  END
$$$$
