FFA.pdb
     RDKit          3D

 28 29  0  0  1  0  0  0  0  0999 V2000
   24.8264  -29.0191  -19.0914 N   0  0  0  0  0  0  0  0  0  0  0  0
   25.8784  -29.3474  -18.1793 C   0  0  1  0  0  0  0  0  0  0  0  0
   25.7583  -30.7365  -17.6104 C   0  0  0  0  0  0  0  0  0  0  0  0
   24.5468  -30.9653  -16.8274 C   0  0  0  0  0  0  0  0  0  0  0  0
   24.3740  -30.5146  -15.5358 C   0  0  0  0  0  0  0  0  0  0  0  0
   23.2235  -30.7408  -14.8134 C   0  0  0  0  0  0  0  0  0  0  0  0
   22.1746  -31.4536  -15.3909 C   0  0  0  0  0  0  0  0  0  0  0  0
   22.3259  -31.9137  -16.6814 C   0  0  0  0  0  0  0  0  0  0  0  0
   23.5050  -31.6711  -17.3957 C   0  0  0  0  0  0  0  0  0  0  0  0
   27.1630  -29.2932  -18.9114 C   0  0  0  0  0  0  0  0  0  0  0  0
   27.1572  -29.4590  -20.1525 O   0  0  0  0  0  0  0  0  0  0  0  0
   28.3900  -29.0609  -18.2543 N   0  0  0  0  0  0  0  0  0  0  0  0
   29.5979  -28.9371  -19.0261 C   0  0  1  0  0  0  0  0  0  0  0  0
   29.8819  -27.4675  -19.2699 C   0  0  0  0  0  0  0  0  0  0  0  0
   31.1001  -27.4191  -20.1481 C   0  0  0  0  0  0  0  0  0  0  0  0
   31.0307  -27.7352  -21.4957 C   0  0  0  0  0  0  0  0  0  0  0  0
   32.1567  -27.6890  -22.3010 C   0  0  0  0  0  0  0  0  0  0  0  0
   33.3770  -27.3241  -21.7696 C   0  0  0  0  0  0  0  0  0  0  0  0
   33.4272  -27.0149  -20.4358 C   0  0  0  0  0  0  0  0  0  0  0  0
   32.3167  -27.0539  -19.6119 C   0  0  0  0  0  0  0  0  0  0  0  0
   30.7153  -29.6326  -18.3647 C   0  0  0  0  0  0  0  0  0  0  0  0
   30.9842  -29.3238  -17.1758 O   0  0  0  0  0  0  0  0  0  0  0  0
   32.9918  -32.4801  -19.0475 C   0  0  0  0  0  0  0  0  0  0  0  0
   32.5432  -31.2753  -18.2374 C   0  0  2  0  0  0  0  0  0  0  0  0
   31.5027  -30.6292  -18.9944 N   0  0  0  0  0  0  0  0  0  0  0  0
   33.6798  -30.3729  -17.9568 C   0  0  0  0  0  0  0  0  0  0  0  0
   34.0470  -29.5714  -18.8336 O   0  0  0  0  0  0  0  0  0  0  0  0
   34.3293  -30.4107  -16.7465 O   0  0  0  0  0  0  0  0  0  0  0  0
  2 10  1  0
  2  1  1  6
  3  2  1  0
  3  4  1  0
  4  5  2  0
  4  9  1  0
  5  6  1  0
  6  7  2  0
  8  7  1  0
  9  8  2  0
 10 11  2  0
 12 13  1  0
 12 10  1  0
 13 21  1  0
 14 15  1  0
 13 14  1  1
 15 20  2  0
 16 17  2  0
 16 15  1  0
 17 18  1  0
 18 19  2  0
 20 19  1  0
 21 22  2  0
 24 23  1  6
 24 26  1  0
 25 21  1  0
 25 24  1  0
 26 27  2  0
 26 28  1  0
M  END
$$$$
