FFA.pdb
     RDKit          3D

 28 29  0  0  1  0  0  0  0  0999 V2000
   25.6728  -18.2673  -18.2684 N   0  0  0  0  0  0  0  0  0  0  0  0
   24.6369  -17.8405  -17.3789 C   0  0  1  0  0  0  0  0  0  0  0  0
   23.3300  -17.5706  -18.0765 C   0  0  0  0  0  0  0  0  0  0  0  0
   23.3076  -16.3387  -18.8608 C   0  0  0  0  0  0  0  0  0  0  0  0
   22.9781  -15.1055  -18.3394 C   0  0  0  0  0  0  0  0  0  0  0  0
   22.9626  -13.9548  -19.0959 C   0  0  0  0  0  0  0  0  0  0  0  0
   23.2902  -14.0135  -20.4489 C   0  0  0  0  0  0  0  0  0  0  0  0
   23.6228  -15.2364  -20.9912 C   0  0  0  0  0  0  0  0  0  0  0  0
   23.6316  -16.3923  -20.2020 C   0  0  0  0  0  0  0  0  0  0  0  0
   24.3865  -18.9234  -16.4024 C   0  0  0  0  0  0  0  0  0  0  0  0
   24.5609  -20.1105  -16.7604 O   0  0  0  0  0  0  0  0  0  0  0  0
   23.9583  -18.6585  -15.0841 N   0  0  0  0  0  0  0  0  0  0  0  0
   23.7864  -19.7476  -14.1597 C   0  0  1  0  0  0  0  0  0  0  0  0
   24.6268  -19.4866  -12.9245 C   0  0  0  0  0  0  0  0  0  0  0  0
   26.0471  -19.7784  -13.3182 C   0  0  0  0  0  0  0  0  0  0  0  0
   26.8651  -18.7939  -13.8497 C   0  0  0  0  0  0  0  0  0  0  0  0
   28.1738  -19.0681  -14.2110 C   0  0  0  0  0  0  0  0  0  0  0  0
   28.6891  -20.3377  -14.0461 C   0  0  0  0  0  0  0  0  0  0  0  0
   27.8666  -21.2986  -13.5194 C   0  0  0  0  0  0  0  0  0  0  0  0
   26.5567  -21.0486  -13.1513 C   0  0  0  0  0  0  0  0  0  0  0  0
   22.3611  -19.9499  -13.8483 C   0  0  0  0  0  0  0  0  0  0  0  0
   21.7319  -19.0022  -13.3124 O   0  0  0  0  0  0  0  0  0  0  0  0
   19.6415  -22.1495  -14.8761 C   0  0  0  0  0  0  0  0  0  0  0  0
   20.2490  -21.2128  -13.8454 C   0  0  2  0  0  0  0  0  0  0  0  0
   21.6613  -21.1526  -14.1193 N   0  0  0  0  0  0  0  0  0  0  0  0
   19.9603  -21.6777  -12.4722 C   0  0  0  0  0  0  0  0  0  0  0  0
   20.7945  -22.3896  -11.8863 O   0  0  0  0  0  0  0  0  0  0  0  0
   18.7887  -21.3338  -11.8420 O   0  0  0  0  0  0  0  0  0  0  0  0
  2 10  1  0
  2  1  1  6
  3  2  1  0
  3  4  1  0
  4  5  2  0
  4  9  1  0
  5  6  1  0
  6  7  2  0
  8  7  1  0
  9  8  2  0
 10 11  2  0
 12 13  1  0
 12 10  1  0
 13 21  1  0
 14 15  1  0
 13 14  1  1
 15 20  2  0
 16 17  2  0
 16 15  1  0
 17 18  1  0
 18 19  2  0
 20 19  1  0
 21 22  2  0
 24 23  1  6
 24 26  1  0
 25 21  1  0
 25 24  1  0
 26 27  2  0
 26 28  1  0
M  END
$$$$
