FFA.pdb
     RDKit          3D

 28 29  0  0  1  0  0  0  0  0999 V2000
   26.7253  -19.5511  -15.7890 N   0  0  0  0  0  0  0  0  0  0  0  0
   26.7105  -18.9614  -14.4858 C   0  0  1  0  0  0  0  0  0  0  0  0
   25.8140  -17.7553  -14.3905 C   0  0  0  0  0  0  0  0  0  0  0  0
   26.2116  -16.6389  -15.2441 C   0  0  0  0  0  0  0  0  0  0  0  0
   25.7447  -16.4533  -16.5282 C   0  0  0  0  0  0  0  0  0  0  0  0
   26.1319  -15.3936  -17.3179 C   0  0  0  0  0  0  0  0  0  0  0  0
   27.0335  -14.4550  -16.8202 C   0  0  0  0  0  0  0  0  0  0  0  0
   27.5132  -14.6209  -15.5387 C   0  0  0  0  0  0  0  0  0  0  0  0
   27.1048  -15.7064  -14.7550 C   0  0  0  0  0  0  0  0  0  0  0  0
   26.1879  -19.9612  -13.5284 C   0  0  0  0  0  0  0  0  0  0  0  0
   25.2973  -20.7540  -13.9106 O   0  0  0  0  0  0  0  0  0  0  0  0
   26.6621  -20.0470  -12.2021 N   0  0  0  0  0  0  0  0  0  0  0  0
   26.1879  -21.1001  -11.3440 C   0  0  1  0  0  0  0  0  0  0  0  0
   27.2966  -21.4982  -10.3888 C   0  0  0  0  0  0  0  0  0  0  0  0
   27.0444  -20.7370   -9.1182 C   0  0  0  0  0  0  0  0  0  0  0  0
   27.5103  -19.4428   -8.9481 C   0  0  0  0  0  0  0  0  0  0  0  0
   27.2750  -18.7454   -7.7748 C   0  0  0  0  0  0  0  0  0  0  0  0
   26.5664  -19.3333   -6.7467 C   0  0  0  0  0  0  0  0  0  0  0  0
   26.1134  -20.6131   -6.9319 C   0  0  0  0  0  0  0  0  0  0  0  0
   26.3359  -21.3293   -8.0943 C   0  0  0  0  0  0  0  0  0  0  0  0
   24.9542  -20.6938  -10.6493 C   0  0  0  0  0  0  0  0  0  0  0  0
   24.8855  -19.5205  -10.2025 O   0  0  0  0  0  0  0  0  0  0  0  0
   21.4916  -21.2820  -10.6748 C   0  0  0  0  0  0  0  0  0  0  0  0
   22.6854  -21.0475   -9.7644 C   0  0  2  0  0  0  0  0  0  0  0  0
   23.8423  -21.5520  -10.4574 N   0  0  0  0  0  0  0  0  0  0  0  0
   22.4862  -21.6978   -8.4520 C   0  0  0  0  0  0  0  0  0  0  0  0
   21.5591  -21.3109   -7.7193 O   0  0  0  0  0  0  0  0  0  0  0  0
   23.3087  -22.7172   -8.0369 O   0  0  0  0  0  0  0  0  0  0  0  0
  2 10  1  0
  2  1  1  6
  3  2  1  0
  3  4  1  0
  4  5  2  0
  4  9  1  0
  5  6  1  0
  6  7  2  0
  8  7  1  0
  9  8  2  0
 10 11  2  0
 12 13  1  0
 12 10  1  0
 13 21  1  0
 14 15  1  0
 13 14  1  1
 15 20  2  0
 16 17  2  0
 16 15  1  0
 17 18  1  0
 18 19  2  0
 20 19  1  0
 21 22  2  0
 24 23  1  6
 24 26  1  0
 25 21  1  0
 25 24  1  0
 26 27  2  0
 26 28  1  0
M  END
$$$$
