FFA.pdb
     RDKit          3D

 28 29  0  0  1  0  0  0  0  0999 V2000
   29.0060  -20.7659  -13.0338 N   0  0  0  0  0  0  0  0  0  0  0  0
   27.9569  -19.8752  -12.6436 C   0  0  1  0  0  0  0  0  0  0  0  0
   27.1198  -19.4009  -13.8020 C   0  0  0  0  0  0  0  0  0  0  0  0
   27.7313  -18.3356  -14.5921 C   0  0  0  0  0  0  0  0  0  0  0  0
   27.6297  -16.9965  -14.2797 C   0  0  0  0  0  0  0  0  0  0  0  0
   28.2136  -16.0062  -15.0380 C   0  0  0  0  0  0  0  0  0  0  0  0
   28.9438  -16.3471  -16.1747 C   0  0  0  0  0  0  0  0  0  0  0  0
   29.0584  -17.6802  -16.5058 C   0  0  0  0  0  0  0  0  0  0  0  0
   28.4558  -18.6689  -15.7193 C   0  0  0  0  0  0  0  0  0  0  0  0
   27.0492  -20.5989  -11.7262 C   0  0  0  0  0  0  0  0  0  0  0  0
   26.8912  -21.8312  -11.8821 O   0  0  0  0  0  0  0  0  0  0  0  0
   26.3588  -19.9433  -10.6846 N   0  0  0  0  0  0  0  0  0  0  0  0
   25.2697  -20.6110  -10.0227 C   0  0  1  0  0  0  0  0  0  0  0  0
   25.0137  -19.9382   -8.6878 C   0  0  0  0  0  0  0  0  0  0  0  0
   26.2622  -20.1363   -7.8757 C   0  0  0  0  0  0  0  0  0  0  0  0
   26.6190  -21.3862   -7.3948 C   0  0  0  0  0  0  0  0  0  0  0  0
   27.7710  -21.5636   -6.6467 C   0  0  0  0  0  0  0  0  0  0  0  0
   28.5898  -20.4887   -6.3655 C   0  0  0  0  0  0  0  0  0  0  0  0
   28.2218  -19.2606   -6.8488 C   0  0  0  0  0  0  0  0  0  0  0  0
   27.0765  -19.0590   -7.5979 C   0  0  0  0  0  0  0  0  0  0  0  0
   24.0751  -20.6442  -10.8838 C   0  0  0  0  0  0  0  0  0  0  0  0
   23.7736  -19.6013  -11.5184 O   0  0  0  0  0  0  0  0  0  0  0  0
   22.1614  -22.8883  -12.8382 C   0  0  0  0  0  0  0  0  0  0  0  0
   22.0949  -21.7002  -11.8933 C   0  0  2  0  0  0  0  0  0  0  0  0
   23.2483  -21.7856  -11.0357 N   0  0  0  0  0  0  0  0  0  0  0  0
   20.8266  -21.6979  -11.1340 C   0  0  0  0  0  0  0  0  0  0  0  0
   20.8627  -21.7950   -9.8950 O   0  0  0  0  0  0  0  0  0  0  0  0
   19.6179  -21.5905  -11.7787 O   0  0  0  0  0  0  0  0  0  0  0  0
  2 10  1  0
  2  1  1  6
  3  2  1  0
  3  4  1  0
  4  5  2  0
  4  9  1  0
  5  6  1  0
  6  7  2  0
  8  7  1  0
  9  8  2  0
 10 11  2  0
 12 13  1  0
 12 10  1  0
 13 21  1  0
 14 15  1  0
 13 14  1  1
 15 20  2  0
 16 17  2  0
 16 15  1  0
 17 18  1  0
 18 19  2  0
 20 19  1  0
 21 22  2  0
 24 23  1  6
 24 26  1  0
 25 21  1  0
 25 24  1  0
 26 27  2  0
 26 28  1  0
M  END
$$$$
