FFA.pdb
     RDKit          3D

 28 29  0  0  1  0  0  0  0  0999 V2000
   24.8646  -20.8081   11.6716 N   0  0  0  0  0  0  0  0  0  0  0  0
   25.8675  -21.2183   12.6055 C   0  0  1  0  0  0  0  0  0  0  0  0
   25.5360  -22.5115   13.3022 C   0  0  0  0  0  0  0  0  0  0  0  0
   24.4042  -22.4288   14.2215 C   0  0  0  0  0  0  0  0  0  0  0  0
   23.1222  -22.8166   13.8937 C   0  0  0  0  0  0  0  0  0  0  0  0
   22.0675  -22.7306   14.7751 C   0  0  0  0  0  0  0  0  0  0  0  0
   22.2797  -22.2337   16.0594 C   0  0  0  0  0  0  0  0  0  0  0  0
   23.5538  -21.8401   16.4086 C   0  0  0  0  0  0  0  0  0  0  0  0
   24.6100  -21.9370   15.4952 C   0  0  0  0  0  0  0  0  0  0  0  0
   27.1294  -21.4408   11.8656 C   0  0  0  0  0  0  0  0  0  0  0  0
   27.0785  -21.9712   10.7326 O   0  0  0  0  0  0  0  0  0  0  0  0
   28.3839  -21.0739   12.3976 N   0  0  0  0  0  0  0  0  0  0  0  0
   29.5741  -21.2716   11.6138 C   0  0  1  0  0  0  0  0  0  0  0  0
   30.3916  -19.9942   11.6231 C   0  0  0  0  0  0  0  0  0  0  0  0
   29.7420  -19.0771   10.6259 C   0  0  0  0  0  0  0  0  0  0  0  0
   29.9544  -19.2255    9.2645 C   0  0  0  0  0  0  0  0  0  0  0  0
   29.3531  -18.3774    8.3492 C   0  0  0  0  0  0  0  0  0  0  0  0
   28.5251  -17.3616    8.7823 C   0  0  0  0  0  0  0  0  0  0  0  0
   28.3264  -17.2296   10.1315 C   0  0  0  0  0  0  0  0  0  0  0  0
   28.9158  -18.0641   11.0642 C   0  0  0  0  0  0  0  0  0  0  0  0
   30.3320  -22.4381   12.0980 C   0  0  0  0  0  0  0  0  0  0  0  0
   30.3564  -22.6558   13.3362 O   0  0  0  0  0  0  0  0  0  0  0  0
   32.2385  -25.2950   10.6774 C   0  0  0  0  0  0  0  0  0  0  0  0
   31.7420  -24.4369   11.8290 C   0  0  2  0  0  0  0  0  0  0  0  0
   31.0341  -23.3271   11.2457 N   0  0  0  0  0  0  0  0  0  0  0  0
   32.8642  -24.0017   12.6871 C   0  0  0  0  0  0  0  0  0  0  0  0
   33.3991  -24.8264   13.4486 O   0  0  0  0  0  0  0  0  0  0  0  0
   33.3185  -22.7054   12.6519 O   0  0  0  0  0  0  0  0  0  0  0  0
  2 10  1  0
  2  1  1  6
  3  2  1  0
  3  4  1  0
  4  5  2  0
  4  9  1  0
  5  6  1  0
  6  7  2  0
  8  7  1  0
  9  8  2  0
 10 11  2  0
 12 13  1  0
 12 10  1  0
 13 21  1  0
 14 15  1  0
 13 14  1  1
 15 20  2  0
 16 17  2  0
 16 15  1  0
 17 18  1  0
 18 19  2  0
 20 19  1  0
 21 22  2  0
 24 23  1  6
 24 26  1  0
 25 21  1  0
 25 24  1  0
 26 27  2  0
 26 28  1  0
M  END
$$$$
