FFA.pdb
     RDKit          3D

 28 29  0  0  1  0  0  0  0  0999 V2000
   27.7606  -18.0438   -7.8395 N   0  0  0  0  0  0  0  0  0  0  0  0
   27.3541  -19.4153   -7.8442 C   0  0  1  0  0  0  0  0  0  0  0  0
   26.6669  -19.8347   -6.5717 C   0  0  0  0  0  0  0  0  0  0  0  0
   27.5121  -19.7766   -5.3820 C   0  0  0  0  0  0  0  0  0  0  0  0
   27.8097  -18.6092   -4.7111 C   0  0  0  0  0  0  0  0  0  0  0  0
   28.6094  -18.5750   -3.5904 C   0  0  0  0  0  0  0  0  0  0  0  0
   29.1529  -19.7579   -3.0937 C   0  0  0  0  0  0  0  0  0  0  0  0
   28.8684  -20.9368   -3.7488 C   0  0  0  0  0  0  0  0  0  0  0  0
   28.0528  -20.9464   -4.8863 C   0  0  0  0  0  0  0  0  0  0  0  0
   26.3803  -19.6082   -8.9414 C   0  0  0  0  0  0  0  0  0  0  0  0
   25.7086  -18.6261   -9.3312 O   0  0  0  0  0  0  0  0  0  0  0  0
   26.1872  -20.8623   -9.5591 N   0  0  0  0  0  0  0  0  0  0  0  0
   25.8891  -20.9241  -10.9653 C   0  0  1  0  0  0  0  0  0  0  0  0
   26.6095  -22.1123  -11.5729 C   0  0  0  0  0  0  0  0  0  0  0  0
   28.0738  -21.7789  -11.5274 C   0  0  0  0  0  0  0  0  0  0  0  0
   28.9401  -22.4493  -10.6784 C   0  0  0  0  0  0  0  0  0  0  0  0
   30.2893  -22.1381  -10.6403 C   0  0  0  0  0  0  0  0  0  0  0  0
   30.7973  -21.1464  -11.4546 C   0  0  0  0  0  0  0  0  0  0  0  0
   29.9267  -20.4941  -12.2876 C   0  0  0  0  0  0  0  0  0  0  0  0
   28.5759  -20.7872  -12.3431 C   0  0  0  0  0  0  0  0  0  0  0  0
   24.4340  -20.9622  -11.1908 C   0  0  0  0  0  0  0  0  0  0  0  0
   23.8053  -21.9887  -10.8273 O   0  0  0  0  0  0  0  0  0  0  0  0
   21.7902  -18.7880  -12.6474 C   0  0  0  0  0  0  0  0  0  0  0  0
   22.3020  -20.0920  -12.0586 C   0  0  2  0  0  0  0  0  0  0  0  0
   23.7051  -19.9065  -11.7942 N   0  0  0  0  0  0  0  0  0  0  0  0
   22.0455  -21.2233  -12.9748 C   0  0  0  0  0  0  0  0  0  0  0  0
   20.9367  -21.7853  -12.9470 O   0  0  0  0  0  0  0  0  0  0  0  0
   23.0125  -21.6566  -13.8496 O   0  0  0  0  0  0  0  0  0  0  0  0
  2 10  1  0
  2  1  1  1
  3  2  1  0
  3  4  1  0
  4  5  2  0
  4  9  1  0
  5  6  1  0
  6  7  2  0
  8  7  1  0
  9  8  2  0
 10 11  2  0
 12 13  1  0
 12 10  1  0
 13 21  1  0
 14 15  1  0
 13 14  1  1
 15 20  2  0
 16 17  2  0
 16 15  1  0
 17 18  1  0
 18 19  2  0
 20 19  1  0
 21 22  2  0
 24 23  1  6
 24 26  1  0
 25 21  1  0
 25 24  1  0
 26 27  2  0
 26 28  1  0
M  END
$$$$
