FFA.pdb
     RDKit          3D

 28 29  0  0  1  0  0  0  0  0999 V2000
   27.7044  -21.1208  -14.7693 N   0  0  0  0  0  0  0  0  0  0  0  0
   26.9684  -20.0316  -14.2051 C   0  0  1  0  0  0  0  0  0  0  0  0
   26.2961  -19.1701  -15.2411 C   0  0  0  0  0  0  0  0  0  0  0  0
   27.1858  -18.2234  -15.9085 C   0  0  0  0  0  0  0  0  0  0  0  0
   27.6436  -17.0613  -15.3243 C   0  0  0  0  0  0  0  0  0  0  0  0
   28.4824  -16.1807  -15.9704 C   0  0  0  0  0  0  0  0  0  0  0  0
   28.9005  -16.4537  -17.2713 C   0  0  0  0  0  0  0  0  0  0  0  0
   28.4549  -17.6101  -17.8748 C   0  0  0  0  0  0  0  0  0  0  0  0
   27.6025  -18.4900  -17.1976 C   0  0  0  0  0  0  0  0  0  0  0  0
   25.8975  -20.5876  -13.3488 C   0  0  0  0  0  0  0  0  0  0  0  0
   25.4935  -21.7522  -13.5683 O   0  0  0  0  0  0  0  0  0  0  0  0
   25.3202  -19.8463  -12.2958 N   0  0  0  0  0  0  0  0  0  0  0  0
   24.3337  -20.4631  -11.4493 C   0  0  1  0  0  0  0  0  0  0  0  0
   24.2825  -19.7224  -10.1269 C   0  0  0  0  0  0  0  0  0  0  0  0
   23.1703  -20.3542   -9.3388 C   0  0  0  0  0  0  0  0  0  0  0  0
   21.8635  -19.9061   -9.4488 C   0  0  0  0  0  0  0  0  0  0  0  0
   20.8417  -20.4921   -8.7201 C   0  0  0  0  0  0  0  0  0  0  0  0
   21.1109  -21.5412   -7.8648 C   0  0  0  0  0  0  0  0  0  0  0  0
   22.4082  -21.9713   -7.7684 C   0  0  0  0  0  0  0  0  0  0  0  0
   23.4450  -21.4020   -8.4858 C   0  0  0  0  0  0  0  0  0  0  0  0
   23.0255  -20.5182  -12.1240 C   0  0  0  0  0  0  0  0  0  0  0  0
   22.5515  -19.4485  -12.5846 O   0  0  0  0  0  0  0  0  0  0  0  0
   21.0626  -22.7807  -14.0234 C   0  0  0  0  0  0  0  0  0  0  0  0
   21.0281  -21.6553  -13.0031 C   0  0  2  0  0  0  0  0  0  0  0  0
   22.2732  -21.7093  -12.2821 N   0  0  0  0  0  0  0  0  0  0  0  0
   19.8550  -21.7835  -12.1128 C   0  0  0  0  0  0  0  0  0  0  0  0
   18.7168  -21.6107  -12.5827 O   0  0  0  0  0  0  0  0  0  0  0  0
   20.0085  -22.0893  -10.7821 O   0  0  0  0  0  0  0  0  0  0  0  0
  2 10  1  0
  2  1  1  6
  3  2  1  0
  3  4  1  0
  4  5  2  0
  4  9  1  0
  5  6  1  0
  6  7  2  0
  8  7  1  0
  9  8  2  0
 10 11  2  0
 12 13  1  0
 12 10  1  0
 13 21  1  0
 14 15  1  0
 13 14  1  1
 15 20  2  0
 16 17  2  0
 16 15  1  0
 17 18  1  0
 18 19  2  0
 20 19  1  0
 21 22  2  0
 24 23  1  6
 24 26  1  0
 25 21  1  0
 25 24  1  0
 26 27  2  0
 26 28  1  0
M  END
$$$$
