FFA.pdb
     RDKit          3D

 28 29  0  0  1  0  0  0  0  0999 V2000
   28.5822  -20.9307  -13.8522 N   0  0  0  0  0  0  0  0  0  0  0  0
   27.5224  -20.0015  -13.6071 C   0  0  1  0  0  0  0  0  0  0  0  0
   26.8953  -19.4706  -14.8690 C   0  0  0  0  0  0  0  0  0  0  0  0
   27.4503  -18.2011  -15.3309 C   0  0  0  0  0  0  0  0  0  0  0  0
   27.1804  -16.9866  -14.7364 C   0  0  0  0  0  0  0  0  0  0  0  0
   27.7136  -15.7995  -15.1871 C   0  0  0  0  0  0  0  0  0  0  0  0
   28.5653  -15.7998  -16.2899 C   0  0  0  0  0  0  0  0  0  0  0  0
   28.8488  -17.0030  -16.8998 C   0  0  0  0  0  0  0  0  0  0  0  0
   28.2947  -18.1967  -16.4233 C   0  0  0  0  0  0  0  0  0  0  0  0
   26.4546  -20.7004  -12.8584 C   0  0  0  0  0  0  0  0  0  0  0  0
   26.3370  -21.9398  -12.9914 O   0  0  0  0  0  0  0  0  0  0  0  0
   25.5681  -20.0134  -12.0020 N   0  0  0  0  0  0  0  0  0  0  0  0
   24.5198  -20.7379  -11.3339 C   0  0  1  0  0  0  0  0  0  0  0  0
   24.2233  -20.0685  -10.0058 C   0  0  0  0  0  0  0  0  0  0  0  0
   25.4493  -20.2624   -9.1592 C   0  0  0  0  0  0  0  0  0  0  0  0
   26.1672  -19.1820   -8.6713 C   0  0  0  0  0  0  0  0  0  0  0  0
   27.2968  -19.3662   -7.8912 C   0  0  0  0  0  0  0  0  0  0  0  0
   27.7296  -20.6403   -7.5843 C   0  0  0  0  0  0  0  0  0  0  0  0
   27.0080  -21.6966   -8.0749 C   0  0  0  0  0  0  0  0  0  0  0  0
   25.8772  -21.5375   -8.8557 C   0  0  0  0  0  0  0  0  0  0  0  0
   23.3300  -20.8500  -12.1951 C   0  0  0  0  0  0  0  0  0  0  0  0
   22.9896  -19.8440  -12.8683 O   0  0  0  0  0  0  0  0  0  0  0  0
   21.2691  -23.3378  -13.8198 C   0  0  0  0  0  0  0  0  0  0  0  0
   21.3541  -21.9978  -13.1083 C   0  0  2  0  0  0  0  0  0  0  0  0
   22.5493  -22.0281  -12.3060 N   0  0  0  0  0  0  0  0  0  0  0  0
   20.1403  -21.7481  -12.3027 C   0  0  0  0  0  0  0  0  0  0  0  0
   20.2396  -21.6742  -11.0655 O   0  0  0  0  0  0  0  0  0  0  0  0
   18.9132  -21.5981  -12.9025 O   0  0  0  0  0  0  0  0  0  0  0  0
  2 10  1  0
  2  1  1  6
  3  2  1  0
  3  4  1  0
  4  5  2  0
  4  9  1  0
  5  6  1  0
  6  7  2  0
  8  7  1  0
  9  8  2  0
 10 11  2  0
 12 13  1  0
 12 10  1  0
 13 21  1  0
 14 15  1  0
 13 14  1  1
 15 20  2  0
 16 17  2  0
 16 15  1  0
 17 18  1  0
 18 19  2  0
 20 19  1  0
 21 22  2  0
 24 23  1  1
 24 26  1  0
 25 21  1  0
 25 24  1  0
 26 27  2  0
 26 28  1  0
M  END
$$$$
