FFA.pdb
     RDKit          3D

 28 29  0  0  1  0  0  0  0  0999 V2000
   25.5419  -18.7397   -7.9669 N   0  0  0  0  0  0  0  0  0  0  0  0
   26.5371  -19.6706   -8.4022 C   0  0  1  0  0  0  0  0  0  0  0  0
   26.7660  -20.7940   -7.4259 C   0  0  0  0  0  0  0  0  0  0  0  0
   27.5241  -20.4149   -6.2365 C   0  0  0  0  0  0  0  0  0  0  0  0
   28.2159  -19.2282   -6.1160 C   0  0  0  0  0  0  0  0  0  0  0  0
   28.9255  -18.8887   -4.9856 C   0  0  0  0  0  0  0  0  0  0  0  0
   28.9610  -19.7658   -3.9034 C   0  0  0  0  0  0  0  0  0  0  0  0
   28.2764  -20.9580   -4.0022 C   0  0  0  0  0  0  0  0  0  0  0  0
   27.5620  -21.2809   -5.1618 C   0  0  0  0  0  0  0  0  0  0  0  0
   26.0766  -20.2874   -9.6657 C   0  0  0  0  0  0  0  0  0  0  0  0
   24.8619  -20.5623   -9.7949 O   0  0  0  0  0  0  0  0  0  0  0  0
   26.9631  -20.5738  -10.7257 N   0  0  0  0  0  0  0  0  0  0  0  0
   26.7398  -19.9837  -12.0188 C   0  0  1  0  0  0  0  0  0  0  0  0
   28.0788  -19.6821  -12.6638 C   0  0  0  0  0  0  0  0  0  0  0  0
   27.7715  -19.1878  -14.0490 C   0  0  0  0  0  0  0  0  0  0  0  0
   27.2769  -17.9116  -14.2662 C   0  0  0  0  0  0  0  0  0  0  0  0
   26.9953  -17.4607  -15.5453 C   0  0  0  0  0  0  0  0  0  0  0  0
   27.2046  -18.2827  -16.6340 C   0  0  0  0  0  0  0  0  0  0  0  0
   27.6940  -19.5410  -16.4008 C   0  0  0  0  0  0  0  0  0  0  0  0
   27.9826  -20.0133  -15.1330 C   0  0  0  0  0  0  0  0  0  0  0  0
   25.8880  -20.8514  -12.8502 C   0  0  0  0  0  0  0  0  0  0  0  0
   26.3064  -22.0054  -13.1233 O   0  0  0  0  0  0  0  0  0  0  0  0
   22.3920  -21.0994  -13.8573 C   0  0  0  0  0  0  0  0  0  0  0  0
   23.8565  -21.4039  -14.1244 C   0  0  2  0  0  0  0  0  0  0  0  0
   24.6247  -20.4572  -13.3583 N   0  0  0  0  0  0  0  0  0  0  0  0
   24.1566  -21.3350  -15.5702 C   0  0  0  0  0  0  0  0  0  0  0  0
   24.1577  -22.3833  -16.2388 O   0  0  0  0  0  0  0  0  0  0  0  0
   24.4321  -20.1336  -16.1777 O   0  0  0  0  0  0  0  0  0  0  0  0
  2 10  1  0
  2  1  1  1
  3  2  1  0
  3  4  1  0
  4  5  2  0
  4  9  1  0
  5  6  1  0
  6  7  2  0
  8  7  1  0
  9  8  2  0
 10 11  2  0
 12 13  1  0
 12 10  1  0
 13 21  1  0
 14 15  1  0
 13 14  1  6
 15 20  2  0
 16 17  2  0
 16 15  1  0
 17 18  1  0
 18 19  2  0
 20 19  1  0
 21 22  2  0
 24 23  1  6
 24 26  1  0
 25 21  1  0
 25 24  1  0
 26 27  2  0
 26 28  1  0
M  END
$$$$
