FFA.pdb
     RDKit          3D

 28 29  0  0  1  0  0  0  0  0999 V2000
   24.3080  -19.4734  -19.5443 N   0  0  0  0  0  0  0  0  0  0  0  0
   23.7969  -18.6937  -18.4594 C   0  0  1  0  0  0  0  0  0  0  0  0
   22.3637  -18.2744  -18.6538 C   0  0  0  0  0  0  0  0  0  0  0  0
   22.1696  -17.2396  -19.6659 C   0  0  0  0  0  0  0  0  0  0  0  0
   22.0413  -17.5017  -21.0136 C   0  0  0  0  0  0  0  0  0  0  0  0
   21.8590  -16.5115  -21.9531 C   0  0  0  0  0  0  0  0  0  0  0  0
   21.7981  -15.1793  -21.5492 C   0  0  0  0  0  0  0  0  0  0  0  0
   21.9240  -14.8942  -20.2064 C   0  0  0  0  0  0  0  0  0  0  0  0
   22.1086  -15.9182  -19.2701 C   0  0  0  0  0  0  0  0  0  0  0  0
   23.8398  -19.5192  -17.2322 C   0  0  0  0  0  0  0  0  0  0  0  0
   23.6734  -20.7562  -17.3315 O   0  0  0  0  0  0  0  0  0  0  0  0
   24.0619  -18.9551  -15.9579 N   0  0  0  0  0  0  0  0  0  0  0  0
   24.1305  -19.8110  -14.8034 C   0  0  1  0  0  0  0  0  0  0  0  0
   25.0048  -19.1556  -13.7517 C   0  0  0  0  0  0  0  0  0  0  0  0
   25.0449  -20.1088  -12.5910 C   0  0  0  0  0  0  0  0  0  0  0  0
   25.8334  -21.2481  -12.6202 C   0  0  0  0  0  0  0  0  0  0  0  0
   25.8669  -22.1236  -11.5474 C   0  0  0  0  0  0  0  0  0  0  0  0
   25.1086  -21.8732  -10.4218 C   0  0  0  0  0  0  0  0  0  0  0  0
   24.3350  -20.7424  -10.4101 C   0  0  0  0  0  0  0  0  0  0  0  0
   24.2852  -19.8536  -11.4690 C   0  0  0  0  0  0  0  0  0  0  0  0
   22.7807  -20.1289  -14.3066 C   0  0  0  0  0  0  0  0  0  0  0  0
   22.0261  -19.1741  -13.9906 O   0  0  0  0  0  0  0  0  0  0  0  0
   20.3732  -22.8398  -14.3940 C   0  0  0  0  0  0  0  0  0  0  0  0
   20.9541  -21.6447  -13.6572 C   0  0  2  0  0  0  0  0  0  0  0  0
   22.2871  -21.4503  -14.1656 N   0  0  0  0  0  0  0  0  0  0  0  0
   20.9344  -21.8631  -12.1954 C   0  0  0  0  0  0  0  0  0  0  0  0
   21.9920  -22.1615  -11.6137 O   0  0  0  0  0  0  0  0  0  0  0  0
   19.7684  -21.7407  -11.4788 O   0  0  0  0  0  0  0  0  0  0  0  0
  2 10  1  0
  2  1  1  6
  3  2  1  0
  3  4  1  0
  4  5  2  0
  4  9  1  0
  5  6  1  0
  6  7  2  0
  8  7  1  0
  9  8  2  0
 10 11  2  0
 12 13  1  0
 12 10  1  0
 13 21  1  0
 14 15  1  0
 13 14  1  1
 15 20  2  0
 16 17  2  0
 16 15  1  0
 17 18  1  0
 18 19  2  0
 20 19  1  0
 21 22  2  0
 24 23  1  6
 24 26  1  0
 25 21  1  0
 25 24  1  0
 26 27  2  0
 26 28  1  0
M  END
$$$$
