LAL.pdb
     RDKit          3D

 22 21  0  0  1  0  0  0  0  0999 V2000
    9.1906  -13.2014   19.3185 C   0  0  0  0  0  0  0  0  0  0  0  0
    7.7667  -13.6802   19.1225 C   0  0  2  0  0  0  0  0  0  0  0  0
    6.9151  -12.6303   18.4435 C   0  0  0  0  0  0  0  0  0  0  0  0
    7.1544  -14.2002   20.3804 C   0  0  0  0  0  0  0  0  0  0  0  0
    8.0183  -15.1720   21.1294 C   0  0  2  0  0  0  0  0  0  0  0  0
    8.1026  -16.4579   20.5243 N   0  0  0  0  0  0  0  0  0  0  0  0
    7.5426  -15.2472   22.5375 C   0  0  0  0  0  0  0  0  0  0  0  0
    7.2986  -14.1970   23.1938 O   0  0  0  0  0  0  0  0  0  0  0  0
    6.5937  -17.9760   25.0013 C   0  0  0  0  0  0  0  0  0  0  0  0
    6.9166  -16.5414   24.5901 C   0  0  2  0  0  0  0  0  0  0  0  0
    7.3346  -16.4749   23.2255 N   0  0  0  0  0  0  0  0  0  0  0  0
    7.9664  -16.0206   25.5253 C   0  0  0  0  0  0  0  0  0  0  0  0
    7.6862  -15.2280   26.4588 O   0  0  0  0  0  0  0  0  0  0  0  0
    9.8682  -13.5066   27.4872 C   0  0  0  0  0  0  0  0  0  0  0  0
    9.4046  -14.7787   28.2032 C   0  0  2  0  0  0  0  0  0  0  0  0
    9.3969  -14.5609   29.6556 C   0  0  0  0  0  0  0  0  0  0  0  0
   10.0452  -15.9676   27.6274 C   0  0  0  0  0  0  0  0  0  0  0  0
   10.4191  -15.9271   26.2007 C   0  0  2  0  0  0  0  0  0  0  0  0
    9.3058  -16.4197   25.3676 N   0  0  0  0  0  0  0  0  0  0  0  0
   11.6047  -16.6636   25.8076 C   0  0  0  0  0  0  0  0  0  0  0  0
   12.7683  -16.3665   26.1067 O   0  0  0  0  0  0  0  0  0  0  0  0
   11.4506  -17.8267   25.0138 O   0  0  0  0  0  0  0  0  0  0  0  0
  2  1  1  1
  2  3  1  0
  4  2  1  0
  4  5  1  0
  5  6  1  6
  7  5  1  0
  8  7  2  0
 10  9  1  1
 10 11  1  0
 10 12  1  0
 11  7  1  0
 12 19  1  0
 13 12  2  0
 15 16  1  1
 15 14  1  0
 18 17  1  1
 17 15  1  0
 18 20  1  0
 19 18  1  0
 20 22  1  0
 21 20  2  0
M  END
$$$$
