LAL.pdb
     RDKit          3D

 22 21  0  0  1  0  0  0  0  0999 V2000
    9.2954  -21.4272   21.7039 C   0  0  0  0  0  0  0  0  0  0  0  0
    9.1177  -20.6516   20.4147 C   0  0  2  0  0  0  0  0  0  0  0  0
    9.8677  -21.2958   19.2698 C   0  0  0  0  0  0  0  0  0  0  0  0
    9.4269  -19.1995   20.5676 C   0  0  0  0  0  0  0  0  0  0  0  0
    8.6660  -18.5207   21.6684 C   0  0  2  0  0  0  0  0  0  0  0  0
    7.2602  -18.7405   21.6219 N   0  0  0  0  0  0  0  0  0  0  0  0
    9.0054  -17.0718   21.6609 C   0  0  0  0  0  0  0  0  0  0  0  0
   10.2069  -16.6903   21.5969 O   0  0  0  0  0  0  0  0  0  0  0  0
    7.2010  -13.8077   21.1900 C   0  0  0  0  0  0  0  0  0  0  0  0
    8.3577  -14.6517   21.7201 C   0  0  2  0  0  0  0  0  0  0  0  0
    8.0265  -16.0414   21.7235 N   0  0  0  0  0  0  0  0  0  0  0  0
    8.7002  -14.1523   23.0917 C   0  0  0  0  0  0  0  0  0  0  0  0
    9.2543  -13.0392   23.2711 O   0  0  0  0  0  0  0  0  0  0  0  0
    7.7934  -11.7195   26.1345 C   0  0  0  0  0  0  0  0  0  0  0  0
    6.8174  -12.8840   25.9412 C   0  0  2  0  0  0  0  0  0  0  0  0
    5.4962  -12.5228   26.4709 C   0  0  0  0  0  0  0  0  0  0  0  0
    7.4461  -14.1605   26.3028 C   0  0  0  0  0  0  0  0  0  0  0  0
    8.6920  -14.5373   25.6081 C   0  0  2  0  0  0  0  0  0  0  0  0
    8.4000  -14.9381   24.2188 N   0  0  0  0  0  0  0  0  0  0  0  0
    9.4839  -15.5975   26.2008 C   0  0  0  0  0  0  0  0  0  0  0  0
    9.8897  -15.6248   27.3697 O   0  0  0  0  0  0  0  0  0  0  0  0
    9.8389  -16.7103   25.3994 O   0  0  0  0  0  0  0  0  0  0  0  0
  2  1  1  1
  2  3  1  0
  4  2  1  0
  4  5  1  0
  5  6  1  6
  7  5  1  0
  8  7  2  0
 10  9  1  1
 10 11  1  0
 10 12  1  0
 11  7  1  0
 12 19  1  0
 13 12  2  0
 15 16  1  1
 15 14  1  0
 18 17  1  1
 17 15  1  0
 18 20  1  0
 19 18  1  0
 20 22  1  0
 21 20  2  0
M  END
$$$$
