LAL.pdb
     RDKit          3D

 22 21  0  0  1  0  0  0  0  0999 V2000
    7.1029  -12.8335   23.6158 C   0  0  0  0  0  0  0  0  0  0  0  0
    6.1718  -13.5174   24.5958 C   0  0  2  0  0  0  0  0  0  0  0  0
    5.7281  -12.5745   25.6923 C   0  0  0  0  0  0  0  0  0  0  0  0
    6.7274  -14.7990   25.1215 C   0  0  0  0  0  0  0  0  0  0  0  0
    6.6606  -15.9424   24.1520 C   0  0  2  0  0  0  0  0  0  0  0  0
    5.6494  -16.8983   24.4525 N   0  0  0  0  0  0  0  0  0  0  0  0
    8.0082  -16.5663   24.0555 C   0  0  0  0  0  0  0  0  0  0  0  0
    8.3350  -17.5187   24.8167 O   0  0  0  0  0  0  0  0  0  0  0  0
   11.1401  -16.0797   21.9577 C   0  0  0  0  0  0  0  0  0  0  0  0
   10.2771  -16.7701   23.0113 C   0  0  2  0  0  0  0  0  0  0  0  0
    8.9974  -16.1451   23.1238 N   0  0  0  0  0  0  0  0  0  0  0  0
   11.0294  -16.7477   24.3081 C   0  0  0  0  0  0  0  0  0  0  0  0
   12.1867  -17.2256   24.4097 O   0  0  0  0  0  0  0  0  0  0  0  0
    9.9451  -14.0179   29.7878 C   0  0  0  0  0  0  0  0  0  0  0  0
   10.8562  -14.9745   29.0129 C   0  0  2  0  0  0  0  0  0  0  0  0
   12.2621  -14.6970   29.3343 C   0  0  0  0  0  0  0  0  0  0  0  0
   10.4177  -15.1012   27.6175 C   0  0  0  0  0  0  0  0  0  0  0  0
   11.0972  -16.0985   26.7686 C   0  0  2  0  0  0  0  0  0  0  0  0
   10.4384  -16.1804   25.4513 N   0  0  0  0  0  0  0  0  0  0  0  0
   11.1905  -17.4506   27.2841 C   0  0  0  0  0  0  0  0  0  0  0  0
   12.1736  -17.9352   27.8588 O   0  0  0  0  0  0  0  0  0  0  0  0
   10.0780  -18.3143   27.1324 O   0  0  0  0  0  0  0  0  0  0  0  0
  2  1  1  1
  2  3  1  0
  4  2  1  0
  4  5  1  0
  5  6  1  1
  7  5  1  0
  8  7  2  0
 10  9  1  6
 10 11  1  0
 10 12  1  0
 11  7  1  0
 12 19  1  0
 13 12  2  0
 15 16  1  6
 15 14  1  0
 18 17  1  1
 17 15  1  0
 18 20  1  0
 19 18  1  0
 20 22  1  0
 21 20  2  0
M  END
$$$$
