LAL.pdb
     RDKit          3D

 22 21  0  0  1  0  0  0  0  0999 V2000
    5.5202  -20.6403   24.7586 C   0  0  0  0  0  0  0  0  0  0  0  0
    6.9627  -20.4710   25.1891 C   0  0  2  0  0  0  0  0  0  0  0  0
    7.1036  -20.5206   26.6945 C   0  0  0  0  0  0  0  0  0  0  0  0
    7.6080  -19.2685   24.5847 C   0  0  0  0  0  0  0  0  0  0  0  0
    7.3724  -19.1193   23.1103 C   0  0  2  0  0  0  0  0  0  0  0  0
    7.8421  -20.2167   22.3346 N   0  0  0  0  0  0  0  0  0  0  0  0
    7.9576  -17.8267   22.6615 C   0  0  0  0  0  0  0  0  0  0  0  0
    9.2033  -17.7035   22.4991 O   0  0  0  0  0  0  0  0  0  0  0  0
    6.6809  -14.5098   21.3675 C   0  0  0  0  0  0  0  0  0  0  0  0
    7.7433  -15.4288   21.9660 C   0  0  2  0  0  0  0  0  0  0  0  0
    7.1760  -16.6692   22.3908 N   0  0  0  0  0  0  0  0  0  0  0  0
    8.4014  -14.6955   23.0962 C   0  0  0  0  0  0  0  0  0  0  0  0
    9.1378  -13.6974   22.8973 O   0  0  0  0  0  0  0  0  0  0  0  0
    7.6913  -11.5768   25.5525 C   0  0  0  0  0  0  0  0  0  0  0  0
    6.7932  -12.7792   25.8587 C   0  0  2  0  0  0  0  0  0  0  0  0
    5.5628  -12.3287   26.5219 C   0  0  0  0  0  0  0  0  0  0  0  0
    7.5767  -13.8920   26.4093 C   0  0  0  0  0  0  0  0  0  0  0  0
    8.7034  -14.4059   25.6072 C   0  0  2  0  0  0  0  0  0  0  0  0
    8.1995  -15.1231   24.4208 N   0  0  0  0  0  0  0  0  0  0  0  0
    9.6400  -15.2893   26.2742 C   0  0  0  0  0  0  0  0  0  0  0  0
   10.2936  -15.0120   27.2880 O   0  0  0  0  0  0  0  0  0  0  0  0
    9.8459  -16.5869   25.7445 O   0  0  0  0  0  0  0  0  0  0  0  0
  2  1  1  1
  2  3  1  0
  4  2  1  0
  4  5  1  0
  5  6  1  6
  7  5  1  0
  8  7  2  0
 10  9  1  1
 10 11  1  0
 10 12  1  0
 11  7  1  0
 12 19  1  0
 13 12  2  0
 15 16  1  1
 15 14  1  0
 18 17  1  1
 17 15  1  0
 18 20  1  0
 19 18  1  0
 20 22  1  0
 21 20  2  0
M  END
$$$$
