LAL.pdb
     RDKit          3D

 22 21  0  0  1  0  0  0  0  0999 V2000
    2.9685  -17.5051   21.0574 C   0  0  0  0  0  0  0  0  0  0  0  0
    3.5784  -18.8893   21.1398 C   0  0  2  0  0  0  0  0  0  0  0  0
    2.6063  -19.8920   21.7213 C   0  0  0  0  0  0  0  0  0  0  0  0
    4.9021  -18.8966   21.8293 C   0  0  0  0  0  0  0  0  0  0  0  0
    5.8696  -17.8714   21.3150 C   0  0  2  0  0  0  0  0  0  0  0  0
    5.9913  -17.8499   19.8968 N   0  0  0  0  0  0  0  0  0  0  0  0
    7.1825  -18.0749   21.9854 C   0  0  0  0  0  0  0  0  0  0  0  0
    7.8455  -19.1329   21.7997 O   0  0  0  0  0  0  0  0  0  0  0  0
    9.6021  -16.3760   21.4307 C   0  0  0  0  0  0  0  0  0  0  0  0
    9.1575  -16.7859   22.8327 C   0  0  2  0  0  0  0  0  0  0  0  0
    7.7682  -17.1175   22.8597 N   0  0  0  0  0  0  0  0  0  0  0  0
    9.4846  -15.6592   23.7664 C   0  0  0  0  0  0  0  0  0  0  0  0
   10.6444  -15.1838   23.8484 O   0  0  0  0  0  0  0  0  0  0  0  0
    6.0841  -12.0256   26.7401 C   0  0  0  0  0  0  0  0  0  0  0  0
    7.3901  -12.6211   26.2054 C   0  0  2  0  0  0  0  0  0  0  0  0
    7.6428  -12.1316   24.8441 C   0  0  0  0  0  0  0  0  0  0  0  0
    7.4785  -14.0535   26.5149 C   0  0  0  0  0  0  0  0  0  0  0  0
    8.6489  -14.7973   26.0111 C   0  0  2  0  0  0  0  0  0  0  0  0
    8.4779  -15.1081   24.5793 N   0  0  0  0  0  0  0  0  0  0  0  0
    8.9801  -16.0399   26.6811 C   0  0  0  0  0  0  0  0  0  0  0  0
    8.4003  -17.1212   26.5194 O   0  0  0  0  0  0  0  0  0  0  0  0
   10.0540  -16.0489   27.6049 O   0  0  0  0  0  0  0  0  0  0  0  0
  2  1  1  1
  2  3  1  0
  4  2  1  0
  4  5  1  0
  5  6  1  6
  7  5  1  0
  8  7  2  0
 10  9  1  6
 10 11  1  0
 10 12  1  0
 11  7  1  0
 12 19  1  0
 13 12  2  0
 15 16  1  6
 15 14  1  0
 18 17  1  1
 17 15  1  0
 18 20  1  0
 19 18  1  0
 20 22  1  0
 21 20  2  0
M  END
$$$$
