LAL.pdb
     RDKit          3D

 22 21  0  0  1  0  0  0  0  0999 V2000
    8.9361  -12.2493   19.9008 C   0  0  0  0  0  0  0  0  0  0  0  0
    8.2331  -13.5317   19.5057 C   0  0  2  0  0  0  0  0  0  0  0  0
    6.8648  -13.2588   18.9212 C   0  0  0  0  0  0  0  0  0  0  0  0
    8.2036  -14.5371   20.6084 C   0  0  0  0  0  0  0  0  0  0  0  0
    9.5124  -14.7056   21.3228 C   0  0  2  0  0  0  0  0  0  0  0  0
   10.6483  -14.6773   20.4651 N   0  0  0  0  0  0  0  0  0  0  0  0
    9.4564  -15.9513   22.1350 C   0  0  0  0  0  0  0  0  0  0  0  0
    8.3771  -16.3233   22.6735 O   0  0  0  0  0  0  0  0  0  0  0  0
   11.6285  -18.9546   22.7763 C   0  0  0  0  0  0  0  0  0  0  0  0
   10.5351  -17.9636   23.1681 C   0  0  2  0  0  0  0  0  0  0  0  0
   10.5848  -16.7890   22.3563 N   0  0  0  0  0  0  0  0  0  0  0  0
   10.7015  -17.6476   24.6243 C   0  0  0  0  0  0  0  0  0  0  0  0
   10.7819  -18.5521   25.4924 O   0  0  0  0  0  0  0  0  0  0  0  0
    8.5998  -13.0471   27.9496 C   0  0  0  0  0  0  0  0  0  0  0  0
    9.6492  -14.1628   27.9572 C   0  0  2  0  0  0  0  0  0  0  0  0
   10.7971  -13.7644   28.7821 C   0  0  0  0  0  0  0  0  0  0  0  0
    9.8488  -14.7041   26.6072 C   0  0  0  0  0  0  0  0  0  0  0  0
   10.7235  -15.8830   26.4590 C   0  0  2  0  0  0  0  0  0  0  0  0
   10.7714  -16.3081   25.0473 N   0  0  0  0  0  0  0  0  0  0  0  0
   10.3920  -17.0545   27.2466 C   0  0  0  0  0  0  0  0  0  0  0  0
    9.3565  -17.7239   27.1397 O   0  0  0  0  0  0  0  0  0  0  0  0
   11.3116  -17.4952   28.2298 O   0  0  0  0  0  0  0  0  0  0  0  0
  2  1  1  1
  2  3  1  0
  4  2  1  0
  4  5  1  0
  5  6  1  6
  7  5  1  0
  8  7  2  0
 10  9  1  6
 10 11  1  0
 10 12  1  0
 11  7  1  0
 12 19  1  0
 13 12  2  0
 15 16  1  6
 15 14  1  0
 18 17  1  6
 17 15  1  0
 18 20  1  0
 19 18  1  0
 20 22  1  0
 21 20  2  0
M  END
$$$$
