LAL.pdb
     RDKit          3D

 22 21  0  0  1  0  0  0  0  0999 V2000
   10.3816  -13.2895   19.1910 C   0  0  0  0  0  0  0  0  0  0  0  0
    9.0050  -13.2698   18.5590 C   0  0  2  0  0  0  0  0  0  0  0  0
    8.3906  -11.8882   18.6065 C   0  0  0  0  0  0  0  0  0  0  0  0
    8.1033  -14.3255   19.1067 C   0  0  0  0  0  0  0  0  0  0  0  0
    8.7823  -15.6367   19.3741 C   0  0  2  0  0  0  0  0  0  0  0  0
    8.8126  -16.5127   18.2523 N   0  0  0  0  0  0  0  0  0  0  0  0
    8.1464  -16.2706   20.5609 C   0  0  0  0  0  0  0  0  0  0  0  0
    7.1970  -17.0911   20.4239 O   0  0  0  0  0  0  0  0  0  0  0  0
    8.1624  -18.1811   22.9298 C   0  0  0  0  0  0  0  0  0  0  0  0
    7.9868  -16.6677   23.0301 C   0  0  2  0  0  0  0  0  0  0  0  0
    8.5521  -16.0042   21.8982 N   0  0  0  0  0  0  0  0  0  0  0  0
    8.6122  -16.2167   24.3160 C   0  0  0  0  0  0  0  0  0  0  0  0
    9.8498  -16.3001   24.5146 O   0  0  0  0  0  0  0  0  0  0  0  0
    7.8445  -12.1791   25.7700 C   0  0  0  0  0  0  0  0  0  0  0  0
    6.7387  -13.0878   26.3153 C   0  0  2  0  0  0  0  0  0  0  0  0
    5.6158  -12.2744   26.7994 C   0  0  0  0  0  0  0  0  0  0  0  0
    7.3023  -14.1578   27.1478 C   0  0  0  0  0  0  0  0  0  0  0  0
    8.3333  -15.0271   26.5492 C   0  0  2  0  0  0  0  0  0  0  0  0
    7.8063  -15.6836   25.3380 N   0  0  0  0  0  0  0  0  0  0  0  0
    8.8894  -16.0683   27.3915 C   0  0  0  0  0  0  0  0  0  0  0  0
    8.5635  -17.2620   27.3697 O   0  0  0  0  0  0  0  0  0  0  0  0
    9.8930  -15.7208   28.3289 O   0  0  0  0  0  0  0  0  0  0  0  0
  2  1  1  1
  2  3  1  0
  4  2  1  0
  4  5  1  0
  5  6  1  6
  7  5  1  0
  8  7  2  0
 10  9  1  6
 10 11  1  0
 10 12  1  0
 11  7  1  0
 12 19  1  0
 13 12  2  0
 15 16  1  1
 15 14  1  0
 18 17  1  1
 17 15  1  0
 18 20  1  0
 19 18  1  0
 20 22  1  0
 21 20  2  0
M  END
$$$$
