LAL.pdb
     RDKit          3D

 22 21  0  0  1  0  0  0  0  0999 V2000
    9.6436  -12.6279   18.9504 C   0  0  0  0  0  0  0  0  0  0  0  0
    8.2636  -13.1710   18.6411 C   0  0  2  0  0  0  0  0  0  0  0  0
    7.2662  -12.0574   18.4101 C   0  0  0  0  0  0  0  0  0  0  0  0
    7.7971  -14.1689   19.6482 C   0  0  0  0  0  0  0  0  0  0  0  0
    8.8961  -14.9911   20.2548 C   0  0  2  0  0  0  0  0  0  0  0  0
    9.2870  -16.1087   19.4645 N   0  0  0  0  0  0  0  0  0  0  0  0
    8.4892  -15.3932   21.6286 C   0  0  0  0  0  0  0  0  0  0  0  0
    7.9811  -14.5545   22.4233 O   0  0  0  0  0  0  0  0  0  0  0  0
    8.4554  -18.5955   23.6759 C   0  0  0  0  0  0  0  0  0  0  0  0
    8.1772  -17.1159   23.4216 C   0  0  2  0  0  0  0  0  0  0  0  0
    8.6398  -16.7159   22.1305 N   0  0  0  0  0  0  0  0  0  0  0  0
    8.8285  -16.3304   24.5202 C   0  0  0  0  0  0  0  0  0  0  0  0
   10.0732  -16.1681   24.5688 O   0  0  0  0  0  0  0  0  0  0  0  0
    7.9824  -12.2360   25.4712 C   0  0  0  0  0  0  0  0  0  0  0  0
    6.9131  -13.0675   26.1861 C   0  0  2  0  0  0  0  0  0  0  0  0
    5.8037  -12.2016   26.6058 C   0  0  0  0  0  0  0  0  0  0  0  0
    7.5262  -14.0101   27.1301 C   0  0  0  0  0  0  0  0  0  0  0  0
    8.5751  -14.9135   26.6198 C   0  0  2  0  0  0  0  0  0  0  0  0
    8.0398  -15.7530   25.5314 N   0  0  0  0  0  0  0  0  0  0  0  0
    9.2023  -15.8042   27.5769 C   0  0  0  0  0  0  0  0  0  0  0  0
   10.0450  -15.4748   28.4213 O   0  0  0  0  0  0  0  0  0  0  0  0
    8.8402  -17.1737   27.5697 O   0  0  0  0  0  0  0  0  0  0  0  0
  2  1  1  1
  2  3  1  0
  4  2  1  0
  4  5  1  0
  5  6  1  6
  7  5  1  0
  8  7  2  0
 10  9  1  1
 10 11  1  0
 10 12  1  0
 11  7  1  0
 12 19  1  0
 13 12  2  0
 15 16  1  1
 15 14  1  0
 18 17  1  1
 17 15  1  0
 18 20  1  0
 19 18  1  0
 20 22  1  0
 21 20  2  0
M  END
$$$$
