LAL.pdb
     RDKit          3D

 22 21  0  0  1  0  0  0  0  0999 V2000
    7.5452  -14.0434   17.1086 C   0  0  0  0  0  0  0  0  0  0  0  0
    7.3442  -14.0750   18.6098 C   0  0  2  0  0  0  0  0  0  0  0  0
    7.5487  -12.7093   19.2274 C   0  0  0  0  0  0  0  0  0  0  0  0
    8.1481  -15.1406   19.2774 C   0  0  0  0  0  0  0  0  0  0  0  0
    7.7161  -15.4494   20.6808 C   0  0  2  0  0  0  0  0  0  0  0  0
    7.1253  -14.3470   21.3608 N   0  0  0  0  0  0  0  0  0  0  0  0
    8.8767  -16.0085   21.4259 C   0  0  0  0  0  0  0  0  0  0  0  0
    9.3649  -17.1299   21.1139 O   0  0  0  0  0  0  0  0  0  0  0  0
   11.8527  -15.1015   23.1232 C   0  0  0  0  0  0  0  0  0  0  0  0
   10.5665  -15.9104   23.2738 C   0  0  2  0  0  0  0  0  0  0  0  0
    9.5015  -15.3371   22.5135 N   0  0  0  0  0  0  0  0  0  0  0  0
   10.2379  -15.9834   24.7349 C   0  0  0  0  0  0  0  0  0  0  0  0
   11.0791  -16.3712   25.5834 O   0  0  0  0  0  0  0  0  0  0  0  0
    8.5994  -12.6644   27.1283 C   0  0  0  0  0  0  0  0  0  0  0  0
    7.4935  -13.3987   26.3642 C   0  0  2  0  0  0  0  0  0  0  0  0
    6.3057  -12.5418   26.2569 C   0  0  0  0  0  0  0  0  0  0  0  0
    7.3754  -14.7892   26.8205 C   0  0  0  0  0  0  0  0  0  0  0  0
    8.5210  -15.6902   26.5914 C   0  0  2  0  0  0  0  0  0  0  0  0
    8.9583  -15.6115   25.1848 N   0  0  0  0  0  0  0  0  0  0  0  0
    8.3294  -17.0938   26.9009 C   0  0  0  0  0  0  0  0  0  0  0  0
    8.3176  -17.5849   28.0369 O   0  0  0  0  0  0  0  0  0  0  0  0
    8.1364  -18.0052   25.8338 O   0  0  0  0  0  0  0  0  0  0  0  0
  2  1  1  6
  2  3  1  0
  4  2  1  0
  4  5  1  0
  5  6  1  1
  7  5  1  0
  8  7  2  0
 10  9  1  1
 10 11  1  0
 10 12  1  0
 11  7  1  0
 12 19  1  0
 13 12  2  0
 15 16  1  1
 15 14  1  0
 18 17  1  6
 17 15  1  0
 18 20  1  0
 19 18  1  0
 20 22  1  0
 21 20  2  0
M  END
$$$$
