LAL.pdb
     RDKit          3D

 22 21  0  0  1  0  0  0  0  0999 V2000
    9.8338  -13.4260   18.9265 C   0  0  0  0  0  0  0  0  0  0  0  0
    8.3209  -13.3472   18.9130 C   0  0  2  0  0  0  0  0  0  0  0  0
    7.8385  -11.9135   18.9058 C   0  0  0  0  0  0  0  0  0  0  0  0
    7.6908  -14.1667   19.9896 C   0  0  0  0  0  0  0  0  0  0  0  0
    8.2499  -15.5536   20.1145 C   0  0  2  0  0  0  0  0  0  0  0  0
    7.7330  -16.4747   19.1601 N   0  0  0  0  0  0  0  0  0  0  0  0
    8.0496  -16.0254   21.5116 C   0  0  0  0  0  0  0  0  0  0  0  0
    6.8882  -16.1660   21.9856 O   0  0  0  0  0  0  0  0  0  0  0  0
    9.6904  -18.1126   23.9707 C   0  0  0  0  0  0  0  0  0  0  0  0
    8.9259  -16.8143   23.7229 C   0  0  2  0  0  0  0  0  0  0  0  0
    9.1237  -16.3429   22.3888 N   0  0  0  0  0  0  0  0  0  0  0  0
    9.3758  -15.8138   24.7449 C   0  0  0  0  0  0  0  0  0  0  0  0
   10.4689  -15.2042   24.6373 O   0  0  0  0  0  0  0  0  0  0  0  0
    7.9268  -12.0184   25.9557 C   0  0  0  0  0  0  0  0  0  0  0  0
    6.9975  -13.0546   26.5949 C   0  0  2  0  0  0  0  0  0  0  0  0
    5.7597  -12.4056   27.0462 C   0  0  0  0  0  0  0  0  0  0  0  0
    7.7443  -13.9475   27.4895 C   0  0  0  0  0  0  0  0  0  0  0  0
    8.9423  -14.6195   26.9508 C   0  0  2  0  0  0  0  0  0  0  0  0
    8.5646  -15.5383   25.8603 N   0  0  0  0  0  0  0  0  0  0  0  0
    9.7512  -15.3768   27.8861 C   0  0  0  0  0  0  0  0  0  0  0  0
   10.4864  -14.8939   28.7568 O   0  0  0  0  0  0  0  0  0  0  0  0
    9.7184  -16.7916   27.8231 O   0  0  0  0  0  0  0  0  0  0  0  0
  2  1  1  1
  2  3  1  0
  4  2  1  0
  4  5  1  0
  5  6  1  6
  7  5  1  0
  8  7  2  0
 10  9  1  6
 10 11  1  0
 10 12  1  0
 11  7  1  0
 12 19  1  0
 13 12  2  0
 15 16  1  1
 15 14  1  0
 18 17  1  1
 17 15  1  0
 18 20  1  0
 19 18  1  0
 20 22  1  0
 21 20  2  0
M  END
$$$$
