EAM.pdb
     RDKit          3D

 23 22  0  0  1  0  0  0  0  0999 V2000
   17.5107  -10.8933  -17.0581 N   0  0  0  0  0  0  0  0  0  0  0  0
   18.4707  -10.0529  -17.7474 C   0  0  1  0  0  0  0  0  0  0  0  0
   17.7082   -9.0200  -18.5128 C   0  0  0  0  0  0  0  0  0  0  0  0
   16.9172   -9.5478  -19.6598 C   0  0  0  0  0  0  0  0  0  0  0  0
   17.6870   -9.8098  -20.8886 C   0  0  0  0  0  0  0  0  0  0  0  0
   18.9114   -9.5865  -21.0317 O   0  0  0  0  0  0  0  0  0  0  0  0
   19.4421   -9.4450  -16.8006 C   0  0  0  0  0  0  0  0  0  0  0  0
   18.9944   -8.9033  -15.7634 O   0  0  0  0  0  0  0  0  0  0  0  0
   17.0023  -10.3447  -21.9690 O   0  0  0  0  0  0  0  0  0  0  0  0
   23.1678   -9.2562  -16.4893 C   0  0  0  0  0  0  0  0  0  0  0  0
   21.7860   -8.7841  -16.1416 C   0  0  2  0  0  0  0  0  0  0  0  0
   20.8420   -9.4390  -16.9956 N   0  0  0  0  0  0  0  0  0  0  0  0
   21.6484   -7.3151  -16.1414 C   0  0  0  0  0  0  0  0  0  0  0  0
   21.4731   -6.7277  -17.2270 O   0  0  0  0  0  0  0  0  0  0  0  0
   18.2588   -0.7681  -14.7405 C   0  0  0  0  0  0  0  0  0  0  0  0
   18.2723   -2.5804  -14.7147 S   0  0  0  0  0  0  0  0  0  0  0  0
   19.9943   -3.1304  -14.7356 C   0  0  0  0  0  0  0  0  0  0  0  0
   20.1084   -4.6270  -14.9083 C   0  0  0  0  0  0  0  0  0  0  0  0
   21.5388   -5.0943  -14.9317 C   0  0  2  0  0  0  0  0  0  0  0  0
   21.7026   -6.5110  -14.9723 N   0  0  0  0  0  0  0  0  0  0  0  0
   22.3379   -4.5121  -13.8231 C   0  0  0  0  0  0  0  0  0  0  0  0
   22.6894   -3.3039  -13.7979 O   0  0  0  0  0  0  0  0  0  0  0  0
   22.7438   -5.2858  -12.7404 O   0  0  0  0  0  0  0  0  0  0  0  0
  2  7  1  0
  2  1  1  1
  3  2  1  0
  3  4  1  0
  4  5  1  0
  5  9  1  0
  5  6  2  0
  7  8  2  0
 11 10  1  6
 12 11  1  0
 12  7  1  0
 13 14  2  0
 13 11  1  0
 16 15  1  0
 17 16  1  0
 18 17  1  0
 19 20  1  0
 19 18  1  1
 20 13  1  0
 21 19  1  0
 22 21  2  0
 23 21  1  0
M  END
$$$$
