EAM.pdb
     RDKit          3D

 23 22  0  0  1  0  0  0  0  0999 V2000
   23.8697  -20.0242  -13.1945 N   0  0  0  0  0  0  0  0  0  0  0  0
   23.3885  -20.2797  -11.8505 C   0  0  1  0  0  0  0  0  0  0  0  0
   22.3033  -21.3036  -11.9399 C   0  0  0  0  0  0  0  0  0  0  0  0
   21.7373  -21.4986  -13.3042 C   0  0  0  0  0  0  0  0  0  0  0  0
   20.2658  -21.5203  -13.3787 C   0  0  0  0  0  0  0  0  0  0  0  0
   19.5740  -20.8133  -14.1475 O   0  0  0  0  0  0  0  0  0  0  0  0
   24.4903  -20.7080  -10.9492 C   0  0  0  0  0  0  0  0  0  0  0  0
   24.1874  -21.1500   -9.8168 O   0  0  0  0  0  0  0  0  0  0  0  0
   19.5965  -22.3909  -12.5322 O   0  0  0  0  0  0  0  0  0  0  0  0
   28.2028  -21.1093  -11.2340 C   0  0  0  0  0  0  0  0  0  0  0  0
   26.9360  -21.0466  -10.4312 C   0  0  2  0  0  0  0  0  0  0  0  0
   25.8611  -20.6484  -11.2886 N   0  0  0  0  0  0  0  0  0  0  0  0
   27.0492  -20.2164   -9.2168 C   0  0  0  0  0  0  0  0  0  0  0  0
   26.6614  -19.0323   -9.2599 O   0  0  0  0  0  0  0  0  0  0  0  0
   26.1322  -21.4885   -2.9681 C   0  0  0  0  0  0  0  0  0  0  0  0
   27.6104  -20.4598   -2.7628 S   0  0  0  0  0  0  0  0  0  0  0  0
   27.9639  -19.6609   -4.3455 C   0  0  0  0  0  0  0  0  0  0  0  0
   27.6101  -20.5461   -5.5177 C   0  0  0  0  0  0  0  0  0  0  0  0
   27.8490  -19.8690   -6.8404 C   0  0  2  0  0  0  0  0  0  0  0  0
   27.5775  -20.6795   -7.9827 N   0  0  0  0  0  0  0  0  0  0  0  0
   29.2107  -19.2828   -6.9332 C   0  0  0  0  0  0  0  0  0  0  0  0
   30.1707  -19.8743   -7.4921 O   0  0  0  0  0  0  0  0  0  0  0  0
   29.4970  -18.0308   -6.3983 O   0  0  0  0  0  0  0  0  0  0  0  0
  2  7  1  0
  2  1  1  6
  3  2  1  0
  3  4  1  0
  4  5  1  0
  5  9  1  0
  5  6  2  0
  7  8  2  0
 11 10  1  6
 12 11  1  0
 12  7  1  0
 13 14  2  0
 13 11  1  0
 16 15  1  0
 17 16  1  0
 18 17  1  0
 19 20  1  0
 19 18  1  1
 20 13  1  0
 21 19  1  0
 22 21  2  0
 23 21  1  0
M  END
$$$$
