EAM.pdb
     RDKit          3D

 23 22  0  0  1  0  0  0  0  0999 V2000
   18.5298  -12.0303  -15.2268 N   0  0  0  0  0  0  0  0  0  0  0  0
   18.1312  -10.6375  -15.2935 C   0  0  1  0  0  0  0  0  0  0  0  0
   16.7063  -10.5904  -15.7423 C   0  0  0  0  0  0  0  0  0  0  0  0
   16.4867  -10.9577  -17.1693 C   0  0  0  0  0  0  0  0  0  0  0  0
   15.9144  -12.2969  -17.3944 C   0  0  0  0  0  0  0  0  0  0  0  0
   15.7312  -13.1596  -16.5047 O   0  0  0  0  0  0  0  0  0  0  0  0
   18.3316   -9.9500  -13.9909 C   0  0  0  0  0  0  0  0  0  0  0  0
   17.7822  -10.4380  -12.9762 O   0  0  0  0  0  0  0  0  0  0  0  0
   15.5512  -12.6261  -18.6913 O   0  0  0  0  0  0  0  0  0  0  0  0
   20.2483   -6.9571  -12.7873 C   0  0  0  0  0  0  0  0  0  0  0  0
   19.2552   -8.0654  -12.5910 C   0  0  2  0  0  0  0  0  0  0  0  0
   19.1041   -8.7783  -13.8231 N   0  0  0  0  0  0  0  0  0  0  0  0
   17.9723   -7.6121  -12.0204 C   0  0  0  0  0  0  0  0  0  0  0  0
   17.1150   -7.1233  -12.7823 O   0  0  0  0  0  0  0  0  0  0  0  0
   11.6890   -7.6961   -7.5546 C   0  0  0  0  0  0  0  0  0  0  0  0
   13.0283   -8.6087   -8.3662 S   0  0  0  0  0  0  0  0  0  0  0  0
   14.2944   -7.4203   -8.8690 C   0  0  0  0  0  0  0  0  0  0  0  0
   15.4757   -8.0956   -9.5256 C   0  0  0  0  0  0  0  0  0  0  0  0
   16.4945   -7.1083  -10.0280 C   0  0  2  0  0  0  0  0  0  0  0  0
   17.6408   -7.6950  -10.6421 N   0  0  0  0  0  0  0  0  0  0  0  0
   16.9069   -6.1433   -8.9769 C   0  0  0  0  0  0  0  0  0  0  0  0
   16.1297   -5.2701   -8.5107 O   0  0  0  0  0  0  0  0  0  0  0  0
   18.1933   -6.1569   -8.4471 O   0  0  0  0  0  0  0  0  0  0  0  0
  2  7  1  0
  2  1  1  1
  3  2  1  0
  3  4  1  0
  4  5  1  0
  5  9  1  0
  5  6  2  0
  7  8  2  0
 11 10  1  6
 12 11  1  0
 12  7  1  0
 13 14  2  0
 13 11  1  0
 16 15  1  0
 17 16  1  0
 18 17  1  0
 19 20  1  0
 19 18  1  1
 20 13  1  0
 21 19  1  0
 22 21  2  0
 23 21  1  0
M  END
$$$$
