EAM.pdb
     RDKit          3D

 23 22  0  0  1  0  0  0  0  0999 V2000
   18.5678  -21.7249  -13.0083 N   0  0  0  0  0  0  0  0  0  0  0  0
   19.5617  -20.6736  -13.1085 C   0  0  1  0  0  0  0  0  0  0  0  0
   19.4128  -19.7878  -11.9137 C   0  0  0  0  0  0  0  0  0  0  0  0
   18.1828  -18.9472  -11.9069 C   0  0  0  0  0  0  0  0  0  0  0  0
   18.0822  -17.9686  -13.0040 C   0  0  0  0  0  0  0  0  0  0  0  0
   17.0158  -17.6201  -13.5615 O   0  0  0  0  0  0  0  0  0  0  0  0
   20.9348  -21.2308  -13.2254 C   0  0  0  0  0  0  0  0  0  0  0  0
   21.2448  -22.1944  -12.4873 O   0  0  0  0  0  0  0  0  0  0  0  0
   19.2594  -17.3897  -13.4530 O   0  0  0  0  0  0  0  0  0  0  0  0
   23.6282  -21.1536  -15.7296 C   0  0  0  0  0  0  0  0  0  0  0  0
   23.2190  -21.3073  -14.2936 C   0  0  2  0  0  0  0  0  0  0  0  0
   21.9156  -20.7421  -14.1181 N   0  0  0  0  0  0  0  0  0  0  0  0
   24.2138  -20.7824  -13.3387 C   0  0  0  0  0  0  0  0  0  0  0  0
   24.2203  -19.5612  -13.0881 O   0  0  0  0  0  0  0  0  0  0  0  0
   27.2213  -19.4923   -7.3252 C   0  0  0  0  0  0  0  0  0  0  0  0
   26.2480  -20.4589   -8.5101 S   0  0  0  0  0  0  0  0  0  0  0  0
   27.3935  -21.2704   -9.6492 C   0  0  0  0  0  0  0  0  0  0  0  0
   26.6688  -22.0070  -10.7514 C   0  0  0  0  0  0  0  0  0  0  0  0
   26.2553  -21.0951  -11.8751 C   0  0  2  0  0  0  0  0  0  0  0  0
   25.1796  -21.5841  -12.6746 N   0  0  0  0  0  0  0  0  0  0  0  0
   27.4033  -20.7059  -12.7336 C   0  0  0  0  0  0  0  0  0  0  0  0
   27.8554  -21.4476  -13.6443 O   0  0  0  0  0  0  0  0  0  0  0  0
   28.0460  -19.4828  -12.5709 O   0  0  0  0  0  0  0  0  0  0  0  0
  2  7  1  0
  2  1  1  1
  3  2  1  0
  3  4  1  0
  4  5  1  0
  5  9  1  0
  5  6  2  0
  7  8  2  0
 11 10  1  6
 12 11  1  0
 12  7  1  0
 13 14  2  0
 13 11  1  0
 16 15  1  0
 17 16  1  0
 18 17  1  0
 19 20  1  0
 19 18  1  1
 20 13  1  0
 21 19  1  0
 22 21  2  0
 23 21  1  0
M  END
$$$$
