EAM.pdb
     RDKit          3D

 23 22  0  0  1  0  0  0  0  0999 V2000
   22.4313  -18.7394  -13.5465 N   0  0  0  0  0  0  0  0  0  0  0  0
   22.1849  -20.0372  -12.9480 C   0  0  1  0  0  0  0  0  0  0  0  0
   21.1991  -20.7586  -13.8092 C   0  0  0  0  0  0  0  0  0  0  0  0
   20.9289  -20.1152  -15.1256 C   0  0  0  0  0  0  0  0  0  0  0  0
   19.7620  -20.6408  -15.8561 C   0  0  0  0  0  0  0  0  0  0  0  0
   19.4144  -20.2867  -17.0064 O   0  0  0  0  0  0  0  0  0  0  0  0
   23.4455  -20.8057  -12.7745 C   0  0  0  0  0  0  0  0  0  0  0  0
   23.3713  -21.9579  -12.2880 O   0  0  0  0  0  0  0  0  0  0  0  0
   18.9902  -21.6012  -15.2201 O   0  0  0  0  0  0  0  0  0  0  0  0
   27.0974  -20.1194  -13.3068 C   0  0  0  0  0  0  0  0  0  0  0  0
   25.9623  -20.9728  -12.8207 C   0  0  2  0  0  0  0  0  0  0  0  0
   24.7256  -20.3190  -13.1241 N   0  0  0  0  0  0  0  0  0  0  0  0
   26.0825  -21.3601  -11.4021 C   0  0  0  0  0  0  0  0  0  0  0  0
   25.8326  -22.5375  -11.0772 O   0  0  0  0  0  0  0  0  0  0  0  0
   28.5520  -19.7582   -4.0384 C   0  0  0  0  0  0  0  0  0  0  0  0
   28.3710  -19.0691   -5.7050 S   0  0  0  0  0  0  0  0  0  0  0  0
   27.3934  -20.2280   -6.6897 C   0  0  0  0  0  0  0  0  0  0  0  0
   27.3284  -19.8210   -8.1432 C   0  0  0  0  0  0  0  0  0  0  0  0
   26.5436  -20.7972   -8.9776 C   0  0  2  0  0  0  0  0  0  0  0  0
   26.4693  -20.4711  -10.3646 N   0  0  0  0  0  0  0  0  0  0  0  0
   25.1847  -21.0393   -8.4290 C   0  0  0  0  0  0  0  0  0  0  0  0
   24.9788  -21.7367   -7.4018 O   0  0  0  0  0  0  0  0  0  0  0  0
   24.0540  -20.4985   -9.0330 O   0  0  0  0  0  0  0  0  0  0  0  0
  2  7  1  0
  2  1  1  6
  3  2  1  0
  3  4  1  0
  4  5  1  0
  5  9  1  0
  5  6  2  0
  7  8  2  0
 11 10  1  1
 12 11  1  0
 12  7  1  0
 13 14  2  0
 13 11  1  0
 16 15  1  0
 17 16  1  0
 18 17  1  0
 19 20  1  0
 19 18  1  1
 20 13  1  0
 21 19  1  0
 22 21  2  0
 23 21  1  0
M  END
$$$$
