EAM.pdb
     RDKit          3D

 23 22  0  0  1  0  0  0  0  0999 V2000
   27.6703  -20.0913  -16.7762 N   0  0  0  0  0  0  0  0  0  0  0  0
   28.0865  -19.0257  -15.8849 C   0  0  1  0  0  0  0  0  0  0  0  0
   28.2769  -17.7910  -16.7055 C   0  0  0  0  0  0  0  0  0  0  0  0
   27.3619  -17.6692  -17.8750 C   0  0  0  0  0  0  0  0  0  0  0  0
   28.0079  -17.2884  -19.1435 C   0  0  0  0  0  0  0  0  0  0  0  0
   27.6683  -17.7021  -20.2761 O   0  0  0  0  0  0  0  0  0  0  0  0
   27.1082  -18.8220  -14.7844 C   0  0  0  0  0  0  0  0  0  0  0  0
   27.3707  -17.9596  -13.9145 O   0  0  0  0  0  0  0  0  0  0  0  0
   29.0737  -16.4041  -19.0769 O   0  0  0  0  0  0  0  0  0  0  0  0
   23.5611  -19.4604  -14.1744 C   0  0  0  0  0  0  0  0  0  0  0  0
   24.9454  -19.3610  -13.6027 C   0  0  2  0  0  0  0  0  0  0  0  0
   25.8978  -19.5406  -14.6562 N   0  0  0  0  0  0  0  0  0  0  0  0
   25.1736  -20.2577  -12.4535 C   0  0  0  0  0  0  0  0  0  0  0  0
   24.9478  -21.4764  -12.5881 O   0  0  0  0  0  0  0  0  0  0  0  0
   27.7067  -18.4366   -6.5791 C   0  0  0  0  0  0  0  0  0  0  0  0
   27.8864  -20.2379   -6.4877 S   0  0  0  0  0  0  0  0  0  0  0  0
   26.8516  -20.9724   -7.7753 C   0  0  0  0  0  0  0  0  0  0  0  0
   26.7331  -20.0763   -8.9859 C   0  0  0  0  0  0  0  0  0  0  0  0
   25.8278  -20.6535  -10.0404 C   0  0  2  0  0  0  0  0  0  0  0  0
   25.6399  -19.8225  -11.1848 N   0  0  0  0  0  0  0  0  0  0  0  0
   24.5160  -21.0745   -9.4851 C   0  0  0  0  0  0  0  0  0  0  0  0
   23.4707  -20.3846   -9.6086 O   0  0  0  0  0  0  0  0  0  0  0  0
   24.3756  -22.2713   -8.7897 O   0  0  0  0  0  0  0  0  0  0  0  0
  2  7  1  0
  2  1  1  6
  3  2  1  0
  3  4  1  0
  4  5  1  0
  5  9  1  0
  5  6  2  0
  7  8  2  0
 11 10  1  6
 12 11  1  0
 12  7  1  0
 13 14  2  0
 13 11  1  0
 16 15  1  0
 17 16  1  0
 18 17  1  0
 19 20  1  0
 19 18  1  1
 20 13  1  0
 21 19  1  0
 22 21  2  0
 23 21  1  0
M  END
$$$$
