EAM.pdb
     RDKit          3D

 23 22  0  0  1  0  0  0  0  0999 V2000
   18.1895  -11.6022  -18.5091 N   0  0  0  0  0  0  0  0  0  0  0  0
   17.5822  -10.7565  -17.4995 C   0  0  1  0  0  0  0  0  0  0  0  0
   17.4869  -11.5490  -16.2358 C   0  0  0  0  0  0  0  0  0  0  0  0
   16.5548  -12.7099  -16.2935 C   0  0  0  0  0  0  0  0  0  0  0  0
   16.5029  -13.5374  -15.0754 C   0  0  0  0  0  0  0  0  0  0  0  0
   15.7525  -14.5268  -14.9094 O   0  0  0  0  0  0  0  0  0  0  0  0
   18.3461   -9.4949  -17.3136 C   0  0  0  0  0  0  0  0  0  0  0  0
   19.5834   -9.5208  -17.5084 O   0  0  0  0  0  0  0  0  0  0  0  0
   17.3504  -13.1936  -14.0334 O   0  0  0  0  0  0  0  0  0  0  0  0
   17.5096   -5.9442  -16.4324 C   0  0  0  0  0  0  0  0  0  0  0  0
   18.4863   -7.0461  -16.7236 C   0  0  2  0  0  0  0  0  0  0  0  0
   17.7646   -8.2649  -16.9304 N   0  0  0  0  0  0  0  0  0  0  0  0
   19.5551   -7.1674  -15.7137 C   0  0  0  0  0  0  0  0  0  0  0  0
   19.4962   -8.0969  -14.8849 O   0  0  0  0  0  0  0  0  0  0  0  0
   26.5243   -9.3994  -14.6716 C   0  0  0  0  0  0  0  0  0  0  0  0
   24.9747   -9.2340  -15.5973 S   0  0  0  0  0  0  0  0  0  0  0  0
   23.9997   -7.9184  -14.8312 C   0  0  0  0  0  0  0  0  0  0  0  0
   22.6830   -7.7036  -15.5403 C   0  0  0  0  0  0  0  0  0  0  0  0
   21.8927   -6.5667  -14.9506 C   0  0  2  0  0  0  0  0  0  0  0  0
   20.6638   -6.2853  -15.6185 N   0  0  0  0  0  0  0  0  0  0  0  0
   22.7039   -5.3297  -14.8157 C   0  0  0  0  0  0  0  0  0  0  0  0
   22.8958   -4.5331  -15.7709 O   0  0  0  0  0  0  0  0  0  0  0  0
   23.3013   -4.9848  -13.6075 O   0  0  0  0  0  0  0  0  0  0  0  0
  2  7  1  0
  2  1  1  6
  3  2  1  0
  3  4  1  0
  4  5  1  0
  5  9  1  0
  5  6  2  0
  7  8  2  0
 11 10  1  1
 12 11  1  0
 12  7  1  0
 13 14  2  0
 13 11  1  0
 16 15  1  0
 17 16  1  0
 18 17  1  0
 19 20  1  0
 19 18  1  6
 20 13  1  0
 21 19  1  0
 22 21  2  0
 23 21  1  0
M  END
$$$$
