EAM.pdb
     RDKit          3D

 23 22  0  0  1  0  0  0  0  0999 V2000
   23.1806  -20.7338  -16.2765 N   0  0  0  0  0  0  0  0  0  0  0  0
   23.9308  -19.7689  -15.4960 C   0  0  1  0  0  0  0  0  0  0  0  0
   22.9516  -18.8447  -14.8470 C   0  0  0  0  0  0  0  0  0  0  0  0
   22.2198  -17.9484  -15.7855 C   0  0  0  0  0  0  0  0  0  0  0  0
   23.0615  -17.2413  -16.7669 C   0  0  0  0  0  0  0  0  0  0  0  0
   23.8290  -16.2875  -16.5014 O   0  0  0  0  0  0  0  0  0  0  0  0
   24.8127  -20.4377  -14.5038 C   0  0  0  0  0  0  0  0  0  0  0  0
   24.3555  -21.4217  -13.8776 O   0  0  0  0  0  0  0  0  0  0  0  0
   22.9981  -17.6654  -18.0854 O   0  0  0  0  0  0  0  0  0  0  0  0
   28.3871  -20.1514  -13.4309 C   0  0  0  0  0  0  0  0  0  0  0  0
   26.9764  -20.6185  -13.2191 C   0  0  2  0  0  0  0  0  0  0  0  0
   26.1374  -20.0339  -14.2208 N   0  0  0  0  0  0  0  0  0  0  0  0
   26.4831  -20.3979  -11.8462 C   0  0  0  0  0  0  0  0  0  0  0  0
   26.0404  -19.2734  -11.5400 O   0  0  0  0  0  0  0  0  0  0  0  0
   29.3540  -19.8404   -6.2214 C   0  0  0  0  0  0  0  0  0  0  0  0
   27.7975  -18.9325   -6.4175 S   0  0  0  0  0  0  0  0  0  0  0  0
   26.6360  -19.9934   -7.3082 C   0  0  0  0  0  0  0  0  0  0  0  0
   27.0851  -20.2593   -8.7259 C   0  0  0  0  0  0  0  0  0  0  0  0
   26.1478  -21.1786   -9.4617 C   0  0  2  0  0  0  0  0  0  0  0  0
   26.4774  -21.3930  -10.8332 N   0  0  0  0  0  0  0  0  0  0  0  0
   24.7295  -20.7573   -9.3297 C   0  0  0  0  0  0  0  0  0  0  0  0
   24.0448  -20.9831   -8.2982 O   0  0  0  0  0  0  0  0  0  0  0  0
   24.0773  -20.0815  -10.3561 O   0  0  0  0  0  0  0  0  0  0  0  0
  2  7  1  0
  2  1  1  1
  3  2  1  0
  3  4  1  0
  4  5  1  0
  5  9  1  0
  5  6  2  0
  7  8  2  0
 11 10  1  1
 12 11  1  0
 12  7  1  0
 13 14  2  0
 13 11  1  0
 16 15  1  0
 17 16  1  0
 18 17  1  0
 19 20  1  0
 19 18  1  6
 20 13  1  0
 21 19  1  0
 22 21  2  0
 23 21  1  0
M  END
$$$$
