EAM.pdb
     RDKit          3D

 23 22  0  0  1  0  0  0  0  0999 V2000
   25.1880  -16.3642  -16.8017 N   0  0  0  0  0  0  0  0  0  0  0  0
   25.5512  -17.6076  -16.1496 C   0  0  1  0  0  0  0  0  0  0  0  0
   26.9762  -17.4959  -15.7127 C   0  0  0  0  0  0  0  0  0  0  0  0
   27.9735  -18.0137  -16.6909 C   0  0  0  0  0  0  0  0  0  0  0  0
   27.7930  -19.4207  -17.0899 C   0  0  0  0  0  0  0  0  0  0  0  0
   27.2865  -19.8028  -18.1701 O   0  0  0  0  0  0  0  0  0  0  0  0
   24.6400  -17.9153  -15.0162 C   0  0  0  0  0  0  0  0  0  0  0  0
   24.4247  -17.0152  -14.1718 O   0  0  0  0  0  0  0  0  0  0  0  0
   28.2168  -20.3960  -16.2001 O   0  0  0  0  0  0  0  0  0  0  0  0
   22.1569  -20.5108  -14.1342 C   0  0  0  0  0  0  0  0  0  0  0  0
   23.1827  -19.5028  -13.7044 C   0  0  2  0  0  0  0  0  0  0  0  0
   23.9992  -19.1612  -14.8295 N   0  0  0  0  0  0  0  0  0  0  0  0
   23.9638  -19.9238  -12.5256 C   0  0  0  0  0  0  0  0  0  0  0  0
   23.3595  -20.1910  -11.4684 O   0  0  0  0  0  0  0  0  0  0  0  0
   27.8145  -19.7999   -6.2802 C   0  0  0  0  0  0  0  0  0  0  0  0
   26.5529  -19.2891   -7.4772 S   0  0  0  0  0  0  0  0  0  0  0  0
   26.8023  -20.2371   -8.9963 C   0  0  0  0  0  0  0  0  0  0  0  0
   25.9437  -19.7262  -10.1296 C   0  0  0  0  0  0  0  0  0  0  0  0
   26.1605  -20.4952  -11.4050 C   0  0  2  0  0  0  0  0  0  0  0  0
   25.3783  -20.0478  -12.5112 N   0  0  0  0  0  0  0  0  0  0  0  0
   25.9961  -21.9589  -11.2129 C   0  0  0  0  0  0  0  0  0  0  0  0
   25.0103  -22.5989  -11.6630 O   0  0  0  0  0  0  0  0  0  0  0  0
   26.9387  -22.7070  -10.5147 O   0  0  0  0  0  0  0  0  0  0  0  0
  2  7  1  0
  2  1  1  1
  3  2  1  0
  3  4  1  0
  4  5  1  0
  5  9  1  0
  5  6  2  0
  7  8  2  0
 11 10  1  6
 12 11  1  0
 12  7  1  0
 13 14  2  0
 13 11  1  0
 16 15  1  0
 17 16  1  0
 18 17  1  0
 19 20  1  0
 19 18  1  1
 20 13  1  0
 21 19  1  0
 22 21  2  0
 23 21  1  0
M  END
$$$$
