EAM.pdb
     RDKit          3D

 23 22  0  0  1  0  0  0  0  0999 V2000
   26.0756  -16.3170  -15.0473 N   0  0  0  0  0  0  0  0  0  0  0  0
   26.2875  -17.7476  -14.9397 C   0  0  1  0  0  0  0  0  0  0  0  0
   27.7509  -17.9799  -14.7432 C   0  0  0  0  0  0  0  0  0  0  0  0
   28.5993  -17.6652  -15.9268 C   0  0  0  0  0  0  0  0  0  0  0  0
   28.2705  -18.4115  -17.1541 C   0  0  0  0  0  0  0  0  0  0  0  0
   27.3598  -19.2658  -17.2542 O   0  0  0  0  0  0  0  0  0  0  0  0
   25.4742  -18.3384  -13.8447 C   0  0  0  0  0  0  0  0  0  0  0  0
   25.3657  -17.6926  -12.7766 O   0  0  0  0  0  0  0  0  0  0  0  0
   29.0284  -18.1468  -18.2846 O   0  0  0  0  0  0  0  0  0  0  0  0
   23.2135  -21.2893  -13.4479 C   0  0  0  0  0  0  0  0  0  0  0  0
   24.0559  -20.1864  -12.8761 C   0  0  2  0  0  0  0  0  0  0  0  0
   24.8138  -19.5851  -13.9312 N   0  0  0  0  0  0  0  0  0  0  0  0
   24.8864  -20.6121  -11.7333 C   0  0  0  0  0  0  0  0  0  0  0  0
   25.9746  -21.1772  -11.9587 O   0  0  0  0  0  0  0  0  0  0  0  0
   28.8910  -19.7198   -5.3369 C   0  0  0  0  0  0  0  0  0  0  0  0
   28.1339  -19.0680   -6.8493 S   0  0  0  0  0  0  0  0  0  0  0  0
   26.9337  -20.2814   -7.4454 C   0  0  0  0  0  0  0  0  0  0  0  0
   26.2977  -19.8555   -8.7480 C   0  0  0  0  0  0  0  0  0  0  0  0
   25.2861  -20.8527   -9.2454 C   0  0  2  0  0  0  0  0  0  0  0  0
   24.5269  -20.4198  -10.3731 N   0  0  0  0  0  0  0  0  0  0  0  0
   24.3839  -21.3243   -8.1638 C   0  0  0  0  0  0  0  0  0  0  0  0
   23.1583  -21.0404   -8.1265 O   0  0  0  0  0  0  0  0  0  0  0  0
   24.8563  -22.1157   -7.1216 O   0  0  0  0  0  0  0  0  0  0  0  0
  2  7  1  0
  2  1  1  1
  3  2  1  0
  3  4  1  0
  4  5  1  0
  5  9  1  0
  5  6  2  0
  7  8  2  0
 11 10  1  6
 12 11  1  0
 12  7  1  0
 13 14  2  0
 13 11  1  0
 16 15  1  0
 17 16  1  0
 18 17  1  0
 19 20  1  0
 19 18  1  1
 20 13  1  0
 21 19  1  0
 22 21  2  0
 23 21  1  0
M  END
$$$$
