EAM.pdb
     RDKit          3D

 23 22  0  0  1  0  0  0  0  0999 V2000
   13.3772   -8.1462  -13.1295 N   0  0  0  0  0  0  0  0  0  0  0  0
   14.6644   -8.6268  -12.6655 C   0  0  1  0  0  0  0  0  0  0  0  0
   15.2566   -9.4682  -13.7496 C   0  0  0  0  0  0  0  0  0  0  0  0
   14.6647  -10.8292  -13.8800 C   0  0  0  0  0  0  0  0  0  0  0  0
   15.0797  -11.7981  -12.8502 C   0  0  0  0  0  0  0  0  0  0  0  0
   16.0837  -11.6762  -12.1109 O   0  0  0  0  0  0  0  0  0  0  0  0
   15.5576   -7.5041  -12.2763 C   0  0  0  0  0  0  0  0  0  0  0  0
   15.9179   -6.7011  -13.1679 O   0  0  0  0  0  0  0  0  0  0  0  0
   14.2978  -12.9315  -12.6880 O   0  0  0  0  0  0  0  0  0  0  0  0
   16.7081   -5.9215   -9.1231 C   0  0  0  0  0  0  0  0  0  0  0  0
   16.9212   -6.2341  -10.5756 C   0  0  2  0  0  0  0  0  0  0  0  0
   16.0275   -7.2837  -10.9616 N   0  0  0  0  0  0  0  0  0  0  0  0
   18.3290   -6.5142  -10.9171 C   0  0  0  0  0  0  0  0  0  0  0  0
   18.7954   -7.6427  -10.6655 O   0  0  0  0  0  0  0  0  0  0  0  0
   23.6440   -9.1511  -15.0390 C   0  0  0  0  0  0  0  0  0  0  0  0
   21.9297   -8.8641  -14.5248 S   0  0  0  0  0  0  0  0  0  0  0  0
   21.8825   -7.3430  -13.5490 C   0  0  0  0  0  0  0  0  0  0  0  0
   20.5062   -7.0735  -12.9872 C   0  0  0  0  0  0  0  0  0  0  0  0
   20.4808   -5.8698  -12.0842 C   0  0  2  0  0  0  0  0  0  0  0  0
   19.2035   -5.5731  -11.5220 N   0  0  0  0  0  0  0  0  0  0  0  0
   21.0510   -4.6646  -12.7390 C   0  0  0  0  0  0  0  0  0  0  0  0
   20.3456   -3.8306  -13.3641 O   0  0  0  0  0  0  0  0  0  0  0  0
   22.4149   -4.3937  -12.6932 O   0  0  0  0  0  0  0  0  0  0  0  0
  2  7  1  0
  2  1  1  6
  3  2  1  0
  3  4  1  0
  4  5  1  0
  5  9  1  0
  5  6  2  0
  7  8  2  0
 11 10  1  1
 12 11  1  0
 12  7  1  0
 13 14  2  0
 13 11  1  0
 16 15  1  0
 17 16  1  0
 18 17  1  0
 19 20  1  0
 19 18  1  6
 20 13  1  0
 21 19  1  0
 22 21  2  0
 23 21  1  0
M  END
$$$$
