EAM.pdb
     RDKit          3D

 23 22  0  0  1  0  0  0  0  0999 V2000
   17.3330  -12.5324  -18.6341 N   0  0  0  0  0  0  0  0  0  0  0  0
   17.2181  -11.9313  -17.3193 C   0  0  1  0  0  0  0  0  0  0  0  0
   17.7374  -12.9141  -16.3200 C   0  0  0  0  0  0  0  0  0  0  0  0
   16.9522  -14.1760  -16.2164 C   0  0  0  0  0  0  0  0  0  0  0  0
   17.3434  -15.0730  -15.1147 C   0  0  0  0  0  0  0  0  0  0  0  0
   18.3075  -14.8804  -14.3383 O   0  0  0  0  0  0  0  0  0  0  0  0
   17.9340  -10.6304  -17.2502 C   0  0  0  0  0  0  0  0  0  0  0  0
   18.9781  -10.4952  -17.9293 O   0  0  0  0  0  0  0  0  0  0  0  0
   16.5851  -16.2179  -14.9237 O   0  0  0  0  0  0  0  0  0  0  0  0
   17.2826   -7.2454  -15.8239 C   0  0  0  0  0  0  0  0  0  0  0  0
   18.2239   -8.2993  -16.3302 C   0  0  2  0  0  0  0  0  0  0  0  0
   17.5113   -9.5334  -16.4655 N   0  0  0  0  0  0  0  0  0  0  0  0
   19.4552   -8.4239  -15.5269 C   0  0  0  0  0  0  0  0  0  0  0  0
   19.6763   -9.4948  -14.9280 O   0  0  0  0  0  0  0  0  0  0  0  0
   26.3786  -10.3911  -14.7571 C   0  0  0  0  0  0  0  0  0  0  0  0
   24.8263  -10.1853  -15.6700 S   0  0  0  0  0  0  0  0  0  0  0  0
   23.9052   -8.8258  -14.9138 C   0  0  0  0  0  0  0  0  0  0  0  0
   22.5377   -8.6554  -15.5329 C   0  0  0  0  0  0  0  0  0  0  0  0
   21.7433   -7.5588  -14.8761 C   0  0  2  0  0  0  0  0  0  0  0  0
   20.4213   -7.3927  -15.3861 N   0  0  0  0  0  0  0  0  0  0  0  0
   22.4668   -6.2615  -14.8805 C   0  0  0  0  0  0  0  0  0  0  0  0
   22.4451   -5.4725  -15.8607 O   0  0  0  0  0  0  0  0  0  0  0  0
   23.2164   -5.8478  -13.7839 O   0  0  0  0  0  0  0  0  0  0  0  0
  2  7  1  0
  2  1  1  6
  3  2  1  0
  3  4  1  0
  4  5  1  0
  5  9  1  0
  5  6  2  0
  7  8  2  0
 11 10  1  1
 12 11  1  0
 12  7  1  0
 13 14  2  0
 13 11  1  0
 16 15  1  0
 17 16  1  0
 18 17  1  0
 19 20  1  0
 19 18  1  6
 20 13  1  0
 21 19  1  0
 22 21  2  0
 23 21  1  0
M  END
$$$$
