EAM.pdb
     RDKit          3D

 23 22  0  0  1  0  0  0  0  0999 V2000
   29.0882  -19.9490  -19.0235 N   0  0  0  0  0  0  0  0  0  0  0  0
   27.8023  -19.5737  -18.4678 C   0  0  1  0  0  0  0  0  0  0  0  0
   26.7852  -20.5470  -18.9700 C   0  0  0  0  0  0  0  0  0  0  0  0
   25.7932  -19.9790  -19.9254 C   0  0  0  0  0  0  0  0  0  0  0  0
   24.3922  -20.0059  -19.4694 C   0  0  0  0  0  0  0  0  0  0  0  0
   23.5567  -20.8915  -19.7643 O   0  0  0  0  0  0  0  0  0  0  0  0
   27.8441  -19.5228  -16.9828 C   0  0  0  0  0  0  0  0  0  0  0  0
   28.4598  -20.4315  -16.3789 O   0  0  0  0  0  0  0  0  0  0  0  0
   23.9673  -18.9706  -18.6509 O   0  0  0  0  0  0  0  0  0  0  0  0
   26.4996  -17.2367  -14.3264 C   0  0  0  0  0  0  0  0  0  0  0  0
   27.1737  -18.5002  -14.7761 C   0  0  2  0  0  0  0  0  0  0  0  0
   27.2322  -18.5126  -16.2063 N   0  0  0  0  0  0  0  0  0  0  0  0
   26.5728  -19.7222  -14.2081 C   0  0  0  0  0  0  0  0  0  0  0  0
   27.1984  -20.7969  -14.2972 O   0  0  0  0  0  0  0  0  0  0  0  0
   26.1015  -20.8520   -6.9888 C   0  0  0  0  0  0  0  0  0  0  0  0
   26.5699  -19.9521   -8.4908 S   0  0  0  0  0  0  0  0  0  0  0  0
   25.5819  -20.5937   -9.8621 C   0  0  0  0  0  0  0  0  0  0  0  0
   25.9219  -19.9175  -11.1696 C   0  0  0  0  0  0  0  0  0  0  0  0
   25.0451  -20.3827  -12.3009 C   0  0  2  0  0  0  0  0  0  0  0  0
   25.3116  -19.7601  -13.5566 N   0  0  0  0  0  0  0  0  0  0  0  0
   23.6006  -20.2826  -11.9695 C   0  0  0  0  0  0  0  0  0  0  0  0
   22.8908  -19.2992  -12.3059 O   0  0  0  0  0  0  0  0  0  0  0  0
   22.9503  -21.2868  -11.2594 O   0  0  0  0  0  0  0  0  0  0  0  0
  2  7  1  0
  2  1  1  1
  3  2  1  0
  3  4  1  0
  4  5  1  0
  5  9  1  0
  5  6  2  0
  7  8  2  0
 11 10  1  6
 12 11  1  0
 12  7  1  0
 13 14  2  0
 13 11  1  0
 16 15  1  0
 17 16  1  0
 18 17  1  0
 19 20  1  0
 19 18  1  1
 20 13  1  0
 21 19  1  0
 22 21  2  0
 23 21  1  0
M  END
$$$$
