EAM.pdb
     RDKit          3D

 23 22  0  0  1  0  0  0  0  0999 V2000
   16.5769   -9.3039  -13.9836 N   0  0  0  0  0  0  0  0  0  0  0  0
   17.7109   -9.0189  -14.8414 C   0  0  1  0  0  0  0  0  0  0  0  0
   17.2878   -7.9796  -15.8289 C   0  0  0  0  0  0  0  0  0  0  0  0
   16.4630   -8.4896  -16.9600 C   0  0  0  0  0  0  0  0  0  0  0  0
   17.0997   -9.5317  -17.7845 C   0  0  0  0  0  0  0  0  0  0  0  0
   18.2726   -9.4858  -18.2223 O   0  0  0  0  0  0  0  0  0  0  0  0
   18.8973   -8.5932  -14.0534 C   0  0  0  0  0  0  0  0  0  0  0  0
   18.7066   -7.8908  -13.0337 O   0  0  0  0  0  0  0  0  0  0  0  0
   16.3411  -10.6488  -18.0993 O   0  0  0  0  0  0  0  0  0  0  0  0
   22.5366   -9.3769  -13.9577 C   0  0  0  0  0  0  0  0  0  0  0  0
   21.3908   -8.4417  -13.7015 C   0  0  2  0  0  0  0  0  0  0  0  0
   20.2300   -8.9309  -14.3815 N   0  0  0  0  0  0  0  0  0  0  0  0
   21.6987   -7.0335  -14.0162 C   0  0  0  0  0  0  0  0  0  0  0  0
   22.6131   -6.4635  -13.3891 O   0  0  0  0  0  0  0  0  0  0  0  0
   21.8104   -1.1812  -19.2917 C   0  0  0  0  0  0  0  0  0  0  0  0
   21.3520   -2.9074  -18.9825 S   0  0  0  0  0  0  0  0  0  0  0  0
   21.5336   -3.2291  -17.2128 C   0  0  0  0  0  0  0  0  0  0  0  0
   21.2335   -4.6685  -16.8655 C   0  0  0  0  0  0  0  0  0  0  0  0
   21.3411   -4.9367  -15.3885 C   0  0  2  0  0  0  0  0  0  0  0  0
   21.0153   -6.2700  -14.9994 N   0  0  0  0  0  0  0  0  0  0  0  0
   20.5672   -3.9581  -14.5824 C   0  0  0  0  0  0  0  0  0  0  0  0
   19.3790   -4.1615  -14.2206 O   0  0  0  0  0  0  0  0  0  0  0  0
   21.1261   -2.7490  -14.1809 O   0  0  0  0  0  0  0  0  0  0  0  0
  2  7  1  0
  2  1  1  1
  3  2  1  0
  3  4  1  0
  4  5  1  0
  5  9  1  0
  5  6  2  0
  7  8  2  0
 11 10  1  6
 12 11  1  0
 12  7  1  0
 13 14  2  0
 13 11  1  0
 16 15  1  0
 17 16  1  0
 18 17  1  0
 19 20  1  0
 19 18  1  6
 20 13  1  0
 21 19  1  0
 22 21  2  0
 23 21  1  0
M  END
$$$$
