DEE.pdb
     RDKit          3D

 27 26  0  0  1  0  0  0  0  0999 V2000
    9.5246  -13.2099   17.8290 N   0  0  0  0  0  0  0  0  0  0  0  0
    9.4863  -14.6406   17.6824 C   0  0  1  0  0  0  0  0  0  0  0  0
    9.3433  -14.9638   16.2083 C   0  0  0  0  0  0  0  0  0  0  0  0
    8.0961  -14.3838   15.6593 C   0  0  0  0  0  0  0  0  0  0  0  0
    7.4410  -13.5769   16.3372 O   0  0  0  0  0  0  0  0  0  0  0  0
   10.7490  -15.2491   18.1613 C   0  0  0  0  0  0  0  0  0  0  0  0
   10.8879  -16.4980   18.0828 O   0  0  0  0  0  0  0  0  0  0  0  0
    7.6792  -14.7509   14.3968 O   0  0  0  0  0  0  0  0  0  0  0  0
   11.7373  -14.4100   18.6824 N   0  0  0  0  0  0  0  0  0  0  0  0
   13.0367  -14.9754   19.0609 C   0  0  1  0  0  0  0  0  0  0  0  0
   14.1242  -14.2625   18.3139 C   0  0  0  0  0  0  0  0  0  0  0  0
   14.5214  -14.8915   17.0145 C   0  0  0  0  0  0  0  0  0  0  0  0
   15.8689  -14.5112   16.5409 C   0  0  0  0  0  0  0  0  0  0  0  0
   16.4322  -13.4173   16.7164 O   0  0  0  0  0  0  0  0  0  0  0  0
   13.2029  -14.9286   20.5414 C   0  0  0  0  0  0  0  0  0  0  0  0
   13.0754  -13.8179   21.1113 O   0  0  0  0  0  0  0  0  0  0  0  0
   16.6018  -15.4671   15.8191 O   0  0  0  0  0  0  0  0  0  0  0  0
   13.4946  -16.0721   21.3159 N   0  0  0  0  0  0  0  0  0  0  0  0
   13.6841  -15.9152   22.7670 C   0  0  1  0  0  0  0  0  0  0  0  0
   13.1135  -17.0890   23.4932 C   0  0  0  0  0  0  0  0  0  0  0  0
   12.1069  -16.6158   24.5042 C   0  0  0  0  0  0  0  0  0  0  0  0
   11.4959  -17.7419   25.2521 C   0  0  0  0  0  0  0  0  0  0  0  0
   10.6209  -18.4403   24.7224 O   0  0  0  0  0  0  0  0  0  0  0  0
   15.1083  -15.6681   23.0224 C   0  0  0  0  0  0  0  0  0  0  0  0
   15.9531  -15.9730   22.1285 O   0  0  0  0  0  0  0  0  0  0  0  0
   11.9153  -17.9929   26.5314 O   0  0  0  0  0  0  0  0  0  0  0  0
   15.5909  -15.1186   24.1787 O   0  0  0  0  0  0  0  0  0  0  0  0
  2  6  1  0
  2  1  1  6
  3  2  1  0
  4  3  1  0
  5  4  2  0
  6  7  2  0
  8  4  1  0
  9  6  1  0
 10  9  1  0
 10 11  1  6
 11 12  1  0
 13 17  1  0
 13 12  1  0
 14 13  2  0
 15 10  1  0
 16 15  2  0
 18 15  1  0
 19 20  1  1
 19 18  1  0
 20 21  1  0
 21 22  1  0
 22 26  1  0
 23 22  2  0
 24 19  1  0
 25 24  2  0
 27 24  1  0
M  END
$$$$
