DEE.pdb
     RDKit          3D

 27 26  0  0  1  0  0  0  0  0999 V2000
   13.4820  -14.5939   17.6868 N   0  0  0  0  0  0  0  0  0  0  0  0
   13.9648  -15.1405   18.9270 C   0  0  1  0  0  0  0  0  0  0  0  0
   14.9782  -14.1755   19.5094 C   0  0  0  0  0  0  0  0  0  0  0  0
   16.2171  -14.1577   18.6981 C   0  0  0  0  0  0  0  0  0  0  0  0
   16.9575  -15.1534   18.6817 O   0  0  0  0  0  0  0  0  0  0  0  0
   12.8584  -15.2818   19.9017 C   0  0  0  0  0  0  0  0  0  0  0  0
   11.9296  -14.4319   19.8915 O   0  0  0  0  0  0  0  0  0  0  0  0
   16.5311  -13.0295   17.9695 O   0  0  0  0  0  0  0  0  0  0  0  0
   12.8907  -16.3555   20.7953 N   0  0  0  0  0  0  0  0  0  0  0  0
   11.7383  -16.6010   21.6689 C   0  0  1  0  0  0  0  0  0  0  0  0
   11.1612  -17.9504   21.3608 C   0  0  0  0  0  0  0  0  0  0  0  0
    9.9938  -18.3517   22.2082 C   0  0  0  0  0  0  0  0  0  0  0  0
    9.4334  -19.6800   21.8826 C   0  0  0  0  0  0  0  0  0  0  0  0
    9.3325  -20.6488   22.6547 O   0  0  0  0  0  0  0  0  0  0  0  0
   12.1343  -16.4353   23.0963 C   0  0  0  0  0  0  0  0  0  0  0  0
   13.3028  -16.7568   23.4220 O   0  0  0  0  0  0  0  0  0  0  0  0
    8.9627  -19.8884   20.5760 O   0  0  0  0  0  0  0  0  0  0  0  0
   11.2556  -15.9370   24.0820 N   0  0  0  0  0  0  0  0  0  0  0  0
   11.6877  -15.9518   25.4890 C   0  0  1  0  0  0  0  0  0  0  0  0
   10.7966  -15.0816   26.3131 C   0  0  0  0  0  0  0  0  0  0  0  0
   11.2164  -15.1514   27.7547 C   0  0  0  0  0  0  0  0  0  0  0  0
   10.4111  -14.2499   28.6145 C   0  0  0  0  0  0  0  0  0  0  0  0
    9.4827  -13.5896   28.1284 O   0  0  0  0  0  0  0  0  0  0  0  0
   11.7640  -17.3486   25.9336 C   0  0  0  0  0  0  0  0  0  0  0  0
   10.9204  -18.1813   25.4855 O   0  0  0  0  0  0  0  0  0  0  0  0
   10.7117  -14.1622   29.9477 O   0  0  0  0  0  0  0  0  0  0  0  0
   12.7026  -17.8187   26.8110 O   0  0  0  0  0  0  0  0  0  0  0  0
  2  6  1  0
  2  1  1  6
  3  2  1  0
  4  3  1  0
  5  4  2  0
  6  7  2  0
  8  4  1  0
  9  6  1  0
 10  9  1  0
 10 11  1  1
 11 12  1  0
 13 17  1  0
 13 12  1  0
 14 13  2  0
 15 10  1  0
 16 15  2  0
 18 15  1  0
 19 20  1  1
 19 18  1  0
 20 21  1  0
 21 22  1  0
 22 26  1  0
 23 22  2  0
 24 19  1  0
 25 24  2  0
 27 24  1  0
M  END
$$$$
