DEE.pdb
     RDKit          3D

 27 26  0  0  1  0  0  0  0  0999 V2000
    9.4056  -20.0098   18.2954 N   0  0  0  0  0  0  0  0  0  0  0  0
    9.7115  -19.0271   19.3007 C   0  0  1  0  0  0  0  0  0  0  0  0
    8.4345  -18.6977   20.0478 C   0  0  0  0  0  0  0  0  0  0  0  0
    7.4592  -18.0284   19.1566 C   0  0  0  0  0  0  0  0  0  0  0  0
    7.7703  -17.7746   17.9823 O   0  0  0  0  0  0  0  0  0  0  0  0
   10.6850  -19.5657   20.2787 C   0  0  0  0  0  0  0  0  0  0  0  0
   10.5542  -20.7545   20.6722 O   0  0  0  0  0  0  0  0  0  0  0  0
    6.2139  -17.6954   19.6471 O   0  0  0  0  0  0  0  0  0  0  0  0
   11.7116  -18.7301   20.7262 N   0  0  0  0  0  0  0  0  0  0  0  0
   12.7260  -19.2618   21.6424 C   0  0  1  0  0  0  0  0  0  0  0  0
   14.0589  -18.6607   21.3093 C   0  0  0  0  0  0  0  0  0  0  0  0
   14.7499  -19.2618   20.1247 C   0  0  0  0  0  0  0  0  0  0  0  0
   16.2243  -19.2818   20.2255 C   0  0  0  0  0  0  0  0  0  0  0  0
   16.9722  -18.2931   20.3150 O   0  0  0  0  0  0  0  0  0  0  0  0
   12.3080  -19.0356   23.0551 C   0  0  0  0  0  0  0  0  0  0  0  0
   12.0705  -17.8571   23.4151 O   0  0  0  0  0  0  0  0  0  0  0  0
   16.8628  -20.5326   20.2215 O   0  0  0  0  0  0  0  0  0  0  0  0
   12.1712  -20.0837   23.9906 N   0  0  0  0  0  0  0  0  0  0  0  0
   11.7756  -19.7551   25.3697 C   0  0  1  0  0  0  0  0  0  0  0  0
   11.2245  -20.9640   26.0519 C   0  0  0  0  0  0  0  0  0  0  0  0
   10.8885  -20.6289   27.4781 C   0  0  0  0  0  0  0  0  0  0  0  0
   10.4852  -21.8281   28.2527 C   0  0  0  0  0  0  0  0  0  0  0  0
   10.4098  -22.9327   27.6974 O   0  0  0  0  0  0  0  0  0  0  0  0
   12.9241  -19.1389   26.0449 C   0  0  0  0  0  0  0  0  0  0  0  0
   14.0890  -19.3617   25.5987 O   0  0  0  0  0  0  0  0  0  0  0  0
   10.1995  -21.6915   29.5850 O   0  0  0  0  0  0  0  0  0  0  0  0
   12.8177  -18.3246   27.1392 O   0  0  0  0  0  0  0  0  0  0  0  0
  2  6  1  0
  2  1  1  6
  3  2  1  0
  4  3  1  0
  5  4  2  0
  6  7  2  0
  8  4  1  0
  9  6  1  0
 10  9  1  0
 10 11  1  6
 11 12  1  0
 13 17  1  0
 13 12  1  0
 14 13  2  0
 15 10  1  0
 16 15  2  0
 18 15  1  0
 19 20  1  1
 19 18  1  0
 20 21  1  0
 21 22  1  0
 22 26  1  0
 23 22  2  0
 24 19  1  0
 25 24  2  0
 27 24  1  0
M  END
$$$$
