DEE.pdb
     RDKit          3D

 27 26  0  0  1  0  0  0  0  0999 V2000
   -2.3696  -25.0010   27.2283 N   0  0  0  0  0  0  0  0  0  0  0  0
   -2.4371  -25.7524   28.4533 C   0  0  1  0  0  0  0  0  0  0  0  0
   -1.0697  -25.7205   29.1067 C   0  0  0  0  0  0  0  0  0  0  0  0
   -0.0730  -26.4397   28.2805 C   0  0  0  0  0  0  0  0  0  0  0  0
   -0.4480  -27.3161   27.4860 O   0  0  0  0  0  0  0  0  0  0  0  0
   -3.4042  -25.1369   29.3914 C   0  0  0  0  0  0  0  0  0  0  0  0
   -3.3353  -25.4323   30.6133 O   0  0  0  0  0  0  0  0  0  0  0  0
    1.2635  -26.1233   28.4069 O   0  0  0  0  0  0  0  0  0  0  0  0
   -4.3564  -24.2510   28.8806 N   0  0  0  0  0  0  0  0  0  0  0  0
   -5.3295  -23.6360   29.7895 C   0  0  1  0  0  0  0  0  0  0  0  0
   -5.7788  -22.3233   29.2204 C   0  0  0  0  0  0  0  0  0  0  0  0
   -6.7762  -21.5774   30.0515 C   0  0  0  0  0  0  0  0  0  0  0  0
   -8.1735  -22.0245   29.8724 C   0  0  0  0  0  0  0  0  0  0  0  0
   -8.7427  -22.2554   28.7918 O   0  0  0  0  0  0  0  0  0  0  0  0
   -6.4492  -24.5829   30.0565 C   0  0  0  0  0  0  0  0  0  0  0  0
   -6.9787  -25.1571   29.0744 O   0  0  0  0  0  0  0  0  0  0  0  0
   -8.9523  -22.2130   31.0257 O   0  0  0  0  0  0  0  0  0  0  0  0
   -6.9296  -24.8540   31.3557 N   0  0  0  0  0  0  0  0  0  0  0  0
   -8.0680  -25.7738   31.5123 C   0  0  1  0  0  0  0  0  0  0  0  0
   -7.5819  -27.1781   31.6616 C   0  0  0  0  0  0  0  0  0  0  0  0
   -6.9388  -27.3485   33.0094 C   0  0  0  0  0  0  0  0  0  0  0  0
   -5.9843  -28.4839   33.0325 C   0  0  0  0  0  0  0  0  0  0  0  0
   -5.8028  -29.1666   32.0151 O   0  0  0  0  0  0  0  0  0  0  0  0
   -8.9018  -25.2916   32.6200 C   0  0  0  0  0  0  0  0  0  0  0  0
   -8.4544  -24.3726   33.3689 O   0  0  0  0  0  0  0  0  0  0  0  0
   -5.3120  -28.7612   34.1929 O   0  0  0  0  0  0  0  0  0  0  0  0
  -10.1512  -25.7743   32.8993 O   0  0  0  0  0  0  0  0  0  0  0  0
  2  6  1  0
  2  1  1  6
  3  2  1  0
  4  3  1  0
  5  4  2  0
  6  7  2  0
  8  4  1  0
  9  6  1  0
 10  9  1  0
 10 11  1  6
 11 12  1  0
 13 17  1  0
 13 12  1  0
 14 13  2  0
 15 10  1  0
 16 15  2  0
 18 15  1  0
 19 20  1  1
 19 18  1  0
 20 21  1  0
 21 22  1  0
 22 26  1  0
 23 22  2  0
 24 19  1  0
 25 24  2  0
 27 24  1  0
M  END
$$$$
