DEE.pdb
     RDKit          3D

 27 26  0  0  1  0  0  0  0  0999 V2000
   12.5718  -16.3676   19.2369 N   0  0  0  0  0  0  0  0  0  0  0  0
   13.2294  -16.1809   20.5028 C   0  0  1  0  0  0  0  0  0  0  0  0
   13.5867  -14.7144   20.6414 C   0  0  0  0  0  0  0  0  0  0  0  0
   14.6718  -14.3445   19.7038 C   0  0  0  0  0  0  0  0  0  0  0  0
   14.6641  -13.2284   19.1615 O   0  0  0  0  0  0  0  0  0  0  0  0
   12.3236  -16.5362   21.6197 C   0  0  0  0  0  0  0  0  0  0  0  0
   11.5022  -15.6753   22.0312 O   0  0  0  0  0  0  0  0  0  0  0  0
   15.6796  -15.2503   19.4462 O   0  0  0  0  0  0  0  0  0  0  0  0
   12.4179  -17.8159   22.1728 N   0  0  0  0  0  0  0  0  0  0  0  0
   11.4052  -18.2612   23.1359 C   0  0  1  0  0  0  0  0  0  0  0  0
   11.2641  -19.7519   23.0534 C   0  0  0  0  0  0  0  0  0  0  0  0
   10.2493  -20.3473   23.9794 C   0  0  0  0  0  0  0  0  0  0  0  0
   10.2014  -21.8244   23.9616 C   0  0  0  0  0  0  0  0  0  0  0  0
   10.3810  -22.5575   22.9741 O   0  0  0  0  0  0  0  0  0  0  0  0
   11.7476  -17.7710   24.5012 C   0  0  0  0  0  0  0  0  0  0  0  0
   12.9288  -17.4045   24.7139 O   0  0  0  0  0  0  0  0  0  0  0  0
    9.9273  -22.4841   25.1706 O   0  0  0  0  0  0  0  0  0  0  0  0
   10.8051  -17.7045   25.5498 N   0  0  0  0  0  0  0  0  0  0  0  0
   11.2274  -17.1541   26.8480 C   0  0  1  0  0  0  0  0  0  0  0  0
   10.5287  -15.8612   27.1138 C   0  0  0  0  0  0  0  0  0  0  0  0
   10.8757  -15.3748   28.4930 C   0  0  0  0  0  0  0  0  0  0  0  0
   10.1172  -14.1542   28.8613 C   0  0  0  0  0  0  0  0  0  0  0  0
    8.9277  -14.0376   28.5363 O   0  0  0  0  0  0  0  0  0  0  0  0
   11.0245  -18.1841   27.8739 C   0  0  0  0  0  0  0  0  0  0  0  0
   10.1900  -19.1120   27.6540 O   0  0  0  0  0  0  0  0  0  0  0  0
   10.7532  -13.1651   29.5631 O   0  0  0  0  0  0  0  0  0  0  0  0
   11.6897  -18.2105   29.0692 O   0  0  0  0  0  0  0  0  0  0  0  0
  2  6  1  0
  2  1  1  6
  3  2  1  0
  4  3  1  0
  5  4  2  0
  6  7  2  0
  8  4  1  0
  9  6  1  0
 10  9  1  0
 10 11  1  1
 11 12  1  0
 13 17  1  0
 13 12  1  0
 14 13  2  0
 15 10  1  0
 16 15  2  0
 18 15  1  0
 19 20  1  1
 19 18  1  0
 20 21  1  0
 21 22  1  0
 22 26  1  0
 23 22  2  0
 24 19  1  0
 25 24  2  0
 27 24  1  0
M  END
$$$$
