DEE.pdb
     RDKit          3D

 27 26  0  0  1  0  0  0  0  0999 V2000
   13.1941  -15.0415   18.3423 N   0  0  0  0  0  0  0  0  0  0  0  0
   13.9953  -15.2052   19.5260 C   0  0  1  0  0  0  0  0  0  0  0  0
   14.8870  -13.9878   19.6687 C   0  0  0  0  0  0  0  0  0  0  0  0
   15.8744  -13.9247   18.5667 C   0  0  0  0  0  0  0  0  0  0  0  0
   16.6538  -14.8725   18.3823 O   0  0  0  0  0  0  0  0  0  0  0  0
   13.1374  -15.2847   20.7309 C   0  0  0  0  0  0  0  0  0  0  0  0
   12.1421  -14.5184   20.8179 O   0  0  0  0  0  0  0  0  0  0  0  0
   15.9133  -12.8081   17.7580 O   0  0  0  0  0  0  0  0  0  0  0  0
   13.4684  -16.2094   21.7248 N   0  0  0  0  0  0  0  0  0  0  0  0
   12.6046  -16.3415   22.9029 C   0  0  1  0  0  0  0  0  0  0  0  0
   11.7194  -17.5405   22.7367 C   0  0  0  0  0  0  0  0  0  0  0  0
   10.9391  -17.9290   23.9541 C   0  0  0  0  0  0  0  0  0  0  0  0
   10.1606  -19.1765   23.8057 C   0  0  0  0  0  0  0  0  0  0  0  0
    9.5563  -19.7820   24.7074 O   0  0  0  0  0  0  0  0  0  0  0  0
   13.4323  -16.3804   24.1419 C   0  0  0  0  0  0  0  0  0  0  0  0
   14.0164  -17.4547   24.4237 O   0  0  0  0  0  0  0  0  0  0  0  0
   10.0838  -19.7507   22.5264 O   0  0  0  0  0  0  0  0  0  0  0  0
   13.5813  -15.2686   24.9986 N   0  0  0  0  0  0  0  0  0  0  0  0
   13.1239  -15.3825   26.3929 C   0  0  1  0  0  0  0  0  0  0  0  0
   11.7460  -14.8234   26.5328 C   0  0  0  0  0  0  0  0  0  0  0  0
   11.3130  -14.9030   27.9699 C   0  0  0  0  0  0  0  0  0  0  0  0
    9.9551  -14.3420   28.1752 C   0  0  0  0  0  0  0  0  0  0  0  0
    9.0474  -14.5964   27.3718 O   0  0  0  0  0  0  0  0  0  0  0  0
   13.2640  -16.7823   26.8117 C   0  0  0  0  0  0  0  0  0  0  0  0
   12.6056  -17.6744   26.1982 O   0  0  0  0  0  0  0  0  0  0  0  0
    9.7258  -13.5425   29.2631 O   0  0  0  0  0  0  0  0  0  0  0  0
   14.0740  -17.1942   27.8346 O   0  0  0  0  0  0  0  0  0  0  0  0
  2  6  1  0
  2  1  1  6
  3  2  1  0
  4  3  1  0
  5  4  2  0
  6  7  2  0
  8  4  1  0
  9  6  1  0
 10  9  1  0
 10 11  1  6
 11 12  1  0
 13 17  1  0
 13 12  1  0
 14 13  2  0
 15 10  1  0
 16 15  2  0
 18 15  1  0
 19 20  1  6
 19 18  1  0
 20 21  1  0
 21 22  1  0
 22 26  1  0
 23 22  2  0
 24 19  1  0
 25 24  2  0
 27 24  1  0
M  END
$$$$
