DEE.pdb
     RDKit          3D

 27 26  0  0  1  0  0  0  0  0999 V2000
   14.5901  -15.6920   16.8590 N   0  0  0  0  0  0  0  0  0  0  0  0
   14.9147  -14.9863   18.0700 C   0  0  1  0  0  0  0  0  0  0  0  0
   15.2821  -13.5614   17.7060 C   0  0  0  0  0  0  0  0  0  0  0  0
   16.4760  -13.5315   16.8301 C   0  0  0  0  0  0  0  0  0  0  0  0
   17.4949  -14.1607   17.1552 O   0  0  0  0  0  0  0  0  0  0  0  0
   13.7439  -14.9371   18.9761 C   0  0  0  0  0  0  0  0  0  0  0  0
   13.7819  -14.1706   19.9743 O   0  0  0  0  0  0  0  0  0  0  0  0
   16.4374  -12.8013   15.6606 O   0  0  0  0  0  0  0  0  0  0  0  0
   12.6420  -15.7455   18.6854 N   0  0  0  0  0  0  0  0  0  0  0  0
   11.5008  -15.7669   19.6066 C   0  0  1  0  0  0  0  0  0  0  0  0
   10.3013  -16.3211   18.8972 C   0  0  0  0  0  0  0  0  0  0  0  0
    9.9156  -15.6015   17.6422 C   0  0  0  0  0  0  0  0  0  0  0  0
    8.8850  -16.2907   16.8375 C   0  0  0  0  0  0  0  0  0  0  0  0
    8.0717  -17.1368   17.2469 O   0  0  0  0  0  0  0  0  0  0  0  0
   11.8575  -16.5152   20.8453 C   0  0  0  0  0  0  0  0  0  0  0  0
   12.2351  -17.7057   20.7233 O   0  0  0  0  0  0  0  0  0  0  0  0
    8.8002  -15.9719   15.4725 O   0  0  0  0  0  0  0  0  0  0  0  0
   11.7873  -15.9421   22.1334 N   0  0  0  0  0  0  0  0  0  0  0  0
   12.0690  -16.7907   23.3025 C   0  0  1  0  0  0  0  0  0  0  0  0
   13.5430  -16.9475   23.4849 C   0  0  0  0  0  0  0  0  0  0  0  0
   14.2345  -15.6604   23.1321 C   0  0  0  0  0  0  0  0  0  0  0  0
   15.7112  -15.7826   23.2044 C   0  0  0  0  0  0  0  0  0  0  0  0
   16.2318  -16.8463   23.5673 O   0  0  0  0  0  0  0  0  0  0  0  0
   11.3631  -16.2296   24.4608 C   0  0  0  0  0  0  0  0  0  0  0  0
   11.4807  -16.8008   25.5858 O   0  0  0  0  0  0  0  0  0  0  0  0
   16.4830  -14.7037   22.8644 O   0  0  0  0  0  0  0  0  0  0  0  0
   10.5771  -15.1111   24.4055 O   0  0  0  0  0  0  0  0  0  0  0  0
  2  6  1  0
  2  1  1  6
  3  2  1  0
  4  3  1  0
  5  4  2  0
  6  7  2  0
  8  4  1  0
  9  6  1  0
 10  9  1  0
 10 11  1  6
 11 12  1  0
 13 17  1  0
 13 12  1  0
 14 13  2  0
 15 10  1  0
 16 15  2  0
 18 15  1  0
 19 20  1  1
 19 18  1  0
 20 21  1  0
 21 22  1  0
 22 26  1  0
 23 22  2  0
 24 19  1  0
 25 24  2  0
 27 24  1  0
M  END
$$$$
