DEE.pdb
     RDKit          3D

 27 26  0  0  1  0  0  0  0  0999 V2000
    8.1948  -19.5247   18.4937 N   0  0  0  0  0  0  0  0  0  0  0  0
    8.3052  -18.5441   19.5407 C   0  0  1  0  0  0  0  0  0  0  0  0
    7.4346  -18.9863   20.7000 C   0  0  0  0  0  0  0  0  0  0  0  0
    6.0202  -19.1137   20.2796 C   0  0  0  0  0  0  0  0  0  0  0  0
    5.5317  -20.2390   20.0928 O   0  0  0  0  0  0  0  0  0  0  0  0
    9.7011  -18.4547   20.0280 C   0  0  0  0  0  0  0  0  0  0  0  0
   10.1542  -19.3866   20.7432 O   0  0  0  0  0  0  0  0  0  0  0  0
    5.2635  -17.9745   20.1009 O   0  0  0  0  0  0  0  0  0  0  0  0
   10.4605  -17.3368   19.6730 N   0  0  0  0  0  0  0  0  0  0  0  0
   11.8740  -17.2734   20.0595 C   0  0  1  0  0  0  0  0  0  0  0  0
   12.6231  -16.4383   19.0643 C   0  0  0  0  0  0  0  0  0  0  0  0
   14.0770  -16.2426   19.3640 C   0  0  0  0  0  0  0  0  0  0  0  0
   14.7974  -15.4176   18.3716 C   0  0  0  0  0  0  0  0  0  0  0  0
   15.4771  -15.8346   17.4181 O   0  0  0  0  0  0  0  0  0  0  0  0
   11.9993  -16.7831   21.4614 C   0  0  0  0  0  0  0  0  0  0  0  0
   11.4748  -15.6791   21.7459 O   0  0  0  0  0  0  0  0  0  0  0  0
   14.7186  -14.0216   18.5014 O   0  0  0  0  0  0  0  0  0  0  0  0
   12.6770  -17.5047   22.4675 N   0  0  0  0  0  0  0  0  0  0  0  0
   12.7608  -16.9274   23.8189 C   0  0  1  0  0  0  0  0  0  0  0  0
   12.8167  -18.0132   24.8428 C   0  0  0  0  0  0  0  0  0  0  0  0
   11.4677  -18.6655   24.9603 C   0  0  0  0  0  0  0  0  0  0  0  0
   11.4872  -19.8245   25.8861 C   0  0  0  0  0  0  0  0  0  0  0  0
   11.0574  -19.7067   27.0418 O   0  0  0  0  0  0  0  0  0  0  0  0
   13.8924  -15.9930   23.8522 C   0  0  0  0  0  0  0  0  0  0  0  0
   14.7559  -16.0430   22.9261 O   0  0  0  0  0  0  0  0  0  0  0  0
   11.9865  -21.0197   25.4415 O   0  0  0  0  0  0  0  0  0  0  0  0
   14.0772  -15.0548   24.8308 O   0  0  0  0  0  0  0  0  0  0  0  0
  2  6  1  0
  2  1  1  6
  3  2  1  0
  4  3  1  0
  5  4  2  0
  6  7  2  0
  8  4  1  0
  9  6  1  0
 10  9  1  0
 10 11  1  6
 11 12  1  0
 13 17  1  0
 13 12  1  0
 14 13  2  0
 15 10  1  0
 16 15  2  0
 18 15  1  0
 19 20  1  1
 19 18  1  0
 20 21  1  0
 21 22  1  0
 22 26  1  0
 23 22  2  0
 24 19  1  0
 25 24  2  0
 27 24  1  0
M  END
$$$$
