DEE.pdb
     RDKit          3D

 27 26  0  0  1  0  0  0  0  0999 V2000
    7.6483  -16.7386   19.3831 N   0  0  0  0  0  0  0  0  0  0  0  0
    8.5675  -15.8592   20.0551 C   0  0  1  0  0  0  0  0  0  0  0  0
    7.9591  -14.4713   20.0890 C   0  0  0  0  0  0  0  0  0  0  0  0
    7.8318  -13.9171   18.7215 C   0  0  0  0  0  0  0  0  0  0  0  0
    8.1732  -14.6020   17.7446 O   0  0  0  0  0  0  0  0  0  0  0  0
    8.7815  -16.2967   21.4540 C   0  0  0  0  0  0  0  0  0  0  0  0
    7.7843  -16.6448   22.1393 O   0  0  0  0  0  0  0  0  0  0  0  0
    7.3334  -12.6421   18.5532 O   0  0  0  0  0  0  0  0  0  0  0  0
   10.0848  -16.3053   21.9575 N   0  0  0  0  0  0  0  0  0  0  0  0
   10.3694  -17.0156   23.2088 C   0  0  1  0  0  0  0  0  0  0  0  0
   11.4784  -17.9988   22.9797 C   0  0  0  0  0  0  0  0  0  0  0  0
   12.8337  -17.5444   23.4254 C   0  0  0  0  0  0  0  0  0  0  0  0
   13.9301  -18.4755   23.0856 C   0  0  0  0  0  0  0  0  0  0  0  0
   14.8365  -18.2790   22.2581 O   0  0  0  0  0  0  0  0  0  0  0  0
   10.6561  -16.0388   24.2975 C   0  0  0  0  0  0  0  0  0  0  0  0
   11.1996  -14.9524   23.9828 O   0  0  0  0  0  0  0  0  0  0  0  0
   13.9693  -19.7104   23.7531 O   0  0  0  0  0  0  0  0  0  0  0  0
   10.3431  -16.2870   25.6513 N   0  0  0  0  0  0  0  0  0  0  0  0
    9.9787  -15.1514   26.5138 C   0  0  1  0  0  0  0  0  0  0  0  0
    8.7562  -14.4736   25.9878 C   0  0  0  0  0  0  0  0  0  0  0  0
    8.3875  -13.3283   26.8887 C   0  0  0  0  0  0  0  0  0  0  0  0
    7.1966  -12.5929   26.3971 C   0  0  0  0  0  0  0  0  0  0  0  0
    6.5752  -13.0031   25.4072 O   0  0  0  0  0  0  0  0  0  0  0  0
    9.8652  -15.6379   27.8940 C   0  0  0  0  0  0  0  0  0  0  0  0
    9.5823  -16.8571   28.0927 O   0  0  0  0  0  0  0  0  0  0  0  0
    6.7998  -11.4589   27.0544 O   0  0  0  0  0  0  0  0  0  0  0  0
   10.0510  -14.8503   28.9972 O   0  0  0  0  0  0  0  0  0  0  0  0
  2  6  1  0
  2  1  1  1
  3  2  1  0
  4  3  1  0
  5  4  2  0
  6  7  2  0
  8  4  1  0
  9  6  1  0
 10  9  1  0
 10 11  1  6
 11 12  1  0
 13 17  1  0
 13 12  1  0
 14 13  2  0
 15 10  1  0
 16 15  2  0
 18 15  1  0
 19 20  1  6
 19 18  1  0
 20 21  1  0
 21 22  1  0
 22 26  1  0
 23 22  2  0
 24 19  1  0
 25 24  2  0
 27 24  1  0
M  END
$$$$
