DEE.pdb
     RDKit          3D

 27 26  0  0  1  0  0  0  0  0999 V2000
   11.3095  -21.1548   15.6327 N   0  0  0  0  0  0  0  0  0  0  0  0
   12.0789  -19.9487   15.7856 C   0  0  1  0  0  0  0  0  0  0  0  0
   11.1770  -18.8803   16.3709 C   0  0  0  0  0  0  0  0  0  0  0  0
   10.3824  -19.4198   17.4983 C   0  0  0  0  0  0  0  0  0  0  0  0
   10.5884  -20.5757   17.9001 O   0  0  0  0  0  0  0  0  0  0  0  0
   13.2026  -20.1614   16.7270 C   0  0  0  0  0  0  0  0  0  0  0  0
   13.1301  -21.1088   17.5530 O   0  0  0  0  0  0  0  0  0  0  0  0
    9.4208  -18.6259   18.0877 O   0  0  0  0  0  0  0  0  0  0  0  0
   14.3005  -19.2997   16.6598 N   0  0  0  0  0  0  0  0  0  0  0  0
   15.4676  -19.5514   17.5117 C   0  0  1  0  0  0  0  0  0  0  0  0
   16.6719  -18.8900   16.9109 C   0  0  0  0  0  0  0  0  0  0  0  0
   17.9601  -19.1370   17.6330 C   0  0  0  0  0  0  0  0  0  0  0  0
   19.1332  -18.4695   17.0306 C   0  0  0  0  0  0  0  0  0  0  0  0
   19.5510  -17.3291   17.2950 O   0  0  0  0  0  0  0  0  0  0  0  0
   15.1845  -19.1155   18.9087 C   0  0  0  0  0  0  0  0  0  0  0  0
   14.8194  -17.9287   19.0903 O   0  0  0  0  0  0  0  0  0  0  0  0
   19.8617  -19.1775   16.0610 O   0  0  0  0  0  0  0  0  0  0  0  0
   15.3102  -19.9765   20.0201 N   0  0  0  0  0  0  0  0  0  0  0  0
   14.9117  -19.4820   21.3478 C   0  0  1  0  0  0  0  0  0  0  0  0
   13.7784  -20.2938   21.8837 C   0  0  0  0  0  0  0  0  0  0  0  0
   14.2034  -21.7299   22.0122 C   0  0  0  0  0  0  0  0  0  0  0  0
   13.0892  -22.6039   22.4543 C   0  0  0  0  0  0  0  0  0  0  0  0
   12.8668  -23.6737   21.8711 O   0  0  0  0  0  0  0  0  0  0  0  0
   16.1030  -19.4496   22.2048 C   0  0  0  0  0  0  0  0  0  0  0  0
   16.0027  -18.9762   23.3760 O   0  0  0  0  0  0  0  0  0  0  0  0
   12.3161  -22.2078   23.5130 O   0  0  0  0  0  0  0  0  0  0  0  0
   17.3328  -19.9072   21.8176 O   0  0  0  0  0  0  0  0  0  0  0  0
  2  6  1  0
  2  1  1  1
  3  2  1  0
  4  3  1  0
  5  4  2  0
  6  7  2  0
  8  4  1  0
  9  6  1  0
 10  9  1  0
 10 11  1  6
 11 12  1  0
 13 17  1  0
 13 12  1  0
 14 13  2  0
 15 10  1  0
 16 15  2  0
 18 15  1  0
 19 20  1  1
 19 18  1  0
 20 21  1  0
 21 22  1  0
 22 26  1  0
 23 22  2  0
 24 19  1  0
 25 24  2  0
 27 24  1  0
M  END
$$$$
