DEE.pdb
     RDKit          3D

 27 26  0  0  1  0  0  0  0  0999 V2000
   13.1517  -13.6956   17.6088 N   0  0  0  0  0  0  0  0  0  0  0  0
   13.5195  -14.9528   18.2040 C   0  0  1  0  0  0  0  0  0  0  0  0
   14.8328  -15.4013   17.5945 C   0  0  0  0  0  0  0  0  0  0  0  0
   14.6836  -15.6478   16.1418 C   0  0  0  0  0  0  0  0  0  0  0  0
   15.5991  -16.2018   15.5133 O   0  0  0  0  0  0  0  0  0  0  0  0
   13.7235  -14.8004   19.6632 C   0  0  0  0  0  0  0  0  0  0  0  0
   14.4126  -13.8331   20.0811 O   0  0  0  0  0  0  0  0  0  0  0  0
   13.5240  -15.2562   15.5059 O   0  0  0  0  0  0  0  0  0  0  0  0
   13.1413  -15.7390   20.5190 N   0  0  0  0  0  0  0  0  0  0  0  0
   13.2366  -15.5480   21.9702 C   0  0  1  0  0  0  0  0  0  0  0  0
   12.0200  -16.1282   22.6276 C   0  0  0  0  0  0  0  0  0  0  0  0
   12.0349  -16.1076   24.1247 C   0  0  0  0  0  0  0  0  0  0  0  0
   10.7988  -16.6197   24.7528 C   0  0  0  0  0  0  0  0  0  0  0  0
   10.2975  -17.7449   24.5872 O   0  0  0  0  0  0  0  0  0  0  0  0
   14.5164  -16.1189   22.4780 C   0  0  0  0  0  0  0  0  0  0  0  0
   14.8897  -17.2245   22.0165 O   0  0  0  0  0  0  0  0  0  0  0  0
   10.1074  -15.7652   25.6268 O   0  0  0  0  0  0  0  0  0  0  0  0
   15.3135  -15.4706   23.4459 N   0  0  0  0  0  0  0  0  0  0  0  0
   16.5409  -16.1351   23.9130 C   0  0  1  0  0  0  0  0  0  0  0  0
   17.6545  -15.1461   24.0241 C   0  0  0  0  0  0  0  0  0  0  0  0
   18.8973  -15.8384   24.5092 C   0  0  0  0  0  0  0  0  0  0  0  0
   19.9947  -14.8812   24.7922 C   0  0  0  0  0  0  0  0  0  0  0  0
   20.3199  -14.0374   23.9457 O   0  0  0  0  0  0  0  0  0  0  0  0
   16.2323  -16.8544   25.1548 C   0  0  0  0  0  0  0  0  0  0  0  0
   16.7988  -17.9662   25.3759 O   0  0  0  0  0  0  0  0  0  0  0  0
   20.6374  -14.9477   25.9997 O   0  0  0  0  0  0  0  0  0  0  0  0
   15.3624  -16.3948   26.1055 O   0  0  0  0  0  0  0  0  0  0  0  0
  2  6  1  0
  2  1  1  6
  3  2  1  0
  4  3  1  0
  5  4  2  0
  6  7  2  0
  8  4  1  0
  9  6  1  0
 10  9  1  0
 10 11  1  1
 11 12  1  0
 13 17  1  0
 13 12  1  0
 14 13  2  0
 15 10  1  0
 16 15  2  0
 18 15  1  0
 19 20  1  1
 19 18  1  0
 20 21  1  0
 21 22  1  0
 22 26  1  0
 23 22  2  0
 24 19  1  0
 25 24  2  0
 27 24  1  0
M  END
$$$$
