DEE.pdb
     RDKit          3D

 27 26  0  0  1  0  0  0  0  0999 V2000
   14.6366  -16.8848   15.7819 N   0  0  0  0  0  0  0  0  0  0  0  0
   14.7726  -17.8758   16.8161 C   0  0  1  0  0  0  0  0  0  0  0  0
   16.1877  -18.4174   16.7725 C   0  0  0  0  0  0  0  0  0  0  0  0
   16.4213  -19.1841   15.5271 C   0  0  0  0  0  0  0  0  0  0  0  0
   17.3745  -18.8872   14.7901 O   0  0  0  0  0  0  0  0  0  0  0  0
   14.5577  -17.2709   18.1510 C   0  0  0  0  0  0  0  0  0  0  0  0
   15.2895  -16.3097   18.5057 O   0  0  0  0  0  0  0  0  0  0  0  0
   15.5720  -20.2215   15.2033 O   0  0  0  0  0  0  0  0  0  0  0  0
   13.5489  -17.7931   18.9646 N   0  0  0  0  0  0  0  0  0  0  0  0
   13.2289  -17.1284   20.2323 C   0  0  1  0  0  0  0  0  0  0  0  0
   11.7978  -17.4013   20.5878 C   0  0  0  0  0  0  0  0  0  0  0  0
   11.3617  -16.8754   21.9202 C   0  0  0  0  0  0  0  0  0  0  0  0
    9.9401  -17.1257   22.2377 C   0  0  0  0  0  0  0  0  0  0  0  0
    9.1510  -17.8321   21.5872 O   0  0  0  0  0  0  0  0  0  0  0  0
   14.1943  -17.5480   21.2876 C   0  0  0  0  0  0  0  0  0  0  0  0
   14.4225  -18.7749   21.4195 O   0  0  0  0  0  0  0  0  0  0  0  0
    9.4089  -16.5134   23.3845 O   0  0  0  0  0  0  0  0  0  0  0  0
   14.8525  -16.6289   22.1328 N   0  0  0  0  0  0  0  0  0  0  0  0
   15.7145  -17.1467   23.2075 C   0  0  1  0  0  0  0  0  0  0  0  0
   17.0719  -16.5291   23.1249 C   0  0  0  0  0  0  0  0  0  0  0  0
   17.0810  -15.4728   22.0556 C   0  0  0  0  0  0  0  0  0  0  0  0
   18.4299  -14.8864   21.8624 C   0  0  0  0  0  0  0  0  0  0  0  0
   19.0776  -14.4781   22.8361 O   0  0  0  0  0  0  0  0  0  0  0  0
   15.0258  -16.9468   24.4882 C   0  0  0  0  0  0  0  0  0  0  0  0
   13.9118  -16.3429   24.4973 O   0  0  0  0  0  0  0  0  0  0  0  0
   18.9423  -14.8056   20.5950 O   0  0  0  0  0  0  0  0  0  0  0  0
   15.5135  -17.3793   25.6912 O   0  0  0  0  0  0  0  0  0  0  0  0
  2  6  1  0
  2  1  1  6
  3  2  1  0
  4  3  1  0
  5  4  2  0
  6  7  2  0
  8  4  1  0
  9  6  1  0
 10  9  1  0
 10 11  1  1
 11 12  1  0
 13 17  1  0
 13 12  1  0
 14 13  2  0
 15 10  1  0
 16 15  2  0
 18 15  1  0
 19 20  1  1
 19 18  1  0
 20 21  1  0
 21 22  1  0
 22 26  1  0
 23 22  2  0
 24 19  1  0
 25 24  2  0
 27 24  1  0
M  END
$$$$
