MNA.pdb
     RDKit          3D

 22 21  0  0  1  0  0  0  0  0999 V2000
   30.3937  -22.0242   -8.6309 C   0  0  0  0  0  0  0  0  0  0  0  0
   31.3362  -21.9854  -10.1541 S   0  0  0  0  0  0  0  0  0  0  0  0
   30.3951  -21.0877  -11.4277 C   0  0  0  0  0  0  0  0  0  0  0  0
   28.9403  -21.4685  -11.3941 C   0  0  0  0  0  0  0  0  0  0  0  0
   28.1265  -20.8424  -12.4794 C   0  0  2  0  0  0  0  0  0  0  0  0
   28.2867  -19.3759  -12.4353 N   0  0  0  0  0  0  0  0  0  0  0  0
   26.6983  -21.2068  -12.4960 C   0  0  0  0  0  0  0  0  0  0  0  0
   26.3152  -22.3916  -12.7289 O   0  0  0  0  0  0  0  0  0  0  0  0
   21.6758  -21.3777  -11.9977 N   0  0  0  0  0  0  0  0  0  0  0  0
   22.1483  -20.3642  -11.1245 C   0  0  0  0  0  0  0  0  0  0  0  0
   21.3427  -19.8362  -10.2816 O   0  0  0  0  0  0  0  0  0  0  0  0
   23.5633  -19.9315  -11.2027 C   0  0  0  0  0  0  0  0  0  0  0  0
   24.2570  -20.6527  -12.3277 C   0  0  2  0  0  0  0  0  0  0  0  0
   25.6517  -20.2873  -12.2585 N   0  0  0  0  0  0  0  0  0  0  0  0
   23.6749  -20.3528  -13.6484 C   0  0  0  0  0  0  0  0  0  0  0  0
   23.7780  -19.1929  -14.1057 O   0  0  0  0  0  0  0  0  0  0  0  0
   22.8724  -22.0790  -16.7489 C   0  0  0  0  0  0  0  0  0  0  0  0
   22.5706  -20.9937  -15.7415 C   0  0  2  0  0  0  0  0  0  0  0  0
   23.0020  -21.3292  -14.4215 N   0  0  0  0  0  0  0  0  0  0  0  0
   21.1235  -20.6537  -15.7188 C   0  0  0  0  0  0  0  0  0  0  0  0
   20.2381  -21.2736  -14.8513 O   0  0  0  0  0  0  0  0  0  0  0  0
   20.6681  -19.7856  -16.4996 O   0  0  0  0  0  0  0  0  0  0  0  0
  2  1  1  0
  3  2  1  0
  4  5  1  0
  4  3  1  0
  5  7  1  0
  5  6  1  1
  7  8  2  0
  9 10  1  0
 10 11  2  0
 12 10  1  0
 13 12  1  1
 14 13  1  0
 14  7  1  0
 15 16  2  0
 15 13  1  0
 18 17  1  6
 18 19  1  0
 18 20  1  0
 19 15  1  0
 20 21  1  0
 22 20  2  0
M  END
$$$$
