MNA.pdb
     RDKit          3D

 22 21  0  0  1  0  0  0  0  0999 V2000
   18.9913  -14.8893  -16.0293 C   0  0  0  0  0  0  0  0  0  0  0  0
   17.4193  -14.4391  -16.7614 S   0  0  0  0  0  0  0  0  0  0  0  0
   17.5921  -12.8569  -17.6450 C   0  0  0  0  0  0  0  0  0  0  0  0
   17.9665  -11.7480  -16.7003 C   0  0  0  0  0  0  0  0  0  0  0  0
   18.2808  -10.4553  -17.3802 C   0  0  2  0  0  0  0  0  0  0  0  0
   19.3099  -10.6771  -18.4146 N   0  0  0  0  0  0  0  0  0  0  0  0
   18.6710   -9.3461  -16.4913 C   0  0  0  0  0  0  0  0  0  0  0  0
   17.9506   -8.9920  -15.5113 O   0  0  0  0  0  0  0  0  0  0  0  0
   20.4851   -9.1594  -13.5452 N   0  0  0  0  0  0  0  0  0  0  0  0
   21.7090   -8.7349  -14.1237 C   0  0  0  0  0  0  0  0  0  0  0  0
   22.8145   -9.0981  -13.5906 O   0  0  0  0  0  0  0  0  0  0  0  0
   21.6892   -7.8778  -15.3322 C   0  0  0  0  0  0  0  0  0  0  0  0
   20.2666   -7.5707  -15.7180 C   0  0  2  0  0  0  0  0  0  0  0  0
   19.8578   -8.5951  -16.6492 N   0  0  0  0  0  0  0  0  0  0  0  0
   20.1027   -6.2185  -16.2814 C   0  0  0  0  0  0  0  0  0  0  0  0
   20.3653   -5.2281  -15.5637 O   0  0  0  0  0  0  0  0  0  0  0  0
   18.2684   -4.0281  -17.1733 C   0  0  0  0  0  0  0  0  0  0  0  0
   19.3449   -4.6657  -18.0209 C   0  0  2  0  0  0  0  0  0  0  0  0
   19.6584   -5.9966  -17.6071 N   0  0  0  0  0  0  0  0  0  0  0  0
   20.5855   -3.8466  -18.0390 C   0  0  0  0  0  0  0  0  0  0  0  0
   20.5883   -2.5295  -18.4699 O   0  0  0  0  0  0  0  0  0  0  0  0
   21.6727   -4.3417  -17.6600 O   0  0  0  0  0  0  0  0  0  0  0  0
  2  1  1  0
  3  2  1  0
  4  5  1  0
  4  3  1  0
  5  7  1  0
  5  6  1  6
  7  8  2  0
  9 10  1  0
 10 11  2  0
 12 10  1  0
 13 12  1  6
 14 13  1  0
 14  7  1  0
 15 16  2  0
 15 13  1  0
 18 17  1  1
 18 19  1  0
 18 20  1  0
 19 15  1  0
 20 21  1  0
 22 20  2  0
M  END
$$$$
