MNA.pdb
     RDKit          3D

 22 21  0  0  1  0  0  0  0  0999 V2000
   32.4382  -22.3371  -11.3881 C   0  0  0  0  0  0  0  0  0  0  0  0
   31.3949  -21.3770  -10.2928 S   0  0  0  0  0  0  0  0  0  0  0  0
   30.1678  -20.4578  -11.2741 C   0  0  0  0  0  0  0  0  0  0  0  0
   29.5874  -21.3214  -12.3603 C   0  0  0  0  0  0  0  0  0  0  0  0
   28.5644  -20.6291  -13.2009 C   0  0  2  0  0  0  0  0  0  0  0  0
   28.6745  -19.1693  -13.0129 N   0  0  0  0  0  0  0  0  0  0  0  0
   27.1724  -21.0727  -13.0050 C   0  0  0  0  0  0  0  0  0  0  0  0
   26.8112  -22.2622  -13.2487 O   0  0  0  0  0  0  0  0  0  0  0  0
   26.0050  -20.0039   -8.7991 N   0  0  0  0  0  0  0  0  0  0  0  0
   25.3759  -20.7999   -9.7908 C   0  0  0  0  0  0  0  0  0  0  0  0
   25.5596  -22.0666   -9.7886 O   0  0  0  0  0  0  0  0  0  0  0  0
   24.5195  -20.1543  -10.8132 C   0  0  0  0  0  0  0  0  0  0  0  0
   24.8317  -20.7204  -12.1730 C   0  0  2  0  0  0  0  0  0  0  0  0
   26.1391  -20.2293  -12.5378 N   0  0  0  0  0  0  0  0  0  0  0  0
   23.8148  -20.3804  -13.1846 C   0  0  0  0  0  0  0  0  0  0  0  0
   23.7432  -19.2019  -13.5981 O   0  0  0  0  0  0  0  0  0  0  0  0
   21.5523  -22.1321  -15.5820 C   0  0  0  0  0  0  0  0  0  0  0  0
   22.0267  -20.9559  -14.7603 C   0  0  2  0  0  0  0  0  0  0  0  0
   22.9136  -21.3386  -13.7078 N   0  0  0  0  0  0  0  0  0  0  0  0
   20.8870  -20.1876  -14.1937 C   0  0  0  0  0  0  0  0  0  0  0  0
   20.2682  -19.1671  -14.8980 O   0  0  0  0  0  0  0  0  0  0  0  0
   20.4577  -20.4519  -13.0463 O   0  0  0  0  0  0  0  0  0  0  0  0
  2  1  1  0
  3  2  1  0
  4  5  1  0
  4  3  1  0
  5  7  1  0
  5  6  1  1
  7  8  2  0
  9 10  1  0
 10 11  2  0
 12 10  1  0
 13 12  1  1
 14 13  1  0
 14  7  1  0
 15 16  2  0
 15 13  1  0
 18 17  1  1
 18 19  1  0
 18 20  1  0
 19 15  1  0
 20 21  1  0
 22 20  2  0
M  END
$$$$
