MNA.pdb
     RDKit          3D

 22 21  0  0  1  0  0  0  0  0999 V2000
   28.0219  -11.2177  -17.3796 C   0  0  0  0  0  0  0  0  0  0  0  0
   27.9404  -11.8943  -15.7226 S   0  0  0  0  0  0  0  0  0  0  0  0
   26.2991  -12.6322  -15.4482 C   0  0  0  0  0  0  0  0  0  0  0  0
   25.2046  -11.6561  -15.7825 C   0  0  0  0  0  0  0  0  0  0  0  0
   23.8341  -12.2499  -15.7481 C   0  0  2  0  0  0  0  0  0  0  0  0
   23.7685  -13.3985  -16.6727 N   0  0  0  0  0  0  0  0  0  0  0  0
   22.7266  -11.3125  -16.0078 C   0  0  0  0  0  0  0  0  0  0  0  0
   22.1738  -11.2322  -17.1447 O   0  0  0  0  0  0  0  0  0  0  0  0
   18.1435  -11.0936  -15.6181 N   0  0  0  0  0  0  0  0  0  0  0  0
   19.3437  -11.1597  -14.8645 C   0  0  0  0  0  0  0  0  0  0  0  0
   19.8600  -12.3020  -14.6054 O   0  0  0  0  0  0  0  0  0  0  0  0
   19.9790   -9.9088  -14.3880 C   0  0  0  0  0  0  0  0  0  0  0  0
   21.1090   -9.5271  -15.3069 C   0  0  2  0  0  0  0  0  0  0  0  0
   22.1940  -10.4388  -15.0329 N   0  0  0  0  0  0  0  0  0  0  0  0
   21.5220   -8.1200  -15.1566 C   0  0  0  0  0  0  0  0  0  0  0  0
   22.1894   -7.7895  -14.1515 O   0  0  0  0  0  0  0  0  0  0  0  0
   21.4487   -4.9197  -17.1399 C   0  0  0  0  0  0  0  0  0  0  0  0
   21.7187   -5.8075  -15.9471 C   0  0  2  0  0  0  0  0  0  0  0  0
   21.1917   -7.1255  -16.1084 N   0  0  0  0  0  0  0  0  0  0  0  0
   21.1917   -5.2129  -14.6905 C   0  0  0  0  0  0  0  0  0  0  0  0
   21.9031   -4.2640  -13.9737 O   0  0  0  0  0  0  0  0  0  0  0  0
   20.0744   -5.5668  -14.2465 O   0  0  0  0  0  0  0  0  0  0  0  0
  2  1  1  0
  3  2  1  0
  4  5  1  0
  4  3  1  0
  5  7  1  0
  5  6  1  6
  7  8  2  0
  9 10  1  0
 10 11  2  0
 12 10  1  0
 13 12  1  1
 14 13  1  0
 14  7  1  0
 15 16  2  0
 15 13  1  0
 18 17  1  6
 18 19  1  0
 18 20  1  0
 19 15  1  0
 20 21  1  0
 22 20  2  0
M  END
$$$$
