MNA.pdb
     RDKit          3D

 22 21  0  0  1  0  0  0  0  0999 V2000
   27.1293  -19.9544   -5.9824 C   0  0  0  0  0  0  0  0  0  0  0  0
   27.2003  -20.4386   -7.7059 S   0  0  0  0  0  0  0  0  0  0  0  0
   25.6340  -21.2375   -8.1772 C   0  0  0  0  0  0  0  0  0  0  0  0
   25.6101  -21.5556   -9.6471 C   0  0  0  0  0  0  0  0  0  0  0  0
   26.0252  -20.4155  -10.5189 C   0  0  2  0  0  0  0  0  0  0  0  0
   25.4511  -19.1594   -9.9984 N   0  0  0  0  0  0  0  0  0  0  0  0
   25.7230  -20.5674  -11.9536 C   0  0  0  0  0  0  0  0  0  0  0  0
   26.2274  -21.5006  -12.6461 O   0  0  0  0  0  0  0  0  0  0  0  0
   21.4833  -21.1052  -12.9319 N   0  0  0  0  0  0  0  0  0  0  0  0
   22.5631  -21.1008  -13.8521 C   0  0  0  0  0  0  0  0  0  0  0  0
   23.0220  -22.2139  -14.2867 O   0  0  0  0  0  0  0  0  0  0  0  0
   23.1437  -19.8111  -14.2935 C   0  0  0  0  0  0  0  0  0  0  0  0
   24.6354  -19.8254  -14.0896 C   0  0  2  0  0  0  0  0  0  0  0  0
   24.8622  -19.7046  -12.6691 N   0  0  0  0  0  0  0  0  0  0  0  0
   25.3297  -18.7698  -14.8488 C   0  0  0  0  0  0  0  0  0  0  0  0
   24.9926  -17.5777  -14.6743 O   0  0  0  0  0  0  0  0  0  0  0  0
   28.5186  -18.0455  -16.3593 C   0  0  0  0  0  0  0  0  0  0  0  0
   27.0116  -17.9718  -16.4444 C   0  0  2  0  0  0  0  0  0  0  0  0
   26.3662  -19.0535  -15.7703 N   0  0  0  0  0  0  0  0  0  0  0  0
   26.5441  -17.9168  -17.8547 C   0  0  0  0  0  0  0  0  0  0  0  0
   26.8835  -16.8718  -18.6994 O   0  0  0  0  0  0  0  0  0  0  0  0
   25.8192  -18.8301  -18.3141 O   0  0  0  0  0  0  0  0  0  0  0  0
  2  1  1  0
  3  2  1  0
  4  5  1  0
  4  3  1  0
  5  7  1  0
  5  6  1  1
  7  8  2  0
  9 10  1  0
 10 11  2  0
 12 10  1  0
 13 12  1  1
 14 13  1  0
 14  7  1  0
 15 16  2  0
 15 13  1  0
 18 17  1  6
 18 19  1  0
 18 20  1  0
 19 15  1  0
 20 21  1  0
 22 20  2  0
M  END
$$$$
