MNA.pdb
     RDKit          3D

 22 21  0  0  1  0  0  0  0  0999 V2000
   29.0421  -18.4561   -5.5404 C   0  0  0  0  0  0  0  0  0  0  0  0
   27.4379  -19.1742   -5.1928 S   0  0  0  0  0  0  0  0  0  0  0  0
   27.0819  -20.4818   -6.4081 C   0  0  0  0  0  0  0  0  0  0  0  0
   26.8295  -19.8988   -7.7715 C   0  0  0  0  0  0  0  0  0  0  0  0
   26.6392  -20.9241   -8.8414 C   0  0  2  0  0  0  0  0  0  0  0  0
   27.8760  -21.7146   -8.9955 N   0  0  0  0  0  0  0  0  0  0  0  0
   26.1892  -20.4074  -10.1465 C   0  0  0  0  0  0  0  0  0  0  0  0
   26.9799  -19.8101  -10.9357 O   0  0  0  0  0  0  0  0  0  0  0  0
   26.2221  -21.1710  -14.9838 N   0  0  0  0  0  0  0  0  0  0  0  0
   25.0966  -21.4738  -14.1748 C   0  0  0  0  0  0  0  0  0  0  0  0
   23.9549  -21.6462  -14.7271 O   0  0  0  0  0  0  0  0  0  0  0  0
   25.2589  -21.5837  -12.7062 C   0  0  0  0  0  0  0  0  0  0  0  0
   24.5269  -20.4578  -12.0253 C   0  0  2  0  0  0  0  0  0  0  0  0
   24.8645  -20.5297  -10.6237 N   0  0  0  0  0  0  0  0  0  0  0  0
   23.0697  -20.5047  -12.2429 C   0  0  0  0  0  0  0  0  0  0  0  0
   22.4067  -21.4188  -11.7044 O   0  0  0  0  0  0  0  0  0  0  0  0
   20.3845  -18.3553  -13.7757 C   0  0  0  0  0  0  0  0  0  0  0  0
   20.9610  -19.5486  -13.0495 C   0  0  2  0  0  0  0  0  0  0  0  0
   22.3896  -19.5526  -13.0397 N   0  0  0  0  0  0  0  0  0  0  0  0
   20.4654  -20.8292  -13.6193 C   0  0  0  0  0  0  0  0  0  0  0  0
   19.2515  -21.3796  -13.2395 O   0  0  0  0  0  0  0  0  0  0  0  0
   21.1495  -21.4477  -14.4679 O   0  0  0  0  0  0  0  0  0  0  0  0
  2  1  1  0
  3  2  1  0
  4  5  1  0
  4  3  1  0
  5  7  1  0
  5  6  1  6
  7  8  2  0
  9 10  1  0
 10 11  2  0
 12 10  1  0
 13 12  1  6
 14 13  1  0
 14  7  1  0
 15 16  2  0
 15 13  1  0
 18 17  1  6
 18 19  1  0
 18 20  1  0
 19 15  1  0
 20 21  1  0
 22 20  2  0
M  END
$$$$
