MNA.pdb
     RDKit          3D

 22 21  0  0  1  0  0  0  0  0999 V2000
   28.8573  -18.7933   -6.4482 C   0  0  0  0  0  0  0  0  0  0  0  0
   27.6492  -19.9360   -5.7814 S   0  0  0  0  0  0  0  0  0  0  0  0
   26.2155  -20.0247   -6.8995 C   0  0  0  0  0  0  0  0  0  0  0  0
   26.6502  -19.9991   -8.3393 C   0  0  0  0  0  0  0  0  0  0  0  0
   25.5167  -19.9892   -9.3126 C   0  0  2  0  0  0  0  0  0  0  0  0
   24.5501  -21.0467   -8.9581 N   0  0  0  0  0  0  0  0  0  0  0  0
   25.8959  -20.0897  -10.7335 C   0  0  0  0  0  0  0  0  0  0  0  0
   26.7596  -19.3196  -11.2492 O   0  0  0  0  0  0  0  0  0  0  0  0
   25.9416  -23.7756  -15.5458 N   0  0  0  0  0  0  0  0  0  0  0  0
   26.3446  -22.6477  -14.7854 C   0  0  0  0  0  0  0  0  0  0  0  0
   27.0740  -21.7497  -15.3331 O   0  0  0  0  0  0  0  0  0  0  0  0
   25.9180  -22.5273  -13.3716 C   0  0  0  0  0  0  0  0  0  0  0  0
   25.6850  -21.0798  -13.0293 C   0  0  2  0  0  0  0  0  0  0  0  0
   25.3424  -21.0337  -11.6278 N   0  0  0  0  0  0  0  0  0  0  0  0
   24.6502  -20.4498  -13.8692 C   0  0  0  0  0  0  0  0  0  0  0  0
   23.4457  -20.6434  -13.5922 O   0  0  0  0  0  0  0  0  0  0  0  0
   24.3385  -17.7862  -16.4612 C   0  0  0  0  0  0  0  0  0  0  0  0
   23.9072  -19.0361  -15.7295 C   0  0  2  0  0  0  0  0  0  0  0  0
   24.9676  -19.6318  -14.9801 N   0  0  0  0  0  0  0  0  0  0  0  0
   23.3296  -20.0433  -16.6581 C   0  0  0  0  0  0  0  0  0  0  0  0
   21.9655  -20.1339  -16.8854 O   0  0  0  0  0  0  0  0  0  0  0  0
   24.0790  -20.8457  -17.2624 O   0  0  0  0  0  0  0  0  0  0  0  0
  2  1  1  0
  3  2  1  0
  4  5  1  0
  4  3  1  0
  5  7  1  0
  5  6  1  1
  7  8  2  0
  9 10  1  0
 10 11  2  0
 12 10  1  0
 13 12  1  6
 14 13  1  0
 14  7  1  0
 15 16  2  0
 15 13  1  0
 18 17  1  6
 18 19  1  0
 18 20  1  0
 19 15  1  0
 20 21  1  0
 22 20  2  0
M  END
$$$$
