MNA.pdb
     RDKit          3D

 22 21  0  0  1  0  0  0  0  0999 V2000
   27.5674  -14.3070  -16.0190 C   0  0  0  0  0  0  0  0  0  0  0  0
   26.2560  -13.3989  -16.8348 S   0  0  0  0  0  0  0  0  0  0  0  0
   25.6920  -12.0460  -15.7554 C   0  0  0  0  0  0  0  0  0  0  0  0
   24.5788  -11.2672  -16.4011 C   0  0  0  0  0  0  0  0  0  0  0  0
   24.1410  -10.0743  -15.6153 C   0  0  2  0  0  0  0  0  0  0  0  0
   23.7792  -10.4889  -14.2458 N   0  0  0  0  0  0  0  0  0  0  0  0
   23.0577   -9.2768  -16.2180 C   0  0  0  0  0  0  0  0  0  0  0  0
   23.1608   -8.7822  -17.3797 O   0  0  0  0  0  0  0  0  0  0  0  0
   20.0750  -10.3792  -17.7066 N   0  0  0  0  0  0  0  0  0  0  0  0
   19.1864  -10.0624  -16.6469 C   0  0  0  0  0  0  0  0  0  0  0  0
   18.1435  -10.7820  -16.4660 O   0  0  0  0  0  0  0  0  0  0  0  0
   19.4772   -8.9049  -15.7688 C   0  0  0  0  0  0  0  0  0  0  0  0
   20.7669   -8.2534  -16.1921 C   0  0  2  0  0  0  0  0  0  0  0  0
   21.8339   -8.9989  -15.5680 N   0  0  0  0  0  0  0  0  0  0  0  0
   20.8258   -6.8202  -15.8521 C   0  0  0  0  0  0  0  0  0  0  0  0
   20.0278   -6.0333  -16.4080 O   0  0  0  0  0  0  0  0  0  0  0  0
   21.8477   -4.5912  -13.1655 C   0  0  0  0  0  0  0  0  0  0  0  0
   21.7464   -4.8968  -14.6420 C   0  0  2  0  0  0  0  0  0  0  0  0
   21.7529   -6.2984  -14.9182 N   0  0  0  0  0  0  0  0  0  0  0  0
   22.8298   -4.2340  -15.4147 C   0  0  0  0  0  0  0  0  0  0  0  0
   23.6745   -4.9458  -16.2517 O   0  0  0  0  0  0  0  0  0  0  0  0
   23.0045   -2.9966  -15.3204 O   0  0  0  0  0  0  0  0  0  0  0  0
  2  1  1  0
  3  2  1  0
  4  5  1  0
  4  3  1  0
  5  7  1  0
  5  6  1  1
  7  8  2  0
  9 10  1  0
 10 11  2  0
 12 10  1  0
 13 12  1  1
 14 13  1  0
 14  7  1  0
 15 16  2  0
 15 13  1  0
 18 17  1  1
 18 19  1  0
 18 20  1  0
 19 15  1  0
 20 21  1  0
 22 20  2  0
M  END
$$$$
