MNA.pdb
     RDKit          3D

 22 21  0  0  1  0  0  0  0  0999 V2000
   28.7811   -8.6410  -17.5414 C   0  0  0  0  0  0  0  0  0  0  0  0
   28.9416  -10.3777  -17.1317 S   0  0  0  0  0  0  0  0  0  0  0  0
   27.4839  -10.9150  -16.1830 C   0  0  0  0  0  0  0  0  0  0  0  0
   26.2299  -10.2710  -16.7076 C   0  0  0  0  0  0  0  0  0  0  0  0
   24.9930  -10.6659  -15.9683 C   0  0  2  0  0  0  0  0  0  0  0  0
   24.8159  -12.1291  -16.0452 N   0  0  0  0  0  0  0  0  0  0  0  0
   23.7578   -9.9728  -16.3766 C   0  0  0  0  0  0  0  0  0  0  0  0
   23.0268  -10.4100  -17.3143 O   0  0  0  0  0  0  0  0  0  0  0  0
   19.5529   -7.3544  -16.7788 N   0  0  0  0  0  0  0  0  0  0  0  0
   19.8044   -7.6535  -15.4150 C   0  0  0  0  0  0  0  0  0  0  0  0
   18.8714   -7.4899  -14.5541 O   0  0  0  0  0  0  0  0  0  0  0  0
   21.1407   -8.1476  -15.0081 C   0  0  0  0  0  0  0  0  0  0  0  0
   22.0769   -8.1197  -16.1870 C   0  0  2  0  0  0  0  0  0  0  0  0
   23.2888   -8.7848  -15.7716 N   0  0  0  0  0  0  0  0  0  0  0  0
   22.3398   -6.7557  -16.6803 C   0  0  0  0  0  0  0  0  0  0  0  0
   23.1630   -6.0393  -16.0686 O   0  0  0  0  0  0  0  0  0  0  0  0
   22.0783   -4.8894  -19.8397 C   0  0  0  0  0  0  0  0  0  0  0  0
   22.1157   -4.9562  -18.3305 C   0  0  2  0  0  0  0  0  0  0  0  0
   21.6950   -6.2235  -17.8227 N   0  0  0  0  0  0  0  0  0  0  0  0
   21.2983   -3.8786  -17.7135 C   0  0  0  0  0  0  0  0  0  0  0  0
   21.7585   -2.5752  -17.6135 O   0  0  0  0  0  0  0  0  0  0  0  0
   20.1574   -4.1336  -17.2618 O   0  0  0  0  0  0  0  0  0  0  0  0
  2  1  1  0
  3  2  1  0
  4  5  1  0
  4  3  1  0
  5  7  1  0
  5  6  1  6
  7  8  2  0
  9 10  1  0
 10 11  2  0
 12 10  1  0
 13 12  1  1
 14 13  1  0
 14  7  1  0
 15 16  2  0
 15 13  1  0
 18 17  1  6
 18 19  1  0
 18 20  1  0
 19 15  1  0
 20 21  1  0
 22 20  2  0
M  END
$$$$
