MNA.pdb
     RDKit          3D

 22 21  0  0  1  0  0  0  0  0999 V2000
   22.7103  -17.3838  -17.6461 C   0  0  0  0  0  0  0  0  0  0  0  0
   21.1957  -17.1976  -18.5848 S   0  0  0  0  0  0  0  0  0  0  0  0
   21.0805  -15.4956  -19.2201 C   0  0  0  0  0  0  0  0  0  0  0  0
   21.2991  -14.4922  -18.1211 C   0  0  0  0  0  0  0  0  0  0  0  0
   21.2415  -13.0715  -18.5798 C   0  0  2  0  0  0  0  0  0  0  0  0
   21.9718  -12.9327  -19.8548 N   0  0  0  0  0  0  0  0  0  0  0  0
   21.7061  -12.0679  -17.6053 C   0  0  0  0  0  0  0  0  0  0  0  0
   21.1536  -11.9317  -16.4735 O   0  0  0  0  0  0  0  0  0  0  0  0
   26.6450  -10.3817  -15.1344 N   0  0  0  0  0  0  0  0  0  0  0  0
   25.2869  -10.1210  -15.4514 C   0  0  0  0  0  0  0  0  0  0  0  0
   24.5193   -9.6187  -14.5587 O   0  0  0  0  0  0  0  0  0  0  0  0
   24.7781  -10.4353  -16.8070 C   0  0  0  0  0  0  0  0  0  0  0  0
   23.2820  -10.2705  -16.8424 C   0  0  2  0  0  0  0  0  0  0  0  0
   22.7861  -11.1873  -17.8411 N   0  0  0  0  0  0  0  0  0  0  0  0
   22.8625   -8.8835  -17.1129 C   0  0  0  0  0  0  0  0  0  0  0  0
   23.0863   -8.3929  -18.2418 O   0  0  0  0  0  0  0  0  0  0  0  0
   20.7327   -6.8578  -17.6583 C   0  0  0  0  0  0  0  0  0  0  0  0
   21.7233   -6.7953  -16.5188 C   0  0  2  0  0  0  0  0  0  0  0  0
   22.2144   -8.0828  -16.1419 N   0  0  0  0  0  0  0  0  0  0  0  0
   21.1474   -6.1161  -15.3283 C   0  0  0  0  0  0  0  0  0  0  0  0
   20.9159   -4.7499  -15.3039 O   0  0  0  0  0  0  0  0  0  0  0  0
   20.8571   -6.7781  -14.3045 O   0  0  0  0  0  0  0  0  0  0  0  0
  2  1  1  0
  3  2  1  0
  4  5  1  0
  4  3  1  0
  5  7  1  0
  5  6  1  6
  7  8  2  0
  9 10  1  0
 10 11  2  0
 12 10  1  0
 13 12  1  6
 14 13  1  0
 14  7  1  0
 15 16  2  0
 15 13  1  0
 18 17  1  6
 18 19  1  0
 18 20  1  0
 19 15  1  0
 20 21  1  0
 22 20  2  0
M  END
$$$$
