MNA.pdb
     RDKit          3D

 22 21  0  0  1  0  0  0  0  0999 V2000
   27.8162  -18.4316  -15.9829 C   0  0  0  0  0  0  0  0  0  0  0  0
   28.2231  -20.0586  -16.6129 S   0  0  0  0  0  0  0  0  0  0  0  0
   28.2573  -21.2511  -15.2379 C   0  0  0  0  0  0  0  0  0  0  0  0
   26.8646  -21.6486  -14.8321 C   0  0  0  0  0  0  0  0  0  0  0  0
   26.0170  -20.5042  -14.3803 C   0  0  2  0  0  0  0  0  0  0  0  0
   26.6338  -19.8663  -13.2009 N   0  0  0  0  0  0  0  0  0  0  0  0
   24.6027  -20.8243  -14.1153 C   0  0  0  0  0  0  0  0  0  0  0  0
   23.9323  -21.5720  -14.8875 O   0  0  0  0  0  0  0  0  0  0  0  0
   20.1260  -21.5622  -11.8139 N   0  0  0  0  0  0  0  0  0  0  0  0
   20.8872  -20.7768  -10.9102 C   0  0  0  0  0  0  0  0  0  0  0  0
   20.4136  -20.5199   -9.7491 O   0  0  0  0  0  0  0  0  0  0  0  0
   22.2147  -20.2650  -11.3237 C   0  0  0  0  0  0  0  0  0  0  0  0
   22.5105  -20.6935  -12.7364 C   0  0  2  0  0  0  0  0  0  0  0  0
   23.8841  -20.3366  -13.0004 N   0  0  0  0  0  0  0  0  0  0  0  0
   21.5891  -20.1000  -13.7222 C   0  0  0  0  0  0  0  0  0  0  0  0
   21.5304  -18.8544  -13.8220 O   0  0  0  0  0  0  0  0  0  0  0  0
   20.2276  -20.8540  -16.9512 C   0  0  0  0  0  0  0  0  0  0  0  0
   20.0030  -20.2458  -15.5861 C   0  0  2  0  0  0  0  0  0  0  0  0
   20.7659  -20.8874  -14.5627 N   0  0  0  0  0  0  0  0  0  0  0  0
   18.5642  -20.2552  -15.2117 C   0  0  0  0  0  0  0  0  0  0  0  0
   18.0424  -21.1872  -14.3288 O   0  0  0  0  0  0  0  0  0  0  0  0
   17.7812  -19.4061  -15.6981 O   0  0  0  0  0  0  0  0  0  0  0  0
  2  1  1  0
  3  2  1  0
  4  5  1  0
  4  3  1  0
  5  7  1  0
  5  6  1  1
  7  8  2  0
  9 10  1  0
 10 11  2  0
 12 10  1  0
 13 12  1  1
 14 13  1  0
 14  7  1  0
 15 16  2  0
 15 13  1  0
 18 17  1  6
 18 19  1  0
 18 20  1  0
 19 15  1  0
 20 21  1  0
 22 20  2  0
M  END
$$$$
