MNA.pdb
     RDKit          3D

 22 21  0  0  1  0  0  0  0  0999 V2000
   27.9730  -17.8215   -5.4920 C   0  0  0  0  0  0  0  0  0  0  0  0
   28.6299  -19.4268   -5.9408 S   0  0  0  0  0  0  0  0  0  0  0  0
   27.3287  -20.4111   -6.7480 C   0  0  0  0  0  0  0  0  0  0  0  0
   27.0066  -19.8663   -8.1125 C   0  0  0  0  0  0  0  0  0  0  0  0
   25.8785  -20.5705   -8.7935 C   0  0  2  0  0  0  0  0  0  0  0  0
   26.0540  -22.0301   -8.6616 N   0  0  0  0  0  0  0  0  0  0  0  0
   25.6548  -20.2014  -10.2029 C   0  0  0  0  0  0  0  0  0  0  0  0
   25.3593  -19.0175  -10.5433 O   0  0  0  0  0  0  0  0  0  0  0  0
   27.7882  -19.8072  -12.8395 N   0  0  0  0  0  0  0  0  0  0  0  0
   27.5166  -20.9692  -13.6069 C   0  0  0  0  0  0  0  0  0  0  0  0
   28.4434  -21.4739  -14.3312 O   0  0  0  0  0  0  0  0  0  0  0  0
   26.1667  -21.5783  -13.5603 C   0  0  0  0  0  0  0  0  0  0  0  0
   25.2899  -20.8063  -12.6105 C   0  0  2  0  0  0  0  0  0  0  0  0
   25.7483  -21.1151  -11.2770 N   0  0  0  0  0  0  0  0  0  0  0  0
   23.8561  -21.1030  -12.7815 C   0  0  0  0  0  0  0  0  0  0  0  0
   23.3250  -21.9653  -12.0470 O   0  0  0  0  0  0  0  0  0  0  0  0
   20.9752  -20.3942  -12.4557 C   0  0  0  0  0  0  0  0  0  0  0  0
   21.6493  -20.7036  -13.7724 C   0  0  2  0  0  0  0  0  0  0  0  0
   23.0547  -20.4481  -13.7473 N   0  0  0  0  0  0  0  0  0  0  0  0
   21.0288  -19.9532  -14.8958 C   0  0  0  0  0  0  0  0  0  0  0  0
   19.7345  -20.2074  -15.3211 O   0  0  0  0  0  0  0  0  0  0  0  0
   21.6771  -19.0615  -15.4918 O   0  0  0  0  0  0  0  0  0  0  0  0
  2  1  1  0
  3  2  1  0
  4  5  1  0
  4  3  1  0
  5  7  1  0
  5  6  1  6
  7  8  2  0
  9 10  1  0
 10 11  2  0
 12 10  1  0
 13 12  1  6
 14 13  1  0
 14  7  1  0
 15 16  2  0
 15 13  1  0
 18 17  1  1
 18 19  1  0
 18 20  1  0
 19 15  1  0
 20 21  1  0
 22 20  2  0
M  END
$$$$
