IGS.pdb
     RDKit          3D

 19 18  0  0  1  0  0  0  0  0999 V2000
   19.2733  -12.7673  -20.8548 C   0  0  0  0  0  0  0  0  0  0  0  0
   20.3472  -12.5564  -19.8156 C   0  0  0  0  0  0  0  0  0  0  0  0
   19.8397  -11.5141  -18.8135 C   0  0  2  0  0  0  0  0  0  0  0  0
   19.6551  -10.1693  -19.5063 C   0  0  0  0  0  0  0  0  0  0  0  0
   20.9298  -11.3582  -17.7798 C   0  0  2  0  0  0  0  0  0  0  0  0
   21.2842  -12.6762  -17.2938 N   0  0  0  0  0  0  0  0  0  0  0  0
   20.4247  -10.4958  -16.6605 C   0  0  0  0  0  0  0  0  0  0  0  0
   19.6917  -10.9829  -15.7639 O   0  0  0  0  0  0  0  0  0  0  0  0
   20.7650   -9.1314  -16.6002 N   0  0  0  0  0  0  0  0  0  0  0  0
   20.2271   -8.3137  -15.5500 C   0  0  0  0  0  0  0  0  0  0  0  0
   20.9063   -6.9861  -15.5328 C   0  0  0  0  0  0  0  0  0  0  0  0
   21.8615   -6.7525  -16.3156 O   0  0  0  0  0  0  0  0  0  0  0  0
   18.8929   -4.0557  -14.1853 O   0  0  0  0  0  0  0  0  0  0  0  0
   20.1916   -3.5739  -14.1091 C   0  0  0  0  0  0  0  0  0  0  0  0
   21.1024   -4.6291  -14.6918 C   0  0  2  0  0  0  0  0  0  0  0  0
   20.5125   -5.9460  -14.6488 N   0  0  0  0  0  0  0  0  0  0  0  0
   22.3527   -4.6166  -13.8914 C   0  0  0  0  0  0  0  0  0  0  0  0
   23.3301   -3.6496  -14.0767 O   0  0  0  0  0  0  0  0  0  0  0  0
   22.5393   -5.4988  -13.0232 O   0  0  0  0  0  0  0  0  0  0  0  0
  2  1  1  0
  3  2  1  0
  3  4  1  6
  5  3  1  0
  5  6  1  1
  7  5  1  0
  8  7  2  0
  9  7  1  0
 10  9  1  0
 10 11  1  0
 11 16  1  0
 12 11  2  0
 14 13  1  0
 15 17  1  0
 15 14  1  1
 16 15  1  0
 17 18  1  0
 19 17  2  0
M  END
$$$$
