IGS.pdb
     RDKit          3D

 19 18  0  0  1  0  0  0  0  0999 V2000
   19.5239  -21.8448  -16.0186 C   0  0  0  0  0  0  0  0  0  0  0  0
   18.8196  -22.9289  -15.2399 C   0  0  0  0  0  0  0  0  0  0  0  0
   19.1327  -22.7254  -13.7537 C   0  0  2  0  0  0  0  0  0  0  0  0
   20.5365  -23.2297  -13.4413 C   0  0  0  0  0  0  0  0  0  0  0  0
   18.1505  -23.5862  -12.9949 C   0  0  2  0  0  0  0  0  0  0  0  0
   16.8119  -23.2152  -13.4064 N   0  0  0  0  0  0  0  0  0  0  0  0
   18.3367  -23.3616  -11.5229 C   0  0  0  0  0  0  0  0  0  0  0  0
   17.8705  -22.3327  -10.9730 O   0  0  0  0  0  0  0  0  0  0  0  0
   19.0352  -24.2995  -10.7397 N   0  0  0  0  0  0  0  0  0  0  0  0
   19.1934  -24.0679   -9.3318 C   0  0  0  0  0  0  0  0  0  0  0  0
   18.2423  -24.9192   -8.5604 C   0  0  0  0  0  0  0  0  0  0  0  0
   17.4935  -25.7336   -9.1569 O   0  0  0  0  0  0  0  0  0  0  0  0
   18.9797  -25.5383   -4.7473 O   0  0  0  0  0  0  0  0  0  0  0  0
   17.6088  -25.6858   -4.9004 C   0  0  0  0  0  0  0  0  0  0  0  0
   17.3228  -25.7616   -6.3819 C   0  0  2  0  0  0  0  0  0  0  0  0
   18.1415  -24.8498   -7.1451 N   0  0  0  0  0  0  0  0  0  0  0  0
   15.8901  -25.4198   -6.5679 C   0  0  0  0  0  0  0  0  0  0  0  0
   14.8870  -26.3666   -6.4184 O   0  0  0  0  0  0  0  0  0  0  0  0
   15.5683  -24.2479   -6.8678 O   0  0  0  0  0  0  0  0  0  0  0  0
  2  1  1  0
  3  2  1  0
  3  4  1  6
  5  3  1  0
  5  6  1  6
  7  5  1  0
  8  7  2  0
  9  7  1  0
 10  9  1  0
 10 11  1  0
 11 16  1  0
 12 11  2  0
 14 13  1  0
 15 17  1  0
 15 14  1  1
 16 15  1  0
 17 18  1  0
 19 17  2  0
M  END
$$$$
