IGS.pdb
     RDKit          3D

 19 18  0  0  1  0  0  0  0  0999 V2000
   20.6108  -14.4457  -17.6472 C   0  0  0  0  0  0  0  0  0  0  0  0
   19.2274  -13.8428  -17.6278 C   0  0  0  0  0  0  0  0  0  0  0  0
   19.2332  -12.6734  -16.6376 C   0  0  2  0  0  0  0  0  0  0  0  0
   19.4469  -13.1898  -15.2198 C   0  0  0  0  0  0  0  0  0  0  0  0
   17.8555  -12.0579  -16.7049 C   0  0  2  0  0  0  0  0  0  0  0  0
   17.6446  -11.5668  -18.0514 N   0  0  0  0  0  0  0  0  0  0  0  0
   17.7695  -10.9379  -15.7099 C   0  0  0  0  0  0  0  0  0  0  0  0
   17.6958  -11.1843  -14.4802 O   0  0  0  0  0  0  0  0  0  0  0  0
   17.7702   -9.5979  -16.1406 N   0  0  0  0  0  0  0  0  0  0  0  0
   17.7753   -8.5421  -15.1680 C   0  0  0  0  0  0  0  0  0  0  0  0
   17.7536   -7.2154  -15.8489 C   0  0  0  0  0  0  0  0  0  0  0  0
   18.0537   -7.1225  -17.0659 O   0  0  0  0  0  0  0  0  0  0  0  0
   16.8556   -3.8415  -13.7310 O   0  0  0  0  0  0  0  0  0  0  0  0
   16.4464   -3.7623  -15.0542 C   0  0  0  0  0  0  0  0  0  0  0  0
   17.2698   -4.7522  -15.8444 C   0  0  2  0  0  0  0  0  0  0  0  0
   17.4000   -6.0204  -15.1669 N   0  0  0  0  0  0  0  0  0  0  0  0
   18.6128   -4.1489  -16.0352 C   0  0  0  0  0  0  0  0  0  0  0  0
   18.8038   -3.0242  -16.8248 O   0  0  0  0  0  0  0  0  0  0  0  0
   19.6063   -4.6619  -15.4723 O   0  0  0  0  0  0  0  0  0  0  0  0
  2  1  1  0
  3  2  1  0
  3  4  1  1
  5  3  1  0
  5  6  1  6
  7  5  1  0
  8  7  2  0
  9  7  1  0
 10  9  1  0
 10 11  1  0
 11 16  1  0
 12 11  2  0
 14 13  1  0
 15 17  1  0
 15 14  1  1
 16 15  1  0
 17 18  1  0
 19 17  2  0
M  END
$$$$
