IGS.pdb
     RDKit          3D

 19 18  0  0  1  0  0  0  0  0999 V2000
   22.3502  -14.1627  -19.6847 C   0  0  0  0  0  0  0  0  0  0  0  0
   22.3292  -14.0367  -18.1809 C   0  0  0  0  0  0  0  0  0  0  0  0
   23.0296  -12.7268  -17.8046 C   0  0  2  0  0  0  0  0  0  0  0  0
   24.5236  -12.9665  -17.6222 C   0  0  0  0  0  0  0  0  0  0  0  0
   22.4592  -12.3130  -16.4687 C   0  0  2  0  0  0  0  0  0  0  0  0
   21.0328  -12.1155  -16.6276 N   0  0  0  0  0  0  0  0  0  0  0  0
   23.1260  -11.0449  -16.0222 C   0  0  0  0  0  0  0  0  0  0  0  0
   24.3412  -11.0440  -15.7037 O   0  0  0  0  0  0  0  0  0  0  0  0
   22.3996   -9.8413  -15.9544 N   0  0  0  0  0  0  0  0  0  0  0  0
   23.0904   -8.6123  -15.6839 C   0  0  0  0  0  0  0  0  0  0  0  0
   22.1125   -7.4990  -15.5148 C   0  0  0  0  0  0  0  0  0  0  0  0
   20.9987   -7.5400  -16.0958 O   0  0  0  0  0  0  0  0  0  0  0  0
   19.3086   -4.8941  -13.4641 O   0  0  0  0  0  0  0  0  0  0  0  0
   20.2039   -5.9321  -13.6781 C   0  0  0  0  0  0  0  0  0  0  0  0
   21.3940   -5.3611  -14.4129 C   0  0  2  0  0  0  0  0  0  0  0  0
   22.3897   -6.3646  -14.7058 N   0  0  0  0  0  0  0  0  0  0  0  0
   21.9835   -4.3136  -13.5415 C   0  0  0  0  0  0  0  0  0  0  0  0
   21.4663   -3.0272  -13.4920 O   0  0  0  0  0  0  0  0  0  0  0  0
   22.9745   -4.5891  -12.8281 O   0  0  0  0  0  0  0  0  0  0  0  0
  2  1  1  0
  3  2  1  0
  3  4  1  1
  5  3  1  0
  5  6  1  6
  7  5  1  0
  8  7  2  0
  9  7  1  0
 10  9  1  0
 10 11  1  0
 11 16  1  0
 12 11  2  0
 14 13  1  0
 15 17  1  0
 15 14  1  1
 16 15  1  0
 17 18  1  0
 19 17  2  0
M  END
$$$$
