IGS.pdb
     RDKit          3D

 19 18  0  0  1  0  0  0  0  0999 V2000
   18.9410  -15.3527  -18.3006 C   0  0  0  0  0  0  0  0  0  0  0  0
   19.0322  -14.4673  -17.0817 C   0  0  0  0  0  0  0  0  0  0  0  0
   19.5993  -13.1131  -17.5203 C   0  0  2  0  0  0  0  0  0  0  0  0
   21.0380  -13.2778  -17.9954 C   0  0  0  0  0  0  0  0  0  0  0  0
   19.6147  -12.2433  -16.2856 C   0  0  2  0  0  0  0  0  0  0  0  0
   18.2454  -12.0406  -15.8580 N   0  0  0  0  0  0  0  0  0  0  0  0
   20.2688  -10.9338  -16.6162 C   0  0  0  0  0  0  0  0  0  0  0  0
   21.5174  -10.8585  -16.7323 O   0  0  0  0  0  0  0  0  0  0  0  0
   19.4930   -9.7739  -16.8003 N   0  0  0  0  0  0  0  0  0  0  0  0
   20.1452   -8.5093  -16.9909 C   0  0  0  0  0  0  0  0  0  0  0  0
   19.9547   -7.6462  -15.7897 C   0  0  0  0  0  0  0  0  0  0  0  0
   19.0284   -7.8885  -14.9755 O   0  0  0  0  0  0  0  0  0  0  0  0
   22.9615   -6.0727  -14.0119 O   0  0  0  0  0  0  0  0  0  0  0  0
   21.9734   -5.1046  -13.9073 C   0  0  0  0  0  0  0  0  0  0  0  0
   20.6665   -5.7436  -14.3150 C   0  0  2  0  0  0  0  0  0  0  0  0
   20.7945   -6.5333  -15.5167 N   0  0  0  0  0  0  0  0  0  0  0  0
   19.6952   -4.6442  -14.5421 C   0  0  0  0  0  0  0  0  0  0  0  0
   19.1811   -4.3709  -15.8014 O   0  0  0  0  0  0  0  0  0  0  0  0
   19.3237   -3.9387  -13.5770 O   0  0  0  0  0  0  0  0  0  0  0  0
  2  1  1  0
  3  2  1  0
  3  4  1  1
  5  3  1  0
  5  6  1  6
  7  5  1  0
  8  7  2  0
  9  7  1  0
 10  9  1  0
 10 11  1  0
 11 16  1  0
 12 11  2  0
 14 13  1  0
 15 17  1  0
 15 14  1  6
 16 15  1  0
 17 18  1  0
 19 17  2  0
M  END
$$$$
