IGS.pdb
     RDKit          3D

 19 18  0  0  1  0  0  0  0  0999 V2000
   24.3630  -14.4105  -19.4401 C   0  0  0  0  0  0  0  0  0  0  0  0
   23.4708  -13.8364  -18.3667 C   0  0  0  0  0  0  0  0  0  0  0  0
   24.1463  -12.5784  -17.8108 C   0  0  2  0  0  0  0  0  0  0  0  0
   25.4245  -12.9547  -17.0711 C   0  0  0  0  0  0  0  0  0  0  0  0
   23.1832  -11.9927  -16.8055 C   0  0  2  0  0  0  0  0  0  0  0  0
   21.9369  -11.7067  -17.4864 N   0  0  0  0  0  0  0  0  0  0  0  0
   23.7759  -10.7395  -16.2308 C   0  0  0  0  0  0  0  0  0  0  0  0
   24.7383  -10.8028  -15.4258 O   0  0  0  0  0  0  0  0  0  0  0  0
   23.2621   -9.4782  -16.5857 N   0  0  0  0  0  0  0  0  0  0  0  0
   23.8349   -8.2937  -16.0114 C   0  0  0  0  0  0  0  0  0  0  0  0
   22.7804   -7.2587  -15.8088 C   0  0  0  0  0  0  0  0  0  0  0  0
   21.7433   -7.2629  -16.5188 O   0  0  0  0  0  0  0  0  0  0  0  0
   22.2590   -5.8353  -12.3131 O   0  0  0  0  0  0  0  0  0  0  0  0
   21.8827   -4.7815  -13.1331 C   0  0  0  0  0  0  0  0  0  0  0  0
   21.8355   -5.3031  -14.5502 C   0  0  2  0  0  0  0  0  0  0  0  0
   22.8978   -6.2415  -14.8239 N   0  0  0  0  0  0  0  0  0  0  0  0
   21.9620   -4.1302  -15.4514 C   0  0  0  0  0  0  0  0  0  0  0  0
   20.8798   -3.3130  -15.7445 O   0  0  0  0  0  0  0  0  0  0  0  0
   23.0715   -3.8631  -15.9658 O   0  0  0  0  0  0  0  0  0  0  0  0
  2  1  1  0
  3  2  1  0
  3  4  1  1
  5  3  1  0
  5  6  1  6
  7  5  1  0
  8  7  2  0
  9  7  1  0
 10  9  1  0
 10 11  1  0
 11 16  1  0
 12 11  2  0
 14 13  1  0
 15 17  1  0
 15 14  1  1
 16 15  1  0
 17 18  1  0
 19 17  2  0
M  END
$$$$
