IGS.pdb
     RDKit          3D

 19 18  0  0  1  0  0  0  0  0999 V2000
   21.9105  -14.4693  -20.0445 C   0  0  0  0  0  0  0  0  0  0  0  0
   22.7007  -13.2351  -19.6839 C   0  0  0  0  0  0  0  0  0  0  0  0
   21.9553  -12.5056  -18.5612 C   0  0  2  0  0  0  0  0  0  0  0  0
   20.5571  -12.1181  -19.0277 C   0  0  0  0  0  0  0  0  0  0  0  0
   22.7270  -11.2337  -18.3006 C   0  0  2  0  0  0  0  0  0  0  0  0
   23.9949  -11.5896  -17.6967 N   0  0  0  0  0  0  0  0  0  0  0  0
   21.9284  -10.3546  -17.3834 C   0  0  0  0  0  0  0  0  0  0  0  0
   20.8400   -9.8581  -17.7671 O   0  0  0  0  0  0  0  0  0  0  0  0
   22.3876  -10.0749  -16.0826 N   0  0  0  0  0  0  0  0  0  0  0  0
   21.5781   -9.2811  -15.2020 C   0  0  0  0  0  0  0  0  0  0  0  0
   21.7808   -7.8308  -15.4846 C   0  0  0  0  0  0  0  0  0  0  0  0
   21.7845   -7.4103  -16.6690 O   0  0  0  0  0  0  0  0  0  0  0  0
   19.7500   -5.2323  -14.3525 O   0  0  0  0  0  0  0  0  0  0  0  0
   20.7543   -4.9067  -15.2524 C   0  0  0  0  0  0  0  0  0  0  0  0
   22.0501   -5.4595  -14.7066 C   0  0  2  0  0  0  0  0  0  0  0  0
   21.9748   -6.8779  -14.4489 N   0  0  0  0  0  0  0  0  0  0  0  0
   22.3339   -4.7374  -13.4409 C   0  0  0  0  0  0  0  0  0  0  0  0
   22.3357   -5.3850  -12.2140 O   0  0  0  0  0  0  0  0  0  0  0  0
   22.5795   -3.5103  -13.4713 O   0  0  0  0  0  0  0  0  0  0  0  0
  2  1  1  0
  3  2  1  0
  3  4  1  6
  5  3  1  0
  5  6  1  1
  7  5  1  0
  8  7  2  0
  9  7  1  0
 10  9  1  0
 10 11  1  0
 11 16  1  0
 12 11  2  0
 14 13  1  0
 15 17  1  0
 15 14  1  1
 16 15  1  0
 17 18  1  0
 19 17  2  0
M  END
$$$$
