IGS.pdb
     RDKit          3D

 19 18  0  0  1  0  0  0  0  0999 V2000
   25.2907  -15.5069  -18.3085 C   0  0  0  0  0  0  0  0  0  0  0  0
   24.1494  -14.7651  -17.6566 C   0  0  0  0  0  0  0  0  0  0  0  0
   24.6010  -13.3218  -17.4098 C   0  0  2  0  0  0  0  0  0  0  0  0
   25.6974  -13.2907  -16.3516 C   0  0  0  0  0  0  0  0  0  0  0  0
   23.3995  -12.5938  -16.8551 C   0  0  2  0  0  0  0  0  0  0  0  0
   22.3186  -12.7095  -17.8126 N   0  0  0  0  0  0  0  0  0  0  0  0
   23.7592  -11.1545  -16.6293 C   0  0  0  0  0  0  0  0  0  0  0  0
   24.5387  -10.8327  -15.6981 O   0  0  0  0  0  0  0  0  0  0  0  0
   23.2287  -10.1472  -17.4569 N   0  0  0  0  0  0  0  0  0  0  0  0
   23.5603   -8.7740  -17.2013 C   0  0  0  0  0  0  0  0  0  0  0  0
   22.4285   -8.0917  -16.5100 C   0  0  0  0  0  0  0  0  0  0  0  0
   21.2472   -8.4793  -16.6939 O   0  0  0  0  0  0  0  0  0  0  0  0
   21.7404   -7.5326  -13.0119 O   0  0  0  0  0  0  0  0  0  0  0  0
   20.8186   -7.1736  -13.9846 C   0  0  0  0  0  0  0  0  0  0  0  0
   21.5354   -6.3040  -14.9908 C   0  0  2  0  0  0  0  0  0  0  0  0
   22.6302   -6.9947  -15.6300 N   0  0  0  0  0  0  0  0  0  0  0  0
   22.0527   -5.1221  -14.2563 C   0  0  0  0  0  0  0  0  0  0  0  0
   21.2073   -4.2513  -13.5840 O   0  0  0  0  0  0  0  0  0  0  0  0
   23.2838   -4.8967  -14.2373 O   0  0  0  0  0  0  0  0  0  0  0  0
  2  1  1  0
  3  2  1  0
  3  4  1  1
  5  3  1  0
  5  6  1  6
  7  5  1  0
  8  7  2  0
  9  7  1  0
 10  9  1  0
 10 11  1  0
 11 16  1  0
 12 11  2  0
 14 13  1  0
 15 17  1  0
 15 14  1  1
 16 15  1  0
 17 18  1  0
 19 17  2  0
M  END
$$$$
