IGS.pdb
     RDKit          3D

 19 18  0  0  1  0  0  0  0  0999 V2000
   17.4727   -9.2869  -21.3500 C   0  0  0  0  0  0  0  0  0  0  0  0
   18.8640   -9.8308  -21.1346 C   0  0  0  0  0  0  0  0  0  0  0  0
   19.2746   -9.5253  -19.6903 C   0  0  2  0  0  0  0  0  0  0  0  0
   19.4715   -8.0249  -19.5089 C   0  0  0  0  0  0  0  0  0  0  0  0
   20.6108  -10.1977  -19.4813 C   0  0  2  0  0  0  0  0  0  0  0  0
   20.4378  -11.6213  -19.6863 N   0  0  0  0  0  0  0  0  0  0  0  0
   21.0898   -9.9145  -18.0876 C   0  0  0  0  0  0  0  0  0  0  0  0
   20.6052  -10.5376  -17.1102 O   0  0  0  0  0  0  0  0  0  0  0  0
   22.0870   -8.9484  -17.8572 N   0  0  0  0  0  0  0  0  0  0  0  0
   22.5469   -8.7117  -16.5181 C   0  0  0  0  0  0  0  0  0  0  0  0
   21.8125   -7.5607  -15.9179 C   0  0  0  0  0  0  0  0  0  0  0  0
   21.0347   -6.8686  -16.6220 O   0  0  0  0  0  0  0  0  0  0  0  0
   20.5109   -7.5101  -12.2116 O   0  0  0  0  0  0  0  0  0  0  0  0
   21.0812   -6.2694  -12.4563 C   0  0  0  0  0  0  0  0  0  0  0  0
   21.2127   -6.1174  -13.9537 C   0  0  2  0  0  0  0  0  0  0  0  0
   21.9558   -7.2015  -14.5509 N   0  0  0  0  0  0  0  0  0  0  0  0
   21.9169   -4.8343  -14.2019 C   0  0  0  0  0  0  0  0  0  0  0  0
   21.2615   -3.6138  -14.1264 O   0  0  0  0  0  0  0  0  0  0  0  0
   23.1355   -4.8435  -14.4880 O   0  0  0  0  0  0  0  0  0  0  0  0
  2  1  1  0
  3  2  1  0
  3  4  1  6
  5  3  1  0
  5  6  1  1
  7  5  1  0
  8  7  2  0
  9  7  1  0
 10  9  1  0
 10 11  1  0
 11 16  1  0
 12 11  2  0
 14 13  1  0
 15 17  1  0
 15 14  1  1
 16 15  1  0
 17 18  1  0
 19 17  2  0
M  END
$$$$
