IGS.pdb
     RDKit          3D

 19 18  0  0  1  0  0  0  0  0999 V2000
   25.3522  -30.9081  -17.6375 C   0  0  0  0  0  0  0  0  0  0  0  0
   25.6742  -29.7241  -16.7586 C   0  0  0  0  0  0  0  0  0  0  0  0
   26.8707  -28.9892  -17.3720 C   0  0  2  0  0  0  0  0  0  0  0  0
   28.1483  -29.7881  -17.1432 C   0  0  0  0  0  0  0  0  0  0  0  0
   26.9963  -27.6865  -16.6181 C   0  0  2  0  0  0  0  0  0  0  0  0
   25.7920  -26.9141  -16.8460 N   0  0  0  0  0  0  0  0  0  0  0  0
   28.2047  -26.9475  -17.1135 C   0  0  0  0  0  0  0  0  0  0  0  0
   28.4272  -26.8470  -18.3459 O   0  0  0  0  0  0  0  0  0  0  0  0
   29.1039  -26.3580  -16.2052 N   0  0  0  0  0  0  0  0  0  0  0  0
   30.3219  -25.7754  -16.6928 C   0  0  0  0  0  0  0  0  0  0  0  0
   30.0330  -24.4918  -17.3952 C   0  0  0  0  0  0  0  0  0  0  0  0
   28.9341  -23.9072  -17.2206 O   0  0  0  0  0  0  0  0  0  0  0  0
   31.8795  -20.6203  -18.5564 O   0  0  0  0  0  0  0  0  0  0  0  0
   31.9871  -21.8487  -19.1919 C   0  0  0  0  0  0  0  0  0  0  0  0
   30.7148  -22.6154  -18.9169 C   0  0  2  0  0  0  0  0  0  0  0  0
   30.9676  -23.8839  -18.2756 N   0  0  0  0  0  0  0  0  0  0  0  0
   30.0502  -22.8419  -20.2249 C   0  0  0  0  0  0  0  0  0  0  0  0
   29.3911  -21.8224  -20.8966 O   0  0  0  0  0  0  0  0  0  0  0  0
   30.0799  -23.9805  -20.7441 O   0  0  0  0  0  0  0  0  0  0  0  0
  2  1  1  0
  3  2  1  0
  3  4  1  1
  5  3  1  0
  5  6  1  6
  7  5  1  0
  8  7  2  0
  9  7  1  0
 10  9  1  0
 10 11  1  0
 11 16  1  0
 12 11  2  0
 14 13  1  0
 15 17  1  0
 15 14  1  6
 16 15  1  0
 17 18  1  0
 19 17  2  0
M  END
$$$$
