IGS.pdb
     RDKit          3D

 19 18  0  0  1  0  0  0  0  0999 V2000
   20.0161  -15.6574  -16.6307 C   0  0  0  0  0  0  0  0  0  0  0  0
   20.1548  -14.4512  -17.5270 C   0  0  0  0  0  0  0  0  0  0  0  0
   19.7907  -13.2077  -16.7090 C   0  0  2  0  0  0  0  0  0  0  0  0
   18.3274  -13.2692  -16.2875 C   0  0  0  0  0  0  0  0  0  0  0  0
   19.9571  -12.0288  -17.6384 C   0  0  2  0  0  0  0  0  0  0  0  0
   21.3694  -11.8706  -17.9201 N   0  0  0  0  0  0  0  0  0  0  0  0
   19.4052  -10.8004  -16.9763 C   0  0  0  0  0  0  0  0  0  0  0  0
   18.1783  -10.7130  -16.7207 O   0  0  0  0  0  0  0  0  0  0  0  0
   20.2538   -9.7313  -16.6331 N   0  0  0  0  0  0  0  0  0  0  0  0
   19.7140   -8.5917  -15.9469 C   0  0  0  0  0  0  0  0  0  0  0  0
   20.7877   -7.5881  -15.6930 C   0  0  0  0  0  0  0  0  0  0  0  0
   21.9957   -7.8997  -15.8460 O   0  0  0  0  0  0  0  0  0  0  0  0
   19.9217   -3.8321  -14.2152 O   0  0  0  0  0  0  0  0  0  0  0  0
   20.9311   -3.8480  -15.1667 C   0  0  0  0  0  0  0  0  0  0  0  0
   21.5168   -5.2406  -15.1844 C   0  0  2  0  0  0  0  0  0  0  0  0
   20.4998   -6.2612  -15.2752 N   0  0  0  0  0  0  0  0  0  0  0  0
   22.2806   -5.4089  -13.9226 C   0  0  0  0  0  0  0  0  0  0  0  0
   23.4504   -4.7049  -13.6763 O   0  0  0  0  0  0  0  0  0  0  0  0
   21.8657   -6.2057  -13.0508 O   0  0  0  0  0  0  0  0  0  0  0  0
  2  1  1  0
  3  2  1  0
  3  4  1  6
  5  3  1  0
  5  6  1  1
  7  5  1  0
  8  7  2  0
  9  7  1  0
 10  9  1  0
 10 11  1  0
 11 16  1  0
 12 11  2  0
 14 13  1  0
 15 17  1  0
 15 14  1  1
 16 15  1  0
 17 18  1  0
 19 17  2  0
M  END
$$$$
