IGS.pdb
     RDKit          3D

 19 18  0  0  1  0  0  0  0  0999 V2000
   19.2243  -14.1748  -19.7910 C   0  0  0  0  0  0  0  0  0  0  0  0
   19.5514  -12.7025  -19.7335 C   0  0  0  0  0  0  0  0  0  0  0  0
   19.6607  -12.2980  -18.2596 C   0  0  2  0  0  0  0  0  0  0  0  0
   18.3372  -12.5526  -17.5480 C   0  0  0  0  0  0  0  0  0  0  0  0
   19.9145  -10.8091  -18.2494 C   0  0  2  0  0  0  0  0  0  0  0  0
   21.3015  -10.5842  -18.6024 N   0  0  0  0  0  0  0  0  0  0  0  0
   19.6194  -10.2705  -16.8802 C   0  0  0  0  0  0  0  0  0  0  0  0
   18.4410  -10.2523  -16.4448 O   0  0  0  0  0  0  0  0  0  0  0  0
   20.6574   -9.7793  -16.0665 N   0  0  0  0  0  0  0  0  0  0  0  0
   20.3364   -9.0980  -14.8443 C   0  0  0  0  0  0  0  0  0  0  0  0
   20.3291   -7.6230  -15.0644 C   0  0  0  0  0  0  0  0  0  0  0  0
   19.5265   -7.1082  -15.8834 O   0  0  0  0  0  0  0  0  0  0  0  0
   22.9621   -5.2342  -13.0387 O   0  0  0  0  0  0  0  0  0  0  0  0
   21.7917   -4.5778  -13.3905 C   0  0  0  0  0  0  0  0  0  0  0  0
   21.1893   -5.3191  -14.5609 C   0  0  2  0  0  0  0  0  0  0  0  0
   21.2111   -6.7502  -14.3725 N   0  0  0  0  0  0  0  0  0  0  0  0
   21.9871   -4.9621  -15.7610 C   0  0  0  0  0  0  0  0  0  0  0  0
   21.8992   -3.7099  -16.3517 O   0  0  0  0  0  0  0  0  0  0  0  0
   22.7633   -5.8076  -16.2608 O   0  0  0  0  0  0  0  0  0  0  0  0
  2  1  1  0
  3  2  1  0
  3  4  1  1
  5  3  1  0
  5  6  1  1
  7  5  1  0
  8  7  2  0
  9  7  1  0
 10  9  1  0
 10 11  1  0
 11 16  1  0
 12 11  2  0
 14 13  1  0
 15 17  1  0
 15 14  1  1
 16 15  1  0
 17 18  1  0
 19 17  2  0
M  END
$$$$
