GYV.pdb
     RDKit          3D

 24 24  0  0  1  0  0  0  0  0999 V2000
    4.8273  -19.0728   20.4228 N   0  0  0  0  0  0  0  0  0  0  0  0
    4.6783  -18.4138   21.6829 C   0  0  0  0  0  0  0  0  0  0  0  0
    6.0051  -17.9538   22.2257 C   0  0  0  0  0  0  0  0  0  0  0  0
    7.0361  -18.6504   22.0460 O   0  0  0  0  0  0  0  0  0  0  0  0
    8.5908  -12.6298   18.3630 O   0  0  0  0  0  0  0  0  0  0  0  0
    8.3288  -13.1580   19.6195 C   0  0  0  0  0  0  0  0  0  0  0  0
    9.4050  -13.4418   20.4645 C   0  0  0  0  0  0  0  0  0  0  0  0
    9.1135  -13.9692   21.7150 C   0  0  0  0  0  0  0  0  0  0  0  0
    7.8318  -14.2157   22.1395 C   0  0  0  0  0  0  0  0  0  0  0  0
    7.5126  -14.7741   23.4656 C   0  0  0  0  0  0  0  0  0  0  0  0
    7.4040  -16.2724   23.4916 C   0  0  2  0  0  0  0  0  0  0  0  0
    6.1503  -16.7472   22.9447 N   0  0  0  0  0  0  0  0  0  0  0  0
    7.6138  -16.8042   24.8763 C   0  0  0  0  0  0  0  0  0  0  0  0
    6.7680  -16.6387   25.7888 O   0  0  0  0  0  0  0  0  0  0  0  0
    6.8101  -13.9159   21.2627 C   0  0  0  0  0  0  0  0  0  0  0  0
    7.0333  -13.3927   20.0130 C   0  0  0  0  0  0  0  0  0  0  0  0
    7.9747  -20.2642   25.8106 C   0  0  0  0  0  0  0  0  0  0  0  0
    9.1788  -19.6187   26.4509 C   0  0  2  0  0  0  0  0  0  0  0  0
    9.3665  -20.2411   27.8163 C   0  0  0  0  0  0  0  0  0  0  0  0
    8.9478  -18.1239   26.5312 C   0  0  2  0  0  0  0  0  0  0  0  0
    8.7986  -17.5327   25.2285 N   0  0  0  0  0  0  0  0  0  0  0  0
   10.0142  -17.4476   27.3268 C   0  0  0  0  0  0  0  0  0  0  0  0
   10.1011  -17.6974   28.6873 O   0  0  0  0  0  0  0  0  0  0  0  0
   10.8381  -16.6578   26.8053 O   0  0  0  0  0  0  0  0  0  0  0  0
  2  1  1  0
  3  2  1  0
  4  3  2  0
  5  6  1  0
  6 16  2  0
  7  6  1  0
  7  8  2  0
  8  9  1  0
  9 15  2  0
  9 10  1  0
 11 10  1  1
 11 13  1  0
 11 12  1  0
 12  3  1  0
 13 21  1  0
 14 13  2  0
 16 15  1  0
 18 20  1  0
 18 17  1  1
 19 18  1  0
 20 22  1  0
 20 21  1  6
 22 24  2  0
 22 23  1  0
M  END
$$$$
