GYV.pdb
     RDKit          3D

 24 24  0  0  1  0  0  0  0  0999 V2000
    6.7618  -19.5435   19.6088 N   0  0  0  0  0  0  0  0  0  0  0  0
    6.3497  -19.5384   20.9779 C   0  0  0  0  0  0  0  0  0  0  0  0
    7.0021  -18.4204   21.7467 C   0  0  0  0  0  0  0  0  0  0  0  0
    8.0044  -17.8287   21.2714 O   0  0  0  0  0  0  0  0  0  0  0  0
    8.0019  -11.6104   27.2625 O   0  0  0  0  0  0  0  0  0  0  0  0
    7.5388  -12.7570   26.6324 C   0  0  0  0  0  0  0  0  0  0  0  0
    7.8497  -14.0000   27.1903 C   0  0  0  0  0  0  0  0  0  0  0  0
    7.3735  -15.1296   26.5390 C   0  0  0  0  0  0  0  0  0  0  0  0
    6.6240  -15.0674   25.3910 C   0  0  0  0  0  0  0  0  0  0  0  0
    6.1130  -16.2610   24.6934 C   0  0  0  0  0  0  0  0  0  0  0  0
    7.1045  -16.9011   23.7636 C   0  0  2  0  0  0  0  0  0  0  0  0
    6.5302  -17.9942   23.0075 N   0  0  0  0  0  0  0  0  0  0  0  0
    8.3252  -17.3529   24.5052 C   0  0  0  0  0  0  0  0  0  0  0  0
    8.3094  -18.3465   25.2717 O   0  0  0  0  0  0  0  0  0  0  0  0
    6.3486  -13.8135   24.8865 C   0  0  0  0  0  0  0  0  0  0  0  0
    6.7907  -12.6590   25.4839 C   0  0  0  0  0  0  0  0  0  0  0  0
   13.2369  -17.4935   24.4911 C   0  0  0  0  0  0  0  0  0  0  0  0
   11.9870  -16.8297   23.9679 C   0  0  2  0  0  0  0  0  0  0  0  0
   12.1965  -15.3334   24.0303 C   0  0  0  0  0  0  0  0  0  0  0  0
   10.8078  -17.2771   24.8068 C   0  0  2  0  0  0  0  0  0  0  0  0
    9.5789  -16.6676   24.3742 N   0  0  0  0  0  0  0  0  0  0  0  0
   11.0547  -17.0522   26.2615 C   0  0  0  0  0  0  0  0  0  0  0  0
   11.8829  -17.9265   26.9477 O   0  0  0  0  0  0  0  0  0  0  0  0
   10.5371  -16.0958   26.8875 O   0  0  0  0  0  0  0  0  0  0  0  0
  2  1  1  0
  3  2  1  0
  4  3  2  0
  5  6  1  0
  6 16  2  0
  7  6  1  0
  7  8  2  0
  8  9  1  0
  9 15  2  0
  9 10  1  0
 11 10  1  1
 11 13  1  0
 11 12  1  0
 12  3  1  0
 13 21  1  0
 14 13  2  0
 16 15  1  0
 18 20  1  0
 18 17  1  1
 19 18  1  0
 20 22  1  0
 20 21  1  6
 22 24  2  0
 22 23  1  0
M  END
$$$$
