GYV.pdb
     RDKit          3D

 24 24  0  0  1  0  0  0  0  0999 V2000
    5.7633  -19.6033   20.0795 N   0  0  0  0  0  0  0  0  0  0  0  0
    5.4654  -18.6561   21.1084 C   0  0  0  0  0  0  0  0  0  0  0  0
    6.7202  -18.0811   21.7095 C   0  0  0  0  0  0  0  0  0  0  0  0
    7.8314  -18.6279   21.4934 O   0  0  0  0  0  0  0  0  0  0  0  0
    8.3774  -12.1424   18.2250 O   0  0  0  0  0  0  0  0  0  0  0  0
    8.2230  -12.7972   19.4390 C   0  0  0  0  0  0  0  0  0  0  0  0
    6.9318  -12.9852   19.9392 C   0  0  0  0  0  0  0  0  0  0  0  0
    6.8073  -13.6432   21.1552 C   0  0  0  0  0  0  0  0  0  0  0  0
    7.8864  -14.1049   21.8665 C   0  0  0  0  0  0  0  0  0  0  0  0
    7.7640  -14.8056   23.1574 C   0  0  0  0  0  0  0  0  0  0  0  0
    7.8969  -16.2990   23.0611 C   0  0  2  0  0  0  0  0  0  0  0  0
    6.7081  -16.9282   22.5248 N   0  0  0  0  0  0  0  0  0  0  0  0
    8.2600  -16.8946   24.3869 C   0  0  0  0  0  0  0  0  0  0  0  0
    7.4709  -16.8792   25.3627 O   0  0  0  0  0  0  0  0  0  0  0  0
    9.1362  -13.8908   21.3235 C   0  0  0  0  0  0  0  0  0  0  0  0
    9.3252  -13.2469   20.1256 C   0  0  0  0  0  0  0  0  0  0  0  0
    9.8014  -20.4195   24.7129 C   0  0  0  0  0  0  0  0  0  0  0  0
   10.6174  -19.4861   25.5727 C   0  0  2  0  0  0  0  0  0  0  0  0
   10.9550  -20.2136   26.8548 C   0  0  0  0  0  0  0  0  0  0  0  0
    9.8152  -18.2262   25.8249 C   0  0  2  0  0  0  0  0  0  0  0  0
    9.5348  -17.5152   24.6065 N   0  0  0  0  0  0  0  0  0  0  0  0
   10.4757  -17.3505   26.8370 C   0  0  0  0  0  0  0  0  0  0  0  0
   11.2714  -16.3014   26.4041 O   0  0  0  0  0  0  0  0  0  0  0  0
   10.3357  -17.5313   28.0708 O   0  0  0  0  0  0  0  0  0  0  0  0
  2  1  1  0
  3  2  1  0
  4  3  2  0
  5  6  1  0
  6 16  2  0
  7  6  1  0
  7  8  2  0
  8  9  1  0
  9 15  2  0
  9 10  1  0
 11 10  1  1
 11 13  1  0
 11 12  1  0
 12  3  1  0
 13 21  1  0
 14 13  2  0
 16 15  1  0
 18 20  1  0
 18 17  1  6
 19 18  1  0
 20 22  1  0
 20 21  1  6
 22 24  2  0
 22 23  1  0
M  END
$$$$
