GYV.pdb
     RDKit          3D

 24 24  0  0  1  0  0  0  0  0999 V2000
    5.1214  -21.1695   24.2259 N   0  0  0  0  0  0  0  0  0  0  0  0
    6.0987  -20.3076   23.6374 C   0  0  0  0  0  0  0  0  0  0  0  0
    6.4727  -19.1823   24.5650 C   0  0  0  0  0  0  0  0  0  0  0  0
    5.5883  -18.6092   25.2504 O   0  0  0  0  0  0  0  0  0  0  0  0
   10.8320  -14.1036   30.1551 O   0  0  0  0  0  0  0  0  0  0  0  0
   10.5348  -14.9565   29.1013 C   0  0  0  0  0  0  0  0  0  0  0  0
   10.6337  -14.4681   27.7957 C   0  0  0  0  0  0  0  0  0  0  0  0
   10.3305  -15.3431   26.7617 C   0  0  0  0  0  0  0  0  0  0  0  0
    9.9454  -16.6431   26.9743 C   0  0  0  0  0  0  0  0  0  0  0  0
    9.6228  -17.5797   25.8829 C   0  0  0  0  0  0  0  0  0  0  0  0
    8.1845  -17.5473   25.4502 C   0  0  2  0  0  0  0  0  0  0  0  0
    7.8026  -18.7288   24.7054 N   0  0  0  0  0  0  0  0  0  0  0  0
    7.8850  -16.3064   24.6662 C   0  0  0  0  0  0  0  0  0  0  0  0
    7.9551  -16.2768   23.4134 O   0  0  0  0  0  0  0  0  0  0  0  0
    9.8653  -17.0695   28.2837 C   0  0  0  0  0  0  0  0  0  0  0  0
   10.1521  -16.2528   29.3496 C   0  0  0  0  0  0  0  0  0  0  0  0
    8.1271  -12.2363   26.1927 C   0  0  0  0  0  0  0  0  0  0  0  0
    6.9050  -12.7148   25.4484 C   0  0  2  0  0  0  0  0  0  0  0  0
    5.8631  -13.1062   26.4721 C   0  0  0  0  0  0  0  0  0  0  0  0
    7.2973  -13.8768   24.5594 C   0  0  2  0  0  0  0  0  0  0  0  0
    7.5014  -15.0847   25.3132 N   0  0  0  0  0  0  0  0  0  0  0  0
    8.4829  -13.5442   23.7159 C   0  0  0  0  0  0  0  0  0  0  0  0
    8.3460  -12.6136   22.6978 O   0  0  0  0  0  0  0  0  0  0  0  0
    9.6033  -14.0793   23.8966 O   0  0  0  0  0  0  0  0  0  0  0  0
  2  1  1  0
  3  2  1  0
  4  3  2  0
  5  6  1  0
  6 16  2  0
  7  6  1  0
  7  8  2  0
  8  9  1  0
  9 15  2  0
  9 10  1  0
 11 10  1  6
 11 13  1  0
 11 12  1  0
 12  3  1  0
 13 21  1  0
 14 13  2  0
 16 15  1  0
 18 20  1  0
 18 17  1  1
 19 18  1  0
 20 22  1  0
 20 21  1  1
 22 24  2  0
 22 23  1  0
M  END
$$$$
