GYV.pdb
     RDKit          3D

 24 24  0  0  1  0  0  0  0  0999 V2000
   13.1562  -19.0529   16.3689 N   0  0  0  0  0  0  0  0  0  0  0  0
   14.2680  -18.5499   17.1140 C   0  0  0  0  0  0  0  0  0  0  0  0
   14.0863  -18.7690   18.5924 C   0  0  0  0  0  0  0  0  0  0  0  0
   12.9729  -19.1399   19.0432 O   0  0  0  0  0  0  0  0  0  0  0  0
   17.6476  -24.5233   19.6057 O   0  0  0  0  0  0  0  0  0  0  0  0
   17.3117  -23.2626   20.0795 C   0  0  0  0  0  0  0  0  0  0  0  0
   16.5527  -23.1668   21.2488 C   0  0  0  0  0  0  0  0  0  0  0  0
   16.2315  -21.8937   21.6993 C   0  0  0  0  0  0  0  0  0  0  0  0
   16.6260  -20.7515   21.0488 C   0  0  0  0  0  0  0  0  0  0  0  0
   16.2910  -19.3958   21.5203 C   0  0  0  0  0  0  0  0  0  0  0  0
   15.0226  -18.8388   20.9387 C   0  0  2  0  0  0  0  0  0  0  0  0
   15.1330  -18.5729   19.5197 N   0  0  0  0  0  0  0  0  0  0  0  0
   14.5854  -17.6102   21.6760 C   0  0  0  0  0  0  0  0  0  0  0  0
   15.2788  -16.5643   21.6981 O   0  0  0  0  0  0  0  0  0  0  0  0
   17.3732  -20.9078   19.8999 C   0  0  0  0  0  0  0  0  0  0  0  0
   17.7232  -22.1392   19.4034 C   0  0  0  0  0  0  0  0  0  0  0  0
   10.8666  -17.4026   23.9542 C   0  0  0  0  0  0  0  0  0  0  0  0
   11.3892  -16.2761   23.0971 C   0  0  2  0  0  0  0  0  0  0  0  0
   10.7603  -16.4059   21.7280 C   0  0  0  0  0  0  0  0  0  0  0  0
   12.9004  -16.3636   23.0423 C   0  0  2  0  0  0  0  0  0  0  0  0
   13.3455  -17.5694   22.3969 N   0  0  0  0  0  0  0  0  0  0  0  0
   13.5069  -16.2048   24.3968 C   0  0  0  0  0  0  0  0  0  0  0  0
   13.6178  -14.9350   24.9410 O   0  0  0  0  0  0  0  0  0  0  0  0
   13.9216  -17.1842   25.0627 O   0  0  0  0  0  0  0  0  0  0  0  0
  2  1  1  0
  3  2  1  0
  4  3  2  0
  5  6  1  0
  6 16  2  0
  7  6  1  0
  7  8  2  0
  8  9  1  0
  9 15  2  0
  9 10  1  0
 11 10  1  1
 11 13  1  0
 11 12  1  0
 12  3  1  0
 13 21  1  0
 14 13  2  0
 16 15  1  0
 18 20  1  0
 18 17  1  1
 19 18  1  0
 20 22  1  0
 20 21  1  1
 22 24  2  0
 22 23  1  0
M  END
$$$$
