GYV.pdb
     RDKit          3D

 24 24  0  0  1  0  0  0  0  0999 V2000
   12.4293  -16.7459   20.1296 N   0  0  0  0  0  0  0  0  0  0  0  0
   11.3174  -17.3055   20.8331 C   0  0  0  0  0  0  0  0  0  0  0  0
   10.8860  -16.4239   21.9748 C   0  0  0  0  0  0  0  0  0  0  0  0
   11.6809  -15.5743   22.4511 O   0  0  0  0  0  0  0  0  0  0  0  0
    5.9235  -11.4253   27.1696 O   0  0  0  0  0  0  0  0  0  0  0  0
    6.3502  -12.4139   26.2938 C   0  0  0  0  0  0  0  0  0  0  0  0
    6.0388  -13.7451   26.5832 C   0  0  0  0  0  0  0  0  0  0  0  0
    6.4781  -14.7126   25.6900 C   0  0  0  0  0  0  0  0  0  0  0  0
    7.1922  -14.4118   24.5573 C   0  0  0  0  0  0  0  0  0  0  0  0
    7.6616  -15.4319   23.6026 C   0  0  0  0  0  0  0  0  0  0  0  0
    9.1429  -15.6790   23.6461 C   0  0  2  0  0  0  0  0  0  0  0  0
    9.5993  -16.5081   22.5503 N   0  0  0  0  0  0  0  0  0  0  0  0
    9.5532  -16.2661   24.9619 C   0  0  0  0  0  0  0  0  0  0  0  0
    9.7384  -17.4982   25.1128 O   0  0  0  0  0  0  0  0  0  0  0  0
    7.4700  -13.0810   24.3235 C   0  0  0  0  0  0  0  0  0  0  0  0
    7.0635  -12.0779   25.1684 C   0  0  0  0  0  0  0  0  0  0  0  0
    9.1767  -14.3713   28.7957 C   0  0  0  0  0  0  0  0  0  0  0  0
   10.5205  -14.9211   28.3852 C   0  0  2  0  0  0  0  0  0  0  0  0
   11.3558  -13.7688   27.8741 C   0  0  0  0  0  0  0  0  0  0  0  0
   10.3111  -15.9873   27.3299 C   0  0  2  0  0  0  0  0  0  0  0  0
    9.7555  -15.4435   26.1199 N   0  0  0  0  0  0  0  0  0  0  0  0
    9.4941  -17.1216   27.8529 C   0  0  0  0  0  0  0  0  0  0  0  0
   10.0197  -17.9268   28.8512 O   0  0  0  0  0  0  0  0  0  0  0  0
    8.3439  -17.3729   27.4191 O   0  0  0  0  0  0  0  0  0  0  0  0
  2  1  1  0
  3  2  1  0
  4  3  2  0
  5  6  1  0
  6 16  2  0
  7  6  1  0
  7  8  2  0
  8  9  1  0
  9 15  2  0
  9 10  1  0
 11 10  1  1
 11 13  1  0
 11 12  1  0
 12  3  1  0
 13 21  1  0
 14 13  2  0
 16 15  1  0
 18 20  1  0
 18 17  1  6
 19 18  1  0
 20 22  1  0
 20 21  1  6
 22 24  2  0
 22 23  1  0
M  END
$$$$
