GYV.pdb
     RDKit          3D

 24 24  0  0  1  0  0  0  0  0999 V2000
    9.6450  -17.1902   18.3117 N   0  0  0  0  0  0  0  0  0  0  0  0
    8.4893  -17.1636   19.1533 C   0  0  0  0  0  0  0  0  0  0  0  0
    8.7481  -16.3961   20.4224 C   0  0  0  0  0  0  0  0  0  0  0  0
    9.9063  -15.9842   20.6857 O   0  0  0  0  0  0  0  0  0  0  0  0
    7.3278  -12.1178   28.0626 O   0  0  0  0  0  0  0  0  0  0  0  0
    7.1758  -12.7544   26.8386 C   0  0  0  0  0  0  0  0  0  0  0  0
    7.5770  -12.0836   25.6802 C   0  0  0  0  0  0  0  0  0  0  0  0
    7.4133  -12.7441   24.4704 C   0  0  0  0  0  0  0  0  0  0  0  0
    6.8824  -14.0062   24.3763 C   0  0  0  0  0  0  0  0  0  0  0  0
    6.7060  -14.7159   23.0966 C   0  0  0  0  0  0  0  0  0  0  0  0
    7.9404  -15.4201   22.6092 C   0  0  2  0  0  0  0  0  0  0  0  0
    7.7264  -16.1098   21.3541 N   0  0  0  0  0  0  0  0  0  0  0  0
    8.4700  -16.3610   23.6477 C   0  0  0  0  0  0  0  0  0  0  0  0
    7.8628  -17.4123   23.9659 O   0  0  0  0  0  0  0  0  0  0  0  0
    6.5042  -14.6190   25.5528 C   0  0  0  0  0  0  0  0  0  0  0  0
    6.6404  -14.0187   26.7801 C   0  0  0  0  0  0  0  0  0  0  0  0
   12.5383  -16.1110   24.9206 C   0  0  0  0  0  0  0  0  0  0  0  0
   11.7374  -17.3840   24.7999 C   0  0  2  0  0  0  0  0  0  0  0  0
   11.8582  -17.8737   23.3742 C   0  0  0  0  0  0  0  0  0  0  0  0
   10.3010  -17.0968   25.1857 C   0  0  2  0  0  0  0  0  0  0  0  0
    9.7041  -16.1043   24.3329 N   0  0  0  0  0  0  0  0  0  0  0  0
   10.1850  -16.7294   26.6276 C   0  0  0  0  0  0  0  0  0  0  0  0
    9.6862  -15.4816   26.9673 O   0  0  0  0  0  0  0  0  0  0  0  0
   10.5244  -17.5133   27.5468 O   0  0  0  0  0  0  0  0  0  0  0  0
  2  1  1  0
  3  2  1  0
  4  3  2  0
  5  6  1  0
  6 16  2  0
  7  6  1  0
  7  8  2  0
  8  9  1  0
  9 15  2  0
  9 10  1  0
 11 10  1  1
 11 13  1  0
 11 12  1  0
 12  3  1  0
 13 21  1  0
 14 13  2  0
 16 15  1  0
 18 20  1  0
 18 17  1  6
 19 18  1  0
 20 22  1  0
 20 21  1  6
 22 24  2  0
 22 23  1  0
M  END
$$$$
