GYV.pdb
     RDKit          3D

 24 24  0  0  1  0  0  0  0  0999 V2000
    4.3886  -20.9187   23.7565 N   0  0  0  0  0  0  0  0  0  0  0  0
    5.7562  -20.5035   23.7993 C   0  0  0  0  0  0  0  0  0  0  0  0
    5.8779  -19.0029   23.7966 C   0  0  0  0  0  0  0  0  0  0  0  0
    5.3280  -18.3268   22.8904 O   0  0  0  0  0  0  0  0  0  0  0  0
    6.4898  -10.7827   26.6496 O   0  0  0  0  0  0  0  0  0  0  0  0
    6.6907  -12.1489   26.5090 C   0  0  0  0  0  0  0  0  0  0  0  0
    7.9908  -12.6167   26.3002 C   0  0  0  0  0  0  0  0  0  0  0  0
    8.1621  -13.9874   26.1631 C   0  0  0  0  0  0  0  0  0  0  0  0
    7.1200  -14.8784   26.2246 C   0  0  0  0  0  0  0  0  0  0  0  0
    7.2923  -16.3352   26.0815 C   0  0  0  0  0  0  0  0  0  0  0  0
    6.8588  -16.8775   24.7491 C   0  0  2  0  0  0  0  0  0  0  0  0
    6.5982  -18.3012   24.7880 N   0  0  0  0  0  0  0  0  0  0  0  0
    7.8587  -16.5503   23.6826 C   0  0  0  0  0  0  0  0  0  0  0  0
    8.8766  -17.2572   23.4843 O   0  0  0  0  0  0  0  0  0  0  0  0
    5.8593  -14.3588   26.4326 C   0  0  0  0  0  0  0  0  0  0  0  0
    5.6247  -13.0135   26.5758 C   0  0  0  0  0  0  0  0  0  0  0  0
    8.1986  -12.7995   21.4738 C   0  0  0  0  0  0  0  0  0  0  0  0
    8.0030  -14.1203   20.7711 C   0  0  2  0  0  0  0  0  0  0  0  0
    6.5287  -14.2707   20.4699 C   0  0  0  0  0  0  0  0  0  0  0  0
    8.5201  -15.2302   21.6629 C   0  0  2  0  0  0  0  0  0  0  0  0
    7.7002  -15.4063   22.8313 N   0  0  0  0  0  0  0  0  0  0  0  0
    9.9543  -15.0217   22.0197 C   0  0  0  0  0  0  0  0  0  0  0  0
   10.3045  -14.8899   23.3543 O   0  0  0  0  0  0  0  0  0  0  0  0
   10.8575  -14.9613   21.1508 O   0  0  0  0  0  0  0  0  0  0  0  0
  2  1  1  0
  3  2  1  0
  4  3  2  0
  5  6  1  0
  6 16  2  0
  7  6  1  0
  7  8  2  0
  8  9  1  0
  9 15  2  0
  9 10  1  0
 11 10  1  1
 11 13  1  0
 11 12  1  0
 12  3  1  0
 13 21  1  0
 14 13  2  0
 16 15  1  0
 18 20  1  0
 18 17  1  1
 19 18  1  0
 20 22  1  0
 20 21  1  1
 22 24  2  0
 22 23  1  0
M  END
$$$$
