GYV.pdb
     RDKit          3D

 24 24  0  0  1  0  0  0  0  0999 V2000
    7.4625  -13.2106   19.5114 N   0  0  0  0  0  0  0  0  0  0  0  0
    6.8729  -13.9372   20.5925 C   0  0  0  0  0  0  0  0  0  0  0  0
    7.8221  -14.0657   21.7540 C   0  0  0  0  0  0  0  0  0  0  0  0
    9.0637  -14.0175   21.5626 O   0  0  0  0  0  0  0  0  0  0  0  0
   10.9049  -14.9060   30.0205 O   0  0  0  0  0  0  0  0  0  0  0  0
   10.0900  -14.7144   28.9134 C   0  0  0  0  0  0  0  0  0  0  0  0
   10.1076  -13.4709   28.2759 C   0  0  0  0  0  0  0  0  0  0  0  0
    9.2827  -13.3076   27.1715 C   0  0  0  0  0  0  0  0  0  0  0  0
    8.4686  -14.3047   26.6954 C   0  0  0  0  0  0  0  0  0  0  0  0
    7.5906  -14.1410   25.5229 C   0  0  0  0  0  0  0  0  0  0  0  0
    8.2480  -14.4684   24.2123 C   0  0  2  0  0  0  0  0  0  0  0  0
    7.3730  -14.2421   23.0811 N   0  0  0  0  0  0  0  0  0  0  0  0
    8.7696  -15.8727   24.2066 C   0  0  0  0  0  0  0  0  0  0  0  0
    8.0046  -16.8675   24.1887 O   0  0  0  0  0  0  0  0  0  0  0  0
    8.4932  -15.5105   27.3650 C   0  0  0  0  0  0  0  0  0  0  0  0
    9.2868  -15.7343   28.4629 C   0  0  0  0  0  0  0  0  0  0  0  0
   12.6873  -16.8078   22.9586 C   0  0  0  0  0  0  0  0  0  0  0  0
   11.5151  -17.7578   22.9505 C   0  0  2  0  0  0  0  0  0  0  0  0
   10.7438  -17.5306   21.6698 C   0  0  0  0  0  0  0  0  0  0  0  0
   10.6690  -17.5011   24.1804 C   0  0  2  0  0  0  0  0  0  0  0  0
   10.1773  -16.1501   24.2215 N   0  0  0  0  0  0  0  0  0  0  0  0
   11.3984  -17.8627   25.4313 C   0  0  0  0  0  0  0  0  0  0  0  0
   11.8150  -19.1719   25.6142 O   0  0  0  0  0  0  0  0  0  0  0  0
   11.6487  -17.0200   26.3267 O   0  0  0  0  0  0  0  0  0  0  0  0
  2  1  1  0
  3  2  1  0
  4  3  2  0
  5  6  1  0
  6 16  2  0
  7  6  1  0
  7  8  2  0
  8  9  1  0
  9 15  2  0
  9 10  1  0
 11 10  1  1
 11 13  1  0
 11 12  1  0
 12  3  1  0
 13 21  1  0
 14 13  2  0
 16 15  1  0
 18 20  1  0
 18 17  1  6
 19 18  1  0
 20 22  1  0
 20 21  1  1
 22 24  2  0
 22 23  1  0
M  END
$$$$
