EHQ.pdb
     RDKit          3D

 29 29  0  0  1  0  0  0  0  0999 V2000
   25.5661  -20.8956  -13.1073 N   0  0  0  0  0  0  0  0  0  0  0  0
   26.1284  -20.2635  -14.2671 C   0  0  1  0  0  0  0  0  0  0  0  0
   25.8855  -21.1115  -15.4836 C   0  0  0  0  0  0  0  0  0  0  0  0
   24.4259  -21.3470  -15.6903 C   0  0  0  0  0  0  0  0  0  0  0  0
   24.1623  -22.3240  -16.7744 C   0  0  0  0  0  0  0  0  0  0  0  0
   23.6549  -21.9817  -17.8728 O   0  0  0  0  0  0  0  0  0  0  0  0
   25.5930  -18.8861  -14.4685 C   0  0  0  0  0  0  0  0  0  0  0  0
   24.4379  -18.5981  -14.1065 O   0  0  0  0  0  0  0  0  0  0  0  0
   24.4648  -23.6682  -16.6259 O   0  0  0  0  0  0  0  0  0  0  0  0
   26.4018  -17.8737  -15.0827 N   0  0  0  0  0  0  0  0  0  0  0  0
   25.9151  -16.5317  -15.2964 C   0  0  1  0  0  0  0  0  0  0  0  0
   27.0415  -15.5544  -15.4869 C   0  0  0  0  0  0  0  0  0  0  0  0
   26.5885  -14.1860  -15.7521 C   0  0  0  0  0  0  0  0  0  0  0  0
   25.2866  -13.7806  -15.8862 C   0  0  0  0  0  0  0  0  0  0  0  0
   25.2923  -12.4601  -16.1208 N   0  0  0  0  0  0  0  0  0  0  0  0
   26.5675  -12.0030  -16.1417 C   0  0  0  0  0  0  0  0  0  0  0  0
   27.3452  -13.0913  -15.9111 N   0  0  0  0  0  0  0  0  0  0  0  0
   25.1071  -16.5353  -16.5640 C   0  0  0  0  0  0  0  0  0  0  0  0
   25.6294  -16.9995  -17.6065 O   0  0  0  0  0  0  0  0  0  0  0  0
   19.8736  -17.5194  -15.8463 N   0  0  0  0  0  0  0  0  0  0  0  0
   19.8132  -16.0755  -15.7992 C   0  0  0  0  0  0  0  0  0  0  0  0
   18.9832  -15.4989  -15.0616 O   0  0  0  0  0  0  0  0  0  0  0  0
   20.7732  -15.3596  -16.6620 C   0  0  0  0  0  0  0  0  0  0  0  0
   21.5406  -16.3389  -17.4943 C   0  0  0  0  0  0  0  0  0  0  0  0
   22.9584  -16.0063  -17.7739 C   0  0  2  0  0  0  0  0  0  0  0  0
   23.7775  -16.0229  -16.5781 N   0  0  0  0  0  0  0  0  0  0  0  0
   23.1366  -14.7153  -18.5287 C   0  0  0  0  0  0  0  0  0  0  0  0
   23.6099  -13.7037  -17.9537 O   0  0  0  0  0  0  0  0  0  0  0  0
   22.7964  -14.5744  -19.8617 O   0  0  0  0  0  0  0  0  0  0  0  0
  2  1  1  1
  2  3  1  0
  2  7  1  0
  3  4  1  0
  4  5  1  0
  5  6  2  0
  7  8  2  0
  9  5  1  0
 10  7  1  0
 10 11  1  0
 11 12  1  6
 13 12  1  0
 14 13  2  0
 15 14  1  0
 16 15  1  0
 16 17  2  0
 17 13  1  0
 18 26  1  0
 18 11  1  0
 19 18  2  0
 20 21  1  0
 21 22  2  0
 23 24  1  0
 23 21  1  0
 25 24  1  1
 25 27  1  0
 25 26  1  0
 27 29  1  0
 28 27  2  0
M  END
$$$$
