EHQ.pdb
     RDKit          3D

 29 29  0  0  1  0  0  0  0  0999 V2000
   16.2520  -18.2194    2.8760 N   0  0  0  0  0  0  0  0  0  0  0  0
   15.8225  -17.1575    3.7413 C   0  0  1  0  0  0  0  0  0  0  0  0
   14.7437  -17.6504    4.6639 C   0  0  0  0  0  0  0  0  0  0  0  0
   13.5061  -17.9975    3.9045 C   0  0  0  0  0  0  0  0  0  0  0  0
   12.7695  -16.7933    3.4498 C   0  0  0  0  0  0  0  0  0  0  0  0
   13.2024  -15.6300    3.6518 O   0  0  0  0  0  0  0  0  0  0  0  0
   16.9552  -16.5752    4.5173 C   0  0  0  0  0  0  0  0  0  0  0  0
   17.8676  -17.3044    4.9467 O   0  0  0  0  0  0  0  0  0  0  0  0
   11.5623  -16.8951    2.7770 O   0  0  0  0  0  0  0  0  0  0  0  0
   17.0091  -15.1666    4.7802 N   0  0  0  0  0  0  0  0  0  0  0  0
   18.0874  -14.5698    5.5316 C   0  0  1  0  0  0  0  0  0  0  0  0
   18.1788  -13.0882    5.2938 C   0  0  0  0  0  0  0  0  0  0  0  0
   19.3300  -12.4616    5.9497 C   0  0  0  0  0  0  0  0  0  0  0  0
   20.2799  -13.1063    6.6974 C   0  0  0  0  0  0  0  0  0  0  0  0
   21.1600  -12.1867    7.1202 N   0  0  0  0  0  0  0  0  0  0  0  0
   20.8007  -10.9631    6.6632 C   0  0  0  0  0  0  0  0  0  0  0  0
   19.6674  -11.1645    5.9439 N   0  0  0  0  0  0  0  0  0  0  0  0
   17.7925  -14.7708    6.9918 C   0  0  0  0  0  0  0  0  0  0  0  0
   16.6179  -14.5927    7.3962 O   0  0  0  0  0  0  0  0  0  0  0  0
   19.6094  -19.0484   10.6617 N   0  0  0  0  0  0  0  0  0  0  0  0
   18.1942  -18.9301   10.3901 C   0  0  0  0  0  0  0  0  0  0  0  0
   17.4287  -19.9020   10.5769 O   0  0  0  0  0  0  0  0  0  0  0  0
   17.7392  -17.6180    9.8901 C   0  0  0  0  0  0  0  0  0  0  0  0
   18.8991  -16.6762    9.7985 C   0  0  0  0  0  0  0  0  0  0  0  0
   18.6050  -15.3042    9.3191 C   0  0  2  0  0  0  0  0  0  0  0  0
   18.8260  -15.1560    7.8942 N   0  0  0  0  0  0  0  0  0  0  0  0
   19.3267  -14.2296   10.0889 C   0  0  0  0  0  0  0  0  0  0  0  0
   20.3622  -13.6973    9.6173 O   0  0  0  0  0  0  0  0  0  0  0  0
   18.9019  -13.7815   11.3263 O   0  0  0  0  0  0  0  0  0  0  0  0
  2  1  1  1
  2  3  1  0
  2  7  1  0
  3  4  1  0
  4  5  1  0
  5  6  2  0
  7  8  2  0
  9  5  1  0
 10  7  1  0
 10 11  1  0
 11 12  1  1
 13 12  1  0
 14 13  2  0
 15 14  1  0
 16 15  1  0
 16 17  2  0
 17 13  1  0
 18 26  1  0
 18 11  1  0
 19 18  2  0
 20 21  1  0
 21 22  2  0
 23 24  1  0
 23 21  1  0
 25 24  1  1
 25 27  1  0
 25 26  1  0
 27 29  1  0
 28 27  2  0
M  END
$$$$
