EHQ.pdb
     RDKit          3D

 29 29  0  0  1  0  0  0  0  0999 V2000
   16.2029  -10.2932  -12.4464 N   0  0  0  0  0  0  0  0  0  0  0  0
   16.8582   -9.1092  -11.9671 C   0  0  1  0  0  0  0  0  0  0  0  0
   17.4394   -8.3405  -13.1201 C   0  0  0  0  0  0  0  0  0  0  0  0
   18.8383   -8.7770  -13.4046 C   0  0  0  0  0  0  0  0  0  0  0  0
   19.8163   -7.6751  -13.2346 C   0  0  0  0  0  0  0  0  0  0  0  0
   19.7979   -6.6483  -13.9602 O   0  0  0  0  0  0  0  0  0  0  0  0
   15.9413   -8.2472  -11.1668 C   0  0  0  0  0  0  0  0  0  0  0  0
   14.8218   -7.9334  -11.6102 O   0  0  0  0  0  0  0  0  0  0  0  0
   20.8020   -7.7266  -12.2619 O   0  0  0  0  0  0  0  0  0  0  0  0
   16.3368   -7.7672   -9.8748 N   0  0  0  0  0  0  0  0  0  0  0  0
   15.5316   -6.8305   -9.1278 C   0  0  1  0  0  0  0  0  0  0  0  0
   15.0908   -7.4025   -7.8092 C   0  0  0  0  0  0  0  0  0  0  0  0
   13.9038   -8.2561   -7.9108 C   0  0  0  0  0  0  0  0  0  0  0  0
   13.1323   -8.4326   -9.0292 C   0  0  0  0  0  0  0  0  0  0  0  0
   12.1461   -9.2855   -8.7145 N   0  0  0  0  0  0  0  0  0  0  0  0
   12.2625   -9.6640   -7.4189 C   0  0  0  0  0  0  0  0  0  0  0  0
   13.3566   -9.0123   -6.9490 N   0  0  0  0  0  0  0  0  0  0  0  0
   16.3854   -5.6295   -8.8310 C   0  0  0  0  0  0  0  0  0  0  0  0
   17.6200   -5.7948   -8.6773 O   0  0  0  0  0  0  0  0  0  0  0  0
   17.6223   -3.9731  -13.1452 N   0  0  0  0  0  0  0  0  0  0  0  0
   17.8276   -2.5852  -12.7956 C   0  0  0  0  0  0  0  0  0  0  0  0
   18.3271   -1.7899  -13.6222 O   0  0  0  0  0  0  0  0  0  0  0  0
   17.4176   -2.1942  -11.4327 C   0  0  0  0  0  0  0  0  0  0  0  0
   16.8347   -3.3725  -10.7169 C   0  0  0  0  0  0  0  0  0  0  0  0
   16.4101   -3.1540   -9.3130 C   0  0  2  0  0  0  0  0  0  0  0  0
   15.8029   -4.3330   -8.7280 N   0  0  0  0  0  0  0  0  0  0  0  0
   15.5256   -1.9486   -9.1320 C   0  0  0  0  0  0  0  0  0  0  0  0
   16.0295   -0.8163   -8.9271 O   0  0  0  0  0  0  0  0  0  0  0  0
   14.1453   -2.0191   -9.1784 O   0  0  0  0  0  0  0  0  0  0  0  0
  2  1  1  6
  2  3  1  0
  2  7  1  0
  3  4  1  0
  4  5  1  0
  5  6  2  0
  7  8  2  0
  9  5  1  0
 10  7  1  0
 10 11  1  0
 11 12  1  1
 13 12  1  0
 14 13  2  0
 15 14  1  0
 16 15  1  0
 16 17  2  0
 17 13  1  0
 18 26  1  0
 18 11  1  0
 19 18  2  0
 20 21  1  0
 21 22  2  0
 23 24  1  0
 23 21  1  0
 25 24  1  6
 25 27  1  0
 25 26  1  0
 27 29  1  0
 28 27  2  0
M  END
$$$$
