EHQ.pdb
     RDKit          3D

 29 29  0  0  1  0  0  0  0  0999 V2000
   25.9643  -18.1104  -19.4934 N   0  0  0  0  0  0  0  0  0  0  0  0
   26.0445  -18.6714  -18.1744 C   0  0  1  0  0  0  0  0  0  0  0  0
   27.4220  -18.4646  -17.6105 C   0  0  0  0  0  0  0  0  0  0  0  0
   28.4230  -19.3208  -18.3130 C   0  0  0  0  0  0  0  0  0  0  0  0
   28.2926  -20.7523  -17.9481 C   0  0  0  0  0  0  0  0  0  0  0  0
   28.2886  -21.1385  -16.7514 O   0  0  0  0  0  0  0  0  0  0  0  0
   25.0101  -18.1050  -17.2615 C   0  0  0  0  0  0  0  0  0  0  0  0
   25.1179  -16.9437  -16.8278 O   0  0  0  0  0  0  0  0  0  0  0  0
   28.1685  -21.7368  -18.9154 O   0  0  0  0  0  0  0  0  0  0  0  0
   23.8763  -18.8908  -16.8701 N   0  0  0  0  0  0  0  0  0  0  0  0
   22.8646  -18.3807  -15.9757 C   0  0  1  0  0  0  0  0  0  0  0  0
   21.5487  -18.1862  -16.6760 C   0  0  0  0  0  0  0  0  0  0  0  0
   21.5058  -16.9852  -17.5149 C   0  0  0  0  0  0  0  0  0  0  0  0
   21.3682  -16.9595  -18.8778 C   0  0  0  0  0  0  0  0  0  0  0  0
   21.3740  -15.6753  -19.2647 N   0  0  0  0  0  0  0  0  0  0  0  0
   21.5123  -14.8708  -18.1835 C   0  0  0  0  0  0  0  0  0  0  0  0
   21.5912  -15.7079  -17.1179 N   0  0  0  0  0  0  0  0  0  0  0  0
   22.6499  -19.4054  -14.8971 C   0  0  0  0  0  0  0  0  0  0  0  0
   22.4084  -20.5898  -15.2350 O   0  0  0  0  0  0  0  0  0  0  0  0
   25.5559  -20.9767  -10.6222 N   0  0  0  0  0  0  0  0  0  0  0  0
   24.4336  -21.2356   -9.7482 C   0  0  0  0  0  0  0  0  0  0  0  0
   24.5323  -22.0663   -8.8178 O   0  0  0  0  0  0  0  0  0  0  0  0
   23.2035  -20.4708  -10.0316 C   0  0  0  0  0  0  0  0  0  0  0  0
   23.3946  -19.6315  -11.2563 C   0  0  0  0  0  0  0  0  0  0  0  0
   22.5917  -20.0007  -12.4470 C   0  0  2  0  0  0  0  0  0  0  0  0
   22.7203  -19.0372  -13.5223 N   0  0  0  0  0  0  0  0  0  0  0  0
   21.1426  -20.2687  -12.1367 C   0  0  0  0  0  0  0  0  0  0  0  0
   20.2982  -19.3405  -12.1968 O   0  0  0  0  0  0  0  0  0  0  0  0
   20.6728  -21.5183  -11.7762 O   0  0  0  0  0  0  0  0  0  0  0  0
  2  1  1  6
  2  3  1  0
  2  7  1  0
  3  4  1  0
  4  5  1  0
  5  6  2  0
  7  8  2  0
  9  5  1  0
 10  7  1  0
 10 11  1  0
 11 12  1  6
 13 12  1  0
 14 13  2  0
 15 14  1  0
 16 15  1  0
 16 17  2  0
 17 13  1  0
 18 26  1  0
 18 11  1  0
 19 18  2  0
 20 21  1  0
 21 22  2  0
 23 24  1  0
 23 21  1  0
 25 24  1  1
 25 27  1  0
 25 26  1  0
 27 29  1  0
 28 27  2  0
M  END
$$$$
