EHQ.pdb
     RDKit          3D

 29 29  0  0  1  0  0  0  0  0999 V2000
   25.4257  -32.7791   -3.4863 N   0  0  0  0  0  0  0  0  0  0  0  0
   25.6260  -33.5397   -2.2854 C   0  0  1  0  0  0  0  0  0  0  0  0
   27.0453  -34.0285   -2.2168 C   0  0  0  0  0  0  0  0  0  0  0  0
   27.3462  -34.9610   -3.3431 C   0  0  0  0  0  0  0  0  0  0  0  0
   28.7302  -35.4900   -3.2801 C   0  0  0  0  0  0  0  0  0  0  0  0
   29.5764  -35.2550   -4.1801 O   0  0  0  0  0  0  0  0  0  0  0  0
   25.2772  -32.7587   -1.0637 C   0  0  0  0  0  0  0  0  0  0  0  0
   25.7184  -31.6063   -0.9032 O   0  0  0  0  0  0  0  0  0  0  0  0
   29.1576  -36.2731   -2.2196 O   0  0  0  0  0  0  0  0  0  0  0  0
   24.4284  -33.3247   -0.0560 N   0  0  0  0  0  0  0  0  0  0  0  0
   24.0747  -32.5998    1.1411 C   0  0  1  0  0  0  0  0  0  0  0  0
   22.8247  -33.1452    1.7737 C   0  0  0  0  0  0  0  0  0  0  0  0
   21.6710  -32.2494    1.6536 C   0  0  0  0  0  0  0  0  0  0  0  0
   21.6804  -30.9933    1.1066 C   0  0  0  0  0  0  0  0  0  0  0  0
   20.4337  -30.5047    1.1845 N   0  0  0  0  0  0  0  0  0  0  0  0
   19.6192  -31.4158    1.7693 C   0  0  0  0  0  0  0  0  0  0  0  0
   20.4113  -32.4823    2.0478 N   0  0  0  0  0  0  0  0  0  0  0  0
   25.1917  -32.7796    2.1308 C   0  0  0  0  0  0  0  0  0  0  0  0
   25.7643  -33.8947    2.1923 O   0  0  0  0  0  0  0  0  0  0  0  0
   27.6052  -28.1489    5.4732 N   0  0  0  0  0  0  0  0  0  0  0  0
   28.3365  -29.2104    6.1281 C   0  0  0  0  0  0  0  0  0  0  0  0
   29.1629  -28.9487    7.0303 O   0  0  0  0  0  0  0  0  0  0  0  0
   28.0431  -30.5801    5.6632 C   0  0  0  0  0  0  0  0  0  0  0  0
   27.0375  -30.5390    4.5551 C   0  0  0  0  0  0  0  0  0  0  0  0
   26.6290  -31.8430    3.9795 C   0  0  2  0  0  0  0  0  0  0  0  0
   25.5897  -31.7055    2.9785 N   0  0  0  0  0  0  0  0  0  0  0  0
   26.2436  -32.8649    5.0166 C   0  0  0  0  0  0  0  0  0  0  0  0
   25.0532  -32.9549    5.4075 O   0  0  0  0  0  0  0  0  0  0  0  0
   27.1550  -33.7372    5.5829 O   0  0  0  0  0  0  0  0  0  0  0  0
  2  1  1  6
  2  3  1  0
  2  7  1  0
  3  4  1  0
  4  5  1  0
  5  6  2  0
  7  8  2  0
  9  5  1  0
 10  7  1  0
 10 11  1  0
 11 12  1  1
 13 12  1  0
 14 13  2  0
 15 14  1  0
 16 15  1  0
 16 17  2  0
 17 13  1  0
 18 26  1  0
 18 11  1  0
 19 18  2  0
 20 21  1  0
 21 22  2  0
 23 24  1  0
 23 21  1  0
 25 24  1  1
 25 27  1  0
 25 26  1  0
 27 29  1  0
 28 27  2  0
M  END
$$$$
