EHQ.pdb
     RDKit          3D

 29 29  0  0  1  0  0  0  0  0999 V2000
   25.5457  -21.2633  -12.8359 N   0  0  0  0  0  0  0  0  0  0  0  0
   24.9479  -21.2199  -14.1404 C   0  0  1  0  0  0  0  0  0  0  0  0
   24.1913  -22.4916  -14.4020 C   0  0  0  0  0  0  0  0  0  0  0  0
   23.1227  -22.6994  -13.3805 C   0  0  0  0  0  0  0  0  0  0  0  0
   22.4537  -24.0149  -13.5268 C   0  0  0  0  0  0  0  0  0  0  0  0
   23.0662  -25.0987  -13.3499 O   0  0  0  0  0  0  0  0  0  0  0  0
   24.0604  -20.0334  -14.3100 C   0  0  0  0  0  0  0  0  0  0  0  0
   23.6159  -19.4298  -13.3167 O   0  0  0  0  0  0  0  0  0  0  0  0
   21.1139  -24.1109  -13.8675 O   0  0  0  0  0  0  0  0  0  0  0  0
   23.7062  -19.5710  -15.6203 N   0  0  0  0  0  0  0  0  0  0  0  0
   22.8613  -18.4182  -15.8218 C   0  0  1  0  0  0  0  0  0  0  0  0
   22.7533  -18.0540  -17.2763 C   0  0  0  0  0  0  0  0  0  0  0  0
   22.0427  -16.7940  -17.5115 C   0  0  0  0  0  0  0  0  0  0  0  0
   21.4570  -16.0090  -16.5534 C   0  0  0  0  0  0  0  0  0  0  0  0
   20.9136  -14.9491  -17.1701 N   0  0  0  0  0  0  0  0  0  0  0  0
   21.1345  -15.0311  -18.5042 C   0  0  0  0  0  0  0  0  0  0  0  0
   21.8337  -16.1805  -18.6846 N   0  0  0  0  0  0  0  0  0  0  0  0
   21.4805  -18.7752  -15.3467 C   0  0  0  0  0  0  0  0  0  0  0  0
   21.2274  -19.9771  -15.0890 O   0  0  0  0  0  0  0  0  0  0  0  0
   19.8190  -19.0190  -10.5298 N   0  0  0  0  0  0  0  0  0  0  0  0
   19.5316  -20.1705  -11.3556 C   0  0  0  0  0  0  0  0  0  0  0  0
   19.4649  -21.3131  -10.8501 O   0  0  0  0  0  0  0  0  0  0  0  0
   19.3323  -19.9018  -12.7931 C   0  0  0  0  0  0  0  0  0  0  0  0
   19.4965  -18.4393  -13.0669 C   0  0  0  0  0  0  0  0  0  0  0  0
   19.2532  -17.9923  -14.4596 C   0  0  2  0  0  0  0  0  0  0  0  0
   20.4835  -17.7687  -15.1926 N   0  0  0  0  0  0  0  0  0  0  0  0
   18.3446  -16.7953  -14.5579 C   0  0  0  0  0  0  0  0  0  0  0  0
   18.8254  -15.6425  -14.6918 O   0  0  0  0  0  0  0  0  0  0  0  0
   16.9663  -16.8953  -14.5060 O   0  0  0  0  0  0  0  0  0  0  0  0
  2  1  1  1
  2  3  1  0
  2  7  1  0
  3  4  1  0
  4  5  1  0
  5  6  2  0
  7  8  2  0
  9  5  1  0
 10  7  1  0
 10 11  1  0
 11 12  1  6
 13 12  1  0
 14 13  2  0
 15 14  1  0
 16 15  1  0
 16 17  2  0
 17 13  1  0
 18 26  1  0
 18 11  1  0
 19 18  2  0
 20 21  1  0
 21 22  2  0
 23 24  1  0
 23 21  1  0
 25 24  1  1
 25 27  1  0
 25 26  1  0
 27 29  1  0
 28 27  2  0
M  END
$$$$
