EHQ.pdb
     RDKit          3D

 29 29  0  0  1  0  0  0  0  0999 V2000
   24.9719  -31.9001   -8.8232 N   0  0  0  0  0  0  0  0  0  0  0  0
   24.9658  -33.1829   -8.1789 C   0  0  1  0  0  0  0  0  0  0  0  0
   25.9052  -34.1183   -8.8865 C   0  0  0  0  0  0  0  0  0  0  0  0
   25.8478  -35.4867   -8.2923 C   0  0  0  0  0  0  0  0  0  0  0  0
   25.0557  -36.4267   -9.1220 C   0  0  0  0  0  0  0  0  0  0  0  0
   24.8918  -37.6300   -8.7956 O   0  0  0  0  0  0  0  0  0  0  0  0
   25.3108  -33.0837   -6.7313 C   0  0  0  0  0  0  0  0  0  0  0  0
   26.3373  -32.4824   -6.3664 O   0  0  0  0  0  0  0  0  0  0  0  0
   24.4559  -36.0198  -10.3031 O   0  0  0  0  0  0  0  0  0  0  0  0
   24.4646  -33.6801   -5.7391 N   0  0  0  0  0  0  0  0  0  0  0  0
   24.7700  -33.6074   -4.3302 C   0  0  1  0  0  0  0  0  0  0  0  0
   23.5331  -33.3950   -3.5024 C   0  0  0  0  0  0  0  0  0  0  0  0
   23.1453  -31.9868   -3.3831 C   0  0  0  0  0  0  0  0  0  0  0  0
   23.8221  -30.9179   -3.9090 C   0  0  0  0  0  0  0  0  0  0  0  0
   23.1474  -29.8060   -3.5811 N   0  0  0  0  0  0  0  0  0  0  0  0
   22.0507  -30.1317   -2.8555 C   0  0  0  0  0  0  0  0  0  0  0  0
   22.0762  -31.4846   -2.7496 N   0  0  0  0  0  0  0  0  0  0  0  0
   25.3597  -34.9284   -3.9219 C   0  0  0  0  0  0  0  0  0  0  0  0
   24.9001  -35.9756   -4.4390 O   0  0  0  0  0  0  0  0  0  0  0  0
   30.7956  -36.5572   -4.0400 N   0  0  0  0  0  0  0  0  0  0  0  0
   30.7956  -36.0894   -2.6718 C   0  0  0  0  0  0  0  0  0  0  0  0
   31.8734  -35.8532   -2.0820 O   0  0  0  0  0  0  0  0  0  0  0  0
   29.4695  -35.9205   -2.0462 C   0  0  0  0  0  0  0  0  0  0  0  0
   28.4008  -36.4050   -2.9757 C   0  0  0  0  0  0  0  0  0  0  0  0
   26.9991  -36.2373   -2.5219 C   0  0  2  0  0  0  0  0  0  0  0  0
   26.4178  -34.9871   -2.9692 N   0  0  0  0  0  0  0  0  0  0  0  0
   26.8222  -36.4104   -1.0363 C   0  0  0  0  0  0  0  0  0  0  0  0
   27.1025  -37.5047   -0.4868 O   0  0  0  0  0  0  0  0  0  0  0  0
   26.3521  -35.4014   -0.2157 O   0  0  0  0  0  0  0  0  0  0  0  0
  2  1  1  6
  2  3  1  0
  2  7  1  0
  3  4  1  0
  4  5  1  0
  5  6  2  0
  7  8  2  0
  9  5  1  0
 10  7  1  0
 10 11  1  0
 11 12  1  1
 13 12  1  0
 14 13  2  0
 15 14  1  0
 16 15  1  0
 16 17  2  0
 17 13  1  0
 18 26  1  0
 18 11  1  0
 19 18  2  0
 20 21  1  0
 21 22  2  0
 23 24  1  0
 23 21  1  0
 25 24  1  1
 25 27  1  0
 25 26  1  0
 27 29  1  0
 28 27  2  0
M  END
$$$$
