EHQ.pdb
     RDKit          3D

 29 29  0  0  1  0  0  0  0  0999 V2000
   24.2131   -5.7517  -18.4888 N   0  0  0  0  0  0  0  0  0  0  0  0
   24.1773   -6.4559  -17.2383 C   0  0  1  0  0  0  0  0  0  0  0  0
   22.8332   -6.2829  -16.5889 C   0  0  0  0  0  0  0  0  0  0  0  0
   22.6417   -4.8790  -16.1188 C   0  0  0  0  0  0  0  0  0  0  0  0
   21.3430   -4.6900  -15.4282 C   0  0  0  0  0  0  0  0  0  0  0  0
   20.9557   -3.5612  -15.0317 O   0  0  0  0  0  0  0  0  0  0  0  0
   24.5025   -7.9022  -17.4011 C   0  0  0  0  0  0  0  0  0  0  0  0
   24.0979   -8.5328  -18.3946 O   0  0  0  0  0  0  0  0  0  0  0  0
   20.4907   -5.7555  -15.1862 O   0  0  0  0  0  0  0  0  0  0  0  0
   25.2859   -8.5874  -16.4147 N   0  0  0  0  0  0  0  0  0  0  0  0
   25.5712   -9.9991  -16.5105 C   0  0  1  0  0  0  0  0  0  0  0  0
   26.6306  -10.4211  -15.5308 C   0  0  0  0  0  0  0  0  0  0  0  0
   26.9980  -11.8356  -15.6415 C   0  0  0  0  0  0  0  0  0  0  0  0
   26.4603  -12.7409  -16.5181 C   0  0  0  0  0  0  0  0  0  0  0  0
   27.0602  -13.9214  -16.3051 N   0  0  0  0  0  0  0  0  0  0  0  0
   27.9728  -13.7999  -15.3112 C   0  0  0  0  0  0  0  0  0  0  0  0
   27.9116  -12.5012  -14.9214 N   0  0  0  0  0  0  0  0  0  0  0  0
   24.3141  -10.7440  -16.1579 C   0  0  0  0  0  0  0  0  0  0  0  0
   23.6031  -10.3096  -15.2193 O   0  0  0  0  0  0  0  0  0  0  0  0
   19.7113  -10.6771  -18.7531 N   0  0  0  0  0  0  0  0  0  0  0  0
   19.1994  -11.7820  -17.9736 C   0  0  0  0  0  0  0  0  0  0  0  0
   17.9792  -12.0582  -17.9893 O   0  0  0  0  0  0  0  0  0  0  0  0
   20.1951  -12.5316  -17.1828 C   0  0  0  0  0  0  0  0  0  0  0  0
   21.5555  -11.9396  -17.3813 C   0  0  0  0  0  0  0  0  0  0  0  0
   22.6763  -12.5939  -16.6641 C   0  0  2  0  0  0  0  0  0  0  0  0
   23.9402  -11.9168  -16.8759 N   0  0  0  0  0  0  0  0  0  0  0  0
   22.8004  -14.0662  -16.9561 C   0  0  0  0  0  0  0  0  0  0  0  0
   23.6774  -14.4837  -17.7528 O   0  0  0  0  0  0  0  0  0  0  0  0
   21.9765  -15.0158  -16.3802 O   0  0  0  0  0  0  0  0  0  0  0  0
  2  1  1  6
  2  3  1  0
  2  7  1  0
  3  4  1  0
  4  5  1  0
  5  6  2  0
  7  8  2  0
  9  5  1  0
 10  7  1  0
 10 11  1  0
 11 12  1  1
 13 12  1  0
 14 13  2  0
 15 14  1  0
 16 15  1  0
 16 17  2  0
 17 13  1  0
 18 26  1  0
 18 11  1  0
 19 18  2  0
 20 21  1  0
 21 22  2  0
 23 24  1  0
 23 21  1  0
 25 24  1  6
 25 27  1  0
 25 26  1  0
 27 29  1  0
 28 27  2  0
M  END
$$$$
