EHQ.pdb
     RDKit          3D

 29 29  0  0  1  0  0  0  0  0999 V2000
   14.4133  -14.0462  -15.0432 N   0  0  0  0  0  0  0  0  0  0  0  0
   14.2975  -12.9739  -15.9907 C   0  0  1  0  0  0  0  0  0  0  0  0
   13.3444  -11.9328  -15.4752 C   0  0  0  0  0  0  0  0  0  0  0  0
   13.8587  -11.3096  -14.2199 C   0  0  0  0  0  0  0  0  0  0  0  0
   12.9289  -10.2898  -13.6770 C   0  0  0  0  0  0  0  0  0  0  0  0
   12.9193   -9.1043  -14.0964 O   0  0  0  0  0  0  0  0  0  0  0  0
   15.6208  -12.3653  -16.3114 C   0  0  0  0  0  0  0  0  0  0  0  0
   16.6016  -12.5594  -15.5707 O   0  0  0  0  0  0  0  0  0  0  0  0
   12.0218  -10.5982  -12.6757 O   0  0  0  0  0  0  0  0  0  0  0  0
   15.7818  -11.5472  -17.4781 N   0  0  0  0  0  0  0  0  0  0  0  0
   17.0596  -10.9874  -17.8489 C   0  0  1  0  0  0  0  0  0  0  0  0
   17.0692  -10.5192  -19.2775 C   0  0  0  0  0  0  0  0  0  0  0  0
   17.3357  -11.5908  -20.2411 C   0  0  0  0  0  0  0  0  0  0  0  0
   17.7005  -12.8757  -19.9360 C   0  0  0  0  0  0  0  0  0  0  0  0
   17.8491  -13.5429  -21.0900 N   0  0  0  0  0  0  0  0  0  0  0  0
   17.5890  -12.7189  -22.1335 C   0  0  0  0  0  0  0  0  0  0  0  0
   17.2751  -11.5208  -21.5782 N   0  0  0  0  0  0  0  0  0  0  0  0
   17.2994   -9.7830  -16.9821 C   0  0  0  0  0  0  0  0  0  0  0  0
   16.3080   -9.1929  -16.4881 O   0  0  0  0  0  0  0  0  0  0  0  0
   22.2186   -9.2041  -13.5610 N   0  0  0  0  0  0  0  0  0  0  0  0
   21.6319   -7.9451  -13.1592 C   0  0  0  0  0  0  0  0  0  0  0  0
   22.0956   -7.3111  -12.1853 O   0  0  0  0  0  0  0  0  0  0  0  0
   20.4809   -7.4834  -13.9595 C   0  0  0  0  0  0  0  0  0  0  0  0
   20.1144   -8.5219  -14.9734 C   0  0  0  0  0  0  0  0  0  0  0  0
   18.9155   -8.2480  -15.8019 C   0  0  2  0  0  0  0  0  0  0  0  0
   18.6245   -9.3243  -16.7281 N   0  0  0  0  0  0  0  0  0  0  0  0
   18.9674   -6.9236  -16.5171 C   0  0  0  0  0  0  0  0  0  0  0  0
   19.2619   -6.8720  -17.7372 O   0  0  0  0  0  0  0  0  0  0  0  0
   18.7025   -5.7215  -15.8868 O   0  0  0  0  0  0  0  0  0  0  0  0
  2  1  1  1
  2  3  1  0
  2  7  1  0
  3  4  1  0
  4  5  1  0
  5  6  2  0
  7  8  2  0
  9  5  1  0
 10  7  1  0
 10 11  1  0
 11 12  1  6
 13 12  1  0
 14 13  2  0
 15 14  1  0
 16 15  1  0
 16 17  2  0
 17 13  1  0
 18 26  1  0
 18 11  1  0
 19 18  2  0
 20 21  1  0
 21 22  2  0
 23 24  1  0
 23 21  1  0
 25 24  1  6
 25 27  1  0
 25 26  1  0
 27 29  1  0
 28 27  2  0
M  END
$$$$
