EHQ.pdb
     RDKit          3D

 29 29  0  0  1  0  0  0  0  0999 V2000
   20.1849  -13.3508  -17.4357 N   0  0  0  0  0  0  0  0  0  0  0  0
   19.8047  -12.0843  -17.9948 C   0  0  1  0  0  0  0  0  0  0  0  0
   18.3571  -11.8068  -17.7022 C   0  0  0  0  0  0  0  0  0  0  0  0
   18.1018  -11.7861  -16.2315 C   0  0  0  0  0  0  0  0  0  0  0  0
   16.6890  -11.4689  -15.9108 C   0  0  0  0  0  0  0  0  0  0  0  0
   16.2374  -10.2970  -15.9723 O   0  0  0  0  0  0  0  0  0  0  0  0
   20.6660  -10.9724  -17.4987 C   0  0  0  0  0  0  0  0  0  0  0  0
   21.1587  -11.0162  -16.3569 O   0  0  0  0  0  0  0  0  0  0  0  0
   15.7956  -12.4559  -15.5261 O   0  0  0  0  0  0  0  0  0  0  0  0
   20.9384   -9.8365  -18.3303 N   0  0  0  0  0  0  0  0  0  0  0  0
   21.8319   -8.7816  -17.9149 C   0  0  1  0  0  0  0  0  0  0  0  0
   22.3706   -8.0131  -19.0894 C   0  0  0  0  0  0  0  0  0  0  0  0
   23.3523   -8.7636  -19.8774 C   0  0  0  0  0  0  0  0  0  0  0  0
   23.8911   -9.9790  -19.5462 C   0  0  0  0  0  0  0  0  0  0  0  0
   24.7442  -10.3266  -20.5210 N   0  0  0  0  0  0  0  0  0  0  0  0
   24.7693   -9.3641  -21.4741 C   0  0  0  0  0  0  0  0  0  0  0  0
   23.9000   -8.4122  -21.0491 N   0  0  0  0  0  0  0  0  0  0  0  0
   21.0415   -7.8180  -17.0746 C   0  0  0  0  0  0  0  0  0  0  0  0
   19.7885   -7.8610  -17.1315 O   0  0  0  0  0  0  0  0  0  0  0  0
   19.7932   -9.2448  -12.5392 N   0  0  0  0  0  0  0  0  0  0  0  0
   19.5230   -7.9259  -12.0119 C   0  0  0  0  0  0  0  0  0  0  0  0
   18.9881   -7.7887  -10.8892 O   0  0  0  0  0  0  0  0  0  0  0  0
   19.9123   -6.7927  -12.8738 C   0  0  0  0  0  0  0  0  0  0  0  0
   20.5228   -7.3020  -14.1422 C   0  0  0  0  0  0  0  0  0  0  0  0
   21.0682   -6.2843  -15.0726 C   0  0  2  0  0  0  0  0  0  0  0  0
   21.7033   -6.8780  -16.2325 N   0  0  0  0  0  0  0  0  0  0  0  0
   21.9847   -5.2907  -14.4085 C   0  0  0  0  0  0  0  0  0  0  0  0
   23.2277   -5.4725  -14.4120 O   0  0  0  0  0  0  0  0  0  0  0  0
   21.5213   -4.1534  -13.7728 O   0  0  0  0  0  0  0  0  0  0  0  0
  2  1  1  1
  2  3  1  0
  2  7  1  0
  3  4  1  0
  4  5  1  0
  5  6  2  0
  7  8  2  0
  9  5  1  0
 10  7  1  0
 10 11  1  0
 11 12  1  6
 13 12  1  0
 14 13  2  0
 15 14  1  0
 16 15  1  0
 16 17  2  0
 17 13  1  0
 18 26  1  0
 18 11  1  0
 19 18  2  0
 20 21  1  0
 21 22  2  0
 23 24  1  0
 23 21  1  0
 25 24  1  1
 25 27  1  0
 25 26  1  0
 27 29  1  0
 28 27  2  0
M  END
$$$$
