EHQ.pdb
     RDKit          3D

 29 29  0  0  1  0  0  0  0  0999 V2000
   18.3961  -14.7705  -15.8934 N   0  0  0  0  0  0  0  0  0  0  0  0
   18.8365  -13.7418  -16.7927 C   0  0  1  0  0  0  0  0  0  0  0  0
   17.6671  -12.9050  -17.2292 C   0  0  0  0  0  0  0  0  0  0  0  0
   16.5956  -12.8976  -16.1897 C   0  0  0  0  0  0  0  0  0  0  0  0
   15.4039  -12.1248  -16.6166 C   0  0  0  0  0  0  0  0  0  0  0  0
   15.1754  -10.9627  -16.1942 O   0  0  0  0  0  0  0  0  0  0  0  0
   19.9000  -12.8882  -16.1889 C   0  0  0  0  0  0  0  0  0  0  0  0
   19.7682  -12.4347  -15.0376 O   0  0  0  0  0  0  0  0  0  0  0  0
   14.4812  -12.6513  -17.5064 O   0  0  0  0  0  0  0  0  0  0  0  0
   21.0897  -12.5775  -16.9265 N   0  0  0  0  0  0  0  0  0  0  0  0
   22.1205  -11.7214  -16.3895 C   0  0  1  0  0  0  0  0  0  0  0  0
   23.4693  -12.0410  -16.9716 C   0  0  0  0  0  0  0  0  0  0  0  0
   24.5620  -11.2724  -16.3689 C   0  0  0  0  0  0  0  0  0  0  0  0
   24.4436  -10.3751  -15.3405 C   0  0  0  0  0  0  0  0  0  0  0  0
   25.6659   -9.8876  -15.0811 N   0  0  0  0  0  0  0  0  0  0  0  0
   26.5711  -10.4490  -15.9182 C   0  0  0  0  0  0  0  0  0  0  0  0
   25.8601  -11.2995  -16.7015 N   0  0  0  0  0  0  0  0  0  0  0  0
   21.7890  -10.3080  -16.7790 C   0  0  0  0  0  0  0  0  0  0  0  0
   21.5381  -10.0612  -17.9837 O   0  0  0  0  0  0  0  0  0  0  0  0
   17.8757   -4.4680  -15.5819 N   0  0  0  0  0  0  0  0  0  0  0  0
   18.4314   -5.7684  -15.2808 C   0  0  0  0  0  0  0  0  0  0  0  0
   17.7503   -6.6242  -14.6732 O   0  0  0  0  0  0  0  0  0  0  0  0
   19.8187   -5.9983  -15.7291 C   0  0  0  0  0  0  0  0  0  0  0  0
   20.2071   -7.4221  -15.4784 C   0  0  0  0  0  0  0  0  0  0  0  0
   21.4541   -7.8948  -16.1266 C   0  0  2  0  0  0  0  0  0  0  0  0
   21.7603   -9.2733  -15.7995 N   0  0  0  0  0  0  0  0  0  0  0  0
   22.6417   -7.0053  -15.8685 C   0  0  0  0  0  0  0  0  0  0  0  0
   23.4746   -7.3013  -14.9760 O   0  0  0  0  0  0  0  0  0  0  0  0
   22.8746   -5.8424  -16.5796 O   0  0  0  0  0  0  0  0  0  0  0  0
  2  1  1  1
  2  3  1  0
  2  7  1  0
  3  4  1  0
  4  5  1  0
  5  6  2  0
  7  8  2  0
  9  5  1  0
 10  7  1  0
 10 11  1  0
 11 12  1  6
 13 12  1  0
 14 13  2  0
 15 14  1  0
 16 15  1  0
 16 17  2  0
 17 13  1  0
 18 26  1  0
 18 11  1  0
 19 18  2  0
 20 21  1  0
 21 22  2  0
 23 24  1  0
 23 21  1  0
 25 24  1  1
 25 27  1  0
 25 26  1  0
 27 29  1  0
 28 27  2  0
M  END
$$$$
