EHQ.pdb
     RDKit          3D

 29 29  0  0  1  0  0  0  0  0999 V2000
   22.1284  -13.6211  -15.8866 N   0  0  0  0  0  0  0  0  0  0  0  0
   21.5581  -12.3626  -16.2762 C   0  0  1  0  0  0  0  0  0  0  0  0
   20.0951  -12.3330  -15.9341 C   0  0  0  0  0  0  0  0  0  0  0  0
   19.3527  -13.4045  -16.6616 C   0  0  0  0  0  0  0  0  0  0  0  0
   17.8908  -13.3377  -16.4211 C   0  0  0  0  0  0  0  0  0  0  0  0
   17.0923  -14.1663  -16.9280 O   0  0  0  0  0  0  0  0  0  0  0  0
   22.2691  -11.2091  -15.6531 C   0  0  0  0  0  0  0  0  0  0  0  0
   22.4350  -11.1602  -14.4208 O   0  0  0  0  0  0  0  0  0  0  0  0
   17.3337  -12.3524  -15.6215 O   0  0  0  0  0  0  0  0  0  0  0  0
   22.7718  -10.1395  -16.4652 N   0  0  0  0  0  0  0  0  0  0  0  0
   23.5559   -9.0620  -15.9105 C   0  0  1  0  0  0  0  0  0  0  0  0
   24.9053   -8.9606  -16.5654 C   0  0  0  0  0  0  0  0  0  0  0  0
   25.7968  -10.0779  -16.2415 C   0  0  0  0  0  0  0  0  0  0  0  0
   25.4953  -11.1390  -15.4289 C   0  0  0  0  0  0  0  0  0  0  0  0
   26.5701  -11.9404  -15.3883 N   0  0  0  0  0  0  0  0  0  0  0  0
   27.5588  -11.4217  -16.1556 C   0  0  0  0  0  0  0  0  0  0  0  0
   27.0520  -10.2720  -16.6692 N   0  0  0  0  0  0  0  0  0  0  0  0
   22.8269   -7.7770  -16.1877 C   0  0  0  0  0  0  0  0  0  0  0  0
   22.2201   -7.6555  -17.2795 O   0  0  0  0  0  0  0  0  0  0  0  0
   18.0519   -6.6792  -15.5438 N   0  0  0  0  0  0  0  0  0  0  0  0
   18.2009   -5.2490  -15.3922 C   0  0  0  0  0  0  0  0  0  0  0  0
   17.1945   -4.5152  -15.2731 O   0  0  0  0  0  0  0  0  0  0  0  0
   19.5863   -4.7397  -15.3913 C   0  0  0  0  0  0  0  0  0  0  0  0
   20.5504   -5.8820  -15.4716 C   0  0  0  0  0  0  0  0  0  0  0  0
   21.9903   -5.5453  -15.3625 C   0  0  2  0  0  0  0  0  0  0  0  0
   22.8259   -6.7222  -15.2294 N   0  0  0  0  0  0  0  0  0  0  0  0
   22.2946   -4.5455  -14.2780 C   0  0  0  0  0  0  0  0  0  0  0  0
   22.0366   -3.3277  -14.4466 O   0  0  0  0  0  0  0  0  0  0  0  0
   22.8616   -4.9024  -13.0683 O   0  0  0  0  0  0  0  0  0  0  0  0
  2  1  1  1
  2  3  1  0
  2  7  1  0
  3  4  1  0
  4  5  1  0
  5  6  2  0
  7  8  2  0
  9  5  1  0
 10  7  1  0
 10 11  1  0
 11 12  1  6
 13 12  1  0
 14 13  2  0
 15 14  1  0
 16 15  1  0
 16 17  2  0
 17 13  1  0
 18 26  1  0
 18 11  1  0
 19 18  2  0
 20 21  1  0
 21 22  2  0
 23 24  1  0
 23 21  1  0
 25 24  1  1
 25 27  1  0
 25 26  1  0
 27 29  1  0
 28 27  2  0
M  END
$$$$
