EHQ.pdb
     RDKit          3D

 29 29  0  0  1  0  0  0  0  0999 V2000
   16.1507  -18.1526  -15.9967 N   0  0  0  0  0  0  0  0  0  0  0  0
   16.3965  -17.0980  -15.0541 C   0  0  1  0  0  0  0  0  0  0  0  0
   17.8463  -17.0888  -14.6592 C   0  0  0  0  0  0  0  0  0  0  0  0
   18.5305  -18.3396  -15.1019 C   0  0  0  0  0  0  0  0  0  0  0  0
   19.9927  -18.2968  -14.8579 C   0  0  0  0  0  0  0  0  0  0  0  0
   20.4760  -18.2926  -13.6970 O   0  0  0  0  0  0  0  0  0  0  0  0
   15.9856  -15.7662  -15.5848 C   0  0  0  0  0  0  0  0  0  0  0  0
   15.8637  -15.5845  -16.8098 O   0  0  0  0  0  0  0  0  0  0  0  0
   20.8999  -18.2590  -15.9048 O   0  0  0  0  0  0  0  0  0  0  0  0
   15.7254  -14.6755  -14.6910 N   0  0  0  0  0  0  0  0  0  0  0  0
   15.1404  -13.4369  -15.1462 C   0  0  1  0  0  0  0  0  0  0  0  0
   13.9738  -13.0247  -14.2922 C   0  0  0  0  0  0  0  0  0  0  0  0
   12.7974  -13.8829  -14.4574 C   0  0  0  0  0  0  0  0  0  0  0  0
   11.9433  -13.8808  -15.5287 C   0  0  0  0  0  0  0  0  0  0  0  0
   10.9998  -14.8063  -15.3006 N   0  0  0  0  0  0  0  0  0  0  0  0
   11.2243  -15.4062  -14.1068 C   0  0  0  0  0  0  0  0  0  0  0  0
   12.3406  -14.8152  -13.6098 N   0  0  0  0  0  0  0  0  0  0  0  0
   16.1866  -12.3647  -15.0215 C   0  0  0  0  0  0  0  0  0  0  0  0
   16.9954  -12.4249  -14.0639 O   0  0  0  0  0  0  0  0  0  0  0  0
   16.2939   -7.3541  -18.5263 N   0  0  0  0  0  0  0  0  0  0  0  0
   17.5040   -7.0308  -17.8040 C   0  0  0  0  0  0  0  0  0  0  0  0
   18.0133   -5.8917  -17.8969 O   0  0  0  0  0  0  0  0  0  0  0  0
   18.0731   -8.1137  -16.9783 C   0  0  0  0  0  0  0  0  0  0  0  0
   17.1872   -9.3190  -17.0355 C   0  0  0  0  0  0  0  0  0  0  0  0
   17.1775  -10.1941  -15.8385 C   0  0  2  0  0  0  0  0  0  0  0  0
   16.2562  -11.3051  -15.9719 N   0  0  0  0  0  0  0  0  0  0  0  0
   16.9389   -9.4505  -14.5507 C   0  0  0  0  0  0  0  0  0  0  0  0
   17.8790   -8.8348  -13.9895 O   0  0  0  0  0  0  0  0  0  0  0  0
   15.7042   -9.4064  -13.9294 O   0  0  0  0  0  0  0  0  0  0  0  0
  2  1  1  6
  2  3  1  0
  2  7  1  0
  3  4  1  0
  4  5  1  0
  5  6  2  0
  7  8  2  0
  9  5  1  0
 10  7  1  0
 10 11  1  0
 11 12  1  1
 13 12  1  0
 14 13  2  0
 15 14  1  0
 16 15  1  0
 16 17  2  0
 17 13  1  0
 18 26  1  0
 18 11  1  0
 19 18  2  0
 20 21  1  0
 21 22  2  0
 23 24  1  0
 23 21  1  0
 25 24  1  6
 25 27  1  0
 25 26  1  0
 27 29  1  0
 28 27  2  0
M  END
$$$$
