PNG.pdb
     RDKit          3D

 20 20  0  0  1  0  0  0  0  0999 V2000
    9.7595  -13.5765   18.9772 N   0  0  0  0  0  0  0  0  0  0  0  0
    8.9383  -13.2807   17.8191 C   0  0  0  0  0  0  0  0  0  0  0  0
    7.6358  -13.9766   18.2377 C   0  0  0  0  0  0  0  0  0  0  0  0
    7.4974  -13.3730   19.6426 C   0  0  0  0  0  0  0  0  0  0  0  0
    8.9025  -13.4977   20.1455 C   0  0  1  0  0  0  0  0  0  0  0  0
    9.1082  -14.6299   21.0608 C   0  0  0  0  0  0  0  0  0  0  0  0
    8.3768  -14.8280   22.0725 O   0  0  0  0  0  0  0  0  0  0  0  0
    8.1169  -19.3719   20.8626 N   0  0  0  0  0  0  0  0  0  0  0  0
    9.3843  -19.0471   21.4249 C   0  0  0  0  0  0  0  0  0  0  0  0
    9.7323  -19.7176   22.4160 O   0  0  0  0  0  0  0  0  0  0  0  0
   10.2464  -17.9937   20.8902 C   0  0  0  0  0  0  0  0  0  0  0  0
   10.3078  -16.7476   21.7065 C   0  0  2  0  0  0  0  0  0  0  0  0
   10.1465  -15.5618   20.8454 N   0  0  0  0  0  0  0  0  0  0  0  0
   11.5607  -16.5744   22.4806 C   0  0  0  0  0  0  0  0  0  0  0  0
   12.0259  -17.4076   23.2874 O   0  0  0  0  0  0  0  0  0  0  0  0
   12.3629  -15.3786   22.3477 N   0  0  0  0  0  0  0  0  0  0  0  0
   13.5510  -15.1841   23.1624 C   0  0  0  0  0  0  0  0  0  0  0  0
   14.7487  -15.5283   22.3943 C   0  0  0  0  0  0  0  0  0  0  0  0
   15.8983  -15.1891   22.7960 O   0  0  0  0  0  0  0  0  0  0  0  0
   14.6331  -16.2322   21.2144 O   0  0  0  0  0  0  0  0  0  0  0  0
  2  1  1  0
  3  2  1  0
  4  3  1  0
  4  5  1  0
  5  1  1  0
  6 13  1  0
  5  6  1  1
  7  6  2  0
  8  9  1  0
  9 10  2  0
 11  9  1  0
 12 11  1  6
 12 13  1  0
 12 14  1  0
 14 16  1  0
 15 14  2  0
 16 17  1  0
 18 17  1  0
 18 20  1  0
 19 18  2  0
M  END
$$$$
