PNG.pdb
     RDKit          3D

 20 20  0  0  1  0  0  0  0  0999 V2000
    8.5812  -14.9058   19.6332 N   0  0  0  0  0  0  0  0  0  0  0  0
    7.8342  -14.4512   18.4762 C   0  0  0  0  0  0  0  0  0  0  0  0
    6.8565  -13.4851   19.1595 C   0  0  0  0  0  0  0  0  0  0  0  0
    7.8726  -12.6739   19.9760 C   0  0  0  0  0  0  0  0  0  0  0  0
    8.7393  -13.7677   20.5193 C   0  0  1  0  0  0  0  0  0  0  0  0
    8.4537  -14.1123   21.9199 C   0  0  0  0  0  0  0  0  0  0  0  0
    8.3729  -13.2407   22.8318 O   0  0  0  0  0  0  0  0  0  0  0  0
    6.9554  -18.5562   25.6542 N   0  0  0  0  0  0  0  0  0  0  0  0
    6.5207  -17.3209   25.0948 C   0  0  0  0  0  0  0  0  0  0  0  0
    5.7848  -16.6209   25.8169 O   0  0  0  0  0  0  0  0  0  0  0  0
    6.9008  -16.8760   23.7544 C   0  0  0  0  0  0  0  0  0  0  0  0
    7.9380  -15.8059   23.7105 C   0  0  2  0  0  0  0  0  0  0  0  0
    8.2519  -15.4528   22.3140 N   0  0  0  0  0  0  0  0  0  0  0  0
    9.2130  -16.1501   24.3851 C   0  0  0  0  0  0  0  0  0  0  0  0
    9.3332  -16.4099   25.6014 O   0  0  0  0  0  0  0  0  0  0  0  0
   10.4560  -16.2111   23.6488 N   0  0  0  0  0  0  0  0  0  0  0  0
   11.7048  -16.5323   24.3201 C   0  0  0  0  0  0  0  0  0  0  0  0
   12.8274  -16.3789   23.3933 C   0  0  0  0  0  0  0  0  0  0  0  0
   12.6324  -16.0911   22.1779 O   0  0  0  0  0  0  0  0  0  0  0  0
   14.1203  -16.5485   23.8414 O   0  0  0  0  0  0  0  0  0  0  0  0
  2  1  1  0
  3  2  1  0
  4  3  1  0
  4  5  1  0
  5  1  1  0
  6 13  1  0
  5  6  1  1
  7  6  2  0
  8  9  1  0
  9 10  2  0
 11  9  1  0
 12 11  1  6
 12 13  1  0
 12 14  1  0
 14 16  1  0
 15 14  2  0
 16 17  1  0
 18 17  1  0
 18 20  1  0
 19 18  2  0
M  END
$$$$
