PNG.pdb
     RDKit          3D

 20 20  0  0  1  0  0  0  0  0999 V2000
    8.4516  -15.1899   19.9375 N   0  0  0  0  0  0  0  0  0  0  0  0
    7.4661  -14.9753   18.8955 C   0  0  0  0  0  0  0  0  0  0  0  0
    6.6390  -13.8569   19.5444 C   0  0  0  0  0  0  0  0  0  0  0  0
    7.7905  -12.9174   19.9297 C   0  0  0  0  0  0  0  0  0  0  0  0
    8.7739  -13.8920   20.5007 C   0  0  1  0  0  0  0  0  0  0  0  0
    8.8010  -13.9172   21.9706 C   0  0  0  0  0  0  0  0  0  0  0  0
    8.2722  -13.0114   22.6761 O   0  0  0  0  0  0  0  0  0  0  0  0
    7.4876  -16.9636   25.9958 N   0  0  0  0  0  0  0  0  0  0  0  0
    6.8029  -16.6489   24.7875 C   0  0  0  0  0  0  0  0  0  0  0  0
    5.6217  -17.0383   24.7094 O   0  0  0  0  0  0  0  0  0  0  0  0
    7.4257  -15.9132   23.6876 C   0  0  0  0  0  0  0  0  0  0  0  0
    8.8481  -15.5247   23.9081 C   0  0  2  0  0  0  0  0  0  0  0  0
    9.4267  -14.9718   22.6700 N   0  0  0  0  0  0  0  0  0  0  0  0
    9.7289  -16.6277   24.3629 C   0  0  0  0  0  0  0  0  0  0  0  0
    9.9964  -16.8861   25.5558 O   0  0  0  0  0  0  0  0  0  0  0  0
   10.3641  -17.5167   23.4156 N   0  0  0  0  0  0  0  0  0  0  0  0
   11.3968  -17.0312   22.5151 C   0  0  0  0  0  0  0  0  0  0  0  0
   12.7212  -17.3050   23.0753 C   0  0  0  0  0  0  0  0  0  0  0  0
   13.7068  -17.5518   22.3232 O   0  0  0  0  0  0  0  0  0  0  0  0
   12.9079  -17.2962   24.4414 O   0  0  0  0  0  0  0  0  0  0  0  0
  2  1  1  0
  3  2  1  0
  4  3  1  0
  4  5  1  0
  5  1  1  0
  6 13  1  0
  5  6  1  1
  7  6  2  0
  8  9  1  0
  9 10  2  0
 11  9  1  0
 12 11  1  6
 12 13  1  0
 12 14  1  0
 14 16  1  0
 15 14  2  0
 16 17  1  0
 18 17  1  0
 18 20  1  0
 19 18  2  0
M  END
$$$$
