PNG.pdb
     RDKit          3D

 20 20  0  0  1  0  0  0  0  0999 V2000
    7.1643  -14.7007   21.1010 N   0  0  0  0  0  0  0  0  0  0  0  0
    6.8396  -13.7330   20.0709 C   0  0  0  0  0  0  0  0  0  0  0  0
    7.4282  -12.4664   20.7074 C   0  0  0  0  0  0  0  0  0  0  0  0
    8.8215  -13.0119   21.0515 C   0  0  0  0  0  0  0  0  0  0  0  0
    8.4694  -14.3483   21.6284 C   0  0  1  0  0  0  0  0  0  0  0  0
    8.5025  -14.3889   23.0978 C   0  0  0  0  0  0  0  0  0  0  0  0
    9.5712  -14.2489   23.7581 O   0  0  0  0  0  0  0  0  0  0  0  0
    5.6639  -11.4692   25.4204 N   0  0  0  0  0  0  0  0  0  0  0  0
    6.6049  -12.4260   25.8971 C   0  0  0  0  0  0  0  0  0  0  0  0
    7.7015  -11.9734   26.2785 O   0  0  0  0  0  0  0  0  0  0  0  0
    6.3260  -13.8608   25.9467 C   0  0  0  0  0  0  0  0  0  0  0  0
    7.3588  -14.7309   25.3150 C   0  0  2  0  0  0  0  0  0  0  0  0
    7.3232  -14.5871   23.8482 N   0  0  0  0  0  0  0  0  0  0  0  0
    7.2298  -16.1745   25.6288 C   0  0  0  0  0  0  0  0  0  0  0  0
    6.2005  -16.8588   25.4454 O   0  0  0  0  0  0  0  0  0  0  0  0
    8.3341  -16.9192   26.1919 N   0  0  0  0  0  0  0  0  0  0  0  0
    8.2037  -18.3366   26.4867 C   0  0  0  0  0  0  0  0  0  0  0  0
    9.4718  -18.8630   26.9945 C   0  0  0  0  0  0  0  0  0  0  0  0
   10.5113  -18.8604   26.2752 O   0  0  0  0  0  0  0  0  0  0  0  0
    9.5449  -19.3714   28.2741 O   0  0  0  0  0  0  0  0  0  0  0  0
  2  1  1  0
  3  2  1  0
  4  3  1  0
  4  5  1  0
  5  1  1  0
  6 13  1  0
  5  6  1  1
  7  6  2  0
  8  9  1  0
  9 10  2  0
 11  9  1  0
 12 11  1  1
 12 13  1  0
 12 14  1  0
 14 16  1  0
 15 14  2  0
 16 17  1  0
 18 17  1  0
 18 20  1  0
 19 18  2  0
M  END
$$$$
