PNG.pdb
     RDKit          3D

 20 20  0  0  1  0  0  0  0  0999 V2000
    8.6760  -14.8909   20.2600 N   0  0  0  0  0  0  0  0  0  0  0  0
    7.6995  -14.8262   19.1898 C   0  0  0  0  0  0  0  0  0  0  0  0
    6.5970  -14.0200   19.8904 C   0  0  0  0  0  0  0  0  0  0  0  0
    7.4609  -12.8662   20.4192 C   0  0  0  0  0  0  0  0  0  0  0  0
    8.6419  -13.6165   20.9530 C   0  0  1  0  0  0  0  0  0  0  0  0
    8.6311  -13.7806   22.4142 C   0  0  0  0  0  0  0  0  0  0  0  0
    8.0032  -12.9970   23.1818 O   0  0  0  0  0  0  0  0  0  0  0  0
    7.4110  -13.0237   25.3222 N   0  0  0  0  0  0  0  0  0  0  0  0
    6.8916  -14.3448   25.2086 C   0  0  0  0  0  0  0  0  0  0  0  0
    5.7073  -14.5006   25.5635 O   0  0  0  0  0  0  0  0  0  0  0  0
    7.6802  -15.4701   24.7079 C   0  0  0  0  0  0  0  0  0  0  0  0
    9.1192  -15.1744   24.4537 C   0  0  2  0  0  0  0  0  0  0  0  0
    9.3308  -14.8386   23.0339 N   0  0  0  0  0  0  0  0  0  0  0  0
   10.0493  -16.2766   24.7989 C   0  0  0  0  0  0  0  0  0  0  0  0
   10.1108  -16.8405   25.9123 O   0  0  0  0  0  0  0  0  0  0  0  0
   10.9873  -16.7953   23.8283 N   0  0  0  0  0  0  0  0  0  0  0  0
   11.8871  -17.8847   24.1701 C   0  0  0  0  0  0  0  0  0  0  0  0
   12.6887  -18.2589   23.0038 C   0  0  0  0  0  0  0  0  0  0  0  0
   12.5559  -17.6532   21.9022 O   0  0  0  0  0  0  0  0  0  0  0  0
   13.6047  -19.2853   23.0966 O   0  0  0  0  0  0  0  0  0  0  0  0
  2  1  1  0
  3  2  1  0
  4  3  1  0
  4  5  1  0
  5  1  1  0
  6 13  1  0
  5  6  1  1
  7  6  2  0
  8  9  1  0
  9 10  2  0
 11  9  1  0
 12 11  1  6
 12 13  1  0
 12 14  1  0
 14 16  1  0
 15 14  2  0
 16 17  1  0
 18 17  1  0
 18 20  1  0
 19 18  2  0
M  END
$$$$
