PNG.pdb
     RDKit          3D

 20 20  0  0  1  0  0  0  0  0999 V2000
    7.4315  -14.9494   20.4542 N   0  0  0  0  0  0  0  0  0  0  0  0
    6.5385  -14.2800   19.5282 C   0  0  0  0  0  0  0  0  0  0  0  0
    6.6175  -12.8488   20.0773 C   0  0  0  0  0  0  0  0  0  0  0  0
    8.1455  -12.7146   20.1421 C   0  0  0  0  0  0  0  0  0  0  0  0
    8.5221  -14.0355   20.7390 C   0  0  1  0  0  0  0  0  0  0  0  0
    8.8313  -13.9725   22.1751 C   0  0  0  0  0  0  0  0  0  0  0  0
    9.6788  -13.1659   22.6535 O   0  0  0  0  0  0  0  0  0  0  0  0
    6.9143  -12.2363   24.9121 N   0  0  0  0  0  0  0  0  0  0  0  0
    6.3607  -13.4755   25.3432 C   0  0  0  0  0  0  0  0  0  0  0  0
    5.2000  -13.4299   25.7945 O   0  0  0  0  0  0  0  0  0  0  0  0
    7.0896  -14.7414   25.2713 C   0  0  0  0  0  0  0  0  0  0  0  0
    8.3936  -14.6836   24.5507 C   0  0  2  0  0  0  0  0  0  0  0  0
    8.1834  -14.8218   23.0980 N   0  0  0  0  0  0  0  0  0  0  0  0
    9.3764  -15.7146   24.9633 C   0  0  0  0  0  0  0  0  0  0  0  0
    9.7539  -15.9160   26.1373 O   0  0  0  0  0  0  0  0  0  0  0  0
    9.9898  -16.5940   23.9930 N   0  0  0  0  0  0  0  0  0  0  0  0
   10.8946  -17.6514   24.4130 C   0  0  0  0  0  0  0  0  0  0  0  0
   12.2828  -17.2050   24.2854 C   0  0  0  0  0  0  0  0  0  0  0  0
   12.7530  -16.8555   23.1651 O   0  0  0  0  0  0  0  0  0  0  0  0
   13.0984  -17.1611   25.3962 O   0  0  0  0  0  0  0  0  0  0  0  0
  2  1  1  0
  3  2  1  0
  4  3  1  0
  4  5  1  0
  5  1  1  0
  6 13  1  0
  5  6  1  1
  7  6  2  0
  8  9  1  0
  9 10  2  0
 11  9  1  0
 12 11  1  1
 12 13  1  0
 12 14  1  0
 14 16  1  0
 15 14  2  0
 16 17  1  0
 18 17  1  0
 18 20  1  0
 19 18  2  0
M  END
$$$$
