PNG.pdb
     RDKit          3D

 20 20  0  0  1  0  0  0  0  0999 V2000
    9.1110  -14.1673   18.2499 N   0  0  0  0  0  0  0  0  0  0  0  0
    8.0446  -13.5742   17.4662 C   0  0  0  0  0  0  0  0  0  0  0  0
    6.9716  -13.4274   18.5539 C   0  0  0  0  0  0  0  0  0  0  0  0
    7.8256  -12.7303   19.6225 C   0  0  0  0  0  0  0  0  0  0  0  0
    9.0801  -13.5460   19.5609 C   0  0  1  0  0  0  0  0  0  0  0  0
    9.2016  -14.5326   20.6443 C   0  0  0  0  0  0  0  0  0  0  0  0
    8.9502  -14.2519   21.8509 O   0  0  0  0  0  0  0  0  0  0  0  0
    7.0333  -17.3328   21.0553 N   0  0  0  0  0  0  0  0  0  0  0  0
    7.9849  -18.3663   20.8225 C   0  0  0  0  0  0  0  0  0  0  0  0
    7.5275  -19.4501   20.4111 O   0  0  0  0  0  0  0  0  0  0  0  0
    9.4198  -18.1925   21.0451 C   0  0  0  0  0  0  0  0  0  0  0  0
    9.8358  -16.8253   21.4700 C   0  0  2  0  0  0  0  0  0  0  0  0
    9.6088  -15.8583   20.3806 N   0  0  0  0  0  0  0  0  0  0  0  0
   11.2546  -16.7099   21.8857 C   0  0  0  0  0  0  0  0  0  0  0  0
   12.1833  -16.2970   21.1588 O   0  0  0  0  0  0  0  0  0  0  0  0
   11.6766  -17.0830   23.2175 N   0  0  0  0  0  0  0  0  0  0  0  0
   13.0876  -17.1528   23.5599 C   0  0  0  0  0  0  0  0  0  0  0  0
   13.2477  -17.6190   24.9383 C   0  0  0  0  0  0  0  0  0  0  0  0
   12.4900  -18.5117   25.4148 O   0  0  0  0  0  0  0  0  0  0  0  0
   14.2356  -17.0838   25.7375 O   0  0  0  0  0  0  0  0  0  0  0  0
  2  1  1  0
  3  2  1  0
  4  3  1  0
  4  5  1  0
  5  1  1  0
  6 13  1  0
  5  6  1  1
  7  6  2  0
  8  9  1  0
  9 10  2  0
 11  9  1  0
 12 11  1  6
 12 13  1  0
 12 14  1  0
 14 16  1  0
 15 14  2  0
 16 17  1  0
 18 17  1  0
 18 20  1  0
 19 18  2  0
M  END
$$$$
