PNG.pdb
     RDKit          3D

 20 20  0  0  1  0  0  0  0  0999 V2000
    8.6321  -14.8882   19.8644 N   0  0  0  0  0  0  0  0  0  0  0  0
    7.7311  -14.5296   18.7860 C   0  0  0  0  0  0  0  0  0  0  0  0
    6.6017  -13.8772   19.5952 C   0  0  0  0  0  0  0  0  0  0  0  0
    7.4527  -12.9190   20.4407 C   0  0  0  0  0  0  0  0  0  0  0  0
    8.5789  -13.8196   20.8446 C   0  0  1  0  0  0  0  0  0  0  0  0
    8.4666  -14.3328   22.2179 C   0  0  0  0  0  0  0  0  0  0  0  0
    8.1993  -13.5870   23.2028 O   0  0  0  0  0  0  0  0  0  0  0  0
    5.8118  -17.5358   21.9866 N   0  0  0  0  0  0  0  0  0  0  0  0
    6.2170  -17.2051   23.3112 C   0  0  0  0  0  0  0  0  0  0  0  0
    5.3456  -16.6913   24.0388 O   0  0  0  0  0  0  0  0  0  0  0  0
    7.5697  -17.4441   23.8133 C   0  0  0  0  0  0  0  0  0  0  0  0
    8.4519  -16.2431   23.8584 C   0  0  2  0  0  0  0  0  0  0  0  0
    8.6532  -15.7031   22.5014 N   0  0  0  0  0  0  0  0  0  0  0  0
    9.7904  -16.4787   24.4519 C   0  0  0  0  0  0  0  0  0  0  0  0
    9.9966  -16.9414   25.5942 O   0  0  0  0  0  0  0  0  0  0  0  0
   10.9983  -16.1763   23.7169 N   0  0  0  0  0  0  0  0  0  0  0  0
   12.3057  -16.3487   24.3286 C   0  0  0  0  0  0  0  0  0  0  0  0
   13.3583  -16.0257   23.3640 C   0  0  0  0  0  0  0  0  0  0  0  0
   13.0738  -15.6975   22.1768 O   0  0  0  0  0  0  0  0  0  0  0  0
   14.6825  -16.0768   23.7447 O   0  0  0  0  0  0  0  0  0  0  0  0
  2  1  1  0
  3  2  1  0
  4  3  1  0
  4  5  1  0
  5  1  1  0
  6 13  1  0
  5  6  1  1
  7  6  2  0
  8  9  1  0
  9 10  2  0
 11  9  1  0
 12 11  1  6
 12 13  1  0
 12 14  1  0
 14 16  1  0
 15 14  2  0
 16 17  1  0
 18 17  1  0
 18 20  1  0
 19 18  2  0
M  END
$$$$
