PNG.pdb
     RDKit          3D

 20 20  0  0  1  0  0  0  0  0999 V2000
    7.6092  -15.2252   20.9197 N   0  0  0  0  0  0  0  0  0  0  0  0
    6.8029  -14.6030   19.8874 C   0  0  0  0  0  0  0  0  0  0  0  0
    7.0772  -13.1248   20.1970 C   0  0  0  0  0  0  0  0  0  0  0  0
    8.6101  -13.1860   20.2557 C   0  0  0  0  0  0  0  0  0  0  0  0
    8.8145  -14.4302   21.0638 C   0  0  1  0  0  0  0  0  0  0  0  0
    9.1450  -14.1758   22.4738 C   0  0  0  0  0  0  0  0  0  0  0  0
   10.1070  -13.4342   22.8236 O   0  0  0  0  0  0  0  0  0  0  0  0
    6.0913  -15.6232   25.2489 N   0  0  0  0  0  0  0  0  0  0  0  0
    6.3923  -14.3225   25.7445 C   0  0  0  0  0  0  0  0  0  0  0  0
    5.4616  -13.7261   26.3198 O   0  0  0  0  0  0  0  0  0  0  0  0
    7.7079  -13.7001   25.6005 C   0  0  0  0  0  0  0  0  0  0  0  0
    8.7398  -14.5433   24.9317 C   0  0  2  0  0  0  0  0  0  0  0  0
    8.3893  -14.7560   23.5156 N   0  0  0  0  0  0  0  0  0  0  0  0
    8.9472  -15.8757   25.5489 C   0  0  0  0  0  0  0  0  0  0  0  0
    9.2449  -16.0725   26.7464 O   0  0  0  0  0  0  0  0  0  0  0  0
    8.8126  -17.0885   24.7731 N   0  0  0  0  0  0  0  0  0  0  0  0
    9.9818  -17.8668   24.3982 C   0  0  0  0  0  0  0  0  0  0  0  0
   10.5844  -18.4725   25.5869 C   0  0  0  0  0  0  0  0  0  0  0  0
   11.1184  -17.7566   26.4815 O   0  0  0  0  0  0  0  0  0  0  0  0
   10.5752  -19.8423   25.7433 O   0  0  0  0  0  0  0  0  0  0  0  0
  2  1  1  0
  3  2  1  0
  4  3  1  0
  4  5  1  0
  5  1  1  0
  6 13  1  0
  5  6  1  1
  7  6  2  0
  8  9  1  0
  9 10  2  0
 11  9  1  0
 12 11  1  1
 12 13  1  0
 12 14  1  0
 14 16  1  0
 15 14  2  0
 16 17  1  0
 18 17  1  0
 18 20  1  0
 19 18  2  0
M  END
$$$$
