PNG.pdb
     RDKit          3D

 20 20  0  0  1  0  0  0  0  0999 V2000
    7.7608  -16.2476   20.6566 N   0  0  0  0  0  0  0  0  0  0  0  0
    6.7239  -16.4152   19.6567 C   0  0  0  0  0  0  0  0  0  0  0  0
    5.4932  -16.0305   20.4895 C   0  0  0  0  0  0  0  0  0  0  0  0
    6.0129  -14.7046   21.0632 C   0  0  0  0  0  0  0  0  0  0  0  0
    7.4047  -15.0915   21.4581 C   0  0  1  0  0  0  0  0  0  0  0  0
    7.5656  -15.3446   22.8975 C   0  0  0  0  0  0  0  0  0  0  0  0
    7.1830  -14.5237   23.7793 O   0  0  0  0  0  0  0  0  0  0  0  0
    7.7419  -17.6249   27.5951 N   0  0  0  0  0  0  0  0  0  0  0  0
    7.9927  -18.5544   26.5458 C   0  0  0  0  0  0  0  0  0  0  0  0
    8.2831  -19.7139   26.8983 O   0  0  0  0  0  0  0  0  0  0  0  0
    7.9205  -18.1955   25.1299 C   0  0  0  0  0  0  0  0  0  0  0  0
    8.3282  -16.7982   24.8071 C   0  0  2  0  0  0  0  0  0  0  0  0
    8.1620  -16.5354   23.3659 N   0  0  0  0  0  0  0  0  0  0  0  0
    9.7266  -16.4612   25.1676 C   0  0  0  0  0  0  0  0  0  0  0  0
   10.1977  -16.4990   26.3243 O   0  0  0  0  0  0  0  0  0  0  0  0
   10.6798  -16.0488   24.1614 N   0  0  0  0  0  0  0  0  0  0  0  0
   12.0416  -15.6941   24.5260 C   0  0  0  0  0  0  0  0  0  0  0  0
   12.9450  -16.8100   24.2405 C   0  0  0  0  0  0  0  0  0  0  0  0
   12.5526  -18.0072   24.3445 O   0  0  0  0  0  0  0  0  0  0  0  0
   14.2447  -16.5635   23.8518 O   0  0  0  0  0  0  0  0  0  0  0  0
  2  1  1  0
  3  2  1  0
  4  3  1  0
  4  5  1  0
  5  1  1  0
  6 13  1  0
  5  6  1  1
  7  6  2  0
  8  9  1  0
  9 10  2  0
 11  9  1  0
 12 11  1  6
 12 13  1  0
 12 14  1  0
 14 16  1  0
 15 14  2  0
 16 17  1  0
 18 17  1  0
 18 20  1  0
 19 18  2  0
M  END
$$$$
