PNG.pdb
     RDKit          3D

 20 20  0  0  1  0  0  0  0  0999 V2000
    7.0741  -14.7996   19.5568 N   0  0  0  0  0  0  0  0  0  0  0  0
    7.0680  -13.7554   18.5505 C   0  0  0  0  0  0  0  0  0  0  0  0
    7.4335  -12.5478   19.4247 C   0  0  0  0  0  0  0  0  0  0  0  0
    8.6625  -13.1409   20.1282 C   0  0  0  0  0  0  0  0  0  0  0  0
    8.1600  -14.5085   20.4742 C   0  0  1  0  0  0  0  0  0  0  0  0
    7.7521  -14.6543   21.8793 C   0  0  0  0  0  0  0  0  0  0  0  0
    6.5623  -14.4712   22.2645 O   0  0  0  0  0  0  0  0  0  0  0  0
    7.1468  -18.9498   25.2701 N   0  0  0  0  0  0  0  0  0  0  0  0
    6.8765  -17.5898   24.9455 C   0  0  0  0  0  0  0  0  0  0  0  0
    6.0920  -16.9903   25.7058 O   0  0  0  0  0  0  0  0  0  0  0  0
    7.4713  -16.9126   23.7938 C   0  0  0  0  0  0  0  0  0  0  0  0
    8.2664  -15.6929   24.1148 C   0  0  2  0  0  0  0  0  0  0  0  0
    8.6857  -15.0131   22.8757 N   0  0  0  0  0  0  0  0  0  0  0  0
    9.4830  -15.9412   24.9255 C   0  0  0  0  0  0  0  0  0  0  0  0
    9.5237  -16.6373   25.9625 O   0  0  0  0  0  0  0  0  0  0  0  0
   10.7586  -15.3704   24.5543 N   0  0  0  0  0  0  0  0  0  0  0  0
   11.6162  -16.0305   23.5837 C   0  0  0  0  0  0  0  0  0  0  0  0
   12.4716  -17.0112   24.2541 C   0  0  0  0  0  0  0  0  0  0  0  0
   12.3561  -17.2358   25.4927 O   0  0  0  0  0  0  0  0  0  0  0  0
   13.4205  -17.7057   23.5340 O   0  0  0  0  0  0  0  0  0  0  0  0
  2  1  1  0
  3  2  1  0
  4  3  1  0
  4  5  1  0
  5  1  1  0
  6 13  1  0
  5  6  1  1
  7  6  2  0
  8  9  1  0
  9 10  2  0
 11  9  1  0
 12 11  1  6
 12 13  1  0
 12 14  1  0
 14 16  1  0
 15 14  2  0
 16 17  1  0
 18 17  1  0
 18 20  1  0
 19 18  2  0
M  END
$$$$
