PNG.pdb
     RDKit          3D

 20 20  0  0  1  0  0  0  0  0999 V2000
    8.6510  -15.2828   20.5680 N   0  0  0  0  0  0  0  0  0  0  0  0
    7.6992  -14.8854   19.5485 C   0  0  0  0  0  0  0  0  0  0  0  0
    6.7063  -14.0951   20.4120 C   0  0  0  0  0  0  0  0  0  0  0  0
    7.7094  -13.1878   21.1384 C   0  0  0  0  0  0  0  0  0  0  0  0
    8.7785  -14.1740   21.4952 C   0  0  1  0  0  0  0  0  0  0  0  0
    8.7356  -14.6163   22.8969 C   0  0  0  0  0  0  0  0  0  0  0  0
    8.6286  -13.8073   23.8622 O   0  0  0  0  0  0  0  0  0  0  0  0
    5.9311  -15.7321   25.3131 N   0  0  0  0  0  0  0  0  0  0  0  0
    6.4019  -16.9331   24.7098 C   0  0  0  0  0  0  0  0  0  0  0  0
    5.5795  -17.5529   24.0080 O   0  0  0  0  0  0  0  0  0  0  0  0
    7.7652  -17.4320   24.8870 C   0  0  0  0  0  0  0  0  0  0  0  0
    8.8444  -16.4345   24.6355 C   0  0  2  0  0  0  0  0  0  0  0  0
    8.8110  -15.9857   23.2316 N   0  0  0  0  0  0  0  0  0  0  0  0
   10.2164  -16.9202   24.9200 C   0  0  0  0  0  0  0  0  0  0  0  0
   10.6242  -17.3019   26.0377 O   0  0  0  0  0  0  0  0  0  0  0  0
   11.2170  -16.9879   23.8783 N   0  0  0  0  0  0  0  0  0  0  0  0
   12.5651  -17.4477   24.1687 C   0  0  0  0  0  0  0  0  0  0  0  0
   13.5417  -16.4490   23.7309 C   0  0  0  0  0  0  0  0  0  0  0  0
   13.1716  -15.3874   23.1530 O   0  0  0  0  0  0  0  0  0  0  0  0
   14.8873  -16.6590   23.9465 O   0  0  0  0  0  0  0  0  0  0  0  0
  2  1  1  0
  3  2  1  0
  4  3  1  0
  4  5  1  0
  5  1  1  0
  6 13  1  0
  5  6  1  1
  7  6  2  0
  8  9  1  0
  9 10  2  0
 11  9  1  0
 12 11  1  6
 12 13  1  0
 12 14  1  0
 14 16  1  0
 15 14  2  0
 16 17  1  0
 18 17  1  0
 18 20  1  0
 19 18  2  0
M  END
$$$$
