PNG.pdb
     RDKit          3D

 20 20  0  0  1  0  0  0  0  0999 V2000
    8.8308  -14.6290   19.8417 N   0  0  0  0  0  0  0  0  0  0  0  0
    7.9578  -14.4448   18.6985 C   0  0  0  0  0  0  0  0  0  0  0  0
    6.6615  -14.0514   19.4203 C   0  0  0  0  0  0  0  0  0  0  0  0
    7.2322  -12.9533   20.3290 C   0  0  0  0  0  0  0  0  0  0  0  0
    8.4866  -13.6105   20.8162 C   0  0  1  0  0  0  0  0  0  0  0  0
    8.3809  -14.1587   22.1765 C   0  0  0  0  0  0  0  0  0  0  0  0
    7.8576  -13.5150   23.1303 O   0  0  0  0  0  0  0  0  0  0  0  0
    6.0972  -15.7524   24.7886 N   0  0  0  0  0  0  0  0  0  0  0  0
    6.5973  -17.0194   24.3732 C   0  0  0  0  0  0  0  0  0  0  0  0
    5.7980  -17.9730   24.4400 O   0  0  0  0  0  0  0  0  0  0  0  0
    7.9643  -17.2172   23.8922 C   0  0  0  0  0  0  0  0  0  0  0  0
    8.8079  -15.9885   23.8528 C   0  0  2  0  0  0  0  0  0  0  0  0
    8.8648  -15.4492   22.4818 N   0  0  0  0  0  0  0  0  0  0  0  0
   10.2025  -16.1785   24.3197 C   0  0  0  0  0  0  0  0  0  0  0  0
   10.5611  -16.2000   25.5165 O   0  0  0  0  0  0  0  0  0  0  0  0
   11.2874  -16.3599   23.3811 N   0  0  0  0  0  0  0  0  0  0  0  0
   12.6591  -16.0651   23.7617 C   0  0  0  0  0  0  0  0  0  0  0  0
   13.3018  -17.2670   24.2958 C   0  0  0  0  0  0  0  0  0  0  0  0
   14.5186  -17.2559   24.6383 O   0  0  0  0  0  0  0  0  0  0  0  0
   12.5793  -18.4334   24.4315 O   0  0  0  0  0  0  0  0  0  0  0  0
  2  1  1  0
  3  2  1  0
  4  3  1  0
  4  5  1  0
  5  1  1  0
  6 13  1  0
  5  6  1  1
  7  6  2  0
  8  9  1  0
  9 10  2  0
 11  9  1  0
 12 11  1  6
 12 13  1  0
 12 14  1  0
 14 16  1  0
 15 14  2  0
 16 17  1  0
 18 17  1  0
 18 20  1  0
 19 18  2  0
M  END
$$$$
