PNG.pdb
     RDKit          3D

 20 20  0  0  1  0  0  0  0  0999 V2000
    7.5695  -14.9832   20.8123 N   0  0  0  0  0  0  0  0  0  0  0  0
    6.8129  -14.3663   19.7399 C   0  0  0  0  0  0  0  0  0  0  0  0
    6.8165  -12.9091   20.2222 C   0  0  0  0  0  0  0  0  0  0  0  0
    8.3213  -12.7624   20.4895 C   0  0  0  0  0  0  0  0  0  0  0  0
    8.6112  -14.0496   21.1981 C   0  0  1  0  0  0  0  0  0  0  0  0
    8.7199  -13.9132   22.6581 C   0  0  0  0  0  0  0  0  0  0  0  0
    9.5176  -13.1012   23.2076 O   0  0  0  0  0  0  0  0  0  0  0  0
    7.2394  -11.8440   25.7626 N   0  0  0  0  0  0  0  0  0  0  0  0
    6.2817  -12.8963   25.8225 C   0  0  0  0  0  0  0  0  0  0  0  0
    5.1225  -12.5652   26.1381 O   0  0  0  0  0  0  0  0  0  0  0  0
    6.6126  -14.2916   25.5353 C   0  0  0  0  0  0  0  0  0  0  0  0
    7.9802  -14.5203   24.9871 C   0  0  2  0  0  0  0  0  0  0  0  0
    7.9240  -14.6937   23.5242 N   0  0  0  0  0  0  0  0  0  0  0  0
    8.6865  -15.6952   25.5527 C   0  0  0  0  0  0  0  0  0  0  0  0
    8.8960  -15.8884   26.7694 O   0  0  0  0  0  0  0  0  0  0  0  0
    9.2019  -16.7411   24.6975 N   0  0  0  0  0  0  0  0  0  0  0  0
    9.7884  -17.9448   25.2634 C   0  0  0  0  0  0  0  0  0  0  0  0
   11.2368  -17.7819   25.3993 C   0  0  0  0  0  0  0  0  0  0  0  0
   11.8073  -16.7123   25.0406 O   0  0  0  0  0  0  0  0  0  0  0  0
   11.9998  -18.8031   25.9248 O   0  0  0  0  0  0  0  0  0  0  0  0
  2  1  1  0
  3  2  1  0
  4  3  1  0
  4  5  1  0
  5  1  1  0
  6 13  1  0
  5  6  1  1
  7  6  2  0
  8  9  1  0
  9 10  2  0
 11  9  1  0
 12 11  1  1
 12 13  1  0
 12 14  1  0
 14 16  1  0
 15 14  2  0
 16 17  1  0
 18 17  1  0
 18 20  1  0
 19 18  2  0
M  END
$$$$
