VPG.pdb
     RDKit          3D

 19 19  0  0  1  0  0  0  0  0999 V2000
   28.4055  -19.3429  -16.2356 C   0  0  0  0  0  0  0  0  0  0  0  0
   27.0615  -19.6281  -15.5999 C   0  0  2  0  0  0  0  0  0  0  0  0
   26.6603  -18.4554  -14.7199 C   0  0  0  0  0  0  0  0  0  0  0  0
   27.2509  -20.8882  -14.7460 C   0  0  2  0  0  0  0  0  0  0  0  0
   27.8896  -21.8604  -15.5718 N   0  0  0  0  0  0  0  0  0  0  0  0
   26.0050  -21.3172  -14.1191 C   0  0  0  0  0  0  0  0  0  0  0  0
   25.1868  -22.0030  -14.7788 O   0  0  0  0  0  0  0  0  0  0  0  0
   25.6724  -20.9912  -12.7842 N   0  0  0  0  0  0  0  0  0  0  0  0
   26.4857  -20.1369  -11.9418 C   0  0  0  0  0  0  0  0  0  0  0  0
   25.7964  -20.1400  -10.5762 C   0  0  0  0  0  0  0  0  0  0  0  0
   25.1116  -21.4906  -10.6189 C   0  0  0  0  0  0  0  0  0  0  0  0
   24.5111  -21.4241  -12.0295 C   0  0  1  0  0  0  0  0  0  0  0  0
   23.4705  -20.3733  -12.0906 C   0  0  0  0  0  0  0  0  0  0  0  0
   23.7913  -19.1609  -12.3295 O   0  0  0  0  0  0  0  0  0  0  0  0
   22.1035  -20.6536  -11.8923 N   0  0  0  0  0  0  0  0  0  0  0  0
   21.1535  -20.6145  -12.9698 C   0  0  0  0  0  0  0  0  0  0  0  0
   19.7987  -20.9298  -12.4829 C   0  0  0  0  0  0  0  0  0  0  0  0
   19.6144  -21.8825  -11.6952 O   0  0  0  0  0  0  0  0  0  0  0  0
   18.7174  -20.1662  -12.8994 O   0  0  0  0  0  0  0  0  0  0  0  0
  2  3  1  1
  2  1  1  0
  4  2  1  0
  4  5  1  6
  6  4  1  0
  6  7  2  0
  8  6  1  0
  9  8  1  0
 10 11  1  0
 10  9  1  0
 11 12  1  0
 12  8  1  0
 12 13  1  1
 13 15  1  0
 14 13  2  0
 15 16  1  0
 17 16  1  0
 17 19  1  0
 18 17  2  0
M  END
$$$$
