VPG.pdb
     RDKit          3D

 19 19  0  0  1  0  0  0  0  0999 V2000
   19.1001  -12.3894  -18.9270 C   0  0  0  0  0  0  0  0  0  0  0  0
   19.4765  -11.3145  -17.9298 C   0  0  2  0  0  0  0  0  0  0  0  0
   20.5776  -10.4456  -18.5158 C   0  0  0  0  0  0  0  0  0  0  0  0
   19.9894  -12.0474  -16.6837 C   0  0  2  0  0  0  0  0  0  0  0  0
   19.0607  -13.0931  -16.4023 N   0  0  0  0  0  0  0  0  0  0  0  0
   20.2567  -11.1306  -15.5804 C   0  0  0  0  0  0  0  0  0  0  0  0
   19.2957  -10.6372  -14.9419 O   0  0  0  0  0  0  0  0  0  0  0  0
   21.5668  -10.7675  -15.1923 N   0  0  0  0  0  0  0  0  0  0  0  0
   22.7632  -11.3102  -15.8049 C   0  0  0  0  0  0  0  0  0  0  0  0
   23.9292  -10.7110  -15.0167 C   0  0  0  0  0  0  0  0  0  0  0  0
   23.2616  -10.4759  -13.6773 C   0  0  0  0  0  0  0  0  0  0  0  0
   21.9558   -9.8281  -14.1570 C   0  0  1  0  0  0  0  0  0  0  0  0
   22.2370   -8.5122  -14.7733 C   0  0  0  0  0  0  0  0  0  0  0  0
   22.5711   -8.4340  -16.0031 O   0  0  0  0  0  0  0  0  0  0  0  0
   22.1515   -7.3065  -14.0485 N   0  0  0  0  0  0  0  0  0  0  0  0
   22.1471   -6.0250  -14.6988 C   0  0  0  0  0  0  0  0  0  0  0  0
   21.9156   -4.9452  -13.7229 C   0  0  0  0  0  0  0  0  0  0  0  0
   21.3267   -3.8974  -14.0653 O   0  0  0  0  0  0  0  0  0  0  0  0
   22.3529   -5.0887  -12.4137 O   0  0  0  0  0  0  0  0  0  0  0  0
  2  3  1  6
  2  1  1  0
  4  2  1  0
  4  5  1  1
  6  4  1  0
  6  7  2  0
  8  6  1  0
  9  8  1  0
 10 11  1  0
 10  9  1  0
 11 12  1  0
 12  8  1  0
 12 13  1  6
 13 15  1  0
 14 13  2  0
 15 16  1  0
 17 16  1  0
 17 19  1  0
 18 17  2  0
M  END
$$$$
