VPG.pdb
     RDKit          3D

 19 19  0  0  1  0  0  0  0  0999 V2000
   18.3410  -11.4858  -15.3355 C   0  0  0  0  0  0  0  0  0  0  0  0
   18.5018  -11.5537  -16.8392 C   0  0  2  0  0  0  0  0  0  0  0  0
   17.6338  -12.6738  -17.3895 C   0  0  0  0  0  0  0  0  0  0  0  0
   19.9828  -11.8580  -17.0980 C   0  0  2  0  0  0  0  0  0  0  0  0
   20.2166  -13.1962  -16.6625 N   0  0  0  0  0  0  0  0  0  0  0  0
   20.8593  -10.8461  -16.5174 C   0  0  0  0  0  0  0  0  0  0  0  0
   21.4837  -11.1041  -15.4599 O   0  0  0  0  0  0  0  0  0  0  0  0
   21.0400   -9.5704  -17.0996 N   0  0  0  0  0  0  0  0  0  0  0  0
   20.3284   -9.1202  -18.2794 C   0  0  0  0  0  0  0  0  0  0  0  0
   20.9018   -7.7376  -18.5952 C   0  0  0  0  0  0  0  0  0  0  0  0
   22.2900   -7.8761  -18.0049 C   0  0  0  0  0  0  0  0  0  0  0  0
   21.9278   -8.5118  -16.6559 C   0  0  1  0  0  0  0  0  0  0  0  0
   21.1650   -7.5504  -15.8287 C   0  0  0  0  0  0  0  0  0  0  0  0
   19.8885   -7.5476  -15.8550 O   0  0  0  0  0  0  0  0  0  0  0  0
   21.7967   -6.6108  -14.9893 N   0  0  0  0  0  0  0  0  0  0  0  0
   21.1457   -6.0660  -13.8298 C   0  0  0  0  0  0  0  0  0  0  0  0
   22.0192   -5.0932  -13.1496 C   0  0  0  0  0  0  0  0  0  0  0  0
   22.8169   -5.4690  -12.2639 O   0  0  0  0  0  0  0  0  0  0  0  0
   21.9588   -3.7497  -13.4918 O   0  0  0  0  0  0  0  0  0  0  0  0
  2  3  1  1
  2  1  1  0
  4  2  1  0
  4  5  1  1
  6  4  1  0
  6  7  2  0
  8  6  1  0
  9  8  1  0
 10 11  1  0
 10  9  1  0
 11 12  1  0
 12  8  1  0
 12 13  1  1
 13 15  1  0
 14 13  2  0
 15 16  1  0
 17 16  1  0
 17 19  1  0
 18 17  2  0
M  END
$$$$
