VPG.pdb
     RDKit          3D

 19 19  0  0  1  0  0  0  0  0999 V2000
   25.9838  -23.3004  -13.0242 C   0  0  0  0  0  0  0  0  0  0  0  0
   25.2070  -22.1007  -13.5230 C   0  0  2  0  0  0  0  0  0  0  0  0
   25.5012  -21.8869  -14.9990 C   0  0  0  0  0  0  0  0  0  0  0  0
   25.7028  -20.9003  -12.7067 C   0  0  2  0  0  0  0  0  0  0  0  0
   25.5574  -21.2429  -11.3296 N   0  0  0  0  0  0  0  0  0  0  0  0
   25.0593  -19.6564  -13.1162 C   0  0  0  0  0  0  0  0  0  0  0  0
   23.9599  -19.3332  -12.6048 O   0  0  0  0  0  0  0  0  0  0  0  0
   25.6254  -18.7861  -14.0760 N   0  0  0  0  0  0  0  0  0  0  0  0
   26.8132  -19.1038  -14.8436 C   0  0  0  0  0  0  0  0  0  0  0  0
   27.1047  -17.8532  -15.6748 C   0  0  0  0  0  0  0  0  0  0  0  0
   26.4910  -16.7878  -14.7900 C   0  0  0  0  0  0  0  0  0  0  0  0
   25.1552  -17.4694  -14.4645 C   0  0  1  0  0  0  0  0  0  0  0  0
   24.3322  -17.5872  -15.6889 C   0  0  0  0  0  0  0  0  0  0  0  0
   24.5655  -18.5133  -16.5363 O   0  0  0  0  0  0  0  0  0  0  0  0
   23.2733  -16.7017  -15.9737 N   0  0  0  0  0  0  0  0  0  0  0  0
   22.1873  -17.0665  -16.8411 C   0  0  0  0  0  0  0  0  0  0  0  0
   21.2418  -17.9588  -16.1469 C   0  0  0  0  0  0  0  0  0  0  0  0
   20.3438  -17.4861  -15.4174 O   0  0  0  0  0  0  0  0  0  0  0  0
   21.3458  -19.3340  -16.3015 O   0  0  0  0  0  0  0  0  0  0  0  0
  2  3  1  6
  2  1  1  0
  4  2  1  0
  4  5  1  1
  6  4  1  0
  6  7  2  0
  8  6  1  0
  9  8  1  0
 10 11  1  0
 10  9  1  0
 11 12  1  0
 12  8  1  0
 12 13  1  6
 13 15  1  0
 14 13  2  0
 15 16  1  0
 17 16  1  0
 17 19  1  0
 18 17  2  0
M  END
$$$$
