VPG.pdb
     RDKit          3D

 19 19  0  0  1  0  0  0  0  0999 V2000
   23.7711  -20.1436  -18.1429 C   0  0  0  0  0  0  0  0  0  0  0  0
   23.0633  -20.4419  -16.8385 C   0  0  2  0  0  0  0  0  0  0  0  0
   21.6041  -20.0310  -16.9506 C   0  0  0  0  0  0  0  0  0  0  0  0
   23.7679  -19.6001  -15.7671 C   0  0  2  0  0  0  0  0  0  0  0  0
   24.7634  -18.8248  -16.4328 N   0  0  0  0  0  0  0  0  0  0  0  0
   24.2460  -20.4164  -14.6561 C   0  0  0  0  0  0  0  0  0  0  0  0
   23.4378  -21.1509  -14.0379 O   0  0  0  0  0  0  0  0  0  0  0  0
   25.5967  -20.4181  -14.2383 N   0  0  0  0  0  0  0  0  0  0  0  0
   26.6380  -19.6494  -14.8908 C   0  0  0  0  0  0  0  0  0  0  0  0
   27.9324  -20.0255  -14.1676 C   0  0  0  0  0  0  0  0  0  0  0  0
   27.5836  -21.4203  -13.6906 C   0  0  0  0  0  0  0  0  0  0  0  0
   26.1804  -21.1514  -13.1305 C   0  0  1  0  0  0  0  0  0  0  0  0
   26.2654  -20.2640  -11.9491 C   0  0  0  0  0  0  0  0  0  0  0  0
   26.4458  -19.0087  -12.0969 O   0  0  0  0  0  0  0  0  0  0  0  0
   26.1538  -20.7506  -10.6311 N   0  0  0  0  0  0  0  0  0  0  0  0
   25.6635  -19.9329   -9.5559 C   0  0  0  0  0  0  0  0  0  0  0  0
   25.7194  -20.6635   -8.2771 C   0  0  0  0  0  0  0  0  0  0  0  0
   24.9206  -21.5962   -8.0450 O   0  0  0  0  0  0  0  0  0  0  0  0
   26.6640  -20.3166   -7.3215 O   0  0  0  0  0  0  0  0  0  0  0  0
  2  3  1  6
  2  1  1  0
  4  2  1  0
  4  5  1  6
  6  4  1  0
  6  7  2  0
  8  6  1  0
  9  8  1  0
 10 11  1  0
 10  9  1  0
 11 12  1  0
 12  8  1  0
 12 13  1  1
 13 15  1  0
 14 13  2  0
 15 16  1  0
 17 16  1  0
 17 19  1  0
 18 17  2  0
M  END
$$$$
