VPG.pdb
     RDKit          3D

 19 19  0  0  1  0  0  0  0  0999 V2000
   26.7233  -21.6772  -14.4675 C   0  0  0  0  0  0  0  0  0  0  0  0
   26.3015  -21.8127  -15.9149 C   0  0  2  0  0  0  0  0  0  0  0  0
   27.4275  -22.4523  -16.7111 C   0  0  0  0  0  0  0  0  0  0  0  0
   26.0412  -20.3879  -16.4200 C   0  0  2  0  0  0  0  0  0  0  0  0
   27.3106  -19.7470  -16.5348 N   0  0  0  0  0  0  0  0  0  0  0  0
   25.0558  -19.6884  -15.6022 C   0  0  0  0  0  0  0  0  0  0  0  0
   25.4448  -18.9385  -14.6743 O   0  0  0  0  0  0  0  0  0  0  0  0
   23.6633  -19.8185  -15.8099 N   0  0  0  0  0  0  0  0  0  0  0  0
   23.0836  -20.5729  -16.9035 C   0  0  0  0  0  0  0  0  0  0  0  0
   21.5731  -20.3625  -16.7846 C   0  0  0  0  0  0  0  0  0  0  0  0
   21.5384  -19.0110  -16.1012 C   0  0  0  0  0  0  0  0  0  0  0  0
   22.5918  -19.2525  -15.0118 C   0  0  1  0  0  0  0  0  0  0  0  0
   22.1080  -20.2706  -14.0528 C   0  0  0  0  0  0  0  0  0  0  0  0
   22.2076  -21.5136  -14.3267 O   0  0  0  0  0  0  0  0  0  0  0  0
   21.5259  -19.9254  -12.8165 N   0  0  0  0  0  0  0  0  0  0  0  0
   21.1331  -20.9188  -11.8553 C   0  0  0  0  0  0  0  0  0  0  0  0
   19.9149  -21.6205  -12.2978 C   0  0  0  0  0  0  0  0  0  0  0  0
   19.0364  -21.0151  -12.9488 O   0  0  0  0  0  0  0  0  0  0  0  0
   19.7382  -22.9624  -11.9917 O   0  0  0  0  0  0  0  0  0  0  0  0
  2  3  1  6
  2  1  1  0
  4  2  1  0
  4  5  1  1
  6  4  1  0
  6  7  2  0
  8  6  1  0
  9  8  1  0
 10 11  1  0
 10  9  1  0
 11 12  1  0
 12  8  1  0
 12 13  1  1
 13 15  1  0
 14 13  2  0
 15 16  1  0
 17 16  1  0
 17 19  1  0
 18 17  2  0
M  END
$$$$
