VPG.pdb
     RDKit          3D

 19 19  0  0  1  0  0  0  0  0999 V2000
   15.9967  -10.9073  -16.5747 C   0  0  0  0  0  0  0  0  0  0  0  0
   17.0889  -10.0930  -15.9147 C   0  0  2  0  0  0  0  0  0  0  0  0
   17.2551   -8.7765  -16.6564 C   0  0  0  0  0  0  0  0  0  0  0  0
   18.3714  -10.9272  -16.0263 C   0  0  2  0  0  0  0  0  0  0  0  0
   18.0238  -12.2728  -15.7044 N   0  0  0  0  0  0  0  0  0  0  0  0
   19.4650  -10.3569  -15.2466 C   0  0  0  0  0  0  0  0  0  0  0  0
   19.4931  -10.5311  -14.0042 O   0  0  0  0  0  0  0  0  0  0  0  0
   20.5093   -9.6068  -15.8347 N   0  0  0  0  0  0  0  0  0  0  0  0
   20.5704   -9.2898  -17.2478 C   0  0  0  0  0  0  0  0  0  0  0  0
   21.8981   -8.5551  -17.4409 C   0  0  0  0  0  0  0  0  0  0  0  0
   22.7047   -9.1443  -16.3021 C   0  0  0  0  0  0  0  0  0  0  0  0
   21.6683   -9.0339  -15.1758 C   0  0  1  0  0  0  0  0  0  0  0  0
   21.4006   -7.6111  -14.8682 C   0  0  0  0  0  0  0  0  0  0  0  0
   20.5742   -6.9427  -15.5754 O   0  0  0  0  0  0  0  0  0  0  0  0
   22.0315   -6.9387  -13.8022 N   0  0  0  0  0  0  0  0  0  0  0  0
   21.5779   -5.6580  -13.3342 C   0  0  0  0  0  0  0  0  0  0  0  0
   22.1394   -4.5724  -14.1577 C   0  0  0  0  0  0  0  0  0  0  0  0
   21.8646   -3.3794  -13.9062 O   0  0  0  0  0  0  0  0  0  0  0  0
   22.9796   -4.8725  -15.2206 O   0  0  0  0  0  0  0  0  0  0  0  0
  2  3  1  6
  2  1  1  0
  4  2  1  0
  4  5  1  1
  6  4  1  0
  6  7  2  0
  8  6  1  0
  9  8  1  0
 10 11  1  0
 10  9  1  0
 11 12  1  0
 12  8  1  0
 12 13  1  6
 13 15  1  0
 14 13  2  0
 15 16  1  0
 17 16  1  0
 17 19  1  0
 18 17  2  0
M  END
$$$$
