VPG.pdb
     RDKit          3D

 19 19  0  0  1  0  0  0  0  0999 V2000
   24.8882  -16.9788  -15.4034 C   0  0  0  0  0  0  0  0  0  0  0  0
   26.2294  -17.2952  -14.7770 C   0  0  2  0  0  0  0  0  0  0  0  0
   27.2572  -16.2769  -15.2436 C   0  0  0  0  0  0  0  0  0  0  0  0
   26.6125  -18.6960  -15.2709 C   0  0  2  0  0  0  0  0  0  0  0  0
   26.8980  -18.5842  -16.6641 N   0  0  0  0  0  0  0  0  0  0  0  0
   25.6117  -19.6956  -14.9127 C   0  0  0  0  0  0  0  0  0  0  0  0
   24.7346  -20.0180  -15.7504 O   0  0  0  0  0  0  0  0  0  0  0  0
   25.5841  -20.3266  -13.6478 N   0  0  0  0  0  0  0  0  0  0  0  0
   26.5540  -20.0677  -12.6022 C   0  0  0  0  0  0  0  0  0  0  0  0
   26.1905  -21.0258  -11.4664 C   0  0  0  0  0  0  0  0  0  0  0  0
   25.5334  -22.1427  -12.2508 C   0  0  0  0  0  0  0  0  0  0  0  0
   24.6293  -21.3083  -13.1680 C   0  0  1  0  0  0  0  0  0  0  0  0
   23.5867  -20.6251  -12.3702 C   0  0  0  0  0  0  0  0  0  0  0  0
   23.8619  -19.5552  -11.7301 O   0  0  0  0  0  0  0  0  0  0  0  0
   22.2670  -21.1115  -12.2797 N   0  0  0  0  0  0  0  0  0  0  0  0
   21.1935  -20.5512  -13.0535 C   0  0  0  0  0  0  0  0  0  0  0  0
   20.5274  -21.5940  -13.8539 C   0  0  0  0  0  0  0  0  0  0  0  0
   21.0732  -22.0486  -14.8822 O   0  0  0  0  0  0  0  0  0  0  0  0
   19.2855  -22.0773  -13.4668 O   0  0  0  0  0  0  0  0  0  0  0  0
  2  3  1  6
  2  1  1  0
  4  2  1  0
  4  5  1  6
  6  4  1  0
  6  7  2  0
  8  6  1  0
  9  8  1  0
 10 11  1  0
 10  9  1  0
 11 12  1  0
 12  8  1  0
 12 13  1  1
 13 15  1  0
 14 13  2  0
 15 16  1  0
 17 16  1  0
 17 19  1  0
 18 17  2  0
M  END
$$$$
