VPG.pdb
     RDKit          3D

 19 19  0  0  1  0  0  0  0  0999 V2000
   26.0428  -19.1616  -16.0908 C   0  0  0  0  0  0  0  0  0  0  0  0
   27.0710  -19.2300  -14.9819 C   0  0  2  0  0  0  0  0  0  0  0  0
   28.3963  -18.6839  -15.4880 C   0  0  0  0  0  0  0  0  0  0  0  0
   27.2145  -20.7143  -14.6223 C   0  0  2  0  0  0  0  0  0  0  0  0
   27.7261  -21.3764  -15.7777 N   0  0  0  0  0  0  0  0  0  0  0  0
   25.9795  -21.2673  -14.0763 C   0  0  0  0  0  0  0  0  0  0  0  0
   25.2551  -21.9922  -14.8006 O   0  0  0  0  0  0  0  0  0  0  0  0
   25.5555  -21.0207  -12.7503 N   0  0  0  0  0  0  0  0  0  0  0  0
   26.2914  -20.1937  -11.8146 C   0  0  0  0  0  0  0  0  0  0  0  0
   25.5182  -20.2856  -10.4979 C   0  0  0  0  0  0  0  0  0  0  0  0
   24.8736  -21.6475  -10.6539 C   0  0  0  0  0  0  0  0  0  0  0  0
   24.3611  -21.5200  -12.0948 C   0  0  1  0  0  0  0  0  0  0  0  0
   23.2988  -20.4921  -12.1680 C   0  0  0  0  0  0  0  0  0  0  0  0
   23.5914  -19.2808  -12.4457 O   0  0  0  0  0  0  0  0  0  0  0  0
   21.9410  -20.7934  -11.9395 N   0  0  0  0  0  0  0  0  0  0  0  0
   21.2073  -21.6934  -12.7860 C   0  0  0  0  0  0  0  0  0  0  0  0
   20.6181  -20.9722  -13.9283 C   0  0  0  0  0  0  0  0  0  0  0  0
   21.3287  -20.6363  -14.9001 O   0  0  0  0  0  0  0  0  0  0  0  0
   19.2656  -20.6618  -13.9289 O   0  0  0  0  0  0  0  0  0  0  0  0
  2  3  1  6
  2  1  1  0
  4  2  1  0
  4  5  1  6
  6  4  1  0
  6  7  2  0
  8  6  1  0
  9  8  1  0
 10 11  1  0
 10  9  1  0
 11 12  1  0
 12  8  1  0
 12 13  1  1
 13 15  1  0
 14 13  2  0
 15 16  1  0
 17 16  1  0
 17 19  1  0
 18 17  2  0
M  END
$$$$
