VPG.pdb
     RDKit          3D

 19 19  0  0  1  0  0  0  0  0999 V2000
   25.2887  -17.2616  -15.8515 C   0  0  0  0  0  0  0  0  0  0  0  0
   26.4881  -17.5447  -14.9724 C   0  0  2  0  0  0  0  0  0  0  0  0
   27.5716  -16.5153  -15.2501 C   0  0  0  0  0  0  0  0  0  0  0  0
   26.9799  -18.9456  -15.3577 C   0  0  2  0  0  0  0  0  0  0  0  0
   27.3575  -18.8924  -16.7324 N   0  0  0  0  0  0  0  0  0  0  0  0
   26.0111  -19.9805  -15.0118 C   0  0  0  0  0  0  0  0  0  0  0  0
   25.2944  -20.4804  -15.9125 O   0  0  0  0  0  0  0  0  0  0  0  0
   25.8403  -20.4526  -13.6901 N   0  0  0  0  0  0  0  0  0  0  0  0
   26.6148  -19.9742  -12.5621 C   0  0  0  0  0  0  0  0  0  0  0  0
   26.1589  -20.8182  -11.3706 C   0  0  0  0  0  0  0  0  0  0  0  0
   25.7205  -22.0815  -12.0824 C   0  0  0  0  0  0  0  0  0  0  0  0
   24.9042  -21.4580  -13.2225 C   0  0  1  0  0  0  0  0  0  0  0  0
   23.7007  -20.7890  -12.6799 C   0  0  0  0  0  0  0  0  0  0  0  0
   23.7362  -19.5516  -12.3674 O   0  0  0  0  0  0  0  0  0  0  0  0
   22.4824  -21.4704  -12.4856 N   0  0  0  0  0  0  0  0  0  0  0  0
   21.6478  -21.8680  -13.5858 C   0  0  0  0  0  0  0  0  0  0  0  0
   20.7902  -20.7511  -14.0208 C   0  0  0  0  0  0  0  0  0  0  0  0
   19.8140  -20.9578  -14.7733 O   0  0  0  0  0  0  0  0  0  0  0  0
   21.0651  -19.4595  -13.5942 O   0  0  0  0  0  0  0  0  0  0  0  0
  2  3  1  6
  2  1  1  0
  4  2  1  0
  4  5  1  6
  6  4  1  0
  6  7  2  0
  8  6  1  0
  9  8  1  0
 10 11  1  0
 10  9  1  0
 11 12  1  0
 12  8  1  0
 12 13  1  1
 13 15  1  0
 14 13  2  0
 15 16  1  0
 17 16  1  0
 17 19  1  0
 18 17  2  0
M  END
$$$$
