VPG.pdb
     RDKit          3D

 19 19  0  0  1  0  0  0  0  0999 V2000
   22.2201  -19.3898  -15.1300 C   0  0  0  0  0  0  0  0  0  0  0  0
   23.4049  -19.0921  -16.0239 C   0  0  2  0  0  0  0  0  0  0  0  0
   22.9133  -18.4837  -17.3274 C   0  0  0  0  0  0  0  0  0  0  0  0
   24.0863  -20.4395  -16.2943 C   0  0  2  0  0  0  0  0  0  0  0  0
   23.1534  -21.2421  -17.0159 N   0  0  0  0  0  0  0  0  0  0  0  0
   24.6190  -21.0381  -15.0748 C   0  0  0  0  0  0  0  0  0  0  0  0
   23.9562  -21.9233  -14.4817 O   0  0  0  0  0  0  0  0  0  0  0  0
   25.8651  -20.6616  -14.5230 N   0  0  0  0  0  0  0  0  0  0  0  0
   26.7477  -19.6850  -15.1300 C   0  0  0  0  0  0  0  0  0  0  0  0
   27.9981  -19.6665  -14.2490 C   0  0  0  0  0  0  0  0  0  0  0  0
   27.9604  -21.0744  -13.6914 C   0  0  0  0  0  0  0  0  0  0  0  0
   26.4779  -21.1517  -13.3025 C   0  0  1  0  0  0  0  0  0  0  0  0
   26.1913  -20.2073  -12.1996 C   0  0  0  0  0  0  0  0  0  0  0  0
   25.8037  -19.0176  -12.4534 O   0  0  0  0  0  0  0  0  0  0  0  0
   26.3291  -20.5673  -10.8439 N   0  0  0  0  0  0  0  0  0  0  0  0
   25.4631  -21.5287  -10.2189 C   0  0  0  0  0  0  0  0  0  0  0  0
   24.1682  -20.9167   -9.8714 C   0  0  0  0  0  0  0  0  0  0  0  0
   23.8114  -20.8241   -8.6771 O   0  0  0  0  0  0  0  0  0  0  0  0
   23.3363  -20.4386  -10.8739 O   0  0  0  0  0  0  0  0  0  0  0  0
  2  3  1  6
  2  1  1  0
  4  2  1  0
  4  5  1  1
  6  4  1  0
  6  7  2  0
  8  6  1  0
  9  8  1  0
 10 11  1  0
 10  9  1  0
 11 12  1  0
 12  8  1  0
 12 13  1  1
 13 15  1  0
 14 13  2  0
 15 16  1  0
 17 16  1  0
 17 19  1  0
 18 17  2  0
M  END
$$$$
