RCF.pdb
     RDKit          3D

 29 29  0  0  1  0  0  0  0  0999 V2000
    8.0992  -12.8184   15.8544 N   0  0  0  0  0  0  0  0  0  0  0  0
    8.8117  -14.0466   15.8802 C   0  0  0  0  0  0  0  0  0  0  0  0
    9.0707  -14.6818   14.7941 N   0  0  0  0  0  0  0  0  0  0  0  0
    9.2427  -14.5948   17.1463 N   0  0  0  0  0  0  0  0  0  0  0  0
    8.3211  -15.2576   17.9805 C   0  0  0  0  0  0  0  0  0  0  0  0
    7.3144  -14.5084   18.7397 C   0  0  0  0  0  0  0  0  0  0  0  0
    6.3861  -15.1737   19.6638 C   0  0  0  0  0  0  0  0  0  0  0  0
    6.6397  -16.5654   20.1163 C   0  0  2  0  0  0  0  0  0  0  0  0
    5.8459  -17.4997   19.4056 N   0  0  0  0  0  0  0  0  0  0  0  0
    6.5912  -16.7870   21.5684 C   0  0  0  0  0  0  0  0  0  0  0  0
    5.7744  -16.0392   22.2156 O   0  0  0  0  0  0  0  0  0  0  0  0
    9.6455  -15.5460   14.8485 N   0  0  0  0  0  0  0  0  0  0  0  0
    7.3130  -17.6965   22.3569 C   0  0  2  0  0  0  0  0  0  0  0  0
    7.1782  -17.7972   23.7980 C   0  0  0  0  0  0  0  0  0  0  0  0
    6.9737  -19.2148   24.2432 S   0  0  0  0  0  0  0  0  0  0  0  0
    6.9984  -19.3675   26.0449 C   0  0  0  0  0  0  0  0  0  0  0  0
    8.3680  -17.2858   24.5128 O   0  0  0  0  0  0  0  0  0  0  0  0
    9.4718  -17.7514   24.1478 N   0  0  0  0  0  0  0  0  0  0  0  0
    8.3716  -16.3333   25.5547 C   0  0  1  0  0  0  0  0  0  0  0  0
    9.5409  -15.8124   26.1724 C   0  0  0  0  0  0  0  0  0  0  0  0
    9.7074  -14.3337   26.1166 C   0  0  0  0  0  0  0  0  0  0  0  0
    8.5031  -13.5393   26.3890 C   0  0  0  0  0  0  0  0  0  0  0  0
    8.2840  -12.9025   27.5942 C   0  0  0  0  0  0  0  0  0  0  0  0
    7.1409  -12.1674   27.8313 C   0  0  0  0  0  0  0  0  0  0  0  0
    6.1823  -12.0560   26.8484 C   0  0  0  0  0  0  0  0  0  0  0  0
    6.3772  -12.6759   25.6512 C   0  0  0  0  0  0  0  0  0  0  0  0
    7.5241  -13.4034   25.4374 C   0  0  0  0  0  0  0  0  0  0  0  0
    9.6091  -16.2358   27.5897 O   0  0  0  0  0  0  0  0  0  0  0  0
    8.5573  -16.9688   28.1685 O   0  0  0  0  0  0  0  0  0  0  0  0
  1  2  1  0
  2  4  1  0
  2  3  2  0
  4  5  1  0
  5  6  1  0
  6  7  1  0
  7  8  1  0
  8 10  1  0
  8  9  1  6
 10 11  2  0
 12 13  1  0
 12 10  1  0
 14 15  1  0
 13 14  1  6
 16 17  2  0
 16 13  1  0
 18 16  1  0
 19 18  1  0
 19 27  1  0
 19 20  1  1
 21 20  1  0
 22 21  2  0
 23 22  1  0
 24 23  2  0
 24 25  1  0
 25 26  2  0
 26 21  1  0
 27 29  2  0
 27 28  1  0
M  END
$$$$
