RCF.pdb
     RDKit          3D

 29 29  0  0  1  0  0  0  0  0999 V2000
    9.6667  -14.8489   16.7504 N   0  0  0  0  0  0  0  0  0  0  0  0
    8.8429  -13.8377   16.1885 C   0  0  0  0  0  0  0  0  0  0  0  0
    8.6622  -13.7641   14.9189 N   0  0  0  0  0  0  0  0  0  0  0  0
    8.2071  -12.8719   17.0559 N   0  0  0  0  0  0  0  0  0  0  0  0
    7.9928  -13.1750   18.4148 C   0  0  0  0  0  0  0  0  0  0  0  0
    8.1502  -14.5438   18.9177 C   0  0  0  0  0  0  0  0  0  0  0  0
    7.8707  -14.8929   20.3171 C   0  0  0  0  0  0  0  0  0  0  0  0
    8.0789  -16.2802   20.8048 C   0  0  2  0  0  0  0  0  0  0  0  0
    7.3823  -17.2245   20.0102 N   0  0  0  0  0  0  0  0  0  0  0  0
    7.8596  -16.4949   22.2422 C   0  0  0  0  0  0  0  0  0  0  0  0
    7.6348  -15.4372   22.9320 O   0  0  0  0  0  0  0  0  0  0  0  0
    8.0282  -13.0285   14.5486 N   0  0  0  0  0  0  0  0  0  0  0  0
    7.8643  -17.6909   22.9767 C   0  0  1  0  0  0  0  0  0  0  0  0
    7.6756  -17.7543   24.4138 C   0  0  0  0  0  0  0  0  0  0  0  0
    7.2391  -19.1177   24.8613 S   0  0  0  0  0  0  0  0  0  0  0  0
    5.4891  -19.4145   24.5155 C   0  0  0  0  0  0  0  0  0  0  0  0
    8.9105  -17.4280   25.1598 O   0  0  0  0  0  0  0  0  0  0  0  0
    9.9600  -17.9782   24.7545 N   0  0  0  0  0  0  0  0  0  0  0  0
    9.0116  -16.5643   26.2718 C   0  0  1  0  0  0  0  0  0  0  0  0
   10.2319  -16.1774   26.8892 C   0  0  0  0  0  0  0  0  0  0  0  0
   10.3867  -14.7253   27.1806 C   0  0  0  0  0  0  0  0  0  0  0  0
    9.1420  -13.9545   27.2916 C   0  0  0  0  0  0  0  0  0  0  0  0
    8.6666  -13.4708   28.4941 C   0  0  0  0  0  0  0  0  0  0  0  0
    7.4900  -12.7552   28.5762 C   0  0  0  0  0  0  0  0  0  0  0  0
    6.7578  -12.5081   27.4360 C   0  0  0  0  0  0  0  0  0  0  0  0
    7.2076  -12.9758   26.2382 C   0  0  0  0  0  0  0  0  0  0  0  0
    8.3831  -13.6867   26.1804 C   0  0  0  0  0  0  0  0  0  0  0  0
   10.4354  -16.9295   28.1484 O   0  0  0  0  0  0  0  0  0  0  0  0
   11.6374  -16.8064   28.8686 O   0  0  0  0  0  0  0  0  0  0  0  0
  1  2  1  0
  2  4  1  0
  2  3  2  0
  4  5  1  0
  5  6  1  0
  6  7  1  0
  7  8  1  0
  8 10  1  0
  8  9  1  6
 10 11  2  0
 12 13  1  0
 12 10  1  0
 14 15  1  0
 13 14  1  1
 16 17  2  0
 16 13  1  0
 18 16  1  0
 19 18  1  0
 19 27  1  0
 19 20  1  1
 21 20  1  0
 22 21  2  0
 23 22  1  0
 24 23  2  0
 24 25  1  0
 25 26  2  0
 26 21  1  0
 27 29  2  0
 27 28  1  0
M  END
$$$$
