RCF.pdb
     RDKit          3D

 29 29  0  0  1  0  0  0  0  0999 V2000
    7.4251  -13.2746   16.4910 N   0  0  0  0  0  0  0  0  0  0  0  0
    8.5211  -14.1469   16.7256 C   0  0  0  0  0  0  0  0  0  0  0  0
    8.8720  -15.0160   15.8472 N   0  0  0  0  0  0  0  0  0  0  0  0
    9.2453  -14.0627   17.9737 N   0  0  0  0  0  0  0  0  0  0  0  0
    8.6599  -13.4335   19.0900 C   0  0  0  0  0  0  0  0  0  0  0  0
    7.3890  -13.9102   19.6458 C   0  0  0  0  0  0  0  0  0  0  0  0
    7.2920  -14.4477   21.0096 C   0  0  0  0  0  0  0  0  0  0  0  0
    7.1767  -15.9107   21.2377 C   0  0  2  0  0  0  0  0  0  0  0  0
    5.9834  -16.4348   20.6813 N   0  0  0  0  0  0  0  0  0  0  0  0
    7.3905  -16.3637   22.6195 C   0  0  0  0  0  0  0  0  0  0  0  0
    6.3550  -16.3409   23.3760 O   0  0  0  0  0  0  0  0  0  0  0  0
    9.6654  -15.6510   16.0653 N   0  0  0  0  0  0  0  0  0  0  0  0
    8.5663  -16.8153   23.2387 C   0  0  2  0  0  0  0  0  0  0  0  0
    8.6178  -17.3217   24.5973 C   0  0  0  0  0  0  0  0  0  0  0  0
    9.1820  -18.7102   24.6559 S   0  0  0  0  0  0  0  0  0  0  0  0
    9.3656  -19.2938   26.3576 C   0  0  0  0  0  0  0  0  0  0  0  0
    9.4499  -16.4781   25.4826 O   0  0  0  0  0  0  0  0  0  0  0  0
   10.5053  -16.0275   24.9809 N   0  0  0  0  0  0  0  0  0  0  0  0
    9.1660  -16.1395   26.8233 C   0  0  1  0  0  0  0  0  0  0  0  0
    9.9746  -15.2992   27.6356 C   0  0  0  0  0  0  0  0  0  0  0  0
    9.2496  -14.3048   28.4741 C   0  0  0  0  0  0  0  0  0  0  0  0
    8.2373  -13.4961   27.7836 C   0  0  0  0  0  0  0  0  0  0  0  0
    8.5527  -12.3706   27.0489 C   0  0  0  0  0  0  0  0  0  0  0  0
    7.5839  -11.6209   26.4144 C   0  0  0  0  0  0  0  0  0  0  0  0
    6.2607  -11.9925   26.5070 C   0  0  0  0  0  0  0  0  0  0  0  0
    5.9260  -13.0996   27.2266 C   0  0  0  0  0  0  0  0  0  0  0  0
    6.9085  -13.8315   27.8506 C   0  0  0  0  0  0  0  0  0  0  0  0
   10.8394  -16.1125   28.5207 O   0  0  0  0  0  0  0  0  0  0  0  0
   11.7710  -15.4946   29.3745 O   0  0  0  0  0  0  0  0  0  0  0  0
  1  2  1  0
  2  4  1  0
  2  3  2  0
  4  5  1  0
  5  6  1  0
  6  7  1  0
  7  8  1  0
  8 10  1  0
  8  9  1  1
 10 11  2  0
 12 13  1  0
 12 10  1  0
 14 15  1  0
 13 14  1  6
 16 17  2  0
 16 13  1  0
 18 16  1  0
 19 18  1  0
 19 27  1  0
 19 20  1  1
 21 20  1  0
 22 21  2  0
 23 22  1  0
 24 23  2  0
 24 25  1  0
 25 26  2  0
 26 21  1  0
 27 29  2  0
 27 28  1  0
M  END
$$$$
