RCF.pdb
     RDKit          3D

 29 29  0  0  1  0  0  0  0  0999 V2000
    7.7400  -12.8839   17.2699 N   0  0  0  0  0  0  0  0  0  0  0  0
    8.2778  -13.0165   18.5777 C   0  0  0  0  0  0  0  0  0  0  0  0
    8.1727  -12.0644   19.4336 N   0  0  0  0  0  0  0  0  0  0  0  0
    8.9615  -14.2351   18.9477 N   0  0  0  0  0  0  0  0  0  0  0  0
    8.3479  -15.1522   19.8235 C   0  0  0  0  0  0  0  0  0  0  0  0
    6.9080  -15.0900   20.0954 C   0  0  0  0  0  0  0  0  0  0  0  0
    6.2780  -15.9184   21.1323 C   0  0  0  0  0  0  0  0  0  0  0  0
    6.8921  -17.2058   21.5462 C   0  0  2  0  0  0  0  0  0  0  0  0
    6.2569  -18.3115   20.9278 N   0  0  0  0  0  0  0  0  0  0  0  0
    7.0608  -17.4006   22.9932 C   0  0  0  0  0  0  0  0  0  0  0  0
    5.9769  -17.4260   23.6784 O   0  0  0  0  0  0  0  0  0  0  0  0
    8.5969  -12.1920   20.3738 N   0  0  0  0  0  0  0  0  0  0  0  0
    8.2380  -17.5589   23.7410 C   0  0  2  0  0  0  0  0  0  0  0  0
    8.2636  -17.6811   25.1864 C   0  0  0  0  0  0  0  0  0  0  0  0
    8.8101  -19.0068   25.6264 S   0  0  0  0  0  0  0  0  0  0  0  0
   10.4414  -19.3340   24.9179 C   0  0  0  0  0  0  0  0  0  0  0  0
    9.0929  -16.6365   25.8262 O   0  0  0  0  0  0  0  0  0  0  0  0
   10.0440  -16.1934   25.1423 N   0  0  0  0  0  0  0  0  0  0  0  0
    8.9117  -16.1014   27.1198 C   0  0  1  0  0  0  0  0  0  0  0  0
    9.7928  -15.1784   27.7457 C   0  0  0  0  0  0  0  0  0  0  0  0
    9.2118  -13.8526   28.0952 C   0  0  0  0  0  0  0  0  0  0  0  0
    8.4553  -13.1804   27.0315 C   0  0  0  0  0  0  0  0  0  0  0  0
    7.0920  -13.3304   26.8741 C   0  0  0  0  0  0  0  0  0  0  0  0
    6.4023  -12.6951   25.8621 C   0  0  0  0  0  0  0  0  0  0  0  0
    7.0783  -11.8853   24.9763 C   0  0  0  0  0  0  0  0  0  0  0  0
    8.4239  -11.7225   25.1124 C   0  0  0  0  0  0  0  0  0  0  0  0
    9.0904  -12.3657   26.1286 C   0  0  0  0  0  0  0  0  0  0  0  0
   10.3750  -15.7698   28.9721 O   0  0  0  0  0  0  0  0  0  0  0  0
    9.9745  -17.0449   29.4107 O   0  0  0  0  0  0  0  0  0  0  0  0
  1  2  1  0
  2  4  1  0
  2  3  2  0
  4  5  1  0
  5  6  1  0
  6  7  1  0
  7  8  1  0
  8 10  1  0
  8  9  1  1
 10 11  2  0
 12 13  1  0
 12 10  1  0
 14 15  1  0
 13 14  1  6
 16 17  2  0
 16 13  1  0
 18 16  1  0
 19 18  1  0
 19 27  1  0
 19 20  1  1
 21 20  1  0
 22 21  2  0
 23 22  1  0
 24 23  2  0
 24 25  1  0
 25 26  2  0
 26 21  1  0
 27 29  2  0
 27 28  1  0
M  END
$$$$
