RCF.pdb
     RDKit          3D

 29 29  0  0  1  0  0  0  0  0999 V2000
    9.0368  -13.3219   20.9809 N   0  0  0  0  0  0  0  0  0  0  0  0
    8.7042  -13.0333   19.6307 C   0  0  0  0  0  0  0  0  0  0  0  0
    9.0002  -11.8984   19.1067 N   0  0  0  0  0  0  0  0  0  0  0  0
    8.0145  -14.0259   18.8381 N   0  0  0  0  0  0  0  0  0  0  0  0
    6.8323  -14.6203   19.3216 C   0  0  0  0  0  0  0  0  0  0  0  0
    6.4589  -14.5179   20.7362 C   0  0  0  0  0  0  0  0  0  0  0  0
    6.3317  -15.7048   21.5927 C   0  0  0  0  0  0  0  0  0  0  0  0
    7.2644  -16.8503   21.4383 C   0  0  2  0  0  0  0  0  0  0  0  0
    6.6330  -17.9601   20.8233 N   0  0  0  0  0  0  0  0  0  0  0  0
    8.0133  -17.2351   22.6429 C   0  0  0  0  0  0  0  0  0  0  0  0
    7.3782  -17.9737   23.4773 O   0  0  0  0  0  0  0  0  0  0  0  0
    8.7791  -11.7412   18.1034 N   0  0  0  0  0  0  0  0  0  0  0  0
    9.3253  -16.9089   23.0201 C   0  0  2  0  0  0  0  0  0  0  0  0
    9.9709  -17.4208   24.2143 C   0  0  0  0  0  0  0  0  0  0  0  0
   11.2723  -18.0972   23.9007 S   0  0  0  0  0  0  0  0  0  0  0  0
   12.1324  -17.3021   22.5229 C   0  0  0  0  0  0  0  0  0  0  0  0
   10.2621  -16.3557   25.1986 O   0  0  0  0  0  0  0  0  0  0  0  0
   10.8459  -15.3406   24.7546 N   0  0  0  0  0  0  0  0  0  0  0  0
    9.9458  -16.3797   26.5741 C   0  0  1  0  0  0  0  0  0  0  0  0
   10.2153  -15.3235   27.4862 C   0  0  0  0  0  0  0  0  0  0  0  0
    9.0282  -14.5974   28.0163 C   0  0  0  0  0  0  0  0  0  0  0  0
    8.2119  -13.8868   27.0243 C   0  0  0  0  0  0  0  0  0  0  0  0
    7.1783  -14.4899   26.3359 C   0  0  0  0  0  0  0  0  0  0  0  0
    6.4290  -13.8049   25.4018 C   0  0  0  0  0  0  0  0  0  0  0  0
    6.7073  -12.4820   25.1374 C   0  0  0  0  0  0  0  0  0  0  0  0
    7.7227  -11.8662   25.8047 C   0  0  0  0  0  0  0  0  0  0  0  0
    8.4562  -12.5688   26.7314 C   0  0  0  0  0  0  0  0  0  0  0  0
   11.0078  -15.8211   28.6338 O   0  0  0  0  0  0  0  0  0  0  0  0
   11.3200  -17.1879   28.7482 O   0  0  0  0  0  0  0  0  0  0  0  0
  1  2  1  0
  2  4  1  0
  2  3  2  0
  4  5  1  0
  5  6  1  0
  6  7  1  0
  7  8  1  0
  8 10  1  0
  8  9  1  1
 10 11  2  0
 12 13  1  0
 12 10  1  0
 14 15  1  0
 13 14  1  6
 16 17  2  0
 16 13  1  0
 18 16  1  0
 19 18  1  0
 19 27  1  0
 19 20  1  1
 21 20  1  0
 22 21  2  0
 23 22  1  0
 24 23  2  0
 24 25  1  0
 25 26  2  0
 26 21  1  0
 27 29  2  0
 27 28  1  0
M  END
$$$$
