RCF.pdb
     RDKit          3D

 29 29  0  0  1  0  0  0  0  0999 V2000
    7.5746  -13.0970   16.7688 N   0  0  0  0  0  0  0  0  0  0  0  0
    8.5581  -14.0438   17.1604 C   0  0  0  0  0  0  0  0  0  0  0  0
    9.3664  -14.5494   16.2996 N   0  0  0  0  0  0  0  0  0  0  0  0
    8.6445  -14.4516   18.5444 N   0  0  0  0  0  0  0  0  0  0  0  0
    8.2686  -15.7557   18.9222 C   0  0  0  0  0  0  0  0  0  0  0  0
    6.9024  -16.2419   18.7022 C   0  0  0  0  0  0  0  0  0  0  0  0
    6.0546  -16.7009   19.8108 C   0  0  0  0  0  0  0  0  0  0  0  0
    6.4697  -17.8528   20.6513 C   0  0  2  0  0  0  0  0  0  0  0  0
    5.7740  -19.0359   20.2983 N   0  0  0  0  0  0  0  0  0  0  0  0
    6.4699  -17.6212   22.1027 C   0  0  0  0  0  0  0  0  0  0  0  0
    5.4863  -16.9325   22.5536 O   0  0  0  0  0  0  0  0  0  0  0  0
   10.0440  -15.2705   16.6174 N   0  0  0  0  0  0  0  0  0  0  0  0
    7.3937  -18.0398   23.0730 C   0  0  2  0  0  0  0  0  0  0  0  0
    7.2814  -17.7188   24.4834 C   0  0  0  0  0  0  0  0  0  0  0  0
    7.0392  -18.9413   25.3180 S   0  0  0  0  0  0  0  0  0  0  0  0
    8.4315  -20.0933   25.2491 C   0  0  0  0  0  0  0  0  0  0  0  0
    8.4996  -17.0673   25.0123 O   0  0  0  0  0  0  0  0  0  0  0  0
    9.5642  -17.3102   24.3989 N   0  0  0  0  0  0  0  0  0  0  0  0
    8.5697  -16.2084   26.1303 C   0  0  1  0  0  0  0  0  0  0  0  0
    9.7504  -15.5566   26.5788 C   0  0  0  0  0  0  0  0  0  0  0  0
    9.7028  -14.0688   26.6166 C   0  0  0  0  0  0  0  0  0  0  0  0
    8.4039  -13.4744   26.9561 C   0  0  0  0  0  0  0  0  0  0  0  0
    7.4405  -13.1913   26.0087 C   0  0  0  0  0  0  0  0  0  0  0  0
    6.2294  -12.6252   26.3494 C   0  0  0  0  0  0  0  0  0  0  0  0
    5.9588  -12.3283   27.6670 C   0  0  0  0  0  0  0  0  0  0  0  0
    6.8947  -12.5990   28.6190 C   0  0  0  0  0  0  0  0  0  0  0  0
    8.0948  -13.1634   28.2562 C   0  0  0  0  0  0  0  0  0  0  0  0
   10.1314  -16.0449   27.9238 O   0  0  0  0  0  0  0  0  0  0  0  0
   11.3334  -15.6260   28.5226 O   0  0  0  0  0  0  0  0  0  0  0  0
  1  2  1  0
  2  4  1  0
  2  3  2  0
  4  5  1  0
  5  6  1  0
  6  7  1  0
  7  8  1  0
  8 10  1  0
  8  9  1  1
 10 11  2  0
 12 13  1  0
 12 10  1  0
 14 15  1  0
 13 14  1  6
 16 17  2  0
 16 13  1  0
 18 16  1  0
 19 18  1  0
 19 27  1  0
 19 20  1  1
 21 20  1  0
 22 21  2  0
 23 22  1  0
 24 23  2  0
 24 25  1  0
 25 26  2  0
 26 21  1  0
 27 29  2  0
 27 28  1  0
M  END
$$$$
