RCF.pdb
     RDKit          3D

 29 29  0  0  1  0  0  0  0  0999 V2000
    9.7713  -13.7472   19.7531 N   0  0  0  0  0  0  0  0  0  0  0  0
    8.6613  -12.8729   19.8960 C   0  0  0  0  0  0  0  0  0  0  0  0
    8.8318  -11.6313   20.1779 N   0  0  0  0  0  0  0  0  0  0  0  0
    7.3211  -13.3889   19.7321 N   0  0  0  0  0  0  0  0  0  0  0  0
    7.0713  -14.7676   19.8781 C   0  0  0  0  0  0  0  0  0  0  0  0
    7.8049  -15.7569   19.0817 C   0  0  0  0  0  0  0  0  0  0  0  0
    7.4741  -17.1876   19.1259 C   0  0  0  0  0  0  0  0  0  0  0  0
    8.0895  -18.0733   20.1470 C   0  0  2  0  0  0  0  0  0  0  0  0
    7.6161  -19.4047   20.0388 N   0  0  0  0  0  0  0  0  0  0  0  0
    8.0503  -17.5810   21.5313 C   0  0  0  0  0  0  0  0  0  0  0  0
    8.7897  -16.5623   21.7777 O   0  0  0  0  0  0  0  0  0  0  0  0
    7.9950  -11.0454   20.3693 N   0  0  0  0  0  0  0  0  0  0  0  0
    7.3240  -18.0653   22.6304 C   0  0  2  0  0  0  0  0  0  0  0  0
    7.3786  -17.4755   23.9548 C   0  0  0  0  0  0  0  0  0  0  0  0
    6.5349  -18.2304   24.9387 S   0  0  0  0  0  0  0  0  0  0  0  0
    7.2979  -19.7972   25.4212 C   0  0  0  0  0  0  0  0  0  0  0  0
    8.7532  -17.4400   24.5002 O   0  0  0  0  0  0  0  0  0  0  0  0
    9.6773  -17.6293   23.6764 N   0  0  0  0  0  0  0  0  0  0  0  0
    9.1125  -17.2149   25.8466 C   0  0  1  0  0  0  0  0  0  0  0  0
   10.4381  -16.9827   26.3036 C   0  0  0  0  0  0  0  0  0  0  0  0
   10.8452  -15.5562   26.4342 C   0  0  0  0  0  0  0  0  0  0  0  0
    9.9212  -14.6880   27.1744 C   0  0  0  0  0  0  0  0  0  0  0  0
    8.8660  -14.0325   26.5718 C   0  0  0  0  0  0  0  0  0  0  0  0
    8.0145  -13.2148   27.2857 C   0  0  0  0  0  0  0  0  0  0  0  0
    8.2091  -13.0372   28.6377 C   0  0  0  0  0  0  0  0  0  0  0  0
    9.2439  -13.6741   29.2535 C   0  0  0  0  0  0  0  0  0  0  0  0
   10.0799  -14.4842   28.5219 C   0  0  0  0  0  0  0  0  0  0  0  0
   10.6607  -17.6516   27.6058 O   0  0  0  0  0  0  0  0  0  0  0  0
   11.9466  -17.7007   28.1740 O   0  0  0  0  0  0  0  0  0  0  0  0
  1  2  1  0
  2  4  1  0
  2  3  2  0
  4  5  1  0
  5  6  1  0
  6  7  1  0
  7  8  1  0
  8 10  1  0
  8  9  1  1
 10 11  2  0
 12 13  1  0
 12 10  1  0
 14 15  1  0
 13 14  1  6
 16 17  2  0
 16 13  1  0
 18 16  1  0
 19 18  1  0
 19 27  1  0
 19 20  1  1
 21 20  1  0
 22 21  2  0
 23 22  1  0
 24 23  2  0
 24 25  1  0
 25 26  2  0
 26 21  1  0
 27 29  2  0
 27 28  1  0
M  END
$$$$
