RCF.pdb
     RDKit          3D

 29 29  0  0  1  0  0  0  0  0999 V2000
   10.5634  -14.1874   19.1924 N   0  0  0  0  0  0  0  0  0  0  0  0
    9.6599  -13.1400   18.8706 C   0  0  0  0  0  0  0  0  0  0  0  0
   10.0113  -11.9093   18.9791 N   0  0  0  0  0  0  0  0  0  0  0  0
    8.3234  -13.4628   18.4245 N   0  0  0  0  0  0  0  0  0  0  0  0
    7.6836  -14.6274   18.8925 C   0  0  0  0  0  0  0  0  0  0  0  0
    6.8620  -14.6019   20.1072 C   0  0  0  0  0  0  0  0  0  0  0  0
    6.1892  -15.8057   20.6138 C   0  0  0  0  0  0  0  0  0  0  0  0
    6.9553  -17.0560   20.8490 C   0  0  2  0  0  0  0  0  0  0  0  0
    6.2594  -18.1941   20.3707 N   0  0  0  0  0  0  0  0  0  0  0  0
    7.4642  -17.2498   22.2142 C   0  0  0  0  0  0  0  0  0  0  0  0
    6.5708  -17.3549   23.1284 O   0  0  0  0  0  0  0  0  0  0  0  0
    9.3087  -11.1716   18.7734 N   0  0  0  0  0  0  0  0  0  0  0  0
    8.7894  -17.3325   22.6691 C   0  0  2  0  0  0  0  0  0  0  0  0
    9.1528  -17.6418   24.0393 C   0  0  0  0  0  0  0  0  0  0  0  0
   10.0512  -18.8399   24.1231 S   0  0  0  0  0  0  0  0  0  0  0  0
   11.5028  -18.6721   23.0578 C   0  0  0  0  0  0  0  0  0  0  0  0
    9.8588  -16.5235   24.7017 O   0  0  0  0  0  0  0  0  0  0  0  0
   10.6171  -15.8429   23.9736 N   0  0  0  0  0  0  0  0  0  0  0  0
    9.7564  -16.1590   26.0616 C   0  0  1  0  0  0  0  0  0  0  0  0
   10.4464  -15.0719   26.6634 C   0  0  0  0  0  0  0  0  0  0  0  0
    9.7623  -13.7504   26.6067 C   0  0  0  0  0  0  0  0  0  0  0  0
    8.3530  -13.7365   27.0178 C   0  0  0  0  0  0  0  0  0  0  0  0
    7.3276  -14.1423   26.1872 C   0  0  0  0  0  0  0  0  0  0  0  0
    6.0090  -14.1135   26.5919 C   0  0  0  0  0  0  0  0  0  0  0  0
    5.6903  -13.6702   27.8565 C   0  0  0  0  0  0  0  0  0  0  0  0
    6.6858  -13.2648   28.6934 C   0  0  0  0  0  0  0  0  0  0  0  0
    7.9929  -13.3022   28.2685 C   0  0  0  0  0  0  0  0  0  0  0  0
   10.7556  -15.3760   28.0792 O   0  0  0  0  0  0  0  0  0  0  0  0
   10.3694  -16.6033   28.6478 O   0  0  0  0  0  0  0  0  0  0  0  0
  1  2  1  0
  2  4  1  0
  2  3  2  0
  4  5  1  0
  5  6  1  0
  6  7  1  0
  7  8  1  0
  8 10  1  0
  8  9  1  1
 10 11  2  0
 12 13  1  0
 12 10  1  0
 14 15  1  0
 13 14  1  6
 16 17  2  0
 16 13  1  0
 18 16  1  0
 19 18  1  0
 19 27  1  0
 19 20  1  1
 21 20  1  0
 22 21  2  0
 23 22  1  0
 24 23  2  0
 24 25  1  0
 25 26  2  0
 26 21  1  0
 27 29  2  0
 27 28  1  0
M  END
$$$$
