RCF.pdb
     RDKit          3D

 29 29  0  0  1  0  0  0  0  0999 V2000
    7.2595  -13.6312   16.4163 N   0  0  0  0  0  0  0  0  0  0  0  0
    8.5601  -13.8849   16.9273 C   0  0  0  0  0  0  0  0  0  0  0  0
    9.6055  -13.6298   16.2259 N   0  0  0  0  0  0  0  0  0  0  0  0
    8.7094  -14.4470   18.2505 N   0  0  0  0  0  0  0  0  0  0  0  0
    7.8164  -15.4382   18.7028 C   0  0  0  0  0  0  0  0  0  0  0  0
    6.5882  -15.0787   19.4195 C   0  0  0  0  0  0  0  0  0  0  0  0
    6.3933  -15.4080   20.8379 C   0  0  0  0  0  0  0  0  0  0  0  0
    6.8917  -16.6937   21.3895 C   0  0  2  0  0  0  0  0  0  0  0  0
    6.2201  -17.8035   20.8189 N   0  0  0  0  0  0  0  0  0  0  0  0
    6.9600  -16.7798   22.8551 C   0  0  0  0  0  0  0  0  0  0  0  0
    5.9752  -16.2545   23.4871 O   0  0  0  0  0  0  0  0  0  0  0  0
   10.5372  -13.8789   16.6134 N   0  0  0  0  0  0  0  0  0  0  0  0
    7.9500  -17.3501   23.6704 C   0  0  2  0  0  0  0  0  0  0  0  0
    7.8798  -17.3833   25.1191 C   0  0  0  0  0  0  0  0  0  0  0  0
    8.0312  -18.7760   25.6549 S   0  0  0  0  0  0  0  0  0  0  0  0
    9.5703  -19.5487   25.1034 C   0  0  0  0  0  0  0  0  0  0  0  0
    8.9306  -16.5581   25.7538 O   0  0  0  0  0  0  0  0  0  0  0  0
    9.9323  -16.3032   25.0467 N   0  0  0  0  0  0  0  0  0  0  0  0
    8.9066  -16.0391   27.0663 C   0  0  1  0  0  0  0  0  0  0  0  0
    9.8904  -15.1707   27.6125 C   0  0  0  0  0  0  0  0  0  0  0  0
    9.3907  -13.8832   28.1693 C   0  0  0  0  0  0  0  0  0  0  0  0
    8.2951  -13.2439   27.4300 C   0  0  0  0  0  0  0  0  0  0  0  0
    8.4114  -12.8517   26.1115 C   0  0  0  0  0  0  0  0  0  0  0  0
    7.3710  -12.2452   25.4384 C   0  0  0  0  0  0  0  0  0  0  0  0
    6.1767  -12.0177   26.0860 C   0  0  0  0  0  0  0  0  0  0  0  0
    6.0391  -12.3964   27.3873 C   0  0  0  0  0  0  0  0  0  0  0  0
    7.0897  -12.9991   28.0380 C   0  0  0  0  0  0  0  0  0  0  0  0
   10.6647  -15.8648   28.6667 O   0  0  0  0  0  0  0  0  0  0  0  0
   10.3712  -17.1972   29.0094 O   0  0  0  0  0  0  0  0  0  0  0  0
  1  2  1  0
  2  4  1  0
  2  3  2  0
  4  5  1  0
  5  6  1  0
  6  7  1  0
  7  8  1  0
  8 10  1  0
  8  9  1  1
 10 11  2  0
 12 13  1  0
 12 10  1  0
 14 15  1  0
 13 14  1  6
 16 17  2  0
 16 13  1  0
 18 16  1  0
 19 18  1  0
 19 27  1  0
 19 20  1  1
 21 20  1  0
 22 21  2  0
 23 22  1  0
 24 23  2  0
 24 25  1  0
 25 26  2  0
 26 21  1  0
 27 29  2  0
 27 28  1  0
M  END
$$$$
