RCF.pdb
     RDKit          3D

 29 29  0  0  1  0  0  0  0  0999 V2000
    9.0691  -21.5658   17.2573 N   0  0  0  0  0  0  0  0  0  0  0  0
   10.4407  -21.4676   17.6122 C   0  0  0  0  0  0  0  0  0  0  0  0
   11.3510  -22.0037   16.8814 N   0  0  0  0  0  0  0  0  0  0  0  0
   10.8171  -20.7637   18.8172 N   0  0  0  0  0  0  0  0  0  0  0  0
    9.8694  -20.5519   19.8378 C   0  0  0  0  0  0  0  0  0  0  0  0
    8.6339  -19.8050   19.5786 C   0  0  0  0  0  0  0  0  0  0  0  0
    7.6174  -19.6021   20.6197 C   0  0  0  0  0  0  0  0  0  0  0  0
    7.9162  -18.7723   21.8147 C   0  0  2  0  0  0  0  0  0  0  0  0
    7.1539  -19.1788   22.9381 N   0  0  0  0  0  0  0  0  0  0  0  0
    7.8741  -17.3171   21.6125 C   0  0  0  0  0  0  0  0  0  0  0  0
    6.7181  -16.8280   21.3491 O   0  0  0  0  0  0  0  0  0  0  0  0
   12.3462  -21.8728   17.1511 N   0  0  0  0  0  0  0  0  0  0  0  0
    8.9170  -16.3790   21.6603 C   0  0  1  0  0  0  0  0  0  0  0  0
    8.7621  -15.0275   22.1645 C   0  0  0  0  0  0  0  0  0  0  0  0
    7.3610  -14.5218   21.9886 S   0  0  0  0  0  0  0  0  0  0  0  0
    7.2019  -13.4658   20.5293 C   0  0  0  0  0  0  0  0  0  0  0  0
    9.0831  -14.9224   23.6046 O   0  0  0  0  0  0  0  0  0  0  0  0
    9.6523  -13.8670   23.9661 N   0  0  0  0  0  0  0  0  0  0  0  0
    8.8098  -15.8908   24.5947 C   0  0  1  0  0  0  0  0  0  0  0  0
    9.2432  -15.8130   25.9460 C   0  0  0  0  0  0  0  0  0  0  0  0
    8.2171  -15.3917   26.9394 C   0  0  0  0  0  0  0  0  0  0  0  0
    7.7980  -13.9860   26.8758 C   0  0  0  0  0  0  0  0  0  0  0  0
    8.6286  -12.9413   27.2290 C   0  0  0  0  0  0  0  0  0  0  0  0
    8.2111  -11.6278   27.1690 C   0  0  0  0  0  0  0  0  0  0  0  0
    6.9332  -11.3340   26.7470 C   0  0  0  0  0  0  0  0  0  0  0  0
    6.0961  -12.3489   26.3935 C   0  0  0  0  0  0  0  0  0  0  0  0
    6.5339  -13.6505   26.4614 C   0  0  0  0  0  0  0  0  0  0  0  0
    9.8097  -17.1096   26.3827 O   0  0  0  0  0  0  0  0  0  0  0  0
    9.8524  -18.2046   25.5007 O   0  0  0  0  0  0  0  0  0  0  0  0
  1  2  1  0
  2  4  1  0
  2  3  2  0
  4  5  1  0
  5  6  1  0
  6  7  1  0
  7  8  1  0
  8 10  1  0
  8  9  1  1
 10 11  2  0
 12 13  1  0
 12 10  1  0
 14 15  1  0
 13 14  1  1
 16 17  2  0
 16 13  1  0
 18 16  1  0
 19 18  1  0
 19 27  1  0
 19 20  1  1
 21 20  1  0
 22 21  2  0
 23 22  1  0
 24 23  2  0
 24 25  1  0
 25 26  2  0
 26 21  1  0
 27 29  2  0
 27 28  1  0
M  END
$$$$
