RCF.pdb
     RDKit          3D

 29 29  0  0  1  0  0  0  0  0999 V2000
    6.8093  -13.2999   15.6315 N   0  0  0  0  0  0  0  0  0  0  0  0
    8.1882  -13.5648   15.4182 C   0  0  0  0  0  0  0  0  0  0  0  0
    8.9085  -12.7763   14.7045 N   0  0  0  0  0  0  0  0  0  0  0  0
    8.7871  -14.7430   16.0035 N   0  0  0  0  0  0  0  0  0  0  0  0
    8.5334  -15.0707   17.3499 C   0  0  0  0  0  0  0  0  0  0  0  0
    7.4215  -14.4540   18.0811 C   0  0  0  0  0  0  0  0  0  0  0  0
    7.1466  -14.7736   19.4885 C   0  0  0  0  0  0  0  0  0  0  0  0
    8.1015  -15.5941   20.2764 C   0  0  2  0  0  0  0  0  0  0  0  0
    8.3190  -16.8611   19.6799 N   0  0  0  0  0  0  0  0  0  0  0  0
    7.8223  -15.6987   21.7156 C   0  0  0  0  0  0  0  0  0  0  0  0
    7.5400  -14.5958   22.3063 O   0  0  0  0  0  0  0  0  0  0  0  0
    9.9051  -13.0231   14.5428 N   0  0  0  0  0  0  0  0  0  0  0  0
    7.8235  -16.8311   22.5448 C   0  0  1  0  0  0  0  0  0  0  0  0
    7.6449  -16.7760   23.9836 C   0  0  0  0  0  0  0  0  0  0  0  0
    6.9978  -18.0204   24.5152 S   0  0  0  0  0  0  0  0  0  0  0  0
    6.7402  -17.9372   26.3031 C   0  0  0  0  0  0  0  0  0  0  0  0
    8.9257  -16.6114   24.7050 O   0  0  0  0  0  0  0  0  0  0  0  0
    9.6121  -17.6486   24.8517 N   0  0  0  0  0  0  0  0  0  0  0  0
    9.4373  -15.4075   25.2356 C   0  0  2  0  0  0  0  0  0  0  0  0
    9.6408  -15.1535   26.6191 C   0  0  0  0  0  0  0  0  0  0  0  0
    8.4689  -14.6181   27.3658 C   0  0  0  0  0  0  0  0  0  0  0  0
    7.8153  -13.4410   26.7803 C   0  0  0  0  0  0  0  0  0  0  0  0
    6.7007  -12.8489   27.3397 C   0  0  0  0  0  0  0  0  0  0  0  0
    6.0978  -11.7476   26.7680 C   0  0  0  0  0  0  0  0  0  0  0  0
    6.6100  -11.2122   25.6068 C   0  0  0  0  0  0  0  0  0  0  0  0
    7.7093  -11.7801   25.0369 C   0  0  0  0  0  0  0  0  0  0  0  0
    8.2936  -12.8773   25.6245 C   0  0  0  0  0  0  0  0  0  0  0  0
   10.1108  -16.3783   27.3059 O   0  0  0  0  0  0  0  0  0  0  0  0
   10.1900  -17.6005   26.6140 O   0  0  0  0  0  0  0  0  0  0  0  0
  1  2  1  0
  2  4  1  0
  2  3  2  0
  4  5  1  0
  5  6  1  0
  6  7  1  0
  7  8  1  0
  8 10  1  0
  8  9  1  6
 10 11  2  0
 12 13  1  0
 12 10  1  0
 14 15  1  0
 13 14  1  1
 16 17  2  0
 16 13  1  0
 18 16  1  0
 19 18  1  0
 19 27  1  0
 19 20  1  6
 21 20  1  0
 22 21  2  0
 23 22  1  0
 24 23  2  0
 24 25  1  0
 25 26  2  0
 26 21  1  0
 27 29  2  0
 27 28  1  0
M  END
$$$$
