RCF.pdb
     RDKit          3D

 29 29  0  0  1  0  0  0  0  0999 V2000
    4.4171  -22.3622   24.7879 N   0  0  0  0  0  0  0  0  0  0  0  0
    5.2576  -23.3202   24.1611 C   0  0  0  0  0  0  0  0  0  0  0  0
    4.9481  -24.5669   24.1573 N   0  0  0  0  0  0  0  0  0  0  0  0
    6.4828  -22.8882   23.5274 N   0  0  0  0  0  0  0  0  0  0  0  0
    6.7009  -21.5207   23.2682 C   0  0  0  0  0  0  0  0  0  0  0  0
    5.5811  -20.6181   22.9810 C   0  0  0  0  0  0  0  0  0  0  0  0
    5.7890  -19.1945   22.6837 C   0  0  0  0  0  0  0  0  0  0  0  0
    6.4528  -18.7758   21.4228 C   0  0  2  0  0  0  0  0  0  0  0  0
    6.8558  -19.8919   20.6479 N   0  0  0  0  0  0  0  0  0  0  0  0
    7.5250  -17.7803   21.5617 C   0  0  0  0  0  0  0  0  0  0  0  0
    8.7057  -18.2564   21.7181 O   0  0  0  0  0  0  0  0  0  0  0  0
    5.6070  -25.2414   23.7201 N   0  0  0  0  0  0  0  0  0  0  0  0
    7.4481  -16.3789   21.5535 C   0  0  2  0  0  0  0  0  0  0  0  0
    8.5511  -15.5095   21.9175 C   0  0  0  0  0  0  0  0  0  0  0  0
    8.4187  -14.1491   21.2999 S   0  0  0  0  0  0  0  0  0  0  0  0
    6.7355  -13.5036   21.4415 C   0  0  0  0  0  0  0  0  0  0  0  0
    8.6559  -15.3134   23.3799 O   0  0  0  0  0  0  0  0  0  0  0  0
    8.2263  -14.2228   23.8211 N   0  0  0  0  0  0  0  0  0  0  0  0
    9.1887  -16.2316   24.3103 C   0  0  1  0  0  0  0  0  0  0  0  0
    9.3914  -15.9611   25.6907 C   0  0  0  0  0  0  0  0  0  0  0  0
    8.1732  -15.6220   26.4772 C   0  0  0  0  0  0  0  0  0  0  0  0
    7.7234  -14.2266   26.3982 C   0  0  0  0  0  0  0  0  0  0  0  0
    8.4983  -13.1659   26.8226 C   0  0  0  0  0  0  0  0  0  0  0  0
    8.0522  -11.8626   26.7463 C   0  0  0  0  0  0  0  0  0  0  0  0
    6.8013  -11.5959   26.2349 C   0  0  0  0  0  0  0  0  0  0  0  0
    6.0191  -12.6270   25.8100 C   0  0  0  0  0  0  0  0  0  0  0  0
    6.4845  -13.9180   25.8958 C   0  0  0  0  0  0  0  0  0  0  0  0
   10.0668  -17.1035   26.3476 O   0  0  0  0  0  0  0  0  0  0  0  0
   10.4765  -17.0159   27.6905 O   0  0  0  0  0  0  0  0  0  0  0  0
  1  2  1  0
  2  4  1  0
  2  3  2  0
  4  5  1  0
  5  6  1  0
  6  7  1  0
  7  8  1  0
  8 10  1  0
  8  9  1  1
 10 11  2  0
 12 13  1  0
 12 10  1  0
 14 15  1  0
 13 14  1  6
 16 17  2  0
 16 13  1  0
 18 16  1  0
 19 18  1  0
 19 27  1  0
 19 20  1  1
 21 20  1  0
 22 21  2  0
 23 22  1  0
 24 23  2  0
 24 25  1  0
 25 26  2  0
 26 21  1  0
 27 29  2  0
 27 28  1  0
M  END
$$$$
