RCF.pdb
     RDKit          3D

 29 29  0  0  1  0  0  0  0  0999 V2000
    8.2877  -15.3139   15.8322 N   0  0  0  0  0  0  0  0  0  0  0  0
    8.3414  -13.8997   15.7120 C   0  0  0  0  0  0  0  0  0  0  0  0
    7.9591  -13.3145   14.6343 N   0  0  0  0  0  0  0  0  0  0  0  0
    8.8424  -13.1088   16.8132 N   0  0  0  0  0  0  0  0  0  0  0  0
    8.8613  -13.6430   18.1166 C   0  0  0  0  0  0  0  0  0  0  0  0
    7.6815  -14.3104   18.6768 C   0  0  0  0  0  0  0  0  0  0  0  0
    7.6772  -14.8655   20.0370 C   0  0  0  0  0  0  0  0  0  0  0  0
    8.9541  -15.1478   20.7410 C   0  0  2  0  0  0  0  0  0  0  0  0
    9.8275  -15.9317   19.9465 N   0  0  0  0  0  0  0  0  0  0  0  0
    8.8309  -15.6688   22.1097 C   0  0  0  0  0  0  0  0  0  0  0  0
    7.7782  -15.3072   22.7471 O   0  0  0  0  0  0  0  0  0  0  0  0
    8.0976  -12.2879   14.5500 N   0  0  0  0  0  0  0  0  0  0  0  0
    9.7007  -16.5036   22.8284 C   0  0  1  0  0  0  0  0  0  0  0  0
    9.3784  -17.0823   24.1192 C   0  0  0  0  0  0  0  0  0  0  0  0
    9.9677  -18.4519   24.2814 S   0  0  0  0  0  0  0  0  0  0  0  0
   11.7506  -18.4606   23.9792 C   0  0  0  0  0  0  0  0  0  0  0  0
    9.8742  -16.2610   25.2452 O   0  0  0  0  0  0  0  0  0  0  0  0
   10.8743  -15.5459   25.0063 N   0  0  0  0  0  0  0  0  0  0  0  0
    9.3296  -16.2110   26.5465 C   0  0  1  0  0  0  0  0  0  0  0  0
    9.8068  -15.3763   27.5932 C   0  0  0  0  0  0  0  0  0  0  0  0
    8.8049  -14.4652   28.2125 C   0  0  0  0  0  0  0  0  0  0  0  0
    8.0909  -13.5719   27.2918 C   0  0  0  0  0  0  0  0  0  0  0  0
    6.8607  -13.8852   26.7492 C   0  0  0  0  0  0  0  0  0  0  0  0
    6.2111  -13.0339   25.8794 C   0  0  0  0  0  0  0  0  0  0  0  0
    6.7929  -11.8343   25.5330 C   0  0  0  0  0  0  0  0  0  0  0  0
    8.0065  -11.5042   26.0561 C   0  0  0  0  0  0  0  0  0  0  0  0
    8.6355  -12.3684   26.9210 C   0  0  0  0  0  0  0  0  0  0  0  0
   10.4204  -16.1920   28.6660 O   0  0  0  0  0  0  0  0  0  0  0  0
   11.0852  -15.5756   29.7415 O   0  0  0  0  0  0  0  0  0  0  0  0
  1  2  1  0
  2  4  1  0
  2  3  2  0
  4  5  1  0
  5  6  1  0
  6  7  1  0
  7  8  1  0
  8 10  1  0
  8  9  1  6
 10 11  2  0
 12 13  1  0
 12 10  1  0
 14 15  1  0
 13 14  1  6
 16 17  2  0
 16 13  1  0
 18 16  1  0
 19 18  1  0
 19 27  1  0
 19 20  1  1
 21 20  1  0
 22 21  2  0
 23 22  1  0
 24 23  2  0
 24 25  1  0
 25 26  2  0
 26 21  1  0
 27 29  2  0
 27 28  1  0
M  END
$$$$
