ISS.pdb
     RDKit          3D

 21 20  0  0  1  0  0  0  0  0999 V2000
    7.6850  -11.4924   19.5115 C   0  0  0  0  0  0  0  0  0  0  0  0
    7.9748  -12.7640   18.8009 C   0  0  0  0  0  0  0  0  0  0  0  0
    8.6235  -13.8381   19.5818 C   0  0  2  0  0  0  0  0  0  0  0  0
    9.9941  -13.3202   20.0270 C   0  0  0  0  0  0  0  0  0  0  0  0
    8.8134  -15.1564   18.9547 C   0  0  2  0  0  0  0  0  0  0  0  0
    7.6388  -15.6167   18.2764 N   0  0  0  0  0  0  0  0  0  0  0  0
    9.4283  -16.1802   19.8299 C   0  0  0  0  0  0  0  0  0  0  0  0
    8.7862  -16.8150   20.6934 O   0  0  0  0  0  0  0  0  0  0  0  0
   12.5117  -18.7890   18.9129 O   0  0  0  0  0  0  0  0  0  0  0  0
   12.7697  -17.9369   19.9611 C   0  0  0  0  0  0  0  0  0  0  0  0
   11.4965  -17.3954   20.6063 C   0  0  2  0  0  0  0  0  0  0  0  0
   10.8104  -16.4841   19.7144 N   0  0  0  0  0  0  0  0  0  0  0  0
   11.8424  -16.8058   21.8970 C   0  0  0  0  0  0  0  0  0  0  0  0
   12.5961  -15.8135   21.9801 O   0  0  0  0  0  0  0  0  0  0  0  0
    9.4555  -17.4549   24.8107 O   0  0  0  0  0  0  0  0  0  0  0  0
   10.3446  -16.3879   25.0475 C   0  0  0  0  0  0  0  0  0  0  0  0
   11.6619  -16.8024   24.4110 C   0  0  2  0  0  0  0  0  0  0  0  0
   11.3342  -17.3392   23.1017 N   0  0  0  0  0  0  0  0  0  0  0  0
   12.2741  -17.8116   25.2917 C   0  0  0  0  0  0  0  0  0  0  0  0
   12.4945  -19.0983   24.8600 O   0  0  0  0  0  0  0  0  0  0  0  0
   12.5993  -17.4948   26.4508 O   0  0  0  0  0  0  0  0  0  0  0  0
  2  3  1  0
  2  1  1  0
  3  5  1  0
  3  4  1  6
  5  6  1  1
  5  7  1  0
  7  8  2  0
 10  9  1  0
 11 10  1  6
 12  7  1  0
 12 11  1  0
 13 18  1  0
 13 11  1  0
 14 13  2  0
 16 15  1  0
 17 19  1  0
 17 16  1  1
 17 18  1  0
 19 20  1  0
 21 19  2  0
M  END
$$$$
