ISS.pdb
     RDKit          3D

 21 20  0  0  1  0  0  0  0  0999 V2000
    7.6082  -11.5597   19.5581 C   0  0  0  0  0  0  0  0  0  0  0  0
    7.9825  -12.8592   18.9441 C   0  0  0  0  0  0  0  0  0  0  0  0
    8.2582  -13.9830   19.8636 C   0  0  2  0  0  0  0  0  0  0  0  0
    9.4257  -13.5664   20.7626 C   0  0  0  0  0  0  0  0  0  0  0  0
    8.5664  -15.3058   19.2959 C   0  0  2  0  0  0  0  0  0  0  0  0
    7.6297  -15.7030   18.2876 N   0  0  0  0  0  0  0  0  0  0  0  0
    8.8418  -16.3638   20.2945 C   0  0  0  0  0  0  0  0  0  0  0  0
    7.9440  -17.0505   20.8268 O   0  0  0  0  0  0  0  0  0  0  0  0
   11.4522  -19.0728   19.8414 O   0  0  0  0  0  0  0  0  0  0  0  0
   11.6997  -18.5235   21.0778 C   0  0  0  0  0  0  0  0  0  0  0  0
   10.5208  -17.7109   21.6072 C   0  0  2  0  0  0  0  0  0  0  0  0
   10.1757  -16.6421   20.6933 N   0  0  0  0  0  0  0  0  0  0  0  0
   10.8402  -17.2507   22.9561 C   0  0  0  0  0  0  0  0  0  0  0  0
   11.4716  -16.1911   23.1516 O   0  0  0  0  0  0  0  0  0  0  0  0
    8.6965  -18.5022   25.8352 O   0  0  0  0  0  0  0  0  0  0  0  0
    9.5394  -17.4428   26.2250 C   0  0  0  0  0  0  0  0  0  0  0  0
   10.8309  -17.6381   25.4465 C   0  0  2  0  0  0  0  0  0  0  0  0
   10.4443  -17.9908   24.0916 N   0  0  0  0  0  0  0  0  0  0  0  0
   11.5831  -18.7156   26.1116 C   0  0  0  0  0  0  0  0  0  0  0  0
   12.1579  -18.5295   27.3467 O   0  0  0  0  0  0  0  0  0  0  0  0
   11.7019  -19.8178   25.5453 O   0  0  0  0  0  0  0  0  0  0  0  0
  2  3  1  0
  2  1  1  0
  3  5  1  0
  3  4  1  6
  5  6  1  1
  5  7  1  0
  7  8  2  0
 10  9  1  0
 11 10  1  6
 12  7  1  0
 12 11  1  0
 13 18  1  0
 13 11  1  0
 14 13  2  0
 16 15  1  0
 17 19  1  0
 17 16  1  1
 17 18  1  0
 19 20  1  0
 21 19  2  0
M  END
$$$$
