ISS.pdb
     RDKit          3D

 21 20  0  0  1  0  0  0  0  0999 V2000
   -4.6363  -30.5799   33.2038 C   0  0  0  0  0  0  0  0  0  0  0  0
   -3.7425  -29.8146   32.2975 C   0  0  0  0  0  0  0  0  0  0  0  0
   -4.0240  -28.3728   32.1351 C   0  0  2  0  0  0  0  0  0  0  0  0
   -5.4317  -28.2421   31.5467 C   0  0  0  0  0  0  0  0  0  0  0  0
   -3.1088  -27.5582   31.3190 C   0  0  2  0  0  0  0  0  0  0  0  0
   -1.7347  -27.7537   31.6732 N   0  0  0  0  0  0  0  0  0  0  0  0
   -3.4880  -26.1325   31.1926 C   0  0  0  0  0  0  0  0  0  0  0  0
   -3.3092  -25.2952   32.1025 O   0  0  0  0  0  0  0  0  0  0  0  0
   -4.3877  -22.2806   28.5724 O   0  0  0  0  0  0  0  0  0  0  0  0
   -3.9131  -23.5616   28.7316 C   0  0  0  0  0  0  0  0  0  0  0  0
   -4.6153  -24.3133   29.8596 C   0  0  2  0  0  0  0  0  0  0  0  0
   -4.0862  -25.6542   29.9971 N   0  0  0  0  0  0  0  0  0  0  0  0
   -6.0557  -24.2712   29.6219 C   0  0  0  0  0  0  0  0  0  0  0  0
   -6.5895  -24.9576   28.7254 O   0  0  0  0  0  0  0  0  0  0  0  0
  -10.4070  -23.7405   31.1026 O   0  0  0  0  0  0  0  0  0  0  0  0
   -9.0333  -23.7458   31.4155 C   0  0  0  0  0  0  0  0  0  0  0  0
   -8.3218  -23.3010   30.1474 C   0  0  2  0  0  0  0  0  0  0  0  0
   -6.8993  -23.4495   30.4010 N   0  0  0  0  0  0  0  0  0  0  0  0
   -8.7025  -21.8997   29.9016 C   0  0  0  0  0  0  0  0  0  0  0  0
   -9.8050  -21.5803   29.1447 O   0  0  0  0  0  0  0  0  0  0  0  0
   -8.0130  -20.9846   30.3883 O   0  0  0  0  0  0  0  0  0  0  0  0
  2  3  1  0
  2  1  1  0
  3  5  1  0
  3  4  1  6
  5  6  1  1
  5  7  1  0
  7  8  2  0
 10  9  1  0
 11 10  1  6
 12  7  1  0
 12 11  1  0
 13 18  1  0
 13 11  1  0
 14 13  2  0
 16 15  1  0
 17 19  1  0
 17 16  1  1
 17 18  1  0
 19 20  1  0
 21 19  2  0
M  END
$$$$
