ISS.pdb
     RDKit          3D

 21 20  0  0  1  0  0  0  0  0999 V2000
    6.5548  -11.3346   27.3008 C   0  0  0  0  0  0  0  0  0  0  0  0
    5.9904  -12.5538   26.6674 C   0  0  0  0  0  0  0  0  0  0  0  0
    6.9142  -13.3854   25.8678 C   0  0  2  0  0  0  0  0  0  0  0  0
    7.4207  -12.5246   24.7070 C   0  0  0  0  0  0  0  0  0  0  0  0
    6.4248  -14.6588   25.3144 C   0  0  2  0  0  0  0  0  0  0  0  0
    5.7398  -15.4545   26.2888 N   0  0  0  0  0  0  0  0  0  0  0  0
    7.4210  -15.4198   24.5265 C   0  0  0  0  0  0  0  0  0  0  0  0
    8.2791  -16.1638   25.0471 O   0  0  0  0  0  0  0  0  0  0  0  0
    8.2098  -14.5086   20.4015 O   0  0  0  0  0  0  0  0  0  0  0  0
    8.0948  -15.8197   20.8006 C   0  0  0  0  0  0  0  0  0  0  0  0
    8.4059  -16.0131   22.2826 C   0  0  2  0  0  0  0  0  0  0  0  0
    7.4357  -15.3267   23.1098 N   0  0  0  0  0  0  0  0  0  0  0  0
    9.7849  -15.5990   22.5274 C   0  0  0  0  0  0  0  0  0  0  0  0
   10.0524  -14.4948   23.0459 O   0  0  0  0  0  0  0  0  0  0  0  0
   12.9917  -17.0096   25.0255 O   0  0  0  0  0  0  0  0  0  0  0  0
   11.7826  -17.0297   24.3026 C   0  0  0  0  0  0  0  0  0  0  0  0
   12.1161  -16.4689   22.9292 C   0  0  2  0  0  0  0  0  0  0  0  0
   10.8691  -16.4365   22.1851 N   0  0  0  0  0  0  0  0  0  0  0  0
   13.1081  -17.3699   22.3185 C   0  0  0  0  0  0  0  0  0  0  0  0
   14.4578  -17.1532   22.4665 O   0  0  0  0  0  0  0  0  0  0  0  0
   12.7184  -18.3483   21.6547 O   0  0  0  0  0  0  0  0  0  0  0  0
  2  3  1  0
  2  1  1  0
  3  5  1  0
  3  4  1  6
  5  6  1  1
  5  7  1  0
  7  8  2  0
 10  9  1  0
 11 10  1  6
 12  7  1  0
 12 11  1  0
 13 18  1  0
 13 11  1  0
 14 13  2  0
 16 15  1  0
 17 19  1  0
 17 16  1  1
 17 18  1  0
 19 20  1  0
 21 19  2  0
M  END
$$$$
