ISS.pdb
     RDKit          3D

 21 20  0  0  1  0  0  0  0  0999 V2000
    7.0694  -12.0488   19.4625 C   0  0  0  0  0  0  0  0  0  0  0  0
    7.8469  -12.9472   18.5712 C   0  0  0  0  0  0  0  0  0  0  0  0
    8.8860  -13.7869   19.2032 C   0  0  2  0  0  0  0  0  0  0  0  0
    9.8913  -12.8473   19.8752 C   0  0  0  0  0  0  0  0  0  0  0  0
    9.6362  -14.7380   18.3666 C   0  0  2  0  0  0  0  0  0  0  0  0
    8.7958  -15.4384   17.4421 N   0  0  0  0  0  0  0  0  0  0  0  0
   10.5635  -15.6230   19.1076 C   0  0  0  0  0  0  0  0  0  0  0  0
   10.1833  -16.6217   19.7549 O   0  0  0  0  0  0  0  0  0  0  0  0
   14.8129  -14.7210   19.4992 O   0  0  0  0  0  0  0  0  0  0  0  0
   14.3267  -15.9799   19.2342 C   0  0  0  0  0  0  0  0  0  0  0  0
   12.9218  -16.1973   19.7904 C   0  0  2  0  0  0  0  0  0  0  0  0
   11.9586  -15.3586   19.1081 N   0  0  0  0  0  0  0  0  0  0  0  0
   12.9566  -15.9956   21.2366 C   0  0  0  0  0  0  0  0  0  0  0  0
   13.0328  -14.8528   21.7344 O   0  0  0  0  0  0  0  0  0  0  0  0
   11.4299  -18.6120   23.5551 O   0  0  0  0  0  0  0  0  0  0  0  0
   11.7714  -17.4053   24.1971 C   0  0  0  0  0  0  0  0  0  0  0  0
   13.0790  -16.9585   23.5625 C   0  0  2  0  0  0  0  0  0  0  0  0
   12.9048  -17.0907   22.1266 N   0  0  0  0  0  0  0  0  0  0  0  0
   14.1393  -17.8398   24.0804 C   0  0  0  0  0  0  0  0  0  0  0  0
   14.4943  -17.8275   25.4087 O   0  0  0  0  0  0  0  0  0  0  0  0
   14.7271  -18.6122   23.3009 O   0  0  0  0  0  0  0  0  0  0  0  0
  2  3  1  0
  2  1  1  0
  3  5  1  0
  3  4  1  6
  5  6  1  1
  5  7  1  0
  7  8  2  0
 10  9  1  0
 11 10  1  6
 12  7  1  0
 12 11  1  0
 13 18  1  0
 13 11  1  0
 14 13  2  0
 16 15  1  0
 17 19  1  0
 17 16  1  1
 17 18  1  0
 19 20  1  0
 21 19  2  0
M  END
$$$$
