ISS.pdb
     RDKit          3D

 21 20  0  0  1  0  0  0  0  0999 V2000
    5.9278  -11.4949   26.5779 C   0  0  0  0  0  0  0  0  0  0  0  0
    5.6969  -12.8067   25.9208 C   0  0  0  0  0  0  0  0  0  0  0  0
    6.8729  -13.6827   25.7360 C   0  0  2  0  0  0  0  0  0  0  0  0
    7.9030  -12.9028   24.9140 C   0  0  0  0  0  0  0  0  0  0  0  0
    6.6852  -14.9995   25.1050 C   0  0  2  0  0  0  0  0  0  0  0  0
    5.5411  -15.6948   25.6141 N   0  0  0  0  0  0  0  0  0  0  0  0
    7.9036  -15.8382   25.0389 C   0  0  0  0  0  0  0  0  0  0  0  0
    8.1907  -16.6945   25.9022 O   0  0  0  0  0  0  0  0  0  0  0  0
   11.1177  -14.8910   22.4313 O   0  0  0  0  0  0  0  0  0  0  0  0
   10.7114  -16.2036   22.4926 C   0  0  0  0  0  0  0  0  0  0  0  0
    9.9820  -16.5337   23.7924 C   0  0  2  0  0  0  0  0  0  0  0  0
    8.8149  -15.6931   23.9598 N   0  0  0  0  0  0  0  0  0  0  0  0
   10.9338  -16.4446   24.8967 C   0  0  0  0  0  0  0  0  0  0  0  0
   12.0211  -17.0586   24.8721 O   0  0  0  0  0  0  0  0  0  0  0  0
    9.6249  -14.8242   28.2883 O   0  0  0  0  0  0  0  0  0  0  0  0
   10.9807  -14.4965   28.0896 C   0  0  0  0  0  0  0  0  0  0  0  0
   11.5385  -15.5866   27.1881 C   0  0  2  0  0  0  0  0  0  0  0  0
   10.6569  -15.6576   26.0359 N   0  0  0  0  0  0  0  0  0  0  0  0
   11.5433  -16.8370   27.9662 C   0  0  0  0  0  0  0  0  0  0  0  0
   10.7896  -17.9211   27.5824 O   0  0  0  0  0  0  0  0  0  0  0  0
   12.2434  -16.9156   28.9926 O   0  0  0  0  0  0  0  0  0  0  0  0
  2  3  1  0
  2  1  1  0
  3  5  1  0
  3  4  1  6
  5  6  1  1
  5  7  1  0
  7  8  2  0
 10  9  1  0
 11 10  1  6
 12  7  1  0
 12 11  1  0
 13 18  1  0
 13 11  1  0
 14 13  2  0
 16 15  1  0
 17 19  1  0
 17 16  1  1
 17 18  1  0
 19 20  1  0
 21 19  2  0
M  END
$$$$
