ISS.pdb
     RDKit          3D

 21 20  0  0  1  0  0  0  0  0999 V2000
    7.7984  -11.5652   19.5049 C   0  0  0  0  0  0  0  0  0  0  0  0
    8.1408  -12.8326   18.8105 C   0  0  0  0  0  0  0  0  0  0  0  0
    8.5553  -13.9719   19.6558 C   0  0  2  0  0  0  0  0  0  0  0  0
    9.8307  -13.5568   20.3947 C   0  0  0  0  0  0  0  0  0  0  0  0
    8.7987  -15.2768   19.0192 C   0  0  2  0  0  0  0  0  0  0  0  0
    7.7741  -15.6314   18.0832 N   0  0  0  0  0  0  0  0  0  0  0  0
    9.1478  -16.3708   19.9539 C   0  0  0  0  0  0  0  0  0  0  0  0
    8.2982  -16.9862   20.6324 O   0  0  0  0  0  0  0  0  0  0  0  0
   13.0599  -18.0815   19.9499 O   0  0  0  0  0  0  0  0  0  0  0  0
   11.9301  -18.7453   20.3677 C   0  0  0  0  0  0  0  0  0  0  0  0
   10.9124  -17.8176   21.0264 C   0  0  2  0  0  0  0  0  0  0  0  0
   10.5008  -16.7695   20.1160 N   0  0  0  0  0  0  0  0  0  0  0  0
   11.4766  -17.3205   22.2785 C   0  0  0  0  0  0  0  0  0  0  0  0
   12.2332  -16.3273   22.3044 O   0  0  0  0  0  0  0  0  0  0  0  0
    9.6606  -18.1438   25.4799 O   0  0  0  0  0  0  0  0  0  0  0  0
   10.6759  -17.1946   25.7101 C   0  0  0  0  0  0  0  0  0  0  0  0
   11.8075  -17.5667   24.7650 C   0  0  2  0  0  0  0  0  0  0  0  0
   11.1850  -17.9483   23.5093 N   0  0  0  0  0  0  0  0  0  0  0  0
   12.5455  -18.6805   25.3843 C   0  0  0  0  0  0  0  0  0  0  0  0
   12.5138  -19.9459   24.8472 O   0  0  0  0  0  0  0  0  0  0  0  0
   13.2121  -18.4739   26.4152 O   0  0  0  0  0  0  0  0  0  0  0  0
  2  3  1  0
  2  1  1  0
  3  5  1  0
  3  4  1  6
  5  6  1  1
  5  7  1  0
  7  8  2  0
 10  9  1  0
 11 10  1  6
 12  7  1  0
 12 11  1  0
 13 18  1  0
 13 11  1  0
 14 13  2  0
 16 15  1  0
 17 19  1  0
 17 16  1  1
 17 18  1  0
 19 20  1  0
 21 19  2  0
M  END
$$$$
