ISS.pdb
     RDKit          3D

 21 20  0  0  1  0  0  0  0  0999 V2000
    7.8682  -11.7963   19.5974 C   0  0  0  0  0  0  0  0  0  0  0  0
    8.3313  -13.0096   18.8767 C   0  0  0  0  0  0  0  0  0  0  0  0
    8.9764  -14.0663   19.6839 C   0  0  2  0  0  0  0  0  0  0  0  0
   10.1955  -13.4424   20.3691 C   0  0  0  0  0  0  0  0  0  0  0  0
    9.4097  -15.3048   19.0165 C   0  0  2  0  0  0  0  0  0  0  0  0
    8.4199  -15.8206   18.1187 N   0  0  0  0  0  0  0  0  0  0  0  0
    9.9807  -16.3315   19.9177 C   0  0  0  0  0  0  0  0  0  0  0  0
    9.2792  -17.1332   20.5704 O   0  0  0  0  0  0  0  0  0  0  0  0
   14.2208  -16.4872   20.7321 O   0  0  0  0  0  0  0  0  0  0  0  0
   13.4824  -17.6305   20.5342 C   0  0  0  0  0  0  0  0  0  0  0  0
   12.0121  -17.4528   20.9043 C   0  0  2  0  0  0  0  0  0  0  0  0
   11.3873  -16.4429   20.0757 N   0  0  0  0  0  0  0  0  0  0  0  0
   11.9217  -17.1771   22.3358 C   0  0  0  0  0  0  0  0  0  0  0  0
   11.8912  -16.0082   22.7745 O   0  0  0  0  0  0  0  0  0  0  0  0
   10.4247  -19.8353   24.4605 O   0  0  0  0  0  0  0  0  0  0  0  0
   10.5988  -18.6773   25.2439 C   0  0  0  0  0  0  0  0  0  0  0  0
   11.8576  -18.0088   24.7141 C   0  0  2  0  0  0  0  0  0  0  0  0
   11.8651  -18.2272   23.2781 N   0  0  0  0  0  0  0  0  0  0  0  0
   13.0049  -18.6460   25.3824 C   0  0  0  0  0  0  0  0  0  0  0  0
   13.1801  -18.5564   26.7432 O   0  0  0  0  0  0  0  0  0  0  0  0
   13.8339  -19.2791   24.7028 O   0  0  0  0  0  0  0  0  0  0  0  0
  2  3  1  0
  2  1  1  0
  3  5  1  0
  3  4  1  6
  5  6  1  1
  5  7  1  0
  7  8  2  0
 10  9  1  0
 11 10  1  6
 12  7  1  0
 12 11  1  0
 13 18  1  0
 13 11  1  0
 14 13  2  0
 16 15  1  0
 17 19  1  0
 17 16  1  1
 17 18  1  0
 19 20  1  0
 21 19  2  0
M  END
$$$$
