ISS.pdb
     RDKit          3D

 21 20  0  0  1  0  0  0  0  0999 V2000
    8.0586  -11.6037   20.4430 C   0  0  0  0  0  0  0  0  0  0  0  0
    7.4036  -12.9339   20.5291 C   0  0  0  0  0  0  0  0  0  0  0  0
    8.2878  -14.1134   20.6358 C   0  0  2  0  0  0  0  0  0  0  0  0
    9.2585  -14.0695   19.4522 C   0  0  0  0  0  0  0  0  0  0  0  0
    7.6810  -15.4539   20.6812 C   0  0  2  0  0  0  0  0  0  0  0  0
    6.5623  -15.5208   21.5734 N   0  0  0  0  0  0  0  0  0  0  0  0
    8.6415  -16.5672   20.8553 C   0  0  0  0  0  0  0  0  0  0  0  0
    8.9737  -17.0136   21.9739 O   0  0  0  0  0  0  0  0  0  0  0  0
    9.5602  -19.2946   17.7503 O   0  0  0  0  0  0  0  0  0  0  0  0
   10.6180  -18.7510   18.4410 C   0  0  0  0  0  0  0  0  0  0  0  0
   10.2186  -18.2422   19.8238 C   0  0  2  0  0  0  0  0  0  0  0  0
    9.2359  -17.1836   19.7228 N   0  0  0  0  0  0  0  0  0  0  0  0
   11.4280  -17.8547   20.5452 C   0  0  0  0  0  0  0  0  0  0  0  0
   11.9181  -16.7118   20.4306 O   0  0  0  0  0  0  0  0  0  0  0  0
   12.0860  -18.4050   24.1047 O   0  0  0  0  0  0  0  0  0  0  0  0
   13.1774  -19.0579   23.4985 C   0  0  0  0  0  0  0  0  0  0  0  0
   13.3104  -18.4381   22.1164 C   0  0  2  0  0  0  0  0  0  0  0  0
   12.0884  -18.7628   21.4015 N   0  0  0  0  0  0  0  0  0  0  0  0
   14.5017  -19.0305   21.4848 C   0  0  0  0  0  0  0  0  0  0  0  0
   15.7690  -18.7300   21.9254 O   0  0  0  0  0  0  0  0  0  0  0  0
   14.3600  -19.8197   20.5325 O   0  0  0  0  0  0  0  0  0  0  0  0
  2  3  1  0
  2  1  1  0
  3  5  1  0
  3  4  1  6
  5  6  1  1
  5  7  1  0
  7  8  2  0
 10  9  1  0
 11 10  1  6
 12  7  1  0
 12 11  1  0
 13 18  1  0
 13 11  1  0
 14 13  2  0
 16 15  1  0
 17 19  1  0
 17 16  1  1
 17 18  1  0
 19 20  1  0
 21 19  2  0
M  END
$$$$
