ISS.pdb
     RDKit          3D

 21 20  0  0  1  0  0  0  0  0999 V2000
    6.2429  -11.0784   26.9860 C   0  0  0  0  0  0  0  0  0  0  0  0
    5.7049  -12.3343   26.4034 C   0  0  0  0  0  0  0  0  0  0  0  0
    6.6724  -13.2417   25.7515 C   0  0  2  0  0  0  0  0  0  0  0  0
    7.3459  -12.4603   24.6198 C   0  0  0  0  0  0  0  0  0  0  0  0
    6.1888  -14.5189   25.2019 C   0  0  2  0  0  0  0  0  0  0  0  0
    5.2811  -15.1887   26.0846 N   0  0  0  0  0  0  0  0  0  0  0  0
    7.2448  -15.4038   24.6596 C   0  0  0  0  0  0  0  0  0  0  0  0
    7.9207  -16.1762   25.3721 O   0  0  0  0  0  0  0  0  0  0  0  0
    8.9497  -14.8150   20.8072 O   0  0  0  0  0  0  0  0  0  0  0  0
    8.5640  -16.0891   21.1528 C   0  0  0  0  0  0  0  0  0  0  0  0
    8.5018  -16.2955   22.6641 C   0  0  2  0  0  0  0  0  0  0  0  0
    7.5344  -15.4043   23.2696 N   0  0  0  0  0  0  0  0  0  0  0  0
    9.8498  -16.1577   23.2093 C   0  0  0  0  0  0  0  0  0  0  0  0
   10.3645  -15.0362   23.4014 O   0  0  0  0  0  0  0  0  0  0  0  0
   11.2175  -19.2115   24.9604 O   0  0  0  0  0  0  0  0  0  0  0  0
   12.0605  -18.1198   25.2478 C   0  0  0  0  0  0  0  0  0  0  0  0
   11.9868  -17.2124   24.0299 C   0  0  2  0  0  0  0  0  0  0  0  0
   10.6217  -17.2929   23.5399 N   0  0  0  0  0  0  0  0  0  0  0  0
   12.9632  -17.7170   23.0496 C   0  0  0  0  0  0  0  0  0  0  0  0
   14.3073  -17.7599   23.3360 O   0  0  0  0  0  0  0  0  0  0  0  0
   12.5651  -18.1131   21.9385 O   0  0  0  0  0  0  0  0  0  0  0  0
  2  3  1  0
  2  1  1  0
  3  5  1  0
  3  4  1  6
  5  6  1  1
  5  7  1  0
  7  8  2  0
 10  9  1  0
 11 10  1  6
 12  7  1  0
 12 11  1  0
 13 18  1  0
 13 11  1  0
 14 13  2  0
 16 15  1  0
 17 19  1  0
 17 16  1  1
 17 18  1  0
 19 20  1  0
 21 19  2  0
M  END
$$$$
