ISS.pdb
     RDKit          3D

 21 20  0  0  1  0  0  0  0  0999 V2000
    6.6462  -11.7341   27.2325 C   0  0  0  0  0  0  0  0  0  0  0  0
    6.1087  -12.9558   26.5810 C   0  0  0  0  0  0  0  0  0  0  0  0
    7.0666  -13.7949   25.8309 C   0  0  2  0  0  0  0  0  0  0  0  0
    7.6071  -12.9526   24.6719 C   0  0  0  0  0  0  0  0  0  0  0  0
    6.6071  -15.0829   25.2859 C   0  0  2  0  0  0  0  0  0  0  0  0
    5.8322  -15.8334   26.2283 N   0  0  0  0  0  0  0  0  0  0  0  0
    7.6546  -15.8842   24.6130 C   0  0  0  0  0  0  0  0  0  0  0  0
    8.4838  -16.5830   25.2336 O   0  0  0  0  0  0  0  0  0  0  0  0
    8.5613  -15.1887   20.5300 O   0  0  0  0  0  0  0  0  0  0  0  0
    8.5838  -16.4915   20.9703 C   0  0  0  0  0  0  0  0  0  0  0  0
    8.7911  -16.5992   22.4788 C   0  0  2  0  0  0  0  0  0  0  0  0
    7.7558  -15.8854   23.1967 N   0  0  0  0  0  0  0  0  0  0  0  0
   10.1438  -16.1495   22.7968 C   0  0  0  0  0  0  0  0  0  0  0  0
   10.3506  -15.0645   23.3796 O   0  0  0  0  0  0  0  0  0  0  0  0
   12.4472  -18.1617   24.5792 O   0  0  0  0  0  0  0  0  0  0  0  0
   12.6850  -16.7895   24.3655 C   0  0  0  0  0  0  0  0  0  0  0  0
   12.6242  -16.5923   22.8590 C   0  0  2  0  0  0  0  0  0  0  0  0
   11.2703  -16.9293   22.4551 N   0  0  0  0  0  0  0  0  0  0  0  0
   13.6262  -17.4903   22.2601 C   0  0  0  0  0  0  0  0  0  0  0  0
   14.9703  -17.3198   22.4943 O   0  0  0  0  0  0  0  0  0  0  0  0
   13.2501  -18.4232   21.5266 O   0  0  0  0  0  0  0  0  0  0  0  0
  2  3  1  0
  2  1  1  0
  3  5  1  0
  3  4  1  6
  5  6  1  1
  5  7  1  0
  7  8  2  0
 10  9  1  0
 11 10  1  6
 12  7  1  0
 12 11  1  0
 13 18  1  0
 13 11  1  0
 14 13  2  0
 16 15  1  0
 17 19  1  0
 17 16  1  1
 17 18  1  0
 19 20  1  0
 21 19  2  0
M  END
$$$$
