ISS.pdb
     RDKit          3D

 21 20  0  0  1  0  0  0  0  0999 V2000
    8.8664  -16.2359   14.5025 C   0  0  0  0  0  0  0  0  0  0  0  0
    8.1809  -15.2531   15.3801 C   0  0  0  0  0  0  0  0  0  0  0  0
    8.7409  -15.0545   16.7334 C   0  0  2  0  0  0  0  0  0  0  0  0
    8.8850  -16.4354   17.3792 C   0  0  0  0  0  0  0  0  0  0  0  0
    8.0250  -14.1799   17.6767 C   0  0  2  0  0  0  0  0  0  0  0  0
    7.7260  -12.8958   17.1171 N   0  0  0  0  0  0  0  0  0  0  0  0
    8.6162  -14.1092   19.0324 C   0  0  0  0  0  0  0  0  0  0  0  0
    9.7195  -13.5728   19.2689 O   0  0  0  0  0  0  0  0  0  0  0  0
    6.8240  -16.2516   22.3097 O   0  0  0  0  0  0  0  0  0  0  0  0
    7.4108  -15.0243   22.5123 C   0  0  0  0  0  0  0  0  0  0  0  0
    8.4884  -14.7095   21.4779 C   0  0  2  0  0  0  0  0  0  0  0  0
    7.9288  -14.6658   20.1431 N   0  0  0  0  0  0  0  0  0  0  0  0
    9.5750  -15.6737   21.6284 C   0  0  0  0  0  0  0  0  0  0  0  0
    9.6307  -16.7083   20.9311 O   0  0  0  0  0  0  0  0  0  0  0  0
   14.0031  -16.4619   23.1554 O   0  0  0  0  0  0  0  0  0  0  0  0
   12.9146  -15.5676   23.1458 C   0  0  0  0  0  0  0  0  0  0  0  0
   11.7006  -16.4026   22.7700 C   0  0  2  0  0  0  0  0  0  0  0  0
   10.6056  -15.4691   22.5719 N   0  0  0  0  0  0  0  0  0  0  0  0
   11.4481  -17.3322   23.8839 C   0  0  0  0  0  0  0  0  0  0  0  0
   12.2323  -18.4447   24.0789 O   0  0  0  0  0  0  0  0  0  0  0  0
   10.5058  -17.1077   24.6659 O   0  0  0  0  0  0  0  0  0  0  0  0
  2  3  1  0
  2  1  1  0
  3  5  1  0
  3  4  1  1
  5  6  1  6
  5  7  1  0
  7  8  2  0
 10  9  1  0
 11 10  1  1
 12  7  1  0
 12 11  1  0
 13 18  1  0
 13 11  1  0
 14 13  2  0
 16 15  1  0
 17 19  1  0
 17 16  1  1
 17 18  1  0
 19 20  1  0
 21 19  2  0
M  END
$$$$
