ISS.pdb
     RDKit          3D

 21 20  0  0  1  0  0  0  0  0999 V2000
    6.9462  -11.6237   27.3941 C   0  0  0  0  0  0  0  0  0  0  0  0
    6.3285  -12.8424   26.8117 C   0  0  0  0  0  0  0  0  0  0  0  0
    7.1845  -13.6839   25.9494 C   0  0  2  0  0  0  0  0  0  0  0  0
    7.6278  -12.8246   24.7620 C   0  0  0  0  0  0  0  0  0  0  0  0
    6.6395  -14.9462   25.4233 C   0  0  2  0  0  0  0  0  0  0  0  0
    6.0196  -15.7431   26.4394 N   0  0  0  0  0  0  0  0  0  0  0  0
    7.5646  -15.7112   24.5565 C   0  0  0  0  0  0  0  0  0  0  0  0
    8.4364  -16.4860   25.0046 O   0  0  0  0  0  0  0  0  0  0  0  0
    8.1544  -14.7323   20.3693 O   0  0  0  0  0  0  0  0  0  0  0  0
    8.0031  -16.0333   20.7889 C   0  0  0  0  0  0  0  0  0  0  0  0
    8.4204  -16.2348   22.2434 C   0  0  2  0  0  0  0  0  0  0  0  0
    7.4905  -15.5862   23.1441 N   0  0  0  0  0  0  0  0  0  0  0  0
    9.8009  -15.7841   22.3990 C   0  0  0  0  0  0  0  0  0  0  0  0
   10.0761  -14.5836   22.6053 O   0  0  0  0  0  0  0  0  0  0  0  0
   12.0830  -17.5844   24.4611 O   0  0  0  0  0  0  0  0  0  0  0  0
   12.5076  -16.3169   24.0162 C   0  0  0  0  0  0  0  0  0  0  0  0
   12.2640  -16.3058   22.5153 C   0  0  2  0  0  0  0  0  0  0  0  0
   10.8779  -16.6942   22.3215 N   0  0  0  0  0  0  0  0  0  0  0  0
   13.2033  -17.2672   21.9132 C   0  0  0  0  0  0  0  0  0  0  0  0
   12.7550  -18.3703   21.2256 O   0  0  0  0  0  0  0  0  0  0  0  0
   14.4285  -17.0787   22.0283 O   0  0  0  0  0  0  0  0  0  0  0  0
  2  3  1  0
  2  1  1  0
  3  5  1  0
  3  4  1  6
  5  6  1  1
  5  7  1  0
  7  8  2  0
 10  9  1  0
 11 10  1  6
 12  7  1  0
 12 11  1  0
 13 18  1  0
 13 11  1  0
 14 13  2  0
 16 15  1  0
 17 19  1  0
 17 16  1  1
 17 18  1  0
 19 20  1  0
 21 19  2  0
M  END
$$$$
