RCK.pdb
     RDKit          3D

 27 26  0  0  1  0  0  0  0  0999 V2000
    8.2267  -12.4029   17.2933 N   0  0  0  0  0  0  0  0  0  0  0  0
    7.6586  -13.6937   17.0876 C   0  0  0  0  0  0  0  0  0  0  0  0
    7.3801  -14.1297   15.8939 N   0  0  0  0  0  0  0  0  0  0  0  0
    7.3740  -14.5557   18.1781 N   0  0  0  0  0  0  0  0  0  0  0  0
    7.0880  -14.0657   19.4845 C   0  0  0  0  0  0  0  0  0  0  0  0
    8.2735  -13.7955   20.3444 C   0  0  0  0  0  0  0  0  0  0  0  0
    9.2612  -14.9011   20.4168 C   0  0  0  0  0  0  0  0  0  0  0  0
    8.9572  -15.9793   21.4166 C   0  0  2  0  0  0  0  0  0  0  0  0
    7.5280  -16.2912   21.2364 N   0  0  0  0  0  0  0  0  0  0  0  0
    9.1412  -15.5792   22.8176 C   0  0  0  0  0  0  0  0  0  0  0  0
   10.2640  -15.1535   23.2425 O   0  0  0  0  0  0  0  0  0  0  0  0
    6.8678  -15.0293   15.8196 N   0  0  0  0  0  0  0  0  0  0  0  0
    8.0873  -15.6450   23.7635 C   0  0  1  0  0  0  0  0  0  0  0  0
    8.3330  -15.3016   25.1400 C   0  0  0  0  0  0  0  0  0  0  0  0
    7.1200  -14.5241   25.6549 S   0  0  0  0  0  0  0  0  0  0  0  0
    7.5520  -12.7855   25.8917 C   0  0  0  0  0  0  0  0  0  0  0  0
    8.5461  -16.5268   25.9684 O   0  0  0  0  0  0  0  0  0  0  0  0
    7.6818  -17.4390   25.9964 N   0  0  0  0  0  0  0  0  0  0  0  0
    9.7200  -16.7115   26.7496 C   0  0  1  0  0  0  0  0  0  0  0  0
    9.9662  -18.0085   27.3909 C   0  0  0  0  0  0  0  0  0  0  0  0
   10.1416  -18.9961   26.2791 C   0  0  0  0  0  0  0  0  0  0  0  0
   10.5572  -20.3668   26.7154 C   0  0  0  0  0  0  0  0  0  0  0  0
   10.6163  -21.3589   25.5857 C   0  0  0  0  0  0  0  0  0  0  0  0
   10.9395  -22.7221   26.1584 N   0  0  0  0  0  0  0  0  0  0  0  0
   11.0060  -23.6945   25.0752 C   0  0  0  0  0  0  0  0  0  0  0  0
   11.1622  -17.9131   28.2659 O   0  0  0  0  0  0  0  0  0  0  0  0
   11.2615  -18.6044   29.4481 O   0  0  0  0  0  0  0  0  0  0  0  0
  1  2  1  0
  2  3  2  0
  4  2  1  0
  4  5  1  0
  6  5  1  0
  7  6  1  0
  8 10  1  0
  8  7  1  0
  8  9  1  1
 10 11  2  0
 12 10  1  0
 13 12  1  0
 13 16  1  0
 14 15  1  0
 13 14  1  6
 16 17  2  0
 16 18  1  0
 18 19  1  0
 19 25  1  0
 19 20  1  1
 21 20  1  0
 22 21  1  0
 23 22  1  0
 24 23  1  0
 25 27  2  0
 25 26  1  0
M  END
$$$$
