RCK.pdb
     RDKit          3D

 27 26  0  0  1  0  0  0  0  0999 V2000
    9.9048  -15.7009   16.1934 N   0  0  0  0  0  0  0  0  0  0  0  0
    8.6210  -16.2908   16.0063 C   0  0  0  0  0  0  0  0  0  0  0  0
    8.4638  -17.3549   15.2744 N   0  0  0  0  0  0  0  0  0  0  0  0
    7.4618  -15.7402   16.6116 N   0  0  0  0  0  0  0  0  0  0  0  0
    7.5119  -14.5933   17.4545 C   0  0  0  0  0  0  0  0  0  0  0  0
    8.4239  -14.6959   18.6274 C   0  0  0  0  0  0  0  0  0  0  0  0
    7.7473  -14.7180   19.9484 C   0  0  0  0  0  0  0  0  0  0  0  0
    7.8184  -13.4416   20.7360 C   0  0  2  0  0  0  0  0  0  0  0  0
    8.8393  -12.6197   20.0618 N   0  0  0  0  0  0  0  0  0  0  0  0
    8.2479  -13.6104   22.1303 C   0  0  0  0  0  0  0  0  0  0  0  0
    9.4764  -13.7600   22.4311 O   0  0  0  0  0  0  0  0  0  0  0  0
    7.4980  -17.7157   15.1544 N   0  0  0  0  0  0  0  0  0  0  0  0
    7.3249  -13.6155   23.2064 C   0  0  2  0  0  0  0  0  0  0  0  0
    7.7851  -13.8616   24.5482 C   0  0  0  0  0  0  0  0  0  0  0  0
    6.6414  -13.5251   25.5072 S   0  0  0  0  0  0  0  0  0  0  0  0
    6.7041  -11.7766   25.9589 C   0  0  0  0  0  0  0  0  0  0  0  0
    8.1964  -15.2877   24.7210 O   0  0  0  0  0  0  0  0  0  0  0  0
    7.8736  -16.1547   23.8700 N   0  0  0  0  0  0  0  0  0  0  0  0
    8.9607  -15.7197   25.8397 C   0  0  1  0  0  0  0  0  0  0  0  0
    9.4649  -17.0974   25.8836 C   0  0  0  0  0  0  0  0  0  0  0  0
   10.4191  -17.2283   24.7369 C   0  0  0  0  0  0  0  0  0  0  0  0
   11.0787  -18.5671   24.6176 C   0  0  0  0  0  0  0  0  0  0  0  0
   12.1268  -18.6204   23.5395 C   0  0  0  0  0  0  0  0  0  0  0  0
   12.7126  -20.0157   23.5059 N   0  0  0  0  0  0  0  0  0  0  0  0
   13.7791  -20.0650   22.5141 C   0  0  0  0  0  0  0  0  0  0  0  0
   10.1100  -17.3507   27.1969 O   0  0  0  0  0  0  0  0  0  0  0  0
   10.5457  -16.3315   28.0073 O   0  0  0  0  0  0  0  0  0  0  0  0
  1  2  1  0
  2  3  2  0
  4  2  1  0
  4  5  1  0
  6  5  1  0
  7  6  1  0
  8 10  1  0
  8  7  1  0
  8  9  1  6
 10 11  2  0
 12 10  1  0
 13 12  1  0
 13 16  1  0
 14 15  1  0
 13 14  1  6
 16 17  2  0
 16 18  1  0
 18 19  1  0
 19 25  1  0
 19 20  1  1
 21 20  1  0
 22 21  1  0
 23 22  1  0
 24 23  1  0
 25 27  2  0
 25 26  1  0
M  END
$$$$
