RCK.pdb
     RDKit          3D

 27 26  0  0  1  0  0  0  0  0999 V2000
    8.3338  -12.0787   17.8438 N   0  0  0  0  0  0  0  0  0  0  0  0
    8.2703  -13.4634   17.5124 C   0  0  0  0  0  0  0  0  0  0  0  0
    8.3126  -13.8676   16.2766 N   0  0  0  0  0  0  0  0  0  0  0  0
    8.1583  -14.4573   18.5188 N   0  0  0  0  0  0  0  0  0  0  0  0
    7.0888  -14.4749   19.4592 C   0  0  0  0  0  0  0  0  0  0  0  0
    7.4228  -13.9792   20.8232 C   0  0  0  0  0  0  0  0  0  0  0  0
    8.7332  -14.4330   21.3524 C   0  0  0  0  0  0  0  0  0  0  0  0
    8.6719  -15.4680   22.4385 C   0  0  2  0  0  0  0  0  0  0  0  0
    7.2614  -15.8911   22.4995 N   0  0  0  0  0  0  0  0  0  0  0  0
    9.0348  -14.9722   23.7724 C   0  0  0  0  0  0  0  0  0  0  0  0
    9.3038  -13.7432   23.9712 O   0  0  0  0  0  0  0  0  0  0  0  0
    8.2083  -14.8853   16.1013 N   0  0  0  0  0  0  0  0  0  0  0  0
    9.1042  -15.8284   24.9001 C   0  0  1  0  0  0  0  0  0  0  0  0
    9.5527  -15.3141   26.1680 C   0  0  0  0  0  0  0  0  0  0  0  0
    8.5183  -14.2978   26.6561 S   0  0  0  0  0  0  0  0  0  0  0  0
    8.9606  -13.7049   28.3048 C   0  0  0  0  0  0  0  0  0  0  0  0
    9.7041  -16.4129   27.1692 O   0  0  0  0  0  0  0  0  0  0  0  0
    8.7022  -17.0601   27.5658 N   0  0  0  0  0  0  0  0  0  0  0  0
   10.9706  -16.7695   27.7086 C   0  0  1  0  0  0  0  0  0  0  0  0
   11.0658  -17.8875   28.6549 C   0  0  0  0  0  0  0  0  0  0  0  0
   11.9482  -18.9083   28.0057 C   0  0  0  0  0  0  0  0  0  0  0  0
   11.4985  -19.3572   26.6500 C   0  0  0  0  0  0  0  0  0  0  0  0
   12.3736  -20.4277   26.0567 C   0  0  0  0  0  0  0  0  0  0  0  0
   11.7481  -20.8977   24.7610 N   0  0  0  0  0  0  0  0  0  0  0  0
   12.6313  -21.8668   24.1252 C   0  0  0  0  0  0  0  0  0  0  0  0
   11.6087  -17.4010   29.9485 O   0  0  0  0  0  0  0  0  0  0  0  0
   12.0021  -16.0985   30.1340 O   0  0  0  0  0  0  0  0  0  0  0  0
  1  2  1  0
  2  3  2  0
  4  2  1  0
  4  5  1  0
  6  5  1  0
  7  6  1  0
  8 10  1  0
  8  7  1  0
  8  9  1  1
 10 11  2  0
 12 10  1  0
 13 12  1  0
 13 16  1  0
 14 15  1  0
 13 14  1  6
 16 17  2  0
 16 18  1  0
 18 19  1  0
 19 25  1  0
 19 20  1  1
 21 20  1  0
 22 21  1  0
 23 22  1  0
 24 23  1  0
 25 27  2  0
 25 26  1  0
M  END
$$$$
