RCK.pdb
     RDKit          3D

 27 26  0  0  1  0  0  0  0  0999 V2000
    9.9850  -13.3892   19.3479 N   0  0  0  0  0  0  0  0  0  0  0  0
    9.1320  -12.3546   18.8650 C   0  0  0  0  0  0  0  0  0  0  0  0
    9.4345  -11.0988   19.0195 N   0  0  0  0  0  0  0  0  0  0  0  0
    7.9172  -12.6539   18.1956 N   0  0  0  0  0  0  0  0  0  0  0  0
    7.2976  -13.9339   18.2731 C   0  0  0  0  0  0  0  0  0  0  0  0
    8.0105  -14.9448   19.1024 C   0  0  0  0  0  0  0  0  0  0  0  0
    7.3883  -16.2923   19.1215 C   0  0  0  0  0  0  0  0  0  0  0  0
    8.3320  -17.4461   18.9405 C   0  0  2  0  0  0  0  0  0  0  0  0
    7.6979  -18.3193   17.9367 N   0  0  0  0  0  0  0  0  0  0  0  0
    8.5431  -18.2546   20.1483 C   0  0  0  0  0  0  0  0  0  0  0  0
    7.9136  -19.3463   20.3325 O   0  0  0  0  0  0  0  0  0  0  0  0
    8.7569  -10.3957   18.6675 N   0  0  0  0  0  0  0  0  0  0  0  0
    9.4515  -17.8655   21.1648 C   0  0  2  0  0  0  0  0  0  0  0  0
    9.6296  -18.6959   22.3274 C   0  0  0  0  0  0  0  0  0  0  0  0
   10.2440  -20.0204   21.8702 S   0  0  0  0  0  0  0  0  0  0  0  0
   10.7503  -20.9975   23.3035 C   0  0  0  0  0  0  0  0  0  0  0  0
   10.5220  -18.0346   23.3270 O   0  0  0  0  0  0  0  0  0  0  0  0
   11.6903  -17.6922   23.0145 N   0  0  0  0  0  0  0  0  0  0  0  0
   10.0938  -17.7673   24.6565 C   0  0  1  0  0  0  0  0  0  0  0  0
   10.9493  -16.9739   25.5469 C   0  0  0  0  0  0  0  0  0  0  0  0
   10.0718  -16.5206   26.6724 C   0  0  0  0  0  0  0  0  0  0  0  0
   10.7794  -15.7727   27.7595 C   0  0  0  0  0  0  0  0  0  0  0  0
    9.8838  -15.4095   28.9126 C   0  0  0  0  0  0  0  0  0  0  0  0
   10.7045  -14.6654   29.9440 N   0  0  0  0  0  0  0  0  0  0  0  0
    9.8417  -14.2690   31.0493 C   0  0  0  0  0  0  0  0  0  0  0  0
   12.0915  -17.8024   26.0095 O   0  0  0  0  0  0  0  0  0  0  0  0
   13.3471  -17.2790   26.1969 O   0  0  0  0  0  0  0  0  0  0  0  0
  1  2  1  0
  2  3  2  0
  4  2  1  0
  4  5  1  0
  6  5  1  0
  7  6  1  0
  8 10  1  0
  8  7  1  0
  8  9  1  6
 10 11  2  0
 12 10  1  0
 13 12  1  0
 13 16  1  0
 14 15  1  0
 13 14  1  6
 16 17  2  0
 16 18  1  0
 18 19  1  0
 19 25  1  0
 19 20  1  1
 21 20  1  0
 22 21  1  0
 23 22  1  0
 24 23  1  0
 25 27  2  0
 25 26  1  0
M  END
$$$$
