RCK.pdb
     RDKit          3D

 27 26  0  0  1  0  0  0  0  0999 V2000
    9.4810  -14.1456   17.0168 N   0  0  0  0  0  0  0  0  0  0  0  0
   10.2016  -13.5338   18.0833 C   0  0  0  0  0  0  0  0  0  0  0  0
   11.4941  -13.6461   18.1806 N   0  0  0  0  0  0  0  0  0  0  0  0
    9.5370  -12.7770   19.0828 N   0  0  0  0  0  0  0  0  0  0  0  0
    8.1190  -12.7650   19.2151 C   0  0  0  0  0  0  0  0  0  0  0  0
    7.4752  -14.0995   19.3647 C   0  0  0  0  0  0  0  0  0  0  0  0
    6.9928  -14.4136   20.7329 C   0  0  0  0  0  0  0  0  0  0  0  0
    7.9900  -15.0800   21.6363 C   0  0  2  0  0  0  0  0  0  0  0  0
    7.4278  -16.4105   21.9292 N   0  0  0  0  0  0  0  0  0  0  0  0
    8.1939  -14.4017   22.9228 C   0  0  0  0  0  0  0  0  0  0  0  0
    8.1454  -13.1324   23.0169 O   0  0  0  0  0  0  0  0  0  0  0  0
   11.9665  -13.1097   18.9333 N   0  0  0  0  0  0  0  0  0  0  0  0
    8.4533  -15.1181   24.1183 C   0  0  1  0  0  0  0  0  0  0  0  0
    8.6113  -14.4101   25.3619 C   0  0  0  0  0  0  0  0  0  0  0  0
    7.3544  -13.5670   25.5866 S   0  0  0  0  0  0  0  0  0  0  0  0
    7.4407  -12.7390   27.1904 C   0  0  0  0  0  0  0  0  0  0  0  0
    8.8016  -15.3601   26.4994 O   0  0  0  0  0  0  0  0  0  0  0  0
    7.8324  -16.0215   26.9502 N   0  0  0  0  0  0  0  0  0  0  0  0
   10.0700  -15.5549   27.1123 C   0  0  1  0  0  0  0  0  0  0  0  0
   10.2072  -16.5340   28.1971 C   0  0  0  0  0  0  0  0  0  0  0  0
   11.3314  -17.4401   27.8004 C   0  0  0  0  0  0  0  0  0  0  0  0
   11.1944  -18.0544   26.4419 C   0  0  0  0  0  0  0  0  0  0  0  0
   12.3099  -19.0056   26.1033 C   0  0  0  0  0  0  0  0  0  0  0  0
   12.0023  -19.6538   24.7706 N   0  0  0  0  0  0  0  0  0  0  0  0
   13.0507  -20.6137   24.4501 C   0  0  0  0  0  0  0  0  0  0  0  0
   10.4660  -15.8271   29.4770 O   0  0  0  0  0  0  0  0  0  0  0  0
   10.4664  -16.4782   30.6860 O   0  0  0  0  0  0  0  0  0  0  0  0
  1  2  1  0
  2  3  2  0
  4  2  1  0
  4  5  1  0
  6  5  1  0
  7  6  1  0
  8 10  1  0
  8  7  1  0
  8  9  1  1
 10 11  2  0
 12 10  1  0
 13 12  1  0
 13 16  1  0
 14 15  1  0
 13 14  1  1
 16 17  2  0
 16 18  1  0
 18 19  1  0
 19 25  1  0
 19 20  1  1
 21 20  1  0
 22 21  1  0
 23 22  1  0
 24 23  1  0
 25 27  2  0
 25 26  1  0
M  END
$$$$
