RCK.pdb
     RDKit          3D

 27 26  0  0  1  0  0  0  0  0999 V2000
    8.3461  -13.1554   17.2149 N   0  0  0  0  0  0  0  0  0  0  0  0
    8.7142  -12.7155   18.5196 C   0  0  0  0  0  0  0  0  0  0  0  0
    9.1424  -11.5054   18.7316 N   0  0  0  0  0  0  0  0  0  0  0  0
    8.6283  -13.5811   19.6406 N   0  0  0  0  0  0  0  0  0  0  0  0
    8.1051  -14.9025   19.5468 C   0  0  0  0  0  0  0  0  0  0  0  0
    6.7110  -15.0791   20.0397 C   0  0  0  0  0  0  0  0  0  0  0  0
    6.5476  -14.9744   21.5113 C   0  0  0  0  0  0  0  0  0  0  0  0
    7.5217  -15.7704   22.3312 C   0  0  2  0  0  0  0  0  0  0  0  0
    6.7434  -16.8912   22.8883 N   0  0  0  0  0  0  0  0  0  0  0  0
    8.1028  -15.0393   23.4646 C   0  0  0  0  0  0  0  0  0  0  0  0
    8.3769  -13.7983   23.3812 O   0  0  0  0  0  0  0  0  0  0  0  0
    9.4195  -11.2579   19.7008 N   0  0  0  0  0  0  0  0  0  0  0  0
    8.3869  -15.6712   24.7014 C   0  0  1  0  0  0  0  0  0  0  0  0
    8.8705  -14.8938   25.8126 C   0  0  0  0  0  0  0  0  0  0  0  0
    7.8298  -13.8154   26.1209 S   0  0  0  0  0  0  0  0  0  0  0  0
    8.2625  -12.9540   27.6494 C   0  0  0  0  0  0  0  0  0  0  0  0
    9.0887  -15.7544   27.0145 O   0  0  0  0  0  0  0  0  0  0  0  0
    8.1150  -16.2799   27.6109 N   0  0  0  0  0  0  0  0  0  0  0  0
   10.3893  -16.0129   27.5281 C   0  0  1  0  0  0  0  0  0  0  0  0
   10.7446  -17.3738   27.9479 C   0  0  0  0  0  0  0  0  0  0  0  0
   11.5330  -17.9648   26.8204 C   0  0  0  0  0  0  0  0  0  0  0  0
   11.9968  -19.3704   27.0465 C   0  0  0  0  0  0  0  0  0  0  0  0
   12.7967  -19.9252   25.8992 C   0  0  0  0  0  0  0  0  0  0  0  0
   13.1148  -21.3759   26.1911 N   0  0  0  0  0  0  0  0  0  0  0  0
   13.9806  -21.8981   25.1417 C   0  0  0  0  0  0  0  0  0  0  0  0
   11.5134  -17.3193   29.2172 O   0  0  0  0  0  0  0  0  0  0  0  0
   11.8702  -16.1316   29.8067 O   0  0  0  0  0  0  0  0  0  0  0  0
  1  2  1  0
  2  3  2  0
  4  2  1  0
  4  5  1  0
  6  5  1  0
  7  6  1  0
  8 10  1  0
  8  7  1  0
  8  9  1  1
 10 11  2  0
 12 10  1  0
 13 12  1  0
 13 16  1  0
 14 15  1  0
 13 14  1  1
 16 17  2  0
 16 18  1  0
 18 19  1  0
 19 25  1  0
 19 20  1  1
 21 20  1  0
 22 21  1  0
 23 22  1  0
 24 23  1  0
 25 27  2  0
 25 26  1  0
M  END
$$$$
