RCK.pdb
     RDKit          3D

 27 26  0  0  1  0  0  0  0  0999 V2000
    9.7557  -13.6143   18.4993 N   0  0  0  0  0  0  0  0  0  0  0  0
    8.8302  -13.6207   17.4155 C   0  0  0  0  0  0  0  0  0  0  0  0
    8.6692  -12.5775   16.6550 N   0  0  0  0  0  0  0  0  0  0  0  0
    8.0465  -14.7668   17.1227 N   0  0  0  0  0  0  0  0  0  0  0  0
    7.6940  -15.7251   18.1157 C   0  0  0  0  0  0  0  0  0  0  0  0
    6.9877  -15.1843   19.3100 C   0  0  0  0  0  0  0  0  0  0  0  0
    7.8666  -14.8344   20.4539 C   0  0  0  0  0  0  0  0  0  0  0  0
    8.0382  -15.9052   21.4925 C   0  0  2  0  0  0  0  0  0  0  0  0
    6.6809  -16.4123   21.7625 N   0  0  0  0  0  0  0  0  0  0  0  0
    8.5870  -15.4314   22.7696 C   0  0  0  0  0  0  0  0  0  0  0  0
    9.7254  -14.8634   22.8309 O   0  0  0  0  0  0  0  0  0  0  0  0
    7.9653  -12.6425   15.8949 N   0  0  0  0  0  0  0  0  0  0  0  0
    7.8843  -15.5800   23.9919 C   0  0  1  0  0  0  0  0  0  0  0  0
    8.5209  -15.2312   25.2353 C   0  0  0  0  0  0  0  0  0  0  0  0
    7.6509  -14.1827   25.9316 S   0  0  0  0  0  0  0  0  0  0  0  0
    5.9791  -14.8245   26.1734 C   0  0  0  0  0  0  0  0  0  0  0  0
    8.6787  -16.4309   26.1119 O   0  0  0  0  0  0  0  0  0  0  0  0
    7.6908  -17.1585   26.3853 N   0  0  0  0  0  0  0  0  0  0  0  0
    9.9359  -16.7966   26.6668 C   0  0  1  0  0  0  0  0  0  0  0  0
   10.0359  -17.9980   27.5040 C   0  0  0  0  0  0  0  0  0  0  0  0
   11.0483  -18.8823   26.8442 C   0  0  0  0  0  0  0  0  0  0  0  0
   10.7786  -19.1793   25.4016 C   0  0  0  0  0  0  0  0  0  0  0  0
   11.8034  -20.0882   24.7792 C   0  0  0  0  0  0  0  0  0  0  0  0
   11.5104  -20.2019   23.2986 N   0  0  0  0  0  0  0  0  0  0  0  0
   12.5062  -21.0652   22.6770 C   0  0  0  0  0  0  0  0  0  0  0  0
   10.4251  -17.6129   28.8843 O   0  0  0  0  0  0  0  0  0  0  0  0
   10.4444  -18.5160   29.9185 O   0  0  0  0  0  0  0  0  0  0  0  0
  1  2  1  0
  2  3  2  0
  4  2  1  0
  4  5  1  0
  6  5  1  0
  7  6  1  0
  8 10  1  0
  8  7  1  0
  8  9  1  1
 10 11  2  0
 12 10  1  0
 13 12  1  0
 13 16  1  0
 14 15  1  0
 13 14  1  1
 16 17  2  0
 16 18  1  0
 18 19  1  0
 19 25  1  0
 19 20  1  1
 21 20  1  0
 22 21  1  0
 23 22  1  0
 24 23  1  0
 25 27  2  0
 25 26  1  0
M  END
$$$$
