RCK.pdb
     RDKit          3D

 27 26  0  0  1  0  0  0  0  0999 V2000
    8.7059  -12.5348   18.2325 N   0  0  0  0  0  0  0  0  0  0  0  0
    8.4945  -13.6173   17.3298 C   0  0  0  0  0  0  0  0  0  0  0  0
    8.1169  -13.4124   16.1018 N   0  0  0  0  0  0  0  0  0  0  0  0
    8.6879  -14.9632   17.7353 N   0  0  0  0  0  0  0  0  0  0  0  0
    8.5299  -15.3839   19.0868 C   0  0  0  0  0  0  0  0  0  0  0  0
    7.5401  -14.6132   19.8893 C   0  0  0  0  0  0  0  0  0  0  0  0
    6.5762  -15.4394   20.6585 C   0  0  0  0  0  0  0  0  0  0  0  0
    7.1183  -16.0788   21.9043 C   0  0  2  0  0  0  0  0  0  0  0  0
    5.9514  -16.6717   22.5819 N   0  0  0  0  0  0  0  0  0  0  0  0
    7.7389  -15.1409   22.8487 C   0  0  0  0  0  0  0  0  0  0  0  0
    8.8986  -14.6587   22.6371 O   0  0  0  0  0  0  0  0  0  0  0  0
    8.0149  -14.2424   15.4869 N   0  0  0  0  0  0  0  0  0  0  0  0
    7.0851  -14.7261   24.0363 C   0  0  1  0  0  0  0  0  0  0  0  0
    7.8010  -13.9580   25.0214 C   0  0  0  0  0  0  0  0  0  0  0  0
    6.8428  -12.9078   25.5869 S   0  0  0  0  0  0  0  0  0  0  0  0
    5.3709  -13.7098   26.2620 C   0  0  0  0  0  0  0  0  0  0  0  0
    8.3076  -14.8346   26.1204 O   0  0  0  0  0  0  0  0  0  0  0  0
    7.6707  -14.9421   27.1987 N   0  0  0  0  0  0  0  0  0  0  0  0
    9.5150  -15.5754   25.9953 C   0  0  1  0  0  0  0  0  0  0  0  0
    9.7883  -16.6769   26.9261 C   0  0  0  0  0  0  0  0  0  0  0  0
    8.7087  -17.6898   26.7010 C   0  0  0  0  0  0  0  0  0  0  0  0
    8.9105  -18.9924   27.4113 C   0  0  0  0  0  0  0  0  0  0  0  0
    7.7923  -19.9733   27.1852 C   0  0  0  0  0  0  0  0  0  0  0  0
    8.1233  -21.2574   27.9149 N   0  0  0  0  0  0  0  0  0  0  0  0
    6.9952  -22.1738   27.8101 C   0  0  0  0  0  0  0  0  0  0  0  0
   11.1460  -17.2209   26.6700 O   0  0  0  0  0  0  0  0  0  0  0  0
   11.9222  -16.7893   25.6226 O   0  0  0  0  0  0  0  0  0  0  0  0
  1  2  1  0
  2  3  2  0
  4  2  1  0
  4  5  1  0
  6  5  1  0
  7  6  1  0
  8 10  1  0
  8  7  1  0
  8  9  1  1
 10 11  2  0
 12 10  1  0
 13 12  1  0
 13 16  1  0
 14 15  1  0
 13 14  1  1
 16 17  2  0
 16 18  1  0
 18 19  1  0
 19 25  1  0
 19 20  1  1
 21 20  1  0
 22 21  1  0
 23 22  1  0
 24 23  1  0
 25 27  2  0
 25 26  1  0
M  END
$$$$
