RCK.pdb
     RDKit          3D

 27 26  0  0  1  0  0  0  0  0999 V2000
    7.6723  -16.8912   16.1939 N   0  0  0  0  0  0  0  0  0  0  0  0
    7.5632  -15.6437   15.5134 C   0  0  0  0  0  0  0  0  0  0  0  0
    6.8260  -15.5138   14.4494 N   0  0  0  0  0  0  0  0  0  0  0  0
    8.2555  -14.4924   15.9701 N   0  0  0  0  0  0  0  0  0  0  0  0
    8.4180  -14.1977   17.3540 C   0  0  0  0  0  0  0  0  0  0  0  0
    7.7231  -15.1201   18.2943 C   0  0  0  0  0  0  0  0  0  0  0  0
    8.1744  -15.0343   19.7058 C   0  0  0  0  0  0  0  0  0  0  0  0
    7.6808  -13.8424   20.4742 C   0  0  2  0  0  0  0  0  0  0  0  0
    8.0066  -12.6730   19.6384 N   0  0  0  0  0  0  0  0  0  0  0  0
    8.3350  -13.6432   21.7740 C   0  0  0  0  0  0  0  0  0  0  0  0
    9.4692  -13.0707   21.8634 O   0  0  0  0  0  0  0  0  0  0  0  0
    6.8374  -14.5945   13.9676 N   0  0  0  0  0  0  0  0  0  0  0  0
    7.7431  -14.0741   22.9880 C   0  0  2  0  0  0  0  0  0  0  0  0
    8.5204  -14.0961   24.1997 C   0  0  0  0  0  0  0  0  0  0  0  0
    7.8026  -13.2281   25.2353 S   0  0  0  0  0  0  0  0  0  0  0  0
    6.0647  -13.7095   25.3514 C   0  0  0  0  0  0  0  0  0  0  0  0
    8.6707  -15.4906   24.7151 O   0  0  0  0  0  0  0  0  0  0  0  0
    7.6738  -16.2511   24.8043 N   0  0  0  0  0  0  0  0  0  0  0  0
    9.9306  -16.0107   25.1207 C   0  0  1  0  0  0  0  0  0  0  0  0
   10.0053  -17.3569   25.7008 C   0  0  0  0  0  0  0  0  0  0  0  0
   11.1057  -18.0639   24.9718 C   0  0  0  0  0  0  0  0  0  0  0  0
   10.7760  -18.4588   23.5657 C   0  0  0  0  0  0  0  0  0  0  0  0
   11.9366  -19.0749   22.8327 C   0  0  0  0  0  0  0  0  0  0  0  0
   11.5392  -19.2788   21.3865 N   0  0  0  0  0  0  0  0  0  0  0  0
   12.6527  -19.8783   20.6625 C   0  0  0  0  0  0  0  0  0  0  0  0
   10.2574  -17.2573   27.1608 O   0  0  0  0  0  0  0  0  0  0  0  0
   10.4075  -16.0499   27.7973 O   0  0  0  0  0  0  0  0  0  0  0  0
  1  2  1  0
  2  3  2  0
  4  2  1  0
  4  5  1  0
  6  5  1  0
  7  6  1  0
  8 10  1  0
  8  7  1  0
  8  9  1  6
 10 11  2  0
 12 10  1  0
 13 12  1  0
 13 16  1  0
 14 15  1  0
 13 14  1  6
 16 17  2  0
 16 18  1  0
 18 19  1  0
 19 25  1  0
 19 20  1  1
 21 20  1  0
 22 21  1  0
 23 22  1  0
 24 23  1  0
 25 27  2  0
 25 26  1  0
M  END
$$$$
