RCK.pdb
     RDKit          3D

 27 26  0  0  1  0  0  0  0  0999 V2000
    9.0623  -12.7369   17.5692 N   0  0  0  0  0  0  0  0  0  0  0  0
    8.2683  -13.2106   16.4846 C   0  0  0  0  0  0  0  0  0  0  0  0
    8.6866  -13.1368   15.2550 N   0  0  0  0  0  0  0  0  0  0  0  0
    6.9882  -13.7823   16.7034 N   0  0  0  0  0  0  0  0  0  0  0  0
    6.5745  -14.2639   17.9783 C   0  0  0  0  0  0  0  0  0  0  0  0
    7.6359  -14.9138   18.7962 C   0  0  0  0  0  0  0  0  0  0  0  0
    7.7930  -14.3688   20.1679 C   0  0  0  0  0  0  0  0  0  0  0  0
    7.8612  -15.3884   21.2681 C   0  0  2  0  0  0  0  0  0  0  0  0
    6.4605  -15.7235   21.5812 N   0  0  0  0  0  0  0  0  0  0  0  0
    8.4798  -14.9040   22.5088 C   0  0  0  0  0  0  0  0  0  0  0  0
    9.6847  -14.4916   22.5307 O   0  0  0  0  0  0  0  0  0  0  0  0
    8.0999  -13.5788   14.5217 N   0  0  0  0  0  0  0  0  0  0  0  0
    7.7741  -14.8701   23.7379 C   0  0  1  0  0  0  0  0  0  0  0  0
    8.4785  -14.6051   24.9654 C   0  0  0  0  0  0  0  0  0  0  0  0
    7.5786  -13.7363   25.8464 S   0  0  0  0  0  0  0  0  0  0  0  0
    6.0484  -14.6176   26.2305 C   0  0  0  0  0  0  0  0  0  0  0  0
    8.8175  -15.8761   25.6743 O   0  0  0  0  0  0  0  0  0  0  0  0
    7.9528  -16.7761   25.8235 N   0  0  0  0  0  0  0  0  0  0  0  0
   10.1151  -16.1193   26.2028 C   0  0  1  0  0  0  0  0  0  0  0  0
   10.3729  -17.3570   26.9483 C   0  0  0  0  0  0  0  0  0  0  0  0
   11.4370  -18.0867   26.1884 C   0  0  0  0  0  0  0  0  0  0  0  0
   10.9598  -18.7880   24.9546 C   0  0  0  0  0  0  0  0  0  0  0  0
   12.0541  -19.5170   24.2232 C   0  0  0  0  0  0  0  0  0  0  0  0
   11.4715  -20.1223   22.9642 N   0  0  0  0  0  0  0  0  0  0  0  0
   12.5352  -20.7663   22.2043 C   0  0  0  0  0  0  0  0  0  0  0  0
   10.7849  -17.0266   28.3361 O   0  0  0  0  0  0  0  0  0  0  0  0
   11.0456  -15.7390   28.7356 O   0  0  0  0  0  0  0  0  0  0  0  0
  1  2  1  0
  2  3  2  0
  4  2  1  0
  4  5  1  0
  6  5  1  0
  7  6  1  0
  8 10  1  0
  8  7  1  0
  8  9  1  1
 10 11  2  0
 12 10  1  0
 13 12  1  0
 13 16  1  0
 14 15  1  0
 13 14  1  1
 16 17  2  0
 16 18  1  0
 18 19  1  0
 19 25  1  0
 19 20  1  1
 21 20  1  0
 22 21  1  0
 23 22  1  0
 24 23  1  0
 25 27  2  0
 25 26  1  0
M  END
$$$$
