RCK.pdb
     RDKit          3D

 27 26  0  0  1  0  0  0  0  0999 V2000
    8.3677  -12.3251   17.5627 N   0  0  0  0  0  0  0  0  0  0  0  0
    8.1731  -13.6810   17.1692 C   0  0  0  0  0  0  0  0  0  0  0  0
    8.3883  -14.0699   15.9465 N   0  0  0  0  0  0  0  0  0  0  0  0
    7.7364  -14.6619   18.0969 N   0  0  0  0  0  0  0  0  0  0  0  0
    8.2411  -14.7338   19.4268 C   0  0  0  0  0  0  0  0  0  0  0  0
    7.4968  -13.9375   20.4416 C   0  0  0  0  0  0  0  0  0  0  0  0
    6.7092  -14.7376   21.4125 C   0  0  0  0  0  0  0  0  0  0  0  0
    7.5061  -15.6483   22.3015 C   0  0  2  0  0  0  0  0  0  0  0  0
    6.5219  -16.5545   22.9199 N   0  0  0  0  0  0  0  0  0  0  0  0
    8.2143  -14.9664   23.3925 C   0  0  0  0  0  0  0  0  0  0  0  0
    9.4698  -14.7593   23.3391 O   0  0  0  0  0  0  0  0  0  0  0  0
    8.4315  -15.0917   15.7691 N   0  0  0  0  0  0  0  0  0  0  0  0
    7.5431  -14.5063   24.5534 C   0  0  1  0  0  0  0  0  0  0  0  0
    8.2988  -14.1223   25.7172 C   0  0  0  0  0  0  0  0  0  0  0  0
    7.6359  -12.8824   26.3209 S   0  0  0  0  0  0  0  0  0  0  0  0
    5.8377  -13.0539   26.2720 C   0  0  0  0  0  0  0  0  0  0  0  0
    8.3326  -15.2268   26.7231 O   0  0  0  0  0  0  0  0  0  0  0  0
    7.4565  -16.1281   26.7139 N   0  0  0  0  0  0  0  0  0  0  0  0
    9.3436  -15.3052   27.7200 C   0  0  1  0  0  0  0  0  0  0  0  0
   10.0233  -16.5832   27.9629 C   0  0  0  0  0  0  0  0  0  0  0  0
   10.6183  -16.9942   26.6516 C   0  0  0  0  0  0  0  0  0  0  0  0
   11.4279  -18.2529   26.6955 C   0  0  0  0  0  0  0  0  0  0  0  0
   12.0255  -18.6230   25.3652 C   0  0  0  0  0  0  0  0  0  0  0  0
   12.8877  -19.8532   25.5501 N   0  0  0  0  0  0  0  0  0  0  0  0
   13.5111  -20.1982   24.2790 C   0  0  0  0  0  0  0  0  0  0  0  0
   11.0453  -16.4103   29.0262 O   0  0  0  0  0  0  0  0  0  0  0  0
   11.3025  -17.3838   29.9598 O   0  0  0  0  0  0  0  0  0  0  0  0
  1  2  1  0
  2  3  2  0
  4  2  1  0
  4  5  1  0
  6  5  1  0
  7  6  1  0
  8 10  1  0
  8  7  1  0
  8  9  1  1
 10 11  2  0
 12 10  1  0
 13 12  1  0
 13 16  1  0
 14 15  1  0
 13 14  1  1
 16 17  2  0
 16 18  1  0
 18 19  1  0
 19 25  1  0
 19 20  1  1
 21 20  1  0
 22 21  1  0
 23 22  1  0
 24 23  1  0
 25 27  2  0
 25 26  1  0
M  END
$$$$
