RCK.pdb
     RDKit          3D

 27 26  0  0  1  0  0  0  0  0999 V2000
    7.7707  -26.9716   25.2969 N   0  0  0  0  0  0  0  0  0  0  0  0
    7.4283  -26.9305   26.6798 C   0  0  0  0  0  0  0  0  0  0  0  0
    6.4134  -27.5968   27.1473 N   0  0  0  0  0  0  0  0  0  0  0  0
    8.1819  -26.1600   27.6027 N   0  0  0  0  0  0  0  0  0  0  0  0
    9.4264  -25.5587   27.2589 C   0  0  0  0  0  0  0  0  0  0  0  0
    9.4784  -24.9067   25.9210 C   0  0  0  0  0  0  0  0  0  0  0  0
    9.6369  -23.4311   25.9479 C   0  0  0  0  0  0  0  0  0  0  0  0
   10.8782  -22.8991   25.2915 C   0  0  2  0  0  0  0  0  0  0  0  0
   11.3742  -23.9957   24.4408 N   0  0  0  0  0  0  0  0  0  0  0  0
   11.9577  -22.5504   26.2242 C   0  0  0  0  0  0  0  0  0  0  0  0
   12.9160  -23.3561   26.4586 O   0  0  0  0  0  0  0  0  0  0  0  0
    6.2274  -27.5342   28.1665 N   0  0  0  0  0  0  0  0  0  0  0  0
   11.9899  -21.3086   26.9073 C   0  0  2  0  0  0  0  0  0  0  0  0
   13.0393  -21.0351   27.8544 C   0  0  0  0  0  0  0  0  0  0  0  0
   13.2526  -19.5206   27.8963 S   0  0  0  0  0  0  0  0  0  0  0  0
   11.6730  -18.6776   28.1407 C   0  0  0  0  0  0  0  0  0  0  0  0
   12.6795  -21.5400   29.2140 O   0  0  0  0  0  0  0  0  0  0  0  0
   11.4846  -21.8002   29.5048 N   0  0  0  0  0  0  0  0  0  0  0  0
   13.6598  -21.7458   30.2234 C   0  0  1  0  0  0  0  0  0  0  0  0
   13.2519  -22.2682   31.5330 C   0  0  0  0  0  0  0  0  0  0  0  0
   12.6836  -23.6301   31.2794 C   0  0  0  0  0  0  0  0  0  0  0  0
   12.2341  -24.3622   32.5057 C   0  0  0  0  0  0  0  0  0  0  0  0
   11.8873  -25.8030   32.2454 C   0  0  0  0  0  0  0  0  0  0  0  0
   11.3739  -26.4146   33.5312 N   0  0  0  0  0  0  0  0  0  0  0  0
   11.0543  -27.8177   33.3014 C   0  0  0  0  0  0  0  0  0  0  0  0
   14.4233  -22.2974   32.4451 O   0  0  0  0  0  0  0  0  0  0  0  0
   14.2872  -22.3257   33.8111 O   0  0  0  0  0  0  0  0  0  0  0  0
  1  2  1  0
  2  3  2  0
  4  2  1  0
  4  5  1  0
  6  5  1  0
  7  6  1  0
  8 10  1  0
  8  7  1  0
  8  9  1  6
 10 11  2  0
 12 10  1  0
 13 12  1  0
 13 16  1  0
 14 15  1  0
 13 14  1  6
 16 17  2  0
 16 18  1  0
 18 19  1  0
 19 25  1  0
 19 20  1  1
 21 20  1  0
 22 21  1  0
 23 22  1  0
 24 23  1  0
 25 27  2  0
 25 26  1  0
M  END
$$$$
