MCI.pdb
     RDKit          3D

 23 22  0  0  1  0  0  0  0  0999 V2000
   26.5949  -15.8891  -15.0994 C   0  0  0  0  0  0  0  0  0  0  0  0
   27.7344  -16.3770  -16.4314 S   0  0  0  0  0  0  0  0  0  0  0  0
   28.4204  -18.0157  -16.0563 C   0  0  0  0  0  0  0  0  0  0  0  0
   27.4227  -18.8341  -15.3009 C   0  0  0  0  0  0  0  0  0  0  0  0
   27.9537  -20.1492  -14.7901 C   0  0  2  0  0  0  0  0  0  0  0  0
   28.3629  -20.9902  -15.9003 N   0  0  0  0  0  0  0  0  0  0  0  0
   26.9365  -20.7899  -13.9485 C   0  0  0  0  0  0  0  0  0  0  0  0
   26.0920  -21.5578  -14.4380 O   0  0  0  0  0  0  0  0  0  0  0  0
   26.8528  -20.5746  -12.5289 N   0  0  0  0  0  0  0  0  0  0  0  0
   25.7029  -20.9932  -11.7524 C   0  0  1  0  0  0  0  0  0  0  0  0
   25.9543  -20.7482  -10.3013 C   0  0  0  0  0  0  0  0  0  0  0  0
   24.4893  -20.9962   -9.2792 S   0  0  0  0  0  0  0  0  0  0  0  0
   24.4498  -20.3821  -12.2488 C   0  0  0  0  0  0  0  0  0  0  0  0
   24.3042  -19.1530  -12.4280 O   0  0  0  0  0  0  0  0  0  0  0  0
   20.4077  -21.3593  -16.4750 C   0  0  0  0  0  0  0  0  0  0  0  0
   20.6131  -20.8189  -15.0876 C   0  0  0  0  0  0  0  0  0  0  0  0
   21.9301  -21.1689  -14.4899 C   0  0  2  0  0  0  0  0  0  0  0  0
   22.0768  -22.6833  -14.5764 C   0  0  0  0  0  0  0  0  0  0  0  0
   22.0863  -20.6920  -13.0630 C   0  0  2  0  0  0  0  0  0  0  0  0
   23.3451  -21.2238  -12.5416 N   0  0  0  0  0  0  0  0  0  0  0  0
   20.9919  -21.1903  -12.1930 C   0  0  0  0  0  0  0  0  0  0  0  0
   19.7821  -20.5136  -12.0570 O   0  0  0  0  0  0  0  0  0  0  0  0
   21.1147  -22.2442  -11.5438 O   0  0  0  0  0  0  0  0  0  0  0  0
  2  1  1  0
  3  2  1  0
  4  3  1  0
  5  4  1  0
  5  7  1  0
  5  6  1  6
  7  8  2  0
  9 10  1  0
  9  7  1  0
 11 12  1  0
 10 11  1  1
 13 10  1  0
 13 14  2  0
 16 15  1  0
 17 16  1  0
 17 18  1  1
 19 20  1  1
 19 17  1  0
 20 13  1  0
 21 19  1  0
 22 21  1  0
 23 21  2  0
M  END
$$$$
