MCI.pdb
     RDKit          3D

 23 22  0  0  1  0  0  0  0  0999 V2000
   30.5629  -17.6888  -16.1578 C   0  0  0  0  0  0  0  0  0  0  0  0
   29.5670  -16.2485  -16.6523 S   0  0  0  0  0  0  0  0  0  0  0  0
   27.8444  -16.7703  -16.8906 C   0  0  0  0  0  0  0  0  0  0  0  0
   27.3397  -17.4647  -15.6662 C   0  0  0  0  0  0  0  0  0  0  0  0
   25.9972  -18.1292  -15.8348 C   0  0  2  0  0  0  0  0  0  0  0  0
   25.0443  -17.1961  -16.4082 N   0  0  0  0  0  0  0  0  0  0  0  0
   25.5516  -18.6594  -14.5411 C   0  0  0  0  0  0  0  0  0  0  0  0
   25.0322  -17.9184  -13.6904 O   0  0  0  0  0  0  0  0  0  0  0  0
   25.6845  -20.0454  -14.1807 N   0  0  0  0  0  0  0  0  0  0  0  0
   25.0696  -20.5941  -12.9885 C   0  0  1  0  0  0  0  0  0  0  0  0
   24.3263  -21.8430  -13.3301 C   0  0  0  0  0  0  0  0  0  0  0  0
   22.7877  -21.5285  -14.2168 S   0  0  0  0  0  0  0  0  0  0  0  0
   26.0489  -20.7676  -11.8925 C   0  0  0  0  0  0  0  0  0  0  0  0
   27.1600  -21.3222  -12.0401 O   0  0  0  0  0  0  0  0  0  0  0  0
   28.6666  -18.9694   -6.8860 C   0  0  0  0  0  0  0  0  0  0  0  0
   27.8797  -20.0786   -7.5260 C   0  0  0  0  0  0  0  0  0  0  0  0
   27.1823  -19.6817   -8.7791 C   0  0  2  0  0  0  0  0  0  0  0  0
   26.2943  -18.4896   -8.4431 C   0  0  0  0  0  0  0  0  0  0  0  0
   26.3727  -20.8013   -9.3947 C   0  0  2  0  0  0  0  0  0  0  0  0
   25.7233  -20.2834  -10.5986 N   0  0  0  0  0  0  0  0  0  0  0  0
   25.3075  -21.2789   -8.4782 C   0  0  0  0  0  0  0  0  0  0  0  0
   23.9611  -20.9888   -8.6860 O   0  0  0  0  0  0  0  0  0  0  0  0
   25.5795  -21.9651   -7.4769 O   0  0  0  0  0  0  0  0  0  0  0  0
  2  1  1  0
  3  2  1  0
  4  3  1  0
  5  4  1  0
  5  7  1  0
  5  6  1  1
  7  8  2  0
  9 10  1  0
  9  7  1  0
 11 12  1  0
 10 11  1  6
 13 10  1  0
 13 14  2  0
 16 15  1  0
 17 16  1  0
 17 18  1  1
 19 20  1  6
 19 17  1  0
 20 13  1  0
 21 19  1  0
 22 21  1  0
 23 21  2  0
M  END
$$$$
