MCI.pdb
     RDKit          3D

 23 22  0  0  1  0  0  0  0  0999 V2000
   18.7459  -19.2278  -18.0056 C   0  0  0  0  0  0  0  0  0  0  0  0
   20.3946  -19.5931  -18.6832 S   0  0  0  0  0  0  0  0  0  0  0  0
   21.4260  -20.3204  -17.3780 C   0  0  0  0  0  0  0  0  0  0  0  0
   21.4410  -19.4326  -16.1749 C   0  0  0  0  0  0  0  0  0  0  0  0
   22.8073  -18.9233  -15.7927 C   0  0  2  0  0  0  0  0  0  0  0  0
   23.4039  -19.7898  -14.7924 N   0  0  0  0  0  0  0  0  0  0  0  0
   22.6972  -17.5335  -15.3346 C   0  0  0  0  0  0  0  0  0  0  0  0
   21.9816  -17.2342  -14.3647 O   0  0  0  0  0  0  0  0  0  0  0  0
   23.3975  -16.4480  -15.9670 N   0  0  0  0  0  0  0  0  0  0  0  0
   23.3169  -15.0876  -15.4737 C   0  0  1  0  0  0  0  0  0  0  0  0
   24.6704  -14.6203  -15.0510 C   0  0  0  0  0  0  0  0  0  0  0  0
   25.8861  -14.6821  -16.3817 S   0  0  0  0  0  0  0  0  0  0  0  0
   22.6547  -14.1872  -16.4438 C   0  0  0  0  0  0  0  0  0  0  0  0
   22.7494  -14.3181  -17.6839 O   0  0  0  0  0  0  0  0  0  0  0  0
   17.4746  -11.7451  -17.6919 C   0  0  0  0  0  0  0  0  0  0  0  0
   18.9493  -11.4571  -17.6505 C   0  0  0  0  0  0  0  0  0  0  0  0
   19.7327  -12.4241  -16.8347 C   0  0  2  0  0  0  0  0  0  0  0  0
   19.1881  -12.3602  -15.4128 C   0  0  0  0  0  0  0  0  0  0  0  0
   21.2214  -12.1571  -16.8550 C   0  0  2  0  0  0  0  0  0  0  0  0
   21.8665  -13.1128  -15.9551 N   0  0  0  0  0  0  0  0  0  0  0  0
   21.5428  -10.7924  -16.3683 C   0  0  0  0  0  0  0  0  0  0  0  0
   22.1300  -10.5639  -15.1261 O   0  0  0  0  0  0  0  0  0  0  0  0
   21.2971   -9.7877  -17.0595 O   0  0  0  0  0  0  0  0  0  0  0  0
  2  1  1  0
  3  2  1  0
  4  3  1  0
  5  4  1  0
  5  7  1  0
  5  6  1  1
  7  8  2  0
  9 10  1  0
  9  7  1  0
 11 12  1  0
 10 11  1  6
 13 10  1  0
 13 14  2  0
 16 15  1  0
 17 16  1  0
 17 18  1  1
 19 20  1  1
 19 17  1  0
 20 13  1  0
 21 19  1  0
 22 21  1  0
 23 21  2  0
M  END
$$$$
