MCI.pdb
     RDKit          3D

 23 22  0  0  1  0  0  0  0  0999 V2000
   26.1781  -20.1549   -4.0123 C   0  0  0  0  0  0  0  0  0  0  0  0
   27.9900  -20.2010   -4.1726 S   0  0  0  0  0  0  0  0  0  0  0  0
   28.4546  -19.6308   -5.8327 C   0  0  0  0  0  0  0  0  0  0  0  0
   27.3185  -19.8280   -6.7846 C   0  0  0  0  0  0  0  0  0  0  0  0
   27.6037  -19.3838   -8.1966 C   0  0  2  0  0  0  0  0  0  0  0  0
   27.8534  -17.9542   -8.2319 N   0  0  0  0  0  0  0  0  0  0  0  0
   26.4883  -19.7783   -9.0647 C   0  0  0  0  0  0  0  0  0  0  0  0
   25.4857  -19.0555   -9.1868 O   0  0  0  0  0  0  0  0  0  0  0  0
   26.4835  -21.0043   -9.8167 N   0  0  0  0  0  0  0  0  0  0  0  0
   25.8629  -21.1049  -11.1227 C   0  0  1  0  0  0  0  0  0  0  0  0
   26.4184  -22.2788  -11.8591 C   0  0  0  0  0  0  0  0  0  0  0  0
   25.7816  -22.4234  -13.5402 S   0  0  0  0  0  0  0  0  0  0  0  0
   24.3857  -21.1057  -11.0330 C   0  0  0  0  0  0  0  0  0  0  0  0
   23.7476  -21.7153  -10.1469 O   0  0  0  0  0  0  0  0  0  0  0  0
   19.8857  -17.5126  -11.7288 C   0  0  0  0  0  0  0  0  0  0  0  0
   20.2719  -18.7748  -12.4478 C   0  0  0  0  0  0  0  0  0  0  0  0
   21.7406  -18.9982  -12.5332 C   0  0  2  0  0  0  0  0  0  0  0  0
   22.1307  -18.8780  -14.0014 C   0  0  0  0  0  0  0  0  0  0  0  0
   22.1780  -20.3304  -11.9658 C   0  0  2  0  0  0  0  0  0  0  0  0
   23.6394  -20.3799  -11.9978 N   0  0  0  0  0  0  0  0  0  0  0  0
   21.6709  -21.4667  -12.7747 C   0  0  0  0  0  0  0  0  0  0  0  0
   20.4396  -22.0678  -12.5247 O   0  0  0  0  0  0  0  0  0  0  0  0
   22.3342  -21.9317  -13.7187 O   0  0  0  0  0  0  0  0  0  0  0  0
  2  1  1  0
  3  2  1  0
  4  3  1  0
  5  4  1  0
  5  7  1  0
  5  6  1  1
  7  8  2  0
  9 10  1  0
  9  7  1  0
 11 12  1  0
 10 11  1  1
 13 10  1  0
 13 14  2  0
 16 15  1  0
 17 16  1  0
 17 18  1  6
 19 20  1  6
 19 17  1  0
 20 13  1  0
 21 19  1  0
 22 21  1  0
 23 21  2  0
M  END
$$$$
