MCI.pdb
     RDKit          3D

 23 22  0  0  1  0  0  0  0  0999 V2000
   12.3028  -14.2682  -18.2176 C   0  0  0  0  0  0  0  0  0  0  0  0
   12.9466  -13.2316  -16.8679 S   0  0  0  0  0  0  0  0  0  0  0  0
   14.7596  -13.3288  -16.8566 C   0  0  0  0  0  0  0  0  0  0  0  0
   15.3178  -12.4620  -15.7737 C   0  0  0  0  0  0  0  0  0  0  0  0
   16.8219  -12.4782  -15.6750 C   0  0  2  0  0  0  0  0  0  0  0  0
   17.2659  -13.6704  -14.9759 N   0  0  0  0  0  0  0  0  0  0  0  0
   17.2794  -11.2452  -15.0239 C   0  0  0  0  0  0  0  0  0  0  0  0
   17.0863  -11.0515  -13.8124 O   0  0  0  0  0  0  0  0  0  0  0  0
   17.9683  -10.2004  -15.7328 N   0  0  0  0  0  0  0  0  0  0  0  0
   18.2728   -8.9235  -15.1185 C   0  0  1  0  0  0  0  0  0  0  0  0
   19.7259   -8.6189  -15.2753 C   0  0  0  0  0  0  0  0  0  0  0  0
   20.1804   -6.9958  -14.6338 S   0  0  0  0  0  0  0  0  0  0  0  0
   17.3845   -7.8478  -15.6124 C   0  0  0  0  0  0  0  0  0  0  0  0
   17.1764   -7.6260  -16.8254 O   0  0  0  0  0  0  0  0  0  0  0  0
   12.7959   -7.7723  -14.2376 C   0  0  0  0  0  0  0  0  0  0  0  0
   13.6531   -6.9412  -15.1507 C   0  0  0  0  0  0  0  0  0  0  0  0
   14.5562   -5.9960  -14.4399 C   0  0  2  0  0  0  0  0  0  0  0  0
   13.8492   -4.6468  -14.3912 C   0  0  0  0  0  0  0  0  0  0  0  0
   15.9182   -5.8686  -15.0853 C   0  0  2  0  0  0  0  0  0  0  0  0
   16.7264   -7.0148  -14.6703 N   0  0  0  0  0  0  0  0  0  0  0  0
   16.6226   -4.6381  -14.6466 C   0  0  0  0  0  0  0  0  0  0  0  0
   16.5754   -3.4528  -15.3764 O   0  0  0  0  0  0  0  0  0  0  0  0
   17.2905   -4.6180  -13.5973 O   0  0  0  0  0  0  0  0  0  0  0  0
  2  1  1  0
  3  2  1  0
  4  3  1  0
  5  4  1  0
  5  7  1  0
  5  6  1  1
  7  8  2  0
  9 10  1  0
  9  7  1  0
 11 12  1  0
 10 11  1  6
 13 10  1  0
 13 14  2  0
 16 15  1  0
 17 16  1  0
 17 18  1  6
 19 20  1  1
 19 17  1  0
 20 13  1  0
 21 19  1  0
 22 21  1  0
 23 21  2  0
M  END
$$$$
