MCI.pdb
     RDKit          3D

 23 22  0  0  1  0  0  0  0  0999 V2000
   27.5121  -18.4578   -7.1876 C   0  0  0  0  0  0  0  0  0  0  0  0
   26.5401  -19.9420   -6.7838 S   0  0  0  0  0  0  0  0  0  0  0  0
   26.7328  -21.1596   -8.1168 C   0  0  0  0  0  0  0  0  0  0  0  0
   26.4396  -20.5289   -9.4405 C   0  0  0  0  0  0  0  0  0  0  0  0
   26.4909  -21.4795  -10.6093 C   0  0  2  0  0  0  0  0  0  0  0  0
   27.7818  -22.1416  -10.6610 N   0  0  0  0  0  0  0  0  0  0  0  0
   26.1880  -20.7475  -11.8446 C   0  0  0  0  0  0  0  0  0  0  0  0
   27.0970  -20.3367  -12.5844 O   0  0  0  0  0  0  0  0  0  0  0  0
   24.8440  -20.4637  -12.2711 N   0  0  0  0  0  0  0  0  0  0  0  0
   24.3071  -20.9734  -13.5172 C   0  0  1  0  0  0  0  0  0  0  0  0
   24.4312  -22.4608  -13.5523 C   0  0  0  0  0  0  0  0  0  0  0  0
   23.8947  -23.1773  -15.1178 S   0  0  0  0  0  0  0  0  0  0  0  0
   22.9317  -20.4868  -13.7654 C   0  0  0  0  0  0  0  0  0  0  0  0
   21.9552  -20.7755  -13.0395 O   0  0  0  0  0  0  0  0  0  0  0  0
   23.4017  -16.3970  -16.7459 C   0  0  0  0  0  0  0  0  0  0  0  0
   22.4484  -16.8897  -15.6935 C   0  0  0  0  0  0  0  0  0  0  0  0
   21.5330  -17.9656  -16.1612 C   0  0  2  0  0  0  0  0  0  0  0  0
   20.1910  -17.3133  -16.4708 C   0  0  0  0  0  0  0  0  0  0  0  0
   21.3692  -19.0894  -15.1621 C   0  0  2  0  0  0  0  0  0  0  0  0
   22.6927  -19.6463  -14.8838 N   0  0  0  0  0  0  0  0  0  0  0  0
   20.5234  -20.1845  -15.6988 C   0  0  0  0  0  0  0  0  0  0  0  0
   21.0637  -21.3715  -16.1875 O   0  0  0  0  0  0  0  0  0  0  0  0
   19.2840  -20.0830  -15.7332 O   0  0  0  0  0  0  0  0  0  0  0  0
  2  1  1  0
  3  2  1  0
  4  3  1  0
  5  4  1  0
  5  7  1  0
  5  6  1  6
  7  8  2  0
  9 10  1  0
  9  7  1  0
 11 12  1  0
 10 11  1  1
 13 10  1  0
 13 14  2  0
 16 15  1  0
 17 16  1  0
 17 18  1  1
 19 20  1  6
 19 17  1  0
 20 13  1  0
 21 19  1  0
 22 21  1  0
 23 21  2  0
M  END
$$$$
