MCI.pdb
     RDKit          3D

 23 22  0  0  1  0  0  0  0  0999 V2000
   24.3614  -25.8453  -18.8005 C   0  0  0  0  0  0  0  0  0  0  0  0
   23.4788  -24.4419  -19.5504 S   0  0  0  0  0  0  0  0  0  0  0  0
   24.3978  -22.9128  -19.2127 C   0  0  0  0  0  0  0  0  0  0  0  0
   25.4381  -23.1543  -18.1662 C   0  0  0  0  0  0  0  0  0  0  0  0
   26.6844  -22.3208  -18.3217 C   0  0  2  0  0  0  0  0  0  0  0  0
   27.7906  -23.1502  -18.7641 N   0  0  0  0  0  0  0  0  0  0  0  0
   26.9710  -21.6346  -17.0565 C   0  0  0  0  0  0  0  0  0  0  0  0
   27.9020  -22.0065  -16.3234 O   0  0  0  0  0  0  0  0  0  0  0  0
   26.2071  -20.5080  -16.5920 N   0  0  0  0  0  0  0  0  0  0  0  0
   26.4845  -19.8578  -15.3266 C   0  0  1  0  0  0  0  0  0  0  0  0
   26.4051  -18.3760  -15.4898 C   0  0  0  0  0  0  0  0  0  0  0  0
   26.7037  -17.4796  -13.9536 S   0  0  0  0  0  0  0  0  0  0  0  0
   25.6295  -20.3815  -14.2381 C   0  0  0  0  0  0  0  0  0  0  0  0
   24.4238  -20.6773  -14.3881 O   0  0  0  0  0  0  0  0  0  0  0  0
   28.6184  -21.3657   -9.8988 C   0  0  0  0  0  0  0  0  0  0  0  0
   27.3652  -21.8408  -10.5792 C   0  0  0  0  0  0  0  0  0  0  0  0
   26.2527  -20.8528  -10.5585 C   0  0  2  0  0  0  0  0  0  0  0  0
   25.4391  -21.1157   -9.2970 C   0  0  0  0  0  0  0  0  0  0  0  0
   25.3751  -20.9126  -11.7890 C   0  0  2  0  0  0  0  0  0  0  0  0
   26.1947  -20.5630  -12.9488 N   0  0  0  0  0  0  0  0  0  0  0  0
   24.2580  -19.9382  -11.7166 C   0  0  0  0  0  0  0  0  0  0  0  0
   22.9634  -20.3143  -11.3664 O   0  0  0  0  0  0  0  0  0  0  0  0
   24.4371  -18.7334  -11.9690 O   0  0  0  0  0  0  0  0  0  0  0  0
  2  1  1  0
  3  2  1  0
  4  3  1  0
  5  4  1  0
  5  7  1  0
  5  6  1  1
  7  8  2  0
  9 10  1  0
  9  7  1  0
 11 12  1  0
 10 11  1  6
 13 10  1  0
 13 14  2  0
 16 15  1  0
 17 16  1  0
 17 18  1  1
 19 20  1  6
 19 17  1  0
 20 13  1  0
 21 19  1  0
 22 21  1  0
 23 21  2  0
M  END
$$$$
