MCI.pdb
     RDKit          3D

 23 22  0  0  1  0  0  0  0  0999 V2000
   28.0978  -17.8326   -7.4559 C   0  0  0  0  0  0  0  0  0  0  0  0
   27.3705  -19.2133   -6.5200 S   0  0  0  0  0  0  0  0  0  0  0  0
   27.1280  -20.6251   -7.6356 C   0  0  0  0  0  0  0  0  0  0  0  0
   26.5505  -20.1646   -8.9356 C   0  0  0  0  0  0  0  0  0  0  0  0
   26.3176  -21.2649   -9.9392 C   0  0  2  0  0  0  0  0  0  0  0  0
   27.5624  -21.9552  -10.2246 N   0  0  0  0  0  0  0  0  0  0  0  0
   25.7022  -20.6999  -11.1457 C   0  0  0  0  0  0  0  0  0  0  0  0
   25.6920  -19.4741  -11.3449 O   0  0  0  0  0  0  0  0  0  0  0  0
   25.0826  -21.5135  -12.1570 N   0  0  0  0  0  0  0  0  0  0  0  0
   24.7442  -20.9910  -13.4660 C   0  0  1  0  0  0  0  0  0  0  0  0
   25.0224  -22.0208  -14.5105 C   0  0  0  0  0  0  0  0  0  0  0  0
   25.5031  -23.6156  -13.8192 S   0  0  0  0  0  0  0  0  0  0  0  0
   23.3631  -20.4611  -13.5083 C   0  0  0  0  0  0  0  0  0  0  0  0
   22.4663  -20.8046  -12.7073 O   0  0  0  0  0  0  0  0  0  0  0  0
   20.4770  -15.7757  -16.4377 C   0  0  0  0  0  0  0  0  0  0  0  0
   20.4244  -17.0280  -15.6082 C   0  0  0  0  0  0  0  0  0  0  0  0
   21.7499  -17.6696  -15.3949 C   0  0  2  0  0  0  0  0  0  0  0  0
   22.3740  -17.8835  -16.7686 C   0  0  0  0  0  0  0  0  0  0  0  0
   21.6691  -18.9720  -14.6300 C   0  0  2  0  0  0  0  0  0  0  0  0
   23.0232  -19.5110  -14.5065 N   0  0  0  0  0  0  0  0  0  0  0  0
   20.8464  -19.9799  -15.3442 C   0  0  0  0  0  0  0  0  0  0  0  0
   19.4832  -20.1342  -15.1036 O   0  0  0  0  0  0  0  0  0  0  0  0
   21.3489  -20.7350  -16.1955 O   0  0  0  0  0  0  0  0  0  0  0  0
  2  1  1  0
  3  2  1  0
  4  3  1  0
  5  4  1  0
  5  7  1  0
  5  6  1  6
  7  8  2  0
  9 10  1  0
  9  7  1  0
 11 12  1  0
 10 11  1  6
 13 10  1  0
 13 14  2  0
 16 15  1  0
 17 16  1  0
 17 18  1  6
 19 20  1  6
 19 17  1  0
 20 13  1  0
 21 19  1  0
 22 21  1  0
 23 21  2  0
M  END
$$$$
