MCI.pdb
     RDKit          3D

 23 22  0  0  1  0  0  0  0  0999 V2000
   30.2587  -21.2172  -11.1930 C   0  0  0  0  0  0  0  0  0  0  0  0
   30.3099  -22.0469  -12.8116 S   0  0  0  0  0  0  0  0  0  0  0  0
   29.9186  -20.8404  -14.1107 C   0  0  0  0  0  0  0  0  0  0  0  0
   28.9950  -19.7905  -13.5811 C   0  0  0  0  0  0  0  0  0  0  0  0
   27.5387  -20.0277  -13.8899 C   0  0  2  0  0  0  0  0  0  0  0  0
   27.1434  -19.2649  -15.0601 N   0  0  0  0  0  0  0  0  0  0  0  0
   26.7318  -19.6987  -12.7092 C   0  0  0  0  0  0  0  0  0  0  0  0
   26.5539  -18.5190  -12.3640 O   0  0  0  0  0  0  0  0  0  0  0  0
   26.1061  -20.7019  -11.8902 N   0  0  0  0  0  0  0  0  0  0  0  0
   25.3677  -20.3659  -10.6891 C   0  0  1  0  0  0  0  0  0  0  0  0
   23.9175  -20.6605  -10.8862 C   0  0  0  0  0  0  0  0  0  0  0  0
   22.8797  -20.0176   -9.5588 S   0  0  0  0  0  0  0  0  0  0  0  0
   25.9459  -21.0088   -9.4881 C   0  0  0  0  0  0  0  0  0  0  0  0
   26.1406  -22.2401   -9.3896 O   0  0  0  0  0  0  0  0  0  0  0  0
   28.9678  -19.1352   -4.3868 C   0  0  0  0  0  0  0  0  0  0  0  0
   28.1803  -20.1826   -5.1228 C   0  0  0  0  0  0  0  0  0  0  0  0
   27.6223  -19.7194   -6.4222 C   0  0  2  0  0  0  0  0  0  0  0  0
   26.7891  -18.4755   -6.1377 C   0  0  0  0  0  0  0  0  0  0  0  0
   26.7972  -20.7716   -7.1292 C   0  0  2  0  0  0  0  0  0  0  0  0
   26.3034  -20.1967   -8.3802 N   0  0  0  0  0  0  0  0  0  0  0  0
   25.6186  -21.1797   -6.3247 C   0  0  0  0  0  0  0  0  0  0  0  0
   25.7171  -22.0704   -5.2585 O   0  0  0  0  0  0  0  0  0  0  0  0
   24.4835  -20.7364   -6.5750 O   0  0  0  0  0  0  0  0  0  0  0  0
  2  1  1  0
  3  2  1  0
  4  3  1  0
  5  4  1  0
  5  7  1  0
  5  6  1  6
  7  8  2  0
  9 10  1  0
  9  7  1  0
 11 12  1  0
 10 11  1  6
 13 10  1  0
 13 14  2  0
 16 15  1  0
 17 16  1  0
 17 18  1  1
 19 20  1  6
 19 17  1  0
 20 13  1  0
 21 19  1  0
 22 21  1  0
 23 21  2  0
M  END
$$$$
