MCI.pdb
     RDKit          3D

 23 22  0  0  1  0  0  0  0  0999 V2000
   16.5749  -16.7581  -14.1553 C   0  0  0  0  0  0  0  0  0  0  0  0
   17.5509  -15.4131  -14.8965 S   0  0  0  0  0  0  0  0  0  0  0  0
   16.4597  -14.3772  -15.9128 C   0  0  0  0  0  0  0  0  0  0  0  0
   17.2253  -13.2298  -16.4902 C   0  0  0  0  0  0  0  0  0  0  0  0
   16.3898  -12.2606  -17.2870 C   0  0  2  0  0  0  0  0  0  0  0  0
   15.8974  -12.8979  -18.4948 N   0  0  0  0  0  0  0  0  0  0  0  0
   17.1804  -11.0576  -17.5719 C   0  0  0  0  0  0  0  0  0  0  0  0
   17.8038  -10.9395  -18.6395 O   0  0  0  0  0  0  0  0  0  0  0  0
   17.2828   -9.9577  -16.6509 N   0  0  0  0  0  0  0  0  0  0  0  0
   18.0576   -8.7703  -16.9516 C   0  0  1  0  0  0  0  0  0  0  0  0
   17.2280   -7.8086  -17.7363 C   0  0  0  0  0  0  0  0  0  0  0  0
   15.7474   -7.2726  -16.8572 S   0  0  0  0  0  0  0  0  0  0  0  0
   18.6579   -8.1802  -15.7344 C   0  0  0  0  0  0  0  0  0  0  0  0
   18.1001   -8.1887  -14.6151 O   0  0  0  0  0  0  0  0  0  0  0  0
   23.0975   -9.9222  -14.1553 C   0  0  0  0  0  0  0  0  0  0  0  0
   21.7913   -9.1957  -14.3137 C   0  0  0  0  0  0  0  0  0  0  0  0
   21.9337   -7.7252  -14.4918 C   0  0  2  0  0  0  0  0  0  0  0  0
   22.6918   -7.1952  -13.2807 C   0  0  0  0  0  0  0  0  0  0  0  0
   20.6107   -7.0106  -14.6556 C   0  0  2  0  0  0  0  0  0  0  0  0
   19.9352   -7.5681  -15.8269 N   0  0  0  0  0  0  0  0  0  0  0  0
   20.7954   -5.5570  -14.8914 C   0  0  0  0  0  0  0  0  0  0  0  0
   20.8821   -4.6384  -13.8480 O   0  0  0  0  0  0  0  0  0  0  0  0
   20.8809   -5.0975  -16.0442 O   0  0  0  0  0  0  0  0  0  0  0  0
  2  1  1  0
  3  2  1  0
  4  3  1  0
  5  4  1  0
  5  7  1  0
  5  6  1  6
  7  8  2  0
  9 10  1  0
  9  7  1  0
 11 12  1  0
 10 11  1  1
 13 10  1  0
 13 14  2  0
 16 15  1  0
 17 16  1  0
 17 18  1  1
 19 20  1  6
 19 17  1  0
 20 13  1  0
 21 19  1  0
 22 21  1  0
 23 21  2  0
M  END
$$$$
