MCI.pdb
     RDKit          3D

 23 22  0  0  1  0  0  0  0  0999 V2000
   13.7909  -13.2901  -21.2247 C   0  0  0  0  0  0  0  0  0  0  0  0
   13.8401  -12.2711  -19.7180 S   0  0  0  0  0  0  0  0  0  0  0  0
   15.3755  -12.6204  -18.8140 C   0  0  0  0  0  0  0  0  0  0  0  0
   15.3829  -11.8950  -17.5065 C   0  0  0  0  0  0  0  0  0  0  0  0
   16.6347  -12.0933  -16.6904 C   0  0  2  0  0  0  0  0  0  0  0  0
   16.6027  -13.3850  -16.0287 N   0  0  0  0  0  0  0  0  0  0  0  0
   16.7775  -10.9825  -15.7421 C   0  0  0  0  0  0  0  0  0  0  0  0
   16.2638  -11.0353  -14.6126 O   0  0  0  0  0  0  0  0  0  0  0  0
   17.5081   -9.7832  -16.0528 N   0  0  0  0  0  0  0  0  0  0  0  0
   17.6095   -8.6790  -15.1196 C   0  0  1  0  0  0  0  0  0  0  0  0
   19.0448   -8.4003  -14.8176 C   0  0  0  0  0  0  0  0  0  0  0  0
   19.8039   -9.6594  -13.7732 S   0  0  0  0  0  0  0  0  0  0  0  0
   16.8600   -7.4913  -15.5865 C   0  0  0  0  0  0  0  0  0  0  0  0
   17.0023   -6.9870  -16.7220 O   0  0  0  0  0  0  0  0  0  0  0  0
   11.7121   -6.9322  -13.6333 C   0  0  0  0  0  0  0  0  0  0  0  0
   13.1614   -6.5415  -13.7104 C   0  0  0  0  0  0  0  0  0  0  0  0
   13.6353   -6.2404  -15.0885 C   0  0  2  0  0  0  0  0  0  0  0  0
   13.4448   -7.5050  -15.9174 C   0  0  0  0  0  0  0  0  0  0  0  0
   15.0730   -5.7733  -15.1391 C   0  0  2  0  0  0  0  0  0  0  0  0
   15.9259   -6.8811  -14.7092 N   0  0  0  0  0  0  0  0  0  0  0  0
   15.3149   -4.6348  -14.2182 C   0  0  0  0  0  0  0  0  0  0  0  0
   14.9257   -3.3332  -14.5250 O   0  0  0  0  0  0  0  0  0  0  0  0
   15.8817   -4.8014  -13.1234 O   0  0  0  0  0  0  0  0  0  0  0  0
  2  1  1  0
  3  2  1  0
  4  3  1  0
  5  4  1  0
  5  7  1  0
  5  6  1  1
  7  8  2  0
  9 10  1  0
  9  7  1  0
 11 12  1  0
 10 11  1  6
 13 10  1  0
 13 14  2  0
 16 15  1  0
 17 16  1  0
 17 18  1  6
 19 20  1  1
 19 17  1  0
 20 13  1  0
 21 19  1  0
 22 21  1  0
 23 21  2  0
M  END
$$$$
