MCI.pdb
     RDKit          3D

 23 22  0  0  1  0  0  0  0  0999 V2000
   25.0852  -20.9934  -20.8721 C   0  0  0  0  0  0  0  0  0  0  0  0
   24.6819  -22.5187  -19.9657 S   0  0  0  0  0  0  0  0  0  0  0  0
   26.0196  -22.8854  -18.7941 C   0  0  0  0  0  0  0  0  0  0  0  0
   27.2537  -22.1261  -19.1632 C   0  0  0  0  0  0  0  0  0  0  0  0
   28.4451  -22.4067  -18.2833 C   0  0  2  0  0  0  0  0  0  0  0  0
   28.7708  -23.8210  -18.3160 N   0  0  0  0  0  0  0  0  0  0  0  0
   28.1687  -21.9278  -16.9240 C   0  0  0  0  0  0  0  0  0  0  0  0
   28.0756  -22.7207  -15.9727 O   0  0  0  0  0  0  0  0  0  0  0  0
   27.9910  -20.5353  -16.6107 N   0  0  0  0  0  0  0  0  0  0  0  0
   27.7413  -20.0753  -15.2592 C   0  0  1  0  0  0  0  0  0  0  0  0
   27.9620  -18.6011  -15.1763 C   0  0  0  0  0  0  0  0  0  0  0  0
   27.6408  -17.9303  -13.5334 S   0  0  0  0  0  0  0  0  0  0  0  0
   26.4136  -20.5050  -14.7665 C   0  0  0  0  0  0  0  0  0  0  0  0
   25.4029  -20.5992  -15.4970 O   0  0  0  0  0  0  0  0  0  0  0  0
   24.0042  -21.3209   -9.0540 C   0  0  0  0  0  0  0  0  0  0  0  0
   23.8516  -21.3050  -10.5492 C   0  0  0  0  0  0  0  0  0  0  0  0
   25.1246  -21.0786  -11.2857 C   0  0  2  0  0  0  0  0  0  0  0  0
   25.7180  -19.7729  -10.7705 C   0  0  0  0  0  0  0  0  0  0  0  0
   24.9486  -21.0361  -12.7874 C   0  0  2  0  0  0  0  0  0  0  0  0
   26.2640  -20.8310  -13.3933 N   0  0  0  0  0  0  0  0  0  0  0  0
   24.0783  -19.9099  -13.2082 C   0  0  0  0  0  0  0  0  0  0  0  0
   24.5926  -18.6705  -13.5813 O   0  0  0  0  0  0  0  0  0  0  0  0
   22.8408  -20.0312  -13.2442 O   0  0  0  0  0  0  0  0  0  0  0  0
  2  1  1  0
  3  2  1  0
  4  3  1  0
  5  4  1  0
  5  7  1  0
  5  6  1  1
  7  8  2  0
  9 10  1  0
  9  7  1  0
 11 12  1  0
 10 11  1  6
 13 10  1  0
 13 14  2  0
 16 15  1  0
 17 16  1  0
 17 18  1  1
 19 20  1  6
 19 17  1  0
 20 13  1  0
 21 19  1  0
 22 21  1  0
 23 21  2  0
M  END
$$$$
