MCI.pdb
     RDKit          3D

 23 22  0  0  1  0  0  0  0  0999 V2000
   27.2779  -14.1967  -15.5724 C   0  0  0  0  0  0  0  0  0  0  0  0
   28.5877  -15.1881  -16.3550 S   0  0  0  0  0  0  0  0  0  0  0  0
   28.0966  -16.9360  -16.3447 C   0  0  0  0  0  0  0  0  0  0  0  0
   27.0780  -17.1814  -15.2779 C   0  0  0  0  0  0  0  0  0  0  0  0
   26.6637  -18.6233  -15.1311 C   0  0  2  0  0  0  0  0  0  0  0  0
   25.8401  -19.0257  -16.2567 N   0  0  0  0  0  0  0  0  0  0  0  0
   25.9801  -18.8039  -13.8451 C   0  0  0  0  0  0  0  0  0  0  0  0
   25.0111  -18.0937  -13.5302 O   0  0  0  0  0  0  0  0  0  0  0  0
   26.3800  -19.7962  -12.8839 N   0  0  0  0  0  0  0  0  0  0  0  0
   25.5862  -20.0946  -11.7085 C   0  0  1  0  0  0  0  0  0  0  0  0
   24.6005  -21.1711  -12.0222 C   0  0  0  0  0  0  0  0  0  0  0  0
   25.3692  -22.7854  -12.2583 S   0  0  0  0  0  0  0  0  0  0  0  0
   26.4330  -20.3902  -10.5313 C   0  0  0  0  0  0  0  0  0  0  0  0
   27.5061  -21.0291  -10.5951 O   0  0  0  0  0  0  0  0  0  0  0  0
   28.8321  -18.2506   -6.4021 C   0  0  0  0  0  0  0  0  0  0  0  0
   28.2427  -19.2154   -7.3926 C   0  0  0  0  0  0  0  0  0  0  0  0
   26.8916  -19.7157   -7.0205 C   0  0  2  0  0  0  0  0  0  0  0  0
   27.0155  -20.3745   -5.6519 C   0  0  0  0  0  0  0  0  0  0  0  0
   26.3095  -20.6779   -8.0319 C   0  0  2  0  0  0  0  0  0  0  0  0
   26.0175  -19.9301   -9.2545 N   0  0  0  0  0  0  0  0  0  0  0  0
   25.0375  -21.2757   -7.5548 C   0  0  0  0  0  0  0  0  0  0  0  0
   25.0056  -22.3391   -6.6558 O   0  0  0  0  0  0  0  0  0  0  0  0
   23.9376  -20.8447   -7.9443 O   0  0  0  0  0  0  0  0  0  0  0  0
  2  1  1  0
  3  2  1  0
  4  3  1  0
  5  4  1  0
  5  7  1  0
  5  6  1  6
  7  8  2  0
  9 10  1  0
  9  7  1  0
 11 12  1  0
 10 11  1  6
 13 10  1  0
 13 14  2  0
 16 15  1  0
 17 16  1  0
 17 18  1  1
 19 20  1  6
 19 17  1  0
 20 13  1  0
 21 19  1  0
 22 21  1  0
 23 21  2  0
M  END
$$$$
