MCI.pdb
     RDKit          3D

 23 22  0  0  1  0  0  0  0  0999 V2000
   22.9266  -17.0676  -14.7949 C   0  0  0  0  0  0  0  0  0  0  0  0
   22.8436  -18.2213  -16.1995 S   0  0  0  0  0  0  0  0  0  0  0  0
   21.5794  -17.6450  -17.3683 C   0  0  0  0  0  0  0  0  0  0  0  0
   21.5732  -16.1510  -17.4292 C   0  0  0  0  0  0  0  0  0  0  0  0
   20.5374  -15.5689  -18.3569 C   0  0  2  0  0  0  0  0  0  0  0  0
   20.6367  -16.1834  -19.6683 N   0  0  0  0  0  0  0  0  0  0  0  0
   20.6963  -14.1109  -18.4090 C   0  0  0  0  0  0  0  0  0  0  0  0
   21.6103  -13.5899  -19.0690 O   0  0  0  0  0  0  0  0  0  0  0  0
   19.8203  -13.2075  -17.7125 N   0  0  0  0  0  0  0  0  0  0  0  0
   20.0006  -11.7701  -17.7589 C   0  0  1  0  0  0  0  0  0  0  0  0
   18.6892  -11.1023  -18.0099 C   0  0  0  0  0  0  0  0  0  0  0  0
   18.7598   -9.3111  -17.8126 S   0  0  0  0  0  0  0  0  0  0  0  0
   20.7046  -11.2633  -16.5598 C   0  0  0  0  0  0  0  0  0  0  0  0
   20.4053  -11.5942  -15.3915 O   0  0  0  0  0  0  0  0  0  0  0  0
   26.3558  -10.5843  -14.9466 C   0  0  0  0  0  0  0  0  0  0  0  0
   24.9614  -10.0591  -14.7488 C   0  0  0  0  0  0  0  0  0  0  0  0
   24.0116  -10.4402  -15.8291 C   0  0  2  0  0  0  0  0  0  0  0  0
   24.5843   -9.9141  -17.1397 C   0  0  0  0  0  0  0  0  0  0  0  0
   22.6093   -9.9195  -15.6052 C   0  0  2  0  0  0  0  0  0  0  0  0
   21.7794  -10.3519  -16.7293 N   0  0  0  0  0  0  0  0  0  0  0  0
   22.5728   -8.4363  -15.5627 C   0  0  0  0  0  0  0  0  0  0  0  0
   22.7986   -7.7193  -14.3901 O   0  0  0  0  0  0  0  0  0  0  0  0
   22.3362   -7.7685  -16.5851 O   0  0  0  0  0  0  0  0  0  0  0  0
  2  1  1  0
  3  2  1  0
  4  3  1  0
  5  4  1  0
  5  7  1  0
  5  6  1  6
  7  8  2  0
  9 10  1  0
  9  7  1  0
 11 12  1  0
 10 11  1  1
 13 10  1  0
 13 14  2  0
 16 15  1  0
 17 16  1  0
 17 18  1  6
 19 20  1  6
 19 17  1  0
 20 13  1  0
 21 19  1  0
 22 21  1  0
 23 21  2  0
M  END
$$$$
