MCI.pdb
     RDKit          3D

 23 22  0  0  1  0  0  0  0  0999 V2000
   32.6399  -21.5012  -10.7865 C   0  0  0  0  0  0  0  0  0  0  0  0
   32.9886  -23.1684  -11.4266 S   0  0  0  0  0  0  0  0  0  0  0  0
   32.2403  -23.3420  -13.0718 C   0  0  0  0  0  0  0  0  0  0  0  0
   31.1261  -22.3590  -13.2401 C   0  0  0  0  0  0  0  0  0  0  0  0
   30.4726  -22.3838  -14.5983 C   0  0  2  0  0  0  0  0  0  0  0  0
   31.4318  -22.0141  -15.6233 N   0  0  0  0  0  0  0  0  0  0  0  0
   29.2979  -21.5042  -14.5883 C   0  0  0  0  0  0  0  0  0  0  0  0
   29.3954  -20.3029  -14.8881 O   0  0  0  0  0  0  0  0  0  0  0  0
   27.9822  -21.9671  -14.2376 N   0  0  0  0  0  0  0  0  0  0  0  0
   26.8668  -21.0583  -14.0618 C   0  0  1  0  0  0  0  0  0  0  0  0
   26.1561  -20.8704  -15.3612 C   0  0  0  0  0  0  0  0  0  0  0  0
   24.4987  -20.1865  -15.1669 S   0  0  0  0  0  0  0  0  0  0  0  0
   25.9793  -21.4816  -12.9558 C   0  0  0  0  0  0  0  0  0  0  0  0
   25.5484  -22.6481  -12.8235 O   0  0  0  0  0  0  0  0  0  0  0  0
   27.1360  -19.3266   -8.2532 C   0  0  0  0  0  0  0  0  0  0  0  0
   26.6437  -20.2138   -9.3621 C   0  0  0  0  0  0  0  0  0  0  0  0
   25.1914  -20.0706   -9.6530 C   0  0  2  0  0  0  0  0  0  0  0  0
   24.4362  -20.4882   -8.3970 C   0  0  0  0  0  0  0  0  0  0  0  0
   24.7375  -20.8775  -10.8491 C   0  0  2  0  0  0  0  0  0  0  0  0
   25.5874  -20.5228  -11.9854 N   0  0  0  0  0  0  0  0  0  0  0  0
   23.3346  -20.5681  -11.2219 C   0  0  0  0  0  0  0  0  0  0  0  0
   22.2590  -21.3290  -10.7703 O   0  0  0  0  0  0  0  0  0  0  0  0
   23.0622  -19.6055  -11.9612 O   0  0  0  0  0  0  0  0  0  0  0  0
  2  1  1  0
  3  2  1  0
  4  3  1  0
  5  4  1  0
  5  7  1  0
  5  6  1  6
  7  8  2  0
  9 10  1  0
  9  7  1  0
 11 12  1  0
 10 11  1  6
 13 10  1  0
 13 14  2  0
 16 15  1  0
 17 16  1  0
 17 18  1  1
 19 20  1  6
 19 17  1  0
 20 13  1  0
 21 19  1  0
 22 21  1  0
 23 21  2  0
M  END
$$$$
