QGG.pdb
     RDKit          3D

 18 17  0  0  1  0  0  0  0  0999 V2000
   22.6478  -13.1157  -17.5059 N   0  0  0  0  0  0  0  0  0  0  0  0
   22.7214  -12.3007  -18.6539 C   0  0  0  0  0  0  0  0  0  0  0  0
   23.6519  -12.5167  -19.4684 O   0  0  0  0  0  0  0  0  0  0  0  0
   21.7493  -11.2393  -18.8923 C   0  0  0  0  0  0  0  0  0  0  0  0
   20.6446  -11.1180  -17.9088 C   0  0  0  0  0  0  0  0  0  0  0  0
   19.7641   -9.9267  -18.0685 C   0  0  2  0  0  0  0  0  0  0  0  0
   20.5218   -8.8640  -18.6797 N   0  0  0  0  0  0  0  0  0  0  0  0
   19.1974   -9.4799  -16.7435 C   0  0  0  0  0  0  0  0  0  0  0  0
   18.4963  -10.2555  -16.0574 O   0  0  0  0  0  0  0  0  0  0  0  0
   19.4464   -8.1753  -16.2488 N   0  0  0  0  0  0  0  0  0  0  0  0
   19.0410   -7.7575  -14.9576 C   0  0  0  0  0  0  0  0  0  0  0  0
   19.6371   -6.5367  -14.4287 C   0  0  0  0  0  0  0  0  0  0  0  0
   19.1827   -6.1053  -13.3280 O   0  0  0  0  0  0  0  0  0  0  0  0
   20.6789   -5.7745  -15.0145 N   0  0  0  0  0  0  0  0  0  0  0  0
   21.1916   -4.5727  -14.3492 C   0  0  0  0  0  0  0  0  0  0  0  0
   22.2601   -4.9552  -13.4011 C   0  0  0  0  0  0  0  0  0  0  0  0
   22.4565   -6.1610  -13.1221 O   0  0  0  0  0  0  0  0  0  0  0  0
   23.0508   -3.9679  -12.8166 O   0  0  0  0  0  0  0  0  0  0  0  0
  2  1  1  0
  3  2  2  0
  4  2  1  0
  5  4  1  0
  6  5  1  0
  6  7  1  1
  8 10  1  0
  8  6  1  0
  9  8  2  0
 11 12  1  0
 11 10  1  0
 12 14  1  0
 13 12  2  0
 14 15  1  0
 15 16  1  0
 16 17  2  0
 16 18  1  0
M  END
$$$$
