QGG.pdb
     RDKit          3D

 18 17  0  0  1  0  0  0  0  0999 V2000
   29.5430  -21.8669  -12.5748 N   0  0  0  0  0  0  0  0  0  0  0  0
   28.7498  -21.2441  -11.5896 C   0  0  0  0  0  0  0  0  0  0  0  0
   29.1854  -21.2229  -10.4125 O   0  0  0  0  0  0  0  0  0  0  0  0
   27.4634  -20.6418  -11.9228 C   0  0  0  0  0  0  0  0  0  0  0  0
   27.0073  -20.7859  -13.3276 C   0  0  0  0  0  0  0  0  0  0  0  0
   27.2487  -19.6097  -14.2099 C   0  0  2  0  0  0  0  0  0  0  0  0
   27.5924  -18.4742  -13.3917 N   0  0  0  0  0  0  0  0  0  0  0  0
   26.0414  -19.3038  -15.0615 C   0  0  0  0  0  0  0  0  0  0  0  0
   25.6082  -20.1468  -15.8773 O   0  0  0  0  0  0  0  0  0  0  0  0
   25.3737  -18.0582  -14.9559 N   0  0  0  0  0  0  0  0  0  0  0  0
   24.2502  -17.7237  -15.7508 C   0  0  0  0  0  0  0  0  0  0  0  0
   22.9564  -18.2587  -15.3443 C   0  0  0  0  0  0  0  0  0  0  0  0
   21.9462  -17.8916  -16.0143 O   0  0  0  0  0  0  0  0  0  0  0  0
   22.7029  -19.1532  -14.2742 N   0  0  0  0  0  0  0  0  0  0  0  0
   21.3329  -19.5625  -13.9499 C   0  0  0  0  0  0  0  0  0  0  0  0
   20.9159  -20.6474  -14.8642 C   0  0  0  0  0  0  0  0  0  0  0  0
   20.8351  -20.4396  -16.0973 O   0  0  0  0  0  0  0  0  0  0  0  0
   20.6118  -21.9060  -14.3492 O   0  0  0  0  0  0  0  0  0  0  0  0
  2  1  1  0
  3  2  2  0
  4  2  1  0
  5  4  1  0
  6  5  1  0
  6  7  1  1
  8 10  1  0
  8  6  1  0
  9  8  2  0
 11 12  1  0
 11 10  1  0
 12 14  1  0
 13 12  2  0
 14 15  1  0
 15 16  1  0
 16 17  2  0
 16 18  1  0
M  END
$$$$
