QGG.pdb
     RDKit          3D

 18 17  0  0  1  0  0  0  0  0999 V2000
   25.0593  -20.3797   -8.2512 N   0  0  0  0  0  0  0  0  0  0  0  0
   26.1377  -20.6808   -9.1079 C   0  0  0  0  0  0  0  0  0  0  0  0
   27.1570  -19.9506   -9.0473 O   0  0  0  0  0  0  0  0  0  0  0  0
   26.0760  -21.8044  -10.0365 C   0  0  0  0  0  0  0  0  0  0  0  0
   26.5969  -21.5635  -11.4050 C   0  0  0  0  0  0  0  0  0  0  0  0
   25.8377  -20.5749  -12.2213 C   0  0  2  0  0  0  0  0  0  0  0  0
   24.4645  -21.0019  -12.3147 N   0  0  0  0  0  0  0  0  0  0  0  0
   26.4393  -20.4190  -13.5962 C   0  0  0  0  0  0  0  0  0  0  0  0
   25.9431  -21.0125  -14.5787 O   0  0  0  0  0  0  0  0  0  0  0  0
   27.5765  -19.5991  -13.8038 N   0  0  0  0  0  0  0  0  0  0  0  0
   28.0691  -19.2885  -15.0949 C   0  0  0  0  0  0  0  0  0  0  0  0
   27.3416  -18.2902  -15.8692 C   0  0  0  0  0  0  0  0  0  0  0  0
   27.8572  -17.1360  -15.9478 O   0  0  0  0  0  0  0  0  0  0  0  0
   26.1119  -18.4711  -16.5506 N   0  0  0  0  0  0  0  0  0  0  0  0
   25.5218  -17.3797  -17.3317 C   0  0  0  0  0  0  0  0  0  0  0  0
   24.2536  -17.8401  -17.9372 C   0  0  0  0  0  0  0  0  0  0  0  0
   23.2202  -17.9474  -17.2366 O   0  0  0  0  0  0  0  0  0  0  0  0
   24.2104  -18.1554  -19.2938 O   0  0  0  0  0  0  0  0  0  0  0  0
  2  1  1  0
  3  2  2  0
  4  2  1  0
  5  4  1  0
  6  5  1  0
  6  7  1  6
  8 10  1  0
  8  6  1  0
  9  8  2  0
 11 12  1  0
 11 10  1  0
 12 14  1  0
 13 12  2  0
 14 15  1  0
 15 16  1  0
 16 17  2  0
 16 18  1  0
M  END
$$$$
