QGG.pdb
     RDKit          3D

 18 17  0  0  1  0  0  0  0  0999 V2000
   16.9293  -15.2426  -14.3112 N   0  0  0  0  0  0  0  0  0  0  0  0
   17.5502  -15.3920  -15.5681 C   0  0  0  0  0  0  0  0  0  0  0  0
   17.8430  -16.5535  -15.9437 O   0  0  0  0  0  0  0  0  0  0  0  0
   17.8446  -14.2368  -16.4091 C   0  0  0  0  0  0  0  0  0  0  0  0
   17.4883  -12.9061  -15.8571 C   0  0  0  0  0  0  0  0  0  0  0  0
   17.7914  -11.7400  -16.7335 C   0  0  2  0  0  0  0  0  0  0  0  0
   19.0520  -11.9668  -17.3942 N   0  0  0  0  0  0  0  0  0  0  0  0
   17.8297  -10.4543  -15.9449 C   0  0  0  0  0  0  0  0  0  0  0  0
   16.9949  -10.2384  -15.0391 O   0  0  0  0  0  0  0  0  0  0  0  0
   18.8096   -9.4659  -16.2123 N   0  0  0  0  0  0  0  0  0  0  0  0
   18.8342   -8.2151  -15.5485 C   0  0  0  0  0  0  0  0  0  0  0  0
   20.0614   -7.8482  -14.8521 C   0  0  0  0  0  0  0  0  0  0  0  0
   20.8766   -8.7823  -14.5930 O   0  0  0  0  0  0  0  0  0  0  0  0
   20.4466   -6.5504  -14.4315 N   0  0  0  0  0  0  0  0  0  0  0  0
   21.8022   -6.2970  -13.9338 C   0  0  0  0  0  0  0  0  0  0  0  0
   21.9120   -4.8851  -13.5078 C   0  0  0  0  0  0  0  0  0  0  0  0
   20.9397   -4.1061  -13.6425 O   0  0  0  0  0  0  0  0  0  0  0  0
   23.1037   -4.4214  -12.9541 O   0  0  0  0  0  0  0  0  0  0  0  0
  2  1  1  0
  3  2  2  0
  4  2  1  0
  5  4  1  0
  6  5  1  0
  6  7  1  1
  8 10  1  0
  8  6  1  0
  9  8  2  0
 11 12  1  0
 11 10  1  0
 12 14  1  0
 13 12  2  0
 14 15  1  0
 15 16  1  0
 16 17  2  0
 16 18  1  0
M  END
$$$$
