QGG.pdb
     RDKit          3D

 18 17  0  0  1  0  0  0  0  0999 V2000
   28.1325  -18.3065  -14.6693 N   0  0  0  0  0  0  0  0  0  0  0  0
   27.5740  -19.4311  -15.3104 C   0  0  0  0  0  0  0  0  0  0  0  0
   27.7287  -19.5361  -16.5517 O   0  0  0  0  0  0  0  0  0  0  0  0
   26.8394  -20.4435  -14.5593 C   0  0  0  0  0  0  0  0  0  0  0  0
   26.7573  -20.2501  -13.0902 C   0  0  0  0  0  0  0  0  0  0  0  0
   26.0773  -21.3375  -12.3318 C   0  0  2  0  0  0  0  0  0  0  0  0
   25.7003  -22.3826  -13.2497 N   0  0  0  0  0  0  0  0  0  0  0  0
   24.8684  -20.8195  -11.5923 C   0  0  0  0  0  0  0  0  0  0  0  0
   24.9552  -19.8097  -10.8598 O   0  0  0  0  0  0  0  0  0  0  0  0
   23.6117  -21.4639  -11.7113 N   0  0  0  0  0  0  0  0  0  0  0  0
   22.3946  -20.7492  -11.8284 C   0  0  0  0  0  0  0  0  0  0  0  0
   21.6312  -20.9197  -13.0587 C   0  0  0  0  0  0  0  0  0  0  0  0
   22.2898  -20.9964  -14.1379 O   0  0  0  0  0  0  0  0  0  0  0  0
   20.2220  -21.0117  -13.1808 N   0  0  0  0  0  0  0  0  0  0  0  0
   19.5945  -21.1841  -14.4947 C   0  0  0  0  0  0  0  0  0  0  0  0
   18.1269  -21.2612  -14.3308 C   0  0  0  0  0  0  0  0  0  0  0  0
   17.5078  -20.3483  -13.7361 O   0  0  0  0  0  0  0  0  0  0  0  0
   17.4314  -22.3556  -14.8411 O   0  0  0  0  0  0  0  0  0  0  0  0
  2  1  1  0
  3  2  2  0
  4  2  1  0
  5  4  1  0
  6  5  1  0
  6  7  1  6
  8 10  1  0
  8  6  1  0
  9  8  2  0
 11 12  1  0
 11 10  1  0
 12 14  1  0
 13 12  2  0
 14 15  1  0
 15 16  1  0
 16 17  2  0
 16 18  1  0
M  END
$$$$
