QGG.pdb
     RDKit          3D

 18 17  0  0  1  0  0  0  0  0999 V2000
   19.1559  -24.0884  -11.9107 N   0  0  0  0  0  0  0  0  0  0  0  0
   18.0293  -23.3152  -12.2579 C   0  0  0  0  0  0  0  0  0  0  0  0
   16.9277  -23.6162  -11.7368 O   0  0  0  0  0  0  0  0  0  0  0  0
   18.1356  -22.1996  -13.1922 C   0  0  0  0  0  0  0  0  0  0  0  0
   19.4888  -21.9092  -13.7276 C   0  0  0  0  0  0  0  0  0  0  0  0
   20.3962  -21.1549  -12.8178 C   0  0  2  0  0  0  0  0  0  0  0  0
   19.9070  -19.8061  -12.6824 N   0  0  0  0  0  0  0  0  0  0  0  0
   21.8149  -21.1555  -13.3314 C   0  0  0  0  0  0  0  0  0  0  0  0
   22.4406  -22.2292  -13.4710 O   0  0  0  0  0  0  0  0  0  0  0  0
   22.4678  -19.9428  -13.6660 N   0  0  0  0  0  0  0  0  0  0  0  0
   23.7191  -19.9063  -14.3283 C   0  0  0  0  0  0  0  0  0  0  0  0
   24.2663  -18.5959  -14.6586 C   0  0  0  0  0  0  0  0  0  0  0  0
   23.4931  -17.7809  -15.2437 O   0  0  0  0  0  0  0  0  0  0  0  0
   25.5782  -18.1292  -14.3931 N   0  0  0  0  0  0  0  0  0  0  0  0
   25.9796  -16.7705  -14.7707 C   0  0  0  0  0  0  0  0  0  0  0  0
   26.3337  -16.7450  -16.2062 C   0  0  0  0  0  0  0  0  0  0  0  0
   26.7409  -15.6863  -16.7388 O   0  0  0  0  0  0  0  0  0  0  0  0
   26.2131  -17.9055  -16.9681 O   0  0  0  0  0  0  0  0  0  0  0  0
  2  1  1  0
  3  2  2  0
  4  2  1  0
  5  4  1  0
  6  5  1  0
  6  7  1  6
  8 10  1  0
  8  6  1  0
  9  8  2  0
 11 12  1  0
 11 10  1  0
 12 14  1  0
 13 12  2  0
 14 15  1  0
 15 16  1  0
 16 17  2  0
 16 18  1  0
M  END
$$$$
