QGG.pdb
     RDKit          3D

 18 17  0  0  1  0  0  0  0  0999 V2000
   16.2317  -14.1294  -19.0010 N   0  0  0  0  0  0  0  0  0  0  0  0
   17.2268  -15.0137  -18.5368 C   0  0  0  0  0  0  0  0  0  0  0  0
   17.0872  -16.2365  -18.7845 O   0  0  0  0  0  0  0  0  0  0  0  0
   18.3837  -14.5281  -17.7925 C   0  0  0  0  0  0  0  0  0  0  0  0
   18.4831  -13.0593  -17.6048 C   0  0  0  0  0  0  0  0  0  0  0  0
   18.9141  -12.6078  -16.2519 C   0  0  2  0  0  0  0  0  0  0  0  0
   18.0507  -13.2030  -15.2633 N   0  0  0  0  0  0  0  0  0  0  0  0
   18.8899  -11.1033  -16.1404 C   0  0  0  0  0  0  0  0  0  0  0  0
   17.8139  -10.4972  -15.9436 O   0  0  0  0  0  0  0  0  0  0  0  0
   20.0824  -10.3462  -16.2560 N   0  0  0  0  0  0  0  0  0  0  0  0
   20.0944   -8.9303  -16.2251 C   0  0  0  0  0  0  0  0  0  0  0  0
   20.6213   -8.2890  -15.0265 C   0  0  0  0  0  0  0  0  0  0  0  0
   20.5550   -8.9469  -13.9462 O   0  0  0  0  0  0  0  0  0  0  0  0
   21.2059   -7.0008  -14.9367 N   0  0  0  0  0  0  0  0  0  0  0  0
   21.8362   -6.5504  -13.6919 C   0  0  0  0  0  0  0  0  0  0  0  0
   22.4926   -5.2449  -13.9193 C   0  0  0  0  0  0  0  0  0  0  0  0
   22.4089   -4.6803  -15.0349 O   0  0  0  0  0  0  0  0  0  0  0  0
   23.2071   -4.6419  -12.8861 O   0  0  0  0  0  0  0  0  0  0  0  0
  2  1  1  0
  3  2  2  0
  4  2  1  0
  5  4  1  0
  6  5  1  0
  6  7  1  1
  8 10  1  0
  8  6  1  0
  9  8  2  0
 11 12  1  0
 11 10  1  0
 12 14  1  0
 13 12  2  0
 14 15  1  0
 15 16  1  0
 16 17  2  0
 16 18  1  0
M  END
$$$$
