QGG.pdb
     RDKit          3D

 18 17  0  0  1  0  0  0  0  0999 V2000
   18.6502  -16.1855  -16.7937 N   0  0  0  0  0  0  0  0  0  0  0  0
   17.5610  -15.5430  -17.4168 C   0  0  0  0  0  0  0  0  0  0  0  0
   16.6150  -16.2582  -17.8284 O   0  0  0  0  0  0  0  0  0  0  0  0
   17.5294  -14.0935  -17.5799 C   0  0  0  0  0  0  0  0  0  0  0  0
   18.7107  -13.3442  -17.0845 C   0  0  0  0  0  0  0  0  0  0  0  0
   18.5041  -12.5667  -15.8304 C   0  0  2  0  0  0  0  0  0  0  0  0
   17.2970  -11.7893  -15.9558 N   0  0  0  0  0  0  0  0  0  0  0  0
   19.6831  -11.6719  -15.5373 C   0  0  0  0  0  0  0  0  0  0  0  0
   20.8352  -12.1487  -15.4414 O   0  0  0  0  0  0  0  0  0  0  0  0
   19.5114  -10.2757  -15.3648 N   0  0  0  0  0  0  0  0  0  0  0  0
   20.6020   -9.3841  -15.2184 C   0  0  0  0  0  0  0  0  0  0  0  0
   20.2939   -7.9744  -15.0103 C   0  0  0  0  0  0  0  0  0  0  0  0
   19.1038   -7.6063  -15.2389 O   0  0  0  0  0  0  0  0  0  0  0  0
   21.1864   -6.9628  -14.5750 N   0  0  0  0  0  0  0  0  0  0  0  0
   20.7150   -5.5913  -14.3598 C   0  0  0  0  0  0  0  0  0  0  0  0
   21.8722   -4.7128  -14.0837 C   0  0  0  0  0  0  0  0  0  0  0  0
   23.0237   -5.1965  -13.9820 O   0  0  0  0  0  0  0  0  0  0  0  0
   21.6782   -3.3408  -13.9365 O   0  0  0  0  0  0  0  0  0  0  0  0
  2  1  1  0
  3  2  2  0
  4  2  1  0
  5  4  1  0
  6  5  1  0
  6  7  1  6
  8 10  1  0
  8  6  1  0
  9  8  2  0
 11 12  1  0
 11 10  1  0
 12 14  1  0
 13 12  2  0
 14 15  1  0
 15 16  1  0
 16 17  2  0
 16 18  1  0
M  END
$$$$
