QGG.pdb
     RDKit          3D

 18 17  0  0  1  0  0  0  0  0999 V2000
   19.3731  -17.8891  -12.7463 N   0  0  0  0  0  0  0  0  0  0  0  0
   18.9253  -18.1813  -14.0508 C   0  0  0  0  0  0  0  0  0  0  0  0
   17.8933  -18.8854  -14.1731 O   0  0  0  0  0  0  0  0  0  0  0  0
   19.6350  -17.6831  -15.2241 C   0  0  0  0  0  0  0  0  0  0  0  0
   20.8861  -16.9262  -14.9710 C   0  0  0  0  0  0  0  0  0  0  0  0
   21.6267  -16.4767  -16.1833 C   0  0  2  0  0  0  0  0  0  0  0  0
   21.2881  -17.3415  -17.2853 N   0  0  0  0  0  0  0  0  0  0  0  0
   23.1171  -16.4755  -15.9485 C   0  0  0  0  0  0  0  0  0  0  0  0
   23.6174  -15.7771  -15.0398 O   0  0  0  0  0  0  0  0  0  0  0  0
   23.9803  -17.2634  -16.7502 N   0  0  0  0  0  0  0  0  0  0  0  0
   25.3693  -17.3741  -16.4966 C   0  0  0  0  0  0  0  0  0  0  0  0
   25.8166  -18.5015  -15.6877 C   0  0  0  0  0  0  0  0  0  0  0  0
   27.0564  -18.5745  -15.4389 O   0  0  0  0  0  0  0  0  0  0  0  0
   25.0101  -19.5323  -15.1433 N   0  0  0  0  0  0  0  0  0  0  0  0
   25.6176  -20.6582  -14.4272 C   0  0  0  0  0  0  0  0  0  0  0  0
   24.5547  -21.5781  -13.9679 C   0  0  0  0  0  0  0  0  0  0  0  0
   23.3486  -21.2559  -14.0768 O   0  0  0  0  0  0  0  0  0  0  0  0
   24.8988  -22.8084  -13.4116 O   0  0  0  0  0  0  0  0  0  0  0  0
  2  1  1  0
  3  2  2  0
  4  2  1  0
  5  4  1  0
  6  5  1  0
  6  7  1  6
  8 10  1  0
  8  6  1  0
  9  8  2  0
 11 12  1  0
 11 10  1  0
 12 14  1  0
 13 12  2  0
 14 15  1  0
 15 16  1  0
 16 17  2  0
 16 18  1  0
M  END
$$$$
