QGG.pdb
     RDKit          3D

 18 17  0  0  1  0  0  0  0  0999 V2000
   26.9562  -20.9844   -9.2638 N   0  0  0  0  0  0  0  0  0  0  0  0
   27.4944  -21.0048  -10.5667 C   0  0  0  0  0  0  0  0  0  0  0  0
   28.7441  -21.0143  -10.6854 O   0  0  0  0  0  0  0  0  0  0  0  0
   26.6308  -21.0154  -11.7425 C   0  0  0  0  0  0  0  0  0  0  0  0
   25.1718  -21.1228  -11.4931 C   0  0  0  0  0  0  0  0  0  0  0  0
   24.3088  -21.1562  -12.7073 C   0  0  2  0  0  0  0  0  0  0  0  0
   24.5914  -22.3593  -13.4487 N   0  0  0  0  0  0  0  0  0  0  0  0
   24.5261  -19.9379  -13.5704 C   0  0  0  0  0  0  0  0  0  0  0  0
   24.1660  -18.8069  -13.1767 O   0  0  0  0  0  0  0  0  0  0  0  0
   25.1413  -20.0481  -14.8424 N   0  0  0  0  0  0  0  0  0  0  0  0
   25.3348  -18.9351  -15.6966 C   0  0  0  0  0  0  0  0  0  0  0  0
   24.1836  -18.4637  -16.4569 C   0  0  0  0  0  0  0  0  0  0  0  0
   24.3852  -17.5243  -17.2821 O   0  0  0  0  0  0  0  0  0  0  0  0
   22.8532  -18.9463  -16.3749 N   0  0  0  0  0  0  0  0  0  0  0  0
   21.7743  -18.2971  -17.1260 C   0  0  0  0  0  0  0  0  0  0  0  0
   20.5702  -18.2039  -16.2727 C   0  0  0  0  0  0  0  0  0  0  0  0
   20.5303  -18.7940  -15.1679 O   0  0  0  0  0  0  0  0  0  0  0  0
   19.4759  -17.4554  -16.7016 O   0  0  0  0  0  0  0  0  0  0  0  0
  2  1  1  0
  3  2  2  0
  4  2  1  0
  5  4  1  0
  6  5  1  0
  6  7  1  6
  8 10  1  0
  8  6  1  0
  9  8  2  0
 11 12  1  0
 11 10  1  0
 12 14  1  0
 13 12  2  0
 14 15  1  0
 15 16  1  0
 16 17  2  0
 16 18  1  0
M  END
$$$$
