QGG.pdb
     RDKit          3D

 18 17  0  0  1  0  0  0  0  0999 V2000
   31.1438  -11.0382  -17.4349 N   0  0  0  0  0  0  0  0  0  0  0  0
   30.3144  -12.0918  -17.8703 C   0  0  0  0  0  0  0  0  0  0  0  0
   30.8528  -13.0507  -18.4757 O   0  0  0  0  0  0  0  0  0  0  0  0
   28.8760  -12.0731  -17.6269 C   0  0  0  0  0  0  0  0  0  0  0  0
   28.3425  -10.8985  -16.8934 C   0  0  0  0  0  0  0  0  0  0  0  0
   26.8668  -10.8797  -16.6883 C   0  0  2  0  0  0  0  0  0  0  0  0
   26.2172  -11.1850  -17.9380 N   0  0  0  0  0  0  0  0  0  0  0  0
   26.4017   -9.5448  -16.1609 C   0  0  0  0  0  0  0  0  0  0  0  0
   26.7935   -9.1286  -15.0487 O   0  0  0  0  0  0  0  0  0  0  0  0
   25.5132   -8.7355  -16.9122 N   0  0  0  0  0  0  0  0  0  0  0  0
   24.9424   -7.5460  -16.3973 C   0  0  0  0  0  0  0  0  0  0  0  0
   23.4909   -7.4982  -16.2693 C   0  0  0  0  0  0  0  0  0  0  0  0
   22.9847   -6.4081  -15.8697 O   0  0  0  0  0  0  0  0  0  0  0  0
   22.5765   -8.5452  -16.5468 N   0  0  0  0  0  0  0  0  0  0  0  0
   21.1341   -8.2863  -16.5919 C   0  0  0  0  0  0  0  0  0  0  0  0
   20.5888   -8.3079  -15.2175 C   0  0  0  0  0  0  0  0  0  0  0  0
   19.3502   -8.2973  -15.0279 O   0  0  0  0  0  0  0  0  0  0  0  0
   21.4590   -8.3401  -14.1297 O   0  0  0  0  0  0  0  0  0  0  0  0
  2  1  1  0
  3  2  2  0
  4  2  1  0
  5  4  1  0
  6  5  1  0
  6  7  1  6
  8 10  1  0
  8  6  1  0
  9  8  2  0
 11 12  1  0
 11 10  1  0
 12 14  1  0
 13 12  2  0
 14 15  1  0
 15 16  1  0
 16 17  2  0
 16 18  1  0
M  END
$$$$
