QGG.pdb
     RDKit          3D

 18 17  0  0  1  0  0  0  0  0999 V2000
   17.3856  -13.0304  -19.9772 N   0  0  0  0  0  0  0  0  0  0  0  0
   18.3310  -13.7113  -19.1833 C   0  0  0  0  0  0  0  0  0  0  0  0
   18.8077  -14.7837  -19.6287 O   0  0  0  0  0  0  0  0  0  0  0  0
   18.7454  -13.1899  -17.8853 C   0  0  0  0  0  0  0  0  0  0  0  0
   18.0304  -11.9854  -17.3951 C   0  0  0  0  0  0  0  0  0  0  0  0
   18.7519  -10.6924  -17.5617 C   0  0  2  0  0  0  0  0  0  0  0  0
   20.1454  -10.9633  -17.8100 N   0  0  0  0  0  0  0  0  0  0  0  0
   18.5909   -9.8122  -16.3469 C   0  0  0  0  0  0  0  0  0  0  0  0
   17.4543   -9.5577  -15.8918 O   0  0  0  0  0  0  0  0  0  0  0  0
   19.7209   -9.2561  -15.6969 N   0  0  0  0  0  0  0  0  0  0  0  0
   19.6107   -8.3072  -14.6512 C   0  0  0  0  0  0  0  0  0  0  0  0
   20.7721   -7.4687  -14.3799 C   0  0  0  0  0  0  0  0  0  0  0  0
   21.8301   -7.7251  -15.0273 O   0  0  0  0  0  0  0  0  0  0  0  0
   20.8475   -6.3884  -13.4653 N   0  0  0  0  0  0  0  0  0  0  0  0
   22.1069   -5.6650  -13.2642 C   0  0  0  0  0  0  0  0  0  0  0  0
   22.1903   -4.5481  -14.2298 C   0  0  0  0  0  0  0  0  0  0  0  0
   23.2000   -3.8063  -14.2535 O   0  0  0  0  0  0  0  0  0  0  0  0
   21.1395   -4.3217  -15.1165 O   0  0  0  0  0  0  0  0  0  0  0  0
  2  1  1  0
  3  2  2  0
  4  2  1  0
  5  4  1  0
  6  5  1  0
  6  7  1  1
  8 10  1  0
  8  6  1  0
  9  8  2  0
 11 12  1  0
 11 10  1  0
 12 14  1  0
 13 12  2  0
 14 15  1  0
 15 16  1  0
 16 17  2  0
 16 18  1  0
M  END
$$$$
