QGG.pdb
     RDKit          3D

 18 17  0  0  1  0  0  0  0  0999 V2000
   31.2644  -23.1075  -12.6096 N   0  0  0  0  0  0  0  0  0  0  0  0
   31.4621  -22.1870  -11.5602 C   0  0  0  0  0  0  0  0  0  0  0  0
   32.5339  -22.2587  -10.9107 O   0  0  0  0  0  0  0  0  0  0  0  0
   30.4563  -21.1810  -11.2361 C   0  0  0  0  0  0  0  0  0  0  0  0
   29.2819  -21.1018  -12.1399 C   0  0  0  0  0  0  0  0  0  0  0  0
   28.2288  -20.1234  -11.7477 C   0  0  2  0  0  0  0  0  0  0  0  0
   27.2748  -20.7816  -10.8911 N   0  0  0  0  0  0  0  0  0  0  0  0
   27.5414  -19.5405  -12.9577 C   0  0  0  0  0  0  0  0  0  0  0  0
   28.2074  -19.0121  -13.8747 O   0  0  0  0  0  0  0  0  0  0  0  0
   26.1301  -19.5788  -13.0813 N   0  0  0  0  0  0  0  0  0  0  0  0
   25.4521  -19.1296  -14.2408 C   0  0  0  0  0  0  0  0  0  0  0  0
   24.2777  -19.8815  -14.6659 C   0  0  0  0  0  0  0  0  0  0  0  0
   23.9554  -20.8877  -13.9674 O   0  0  0  0  0  0  0  0  0  0  0  0
   23.4491  -19.6072  -15.7829 N   0  0  0  0  0  0  0  0  0  0  0  0
   22.2745  -20.4380  -16.0650 C   0  0  0  0  0  0  0  0  0  0  0  0
   21.0666  -19.7795  -15.5224 C   0  0  0  0  0  0  0  0  0  0  0  0
   21.1517  -18.6585  -14.9690 O   0  0  0  0  0  0  0  0  0  0  0  0
   19.8290  -20.4111  -15.6285 O   0  0  0  0  0  0  0  0  0  0  0  0
  2  1  1  0
  3  2  2  0
  4  2  1  0
  5  4  1  0
  6  5  1  0
  6  7  1  1
  8 10  1  0
  8  6  1  0
  9  8  2  0
 11 12  1  0
 11 10  1  0
 12 14  1  0
 13 12  2  0
 14 15  1  0
 15 16  1  0
 16 17  2  0
 16 18  1  0
M  END
$$$$
