QGG.pdb
     RDKit          3D

 18 17  0  0  1  0  0  0  0  0999 V2000
   20.8733  -22.3464  -14.4972 N   0  0  0  0  0  0  0  0  0  0  0  0
   20.3664  -21.0418  -14.3280 C   0  0  0  0  0  0  0  0  0  0  0  0
   19.1527  -20.8463  -14.5818 O   0  0  0  0  0  0  0  0  0  0  0  0
   21.2211  -19.9507  -13.8722 C   0  0  0  0  0  0  0  0  0  0  0  0
   22.6287  -20.2984  -13.5558 C   0  0  0  0  0  0  0  0  0  0  0  0
   22.8319  -21.1210  -12.3302 C   0  0  2  0  0  0  0  0  0  0  0  0
   22.3836  -20.3710  -11.1841 N   0  0  0  0  0  0  0  0  0  0  0  0
   24.2778  -21.5210  -12.1697 C   0  0  0  0  0  0  0  0  0  0  0  0
   24.8208  -22.2886  -12.9942 O   0  0  0  0  0  0  0  0  0  0  0  0
   25.0501  -21.0372  -11.0843 N   0  0  0  0  0  0  0  0  0  0  0  0
   26.4321  -21.3149  -10.9461 C   0  0  0  0  0  0  0  0  0  0  0  0
   27.3286  -20.7872  -11.9675 C   0  0  0  0  0  0  0  0  0  0  0  0
   28.5656  -21.0164  -11.8207 O   0  0  0  0  0  0  0  0  0  0  0  0
   26.9652  -20.0416  -13.1170 N   0  0  0  0  0  0  0  0  0  0  0  0
   27.9747  -19.6530  -14.1067 C   0  0  0  0  0  0  0  0  0  0  0  0
   27.7828  -20.4460  -15.3401 C   0  0  0  0  0  0  0  0  0  0  0  0
   26.7992  -20.2288  -16.0854 O   0  0  0  0  0  0  0  0  0  0  0  0
   28.7019  -21.4392  -15.6726 O   0  0  0  0  0  0  0  0  0  0  0  0
  2  1  1  0
  3  2  2  0
  4  2  1  0
  5  4  1  0
  6  5  1  0
  6  7  1  1
  8 10  1  0
  8  6  1  0
  9  8  2  0
 11 12  1  0
 11 10  1  0
 12 14  1  0
 13 12  2  0
 14 15  1  0
 15 16  1  0
 16 17  2  0
 16 18  1  0
M  END
$$$$
