LTW.pdb
     RDKit          3D

 30 31  0  0  1  0  0  0  0  0999 V2000
    6.7436  -13.0256   17.7437 C   0  0  0  0  0  0  0  0  0  0  0  0
    8.0065  -13.4409   18.4388 C   0  0  1  0  0  0  0  0  0  0  0  0
    8.8412  -12.2416   18.7539 C   0  0  0  0  0  0  0  0  0  0  0  0
    7.7853  -14.3485   19.5991 C   0  0  0  0  0  0  0  0  0  0  0  0
    9.0603  -14.6937   20.3348 C   0  0  2  0  0  0  0  0  0  0  0  0
   10.0083  -15.1889   19.3556 N   0  0  0  0  0  0  0  0  0  0  0  0
    8.8174  -15.6987   21.4020 C   0  0  0  0  0  0  0  0  0  0  0  0
    7.7773  -15.5961   22.1390 O   0  0  0  0  0  0  0  0  0  0  0  0
    9.6784  -19.4818   20.9732 C   0  0  0  0  0  0  0  0  0  0  0  0
   10.1643  -19.0429   22.3347 C   0  0  1  0  0  0  0  0  0  0  0  0
   11.5139  -18.6858   22.1608 O   0  0  0  0  0  0  0  0  0  0  0  0
    9.4362  -17.7667   22.7364 C   0  0  2  0  0  0  0  0  0  0  0  0
    9.6682  -16.7767   21.6640 N   0  0  0  0  0  0  0  0  0  0  0  0
    9.8412  -17.2089   24.0249 C   0  0  0  0  0  0  0  0  0  0  0  0
   10.6760  -16.2248   24.0097 O   0  0  0  0  0  0  0  0  0  0  0  0
    9.4370  -17.6003   25.3139 N   0  0  0  0  0  0  0  0  0  0  0  0
   10.0470  -17.1044   26.5541 C   0  0  1  0  0  0  0  0  0  0  0  0
    9.8602  -15.6400   26.6916 C   0  0  0  0  0  0  0  0  0  0  0  0
    8.4826  -15.1616   26.6359 C   0  0  0  0  0  0  0  0  0  0  0  0
    7.3732  -15.9380   26.3724 C   0  0  0  0  0  0  0  0  0  0  0  0
    6.2784  -15.1490   26.3670 N   0  0  0  0  0  0  0  0  0  0  0  0
    6.6298  -13.8643   26.6214 C   0  0  0  0  0  0  0  0  0  0  0  0
    5.8695  -12.7271   26.7312 C   0  0  0  0  0  0  0  0  0  0  0  0
    6.4916  -11.5200   27.0257 C   0  0  0  0  0  0  0  0  0  0  0  0
    7.8589  -11.5143   27.1971 C   0  0  0  0  0  0  0  0  0  0  0  0
    8.6174  -12.6496   27.0867 C   0  0  0  0  0  0  0  0  0  0  0  0
    8.0181  -13.8785   26.7901 C   0  0  0  0  0  0  0  0  0  0  0  0
    9.6940  -17.8608   27.7315 C   0  0  0  0  0  0  0  0  0  0  0  0
   10.2484  -17.5761   28.9915 O   0  0  0  0  0  0  0  0  0  0  0  0
    8.8822  -18.8076   27.7102 O   0  0  0  0  0  0  0  0  0  0  0  0
  2  1  1  1
  3  2  1  0
  4  2  1  0
  5  4  1  0
  5  6  1  6
  7  8  2  0
  7  5  1  0
 10  9  1  6
 10 12  1  0
 11 10  1  0
 12 13  1  6
 13  7  1  0
 14 12  1  0
 14 16  1  0
 15 14  2  0
 17 16  1  0
 17 28  1  0
 18 19  1  0
 17 18  1  1
 19 27  1  0
 20 19  2  0
 20 21  1  0
 21 22  1  0
 22 23  1  0
 23 24  2  0
 25 24  1  0
 26 25  2  0
 27 22  2  0
 27 26  1  0
 28 29  1  0
 30 28  2  0
M  END
$$$$
