LTW.pdb
     RDKit          3D

 30 31  0  0  1  0  0  0  0  0999 V2000
    7.1803  -12.0346   18.8681 C   0  0  0  0  0  0  0  0  0  0  0  0
    8.2934  -13.0348   18.7626 C   0  0  1  0  0  0  0  0  0  0  0  0
    9.5613  -12.4557   19.3024 C   0  0  0  0  0  0  0  0  0  0  0  0
    7.9539  -14.3752   19.3169 C   0  0  0  0  0  0  0  0  0  0  0  0
    9.1077  -15.3508   19.2612 C   0  0  2  0  0  0  0  0  0  0  0  0
    9.1668  -15.8794   17.9122 N   0  0  0  0  0  0  0  0  0  0  0  0
    8.9466  -16.4411   20.2577 C   0  0  0  0  0  0  0  0  0  0  0  0
    8.3125  -17.5030   19.9326 O   0  0  0  0  0  0  0  0  0  0  0  0
    9.1592  -18.9630   20.5941 C   0  0  0  0  0  0  0  0  0  0  0  0
    9.8250  -18.7430   21.9322 C   0  0  1  0  0  0  0  0  0  0  0  0
   11.1800  -18.4936   21.6472 O   0  0  0  0  0  0  0  0  0  0  0  0
    9.2804  -17.4644   22.5559 C   0  0  2  0  0  0  0  0  0  0  0  0
    9.4525  -16.3862   21.5599 N   0  0  0  0  0  0  0  0  0  0  0  0
    9.9093  -17.0811   23.8179 C   0  0  0  0  0  0  0  0  0  0  0  0
   11.0656  -16.5113   23.7560 O   0  0  0  0  0  0  0  0  0  0  0  0
    9.4189  -17.2463   25.1257 N   0  0  0  0  0  0  0  0  0  0  0  0
   10.1215  -16.7913   26.3322 C   0  0  1  0  0  0  0  0  0  0  0  0
    9.8170  -15.3694   26.6221 C   0  0  0  0  0  0  0  0  0  0  0  0
    8.4451  -14.9427   26.3662 C   0  0  0  0  0  0  0  0  0  0  0  0
    7.3819  -15.7785   26.0942 C   0  0  0  0  0  0  0  0  0  0  0  0
    6.2810  -15.0291   25.8765 N   0  0  0  0  0  0  0  0  0  0  0  0
    6.5831  -13.7127   25.9974 C   0  0  0  0  0  0  0  0  0  0  0  0
    5.7971  -12.5937   25.8822 C   0  0  0  0  0  0  0  0  0  0  0  0
    6.3655  -11.3413   26.0800 C   0  0  0  0  0  0  0  0  0  0  0  0
    7.7073  -11.2737   26.3865 C   0  0  0  0  0  0  0  0  0  0  0  0
    8.4915  -12.3910   26.5006 C   0  0  0  0  0  0  0  0  0  0  0  0
    7.9464  -13.6647   26.3060 C   0  0  0  0  0  0  0  0  0  0  0  0
    9.9808  -17.6716   27.4671 C   0  0  0  0  0  0  0  0  0  0  0  0
   10.7247  -17.4893   28.6458 O   0  0  0  0  0  0  0  0  0  0  0  0
    9.1982  -18.6428   27.4781 O   0  0  0  0  0  0  0  0  0  0  0  0
  2  1  1  1
  3  2  1  0
  4  2  1  0
  5  4  1  0
  5  6  1  6
  7  8  2  0
  7  5  1  0
 10  9  1  6
 10 12  1  0
 11 10  1  0
 12 13  1  6
 13  7  1  0
 14 12  1  0
 14 16  1  0
 15 14  2  0
 17 16  1  0
 17 28  1  0
 18 19  1  0
 17 18  1  1
 19 27  1  0
 20 19  2  0
 20 21  1  0
 21 22  1  0
 22 23  1  0
 23 24  2  0
 25 24  1  0
 26 25  2  0
 27 22  2  0
 27 26  1  0
 28 29  1  0
 30 28  2  0
M  END
$$$$
