LTW.pdb
     RDKit          3D

 30 31  0  0  1  0  0  0  0  0999 V2000
    9.4589  -12.8423   20.2078 C   0  0  0  0  0  0  0  0  0  0  0  0
    8.1416  -13.4785   19.8754 C   0  0  1  0  0  0  0  0  0  0  0  0
    7.0673  -12.4409   19.8151 C   0  0  0  0  0  0  0  0  0  0  0  0
    8.1880  -14.3742   18.6860 C   0  0  0  0  0  0  0  0  0  0  0  0
    9.1393  -15.5372   18.8548 C   0  0  2  0  0  0  0  0  0  0  0  0
    9.0472  -16.3529   17.6595 N   0  0  0  0  0  0  0  0  0  0  0  0
    8.8193  -16.3294   20.0705 C   0  0  0  0  0  0  0  0  0  0  0  0
    7.6278  -16.7591   20.2468 O   0  0  0  0  0  0  0  0  0  0  0  0
    9.7674  -19.4021   20.6254 C   0  0  0  0  0  0  0  0  0  0  0  0
   10.1977  -18.8426   21.9612 C   0  0  1  0  0  0  0  0  0  0  0  0
   11.5575  -18.5126   21.8159 O   0  0  0  0  0  0  0  0  0  0  0  0
    9.4668  -17.5297   22.2107 C   0  0  2  0  0  0  0  0  0  0  0  0
    9.7535  -16.6462   21.0612 N   0  0  0  0  0  0  0  0  0  0  0  0
    9.8235  -16.8561   23.4573 C   0  0  0  0  0  0  0  0  0  0  0  0
   10.6223  -15.8454   23.3785 O   0  0  0  0  0  0  0  0  0  0  0  0
    9.4063  -17.1585   24.7660 N   0  0  0  0  0  0  0  0  0  0  0  0
    9.9723  -16.5438   25.9734 C   0  0  1  0  0  0  0  0  0  0  0  0
    8.9193  -16.2899   26.9860 C   0  0  0  0  0  0  0  0  0  0  0  0
    7.7959  -15.4668   26.5499 C   0  0  0  0  0  0  0  0  0  0  0  0
    6.6179  -15.9380   26.0084 C   0  0  0  0  0  0  0  0  0  0  0  0
    5.8312  -14.8882   25.6922 N   0  0  0  0  0  0  0  0  0  0  0  0
    6.4550  -13.7271   26.0103 C   0  0  0  0  0  0  0  0  0  0  0  0
    6.0465  -12.4225   25.8898 C   0  0  0  0  0  0  0  0  0  0  0  0
    6.8883  -11.4047   26.3213 C   0  0  0  0  0  0  0  0  0  0  0  0
    8.1098  -11.7502   26.8575 C   0  0  0  0  0  0  0  0  0  0  0  0
    8.5173  -13.0525   26.9769 C   0  0  0  0  0  0  0  0  0  0  0  0
    7.6909  -14.0976   26.5500 C   0  0  0  0  0  0  0  0  0  0  0  0
   11.1409  -17.2162   26.4884 C   0  0  0  0  0  0  0  0  0  0  0  0
   11.6124  -18.4179   25.9319 O   0  0  0  0  0  0  0  0  0  0  0  0
   11.8036  -16.7810   27.4513 O   0  0  0  0  0  0  0  0  0  0  0  0
  2  1  1  6
  3  2  1  0
  4  2  1  0
  5  4  1  0
  5  6  1  6
  7  8  2  0
  7  5  1  0
 10  9  1  6
 10 12  1  0
 11 10  1  0
 12 13  1  6
 13  7  1  0
 14 12  1  0
 14 16  1  0
 15 14  2  0
 17 16  1  0
 17 28  1  0
 18 19  1  0
 17 18  1  1
 19 27  1  0
 20 19  2  0
 20 21  1  0
 21 22  1  0
 22 23  1  0
 23 24  2  0
 25 24  1  0
 26 25  2  0
 27 22  2  0
 27 26  1  0
 28 29  1  0
 30 28  2  0
M  END
$$$$
