LTW.pdb
     RDKit          3D

 30 31  0  0  1  0  0  0  0  0999 V2000
    9.6689  -12.8114   20.1732 C   0  0  0  0  0  0  0  0  0  0  0  0
    8.3608  -13.4423   19.7971 C   0  0  1  0  0  0  0  0  0  0  0  0
    7.3043  -12.3946   19.6540 C   0  0  0  0  0  0  0  0  0  0  0  0
    8.4522  -14.3746   18.6388 C   0  0  0  0  0  0  0  0  0  0  0  0
    9.3610  -15.5551   18.8967 C   0  0  2  0  0  0  0  0  0  0  0  0
    9.3300  -16.3955   17.7154 N   0  0  0  0  0  0  0  0  0  0  0  0
    8.9400  -16.3118   20.1042 C   0  0  0  0  0  0  0  0  0  0  0  0
    7.8254  -16.9388   20.0979 O   0  0  0  0  0  0  0  0  0  0  0  0
    9.3002  -19.1504   20.7918 C   0  0  0  0  0  0  0  0  0  0  0  0
    9.9351  -18.6569   22.0707 C   0  0  1  0  0  0  0  0  0  0  0  0
   11.2952  -18.4601   21.7696 O   0  0  0  0  0  0  0  0  0  0  0  0
    9.3723  -17.2825   22.4088 C   0  0  2  0  0  0  0  0  0  0  0  0
    9.6964  -16.3886   21.2775 N   0  0  0  0  0  0  0  0  0  0  0  0
    9.8686  -16.7062   23.6565 C   0  0  0  0  0  0  0  0  0  0  0  0
   10.8332  -15.8528   23.5740 O   0  0  0  0  0  0  0  0  0  0  0  0
    9.4304  -16.9534   24.9699 N   0  0  0  0  0  0  0  0  0  0  0  0
   10.0703  -16.3988   26.1696 C   0  0  1  0  0  0  0  0  0  0  0  0
    9.0608  -16.0384   27.1940 C   0  0  0  0  0  0  0  0  0  0  0  0
    7.8742  -15.3421   26.7072 C   0  0  0  0  0  0  0  0  0  0  0  0
    6.7374  -15.9448   26.2095 C   0  0  0  0  0  0  0  0  0  0  0  0
    5.8681  -14.9874   25.8236 N   0  0  0  0  0  0  0  0  0  0  0  0
    6.3966  -13.7598   26.0524 C   0  0  0  0  0  0  0  0  0  0  0  0
    5.8840  -12.5045   25.8405 C   0  0  0  0  0  0  0  0  0  0  0  0
    6.6414  -11.3936   26.1912 C   0  0  0  0  0  0  0  0  0  0  0  0
    7.8874  -11.5998   26.7425 C   0  0  0  0  0  0  0  0  0  0  0  0
    8.3988  -12.8530   26.9531 C   0  0  0  0  0  0  0  0  0  0  0  0
    7.6590  -13.9894   26.6088 C   0  0  0  0  0  0  0  0  0  0  0  0
   11.1704  -17.1865   26.6719 C   0  0  0  0  0  0  0  0  0  0  0  0
   12.0156  -16.7169   27.6923 O   0  0  0  0  0  0  0  0  0  0  0  0
   11.4420  -18.3244   26.2391 O   0  0  0  0  0  0  0  0  0  0  0  0
  2  1  1  6
  3  2  1  0
  4  2  1  0
  5  4  1  0
  5  6  1  6
  7  8  2  0
  7  5  1  0
 10  9  1  6
 10 12  1  0
 11 10  1  0
 12 13  1  6
 13  7  1  0
 14 12  1  0
 14 16  1  0
 15 14  2  0
 17 16  1  0
 17 28  1  0
 18 19  1  0
 17 18  1  1
 19 27  1  0
 20 19  2  0
 20 21  1  0
 21 22  1  0
 22 23  1  0
 23 24  2  0
 25 24  1  0
 26 25  2  0
 27 22  2  0
 27 26  1  0
 28 29  1  0
 30 28  2  0
M  END
$$$$
