LTW.pdb
     RDKit          3D

 30 31  0  0  1  0  0  0  0  0999 V2000
    7.3167  -11.8837   19.3966 C   0  0  0  0  0  0  0  0  0  0  0  0
    8.1933  -13.0815   19.1788 C   0  0  1  0  0  0  0  0  0  0  0  0
    9.6287  -12.6680   19.1232 C   0  0  0  0  0  0  0  0  0  0  0  0
    7.9213  -14.2061   20.1171 C   0  0  0  0  0  0  0  0  0  0  0  0
    8.7838  -15.4200   19.8553 C   0  0  2  0  0  0  0  0  0  0  0  0
    8.3265  -16.0210   18.6173 N   0  0  0  0  0  0  0  0  0  0  0  0
    8.7143  -16.3892   20.9795 C   0  0  0  0  0  0  0  0  0  0  0  0
    7.6240  -17.0198   21.2010 O   0  0  0  0  0  0  0  0  0  0  0  0
   10.2478  -19.4339   21.4259 C   0  0  0  0  0  0  0  0  0  0  0  0
   10.6622  -18.7425   22.7036 C   0  0  1  0  0  0  0  0  0  0  0  0
   11.9098  -18.1525   22.4304 O   0  0  0  0  0  0  0  0  0  0  0  0
    9.7018  -17.5937   22.9830 C   0  0  2  0  0  0  0  0  0  0  0  0
    9.7848  -16.6673   21.8346 N   0  0  0  0  0  0  0  0  0  0  0  0
    9.9568  -16.8693   24.2262 C   0  0  0  0  0  0  0  0  0  0  0  0
   10.7639  -15.8637   24.1725 O   0  0  0  0  0  0  0  0  0  0  0  0
    9.4308  -17.1167   25.5069 N   0  0  0  0  0  0  0  0  0  0  0  0
   10.0639  -16.6759   26.7563 C   0  0  1  0  0  0  0  0  0  0  0  0
    9.1672  -15.7745   27.5191 C   0  0  0  0  0  0  0  0  0  0  0  0
    7.9871  -15.2928   26.8085 C   0  0  0  0  0  0  0  0  0  0  0  0
    6.9982  -16.0860   26.2645 C   0  0  0  0  0  0  0  0  0  0  0  0
    6.0891  -15.2959   25.6559 N   0  0  0  0  0  0  0  0  0  0  0  0
    6.4466  -13.9939   25.7811 C   0  0  0  0  0  0  0  0  0  0  0  0
    5.8337  -12.8455   25.3464 C   0  0  0  0  0  0  0  0  0  0  0  0
    6.4132  -11.6158   25.6340 C   0  0  0  0  0  0  0  0  0  0  0  0
    7.5902  -11.5997   26.3504 C   0  0  0  0  0  0  0  0  0  0  0  0
    8.2019  -12.7463   26.7834 C   0  0  0  0  0  0  0  0  0  0  0  0
    7.6416  -13.9982   26.5076 C   0  0  0  0  0  0  0  0  0  0  0  0
   10.6368  -17.7444   27.5392 C   0  0  0  0  0  0  0  0  0  0  0  0
   11.4711  -17.4927   28.6422 O   0  0  0  0  0  0  0  0  0  0  0  0
   10.4325  -18.9499   27.2922 O   0  0  0  0  0  0  0  0  0  0  0  0
  2  1  1  1
  3  2  1  0
  4  2  1  0
  5  4  1  0
  5  6  1  6
  7  8  2  0
  7  5  1  0
 10  9  1  6
 10 12  1  0
 11 10  1  0
 12 13  1  6
 13  7  1  0
 14 12  1  0
 14 16  1  0
 15 14  2  0
 17 16  1  0
 17 28  1  0
 18 19  1  0
 17 18  1  1
 19 27  1  0
 20 19  2  0
 20 21  1  0
 21 22  1  0
 22 23  1  0
 23 24  2  0
 25 24  1  0
 26 25  2  0
 27 22  2  0
 27 26  1  0
 28 29  1  0
 30 28  2  0
M  END
$$$$
