LTW.pdb
     RDKit          3D

 30 31  0  0  1  0  0  0  0  0999 V2000
    7.3755  -11.8341   18.9722 C   0  0  0  0  0  0  0  0  0  0  0  0
    8.3065  -12.9946   18.7800 C   0  0  1  0  0  0  0  0  0  0  0  0
    9.7258  -12.5468   18.9188 C   0  0  0  0  0  0  0  0  0  0  0  0
    7.9624  -14.1864   19.6048 C   0  0  0  0  0  0  0  0  0  0  0  0
    8.9245  -15.3374   19.4160 C   0  0  2  0  0  0  0  0  0  0  0  0
    8.6117  -15.9632   18.1458 N   0  0  0  0  0  0  0  0  0  0  0  0
    8.8303  -16.3135   20.5323 C   0  0  0  0  0  0  0  0  0  0  0  0
    7.7143  -16.8901   20.7725 O   0  0  0  0  0  0  0  0  0  0  0  0
   10.1887  -19.4065   20.8403 C   0  0  0  0  0  0  0  0  0  0  0  0
   10.6717  -18.8075   22.1403 C   0  0  1  0  0  0  0  0  0  0  0  0
   11.9560  -18.2996   21.8720 O   0  0  0  0  0  0  0  0  0  0  0  0
    9.8040  -17.6047   22.4880 C   0  0  2  0  0  0  0  0  0  0  0  0
    9.9039  -16.6549   21.3602 N   0  0  0  0  0  0  0  0  0  0  0  0
   10.1576  -16.9335   23.7368 C   0  0  0  0  0  0  0  0  0  0  0  0
   11.0960  -16.0487   23.6902 O   0  0  0  0  0  0  0  0  0  0  0  0
    9.6035  -17.1171   25.0165 N   0  0  0  0  0  0  0  0  0  0  0  0
   10.2557  -16.6991   26.2639 C   0  0  1  0  0  0  0  0  0  0  0  0
    9.8641  -15.3175   26.6332 C   0  0  0  0  0  0  0  0  0  0  0  0
    8.4429  -15.0039   26.5261 C   0  0  0  0  0  0  0  0  0  0  0  0
    7.4332  -15.9182   26.3079 C   0  0  0  0  0  0  0  0  0  0  0  0
    6.2571  -15.2610   26.2313 N   0  0  0  0  0  0  0  0  0  0  0  0
    6.4568  -13.9297   26.3940 C   0  0  0  0  0  0  0  0  0  0  0  0
    5.5715  -12.8813   26.4104 C   0  0  0  0  0  0  0  0  0  0  0  0
    6.0480  -11.5933   26.6219 C   0  0  0  0  0  0  0  0  0  0  0  0
    7.4023  -11.4201   26.8083 C   0  0  0  0  0  0  0  0  0  0  0  0
    8.2856  -12.4669   26.7912 C   0  0  0  0  0  0  0  0  0  0  0  0
    7.8342  -13.7741   26.5795 C   0  0  0  0  0  0  0  0  0  0  0  0
   10.1446  -17.6549   27.3395 C   0  0  0  0  0  0  0  0  0  0  0  0
   10.8165  -17.4797   28.5617 O   0  0  0  0  0  0  0  0  0  0  0  0
    9.4525  -18.6894   27.2576 O   0  0  0  0  0  0  0  0  0  0  0  0
  2  1  1  1
  3  2  1  0
  4  2  1  0
  5  4  1  0
  5  6  1  6
  7  8  2  0
  7  5  1  0
 10  9  1  6
 10 12  1  0
 11 10  1  0
 12 13  1  6
 13  7  1  0
 14 12  1  0
 14 16  1  0
 15 14  2  0
 17 16  1  0
 17 28  1  0
 18 19  1  0
 17 18  1  1
 19 27  1  0
 20 19  2  0
 20 21  1  0
 21 22  1  0
 22 23  1  0
 23 24  2  0
 25 24  1  0
 26 25  2  0
 27 22  2  0
 27 26  1  0
 28 29  1  0
 30 28  2  0
M  END
$$$$
