LTW.pdb
     RDKit          3D

 30 31  0  0  1  0  0  0  0  0999 V2000
   14.5096  -13.8913   16.9338 C   0  0  0  0  0  0  0  0  0  0  0  0
   13.8902  -14.9131   17.8409 C   0  0  1  0  0  0  0  0  0  0  0  0
   14.9524  -15.7498   18.4781 C   0  0  0  0  0  0  0  0  0  0  0  0
   12.9050  -14.3460   18.8037 C   0  0  0  0  0  0  0  0  0  0  0  0
   12.2408  -15.3980   19.6629 C   0  0  2  0  0  0  0  0  0  0  0  0
   11.5235  -16.2948   18.7775 N   0  0  0  0  0  0  0  0  0  0  0  0
   11.3268  -14.7865   20.6621 C   0  0  0  0  0  0  0  0  0  0  0  0
   11.8166  -14.1476   21.6559 O   0  0  0  0  0  0  0  0  0  0  0  0
    7.5190  -13.6555   19.6321 C   0  0  0  0  0  0  0  0  0  0  0  0
    7.6089  -14.3327   20.9796 C   0  0  1  0  0  0  0  0  0  0  0  0
    7.4419  -15.7066   20.7275 O   0  0  0  0  0  0  0  0  0  0  0  0
    9.0216  -14.1702   21.5259 C   0  0  2  0  0  0  0  0  0  0  0  0
    9.9326  -14.8625   20.5907 N   0  0  0  0  0  0  0  0  0  0  0  0
    9.2177  -14.6804   22.8811 C   0  0  0  0  0  0  0  0  0  0  0  0
    9.1205  -13.8368   23.8529 O   0  0  0  0  0  0  0  0  0  0  0  0
    9.5018  -15.9963   23.2883 N   0  0  0  0  0  0  0  0  0  0  0  0
    9.5499  -16.4324   24.6896 C   0  0  1  0  0  0  0  0  0  0  0  0
    8.2853  -16.1080   25.3925 C   0  0  0  0  0  0  0  0  0  0  0  0
    8.3422  -14.9925   26.3318 C   0  0  0  0  0  0  0  0  0  0  0  0
    9.1553  -14.9201   27.4438 C   0  0  0  0  0  0  0  0  0  0  0  0
    8.9094  -13.7615   28.0907 N   0  0  0  0  0  0  0  0  0  0  0  0
    7.9522  -13.0580   27.4369 C   0  0  0  0  0  0  0  0  0  0  0  0
    7.3937  -11.8332   27.7040 C   0  0  0  0  0  0  0  0  0  0  0  0
    6.4290  -11.3244   26.8431 C   0  0  0  0  0  0  0  0  0  0  0  0
    6.0694  -12.0774   25.7465 C   0  0  0  0  0  0  0  0  0  0  0  0
    6.6266  -13.3002   25.4808 C   0  0  0  0  0  0  0  0  0  0  0  0
    7.5994  -13.8375   26.3306 C   0  0  0  0  0  0  0  0  0  0  0  0
    9.9980  -17.7922   24.8717 C   0  0  0  0  0  0  0  0  0  0  0  0
   10.3128  -18.3071   26.1413 O   0  0  0  0  0  0  0  0  0  0  0  0
   10.1346  -18.5929   23.9251 O   0  0  0  0  0  0  0  0  0  0  0  0
  2  1  1  1
  3  2  1  0
  4  2  1  0
  5  4  1  0
  5  6  1  6
  7  8  2  0
  7  5  1  0
 10  9  1  6
 10 12  1  0
 11 10  1  0
 12 13  1  6
 13  7  1  0
 14 12  1  0
 14 16  1  0
 15 14  2  0
 17 16  1  0
 17 28  1  0
 18 19  1  0
 17 18  1  6
 19 27  1  0
 20 19  2  0
 20 21  1  0
 21 22  1  0
 22 23  1  0
 23 24  2  0
 25 24  1  0
 26 25  2  0
 27 22  2  0
 27 26  1  0
 28 29  1  0
 30 28  2  0
M  END
$$$$
