LTW.pdb
     RDKit          3D

 30 31  0  0  1  0  0  0  0  0999 V2000
    7.1564  -13.1985   19.5493 C   0  0  0  0  0  0  0  0  0  0  0  0
    8.5480  -13.2139   18.9893 C   0  0  1  0  0  0  0  0  0  0  0  0
    9.0369  -11.8166   18.7818 C   0  0  0  0  0  0  0  0  0  0  0  0
    9.4929  -14.0815   19.7466 C   0  0  0  0  0  0  0  0  0  0  0  0
    9.3825  -15.5437   19.3778 C   0  0  2  0  0  0  0  0  0  0  0  0
    8.3527  -15.6610   18.3636 N   0  0  0  0  0  0  0  0  0  0  0  0
    9.0653  -16.3812   20.5634 C   0  0  0  0  0  0  0  0  0  0  0  0
    7.8581  -16.4526   20.9795 O   0  0  0  0  0  0  0  0  0  0  0  0
    9.8476  -19.8966   20.9904 C   0  0  0  0  0  0  0  0  0  0  0  0
   10.3583  -19.2874   22.2750 C   0  0  1  0  0  0  0  0  0  0  0  0
   11.7273  -19.0423   22.0626 O   0  0  0  0  0  0  0  0  0  0  0  0
    9.7089  -17.9238   22.4729 C   0  0  2  0  0  0  0  0  0  0  0  0
   10.0186  -17.1157   21.2749 N   0  0  0  0  0  0  0  0  0  0  0  0
   10.1321  -17.2115   23.6766 C   0  0  0  0  0  0  0  0  0  0  0  0
   11.0019  -16.2689   23.5338 O   0  0  0  0  0  0  0  0  0  0  0  0
    9.7124  -17.4103   25.0042 N   0  0  0  0  0  0  0  0  0  0  0  0
   10.2853  -16.7125   26.1622 C   0  0  1  0  0  0  0  0  0  0  0  0
    9.8856  -15.2847   26.1754 C   0  0  0  0  0  0  0  0  0  0  0  0
    8.4520  -15.0211   26.2466 C   0  0  0  0  0  0  0  0  0  0  0  0
    7.4582  -15.9778   26.2336 C   0  0  0  0  0  0  0  0  0  0  0  0
    6.2580  -15.3623   26.2774 N   0  0  0  0  0  0  0  0  0  0  0  0
    6.4263  -14.0175   26.3204 C   0  0  0  0  0  0  0  0  0  0  0  0
    5.5116  -12.9968   26.3891 C   0  0  0  0  0  0  0  0  0  0  0  0
    5.9623  -11.6836   26.4447 C   0  0  0  0  0  0  0  0  0  0  0  0
    7.3216  -11.4580   26.4283 C   0  0  0  0  0  0  0  0  0  0  0  0
    8.2341  -12.4772   26.3589 C   0  0  0  0  0  0  0  0  0  0  0  0
    7.8091  -13.8089   26.3011 C   0  0  0  0  0  0  0  0  0  0  0  0
   10.0927  -17.3943   27.4195 C   0  0  0  0  0  0  0  0  0  0  0  0
   10.6621  -16.9231   28.6152 O   0  0  0  0  0  0  0  0  0  0  0  0
    9.4155  -18.4361   27.5283 O   0  0  0  0  0  0  0  0  0  0  0  0
  2  1  1  1
  3  2  1  0
  4  2  1  0
  5  4  1  0
  5  6  1  6
  7  8  2  0
  7  5  1  0
 10  9  1  6
 10 12  1  0
 11 10  1  0
 12 13  1  6
 13  7  1  0
 14 12  1  0
 14 16  1  0
 15 14  2  0
 17 16  1  0
 17 28  1  0
 18 19  1  0
 17 18  1  1
 19 27  1  0
 20 19  2  0
 20 21  1  0
 21 22  1  0
 22 23  1  0
 23 24  2  0
 25 24  1  0
 26 25  2  0
 27 22  2  0
 27 26  1  0
 28 29  1  0
 30 28  2  0
M  END
$$$$
