EEH.pdb
     RDKit          3D

 29 29  0  0  1  0  0  0  0  0999 V2000
   40.3007   -4.6382   -6.9891 N   0  0  0  0  0  0  0  0  0  0  0  0
   40.9488   -4.1011   -5.8016 C   0  0  1  0  0  0  0  0  0  0  0  0
   42.4245   -4.0309   -6.1144 C   0  0  0  0  0  0  0  0  0  0  0  0
   43.0107   -5.3094   -6.6139 C   0  0  0  0  0  0  0  0  0  0  0  0
   44.4382   -5.0705   -6.9043 C   0  0  0  0  0  0  0  0  0  0  0  0
   45.2935   -5.2307   -6.0130 O   0  0  0  0  0  0  0  0  0  0  0  0
   40.3736   -2.7943   -5.4511 C   0  0  0  0  0  0  0  0  0  0  0  0
   40.7954   -2.0672   -4.5201 O   0  0  0  0  0  0  0  0  0  0  0  0
   44.8304   -4.6702   -8.1603 O   0  0  0  0  0  0  0  0  0  0  0  0
   39.2735   -2.3174   -6.2065 N   0  0  0  0  0  0  0  0  0  0  0  0
   38.7435   -0.9389   -5.9572 C   0  0  1  0  0  0  0  0  0  0  0  0
   38.1365   -0.4458   -7.2321 C   0  0  0  0  0  0  0  0  0  0  0  0
   37.4828    0.8825   -7.1271 C   0  0  0  0  0  0  0  0  0  0  0  0
   36.7656    1.3331   -8.3316 C   0  0  0  0  0  0  0  0  0  0  0  0
   36.1830    2.4379   -8.3319 O   0  0  0  0  0  0  0  0  0  0  0  0
   37.7542   -1.0861   -4.8718 C   0  0  0  0  0  0  0  0  0  0  0  0
   36.9178   -2.0578   -4.9160 O   0  0  0  0  0  0  0  0  0  0  0  0
   36.7100    0.5665   -9.4853 O   0  0  0  0  0  0  0  0  0  0  0  0
   37.6187   -0.2497   -3.7421 N   0  0  0  0  0  0  0  0  0  0  0  0
   36.5628   -0.4591   -2.7500 C   0  0  1  0  0  0  0  0  0  0  0  0
   37.1667   -0.6559   -1.3731 C   0  0  0  0  0  0  0  0  0  0  0  0
   36.1113   -0.8085   -0.3669 C   0  0  0  0  0  0  0  0  0  0  0  0
   35.4817   -1.9844   -0.0343 C   0  0  0  0  0  0  0  0  0  0  0  0
   34.5860   -1.6745    0.9248 N   0  0  0  0  0  0  0  0  0  0  0  0
   34.6674   -0.3701    1.1640 C   0  0  0  0  0  0  0  0  0  0  0  0
   35.5985    0.1738    0.3793 N   0  0  0  0  0  0  0  0  0  0  0  0
   35.6272    0.6626   -2.8397 C   0  0  0  0  0  0  0  0  0  0  0  0
   34.3419    0.5832   -2.2819 O   0  0  0  0  0  0  0  0  0  0  0  0
   35.9394    1.7359   -3.4191 O   0  0  0  0  0  0  0  0  0  0  0  0
  2  1  1  6
  2  3  1  0
  4  3  1  0
  5  4  1  0
  6  5  2  0
  7  2  1  0
  8  7  2  0
  9  5  1  0
 10  7  1  0
 11 16  1  0
 11 10  1  0
 11 12  1  6
 13 12  1  0
 14 13  1  0
 15 14  2  0
 16 17  2  0
 18 14  1  0
 19 20  1  0
 19 16  1  0
 21 22  1  0
 20 21  1  1
 22 23  2  0
 24 23  1  0
 25 24  1  0
 26 25  2  0
 26 22  1  0
 27 20  1  0
 28 27  1  0
 29 27  2  0
M  END
$$$$
