EEH.pdb
     RDKit          3D

 29 29  0  0  1  0  0  0  0  0999 V2000
   19.0424  -12.9337  -15.6425 N   0  0  0  0  0  0  0  0  0  0  0  0
   18.9435  -11.7178  -16.4364 C   0  0  1  0  0  0  0  0  0  0  0  0
   17.5041  -11.6130  -16.8809 C   0  0  0  0  0  0  0  0  0  0  0  0
   16.5066  -11.7533  -15.7794 C   0  0  0  0  0  0  0  0  0  0  0  0
   15.1592  -11.6308  -16.3699 C   0  0  0  0  0  0  0  0  0  0  0  0
   14.1481  -11.7921  -15.6605 O   0  0  0  0  0  0  0  0  0  0  0  0
   19.3880  -10.5565  -15.6520 C   0  0  0  0  0  0  0  0  0  0  0  0
   19.1659  -10.4090  -14.4263 O   0  0  0  0  0  0  0  0  0  0  0  0
   15.0141  -11.3378  -17.7058 O   0  0  0  0  0  0  0  0  0  0  0  0
   20.1136   -9.5343  -16.3129 N   0  0  0  0  0  0  0  0  0  0  0  0
   20.6718   -8.3906  -15.5231 C   0  0  1  0  0  0  0  0  0  0  0  0
   22.1372   -8.3093  -15.8109 C   0  0  0  0  0  0  0  0  0  0  0  0
   22.9621   -9.3042  -15.0809 C   0  0  0  0  0  0  0  0  0  0  0  0
   24.4171   -9.1837  -15.2722 C   0  0  0  0  0  0  0  0  0  0  0  0
   24.8754   -8.2858  -16.0095 O   0  0  0  0  0  0  0  0  0  0  0  0
   19.9321   -7.1974  -15.9789 C   0  0  0  0  0  0  0  0  0  0  0  0
   19.7952   -6.9898  -17.2374 O   0  0  0  0  0  0  0  0  0  0  0  0
   25.3142  -10.0423  -14.6559 O   0  0  0  0  0  0  0  0  0  0  0  0
   19.3295   -6.2200  -15.1568 N   0  0  0  0  0  0  0  0  0  0  0  0
   18.7428   -4.9998  -15.7132 C   0  0  1  0  0  0  0  0  0  0  0  0
   17.6497   -4.4787  -14.8005 C   0  0  0  0  0  0  0  0  0  0  0  0
   17.0648   -3.2513  -15.3492 C   0  0  0  0  0  0  0  0  0  0  0  0
   16.4212   -3.1384  -16.5586 C   0  0  0  0  0  0  0  0  0  0  0  0
   16.0470   -1.8475  -16.6677 N   0  0  0  0  0  0  0  0  0  0  0  0
   16.4452   -1.2054  -15.5747 C   0  0  0  0  0  0  0  0  0  0  0  0
   17.0706   -2.0536  -14.7576 N   0  0  0  0  0  0  0  0  0  0  0  0
   19.8256   -4.0461  -15.9570 C   0  0  0  0  0  0  0  0  0  0  0  0
   19.7830   -3.1608  -17.0450 O   0  0  0  0  0  0  0  0  0  0  0  0
   20.8320   -3.9854  -15.2029 O   0  0  0  0  0  0  0  0  0  0  0  0
  2  1  1  1
  2  3  1  0
  4  3  1  0
  5  4  1  0
  6  5  2  0
  7  2  1  0
  8  7  2  0
  9  5  1  0
 10  7  1  0
 11 16  1  0
 11 10  1  0
 11 12  1  6
 13 12  1  0
 14 13  1  0
 15 14  2  0
 16 17  2  0
 18 14  1  0
 19 20  1  0
 19 16  1  0
 21 22  1  0
 20 21  1  1
 22 23  2  0
 24 23  1  0
 25 24  1  0
 26 25  2  0
 26 22  1  0
 27 20  1  0
 28 27  1  0
 29 27  2  0
M  END
$$$$
