EEH.pdb
     RDKit          3D

 29 29  0  0  1  0  0  0  0  0999 V2000
   28.2059  -21.3946  -16.6507 N   0  0  0  0  0  0  0  0  0  0  0  0
   27.8563  -20.4781  -15.5754 C   0  0  1  0  0  0  0  0  0  0  0  0
   27.6176  -19.1334  -16.2199 C   0  0  0  0  0  0  0  0  0  0  0  0
   26.5924  -19.1425  -17.3046 C   0  0  0  0  0  0  0  0  0  0  0  0
   27.1526  -18.4202  -18.4638 C   0  0  0  0  0  0  0  0  0  0  0  0
   28.2086  -17.7703  -18.3454 O   0  0  0  0  0  0  0  0  0  0  0  0
   26.6864  -20.9767  -14.8378 C   0  0  0  0  0  0  0  0  0  0  0  0
   25.8891  -21.8370  -15.2821 O   0  0  0  0  0  0  0  0  0  0  0  0
   26.5113  -18.4617  -19.6797 O   0  0  0  0  0  0  0  0  0  0  0  0
   26.4352  -20.4592  -13.5426 N   0  0  0  0  0  0  0  0  0  0  0  0
   25.3313  -21.0388  -12.7127 C   0  0  1  0  0  0  0  0  0  0  0  0
   25.6565  -20.7801  -11.2760 C   0  0  0  0  0  0  0  0  0  0  0  0
   24.7111  -21.3969  -10.3121 C   0  0  0  0  0  0  0  0  0  0  0  0
   25.0256  -21.1817   -8.8898 C   0  0  0  0  0  0  0  0  0  0  0  0
   25.9923  -20.4588   -8.5689 O   0  0  0  0  0  0  0  0  0  0  0  0
   24.1022  -20.3510  -13.1540 C   0  0  0  0  0  0  0  0  0  0  0  0
   24.1377  -19.0877  -13.3744 O   0  0  0  0  0  0  0  0  0  0  0  0
   24.2786  -21.7595   -7.8750 O   0  0  0  0  0  0  0  0  0  0  0  0
   22.8413  -20.9472  -13.3748 N   0  0  0  0  0  0  0  0  0  0  0  0
   21.6635  -20.1522  -13.7265 C   0  0  1  0  0  0  0  0  0  0  0  0
   21.1280  -20.5767  -15.0801 C   0  0  0  0  0  0  0  0  0  0  0  0
   22.0005  -20.0894  -16.1530 C   0  0  0  0  0  0  0  0  0  0  0  0
   22.8247  -20.8648  -16.9335 C   0  0  0  0  0  0  0  0  0  0  0  0
   23.4428  -20.0205  -17.7840 N   0  0  0  0  0  0  0  0  0  0  0  0
   23.0140  -18.7884  -17.5317 C   0  0  0  0  0  0  0  0  0  0  0  0
   22.1294  -18.8155  -16.5342 N   0  0  0  0  0  0  0  0  0  0  0  0
   20.6954  -20.2685  -12.6353 C   0  0  0  0  0  0  0  0  0  0  0  0
   19.7431  -19.2652  -12.3988 O   0  0  0  0  0  0  0  0  0  0  0  0
   20.6816  -21.2687  -11.8708 O   0  0  0  0  0  0  0  0  0  0  0  0
  2  1  1  6
  2  3  1  0
  4  3  1  0
  5  4  1  0
  6  5  2  0
  7  2  1  0
  8  7  2  0
  9  5  1  0
 10  7  1  0
 11 16  1  0
 11 10  1  0
 11 12  1  1
 13 12  1  0
 14 13  1  0
 15 14  2  0
 16 17  2  0
 18 14  1  0
 19 20  1  0
 19 16  1  0
 21 22  1  0
 20 21  1  6
 22 23  2  0
 24 23  1  0
 25 24  1  0
 26 25  2  0
 26 22  1  0
 27 20  1  0
 28 27  1  0
 29 27  2  0
M  END
$$$$
