EEH.pdb
     RDKit          3D

 29 29  0  0  1  0  0  0  0  0999 V2000
   20.4388  -11.7574  -15.9946 N   0  0  0  0  0  0  0  0  0  0  0  0
   19.9288  -10.3968  -16.0788 C   0  0  1  0  0  0  0  0  0  0  0  0
   18.5070  -10.5029  -16.5767 C   0  0  0  0  0  0  0  0  0  0  0  0
   17.6226  -11.3648  -15.7384 C   0  0  0  0  0  0  0  0  0  0  0  0
   16.4160  -10.5839  -15.4015 C   0  0  0  0  0  0  0  0  0  0  0  0
   15.8307   -9.9254  -16.2821 O   0  0  0  0  0  0  0  0  0  0  0  0
   20.0312   -9.7297  -14.7727 C   0  0  0  0  0  0  0  0  0  0  0  0
   20.0274  -10.3327  -13.6728 O   0  0  0  0  0  0  0  0  0  0  0  0
   15.9325  -10.5800  -14.1140 O   0  0  0  0  0  0  0  0  0  0  0  0
   20.1418   -8.3172  -14.7439 N   0  0  0  0  0  0  0  0  0  0  0  0
   20.2762   -7.6096  -13.4307 C   0  0  1  0  0  0  0  0  0  0  0  0
   20.9317   -6.2902  -13.6882 C   0  0  0  0  0  0  0  0  0  0  0  0
   21.0737   -5.4306  -12.4865 C   0  0  0  0  0  0  0  0  0  0  0  0
   21.6822   -4.1103  -12.7200 C   0  0  0  0  0  0  0  0  0  0  0  0
   21.3347   -3.1332  -12.0238 O   0  0  0  0  0  0  0  0  0  0  0  0
   18.9009   -7.4739  -12.9124 C   0  0  0  0  0  0  0  0  0  0  0  0
   17.9398   -7.2675  -13.7368 O   0  0  0  0  0  0  0  0  0  0  0  0
   22.6422   -3.9046  -13.6988 O   0  0  0  0  0  0  0  0  0  0  0  0
   18.5033   -7.5521  -11.5596 N   0  0  0  0  0  0  0  0  0  0  0  0
   17.1208   -7.3054  -11.1468 C   0  0  1  0  0  0  0  0  0  0  0  0
   16.7937   -8.1049   -9.9006 C   0  0  0  0  0  0  0  0  0  0  0  0
   15.4243   -7.8263   -9.4568 C   0  0  0  0  0  0  0  0  0  0  0  0
   14.5430   -6.9626  -10.0628 C   0  0  0  0  0  0  0  0  0  0  0  0
   13.4097   -7.0069   -9.3333 N   0  0  0  0  0  0  0  0  0  0  0  0
   13.5940   -7.8583   -8.3300 C   0  0  0  0  0  0  0  0  0  0  0  0
   14.8247   -8.3682   -8.3932 N   0  0  0  0  0  0  0  0  0  0  0  0
   16.9432   -5.8606  -10.9962 C   0  0  0  0  0  0  0  0  0  0  0  0
   15.6929   -5.2569  -11.2001 O   0  0  0  0  0  0  0  0  0  0  0  0
   17.9023   -5.1087  -10.6800 O   0  0  0  0  0  0  0  0  0  0  0  0
  2  1  1  1
  2  3  1  0
  4  3  1  0
  5  4  1  0
  6  5  2  0
  7  2  1  0
  8  7  2  0
  9  5  1  0
 10  7  1  0
 11 16  1  0
 11 10  1  0
 11 12  1  6
 13 12  1  0
 14 13  1  0
 15 14  2  0
 16 17  2  0
 18 14  1  0
 19 20  1  0
 19 16  1  0
 21 22  1  0
 20 21  1  1
 22 23  2  0
 24 23  1  0
 25 24  1  0
 26 25  2  0
 26 22  1  0
 27 20  1  0
 28 27  1  0
 29 27  2  0
M  END
$$$$
