EEH.pdb
     RDKit          3D

 29 29  0  0  1  0  0  0  0  0999 V2000
   25.6473  -21.5939  -11.7786 N   0  0  0  0  0  0  0  0  0  0  0  0
   25.9147  -21.5821  -13.2093 C   0  0  1  0  0  0  0  0  0  0  0  0
   25.1972  -22.7780  -13.7885 C   0  0  0  0  0  0  0  0  0  0  0  0
   24.0949  -23.3095  -12.9340 C   0  0  0  0  0  0  0  0  0  0  0  0
   23.4764  -24.4449  -13.6464 C   0  0  0  0  0  0  0  0  0  0  0  0
   22.3655  -24.3101  -14.1934 O   0  0  0  0  0  0  0  0  0  0  0  0
   25.4785  -20.3090  -13.8013 C   0  0  0  0  0  0  0  0  0  0  0  0
   24.7867  -19.4537  -13.1987 O   0  0  0  0  0  0  0  0  0  0  0  0
   24.1240  -25.6566  -13.7097 O   0  0  0  0  0  0  0  0  0  0  0  0
   25.8586  -20.0208  -15.1357 N   0  0  0  0  0  0  0  0  0  0  0  0
   25.5797  -18.6662  -15.7110 C   0  0  1  0  0  0  0  0  0  0  0  0
   26.4522  -18.4926  -16.9133 C   0  0  0  0  0  0  0  0  0  0  0  0
   27.3166  -17.2866  -16.8753 C   0  0  0  0  0  0  0  0  0  0  0  0
   28.2596  -17.1470  -17.9975 C   0  0  0  0  0  0  0  0  0  0  0  0
   27.8276  -16.9417  -19.1513 O   0  0  0  0  0  0  0  0  0  0  0  0
   24.1416  -18.6663  -16.0428 C   0  0  0  0  0  0  0  0  0  0  0  0
   23.5954  -19.7512  -16.4557 O   0  0  0  0  0  0  0  0  0  0  0  0
   29.6318  -17.2361  -17.8216 O   0  0  0  0  0  0  0  0  0  0  0  0
   23.2601  -17.5669  -15.9509 N   0  0  0  0  0  0  0  0  0  0  0  0
   21.8369  -17.6909  -16.2704 C   0  0  1  0  0  0  0  0  0  0  0  0
   20.9964  -17.4303  -15.0356 C   0  0  0  0  0  0  0  0  0  0  0  0
   20.8556  -18.6555  -14.2426 C   0  0  0  0  0  0  0  0  0  0  0  0
   21.4637  -19.8594  -14.5084 C   0  0  0  0  0  0  0  0  0  0  0  0
   21.0626  -20.7067  -13.5392 N   0  0  0  0  0  0  0  0  0  0  0  0
   20.2480  -20.0479  -12.7219 C   0  0  0  0  0  0  0  0  0  0  0  0
   20.1119  -18.7892  -13.1409 N   0  0  0  0  0  0  0  0  0  0  0  0
   21.5448  -16.7996  -17.3937 C   0  0  0  0  0  0  0  0  0  0  0  0
   20.2984  -16.8271  -18.0381 O   0  0  0  0  0  0  0  0  0  0  0  0
   22.3979  -15.9789  -17.8223 O   0  0  0  0  0  0  0  0  0  0  0  0
  2  1  1  1
  2  3  1  0
  4  3  1  0
  5  4  1  0
  6  5  2  0
  7  2  1  0
  8  7  2  0
  9  5  1  0
 10  7  1  0
 11 16  1  0
 11 10  1  0
 11 12  1  6
 13 12  1  0
 14 13  1  0
 15 14  2  0
 16 17  2  0
 18 14  1  0
 19 20  1  0
 19 16  1  0
 21 22  1  0
 20 21  1  1
 22 23  2  0
 24 23  1  0
 25 24  1  0
 26 25  2  0
 26 22  1  0
 27 20  1  0
 28 27  1  0
 29 27  2  0
M  END
$$$$
