EEH.pdb
     RDKit          3D

 29 29  0  0  1  0  0  0  0  0999 V2000
   17.5377  -12.0424  -15.3850 N   0  0  0  0  0  0  0  0  0  0  0  0
   17.6015  -10.5924  -15.4934 C   0  0  1  0  0  0  0  0  0  0  0  0
   16.2330  -10.1361  -15.9402 C   0  0  0  0  0  0  0  0  0  0  0  0
   15.1700  -11.1785  -15.8337 C   0  0  0  0  0  0  0  0  0  0  0  0
   14.0317  -10.5916  -15.0996 C   0  0  0  0  0  0  0  0  0  0  0  0
   13.6114   -9.4579  -15.3993 O   0  0  0  0  0  0  0  0  0  0  0  0
   18.0137  -10.0008  -14.2122 C   0  0  0  0  0  0  0  0  0  0  0  0
   17.9067  -10.5785  -13.1040 O   0  0  0  0  0  0  0  0  0  0  0  0
   13.4298  -11.2937  -14.0817 O   0  0  0  0  0  0  0  0  0  0  0  0
   18.5681   -8.6966  -14.2191 N   0  0  0  0  0  0  0  0  0  0  0  0
   19.1180   -8.1169  -12.9522 C   0  0  1  0  0  0  0  0  0  0  0  0
   20.0166   -6.9802  -13.3228 C   0  0  0  0  0  0  0  0  0  0  0  0
   20.5751   -6.2370  -12.1658 C   0  0  0  0  0  0  0  0  0  0  0  0
   21.4767   -5.1229  -12.5035 C   0  0  0  0  0  0  0  0  0  0  0  0
   22.7137   -5.2937  -12.4771 O   0  0  0  0  0  0  0  0  0  0  0  0
   17.9417   -7.6855  -12.1719 C   0  0  0  0  0  0  0  0  0  0  0  0
   16.9486   -7.1504  -12.7827 O   0  0  0  0  0  0  0  0  0  0  0  0
   20.9991   -3.8700  -12.8556 O   0  0  0  0  0  0  0  0  0  0  0  0
   17.7742   -7.8019  -10.7746 N   0  0  0  0  0  0  0  0  0  0  0  0
   16.5624   -7.3314  -10.1016 C   0  0  1  0  0  0  0  0  0  0  0  0
   15.6763   -8.5054   -9.7329 C   0  0  0  0  0  0  0  0  0  0  0  0
   14.4270   -8.0349   -9.1267 C   0  0  0  0  0  0  0  0  0  0  0  0
   14.1037   -6.7246   -8.8655 C   0  0  0  0  0  0  0  0  0  0  0  0
   12.8756   -6.7427   -8.3092 N   0  0  0  0  0  0  0  0  0  0  0  0
   12.4710   -8.0062   -8.2356 C   0  0  0  0  0  0  0  0  0  0  0  0
   13.4121   -8.8094   -8.7332 N   0  0  0  0  0  0  0  0  0  0  0  0
   16.9673   -6.5051   -8.9636 C   0  0  0  0  0  0  0  0  0  0  0  0
   16.1370   -5.4850   -8.4743 O   0  0  0  0  0  0  0  0  0  0  0  0
   18.0716   -6.6779   -8.3842 O   0  0  0  0  0  0  0  0  0  0  0  0
  2  1  1  1
  2  3  1  0
  4  3  1  0
  5  4  1  0
  6  5  2  0
  7  2  1  0
  8  7  2  0
  9  5  1  0
 10  7  1  0
 11 16  1  0
 11 10  1  0
 11 12  1  6
 13 12  1  0
 14 13  1  0
 15 14  2  0
 16 17  2  0
 18 14  1  0
 19 20  1  0
 19 16  1  0
 21 22  1  0
 20 21  1  1
 22 23  2  0
 24 23  1  0
 25 24  1  0
 26 25  2  0
 26 22  1  0
 27 20  1  0
 28 27  1  0
 29 27  2  0
M  END
$$$$
