EEH.pdb
     RDKit          3D

 29 29  0  0  1  0  0  0  0  0999 V2000
   22.4346   -6.2069  -15.5663 N   0  0  0  0  0  0  0  0  0  0  0  0
   21.1292   -6.7737  -15.8711 C   0  0  1  0  0  0  0  0  0  0  0  0
   21.3680   -7.8917  -16.8579 C   0  0  0  0  0  0  0  0  0  0  0  0
   21.7690   -7.4358  -18.2213 C   0  0  0  0  0  0  0  0  0  0  0  0
   22.0701   -8.6338  -19.0295 C   0  0  0  0  0  0  0  0  0  0  0  0
   21.4961   -8.8133  -20.1204 O   0  0  0  0  0  0  0  0  0  0  0  0
   20.4675   -7.2273  -14.6391 C   0  0  0  0  0  0  0  0  0  0  0  0
   21.0765   -7.6693  -13.6355 O   0  0  0  0  0  0  0  0  0  0  0  0
   22.9858   -9.5572  -18.5819 O   0  0  0  0  0  0  0  0  0  0  0  0
   19.0534   -7.1650  -14.5711 N   0  0  0  0  0  0  0  0  0  0  0  0
   18.3524   -7.5655  -13.3095 C   0  0  1  0  0  0  0  0  0  0  0  0
   17.5070   -6.4121  -12.8713 C   0  0  0  0  0  0  0  0  0  0  0  0
   16.6794   -6.6798  -11.6687 C   0  0  0  0  0  0  0  0  0  0  0  0
   17.3231   -6.3846  -10.3777 C   0  0  0  0  0  0  0  0  0  0  0  0
   17.4017   -7.2739   -9.5041 O   0  0  0  0  0  0  0  0  0  0  0  0
   17.5561   -8.7575  -13.6612 C   0  0  0  0  0  0  0  0  0  0  0  0
   16.8094   -8.7250  -14.7038 O   0  0  0  0  0  0  0  0  0  0  0  0
   17.8544   -5.1374  -10.0880 O   0  0  0  0  0  0  0  0  0  0  0  0
   17.5227   -9.9809  -12.9567 N   0  0  0  0  0  0  0  0  0  0  0  0
   16.7685  -11.1344  -13.4502 C   0  0  1  0  0  0  0  0  0  0  0  0
   17.3249  -12.4166  -12.8624 C   0  0  0  0  0  0  0  0  0  0  0  0
   16.5776  -13.5758  -13.3600 C   0  0  0  0  0  0  0  0  0  0  0  0
   15.5149  -13.5337  -14.2309 C   0  0  0  0  0  0  0  0  0  0  0  0
   15.1298  -14.8123  -14.4183 N   0  0  0  0  0  0  0  0  0  0  0  0
   15.9222  -15.5955  -13.6943 C   0  0  0  0  0  0  0  0  0  0  0  0
   16.8146  -14.8511  -13.0402 N   0  0  0  0  0  0  0  0  0  0  0  0
   15.3520  -10.9075  -13.1613 C   0  0  0  0  0  0  0  0  0  0  0  0
   14.3500  -11.3770  -14.0245 O   0  0  0  0  0  0  0  0  0  0  0  0
   14.9813  -10.2845  -12.1319 O   0  0  0  0  0  0  0  0  0  0  0  0
  2  1  1  1
  2  3  1  0
  4  3  1  0
  5  4  1  0
  6  5  2  0
  7  2  1  0
  8  7  2  0
  9  5  1  0
 10  7  1  0
 11 16  1  0
 11 10  1  0
 11 12  1  6
 13 12  1  0
 14 13  1  0
 15 14  2  0
 16 17  2  0
 18 14  1  0
 19 20  1  0
 19 16  1  0
 21 22  1  0
 20 21  1  1
 22 23  2  0
 24 23  1  0
 25 24  1  0
 26 25  2  0
 26 22  1  0
 27 20  1  0
 28 27  1  0
 29 27  2  0
M  END
$$$$
