EEH.pdb
     RDKit          3D

 29 29  0  0  1  0  0  0  0  0999 V2000
   20.8457  -11.6833  -17.8277 N   0  0  0  0  0  0  0  0  0  0  0  0
   20.0403  -10.4827  -17.6595 C   0  0  1  0  0  0  0  0  0  0  0  0
   19.1454  -10.7311  -16.4687 C   0  0  0  0  0  0  0  0  0  0  0  0
   18.0820  -11.7528  -16.6989 C   0  0  0  0  0  0  0  0  0  0  0  0
   17.2262  -11.7949  -15.4968 C   0  0  0  0  0  0  0  0  0  0  0  0
   17.5532  -12.4954  -14.5200 O   0  0  0  0  0  0  0  0  0  0  0  0
   20.9048   -9.3054  -17.4919 C   0  0  0  0  0  0  0  0  0  0  0  0
   21.9131   -9.2736  -16.7465 O   0  0  0  0  0  0  0  0  0  0  0  0
   16.0641  -11.0609  -15.4496 O   0  0  0  0  0  0  0  0  0  0  0  0
   20.5875   -8.1278  -18.2137 N   0  0  0  0  0  0  0  0  0  0  0  0
   21.4960   -6.9397  -18.1324 C   0  0  1  0  0  0  0  0  0  0  0  0
   21.3157   -6.1409  -19.3838 C   0  0  0  0  0  0  0  0  0  0  0  0
   22.0961   -6.6354  -20.5454 C   0  0  0  0  0  0  0  0  0  0  0  0
   21.9529   -5.8532  -21.7847 C   0  0  0  0  0  0  0  0  0  0  0  0
   21.4688   -6.3870  -22.8048 O   0  0  0  0  0  0  0  0  0  0  0  0
   21.0803   -6.2066  -16.9206 C   0  0  0  0  0  0  0  0  0  0  0  0
   19.8310   -6.0060  -16.7093 O   0  0  0  0  0  0  0  0  0  0  0  0
   22.3408   -4.5247  -21.8658 O   0  0  0  0  0  0  0  0  0  0  0  0
   21.9328   -5.6826  -15.9242 N   0  0  0  0  0  0  0  0  0  0  0  0
   21.4179   -4.8821  -14.8121 C   0  0  1  0  0  0  0  0  0  0  0  0
   21.9383   -5.4189  -13.4929 C   0  0  0  0  0  0  0  0  0  0  0  0
   21.3371   -6.7229  -13.1965 C   0  0  0  0  0  0  0  0  0  0  0  0
   20.3744   -7.3538  -13.9482 C   0  0  0  0  0  0  0  0  0  0  0  0
   20.1076   -8.5169  -13.3202 N   0  0  0  0  0  0  0  0  0  0  0  0
   20.8730   -8.5894  -12.2365 C   0  0  0  0  0  0  0  0  0  0  0  0
   21.6319   -7.4964  -12.1480 N   0  0  0  0  0  0  0  0  0  0  0  0
   21.7581   -3.4815  -15.0656 C   0  0  0  0  0  0  0  0  0  0  0  0
   21.3501   -2.4645  -14.1889 O   0  0  0  0  0  0  0  0  0  0  0  0
   22.4262   -3.1386  -16.0761 O   0  0  0  0  0  0  0  0  0  0  0  0
  2  1  1  1
  2  3  1  0
  4  3  1  0
  5  4  1  0
  6  5  2  0
  7  2  1  0
  8  7  2  0
  9  5  1  0
 10  7  1  0
 11 16  1  0
 11 10  1  0
 11 12  1  6
 13 12  1  0
 14 13  1  0
 15 14  2  0
 16 17  2  0
 18 14  1  0
 19 20  1  0
 19 16  1  0
 21 22  1  0
 20 21  1  1
 22 23  2  0
 24 23  1  0
 25 24  1  0
 26 25  2  0
 26 22  1  0
 27 20  1  0
 28 27  1  0
 29 27  2  0
M  END
$$$$
