EEH.pdb
     RDKit          3D

 29 29  0  0  1  0  0  0  0  0999 V2000
   13.7331  -10.6188  -10.0471 N   0  0  0  0  0  0  0  0  0  0  0  0
   15.1104  -10.6929  -10.5117 C   0  0  1  0  0  0  0  0  0  0  0  0
   15.2027  -11.9234  -11.3822 C   0  0  0  0  0  0  0  0  0  0  0  0
   15.0625  -13.2131  -10.6441 C   0  0  0  0  0  0  0  0  0  0  0  0
   15.1421  -14.3099  -11.6289 C   0  0  0  0  0  0  0  0  0  0  0  0
   14.1004  -14.8126  -12.0912 O   0  0  0  0  0  0  0  0  0  0  0  0
   15.4786   -9.4590  -11.2211 C   0  0  0  0  0  0  0  0  0  0  0  0
   14.7253   -8.8577  -12.0238 O   0  0  0  0  0  0  0  0  0  0  0  0
   16.3667  -14.7814  -12.0407 O   0  0  0  0  0  0  0  0  0  0  0  0
   16.7630   -8.9063  -10.9904 N   0  0  0  0  0  0  0  0  0  0  0  0
   17.1643   -7.6436  -11.6890 C   0  0  1  0  0  0  0  0  0  0  0  0
   17.3275   -6.5797  -10.6506 C   0  0  0  0  0  0  0  0  0  0  0  0
   16.2905   -6.5940   -9.5889 C   0  0  0  0  0  0  0  0  0  0  0  0
   16.3709   -5.4977   -8.6093 C   0  0  0  0  0  0  0  0  0  0  0  0
   16.0300   -4.3423   -8.9393 O   0  0  0  0  0  0  0  0  0  0  0  0
   18.4260   -7.9615  -12.3858 C   0  0  0  0  0  0  0  0  0  0  0  0
   19.3383   -8.6121  -11.7612 O   0  0  0  0  0  0  0  0  0  0  0  0
   16.8180   -5.7000   -7.3127 O   0  0  0  0  0  0  0  0  0  0  0  0
   18.7574   -7.6221  -13.7160 N   0  0  0  0  0  0  0  0  0  0  0  0
   20.0785   -7.9077  -14.2782 C   0  0  1  0  0  0  0  0  0  0  0  0
   19.9477   -8.7828  -15.5095 C   0  0  0  0  0  0  0  0  0  0  0  0
   19.4129  -10.0995  -15.1489 C   0  0  0  0  0  0  0  0  0  0  0  0
   20.1261  -11.1293  -14.5827 C   0  0  0  0  0  0  0  0  0  0  0  0
   19.2561  -12.1468  -14.4214 N   0  0  0  0  0  0  0  0  0  0  0  0
   18.0686  -11.7534  -14.8691 C   0  0  0  0  0  0  0  0  0  0  0  0
   18.1498  -10.5003  -15.3181 N   0  0  0  0  0  0  0  0  0  0  0  0
   20.7547   -6.6323  -14.5181 C   0  0  0  0  0  0  0  0  0  0  0  0
   22.0977   -6.5866  -14.9228 O   0  0  0  0  0  0  0  0  0  0  0  0
   20.1591   -5.5329  -14.3701 O   0  0  0  0  0  0  0  0  0  0  0  0
  2  1  1  6
  2  3  1  0
  4  3  1  0
  5  4  1  0
  6  5  2  0
  7  2  1  0
  8  7  2  0
  9  5  1  0
 10  7  1  0
 11 16  1  0
 11 10  1  0
 11 12  1  1
 13 12  1  0
 14 13  1  0
 15 14  2  0
 16 17  2  0
 18 14  1  0
 19 20  1  0
 19 16  1  0
 21 22  1  0
 20 21  1  6
 22 23  2  0
 24 23  1  0
 25 24  1  0
 26 25  2  0
 26 22  1  0
 27 20  1  0
 28 27  1  0
 29 27  2  0
M  END
$$$$
