EEH.pdb
     RDKit          3D

 29 29  0  0  1  0  0  0  0  0999 V2000
   19.3676  -11.9738  -15.9814 N   0  0  0  0  0  0  0  0  0  0  0  0
   18.4805  -10.8749  -15.6293 C   0  0  1  0  0  0  0  0  0  0  0  0
   17.0876  -11.4543  -15.5617 C   0  0  0  0  0  0  0  0  0  0  0  0
   16.5174  -11.8455  -16.8844 C   0  0  0  0  0  0  0  0  0  0  0  0
   15.1438  -12.3368  -16.6583 C   0  0  0  0  0  0  0  0  0  0  0  0
   14.6224  -12.2407  -15.5311 O   0  0  0  0  0  0  0  0  0  0  0  0
   18.9072  -10.2573  -14.3652 C   0  0  0  0  0  0  0  0  0  0  0  0
   19.2859  -10.9037  -13.3592 O   0  0  0  0  0  0  0  0  0  0  0  0
   14.4335  -12.9027  -17.6911 O   0  0  0  0  0  0  0  0  0  0  0  0
   18.8936   -8.8436  -14.2673 N   0  0  0  0  0  0  0  0  0  0  0  0
   19.3852   -8.1812  -13.0171 C   0  0  1  0  0  0  0  0  0  0  0  0
   20.2736   -7.0476  -13.4203 C   0  0  0  0  0  0  0  0  0  0  0  0
   20.7603   -6.2174  -12.2903 C   0  0  0  0  0  0  0  0  0  0  0  0
   21.6216   -5.0826  -12.6624 C   0  0  0  0  0  0  0  0  0  0  0  0
   22.5449   -5.2467  -13.4874 O   0  0  0  0  0  0  0  0  0  0  0  0
   18.1729   -7.7327  -12.3045 C   0  0  0  0  0  0  0  0  0  0  0  0
   17.3281   -6.9865  -12.9170 O   0  0  0  0  0  0  0  0  0  0  0  0
   21.4458   -3.8173  -12.1240 O   0  0  0  0  0  0  0  0  0  0  0  0
   17.8187   -8.0458  -10.9738 N   0  0  0  0  0  0  0  0  0  0  0  0
   16.5829   -7.5479  -10.3675 C   0  0  1  0  0  0  0  0  0  0  0  0
   15.9287   -8.6359   -9.5383 C   0  0  0  0  0  0  0  0  0  0  0  0
   14.6581   -8.1622   -8.9807 C   0  0  0  0  0  0  0  0  0  0  0  0
   14.1360   -6.8993   -9.1295 C   0  0  0  0  0  0  0  0  0  0  0  0
   12.9653   -6.8938   -8.4603 N   0  0  0  0  0  0  0  0  0  0  0  0
   12.7844   -8.0982   -7.9291 C   0  0  0  0  0  0  0  0  0  0  0  0
   13.8144   -8.8861   -8.2399 N   0  0  0  0  0  0  0  0  0  0  0  0
   16.9032   -6.3329   -9.6172 C   0  0  0  0  0  0  0  0  0  0  0  0
   18.0854   -6.2320   -8.8679 O   0  0  0  0  0  0  0  0  0  0  0  0
   16.1324   -5.3374   -9.6157 O   0  0  0  0  0  0  0  0  0  0  0  0
  2  1  1  1
  2  3  1  0
  4  3  1  0
  5  4  1  0
  6  5  2  0
  7  2  1  0
  8  7  2  0
  9  5  1  0
 10  7  1  0
 11 16  1  0
 11 10  1  0
 11 12  1  6
 13 12  1  0
 14 13  1  0
 15 14  2  0
 16 17  2  0
 18 14  1  0
 19 20  1  0
 19 16  1  0
 21 22  1  0
 20 21  1  1
 22 23  2  0
 24 23  1  0
 25 24  1  0
 26 25  2  0
 26 22  1  0
 27 20  1  0
 28 27  1  0
 29 27  2  0
M  END
$$$$
