EEH.pdb
     RDKit          3D

 29 29  0  0  1  0  0  0  0  0999 V2000
   24.7839  -18.7293  -15.9012 N   0  0  0  0  0  0  0  0  0  0  0  0
   24.3785  -19.9822  -16.5211 C   0  0  1  0  0  0  0  0  0  0  0  0
   25.6491  -20.7379  -16.8293 C   0  0  0  0  0  0  0  0  0  0  0  0
   26.6513  -20.7366  -15.7232 C   0  0  0  0  0  0  0  0  0  0  0  0
   27.7643  -21.6218  -16.1191 C   0  0  0  0  0  0  0  0  0  0  0  0
   28.9414  -21.2931  -15.8780 O   0  0  0  0  0  0  0  0  0  0  0  0
   23.4713  -20.7232  -15.6326 C   0  0  0  0  0  0  0  0  0  0  0  0
   23.0032  -21.8575  -15.8927 O   0  0  0  0  0  0  0  0  0  0  0  0
   27.5069  -22.8134  -16.7557 O   0  0  0  0  0  0  0  0  0  0  0  0
   23.0962  -20.1271  -14.4028 N   0  0  0  0  0  0  0  0  0  0  0  0
   22.2456  -20.8920  -13.4360 C   0  0  1  0  0  0  0  0  0  0  0  0
   22.8559  -20.7479  -12.0782 C   0  0  0  0  0  0  0  0  0  0  0  0
   24.0841  -21.5545  -11.8687 C   0  0  0  0  0  0  0  0  0  0  0  0
   24.6759  -21.4704  -10.5230 C   0  0  0  0  0  0  0  0  0  0  0  0
   24.1042  -20.8070   -9.6324 O   0  0  0  0  0  0  0  0  0  0  0  0
   20.9024  -20.2868  -13.5268 C   0  0  0  0  0  0  0  0  0  0  0  0
   20.7977  -19.0157  -13.6649 O   0  0  0  0  0  0  0  0  0  0  0  0
   25.8630  -22.1090  -10.1994 O   0  0  0  0  0  0  0  0  0  0  0  0
   19.6691  -20.9730  -13.4814 N   0  0  0  0  0  0  0  0  0  0  0  0
   18.3899  -20.2657  -13.5607 C   0  0  1  0  0  0  0  0  0  0  0  0
   18.2364  -19.6077  -14.9182 C   0  0  0  0  0  0  0  0  0  0  0  0
   17.9377  -20.6115  -15.9443 C   0  0  0  0  0  0  0  0  0  0  0  0
   16.7806  -21.3481  -16.0355 C   0  0  0  0  0  0  0  0  0  0  0  0
   16.9245  -22.1445  -17.1141 N   0  0  0  0  0  0  0  0  0  0  0  0
   18.1146  -21.9030  -17.6535 C   0  0  0  0  0  0  0  0  0  0  0  0
   18.7468  -20.9653  -16.9467 N   0  0  0  0  0  0  0  0  0  0  0  0
   17.3257  -21.2144  -13.2304 C   0  0  0  0  0  0  0  0  0  0  0  0
   16.0668  -20.7720  -12.7959 O   0  0  0  0  0  0  0  0  0  0  0  0
   17.5000  -22.4579  -13.3229 O   0  0  0  0  0  0  0  0  0  0  0  0
  2  1  1  1
  2  3  1  0
  4  3  1  0
  5  4  1  0
  6  5  2  0
  7  2  1  0
  8  7  2  0
  9  5  1  0
 10  7  1  0
 11 16  1  0
 11 10  1  0
 11 12  1  1
 13 12  1  0
 14 13  1  0
 15 14  2  0
 16 17  2  0
 18 14  1  0
 19 20  1  0
 19 16  1  0
 21 22  1  0
 20 21  1  6
 22 23  2  0
 24 23  1  0
 25 24  1  0
 26 25  2  0
 26 22  1  0
 27 20  1  0
 28 27  1  0
 29 27  2  0
M  END
$$$$
