EEH.pdb
     RDKit          3D

 29 29  0  0  1  0  0  0  0  0999 V2000
   15.7962  -19.8722    1.8864 N   0  0  0  0  0  0  0  0  0  0  0  0
   15.3377  -20.1556    3.2383 C   0  0  1  0  0  0  0  0  0  0  0  0
   15.7154  -21.5891    3.5265 C   0  0  0  0  0  0  0  0  0  0  0  0
   17.1516  -21.9105    3.2777 C   0  0  0  0  0  0  0  0  0  0  0  0
   17.7667  -22.2678    4.5712 C   0  0  0  0  0  0  0  0  0  0  0  0
   18.9921  -22.1235    4.7425 O   0  0  0  0  0  0  0  0  0  0  0  0
   15.9293  -19.2038    4.1899 C   0  0  0  0  0  0  0  0  0  0  0  0
   16.6127  -18.2070    3.8544 O   0  0  0  0  0  0  0  0  0  0  0  0
   16.9898  -22.7613    5.5931 O   0  0  0  0  0  0  0  0  0  0  0  0
   15.7199  -19.4172    5.5752 N   0  0  0  0  0  0  0  0  0  0  0  0
   15.7913  -18.2602    6.5237 C   0  0  1  0  0  0  0  0  0  0  0  0
   14.8576  -18.5415    7.6577 C   0  0  0  0  0  0  0  0  0  0  0  0
   14.7720  -17.4558    8.6660 C   0  0  0  0  0  0  0  0  0  0  0  0
   13.8666  -17.7123    9.7985 C   0  0  0  0  0  0  0  0  0  0  0  0
   13.1870  -18.7598    9.8267 O   0  0  0  0  0  0  0  0  0  0  0  0
   17.2024  -18.1848    6.9496 C   0  0  0  0  0  0  0  0  0  0  0  0
   17.9232  -19.2455    6.9151 O   0  0  0  0  0  0  0  0  0  0  0  0
   13.7359  -16.8219   10.8530 O   0  0  0  0  0  0  0  0  0  0  0  0
   17.8800  -17.0328    7.4054 N   0  0  0  0  0  0  0  0  0  0  0  0
   19.2188  -17.1075    7.9927 C   0  0  1  0  0  0  0  0  0  0  0  0
   19.8285  -15.7225    8.0893 C   0  0  0  0  0  0  0  0  0  0  0  0
   21.1867  -15.7967    8.6364 C   0  0  0  0  0  0  0  0  0  0  0  0
   22.1908  -16.6206    8.1861 C   0  0  0  0  0  0  0  0  0  0  0  0
   23.2624  -16.3699    8.9653 N   0  0  0  0  0  0  0  0  0  0  0  0
   22.9249  -15.4365    9.8487 C   0  0  0  0  0  0  0  0  0  0  0  0
   21.6552  -15.0757    9.6588 N   0  0  0  0  0  0  0  0  0  0  0  0
   19.1137  -17.8071    9.2738 C   0  0  0  0  0  0  0  0  0  0  0  0
   18.1131  -17.4787   10.2013 O   0  0  0  0  0  0  0  0  0  0  0  0
   19.9147  -18.7256    9.5902 O   0  0  0  0  0  0  0  0  0  0  0  0
  2  1  1  6
  2  3  1  0
  4  3  1  0
  5  4  1  0
  6  5  2  0
  7  2  1  0
  8  7  2  0
  9  5  1  0
 10  7  1  0
 11 16  1  0
 11 10  1  0
 11 12  1  1
 13 12  1  0
 14 13  1  0
 15 14  2  0
 16 17  2  0
 18 14  1  0
 19 20  1  0
 19 16  1  0
 21 22  1  0
 20 21  1  1
 22 23  2  0
 24 23  1  0
 25 24  1  0
 26 25  2  0
 26 22  1  0
 27 20  1  0
 28 27  1  0
 29 27  2  0
M  END
$$$$
