EEH.pdb
     RDKit          3D

 29 29  0  0  1  0  0  0  0  0999 V2000
   28.8042  -11.9075  -20.0262 N   0  0  0  0  0  0  0  0  0  0  0  0
   27.9406  -11.3969  -18.9718 C   0  0  1  0  0  0  0  0  0  0  0  0
   28.8033  -10.5134  -18.1025 C   0  0  0  0  0  0  0  0  0  0  0  0
   29.7350   -9.6253  -18.8582 C   0  0  0  0  0  0  0  0  0  0  0  0
   30.5453   -8.8782  -17.8762 C   0  0  0  0  0  0  0  0  0  0  0  0
   30.4001   -9.0870  -16.6567 O   0  0  0  0  0  0  0  0  0  0  0  0
   26.7912  -10.6861  -19.5505 C   0  0  0  0  0  0  0  0  0  0  0  0
   26.8888   -9.7211  -20.3458 O   0  0  0  0  0  0  0  0  0  0  0  0
   31.4645   -7.9485  -18.3031 O   0  0  0  0  0  0  0  0  0  0  0  0
   25.4869  -11.1103  -19.1937 N   0  0  0  0  0  0  0  0  0  0  0  0
   24.2956  -10.4629  -19.8302 C   0  0  1  0  0  0  0  0  0  0  0  0
   23.3959  -11.5500  -20.3259 C   0  0  0  0  0  0  0  0  0  0  0  0
   23.6525  -11.9679  -21.7267 C   0  0  0  0  0  0  0  0  0  0  0  0
   22.7408  -12.9945  -22.2591 C   0  0  0  0  0  0  0  0  0  0  0  0
   21.6531  -12.6554  -22.7708 O   0  0  0  0  0  0  0  0  0  0  0  0
   23.6753   -9.6463  -18.7686 C   0  0  0  0  0  0  0  0  0  0  0  0
   23.6551  -10.0945  -17.5667 O   0  0  0  0  0  0  0  0  0  0  0  0
   23.0469  -14.3458  -22.2139 O   0  0  0  0  0  0  0  0  0  0  0  0
   23.0809   -8.3754  -18.9282 N   0  0  0  0  0  0  0  0  0  0  0  0
   22.4610   -7.6679  -17.8066 C   0  0  1  0  0  0  0  0  0  0  0  0
   23.4600   -7.4920  -16.6794 C   0  0  0  0  0  0  0  0  0  0  0  0
   22.9094   -6.6200  -15.6372 C   0  0  0  0  0  0  0  0  0  0  0  0
   22.0347   -7.0028  -14.6482 C   0  0  0  0  0  0  0  0  0  0  0  0
   21.7873   -5.8984  -13.9152 N   0  0  0  0  0  0  0  0  0  0  0  0
   22.4799   -4.8906  -14.4350 C   0  0  0  0  0  0  0  0  0  0  0  0
   23.1724   -5.3184  -15.4913 N   0  0  0  0  0  0  0  0  0  0  0  0
   21.9026   -6.4140  -18.3141 C   0  0  0  0  0  0  0  0  0  0  0  0
   20.9108   -5.7202  -17.6040 O   0  0  0  0  0  0  0  0  0  0  0  0
   22.2896   -5.9137  -19.4027 O   0  0  0  0  0  0  0  0  0  0  0  0
  2  1  1  6
  2  3  1  0
  4  3  1  0
  5  4  1  0
  6  5  2  0
  7  2  1  0
  8  7  2  0
  9  5  1  0
 10  7  1  0
 11 16  1  0
 11 10  1  0
 11 12  1  1
 13 12  1  0
 14 13  1  0
 15 14  2  0
 16 17  2  0
 18 14  1  0
 19 20  1  0
 19 16  1  0
 21 22  1  0
 20 21  1  1
 22 23  2  0
 24 23  1  0
 25 24  1  0
 26 25  2  0
 26 22  1  0
 27 20  1  0
 28 27  1  0
 29 27  2  0
M  END
$$$$
