EEH.pdb
     RDKit          3D

 29 29  0  0  1  0  0  0  0  0999 V2000
   12.9644  -12.0506  -10.3268 N   0  0  0  0  0  0  0  0  0  0  0  0
   14.3971  -11.7940  -10.3359 C   0  0  1  0  0  0  0  0  0  0  0  0
   15.0154  -12.8503  -11.2204 C   0  0  0  0  0  0  0  0  0  0  0  0
   14.9391  -14.2363  -10.6716 C   0  0  0  0  0  0  0  0  0  0  0  0
   15.6489  -15.1330  -11.6050 C   0  0  0  0  0  0  0  0  0  0  0  0
   15.1619  -15.3841  -12.7237 O   0  0  0  0  0  0  0  0  0  0  0  0
   14.6692  -10.4257  -10.7999 C   0  0  0  0  0  0  0  0  0  0  0  0
   14.2111   -9.9388  -11.8611 O   0  0  0  0  0  0  0  0  0  0  0  0
   16.8511  -15.6950  -11.2440 O   0  0  0  0  0  0  0  0  0  0  0  0
   15.5000   -9.5971  -10.0052 N   0  0  0  0  0  0  0  0  0  0  0  0
   15.7843   -8.1931  -10.4425 C   0  0  1  0  0  0  0  0  0  0  0  0
   15.7673   -7.3238   -9.2256 C   0  0  0  0  0  0  0  0  0  0  0  0
   16.0628   -5.8933   -9.4890 C   0  0  0  0  0  0  0  0  0  0  0  0
   15.9765   -5.0024   -8.3198 C   0  0  0  0  0  0  0  0  0  0  0  0
   15.7093   -5.4759   -7.1953 O   0  0  0  0  0  0  0  0  0  0  0  0
   17.1087   -8.2421  -11.0922 C   0  0  0  0  0  0  0  0  0  0  0  0
   18.0808   -8.8204  -10.4869 O   0  0  0  0  0  0  0  0  0  0  0  0
   16.1835   -3.6352   -8.4190 O   0  0  0  0  0  0  0  0  0  0  0  0
   17.4426   -7.7081  -12.3561 N   0  0  0  0  0  0  0  0  0  0  0  0
   18.8067   -7.7705  -12.8836 C   0  0  1  0  0  0  0  0  0  0  0  0
   18.8805   -8.7546  -14.0348 C   0  0  0  0  0  0  0  0  0  0  0  0
   20.2510   -8.8414  -14.5487 C   0  0  0  0  0  0  0  0  0  0  0  0
   21.3360   -9.3366  -13.8651 C   0  0  0  0  0  0  0  0  0  0  0  0
   22.3893   -9.2285  -14.7000 N   0  0  0  0  0  0  0  0  0  0  0  0
   21.9639   -8.6921  -15.8387 C   0  0  0  0  0  0  0  0  0  0  0  0
   20.6549   -8.4495  -15.7602 N   0  0  0  0  0  0  0  0  0  0  0  0
   19.2220   -6.4106  -13.2295 C   0  0  0  0  0  0  0  0  0  0  0  0
   20.5793   -6.0692  -13.3320 O   0  0  0  0  0  0  0  0  0  0  0  0
   18.3800   -5.5000  -13.4465 O   0  0  0  0  0  0  0  0  0  0  0  0
  2  1  1  6
  2  3  1  0
  4  3  1  0
  5  4  1  0
  6  5  2  0
  7  2  1  0
  8  7  2  0
  9  5  1  0
 10  7  1  0
 11 16  1  0
 11 10  1  0
 11 12  1  1
 13 12  1  0
 14 13  1  0
 15 14  2  0
 16 17  2  0
 18 14  1  0
 19 20  1  0
 19 16  1  0
 21 22  1  0
 20 21  1  6
 22 23  2  0
 24 23  1  0
 25 24  1  0
 26 25  2  0
 26 22  1  0
 27 20  1  0
 28 27  1  0
 29 27  2  0
M  END
$$$$
