MDV.pdb
     RDKit          3D

 24 23  0  0  1  0  0  0  0  0999 V2000
   27.7708  -15.4833  -15.2202 C   0  0  0  0  0  0  0  0  0  0  0  0
   26.6855  -16.5824  -16.1416 S   0  0  0  0  0  0  0  0  0  0  0  0
   25.0480  -15.9629  -16.4221 C   0  0  0  0  0  0  0  0  0  0  0  0
   24.7227  -14.5822  -16.0170 C   0  0  0  0  0  0  0  0  0  0  0  0
   23.3581  -14.0559  -16.3184 C   0  0  2  0  0  0  0  0  0  0  0  0
   23.0188  -14.4456  -17.6885 N   0  0  0  0  0  0  0  0  0  0  0  0
   23.4616  -12.5461  -16.3131 C   0  0  0  0  0  0  0  0  0  0  0  0
   23.9749  -11.9567  -15.3276 O   0  0  0  0  0  0  0  0  0  0  0  0
   23.0022  -11.7793  -17.3781 N   0  0  0  0  0  0  0  0  0  0  0  0
   23.0560  -10.3091  -17.3308 C   0  0  1  0  0  0  0  0  0  0  0  0
   23.1686   -9.8853  -18.7701 C   0  0  0  0  0  0  0  0  0  0  0  0
   23.2015   -8.4520  -19.0208 C   0  0  0  0  0  0  0  0  0  0  0  0
   23.1755   -7.5768  -18.1476 O   0  0  0  0  0  0  0  0  0  0  0  0
   21.7202   -9.8075  -16.8172 C   0  0  0  0  0  0  0  0  0  0  0  0
   20.6689  -10.1307  -17.4202 O   0  0  0  0  0  0  0  0  0  0  0  0
   23.2674   -8.0460  -20.3556 O   0  0  0  0  0  0  0  0  0  0  0  0
   19.9018  -10.7030  -14.1550 C   0  0  0  0  0  0  0  0  0  0  0  0
   20.0845   -9.2234  -13.7461 C   0  0  1  0  0  0  0  0  0  0  0  0
   21.2426   -9.2413  -12.7619 C   0  0  0  0  0  0  0  0  0  0  0  0
   20.4478   -8.5060  -15.0319 C   0  0  2  0  0  0  0  0  0  0  0  0
   21.6285   -8.9902  -15.6847 N   0  0  0  0  0  0  0  0  0  0  0  0
   20.5219   -7.0716  -14.7768 C   0  0  0  0  0  0  0  0  0  0  0  0
   21.6414   -6.3237  -15.0355 O   0  0  0  0  0  0  0  0  0  0  0  0
   19.5303   -6.4240  -14.2893 O   0  0  0  0  0  0  0  0  0  0  0  0
  2  1  1  0
  3  2  1  0
  4  3  1  0
  5  4  1  0
  5  7  1  0
  5  6  1  6
  7  8  2  0
  9 10  1  0
  9  7  1  0
 10 14  1  0
 10 11  1  6
 12 11  1  0
 13 12  2  0
 14 15  2  0
 16 12  1  0
 18 17  1  6
 18 19  1  0
 18 20  1  0
 20 22  1  0
 20 21  1  1
 21 14  1  0
 22 24  2  0
 22 23  1  0
M  END
$$$$
