MDV.pdb
     RDKit          3D

 24 23  0  0  1  0  0  0  0  0999 V2000
   10.9436   -9.9013  -15.9583 C   0  0  0  0  0  0  0  0  0  0  0  0
   12.2023  -11.1002  -16.4193 S   0  0  0  0  0  0  0  0  0  0  0  0
   12.6846  -12.2192  -15.1312 C   0  0  0  0  0  0  0  0  0  0  0  0
   13.6036  -11.7489  -14.0773 C   0  0  0  0  0  0  0  0  0  0  0  0
   15.0728  -11.8074  -14.3375 C   0  0  2  0  0  0  0  0  0  0  0  0
   15.5352  -13.1556  -14.0021 N   0  0  0  0  0  0  0  0  0  0  0  0
   15.7290  -10.8684  -13.3485 C   0  0  0  0  0  0  0  0  0  0  0  0
   16.1107  -11.3022  -12.2313 O   0  0  0  0  0  0  0  0  0  0  0  0
   15.9274   -9.5236  -13.6401 N   0  0  0  0  0  0  0  0  0  0  0  0
   16.6907   -8.6561  -12.7282 C   0  0  1  0  0  0  0  0  0  0  0  0
   17.5516   -7.8163  -13.6324 C   0  0  0  0  0  0  0  0  0  0  0  0
   18.3782   -6.8088  -12.9845 C   0  0  0  0  0  0  0  0  0  0  0  0
   18.8213   -6.8860  -11.8328 O   0  0  0  0  0  0  0  0  0  0  0  0
   15.7130   -7.7215  -12.0424 C   0  0  0  0  0  0  0  0  0  0  0  0
   14.8140   -7.1674  -12.7192 O   0  0  0  0  0  0  0  0  0  0  0  0
   18.6883   -5.6706  -13.7324 O   0  0  0  0  0  0  0  0  0  0  0  0
   15.8226   -7.2765   -7.7242 C   0  0  0  0  0  0  0  0  0  0  0  0
   14.5227   -7.1390   -8.5496 C   0  0  1  0  0  0  0  0  0  0  0  0
   13.6823   -6.1398   -7.7714 C   0  0  0  0  0  0  0  0  0  0  0  0
   14.9680   -6.5807   -9.8874 C   0  0  2  0  0  0  0  0  0  0  0  0
   15.7873   -7.4590  -10.6697 N   0  0  0  0  0  0  0  0  0  0  0  0
   15.6098   -5.2875   -9.6783 C   0  0  0  0  0  0  0  0  0  0  0  0
   14.9065   -4.1306   -9.4626 O   0  0  0  0  0  0  0  0  0  0  0  0
   16.8843   -5.1611   -9.6860 O   0  0  0  0  0  0  0  0  0  0  0  0
  2  1  1  0
  3  2  1  0
  4  3  1  0
  5  4  1  0
  5  7  1  0
  5  6  1  1
  7  8  2  0
  9 10  1  0
  9  7  1  0
 10 14  1  0
 10 11  1  6
 12 11  1  0
 13 12  2  0
 14 15  2  0
 16 12  1  0
 18 17  1  1
 18 19  1  0
 18 20  1  0
 20 22  1  0
 20 21  1  1
 21 14  1  0
 22 24  2  0
 22 23  1  0
M  END
$$$$
