MDV.pdb
     RDKit          3D

 24 23  0  0  1  0  0  0  0  0999 V2000
   27.6502  -24.9383  -16.7137 C   0  0  0  0  0  0  0  0  0  0  0  0
   29.0183  -23.9601  -17.3509 S   0  0  0  0  0  0  0  0  0  0  0  0
   29.5964  -22.6793  -16.2696 C   0  0  0  0  0  0  0  0  0  0  0  0
   28.6757  -21.5922  -15.8863 C   0  0  0  0  0  0  0  0  0  0  0  0
   27.8270  -20.9726  -16.9472 C   0  0  2  0  0  0  0  0  0  0  0  0
   28.6182  -19.9296  -17.6034 N   0  0  0  0  0  0  0  0  0  0  0  0
   26.6888  -20.2691  -16.2402 C   0  0  0  0  0  0  0  0  0  0  0  0
   26.8979  -19.1806  -15.6457 O   0  0  0  0  0  0  0  0  0  0  0  0
   25.4014  -20.7941  -16.2281 N   0  0  0  0  0  0  0  0  0  0  0  0
   24.3133  -20.1135  -15.5073 C   0  0  1  0  0  0  0  0  0  0  0  0
   23.1760  -20.0654  -16.4913 C   0  0  0  0  0  0  0  0  0  0  0  0
   21.9453  -19.4431  -16.0262 C   0  0  0  0  0  0  0  0  0  0  0  0
   20.8236  -19.6386  -16.5083 O   0  0  0  0  0  0  0  0  0  0  0  0
   23.8794  -21.0069  -14.3614 C   0  0  0  0  0  0  0  0  0  0  0  0
   23.6373  -22.2175  -14.5831 O   0  0  0  0  0  0  0  0  0  0  0  0
   22.0528  -18.5581  -14.9509 O   0  0  0  0  0  0  0  0  0  0  0  0
   25.6741  -21.2094  -11.0876 C   0  0  0  0  0  0  0  0  0  0  0  0
   24.2193  -20.9231  -10.6499 C   0  0  1  0  0  0  0  0  0  0  0  0
   24.2077  -19.4404  -10.3160 C   0  0  0  0  0  0  0  0  0  0  0  0
   23.3767  -21.2328  -11.8722 C   0  0  2  0  0  0  0  0  0  0  0  0
   23.7407  -20.5152  -13.0584 N   0  0  0  0  0  0  0  0  0  0  0  0
   21.9674  -21.0508  -11.5424 C   0  0  0  0  0  0  0  0  0  0  0  0
   21.1681  -20.1264  -12.1638 O   0  0  0  0  0  0  0  0  0  0  0  0
   21.3923  -21.7549  -10.6402 O   0  0  0  0  0  0  0  0  0  0  0  0
  2  1  1  0
  3  2  1  0
  4  3  1  0
  5  4  1  0
  5  7  1  0
  5  6  1  1
  7  8  2  0
  9 10  1  0
  9  7  1  0
 10 14  1  0
 10 11  1  6
 12 11  1  0
 13 12  2  0
 14 15  2  0
 16 12  1  0
 18 17  1  6
 18 19  1  0
 18 20  1  0
 20 22  1  0
 20 21  1  6
 21 14  1  0
 22 24  2  0
 22 23  1  0
M  END
$$$$
