MDV.pdb
     RDKit          3D

 24 23  0  0  1  0  0  0  0  0999 V2000
   27.9932  -14.2528  -15.0817 C   0  0  0  0  0  0  0  0  0  0  0  0
   27.0199  -12.7818  -15.4331 S   0  0  0  0  0  0  0  0  0  0  0  0
   25.3160  -13.0811  -15.8219 C   0  0  0  0  0  0  0  0  0  0  0  0
   24.4259  -11.9338  -16.0822 C   0  0  0  0  0  0  0  0  0  0  0  0
   23.0104  -12.2066  -16.4717 C   0  0  2  0  0  0  0  0  0  0  0  0
   23.0253  -12.9104  -17.7557 N   0  0  0  0  0  0  0  0  0  0  0  0
   22.3606  -10.8634  -16.7244 C   0  0  0  0  0  0  0  0  0  0  0  0
   22.5007  -10.2995  -17.8399 O   0  0  0  0  0  0  0  0  0  0  0  0
   21.6020  -10.2247  -15.7497 N   0  0  0  0  0  0  0  0  0  0  0  0
   20.8958   -8.9671  -16.0439 C   0  0  1  0  0  0  0  0  0  0  0  0
   19.5462   -9.1279  -15.3984 C   0  0  0  0  0  0  0  0  0  0  0  0
   18.6249  -10.0483  -16.0483 C   0  0  0  0  0  0  0  0  0  0  0  0
   18.5999  -10.2915  -17.2604 O   0  0  0  0  0  0  0  0  0  0  0  0
   21.6121   -7.8461  -15.3158 C   0  0  0  0  0  0  0  0  0  0  0  0
   22.0891   -8.0595  -14.1756 O   0  0  0  0  0  0  0  0  0  0  0  0
   17.7020  -10.7015  -15.2283 O   0  0  0  0  0  0  0  0  0  0  0  0
   22.3018   -4.1291  -17.4096 C   0  0  0  0  0  0  0  0  0  0  0  0
   23.3384   -4.7352  -16.4360 C   0  0  1  0  0  0  0  0  0  0  0  0
   24.0585   -3.5317  -15.8501 C   0  0  0  0  0  0  0  0  0  0  0  0
   22.5134   -5.4624  -15.3918 C   0  0  2  0  0  0  0  0  0  0  0  0
   21.7551   -6.5749  -15.8837 N   0  0  0  0  0  0  0  0  0  0  0  0
   21.6685   -4.5006  -14.6923 C   0  0  0  0  0  0  0  0  0  0  0  0
   22.1432   -3.6562  -13.7222 O   0  0  0  0  0  0  0  0  0  0  0  0
   20.4186   -4.3922  -14.9501 O   0  0  0  0  0  0  0  0  0  0  0  0
  2  1  1  0
  3  2  1  0
  4  3  1  0
  5  4  1  0
  5  7  1  0
  5  6  1  6
  7  8  2  0
  9 10  1  0
  9  7  1  0
 10 14  1  0
 10 11  1  1
 12 11  1  0
 13 12  2  0
 14 15  2  0
 16 12  1  0
 18 17  1  6
 18 19  1  0
 18 20  1  0
 20 22  1  0
 20 21  1  6
 21 14  1  0
 22 24  2  0
 22 23  1  0
M  END
$$$$
