MDV.pdb
     RDKit          3D

 24 23  0  0  1  0  0  0  0  0999 V2000
   17.6902  -16.0603  -16.2307 C   0  0  0  0  0  0  0  0  0  0  0  0
   17.7455  -14.5416  -15.2688 S   0  0  0  0  0  0  0  0  0  0  0  0
   17.7827  -13.0470  -16.2223 C   0  0  0  0  0  0  0  0  0  0  0  0
   17.8287  -11.7491  -15.5226 C   0  0  0  0  0  0  0  0  0  0  0  0
   16.7087  -11.3997  -14.5989 C   0  0  2  0  0  0  0  0  0  0  0  0
   15.6017  -10.8870  -15.4087 N   0  0  0  0  0  0  0  0  0  0  0  0
   17.1897  -10.2451  -13.7468 C   0  0  0  0  0  0  0  0  0  0  0  0
   18.1372  -10.4160  -12.9374 O   0  0  0  0  0  0  0  0  0  0  0  0
   16.6106   -8.9840  -13.8325 N   0  0  0  0  0  0  0  0  0  0  0  0
   17.1546   -7.8481  -13.0705 C   0  0  1  0  0  0  0  0  0  0  0  0
   17.3702   -6.7690  -14.0966 C   0  0  0  0  0  0  0  0  0  0  0  0
   17.8476   -5.4882  -13.5967 C   0  0  0  0  0  0  0  0  0  0  0  0
   18.6448   -5.3421  -12.6629 O   0  0  0  0  0  0  0  0  0  0  0  0
   16.0758   -7.3594  -12.1233 C   0  0  0  0  0  0  0  0  0  0  0  0
   14.9158   -7.1667  -12.5596 O   0  0  0  0  0  0  0  0  0  0  0  0
   17.3598   -4.3423  -14.2291 O   0  0  0  0  0  0  0  0  0  0  0  0
   14.0442   -6.6178   -7.8364 C   0  0  0  0  0  0  0  0  0  0  0  0
   15.0643   -7.4387   -8.6582 C   0  0  1  0  0  0  0  0  0  0  0  0
   14.2721   -8.6338   -9.1626 C   0  0  0  0  0  0  0  0  0  0  0  0
   15.4817   -6.5201   -9.7904 C   0  0  2  0  0  0  0  0  0  0  0  0
   16.3408   -7.1162  -10.7708 N   0  0  0  0  0  0  0  0  0  0  0  0
   16.0620   -5.3036   -9.2324 C   0  0  0  0  0  0  0  0  0  0  0  0
   15.3101   -4.2182   -8.8636 O   0  0  0  0  0  0  0  0  0  0  0  0
   17.3246   -5.1818   -9.0552 O   0  0  0  0  0  0  0  0  0  0  0  0
  2  1  1  0
  3  2  1  0
  4  3  1  0
  5  4  1  0
  5  7  1  0
  5  6  1  6
  7  8  2  0
  9 10  1  0
  9  7  1  0
 10 14  1  0
 10 11  1  6
 12 11  1  0
 13 12  2  0
 14 15  2  0
 16 12  1  0
 18 17  1  1
 18 19  1  0
 18 20  1  0
 20 22  1  0
 20 21  1  6
 21 14  1  0
 22 24  2  0
 22 23  1  0
M  END
$$$$
