MDV.pdb
     RDKit          3D

 24 23  0  0  1  0  0  0  0  0999 V2000
   17.1458  -25.9488    1.9708 C   0  0  0  0  0  0  0  0  0  0  0  0
   15.3794  -25.7622    2.2532 S   0  0  0  0  0  0  0  0  0  0  0  0
   14.7548  -24.1146    2.0546 C   0  0  0  0  0  0  0  0  0  0  0  0
   15.5147  -22.9846    2.6218 C   0  0  0  0  0  0  0  0  0  0  0  0
   15.0605  -21.5962    2.3125 C   0  0  2  0  0  0  0  0  0  0  0  0
   15.4014  -21.3123    0.9169 N   0  0  0  0  0  0  0  0  0  0  0  0
   15.8995  -20.6636    3.1590 C   0  0  0  0  0  0  0  0  0  0  0  0
   16.8826  -20.0678    2.6484 O   0  0  0  0  0  0  0  0  0  0  0  0
   15.6135  -20.4402    4.5012 N   0  0  0  0  0  0  0  0  0  0  0  0
   16.3745  -19.4520    5.2829 C   0  0  1  0  0  0  0  0  0  0  0  0
   15.3567  -18.8212    6.1941 C   0  0  0  0  0  0  0  0  0  0  0  0
   15.2628  -17.3695    6.1507 C   0  0  0  0  0  0  0  0  0  0  0  0
   16.0168  -16.6271    5.5110 O   0  0  0  0  0  0  0  0  0  0  0  0
   17.3578  -20.2041    6.1589 C   0  0  0  0  0  0  0  0  0  0  0  0
   16.9907  -21.2587    6.7301 O   0  0  0  0  0  0  0  0  0  0  0  0
   14.2369  -16.7810    6.8939 O   0  0  0  0  0  0  0  0  0  0  0  0
   21.3820  -19.4457    5.6719 C   0  0  0  0  0  0  0  0  0  0  0  0
   21.0119  -19.5681    7.1678 C   0  0  1  0  0  0  0  0  0  0  0  0
   20.8573  -18.1317    7.6398 C   0  0  0  0  0  0  0  0  0  0  0  0
   19.6904  -20.3120    7.1824 C   0  0  2  0  0  0  0  0  0  0  0  0
   18.6684  -19.7512    6.3483 N   0  0  0  0  0  0  0  0  0  0  0  0
   19.2393  -20.4623    8.5615 C   0  0  0  0  0  0  0  0  0  0  0  0
   19.7356  -21.4179    9.4100 O   0  0  0  0  0  0  0  0  0  0  0  0
   18.3409  -19.6983    9.0614 O   0  0  0  0  0  0  0  0  0  0  0  0
  2  1  1  0
  3  2  1  0
  4  3  1  0
  5  4  1  0
  5  7  1  0
  5  6  1  6
  7  8  2  0
  9 10  1  0
  9  7  1  0
 10 14  1  0
 10 11  1  1
 12 11  1  0
 13 12  2  0
 14 15  2  0
 16 12  1  0
 18 17  1  6
 18 19  1  0
 18 20  1  0
 20 22  1  0
 20 21  1  6
 21 14  1  0
 22 24  2  0
 22 23  1  0
M  END
$$$$
