MDV.pdb
     RDKit          3D

 24 23  0  0  1  0  0  0  0  0999 V2000
   27.6637  -29.3057  -17.8096 C   0  0  0  0  0  0  0  0  0  0  0  0
   26.1626  -28.3646  -18.1189 S   0  0  0  0  0  0  0  0  0  0  0  0
   25.5933  -27.3849  -16.7550 C   0  0  0  0  0  0  0  0  0  0  0  0
   26.4537  -26.3038  -16.2380 C   0  0  0  0  0  0  0  0  0  0  0  0
   26.8433  -25.2005  -17.1657 C   0  0  2  0  0  0  0  0  0  0  0  0
   28.2528  -25.3853  -17.5169 N   0  0  0  0  0  0  0  0  0  0  0  0
   26.7622  -23.9141  -16.3726 C   0  0  0  0  0  0  0  0  0  0  0  0
   27.7676  -23.5057  -15.7368 O   0  0  0  0  0  0  0  0  0  0  0  0
   25.5961  -23.1584  -16.3249 N   0  0  0  0  0  0  0  0  0  0  0  0
   25.5569  -21.8716  -15.6112 C   0  0  1  0  0  0  0  0  0  0  0  0
   24.7814  -20.9558  -16.5189 C   0  0  0  0  0  0  0  0  0  0  0  0
   25.4976  -20.4310  -17.6720 C   0  0  0  0  0  0  0  0  0  0  0  0
   26.7255  -20.3099  -17.7515 O   0  0  0  0  0  0  0  0  0  0  0  0
   24.7339  -22.0593  -14.3514 C   0  0  0  0  0  0  0  0  0  0  0  0
   23.6767  -22.7324  -14.4021 O   0  0  0  0  0  0  0  0  0  0  0  0
   24.7266  -20.0366  -18.7679 O   0  0  0  0  0  0  0  0  0  0  0  0
   26.4823  -21.7957  -10.6906 C   0  0  0  0  0  0  0  0  0  0  0  0
   25.1814  -20.9605  -10.6997 C   0  0  1  0  0  0  0  0  0  0  0  0
   25.6502  -19.5291  -10.9031 C   0  0  0  0  0  0  0  0  0  0  0  0
   24.3982  -21.4727  -11.8931 C   0  0  2  0  0  0  0  0  0  0  0  0
   25.1232  -21.4991  -13.1294 N   0  0  0  0  0  0  0  0  0  0  0  0
   23.1559  -20.7172  -12.0120 C   0  0  0  0  0  0  0  0  0  0  0  0
   22.1182  -20.8413  -11.1247 O   0  0  0  0  0  0  0  0  0  0  0  0
   22.9646  -19.8852  -12.9668 O   0  0  0  0  0  0  0  0  0  0  0  0
  2  1  1  0
  3  2  1  0
  4  3  1  0
  5  4  1  0
  5  7  1  0
  5  6  1  1
  7  8  2  0
  9 10  1  0
  9  7  1  0
 10 14  1  0
 10 11  1  6
 12 11  1  0
 13 12  2  0
 14 15  2  0
 16 12  1  0
 18 17  1  6
 18 19  1  0
 18 20  1  0
 20 22  1  0
 20 21  1  6
 21 14  1  0
 22 24  2  0
 22 23  1  0
M  END
$$$$
