MDV.pdb
     RDKit          3D

 24 23  0  0  1  0  0  0  0  0999 V2000
   13.6791  -16.1274  -16.1283 C   0  0  0  0  0  0  0  0  0  0  0  0
   15.4013  -15.8803  -16.5840 S   0  0  0  0  0  0  0  0  0  0  0  0
   15.9578  -14.1973  -16.5410 C   0  0  0  0  0  0  0  0  0  0  0  0
   17.3851  -13.9061  -16.7740 C   0  0  0  0  0  0  0  0  0  0  0  0
   17.8100  -13.4826  -18.1414 C   0  0  2  0  0  0  0  0  0  0  0  0
   18.4930  -14.6149  -18.7705 N   0  0  0  0  0  0  0  0  0  0  0  0
   18.8507  -12.3991  -17.9592 C   0  0  0  0  0  0  0  0  0  0  0  0
   20.0630  -12.7096  -17.8333 O   0  0  0  0  0  0  0  0  0  0  0  0
   18.5048  -11.0528  -17.9275 N   0  0  0  0  0  0  0  0  0  0  0  0
   19.5390  -10.0069  -17.8709 C   0  0  1  0  0  0  0  0  0  0  0  0
   18.9355   -8.8346  -18.5959 C   0  0  0  0  0  0  0  0  0  0  0  0
   19.7667   -7.6448  -18.7046 C   0  0  0  0  0  0  0  0  0  0  0  0
   20.9119   -7.5339  -18.2518 O   0  0  0  0  0  0  0  0  0  0  0  0
   19.7133   -9.5980  -16.4210 C   0  0  0  0  0  0  0  0  0  0  0  0
   18.7043   -9.5111  -15.6810 O   0  0  0  0  0  0  0  0  0  0  0  0
   19.2166   -6.5498  -19.3749 O   0  0  0  0  0  0  0  0  0  0  0  0
   22.0222  -11.1942  -14.0052 C   0  0  0  0  0  0  0  0  0  0  0  0
   22.4516   -9.7116  -13.9210 C   0  0  1  0  0  0  0  0  0  0  0  0
   23.7105   -9.6318  -14.7688 C   0  0  0  0  0  0  0  0  0  0  0  0
   21.3040   -8.9379  -14.5411 C   0  0  2  0  0  0  0  0  0  0  0  0
   20.9742   -9.3133  -15.8846 N   0  0  0  0  0  0  0  0  0  0  0  0
   21.5736   -7.5085  -14.4308 C   0  0  0  0  0  0  0  0  0  0  0  0
   21.6357   -6.8505  -13.2297 O   0  0  0  0  0  0  0  0  0  0  0  0
   21.7689   -6.7800  -15.4660 O   0  0  0  0  0  0  0  0  0  0  0  0
  2  1  1  0
  3  2  1  0
  4  3  1  0
  5  4  1  0
  5  7  1  0
  5  6  1  1
  7  8  2  0
  9 10  1  0
  9  7  1  0
 10 14  1  0
 10 11  1  6
 12 11  1  0
 13 12  2  0
 14 15  2  0
 16 12  1  0
 18 17  1  6
 18 19  1  0
 18 20  1  0
 20 22  1  0
 20 21  1  6
 21 14  1  0
 22 24  2  0
 22 23  1  0
M  END
$$$$
