MDV.pdb
     RDKit          3D

 24 23  0  0  1  0  0  0  0  0999 V2000
   17.7096  -14.3563  -19.6150 C   0  0  0  0  0  0  0  0  0  0  0  0
   17.2929  -15.2224  -18.0948 S   0  0  0  0  0  0  0  0  0  0  0  0
   17.3669  -14.2375  -16.6222 C   0  0  0  0  0  0  0  0  0  0  0  0
   17.9078  -12.8672  -16.7005 C   0  0  0  0  0  0  0  0  0  0  0  0
   17.9491  -12.0473  -15.4532 C   0  0  2  0  0  0  0  0  0  0  0  0
   16.5888  -11.9781  -14.9156 N   0  0  0  0  0  0  0  0  0  0  0  0
   18.3204  -10.6400  -15.8680 C   0  0  0  0  0  0  0  0  0  0  0  0
   19.4084  -10.4285  -16.4625 O   0  0  0  0  0  0  0  0  0  0  0  0
   17.4848   -9.5589  -15.6107 N   0  0  0  0  0  0  0  0  0  0  0  0
   17.7974   -8.2193  -16.1347 C   0  0  1  0  0  0  0  0  0  0  0  0
   16.4562   -7.5943  -16.4079 C   0  0  0  0  0  0  0  0  0  0  0  0
   15.7262   -8.1085  -17.5573 C   0  0  0  0  0  0  0  0  0  0  0  0
   14.6208   -8.6603  -17.5085 O   0  0  0  0  0  0  0  0  0  0  0  0
   18.4476   -7.4206  -15.0215 C   0  0  0  0  0  0  0  0  0  0  0  0
   17.9665   -7.4742  -13.8644 O   0  0  0  0  0  0  0  0  0  0  0  0
   16.3321   -7.9611  -18.8072 O   0  0  0  0  0  0  0  0  0  0  0  0
   22.4031   -5.9471  -15.6353 C   0  0  0  0  0  0  0  0  0  0  0  0
   21.8376   -6.3476  -14.2535 C   0  0  1  0  0  0  0  0  0  0  0  0
   22.6385   -5.5208  -13.2610 C   0  0  0  0  0  0  0  0  0  0  0  0
   20.3810   -5.9273  -14.2921 C   0  0  2  0  0  0  0  0  0  0  0  0
   19.5737   -6.6220  -15.2514 N   0  0  0  0  0  0  0  0  0  0  0  0
   20.3030   -4.4812  -14.4673 C   0  0  0  0  0  0  0  0  0  0  0  0
   20.5451   -3.5916  -13.4527 O   0  0  0  0  0  0  0  0  0  0  0  0
   19.9988   -3.9568  -15.5955 O   0  0  0  0  0  0  0  0  0  0  0  0
  2  1  1  0
  3  2  1  0
  4  3  1  0
  5  4  1  0
  5  7  1  0
  5  6  1  6
  7  8  2  0
  9 10  1  0
  9  7  1  0
 10 14  1  0
 10 11  1  1
 12 11  1  0
 13 12  2  0
 14 15  2  0
 16 12  1  0
 18 17  1  6
 18 19  1  0
 18 20  1  0
 20 22  1  0
 20 21  1  6
 21 14  1  0
 22 24  2  0
 22 23  1  0
M  END
$$$$
