MDV.pdb
     RDKit          3D

 24 23  0  0  1  0  0  0  0  0999 V2000
   27.2666  -12.1952  -14.6938 C   0  0  0  0  0  0  0  0  0  0  0  0
   27.5648  -13.0072  -16.2706 S   0  0  0  0  0  0  0  0  0  0  0  0
   26.1638  -13.0851  -17.3546 C   0  0  0  0  0  0  0  0  0  0  0  0
   25.2166  -11.9546  -17.3873 C   0  0  0  0  0  0  0  0  0  0  0  0
   23.7871  -12.2151  -17.0433 C   0  0  2  0  0  0  0  0  0  0  0  0
   23.2324  -13.1013  -18.0685 N   0  0  0  0  0  0  0  0  0  0  0  0
   23.0588  -10.8950  -17.1753 C   0  0  0  0  0  0  0  0  0  0  0  0
   23.0357  -10.3003  -18.2833 O   0  0  0  0  0  0  0  0  0  0  0  0
   22.4044  -10.3115  -16.0962 N   0  0  0  0  0  0  0  0  0  0  0  0
   21.5742   -9.1091  -16.2748 C   0  0  1  0  0  0  0  0  0  0  0  0
   20.2574   -9.4566  -15.6352 C   0  0  0  0  0  0  0  0  0  0  0  0
   19.4812  -10.5038  -16.2826 C   0  0  0  0  0  0  0  0  0  0  0  0
   19.2733  -10.5859  -17.4987 O   0  0  0  0  0  0  0  0  0  0  0  0
   22.1895   -7.9892  -15.4582 C   0  0  0  0  0  0  0  0  0  0  0  0
   22.7353   -8.2565  -14.3610 O   0  0  0  0  0  0  0  0  0  0  0  0
   18.9336  -11.4867  -15.4549 O   0  0  0  0  0  0  0  0  0  0  0  0
   24.1972   -5.2500  -17.3552 C   0  0  0  0  0  0  0  0  0  0  0  0
   23.2869   -4.4885  -16.3645 C   0  0  1  0  0  0  0  0  0  0  0  0
   22.1199   -4.0092  -17.2122 C   0  0  0  0  0  0  0  0  0  0  0  0
   22.8570   -5.5309  -15.3504 C   0  0  2  0  0  0  0  0  0  0  0  0
   22.1642   -6.6605  -15.8971 N   0  0  0  0  0  0  0  0  0  0  0  0
   22.0858   -4.8841  -14.2945 C   0  0  0  0  0  0  0  0  0  0  0  0
   22.6487   -4.0541  -13.3598 O   0  0  0  0  0  0  0  0  0  0  0  0
   20.8222   -5.0601  -14.1817 O   0  0  0  0  0  0  0  0  0  0  0  0
  2  1  1  0
  3  2  1  0
  4  3  1  0
  5  4  1  0
  5  7  1  0
  5  6  1  6
  7  8  2  0
  9 10  1  0
  9  7  1  0
 10 14  1  0
 10 11  1  1
 12 11  1  0
 13 12  2  0
 14 15  2  0
 16 12  1  0
 18 17  1  6
 18 19  1  0
 18 20  1  0
 20 22  1  0
 20 21  1  6
 21 14  1  0
 22 24  2  0
 22 23  1  0
M  END
$$$$
