MDV.pdb
     RDKit          3D

 24 23  0  0  1  0  0  0  0  0999 V2000
   16.5567  -14.6643  -19.1257 C   0  0  0  0  0  0  0  0  0  0  0  0
   18.1516  -15.4888  -19.2308 S   0  0  0  0  0  0  0  0  0  0  0  0
   19.5560  -14.4568  -18.9044 C   0  0  0  0  0  0  0  0  0  0  0  0
   19.3420  -13.1042  -18.3557 C   0  0  0  0  0  0  0  0  0  0  0  0
   20.4894  -12.4170  -17.6916 C   0  0  2  0  0  0  0  0  0  0  0  0
   20.8201  -13.1660  -16.4776 N   0  0  0  0  0  0  0  0  0  0  0  0
   19.9849  -11.0639  -17.2387 C   0  0  0  0  0  0  0  0  0  0  0  0
   19.6334  -10.2088  -18.0915 O   0  0  0  0  0  0  0  0  0  0  0  0
   19.8952  -10.7319  -15.8916 N   0  0  0  0  0  0  0  0  0  0  0  0
   19.3934   -9.4143  -15.4687 C   0  0  1  0  0  0  0  0  0  0  0  0
   18.3699   -9.7186  -14.4085 C   0  0  0  0  0  0  0  0  0  0  0  0
   17.1285  -10.3262  -14.8646 C   0  0  0  0  0  0  0  0  0  0  0  0
   16.6817  -11.4105  -14.4728 O   0  0  0  0  0  0  0  0  0  0  0  0
   20.5321   -8.6732  -14.7951 C   0  0  0  0  0  0  0  0  0  0  0  0
   21.1412   -9.2163  -13.8427 O   0  0  0  0  0  0  0  0  0  0  0  0
   16.3936   -9.6196  -15.8195 O   0  0  0  0  0  0  0  0  0  0  0  0
   23.3537   -7.2874  -16.7220 C   0  0  0  0  0  0  0  0  0  0  0  0
   22.9079   -6.0589  -15.8962 C   0  0  1  0  0  0  0  0  0  0  0  0
   22.0851   -5.2272  -16.8663 C   0  0  0  0  0  0  0  0  0  0  0  0
   22.0560   -6.6292  -14.7786 C   0  0  2  0  0  0  0  0  0  0  0  0
   20.9229   -7.3945  -15.2088 N   0  0  0  0  0  0  0  0  0  0  0  0
   21.6680   -5.5528  -13.8736 C   0  0  0  0  0  0  0  0  0  0  0  0
   22.5536   -4.9255  -13.0360 O   0  0  0  0  0  0  0  0  0  0  0  0
   20.4606   -5.1300  -13.8114 O   0  0  0  0  0  0  0  0  0  0  0  0
  2  1  1  0
  3  2  1  0
  4  3  1  0
  5  4  1  0
  5  7  1  0
  5  6  1  1
  7  8  2  0
  9 10  1  0
  9  7  1  0
 10 14  1  0
 10 11  1  1
 12 11  1  0
 13 12  2  0
 14 15  2  0
 16 12  1  0
 18 17  1  6
 18 19  1  0
 18 20  1  0
 20 22  1  0
 20 21  1  6
 21 14  1  0
 22 24  2  0
 22 23  1  0
M  END
$$$$
