MDV.pdb
     RDKit          3D

 24 23  0  0  1  0  0  0  0  0999 V2000
   17.0211  -15.7231  -19.5788 C   0  0  0  0  0  0  0  0  0  0  0  0
   18.5547  -15.4845  -20.4876 S   0  0  0  0  0  0  0  0  0  0  0  0
   19.8922  -14.8047  -19.5426 C   0  0  0  0  0  0  0  0  0  0  0  0
   19.7062  -13.5085  -18.8631 C   0  0  0  0  0  0  0  0  0  0  0  0
   20.8293  -12.9705  -18.0392 C   0  0  2  0  0  0  0  0  0  0  0  0
   21.1113  -13.9384  -16.9771 N   0  0  0  0  0  0  0  0  0  0  0  0
   20.3119  -11.7221  -17.3580 C   0  0  0  0  0  0  0  0  0  0  0  0
   19.2758  -11.7799  -16.6472 O   0  0  0  0  0  0  0  0  0  0  0  0
   20.9550  -10.4968  -17.4935 N   0  0  0  0  0  0  0  0  0  0  0  0
   20.4190   -9.2857  -16.8512 C   0  0  1  0  0  0  0  0  0  0  0  0
   20.5820   -9.5327  -15.3759 C   0  0  0  0  0  0  0  0  0  0  0  0
   20.0759   -8.4967  -14.4878 C   0  0  0  0  0  0  0  0  0  0  0  0
   19.4601   -7.4878  -14.8506 O   0  0  0  0  0  0  0  0  0  0  0  0
   21.3222   -8.1232  -17.2153 C   0  0  0  0  0  0  0  0  0  0  0  0
   22.5666   -8.2740  -17.1708 O   0  0  0  0  0  0  0  0  0  0  0  0
   20.3106   -8.6668  -13.1214 O   0  0  0  0  0  0  0  0  0  0  0  0
   22.2849   -4.4313  -20.0324 C   0  0  0  0  0  0  0  0  0  0  0  0
   21.2900   -5.5496  -19.6459 C   0  0  1  0  0  0  0  0  0  0  0  0
   21.7378   -6.7539  -20.4578 C   0  0  0  0  0  0  0  0  0  0  0  0
   21.5008   -5.7616  -18.1591 C   0  0  2  0  0  0  0  0  0  0  0  0
   20.8028   -6.8820  -17.6004 N   0  0  0  0  0  0  0  0  0  0  0  0
   21.1923   -4.5250  -17.4493 C   0  0  0  0  0  0  0  0  0  0  0  0
   22.1573   -3.6981  -16.9351 O   0  0  0  0  0  0  0  0  0  0  0  0
   19.9848   -4.1398  -17.2649 O   0  0  0  0  0  0  0  0  0  0  0  0
  2  1  1  0
  3  2  1  0
  4  3  1  0
  5  4  1  0
  5  7  1  0
  5  6  1  1
  7  8  2  0
  9 10  1  0
  9  7  1  0
 10 14  1  0
 10 11  1  1
 12 11  1  0
 13 12  2  0
 14 15  2  0
 16 12  1  0
 18 17  1  6
 18 19  1  0
 18 20  1  0
 20 22  1  0
 20 21  1  1
 21 14  1  0
 22 24  2  0
 22 23  1  0
M  END
$$$$
