MDV.pdb
     RDKit          3D

 24 23  0  0  1  0  0  0  0  0999 V2000
   24.5809  -18.4739  -15.5856 C   0  0  0  0  0  0  0  0  0  0  0  0
   24.2560  -16.8271  -16.2313 S   0  0  0  0  0  0  0  0  0  0  0  0
   25.2950  -15.5451  -15.5826 C   0  0  0  0  0  0  0  0  0  0  0  0
   25.1113  -14.1610  -16.0590 C   0  0  0  0  0  0  0  0  0  0  0  0
   24.7223  -13.9458  -17.4845 C   0  0  2  0  0  0  0  0  0  0  0  0
   25.8366  -14.3871  -18.3258 N   0  0  0  0  0  0  0  0  0  0  0  0
   24.5991  -12.4505  -17.6824 C   0  0  0  0  0  0  0  0  0  0  0  0
   25.5014  -11.8230  -18.2941 O   0  0  0  0  0  0  0  0  0  0  0  0
   23.5045  -11.7388  -17.2044 N   0  0  0  0  0  0  0  0  0  0  0  0
   23.2817  -10.3382  -17.5987 C   0  0  1  0  0  0  0  0  0  0  0  0
   22.9352  -10.4045  -19.0614 C   0  0  0  0  0  0  0  0  0  0  0  0
   22.6394   -9.1373  -19.7132 C   0  0  0  0  0  0  0  0  0  0  0  0
   22.1401   -9.0158  -20.8379 O   0  0  0  0  0  0  0  0  0  0  0  0
   22.0521   -9.8353  -16.8673 C   0  0  0  0  0  0  0  0  0  0  0  0
   20.9550  -10.4198  -17.0349 O   0  0  0  0  0  0  0  0  0  0  0  0
   22.9483   -7.9749  -19.0028 O   0  0  0  0  0  0  0  0  0  0  0  0
   20.1653   -8.2887  -12.8218 C   0  0  0  0  0  0  0  0  0  0  0  0
   21.4292   -8.6964  -13.6132 C   0  0  1  0  0  0  0  0  0  0  0  0
   21.5121  -10.2049  -13.4459 C   0  0  0  0  0  0  0  0  0  0  0  0
   21.1341   -8.3033  -15.0479 C   0  0  2  0  0  0  0  0  0  0  0  0
   22.1084   -8.7323  -16.0078 N   0  0  0  0  0  0  0  0  0  0  0  0
   20.9084   -6.8636  -15.1144 C   0  0  0  0  0  0  0  0  0  0  0  0
   21.7889   -5.9961  -15.7074 O   0  0  0  0  0  0  0  0  0  0  0  0
   19.8600   -6.3243  -14.6142 O   0  0  0  0  0  0  0  0  0  0  0  0
  2  1  1  0
  3  2  1  0
  4  3  1  0
  5  4  1  0
  5  7  1  0
  5  6  1  6
  7  8  2  0
  9 10  1  0
  9  7  1  0
 10 14  1  0
 10 11  1  6
 12 11  1  0
 13 12  2  0
 14 15  2  0
 16 12  1  0
 18 17  1  1
 18 19  1  0
 18 20  1  0
 20 22  1  0
 20 21  1  6
 21 14  1  0
 22 24  2  0
 22 23  1  0
M  END
$$$$
