MDV.pdb
     RDKit          3D

 24 23  0  0  1  0  0  0  0  0999 V2000
   30.3587  -23.3562  -15.7989 C   0  0  0  0  0  0  0  0  0  0  0  0
   30.0820  -23.5764  -17.5624 S   0  0  0  0  0  0  0  0  0  0  0  0
   29.1283  -22.3000  -18.3403 C   0  0  0  0  0  0  0  0  0  0  0  0
   28.1670  -21.5267  -17.5314 C   0  0  0  0  0  0  0  0  0  0  0  0
   27.3907  -20.4390  -18.1977 C   0  0  2  0  0  0  0  0  0  0  0  0
   28.3351  -19.3955  -18.6018 N   0  0  0  0  0  0  0  0  0  0  0  0
   26.4997  -19.8268  -17.1385 C   0  0  0  0  0  0  0  0  0  0  0  0
   26.9570  -18.9426  -16.3698 O   0  0  0  0  0  0  0  0  0  0  0  0
   25.1733  -20.2151  -16.9871 N   0  0  0  0  0  0  0  0  0  0  0  0
   24.3304  -19.6333  -15.9298 C   0  0  1  0  0  0  0  0  0  0  0  0
   22.9947  -19.4115  -16.5860 C   0  0  0  0  0  0  0  0  0  0  0  0
   22.6883  -18.0447  -16.9814 C   0  0  0  0  0  0  0  0  0  0  0  0
   23.4023  -17.0615  -16.7529 O   0  0  0  0  0  0  0  0  0  0  0  0
   24.1346  -20.6848  -14.8548 C   0  0  0  0  0  0  0  0  0  0  0  0
   23.7399  -21.8302  -15.1796 O   0  0  0  0  0  0  0  0  0  0  0  0
   21.4916  -17.8408  -17.6722 O   0  0  0  0  0  0  0  0  0  0  0  0
   24.3308  -19.5434  -10.6728 C   0  0  0  0  0  0  0  0  0  0  0  0
   24.9641  -20.8774  -11.1300 C   0  0  1  0  0  0  0  0  0  0  0  0
   24.7062  -21.8350   -9.9782 C   0  0  0  0  0  0  0  0  0  0  0  0
   24.1903  -21.2697  -12.3739 C   0  0  2  0  0  0  0  0  0  0  0  0
   24.3826  -20.4105  -13.5050 N   0  0  0  0  0  0  0  0  0  0  0  0
   22.7780  -21.4097  -12.0365 C   0  0  0  0  0  0  0  0  0  0  0  0
   22.2525  -22.5459  -11.4774 O   0  0  0  0  0  0  0  0  0  0  0  0
   21.9399  -20.4646  -12.2484 O   0  0  0  0  0  0  0  0  0  0  0  0
  2  1  1  0
  3  2  1  0
  4  3  1  0
  5  4  1  0
  5  7  1  0
  5  6  1  1
  7  8  2  0
  9 10  1  0
  9  7  1  0
 10 14  1  0
 10 11  1  6
 12 11  1  0
 13 12  2  0
 14 15  2  0
 16 12  1  0
 18 17  1  1
 18 19  1  0
 18 20  1  0
 20 22  1  0
 20 21  1  6
 21 14  1  0
 22 24  2  0
 22 23  1  0
M  END
$$$$
