SMT.pdb
     RDKit          3D

 22 21  0  0  1  0  0  0  0  0999 V2000
    8.2991  -17.7663   20.9052 O   0  0  0  0  0  0  0  0  0  0  0  0
    7.5363  -16.7361   20.3655 C   0  0  0  0  0  0  0  0  0  0  0  0
    8.2918  -15.4503   20.5621 C   0  0  2  0  0  0  0  0  0  0  0  0
    9.5224  -15.5011   19.7997 N   0  0  0  0  0  0  0  0  0  0  0  0
    8.6485  -15.2036   21.9752 C   0  0  0  0  0  0  0  0  0  0  0  0
    9.8367  -15.3494   22.3372 O   0  0  0  0  0  0  0  0  0  0  0  0
    6.4129  -10.8958   26.5545 C   0  0  0  0  0  0  0  0  0  0  0  0
    7.7829  -12.0738   26.7778 S   0  0  0  0  0  0  0  0  0  0  0  0
    7.1295  -13.7296   26.5166 C   0  0  0  0  0  0  0  0  0  0  0  0
    6.8365  -13.9761   25.0397 C   0  0  0  0  0  0  0  0  0  0  0  0
    8.0144  -14.6071   24.3489 C   0  0  2  0  0  0  0  0  0  0  0  0
    7.7034  -14.8044   22.9598 N   0  0  0  0  0  0  0  0  0  0  0  0
    8.3503  -15.8703   25.0504 C   0  0  0  0  0  0  0  0  0  0  0  0
    7.4447  -16.7437   25.0985 O   0  0  0  0  0  0  0  0  0  0  0  0
   10.8794  -18.2037   24.1016 C   0  0  0  0  0  0  0  0  0  0  0  0
   11.1309  -18.0376   25.5847 C   0  0  1  0  0  0  0  0  0  0  0  0
   12.2647  -17.2366   25.7010 O   0  0  0  0  0  0  0  0  0  0  0  0
    9.9137  -17.3869   26.1891 C   0  0  2  0  0  0  0  0  0  0  0  0
    9.6200  -16.1024   25.6437 N   0  0  0  0  0  0  0  0  0  0  0  0
   10.1051  -17.3080   27.6663 C   0  0  0  0  0  0  0  0  0  0  0  0
   10.3202  -18.3497   28.3350 O   0  0  0  0  0  0  0  0  0  0  0  0
   10.0577  -16.1131   28.3637 O   0  0  0  0  0  0  0  0  0  0  0  0
  1  2  1  0
  2  3  1  0
  3  4  1  6
  5 12  1  0
  5  3  1  0
  6  5  2  0
  8  9  1  0
  8  7  1  0
  9 10  1  0
 11 10  1  1
 11 13  1  0
 11 12  1  0
 13 19  1  0
 14 13  2  0
 16 17  1  0
 16 15  1  6
 18 16  1  0
 18 19  1  6
 20 18  1  0
 20 22  1  0
 21 20  2  0
M  END
$$$$
