SMT.pdb
     RDKit          3D

 22 21  0  0  1  0  0  0  0  0999 V2000
    8.1649  -17.6738   20.5415 O   0  0  0  0  0  0  0  0  0  0  0  0
    7.1051  -16.8207   20.2528 C   0  0  0  0  0  0  0  0  0  0  0  0
    7.5988  -15.4068   20.3935 C   0  0  2  0  0  0  0  0  0  0  0  0
    8.6964  -15.1932   19.4727 N   0  0  0  0  0  0  0  0  0  0  0  0
    8.0882  -15.1017   21.7545 C   0  0  0  0  0  0  0  0  0  0  0  0
    9.3055  -15.2360   22.0077 O   0  0  0  0  0  0  0  0  0  0  0  0
    8.5156  -11.3725   26.9719 C   0  0  0  0  0  0  0  0  0  0  0  0
    6.8259  -12.0497   26.9933 S   0  0  0  0  0  0  0  0  0  0  0  0
    6.9143  -13.7600   26.4420 C   0  0  0  0  0  0  0  0  0  0  0  0
    6.5412  -13.8800   24.9674 C   0  0  0  0  0  0  0  0  0  0  0  0
    7.6623  -14.4885   24.1701 C   0  0  2  0  0  0  0  0  0  0  0  0
    7.2408  -14.6580   22.8066 N   0  0  0  0  0  0  0  0  0  0  0  0
    8.0599  -15.7642   24.8144 C   0  0  0  0  0  0  0  0  0  0  0  0
    7.1942  -16.6784   24.8308 O   0  0  0  0  0  0  0  0  0  0  0  0
   12.0271  -16.9065   25.1400 C   0  0  0  0  0  0  0  0  0  0  0  0
   10.8609  -17.8680   25.0628 C   0  0  1  0  0  0  0  0  0  0  0  0
   11.3023  -19.0630   25.6264 O   0  0  0  0  0  0  0  0  0  0  0  0
    9.7153  -17.2668   25.8354 C   0  0  2  0  0  0  0  0  0  0  0  0
    9.3435  -15.9645   25.3888 N   0  0  0  0  0  0  0  0  0  0  0  0
   10.0785  -17.2510   27.2820 C   0  0  0  0  0  0  0  0  0  0  0  0
   10.0605  -16.1744   27.9293 O   0  0  0  0  0  0  0  0  0  0  0  0
   10.4459  -18.3929   27.9733 O   0  0  0  0  0  0  0  0  0  0  0  0
  1  2  1  0
  2  3  1  0
  3  4  1  6
  5 12  1  0
  5  3  1  0
  6  5  2  0
  8  9  1  0
  8  7  1  0
  9 10  1  0
 11 10  1  1
 11 13  1  0
 11 12  1  0
 13 19  1  0
 14 13  2  0
 16 17  1  0
 16 15  1  1
 18 16  1  0
 18 19  1  6
 20 18  1  0
 20 22  1  0
 21 20  2  0
M  END
$$$$
