SMT.pdb
     RDKit          3D

 22 21  0  0  1  0  0  0  0  0999 V2000
    8.7528  -18.0413   20.7134 O   0  0  0  0  0  0  0  0  0  0  0  0
    7.8947  -17.0798   20.1903 C   0  0  0  0  0  0  0  0  0  0  0  0
    8.5610  -15.7389   20.3342 C   0  0  2  0  0  0  0  0  0  0  0  0
    9.8145  -15.7511   19.6083 N   0  0  0  0  0  0  0  0  0  0  0  0
    8.8592  -15.3931   21.7400 C   0  0  0  0  0  0  0  0  0  0  0  0
   10.0316  -15.5087   22.1595 O   0  0  0  0  0  0  0  0  0  0  0  0
    7.5157  -11.5426   28.1143 C   0  0  0  0  0  0  0  0  0  0  0  0
    7.1526  -11.8583   26.3585 S   0  0  0  0  0  0  0  0  0  0  0  0
    7.1504  -13.6404   26.1114 C   0  0  0  0  0  0  0  0  0  0  0  0
    6.9153  -13.9896   24.6449 C   0  0  0  0  0  0  0  0  0  0  0  0
    8.1229  -14.6549   24.0433 C   0  0  2  0  0  0  0  0  0  0  0  0
    7.8740  -14.9302   22.6549 N   0  0  0  0  0  0  0  0  0  0  0  0
    8.4278  -15.8760   24.8285 C   0  0  0  0  0  0  0  0  0  0  0  0
    7.5338  -16.7621   24.8580 O   0  0  0  0  0  0  0  0  0  0  0  0
   10.9430  -18.2340   24.1202 C   0  0  0  0  0  0  0  0  0  0  0  0
   11.1597  -17.9965   25.5991 C   0  0  1  0  0  0  0  0  0  0  0  0
   12.2964  -17.1981   25.7038 O   0  0  0  0  0  0  0  0  0  0  0  0
    9.9331  -17.3090   26.1406 C   0  0  2  0  0  0  0  0  0  0  0  0
    9.6565  -16.0560   25.5182 N   0  0  0  0  0  0  0  0  0  0  0  0
   10.0943  -17.1481   27.6147 C   0  0  0  0  0  0  0  0  0  0  0  0
   10.3163  -18.1484   28.3419 O   0  0  0  0  0  0  0  0  0  0  0  0
   10.0105  -15.9191   28.2464 O   0  0  0  0  0  0  0  0  0  0  0  0
  1  2  1  0
  2  3  1  0
  3  4  1  6
  5 12  1  0
  5  3  1  0
  6  5  2  0
  8  9  1  0
  8  7  1  0
  9 10  1  0
 11 10  1  1
 11 13  1  0
 11 12  1  0
 13 19  1  0
 14 13  2  0
 16 17  1  0
 16 15  1  6
 18 16  1  0
 18 19  1  6
 20 18  1  0
 20 22  1  0
 21 20  2  0
M  END
$$$$
