SMT.pdb
     RDKit          3D

 22 21  0  0  1  0  0  0  0  0999 V2000
    7.6776  -17.7223   20.6051 O   0  0  0  0  0  0  0  0  0  0  0  0
    7.0148  -16.6402   20.0356 C   0  0  0  0  0  0  0  0  0  0  0  0
    7.9176  -15.4413   20.1354 C   0  0  2  0  0  0  0  0  0  0  0  0
    9.0803  -15.6512   19.2973 N   0  0  0  0  0  0  0  0  0  0  0  0
    8.3950  -15.1942   21.5124 C   0  0  0  0  0  0  0  0  0  0  0  0
    9.5863  -15.4459   21.7977 O   0  0  0  0  0  0  0  0  0  0  0  0
    7.0641  -11.5559   28.3787 C   0  0  0  0  0  0  0  0  0  0  0  0
    6.3324  -12.0502   26.7866 S   0  0  0  0  0  0  0  0  0  0  0  0
    7.4533  -13.2235   26.0095 C   0  0  0  0  0  0  0  0  0  0  0  0
    7.0020  -13.5539   24.5898 C   0  0  0  0  0  0  0  0  0  0  0  0
    8.0028  -14.4333   23.8913 C   0  0  2  0  0  0  0  0  0  0  0  0
    7.5642  -14.6793   22.5451 N   0  0  0  0  0  0  0  0  0  0  0  0
    8.1682  -15.6779   24.6813 C   0  0  0  0  0  0  0  0  0  0  0  0
    7.1525  -16.4143   24.7880 O   0  0  0  0  0  0  0  0  0  0  0  0
    9.9396  -18.5645   23.9674 C   0  0  0  0  0  0  0  0  0  0  0  0
   10.4484  -18.2576   25.3593 C   0  0  1  0  0  0  0  0  0  0  0  0
   11.7232  -17.7193   25.1990 O   0  0  0  0  0  0  0  0  0  0  0  0
    9.4956  -17.2774   25.9932 C   0  0  2  0  0  0  0  0  0  0  0  0
    9.3983  -16.0384   25.2937 N   0  0  0  0  0  0  0  0  0  0  0  0
    9.9146  -17.0595   27.4080 C   0  0  0  0  0  0  0  0  0  0  0  0
   10.1528  -15.8996   27.8281 O   0  0  0  0  0  0  0  0  0  0  0  0
   10.0604  -18.0970   28.3129 O   0  0  0  0  0  0  0  0  0  0  0  0
  1  2  1  0
  2  3  1  0
  3  4  1  6
  5 12  1  0
  5  3  1  0
  6  5  2  0
  8  9  1  0
  8  7  1  0
  9 10  1  0
 11 10  1  1
 11 13  1  0
 11 12  1  0
 13 19  1  0
 14 13  2  0
 16 17  1  0
 16 15  1  6
 18 16  1  0
 18 19  1  6
 20 18  1  0
 20 22  1  0
 21 20  2  0
M  END
$$$$
