SMT.pdb
     RDKit          3D

 22 21  0  0  1  0  0  0  0  0999 V2000
    7.5779  -17.1862   20.7890 O   0  0  0  0  0  0  0  0  0  0  0  0
    6.6787  -16.1606   20.5171 C   0  0  0  0  0  0  0  0  0  0  0  0
    7.3875  -14.8532   20.7425 C   0  0  2  0  0  0  0  0  0  0  0  0
    8.4084  -14.6855   19.7286 N   0  0  0  0  0  0  0  0  0  0  0  0
    8.0485  -14.7778   22.0625 C   0  0  0  0  0  0  0  0  0  0  0  0
    9.2810  -14.9754   22.1379 O   0  0  0  0  0  0  0  0  0  0  0  0
    7.6784  -11.5012   27.9248 C   0  0  0  0  0  0  0  0  0  0  0  0
    6.2743  -11.5244   26.7662 S   0  0  0  0  0  0  0  0  0  0  0  0
    6.8020  -12.3961   25.2835 C   0  0  0  0  0  0  0  0  0  0  0  0
    7.0039  -13.8821   25.5645 C   0  0  0  0  0  0  0  0  0  0  0  0
    7.9524  -14.4996   24.5736 C   0  0  2  0  0  0  0  0  0  0  0  0
    7.3518  -14.4894   23.2680 N   0  0  0  0  0  0  0  0  0  0  0  0
    8.2973  -15.8650   25.0398 C   0  0  0  0  0  0  0  0  0  0  0  0
    7.3440  -16.6812   25.1407 O   0  0  0  0  0  0  0  0  0  0  0  0
   10.2903  -18.2876   23.4102 C   0  0  0  0  0  0  0  0  0  0  0  0
   10.8757  -18.2915   24.8058 C   0  0  1  0  0  0  0  0  0  0  0  0
   12.0839  -17.6029   24.7242 O   0  0  0  0  0  0  0  0  0  0  0  0
    9.8937  -17.6056   25.7200 C   0  0  2  0  0  0  0  0  0  0  0  0
    9.6259  -16.2516   25.3611 N   0  0  0  0  0  0  0  0  0  0  0  0
   10.4079  -17.6953   27.1173 C   0  0  0  0  0  0  0  0  0  0  0  0
   10.6634  -18.8139   27.6291 O   0  0  0  0  0  0  0  0  0  0  0  0
   10.6263  -16.5792   27.9068 O   0  0  0  0  0  0  0  0  0  0  0  0
  1  2  1  0
  2  3  1  0
  3  4  1  6
  5 12  1  0
  5  3  1  0
  6  5  2  0
  8  9  1  0
  8  7  1  0
  9 10  1  0
 11 10  1  1
 11 13  1  0
 11 12  1  0
 13 19  1  0
 14 13  2  0
 16 17  1  0
 16 15  1  6
 18 16  1  0
 18 19  1  6
 20 18  1  0
 20 22  1  0
 21 20  2  0
M  END
$$$$
