SMT.pdb
     RDKit          3D

 22 21  0  0  1  0  0  0  0  0999 V2000
    7.4636  -17.5429   20.3599 O   0  0  0  0  0  0  0  0  0  0  0  0
    6.7324  -16.4737   19.8531 C   0  0  0  0  0  0  0  0  0  0  0  0
    7.5783  -15.2361   19.9764 C   0  0  2  0  0  0  0  0  0  0  0  0
    8.6928  -15.3288   19.0557 N   0  0  0  0  0  0  0  0  0  0  0  0
    8.1316  -15.0510   21.3345 C   0  0  0  0  0  0  0  0  0  0  0  0
    9.3444  -15.2818   21.5341 O   0  0  0  0  0  0  0  0  0  0  0  0
    7.0917  -11.6012   28.3486 C   0  0  0  0  0  0  0  0  0  0  0  0
    6.2666  -12.1755   26.8308 S   0  0  0  0  0  0  0  0  0  0  0  0
    7.4525  -13.1586   25.9012 C   0  0  0  0  0  0  0  0  0  0  0  0
    6.8724  -13.5897   24.5574 C   0  0  0  0  0  0  0  0  0  0  0  0
    7.8771  -14.3721   23.7566 C   0  0  2  0  0  0  0  0  0  0  0  0
    7.3514  -14.6192   22.4421 N   0  0  0  0  0  0  0  0  0  0  0  0
    8.1987  -15.6187   24.4936 C   0  0  0  0  0  0  0  0  0  0  0  0
    7.2581  -16.4429   24.6398 O   0  0  0  0  0  0  0  0  0  0  0  0
   10.4674  -18.1810   23.5248 C   0  0  0  0  0  0  0  0  0  0  0  0
   10.8702  -17.9200   24.9601 C   0  0  1  0  0  0  0  0  0  0  0  0
   12.0514  -17.1836   24.9063 O   0  0  0  0  0  0  0  0  0  0  0  0
    9.7541  -17.1525   25.6202 C   0  0  2  0  0  0  0  0  0  0  0  0
    9.4922  -15.8878   25.0154 N   0  0  0  0  0  0  0  0  0  0  0  0
   10.0815  -16.9943   27.0668 C   0  0  0  0  0  0  0  0  0  0  0  0
   10.2331  -18.0050   27.7976 O   0  0  0  0  0  0  0  0  0  0  0  0
   10.2325  -15.7565   27.6683 O   0  0  0  0  0  0  0  0  0  0  0  0
  1  2  1  0
  2  3  1  0
  3  4  1  6
  5 12  1  0
  5  3  1  0
  6  5  2  0
  8  9  1  0
  8  7  1  0
  9 10  1  0
 11 10  1  1
 11 13  1  0
 11 12  1  0
 13 19  1  0
 14 13  2  0
 16 17  1  0
 16 15  1  6
 18 16  1  0
 18 19  1  6
 20 18  1  0
 20 22  1  0
 21 20  2  0
M  END
$$$$
