SMT.pdb
     RDKit          3D

 22 21  0  0  1  0  0  0  0  0999 V2000
    7.5065  -17.5202   20.6679 O   0  0  0  0  0  0  0  0  0  0  0  0
    6.5883  -16.4780   20.5960 C   0  0  0  0  0  0  0  0  0  0  0  0
    7.3472  -15.1849   20.7161 C   0  0  2  0  0  0  0  0  0  0  0  0
    8.3446  -15.1204   19.6676 N   0  0  0  0  0  0  0  0  0  0  0  0
    8.0469  -15.0471   22.0109 C   0  0  0  0  0  0  0  0  0  0  0  0
    9.2877  -15.1974   22.0509 O   0  0  0  0  0  0  0  0  0  0  0  0
    7.2161  -11.4350   27.8095 C   0  0  0  0  0  0  0  0  0  0  0  0
    6.0547  -11.6037   26.4177 S   0  0  0  0  0  0  0  0  0  0  0  0
    6.9008  -12.4940   25.1030 C   0  0  0  0  0  0  0  0  0  0  0  0
    7.1129  -13.9570   25.4809 C   0  0  0  0  0  0  0  0  0  0  0  0
    8.0309  -14.6432   24.5066 C   0  0  2  0  0  0  0  0  0  0  0  0
    7.3789  -14.7494   23.2303 N   0  0  0  0  0  0  0  0  0  0  0  0
    8.4154  -15.9606   25.0699 C   0  0  0  0  0  0  0  0  0  0  0  0
    7.4748  -16.7571   25.3276 O   0  0  0  0  0  0  0  0  0  0  0  0
   10.6249  -18.5525   23.6194 C   0  0  0  0  0  0  0  0  0  0  0  0
   11.1368  -18.3422   25.0280 C   0  0  1  0  0  0  0  0  0  0  0  0
   12.2951  -17.5770   24.9121 O   0  0  0  0  0  0  0  0  0  0  0  0
   10.0626  -17.6289   25.8076 C   0  0  2  0  0  0  0  0  0  0  0  0
    9.7667  -16.3241   25.3140 N   0  0  0  0  0  0  0  0  0  0  0  0
   10.4753  -17.5763   27.2400 C   0  0  0  0  0  0  0  0  0  0  0  0
   10.6016  -16.4711   27.8241 O   0  0  0  0  0  0  0  0  0  0  0  0
   10.7350  -18.7135   27.9856 O   0  0  0  0  0  0  0  0  0  0  0  0
  1  2  1  0
  2  3  1  0
  3  4  1  6
  5 12  1  0
  5  3  1  0
  6  5  2  0
  8  9  1  0
  8  7  1  0
  9 10  1  0
 11 10  1  1
 11 13  1  0
 11 12  1  0
 13 19  1  0
 14 13  2  0
 16 17  1  0
 16 15  1  6
 18 16  1  0
 18 19  1  6
 20 18  1  0
 20 22  1  0
 21 20  2  0
M  END
$$$$
