SMT.pdb
     RDKit          3D

 22 21  0  0  1  0  0  0  0  0999 V2000
    9.2818  -14.8416   18.7056 O   0  0  0  0  0  0  0  0  0  0  0  0
   10.2051  -15.5838   19.4344 C   0  0  0  0  0  0  0  0  0  0  0  0
    9.4482  -16.3887   20.4551 C   0  0  2  0  0  0  0  0  0  0  0  0
    8.0376  -16.3662   20.1266 N   0  0  0  0  0  0  0  0  0  0  0  0
    9.5982  -15.8626   21.8283 C   0  0  0  0  0  0  0  0  0  0  0  0
   10.7402  -15.7985   22.3339 O   0  0  0  0  0  0  0  0  0  0  0  0
    6.4343  -11.7654   27.7626 C   0  0  0  0  0  0  0  0  0  0  0  0
    6.1614  -12.4375   26.0929 S   0  0  0  0  0  0  0  0  0  0  0  0
    7.4827  -13.6099   25.7516 C   0  0  0  0  0  0  0  0  0  0  0  0
    7.4283  -14.0903   24.3044 C   0  0  0  0  0  0  0  0  0  0  0  0
    8.6140  -14.9547   23.9729 C   0  0  2  0  0  0  0  0  0  0  0  0
    8.5016  -15.4192   22.6175 N   0  0  0  0  0  0  0  0  0  0  0  0
    8.6804  -16.0611   24.9588 C   0  0  0  0  0  0  0  0  0  0  0  0
    7.6049  -16.6745   25.1875 O   0  0  0  0  0  0  0  0  0  0  0  0
   10.2690  -19.1915   24.7229 C   0  0  0  0  0  0  0  0  0  0  0  0
   10.7997  -18.6650   26.0388 C   0  0  1  0  0  0  0  0  0  0  0  0
   12.0920  -18.2110   25.7849 O   0  0  0  0  0  0  0  0  0  0  0  0
    9.8884  -17.5541   26.4926 C   0  0  2  0  0  0  0  0  0  0  0  0
    9.8830  -16.4251   25.6214 N   0  0  0  0  0  0  0  0  0  0  0  0
   10.2798  -17.1582   27.8764 C   0  0  0  0  0  0  0  0  0  0  0  0
   10.6686  -15.9876   28.1157 O   0  0  0  0  0  0  0  0  0  0  0  0
   10.2373  -18.0363   28.9458 O   0  0  0  0  0  0  0  0  0  0  0  0
  1  2  1  0
  2  3  1  0
  3  4  1  6
  5 12  1  0
  5  3  1  0
  6  5  2  0
  8  9  1  0
  8  7  1  0
  9 10  1  0
 11 10  1  1
 11 13  1  0
 11 12  1  0
 13 19  1  0
 14 13  2  0
 16 17  1  0
 16 15  1  6
 18 16  1  0
 18 19  1  6
 20 18  1  0
 20 22  1  0
 21 20  2  0
M  END
$$$$
