SMT.pdb
     RDKit          3D

 22 21  0  0  1  0  0  0  0  0999 V2000
    6.7931  -17.4832   19.8868 O   0  0  0  0  0  0  0  0  0  0  0  0
    8.0848  -17.0285   19.6439 C   0  0  0  0  0  0  0  0  0  0  0  0
    8.0984  -15.5398   19.8592 C   0  0  2  0  0  0  0  0  0  0  0  0
    8.9388  -14.9222   18.8540 N   0  0  0  0  0  0  0  0  0  0  0  0
    8.6273  -15.1556   21.1849 C   0  0  0  0  0  0  0  0  0  0  0  0
    9.8650  -15.1307   21.3623 O   0  0  0  0  0  0  0  0  0  0  0  0
    6.2983  -12.2353   27.9708 C   0  0  0  0  0  0  0  0  0  0  0  0
    6.7829  -11.7443   26.2860 S   0  0  0  0  0  0  0  0  0  0  0  0
    7.8162  -13.0528   25.6100 C   0  0  0  0  0  0  0  0  0  0  0  0
    7.3309  -13.4739   24.2261 C   0  0  0  0  0  0  0  0  0  0  0  0
    8.2848  -14.4461   23.5873 C   0  0  2  0  0  0  0  0  0  0  0  0
    7.7963  -14.8081   22.2852 N   0  0  0  0  0  0  0  0  0  0  0  0
    8.4425  -15.6128   24.4898 C   0  0  0  0  0  0  0  0  0  0  0  0
    7.4135  -16.3097   24.6914 O   0  0  0  0  0  0  0  0  0  0  0  0
   10.3566  -18.4658   23.8059 C   0  0  0  0  0  0  0  0  0  0  0  0
   10.8197  -18.1167   25.2038 C   0  0  1  0  0  0  0  0  0  0  0  0
   12.0684  -17.5157   25.0626 O   0  0  0  0  0  0  0  0  0  0  0  0
    9.8050  -17.1793   25.8055 C   0  0  2  0  0  0  0  0  0  0  0  0
    9.6797  -15.9437   25.1045 N   0  0  0  0  0  0  0  0  0  0  0  0
   10.1653  -16.9477   27.2342 C   0  0  0  0  0  0  0  0  0  0  0  0
   10.4437  -15.7915   27.6393 O   0  0  0  0  0  0  0  0  0  0  0  0
   10.2114  -17.9681   28.1686 O   0  0  0  0  0  0  0  0  0  0  0  0
  1  2  1  0
  2  3  1  0
  3  4  1  6
  5 12  1  0
  5  3  1  0
  6  5  2  0
  8  9  1  0
  8  7  1  0
  9 10  1  0
 11 10  1  1
 11 13  1  0
 11 12  1  0
 13 19  1  0
 14 13  2  0
 16 17  1  0
 16 15  1  6
 18 16  1  0
 18 19  1  6
 20 18  1  0
 20 22  1  0
 21 20  2  0
M  END
$$$$
