SMT.pdb
     RDKit          3D

 22 21  0  0  1  0  0  0  0  0999 V2000
    8.3354  -13.7325   20.2372 O   0  0  0  0  0  0  0  0  0  0  0  0
    9.0543  -14.8970   19.9895 C   0  0  0  0  0  0  0  0  0  0  0  0
    8.5419  -15.9627   20.9191 C   0  0  2  0  0  0  0  0  0  0  0  0
    7.0955  -15.9988   20.8488 N   0  0  0  0  0  0  0  0  0  0  0  0
    8.9174  -15.7248   22.3289 C   0  0  0  0  0  0  0  0  0  0  0  0
   10.1282  -15.6384   22.6297 O   0  0  0  0  0  0  0  0  0  0  0  0
    7.1149  -11.6517   27.4481 C   0  0  0  0  0  0  0  0  0  0  0  0
    6.2098  -12.0493   25.9194 S   0  0  0  0  0  0  0  0  0  0  0  0
    7.2671  -13.1031   24.9151 C   0  0  0  0  0  0  0  0  0  0  0  0
    7.2331  -14.5454   25.4117 C   0  0  0  0  0  0  0  0  0  0  0  0
    8.3055  -15.3722   24.7565 C   0  0  2  0  0  0  0  0  0  0  0  0
    7.9661  -15.5870   23.3766 N   0  0  0  0  0  0  0  0  0  0  0  0
    8.4562  -16.6365   25.5176 C   0  0  0  0  0  0  0  0  0  0  0  0
    7.3993  -17.2786   25.7544 O   0  0  0  0  0  0  0  0  0  0  0  0
    9.7254  -19.7910   24.7286 C   0  0  0  0  0  0  0  0  0  0  0  0
   10.5213  -19.4355   25.9657 C   0  0  1  0  0  0  0  0  0  0  0  0
   11.7717  -19.0150   25.5180 O   0  0  0  0  0  0  0  0  0  0  0  0
    9.7823  -18.3410   26.6912 C   0  0  2  0  0  0  0  0  0  0  0  0
    9.7165  -17.1152   25.9653 N   0  0  0  0  0  0  0  0  0  0  0  0
   10.4254  -18.1390   28.0217 C   0  0  0  0  0  0  0  0  0  0  0  0
   10.8789  -17.0122   28.3431 O   0  0  0  0  0  0  0  0  0  0  0  0
   10.5545  -19.1561   28.9520 O   0  0  0  0  0  0  0  0  0  0  0  0
  1  2  1  0
  2  3  1  0
  3  4  1  1
  5 12  1  0
  5  3  1  0
  6  5  2  0
  8  9  1  0
  8  7  1  0
  9 10  1  0
 11 10  1  1
 11 13  1  0
 11 12  1  0
 13 19  1  0
 14 13  2  0
 16 17  1  0
 16 15  1  6
 18 16  1  0
 18 19  1  6
 20 18  1  0
 20 22  1  0
 21 20  2  0
M  END
$$$$
