SMT.pdb
     RDKit          3D

 22 21  0  0  1  0  0  0  0  0999 V2000
    7.4107  -18.4655   21.1688 O   0  0  0  0  0  0  0  0  0  0  0  0
    6.5263  -17.4959   20.7082 C   0  0  0  0  0  0  0  0  0  0  0  0
    7.2632  -16.1855   20.6576 C   0  0  2  0  0  0  0  0  0  0  0  0
    8.2877  -16.2559   19.6360 N   0  0  0  0  0  0  0  0  0  0  0  0
    7.9253  -15.8486   21.9355 C   0  0  0  0  0  0  0  0  0  0  0  0
    9.1422  -16.1003   22.0751 O   0  0  0  0  0  0  0  0  0  0  0  0
    6.4334  -10.8651   26.0306 C   0  0  0  0  0  0  0  0  0  0  0  0
    6.6867  -12.2581   27.1750 S   0  0  0  0  0  0  0  0  0  0  0  0
    7.6822  -13.4918   26.3244 C   0  0  0  0  0  0  0  0  0  0  0  0
    7.0056  -13.9472   25.0348 C   0  0  0  0  0  0  0  0  0  0  0  0
    7.8583  -14.9409   24.2943 C   0  0  2  0  0  0  0  0  0  0  0  0
    7.2466  -15.2461   23.0302 N   0  0  0  0  0  0  0  0  0  0  0  0
    8.0392  -16.1377   25.1520 C   0  0  0  0  0  0  0  0  0  0  0  0
    7.0004  -16.7947   25.4253 O   0  0  0  0  0  0  0  0  0  0  0  0
    9.5947  -19.1874   24.4377 C   0  0  0  0  0  0  0  0  0  0  0  0
   10.2678  -18.7973   25.7359 C   0  0  1  0  0  0  0  0  0  0  0  0
   11.5267  -18.3100   25.3917 O   0  0  0  0  0  0  0  0  0  0  0  0
    9.4160  -17.7465   26.3997 C   0  0  2  0  0  0  0  0  0  0  0  0
    9.3079  -16.5384   25.6497 N   0  0  0  0  0  0  0  0  0  0  0  0
    9.9677  -17.4821   27.7601 C   0  0  0  0  0  0  0  0  0  0  0  0
   10.3208  -16.3216   28.0874 O   0  0  0  0  0  0  0  0  0  0  0  0
   10.1170  -18.4756   28.7126 O   0  0  0  0  0  0  0  0  0  0  0  0
  1  2  1  0
  2  3  1  0
  3  4  1  6
  5 12  1  0
  5  3  1  0
  6  5  2  0
  8  9  1  0
  8  7  1  0
  9 10  1  0
 11 10  1  1
 11 13  1  0
 11 12  1  0
 13 19  1  0
 14 13  2  0
 16 17  1  0
 16 15  1  6
 18 16  1  0
 18 19  1  6
 20 18  1  0
 20 22  1  0
 21 20  2  0
M  END
$$$$
