PYQ.pdb
     RDKit          3D

 29 30  0  0  1  0  0  0  0  0999 V2000
   26.0984  -18.5009  -18.8564 N   0  0  0  0  0  0  0  0  0  0  0  0
   27.1916  -18.9342  -19.7415 C   0  0  0  0  0  0  0  0  0  0  0  0
   27.2588  -17.8949  -20.8303 C   0  0  0  0  0  0  0  0  0  0  0  0
   26.4678  -16.7329  -20.2704 C   0  0  0  0  0  0  0  0  0  0  0  0
   26.2599  -17.0884  -18.8204 C   0  0  1  0  0  0  0  0  0  0  0  0
   25.0597  -16.3680  -18.3098 C   0  0  0  0  0  0  0  0  0  0  0  0
   25.0537  -15.1135  -18.2651 O   0  0  0  0  0  0  0  0  0  0  0  0
   16.9874  -13.3584  -17.5739 O   0  0  0  0  0  0  0  0  0  0  0  0
   18.2825  -13.8500  -17.8025 C   0  0  0  0  0  0  0  0  0  0  0  0
   18.4369  -15.0605  -18.4033 C   0  0  0  0  0  0  0  0  0  0  0  0
   19.7186  -15.5776  -18.6447 C   0  0  0  0  0  0  0  0  0  0  0  0
   20.8432  -14.8746  -18.2807 C   0  0  0  0  0  0  0  0  0  0  0  0
   22.1468  -15.4442  -18.5480 C   0  0  0  0  0  0  0  0  0  0  0  0
   22.7124  -16.3270  -17.4802 C   0  0  2  0  0  0  0  0  0  0  0  0
   23.8872  -17.0390  -17.8572 N   0  0  0  0  0  0  0  0  0  0  0  0
   21.6435  -17.2048  -16.9417 C   0  0  0  0  0  0  0  0  0  0  0  0
   21.3496  -18.2184  -17.6617 O   0  0  0  0  0  0  0  0  0  0  0  0
   20.6707  -13.6526  -17.6744 C   0  0  0  0  0  0  0  0  0  0  0  0
   19.3908  -13.1354  -17.4329 C   0  0  0  0  0  0  0  0  0  0  0  0
   21.3554  -20.8893  -12.4303 N   0  0  0  0  0  0  0  0  0  0  0  0
   20.1576  -20.2061  -12.1265 C   0  0  0  0  0  0  0  0  0  0  0  0
   19.4286  -20.6435  -11.2049 O   0  0  0  0  0  0  0  0  0  0  0  0
   19.7749  -19.0051  -12.8673 C   0  0  0  0  0  0  0  0  0  0  0  0
   20.6766  -18.5301  -13.9272 C   0  0  0  0  0  0  0  0  0  0  0  0
   20.1022  -18.0517  -15.2189 C   0  0  2  0  0  0  0  0  0  0  0  0
   20.9698  -16.9846  -15.7327 N   0  0  0  0  0  0  0  0  0  0  0  0
   18.7238  -17.5936  -15.1349 C   0  0  0  0  0  0  0  0  0  0  0  0
   17.7226  -18.3975  -15.1688 O   0  0  0  0  0  0  0  0  0  0  0  0
   18.3314  -16.2481  -14.9999 O   0  0  0  0  0  0  0  0  0  0  0  0
  1  2  1  0
  3  2  1  0
  4  5  1  0
  4  3  1  0
  5  6  1  6
  5  1  1  0
  6  7  2  0
  9  8  1  0
  9 19  2  0
 10  9  1  0
 11 10  2  0
 11 12  1  0
 12 18  2  0
 13 12  1  0
 14 13  1  6
 15 14  1  0
 15  6  1  0
 16 17  2  0
 16 14  1  0
 18 19  1  0
 20 21  1  0
 21 22  2  0
 23 21  1  0
 23 24  1  0
 25 24  1  1
 25 26  1  0
 25 27  1  0
 26 16  1  0
 27 29  1  0
 28 27  2  0
M  END
$$$$
