PYQ.pdb
     RDKit          3D

 29 30  0  0  1  0  0  0  0  0999 V2000
   27.4499  -19.7311  -13.5633 N   0  0  0  0  0  0  0  0  0  0  0  0
   28.7814  -19.5761  -14.1709 C   0  0  0  0  0  0  0  0  0  0  0  0
   29.7251  -20.3136  -13.2567 C   0  0  0  0  0  0  0  0  0  0  0  0
   28.8114  -21.1735  -12.4112 C   0  0  0  0  0  0  0  0  0  0  0  0
   27.4703  -21.0727  -13.0918 C   0  0  1  0  0  0  0  0  0  0  0  0
   26.3977  -21.3683  -12.1005 C   0  0  0  0  0  0  0  0  0  0  0  0
   26.2423  -22.5393  -11.6759 O   0  0  0  0  0  0  0  0  0  0  0  0
   28.5757  -20.1044   -5.6995 O   0  0  0  0  0  0  0  0  0  0  0  0
   27.5301  -20.0541   -6.6351 C   0  0  0  0  0  0  0  0  0  0  0  0
   27.2745  -18.8857   -7.2830 C   0  0  0  0  0  0  0  0  0  0  0  0
   26.2362  -18.8050   -8.2231 C   0  0  0  0  0  0  0  0  0  0  0  0
   25.4567  -19.9013   -8.5094 C   0  0  0  0  0  0  0  0  0  0  0  0
   24.3957  -19.7752   -9.4861 C   0  0  0  0  0  0  0  0  0  0  0  0
   24.4772  -20.6870  -10.6698 C   0  0  2  0  0  0  0  0  0  0  0  0
   25.5148  -20.3717  -11.5935 N   0  0  0  0  0  0  0  0  0  0  0  0
   23.1409  -20.7976  -11.3063 C   0  0  0  0  0  0  0  0  0  0  0  0
   22.9564  -20.0564  -12.3303 O   0  0  0  0  0  0  0  0  0  0  0  0
   25.7276  -21.0750   -7.8463 C   0  0  0  0  0  0  0  0  0  0  0  0
   26.7645  -21.1564   -6.9071 C   0  0  0  0  0  0  0  0  0  0  0  0
   19.4842  -23.9203   -7.8659 N   0  0  0  0  0  0  0  0  0  0  0  0
   18.8604  -23.7843   -9.1254 C   0  0  0  0  0  0  0  0  0  0  0  0
   18.0591  -24.6719   -9.5027 O   0  0  0  0  0  0  0  0  0  0  0  0
   19.1366  -22.6262   -9.9740 C   0  0  0  0  0  0  0  0  0  0  0  0
   20.0412  -22.8083  -11.1188 C   0  0  0  0  0  0  0  0  0  0  0  0
   20.8516  -21.6530  -11.6042 C   0  0  2  0  0  0  0  0  0  0  0  0
   22.1152  -21.6404  -10.8569 N   0  0  0  0  0  0  0  0  0  0  0  0
   20.1860  -20.3631  -11.5045 C   0  0  0  0  0  0  0  0  0  0  0  0
   20.4217  -19.5328  -10.5532 O   0  0  0  0  0  0  0  0  0  0  0  0
   19.2341  -19.8774  -12.4213 O   0  0  0  0  0  0  0  0  0  0  0  0
  1  2  1  0
  3  2  1  0
  4  5  1  0
  4  3  1  0
  5  6  1  1
  5  1  1  0
  6  7  2  0
  9  8  1  0
  9 19  2  0
 10  9  1  0
 11 10  2  0
 11 12  1  0
 12 18  2  0
 13 12  1  0
 14 13  1  1
 15 14  1  0
 15  6  1  0
 16 17  2  0
 16 14  1  0
 18 19  1  0
 20 21  1  0
 21 22  2  0
 23 21  1  0
 23 24  1  0
 25 24  1  1
 25 26  1  0
 25 27  1  0
 26 16  1  0
 27 29  1  0
 28 27  2  0
M  END
$$$$
