PYQ.pdb
     RDKit          3D

 29 30  0  0  1  0  0  0  0  0999 V2000
   27.9331  -20.4724  -16.6647 N   0  0  0  0  0  0  0  0  0  0  0  0
   28.6343  -20.2146  -17.9328 C   0  0  0  0  0  0  0  0  0  0  0  0
   28.3571  -18.7691  -18.2549 C   0  0  0  0  0  0  0  0  0  0  0  0
   27.8528  -18.1976  -16.9479 C   0  0  0  0  0  0  0  0  0  0  0  0
   28.1485  -19.2721  -15.9330 C   0  0  1  0  0  0  0  0  0  0  0  0
   27.2274  -19.1126  -14.7726 C   0  0  0  0  0  0  0  0  0  0  0  0
   27.2767  -18.0723  -14.0718 O   0  0  0  0  0  0  0  0  0  0  0  0
   21.6653  -17.0628  -17.9713 O   0  0  0  0  0  0  0  0  0  0  0  0
   22.2037  -17.8195  -16.9184 C   0  0  0  0  0  0  0  0  0  0  0  0
   22.9014  -18.9518  -17.2034 C   0  0  0  0  0  0  0  0  0  0  0  0
   23.4510  -19.7284  -16.1722 C   0  0  0  0  0  0  0  0  0  0  0  0
   23.2972  -19.3633  -14.8553 C   0  0  0  0  0  0  0  0  0  0  0  0
   23.8803  -20.1927  -13.8220 C   0  0  0  0  0  0  0  0  0  0  0  0
   25.2774  -19.8490  -13.4107 C   0  0  2  0  0  0  0  0  0  0  0  0
   26.2685  -20.0993  -14.4028 N   0  0  0  0  0  0  0  0  0  0  0  0
   25.5830  -20.4849  -12.1048 C   0  0  0  0  0  0  0  0  0  0  0  0
   25.9874  -21.6953  -12.1638 O   0  0  0  0  0  0  0  0  0  0  0  0
   22.5894  -18.2162  -14.5833 C   0  0  0  0  0  0  0  0  0  0  0  0
   22.0401  -17.4400  -15.6127 C   0  0  0  0  0  0  0  0  0  0  0  0
   28.3868  -18.0524   -7.2034 N   0  0  0  0  0  0  0  0  0  0  0  0
   28.1097  -19.3679   -6.7716 C   0  0  0  0  0  0  0  0  0  0  0  0
   28.6189  -19.7727   -5.6996 O   0  0  0  0  0  0  0  0  0  0  0  0
   27.2387  -20.2427   -7.5550 C   0  0  0  0  0  0  0  0  0  0  0  0
   26.7523  -19.7514   -8.8527 C   0  0  0  0  0  0  0  0  0  0  0  0
   25.8255  -20.6002   -9.6575 C   0  0  2  0  0  0  0  0  0  0  0  0
   25.4546  -19.8484  -10.8628 N   0  0  0  0  0  0  0  0  0  0  0  0
   24.6366  -21.0415   -8.9444 C   0  0  0  0  0  0  0  0  0  0  0  0
   24.6836  -21.8699   -7.9639 O   0  0  0  0  0  0  0  0  0  0  0  0
   23.3249  -20.6167   -9.2297 O   0  0  0  0  0  0  0  0  0  0  0  0
  1  2  1  0
  3  2  1  0
  4  5  1  0
  4  3  1  0
  5  6  1  1
  5  1  1  0
  6  7  2  0
  9  8  1  0
  9 19  2  0
 10  9  1  0
 11 10  2  0
 11 12  1  0
 12 18  2  0
 13 12  1  0
 14 13  1  6
 15 14  1  0
 15  6  1  0
 16 17  2  0
 16 14  1  0
 18 19  1  0
 20 21  1  0
 21 22  2  0
 23 21  1  0
 23 24  1  0
 25 24  1  1
 25 26  1  0
 25 27  1  0
 26 16  1  0
 27 29  1  0
 28 27  2  0
M  END
$$$$
