PYQ.pdb
     RDKit          3D

 29 30  0  0  1  0  0  0  0  0999 V2000
   27.7192  -19.0510  -17.6167 N   0  0  0  0  0  0  0  0  0  0  0  0
   28.9918  -18.4233  -18.0072 C   0  0  0  0  0  0  0  0  0  0  0  0
   28.7162  -16.9422  -18.0276 C   0  0  0  0  0  0  0  0  0  0  0  0
   27.4199  -16.8050  -17.2594 C   0  0  0  0  0  0  0  0  0  0  0  0
   27.2150  -18.1593  -16.6302 C   0  0  1  0  0  0  0  0  0  0  0  0
   25.7647  -18.3496  -16.3458 C   0  0  0  0  0  0  0  0  0  0  0  0
   25.2000  -17.6469  -15.4722 O   0  0  0  0  0  0  0  0  0  0  0  0
   17.2302  -20.6147  -16.7684 O   0  0  0  0  0  0  0  0  0  0  0  0
   18.5969  -20.4402  -17.0384 C   0  0  0  0  0  0  0  0  0  0  0  0
   19.4455  -21.4907  -16.8750 C   0  0  0  0  0  0  0  0  0  0  0  0
   20.8162  -21.3464  -17.1370 C   0  0  0  0  0  0  0  0  0  0  0  0
   21.3305  -20.1443  -17.5632 C   0  0  0  0  0  0  0  0  0  0  0  0
   22.7507  -20.0382  -17.8222 C   0  0  0  0  0  0  0  0  0  0  0  0
   23.5871  -19.5028  -16.7028 C   0  0  2  0  0  0  0  0  0  0  0  0
   24.9607  -19.3088  -17.0264 N   0  0  0  0  0  0  0  0  0  0  0  0
   23.3834  -20.3315  -15.4884 C   0  0  0  0  0  0  0  0  0  0  0  0
   24.3902  -21.0273  -15.1222 O   0  0  0  0  0  0  0  0  0  0  0  0
   20.4601  -19.0919  -17.7236 C   0  0  0  0  0  0  0  0  0  0  0  0
   19.0907  -19.2352  -17.4621 C   0  0  0  0  0  0  0  0  0  0  0  0
   22.9434  -20.3327   -9.7705 N   0  0  0  0  0  0  0  0  0  0  0  0
   24.1078  -20.8314  -10.3945 C   0  0  0  0  0  0  0  0  0  0  0  0
   24.9887  -21.3739   -9.6860 O   0  0  0  0  0  0  0  0  0  0  0  0
   24.2829  -20.7249  -11.8421 C   0  0  0  0  0  0  0  0  0  0  0  0
   23.2244  -20.0637  -12.6195 C   0  0  0  0  0  0  0  0  0  0  0  0
   22.2448  -20.8945  -13.3794 C   0  0  2  0  0  0  0  0  0  0  0  0
   22.1902  -20.3851  -14.7552 N   0  0  0  0  0  0  0  0  0  0  0  0
   20.9119  -20.9407  -12.7982 C   0  0  0  0  0  0  0  0  0  0  0  0
   19.9920  -20.0983  -13.1048 O   0  0  0  0  0  0  0  0  0  0  0  0
   20.4774  -21.8966  -11.8601 O   0  0  0  0  0  0  0  0  0  0  0  0
  1  2  1  0
  3  2  1  0
  4  5  1  0
  4  3  1  0
  5  6  1  6
  5  1  1  0
  6  7  2  0
  9  8  1  0
  9 19  2  0
 10  9  1  0
 11 10  2  0
 11 12  1  0
 12 18  2  0
 13 12  1  0
 14 13  1  6
 15 14  1  0
 15  6  1  0
 16 17  2  0
 16 14  1  0
 18 19  1  0
 20 21  1  0
 21 22  2  0
 23 21  1  0
 23 24  1  0
 25 24  1  1
 25 26  1  0
 25 27  1  0
 26 16  1  0
 27 29  1  0
 28 27  2  0
M  END
$$$$
