PYQ.pdb
     RDKit          3D

 29 30  0  0  1  0  0  0  0  0999 V2000
   21.8300  -11.5330  -20.4917 N   0  0  0  0  0  0  0  0  0  0  0  0
   22.1714  -12.7576  -21.2334 C   0  0  0  0  0  0  0  0  0  0  0  0
   22.6402  -13.7381  -20.1899 C   0  0  0  0  0  0  0  0  0  0  0  0
   22.1541  -13.1405  -18.8877 C   0  0  0  0  0  0  0  0  0  0  0  0
   21.2183  -12.0372  -19.3109 C   0  0  1  0  0  0  0  0  0  0  0  0
   21.1256  -11.0307  -18.2160 C   0  0  0  0  0  0  0  0  0  0  0  0
   20.4697  -11.2924  -17.1782 O   0  0  0  0  0  0  0  0  0  0  0  0
   22.1503   -3.3737  -13.7609 O   0  0  0  0  0  0  0  0  0  0  0  0
   22.3179   -4.5205  -14.5533 C   0  0  0  0  0  0  0  0  0  0  0  0
   22.4494   -4.3836  -15.9002 C   0  0  0  0  0  0  0  0  0  0  0  0
   22.6181   -5.5113  -16.7177 C   0  0  0  0  0  0  0  0  0  0  0  0
   22.6542   -6.7754  -16.1774 C   0  0  0  0  0  0  0  0  0  0  0  0
   22.8301   -7.9120  -17.0563 C   0  0  0  0  0  0  0  0  0  0  0  0
   21.6419   -8.8060  -17.2243 C   0  0  2  0  0  0  0  0  0  0  0  0
   21.7553   -9.7543  -18.2811 N   0  0  0  0  0  0  0  0  0  0  0  0
   20.4081   -7.9848  -17.3048 C   0  0  0  0  0  0  0  0  0  0  0  0
   20.1660   -7.4667  -18.4472 O   0  0  0  0  0  0  0  0  0  0  0  0
   22.5199   -6.8974  -14.8144 C   0  0  0  0  0  0  0  0  0  0  0  0
   22.3513   -5.7715  -13.9971 C   0  0  0  0  0  0  0  0  0  0  0  0
   16.4379   -9.9373  -14.3159 N   0  0  0  0  0  0  0  0  0  0  0  0
   16.6305  -10.1902  -15.6917 C   0  0  0  0  0  0  0  0  0  0  0  0
   16.5233  -11.3669  -16.1113 O   0  0  0  0  0  0  0  0  0  0  0  0
   16.9426   -9.0999  -16.6144 C   0  0  0  0  0  0  0  0  0  0  0  0
   17.1453   -7.7561  -16.0532 C   0  0  0  0  0  0  0  0  0  0  0  0
   18.3303   -6.9547  -16.4786 C   0  0  2  0  0  0  0  0  0  0  0  0
   19.5331   -7.7599  -16.2334 N   0  0  0  0  0  0  0  0  0  0  0  0
   18.4447   -5.6555  -15.8339 C   0  0  0  0  0  0  0  0  0  0  0  0
   19.3483   -5.3923  -14.9598 O   0  0  0  0  0  0  0  0  0  0  0  0
   17.6057   -4.5545  -16.0912 O   0  0  0  0  0  0  0  0  0  0  0  0
  1  2  1  0
  3  2  1  0
  4  5  1  0
  4  3  1  0
  5  6  1  1
  5  1  1  0
  6  7  2  0
  9  8  1  0
  9 19  2  0
 10  9  1  0
 11 10  2  0
 11 12  1  0
 12 18  2  0
 13 12  1  0
 14 13  1  6
 15 14  1  0
 15  6  1  0
 16 17  2  0
 16 14  1  0
 18 19  1  0
 20 21  1  0
 21 22  2  0
 23 21  1  0
 23 24  1  0
 25 24  1  1
 25 26  1  0
 25 27  1  0
 26 16  1  0
 27 29  1  0
 28 27  2  0
M  END
$$$$
