PYQ.pdb
     RDKit          3D

 29 30  0  0  1  0  0  0  0  0999 V2000
   25.6586  -13.2851  -15.6294 N   0  0  0  0  0  0  0  0  0  0  0  0
   26.6705  -14.3538  -15.6156 C   0  0  0  0  0  0  0  0  0  0  0  0
   26.2787  -15.2881  -16.7308 C   0  0  0  0  0  0  0  0  0  0  0  0
   25.3053  -14.4766  -17.5573 C   0  0  0  0  0  0  0  0  0  0  0  0
   25.4376  -13.0752  -17.0185 C   0  0  1  0  0  0  0  0  0  0  0  0
   24.1864  -12.3207  -17.3116 C   0  0  0  0  0  0  0  0  0  0  0  0
   23.9274  -11.9698  -18.4887 O   0  0  0  0  0  0  0  0  0  0  0  0
   15.8974   -9.3925  -17.3491 O   0  0  0  0  0  0  0  0  0  0  0  0
   17.1158  -10.0368  -17.0819 C   0  0  0  0  0  0  0  0  0  0  0  0
   17.5888  -10.0604  -15.8067 C   0  0  0  0  0  0  0  0  0  0  0  0
   18.8034  -10.6966  -15.5093 C   0  0  0  0  0  0  0  0  0  0  0  0
   19.5399  -11.3083  -16.4965 C   0  0  0  0  0  0  0  0  0  0  0  0
   20.7876  -11.9534  -16.1467 C   0  0  0  0  0  0  0  0  0  0  0  0
   22.0355  -11.2755  -16.6184 C   0  0  2  0  0  0  0  0  0  0  0  0
   23.2420  -11.9652  -16.3058 N   0  0  0  0  0  0  0  0  0  0  0  0
   22.0357   -9.8617  -16.1663 C   0  0  0  0  0  0  0  0  0  0  0  0
   22.5045   -9.6589  -14.9954 O   0  0  0  0  0  0  0  0  0  0  0  0
   19.0485  -11.2759  -17.7804 C   0  0  0  0  0  0  0  0  0  0  0  0
   17.8355  -10.6406  -18.0784 C   0  0  0  0  0  0  0  0  0  0  0  0
   22.5293   -4.6710  -19.6473 N   0  0  0  0  0  0  0  0  0  0  0  0
   22.3465   -4.1564  -18.3451 C   0  0  0  0  0  0  0  0  0  0  0  0
   22.4268   -2.9178  -18.1673 O   0  0  0  0  0  0  0  0  0  0  0  0
   22.0615   -5.0492  -17.2229 C   0  0  0  0  0  0  0  0  0  0  0  0
   21.9289   -6.4871  -17.5000 C   0  0  0  0  0  0  0  0  0  0  0  0
   21.6903   -7.4327  -16.3703 C   0  0  2  0  0  0  0  0  0  0  0  0
   21.5661   -8.7843  -16.9298 N   0  0  0  0  0  0  0  0  0  0  0  0
   20.5342   -7.1121  -15.5473 C   0  0  0  0  0  0  0  0  0  0  0  0
   19.3484   -7.5175  -15.8291 O   0  0  0  0  0  0  0  0  0  0  0  0
   20.5764   -6.3461  -14.3666 O   0  0  0  0  0  0  0  0  0  0  0  0
  1  2  1  0
  3  2  1  0
  4  5  1  0
  4  3  1  0
  5  6  1  1
  5  1  1  0
  6  7  2  0
  9  8  1  0
  9 19  2  0
 10  9  1  0
 11 10  2  0
 11 12  1  0
 12 18  2  0
 13 12  1  0
 14 13  1  1
 15 14  1  0
 15  6  1  0
 16 17  2  0
 16 14  1  0
 18 19  1  0
 20 21  1  0
 21 22  2  0
 23 21  1  0
 23 24  1  0
 25 24  1  6
 25 26  1  0
 25 27  1  0
 26 16  1  0
 27 29  1  0
 28 27  2  0
M  END
$$$$
