PYQ.pdb
     RDKit          3D

 29 30  0  0  1  0  0  0  0  0999 V2000
   24.8847  -12.0408  -15.9462 N   0  0  0  0  0  0  0  0  0  0  0  0
   25.6417  -13.2359  -16.3522 C   0  0  0  0  0  0  0  0  0  0  0  0
   24.8517  -13.8435  -17.4822 C   0  0  0  0  0  0  0  0  0  0  0  0
   23.9146  -12.7337  -17.9059 C   0  0  0  0  0  0  0  0  0  0  0  0
   24.4331  -11.5142  -17.1877 C   0  0  1  0  0  0  0  0  0  0  0  0
   23.3267  -10.5264  -17.0445 C   0  0  0  0  0  0  0  0  0  0  0  0
   22.8355   -9.9835  -18.0642 O   0  0  0  0  0  0  0  0  0  0  0  0
   17.6037  -13.8543  -17.5045 O   0  0  0  0  0  0  0  0  0  0  0  0
   18.3403  -12.8552  -16.8485 C   0  0  0  0  0  0  0  0  0  0  0  0
   18.1460  -11.5534  -17.1919 C   0  0  0  0  0  0  0  0  0  0  0  0
   18.8675  -10.5332  -16.5539 C   0  0  0  0  0  0  0  0  0  0  0  0
   19.7836  -10.8255  -15.5708 C   0  0  0  0  0  0  0  0  0  0  0  0
   20.5067   -9.7429  -14.9378 C   0  0  0  0  0  0  0  0  0  0  0  0
   21.7018   -9.2275  -15.6763 C   0  0  2  0  0  0  0  0  0  0  0  0
   22.7798  -10.1525  -15.7832 N   0  0  0  0  0  0  0  0  0  0  0  0
   22.1093   -7.9168  -15.1115 C   0  0  0  0  0  0  0  0  0  0  0  0
   23.2882   -7.8717  -14.6215 O   0  0  0  0  0  0  0  0  0  0  0  0
   19.9687  -12.1459  -15.2348 C   0  0  0  0  0  0  0  0  0  0  0  0
   19.2484  -13.1656  -15.8716 C   0  0  0  0  0  0  0  0  0  0  0  0
   25.1201   -4.7710  -17.6590 N   0  0  0  0  0  0  0  0  0  0  0  0
   24.8181   -3.7728  -16.7071 C   0  0  0  0  0  0  0  0  0  0  0  0
   25.4703   -2.7020  -16.7256 O   0  0  0  0  0  0  0  0  0  0  0  0
   23.7590   -3.9783  -15.7203 C   0  0  0  0  0  0  0  0  0  0  0  0
   23.0161   -5.2467  -15.7577 C   0  0  0  0  0  0  0  0  0  0  0  0
   21.9229   -5.4857  -14.7704 C   0  0  2  0  0  0  0  0  0  0  0  0
   21.2973   -6.7746  -15.0907 N   0  0  0  0  0  0  0  0  0  0  0  0
   20.9212   -4.4322  -14.7105 C   0  0  0  0  0  0  0  0  0  0  0  0
   19.9176   -4.3833  -15.5107 O   0  0  0  0  0  0  0  0  0  0  0  0
   20.9257   -3.3713  -13.7849 O   0  0  0  0  0  0  0  0  0  0  0  0
  1  2  1  0
  3  2  1  0
  4  5  1  0
  4  3  1  0
  5  6  1  1
  5  1  1  0
  6  7  2  0
  9  8  1  0
  9 19  2  0
 10  9  1  0
 11 10  2  0
 11 12  1  0
 12 18  2  0
 13 12  1  0
 14 13  1  1
 15 14  1  0
 15  6  1  0
 16 17  2  0
 16 14  1  0
 18 19  1  0
 20 21  1  0
 21 22  2  0
 23 21  1  0
 23 24  1  0
 25 24  1  6
 25 26  1  0
 25 27  1  0
 26 16  1  0
 27 29  1  0
 28 27  2  0
M  END
$$$$
