PYQ.pdb
     RDKit          3D

 29 30  0  0  1  0  0  0  0  0999 V2000
   26.1813  -19.4738  -17.2921 N   0  0  0  0  0  0  0  0  0  0  0  0
   27.4303  -19.2535  -18.0389 C   0  0  0  0  0  0  0  0  0  0  0  0
   28.2095  -18.2524  -17.2261 C   0  0  0  0  0  0  0  0  0  0  0  0
   27.5296  -18.2762  -15.8746 C   0  0  0  0  0  0  0  0  0  0  0  0
   26.6167  -19.4739  -15.9382 C   0  0  1  0  0  0  0  0  0  0  0  0
   25.5077  -19.2934  -14.9596 C   0  0  0  0  0  0  0  0  0  0  0  0
   25.7624  -19.2020  -13.7338 O   0  0  0  0  0  0  0  0  0  0  0  0
   20.5668  -16.5757  -19.8514 O   0  0  0  0  0  0  0  0  0  0  0  0
   21.0015  -16.8417  -18.5431 C   0  0  0  0  0  0  0  0  0  0  0  0
   22.2814  -16.5406  -18.1945 C   0  0  0  0  0  0  0  0  0  0  0  0
   22.7442  -16.7950  -16.8947 C   0  0  0  0  0  0  0  0  0  0  0  0
   21.9172  -17.3524  -15.9477 C   0  0  0  0  0  0  0  0  0  0  0  0
   22.4345  -17.5984  -14.6183 C   0  0  0  0  0  0  0  0  0  0  0  0
   23.1093  -18.9173  -14.4069 C   0  0  2  0  0  0  0  0  0  0  0  0
   24.1383  -19.2164  -15.3453 N   0  0  0  0  0  0  0  0  0  0  0  0
   22.0871  -19.9880  -14.2982 C   0  0  0  0  0  0  0  0  0  0  0  0
   21.9940  -20.7640  -15.3088 O   0  0  0  0  0  0  0  0  0  0  0  0
   20.6264  -17.6511  -16.3154 C   0  0  0  0  0  0  0  0  0  0  0  0
   20.1633  -17.3973  -17.6136 C   0  0  0  0  0  0  0  0  0  0  0  0
   20.1683  -23.1140   -9.2558 N   0  0  0  0  0  0  0  0  0  0  0  0
   19.2708  -23.5634  -10.2489 C   0  0  0  0  0  0  0  0  0  0  0  0
   18.4304  -24.4449   -9.9507 O   0  0  0  0  0  0  0  0  0  0  0  0
   19.3135  -23.0074  -11.6004 C   0  0  0  0  0  0  0  0  0  0  0  0
   20.2566  -21.9114  -11.8674 C   0  0  0  0  0  0  0  0  0  0  0  0
   20.2959  -21.2919  -13.2245 C   0  0  2  0  0  0  0  0  0  0  0  0
   21.2545  -20.1805  -13.1874 N   0  0  0  0  0  0  0  0  0  0  0  0
   19.0055  -20.8374  -13.7194 C   0  0  0  0  0  0  0  0  0  0  0  0
   18.5875  -19.6331  -13.5622 O   0  0  0  0  0  0  0  0  0  0  0  0
   18.0863  -21.6404  -14.4214 O   0  0  0  0  0  0  0  0  0  0  0  0
  1  2  1  0
  3  2  1  0
  4  5  1  0
  4  3  1  0
  5  6  1  1
  5  1  1  0
  6  7  2  0
  9  8  1  0
  9 19  2  0
 10  9  1  0
 11 10  2  0
 11 12  1  0
 12 18  2  0
 13 12  1  0
 14 13  1  6
 15 14  1  0
 15  6  1  0
 16 17  2  0
 16 14  1  0
 18 19  1  0
 20 21  1  0
 21 22  2  0
 23 21  1  0
 23 24  1  0
 25 24  1  1
 25 26  1  0
 25 27  1  0
 26 16  1  0
 27 29  1  0
 28 27  2  0
M  END
$$$$
