PYQ.pdb
     RDKit          3D

 29 30  0  0  1  0  0  0  0  0999 V2000
   18.1631   -8.2294  -11.9463 N   0  0  0  0  0  0  0  0  0  0  0  0
   18.7219   -9.2792  -12.8133 C   0  0  0  0  0  0  0  0  0  0  0  0
   17.5431  -10.1176  -13.2348 C   0  0  0  0  0  0  0  0  0  0  0  0
   16.3470   -9.2517  -12.9046 C   0  0  0  0  0  0  0  0  0  0  0  0
   16.9398   -7.9013  -12.5931 C   0  0  1  0  0  0  0  0  0  0  0  0
   15.9953   -7.1437  -11.7245 C   0  0  0  0  0  0  0  0  0  0  0  0
   14.8986   -6.7465  -12.1884 O   0  0  0  0  0  0  0  0  0  0  0  0
   11.0271  -10.9320   -8.7781 O   0  0  0  0  0  0  0  0  0  0  0  0
   12.0290   -9.9553   -8.6616 C   0  0  0  0  0  0  0  0  0  0  0  0
   11.6807   -8.6830   -8.3297 C   0  0  0  0  0  0  0  0  0  0  0  0
   12.6599   -7.6858   -8.2059 C   0  0  0  0  0  0  0  0  0  0  0  0
   13.9885   -7.9715   -8.4167 C   0  0  0  0  0  0  0  0  0  0  0  0
   14.9667   -6.9133   -8.2788 C   0  0  0  0  0  0  0  0  0  0  0  0
   15.3216   -6.1759   -9.5316 C   0  0  2  0  0  0  0  0  0  0  0  0
   16.2729   -6.8360  -10.3614 N   0  0  0  0  0  0  0  0  0  0  0  0
   15.7047   -4.7814   -9.1973 C   0  0  0  0  0  0  0  0  0  0  0  0
   16.8767   -4.6347   -8.7106 O   0  0  0  0  0  0  0  0  0  0  0  0
   14.3246   -9.2620   -8.7516 C   0  0  0  0  0  0  0  0  0  0  0  0
   13.3472  -10.2587   -8.8754 C   0  0  0  0  0  0  0  0  0  0  0  0
   14.3890    0.3791  -12.3188 N   0  0  0  0  0  0  0  0  0  0  0  0
   15.0470    0.8895  -11.1784 C   0  0  0  0  0  0  0  0  0  0  0  0
   15.2681    2.1217  -11.1083 O   0  0  0  0  0  0  0  0  0  0  0  0
   15.4582   -0.0000  -10.0934 C   0  0  0  0  0  0  0  0  0  0  0  0
   15.0948   -1.4215  -10.1897 C   0  0  0  0  0  0  0  0  0  0  0  0
   15.4202   -2.3399   -9.0592 C   0  0  2  0  0  0  0  0  0  0  0  0
   14.8774   -3.6653   -9.3820 N   0  0  0  0  0  0  0  0  0  0  0  0
   14.9404   -1.8936   -7.7602 C   0  0  0  0  0  0  0  0  0  0  0  0
   13.9146   -2.4100   -7.1850 O   0  0  0  0  0  0  0  0  0  0  0  0
   15.5338   -0.8739   -6.9918 O   0  0  0  0  0  0  0  0  0  0  0  0
  1  2  1  0
  3  2  1  0
  4  5  1  0
  4  3  1  0
  5  6  1  1
  5  1  1  0
  6  7  2  0
  9  8  1  0
  9 19  2  0
 10  9  1  0
 11 10  2  0
 11 12  1  0
 12 18  2  0
 13 12  1  0
 14 13  1  1
 15 14  1  0
 15  6  1  0
 16 17  2  0
 16 14  1  0
 18 19  1  0
 20 21  1  0
 21 22  2  0
 23 21  1  0
 23 24  1  0
 25 24  1  6
 25 26  1  0
 25 27  1  0
 26 16  1  0
 27 29  1  0
 28 27  2  0
M  END
$$$$
