PYQ.pdb
     RDKit          3D

 29 30  0  0  1  0  0  0  0  0999 V2000
   28.1627  -19.3698  -13.2620 N   0  0  0  0  0  0  0  0  0  0  0  0
   29.4741  -19.2044  -13.9093 C   0  0  0  0  0  0  0  0  0  0  0  0
   30.3982  -20.1486  -13.1849 C   0  0  0  0  0  0  0  0  0  0  0  0
   29.4597  -21.0758  -12.4441 C   0  0  0  0  0  0  0  0  0  0  0  0
   28.1015  -20.7702  -13.0219 C   0  0  1  0  0  0  0  0  0  0  0  0
   27.0542  -21.1565  -12.0348 C   0  0  0  0  0  0  0  0  0  0  0  0
   26.6737  -22.3504  -11.9599 O   0  0  0  0  0  0  0  0  0  0  0  0
   29.5357  -20.6085   -5.6267 O   0  0  0  0  0  0  0  0  0  0  0  0
   28.4508  -20.4675   -6.5067 C   0  0  0  0  0  0  0  0  0  0  0  0
   27.4992  -19.5321   -6.2430 C   0  0  0  0  0  0  0  0  0  0  0  0
   26.4037  -19.3682   -7.1041 C   0  0  0  0  0  0  0  0  0  0  0  0
   26.2682  -20.1468   -8.2297 C   0  0  0  0  0  0  0  0  0  0  0  0
   25.1228  -19.9452   -9.0915 C   0  0  0  0  0  0  0  0  0  0  0  0
   25.2257  -20.5184  -10.4700 C   0  0  2  0  0  0  0  0  0  0  0  0
   26.4437  -20.2239  -11.1475 N   0  0  0  0  0  0  0  0  0  0  0  0
   24.0181  -20.1543  -11.2523 C   0  0  0  0  0  0  0  0  0  0  0  0
   24.1508  -19.1530  -12.0345 O   0  0  0  0  0  0  0  0  0  0  0  0
   27.2384  -21.0878   -8.4825 C   0  0  0  0  0  0  0  0  0  0  0  0
   28.3329  -21.2522   -7.6228 C   0  0  0  0  0  0  0  0  0  0  0  0
   23.7784  -21.9507  -15.7856 N   0  0  0  0  0  0  0  0  0  0  0  0
   22.9970  -22.6738  -14.8580 C   0  0  0  0  0  0  0  0  0  0  0  0
   23.2429  -23.8901  -14.6780 O   0  0  0  0  0  0  0  0  0  0  0  0
   21.9237  -22.0168  -14.1137 C   0  0  0  0  0  0  0  0  0  0  0  0
   22.2082  -20.7126  -13.4971 C   0  0  0  0  0  0  0  0  0  0  0  0
   21.7281  -20.4363  -12.1113 C   0  0  2  0  0  0  0  0  0  0  0  0
   22.7911  -20.8275  -11.1774 N   0  0  0  0  0  0  0  0  0  0  0  0
   20.4759  -21.0903  -11.7634 C   0  0  0  0  0  0  0  0  0  0  0  0
   19.3859  -20.8916  -12.4132 O   0  0  0  0  0  0  0  0  0  0  0  0
   20.3143  -22.0045  -10.7049 O   0  0  0  0  0  0  0  0  0  0  0  0
  1  2  1  0
  3  2  1  0
  4  5  1  0
  4  3  1  0
  5  6  1  1
  5  1  1  0
  6  7  2  0
  9  8  1  0
  9 19  2  0
 10  9  1  0
 11 10  2  0
 11 12  1  0
 12 18  2  0
 13 12  1  0
 14 13  1  1
 15 14  1  0
 15  6  1  0
 16 17  2  0
 16 14  1  0
 18 19  1  0
 20 21  1  0
 21 22  2  0
 23 21  1  0
 23 24  1  0
 25 24  1  6
 25 26  1  0
 25 27  1  0
 26 16  1  0
 27 29  1  0
 28 27  2  0
M  END
$$$$
