PYQ.pdb
     RDKit          3D

 29 30  0  0  1  0  0  0  0  0999 V2000
   25.5487  -23.5403  -16.7252 N   0  0  0  0  0  0  0  0  0  0  0  0
   26.6948  -24.1676  -17.4028 C   0  0  0  0  0  0  0  0  0  0  0  0
   27.8963  -23.3609  -16.9836 C   0  0  0  0  0  0  0  0  0  0  0  0
   27.4070  -22.5806  -15.7832 C   0  0  0  0  0  0  0  0  0  0  0  0
   26.0782  -23.2081  -15.4478 C   0  0  1  0  0  0  0  0  0  0  0  0
   25.2482  -22.2210  -14.7013 C   0  0  0  0  0  0  0  0  0  0  0  0
   25.6243  -21.8092  -13.5767 O   0  0  0  0  0  0  0  0  0  0  0  0
   28.4559  -17.5492  -16.8022 O   0  0  0  0  0  0  0  0  0  0  0  0
   27.1945  -17.9833  -16.3645 C   0  0  0  0  0  0  0  0  0  0  0  0
   26.3440  -18.5588  -17.2566 C   0  0  0  0  0  0  0  0  0  0  0  0
   25.0770  -19.0024  -16.8485 C   0  0  0  0  0  0  0  0  0  0  0  0
   24.6684  -18.8656  -15.5426 C   0  0  0  0  0  0  0  0  0  0  0  0
   23.3532  -19.3367  -15.1634 C   0  0  0  0  0  0  0  0  0  0  0  0
   23.2964  -20.6858  -14.5185 C   0  0  2  0  0  0  0  0  0  0  0  0
   24.0194  -21.7039  -15.2040 N   0  0  0  0  0  0  0  0  0  0  0  0
   21.8829  -21.0510  -14.2509 C   0  0  0  0  0  0  0  0  0  0  0  0
   21.0755  -20.8749  -15.2251 O   0  0  0  0  0  0  0  0  0  0  0  0
   25.5393  -18.2820  -14.6529 C   0  0  0  0  0  0  0  0  0  0  0  0
   26.8050  -17.8387  -15.0596 C   0  0  0  0  0  0  0  0  0  0  0  0
   19.4878  -23.7974   -9.0223 N   0  0  0  0  0  0  0  0  0  0  0  0
   19.2690  -24.5745  -10.1808 C   0  0  0  0  0  0  0  0  0  0  0  0
   18.9523  -25.7806  -10.0493 O   0  0  0  0  0  0  0  0  0  0  0  0
   19.4016  -23.9840  -11.5117 C   0  0  0  0  0  0  0  0  0  0  0  0
   19.7739  -22.5646  -11.6041 C   0  0  0  0  0  0  0  0  0  0  0  0
   19.9995  -21.9514  -12.9459 C   0  0  2  0  0  0  0  0  0  0  0  0
   21.4113  -21.5583  -13.0325 N   0  0  0  0  0  0  0  0  0  0  0  0
   19.1347  -20.8209  -13.2472 C   0  0  0  0  0  0  0  0  0  0  0  0
   19.4173  -19.6184  -12.8950 O   0  0  0  0  0  0  0  0  0  0  0  0
   17.9188  -20.9052  -13.9522 O   0  0  0  0  0  0  0  0  0  0  0  0
  1  2  1  0
  3  2  1  0
  4  5  1  0
  4  3  1  0
  5  6  1  6
  5  1  1  0
  6  7  2  0
  9  8  1  0
  9 19  2  0
 10  9  1  0
 11 10  2  0
 11 12  1  0
 12 18  2  0
 13 12  1  0
 14 13  1  6
 15 14  1  0
 15  6  1  0
 16 17  2  0
 16 14  1  0
 18 19  1  0
 20 21  1  0
 21 22  2  0
 23 21  1  0
 23 24  1  0
 25 24  1  1
 25 26  1  0
 25 27  1  0
 26 16  1  0
 27 29  1  0
 28 27  2  0
M  END
$$$$
