PYQ.pdb
     RDKit          3D

 29 30  0  0  1  0  0  0  0  0999 V2000
   24.4888  -23.0074  -14.2818 N   0  0  0  0  0  0  0  0  0  0  0  0
   25.8541  -22.8784  -14.8161 C   0  0  0  0  0  0  0  0  0  0  0  0
   26.2537  -21.4505  -14.5487 C   0  0  0  0  0  0  0  0  0  0  0  0
   25.2447  -20.9784  -13.5247 C   0  0  0  0  0  0  0  0  0  0  0  0
   24.5414  -22.2376  -13.0871 C   0  0  1  0  0  0  0  0  0  0  0  0
   23.1968  -21.8833  -12.5515 C   0  0  0  0  0  0  0  0  0  0  0  0
   23.0965  -21.0828  -11.5896 O   0  0  0  0  0  0  0  0  0  0  0  0
   22.1407  -16.9975  -16.5052 O   0  0  0  0  0  0  0  0  0  0  0  0
   21.5602  -18.0578  -15.7911 C   0  0  0  0  0  0  0  0  0  0  0  0
   21.7945  -19.3360  -16.1928 C   0  0  0  0  0  0  0  0  0  0  0  0
   21.2280  -20.4159  -15.4990 C   0  0  0  0  0  0  0  0  0  0  0  0
   20.4262  -20.2068  -14.4013 C   0  0  0  0  0  0  0  0  0  0  0  0
   19.8616  -21.3488  -13.7141 C   0  0  0  0  0  0  0  0  0  0  0  0
   20.7098  -21.9597  -12.6432 C   0  0  2  0  0  0  0  0  0  0  0  0
   21.9862  -22.4148  -13.0822 N   0  0  0  0  0  0  0  0  0  0  0  0
   19.9325  -23.0005  -11.9252 C   0  0  0  0  0  0  0  0  0  0  0  0
   19.9427  -24.1609  -12.4595 O   0  0  0  0  0  0  0  0  0  0  0  0
   20.1988  -18.9091  -14.0076 C   0  0  0  0  0  0  0  0  0  0  0  0
   20.7643  -17.8299  -14.7002 C   0  0  0  0  0  0  0  0  0  0  0  0
   17.0832  -24.7554   -5.4281 N   0  0  0  0  0  0  0  0  0  0  0  0
   18.1890  -24.5251   -6.2755 C   0  0  0  0  0  0  0  0  0  0  0  0
   19.2674  -24.1332   -5.7699 O   0  0  0  0  0  0  0  0  0  0  0  0
   18.0835  -24.7457   -7.7170 C   0  0  0  0  0  0  0  0  0  0  0  0
   18.6518  -23.7296   -8.6151 C   0  0  0  0  0  0  0  0  0  0  0  0
   18.5800  -23.9335  -10.0917 C   0  0  2  0  0  0  0  0  0  0  0  0
   19.2183  -22.7809  -10.7395 N   0  0  0  0  0  0  0  0  0  0  0  0
   17.2351  -24.1311  -10.6103 C   0  0  0  0  0  0  0  0  0  0  0  0
   16.4648  -23.1543  -10.9303 O   0  0  0  0  0  0  0  0  0  0  0  0
   16.6343  -25.3858  -10.8275 O   0  0  0  0  0  0  0  0  0  0  0  0
  1  2  1  0
  3  2  1  0
  4  5  1  0
  4  3  1  0
  5  6  1  6
  5  1  1  0
  6  7  2  0
  9  8  1  0
  9 19  2  0
 10  9  1  0
 11 10  2  0
 11 12  1  0
 12 18  2  0
 13 12  1  0
 14 13  1  6
 15 14  1  0
 15  6  1  0
 16 17  2  0
 16 14  1  0
 18 19  1  0
 20 21  1  0
 21 22  2  0
 23 21  1  0
 23 24  1  0
 25 24  1  1
 25 26  1  0
 25 27  1  0
 26 16  1  0
 27 29  1  0
 28 27  2  0
M  END
$$$$
