PYQ.pdb
     RDKit          3D

 29 30  0  0  1  0  0  0  0  0999 V2000
   27.9393  -20.9455  -18.0914 N   0  0  0  0  0  0  0  0  0  0  0  0
   29.0322  -20.9699  -19.0769 C   0  0  0  0  0  0  0  0  0  0  0  0
   30.2004  -21.5970  -18.3613 C   0  0  0  0  0  0  0  0  0  0  0  0
   29.5735  -22.2506  -17.1493 C   0  0  0  0  0  0  0  0  0  0  0  0
   28.0916  -22.1887  -17.4177 C   0  0  1  0  0  0  0  0  0  0  0  0
   27.3590  -22.2535  -16.1217 C   0  0  0  0  0  0  0  0  0  0  0  0
   27.0858  -23.3673  -15.6113 O   0  0  0  0  0  0  0  0  0  0  0  0
   24.2428  -20.6791   -8.0572 O   0  0  0  0  0  0  0  0  0  0  0  0
   24.8249  -20.5418   -9.3274 C   0  0  0  0  0  0  0  0  0  0  0  0
   25.9949  -21.1820   -9.5944 C   0  0  0  0  0  0  0  0  0  0  0  0
   26.6002  -21.0635  -10.8546 C   0  0  0  0  0  0  0  0  0  0  0  0
   26.0261  -20.3003  -11.8442 C   0  0  0  0  0  0  0  0  0  0  0  0
   26.6835  -20.2048  -13.1303 C   0  0  0  0  0  0  0  0  0  0  0  0
   26.2397  -21.1831  -14.1721 C   0  0  2  0  0  0  0  0  0  0  0  0
   26.9395  -21.0930  -15.4096 N   0  0  0  0  0  0  0  0  0  0  0  0
   24.7653  -21.1114  -14.3270 C   0  0  0  0  0  0  0  0  0  0  0  0
   24.3282  -20.0941  -14.9643 O   0  0  0  0  0  0  0  0  0  0  0  0
   24.8435  -19.6594  -11.5589 C   0  0  0  0  0  0  0  0  0  0  0  0
   24.2383  -19.7772  -10.3004 C   0  0  0  0  0  0  0  0  0  0  0  0
   20.7647  -25.8203  -14.9128 N   0  0  0  0  0  0  0  0  0  0  0  0
   21.1394  -24.9932  -15.9941 C   0  0  0  0  0  0  0  0  0  0  0  0
   20.9889  -25.4207  -17.1632 O   0  0  0  0  0  0  0  0  0  0  0  0
   21.6869  -23.6582  -15.7580 C   0  0  0  0  0  0  0  0  0  0  0  0
   21.8326  -23.2072  -14.3662 C   0  0  0  0  0  0  0  0  0  0  0  0
   22.4357  -21.8709  -14.0876 C   0  0  2  0  0  0  0  0  0  0  0  0
   23.8677  -22.0654  -13.8288 N   0  0  0  0  0  0  0  0  0  0  0  0
   21.8128  -21.1426  -12.9929 C   0  0  0  0  0  0  0  0  0  0  0  0
   22.0818  -21.3809  -11.7597 O   0  0  0  0  0  0  0  0  0  0  0  0
   20.8709  -20.1079  -13.1497 O   0  0  0  0  0  0  0  0  0  0  0  0
  1  2  1  0
  3  2  1  0
  4  5  1  0
  4  3  1  0
  5  6  1  1
  5  1  1  0
  6  7  2  0
  9  8  1  0
  9 19  2  0
 10  9  1  0
 11 10  2  0
 11 12  1  0
 12 18  2  0
 13 12  1  0
 14 13  1  1
 15 14  1  0
 15  6  1  0
 16 17  2  0
 16 14  1  0
 18 19  1  0
 20 21  1  0
 21 22  2  0
 23 21  1  0
 23 24  1  0
 25 24  1  1
 25 26  1  0
 25 27  1  0
 26 16  1  0
 27 29  1  0
 28 27  2  0
M  END
$$$$
