PYQ.pdb
     RDKit          3D

 29 30  0  0  1  0  0  0  0  0999 V2000
   16.6802  -11.3680  -11.7439 N   0  0  0  0  0  0  0  0  0  0  0  0
   15.9776  -12.6496  -11.9171 C   0  0  0  0  0  0  0  0  0  0  0  0
   14.5107  -12.3066  -11.8932 C   0  0  0  0  0  0  0  0  0  0  0  0
   14.4859  -10.8094  -12.1105 C   0  0  0  0  0  0  0  0  0  0  0  0
   15.8964  -10.4690  -12.5185 C   0  0  1  0  0  0  0  0  0  0  0  0
   16.1603   -9.0355  -12.2089 C   0  0  0  0  0  0  0  0  0  0  0  0
   15.6716   -8.1370  -12.9367 O   0  0  0  0  0  0  0  0  0  0  0  0
   11.3727   -6.9650   -7.9524 O   0  0  0  0  0  0  0  0  0  0  0  0
   12.7195   -6.9424   -8.3485 C   0  0  0  0  0  0  0  0  0  0  0  0
   13.6498   -6.4131   -7.5091 C   0  0  0  0  0  0  0  0  0  0  0  0
   15.0030   -6.3767   -7.8776 C   0  0  0  0  0  0  0  0  0  0  0  0
   15.4174   -6.8735   -9.0912 C   0  0  0  0  0  0  0  0  0  0  0  0
   16.8231   -6.8165   -9.4324 C   0  0  0  0  0  0  0  0  0  0  0  0
   17.1817   -7.2367  -10.8231 C   0  0  2  0  0  0  0  0  0  0  0  0
   16.9567   -8.6148  -11.1051 N   0  0  0  0  0  0  0  0  0  0  0  0
   18.5629   -6.7931  -11.1370 C   0  0  0  0  0  0  0  0  0  0  0  0
   19.4936   -7.5795  -10.7532 O   0  0  0  0  0  0  0  0  0  0  0  0
   14.4652   -7.4051   -9.9287 C   0  0  0  0  0  0  0  0  0  0  0  0
   13.1133   -7.4418   -9.5613 C   0  0  0  0  0  0  0  0  0  0  0  0
   22.0243   -9.2361  -14.7836 N   0  0  0  0  0  0  0  0  0  0  0  0
   21.5140   -7.9827  -15.1868 C   0  0  0  0  0  0  0  0  0  0  0  0
   21.0893   -7.8512  -16.3592 O   0  0  0  0  0  0  0  0  0  0  0  0
   21.4736   -6.8580  -14.2535 C   0  0  0  0  0  0  0  0  0  0  0  0
   20.2779   -6.7005  -13.4124 C   0  0  0  0  0  0  0  0  0  0  0  0
   20.1725   -5.5238  -12.5005 C   0  0  2  0  0  0  0  0  0  0  0  0
   18.8816   -5.6034  -11.8058 N   0  0  0  0  0  0  0  0  0  0  0  0
   20.3205   -4.2343  -13.1577 C   0  0  0  0  0  0  0  0  0  0  0  0
   19.3159   -3.5353  -13.5478 O   0  0  0  0  0  0  0  0  0  0  0  0
   21.5519   -3.6081  -13.4299 O   0  0  0  0  0  0  0  0  0  0  0  0
  1  2  1  0
  3  2  1  0
  4  5  1  0
  4  3  1  0
  5  6  1  1
  5  1  1  0
  6  7  2  0
  9  8  1  0
  9 19  2  0
 10  9  1  0
 11 10  2  0
 11 12  1  0
 12 18  2  0
 13 12  1  0
 14 13  1  1
 15 14  1  0
 15  6  1  0
 16 17  2  0
 16 14  1  0
 18 19  1  0
 20 21  1  0
 21 22  2  0
 23 21  1  0
 23 24  1  0
 25 24  1  6
 25 26  1  0
 25 27  1  0
 26 16  1  0
 27 29  1  0
 28 27  2  0
M  END
$$$$
