IIG.pdb
     RDKit          3D

 21 20  0  0  1  0  0  0  0  0999 V2000
   26.0022  -14.5661  -15.9495 C   0  0  0  0  0  0  0  0  0  0  0  0
   24.5662  -14.1763  -16.0117 C   0  0  0  0  0  0  0  0  0  0  0  0
   24.3151  -12.7037  -16.2101 C   0  0  2  0  0  0  0  0  0  0  0  0
   25.0002  -11.8854  -15.1661 C   0  0  0  0  0  0  0  0  0  0  0  0
   22.8253  -12.4907  -16.2941 C   0  0  2  0  0  0  0  0  0  0  0  0
   22.3863  -13.3177  -17.4346 N   0  0  0  0  0  0  0  0  0  0  0  0
   22.4316  -11.0985  -16.6097 C   0  0  0  0  0  0  0  0  0  0  0  0
   22.8736  -10.5399  -17.6748 O   0  0  0  0  0  0  0  0  0  0  0  0
   18.3095  -10.6327  -17.4578 C   0  0  0  0  0  0  0  0  0  0  0  0
   19.4178   -9.6021  -17.7380 C   0  0  0  0  0  0  0  0  0  0  0  0
   19.8089   -8.8917  -16.4829 C   0  0  2  0  0  0  0  0  0  0  0  0
   19.1346   -7.5654  -16.3030 C   0  0  0  0  0  0  0  0  0  0  0  0
   21.2879   -8.8893  -16.2051 C   0  0  2  0  0  0  0  0  0  0  0  0
   21.5821  -10.2884  -15.8264 N   0  0  0  0  0  0  0  0  0  0  0  0
   21.7688   -7.9568  -15.2024 C   0  0  0  0  0  0  0  0  0  0  0  0
   21.4507   -8.2208  -13.9865 O   0  0  0  0  0  0  0  0  0  0  0  0
   22.5419   -6.8060  -15.4314 N   0  0  0  0  0  0  0  0  0  0  0  0
   23.0121   -6.0177  -14.3093 C   0  0  0  0  0  0  0  0  0  0  0  0
   22.0314   -4.9765  -13.9181 C   0  0  0  0  0  0  0  0  0  0  0  0
   22.2573   -4.0663  -12.8990 O   0  0  0  0  0  0  0  0  0  0  0  0
   20.9400   -4.9056  -14.5318 O   0  0  0  0  0  0  0  0  0  0  0  0
  2  1  1  0
  2  3  1  0
  3  5  1  0
  3  4  1  1
  5  7  1  0
  5  6  1  6
  7  8  2  0
 10  9  1  0
 11 10  1  0
 11 12  1  6
 13 11  1  0
 14  7  1  0
 13 14  1  1
 15 17  1  0
 15 13  1  0
 16 15  2  0
 18 17  1  0
 19 20  1  0
 19 18  1  0
 21 19  2  0
M  END
$$$$
