IIG.pdb
     RDKit          3D

 21 20  0  0  1  0  0  0  0  0999 V2000
   28.5544  -18.8421  -18.2253 C   0  0  0  0  0  0  0  0  0  0  0  0
   28.7617  -19.5587  -16.9364 C   0  0  0  0  0  0  0  0  0  0  0  0
   27.4975  -19.9288  -16.2042 C   0  0  2  0  0  0  0  0  0  0  0  0
   26.5913  -18.7528  -16.0464 C   0  0  0  0  0  0  0  0  0  0  0  0
   27.8855  -20.5978  -14.9104 C   0  0  2  0  0  0  0  0  0  0  0  0
   28.6252  -21.8087  -15.3149 N   0  0  0  0  0  0  0  0  0  0  0  0
   26.7346  -21.0603  -14.1014 C   0  0  0  0  0  0  0  0  0  0  0  0
   26.0865  -22.1060  -14.4596 O   0  0  0  0  0  0  0  0  0  0  0  0
   26.9802  -20.7341   -8.8576 C   0  0  0  0  0  0  0  0  0  0  0  0
   26.6522  -21.2578  -10.2673 C   0  0  0  0  0  0  0  0  0  0  0  0
   25.3677  -20.6762  -10.7620 C   0  0  2  0  0  0  0  0  0  0  0  0
   24.2111  -20.8851   -9.8322 C   0  0  0  0  0  0  0  0  0  0  0  0
   25.0723  -20.9629  -12.2094 C   0  0  2  0  0  0  0  0  0  0  0  0
   26.2577  -20.4433  -12.9253 N   0  0  0  0  0  0  0  0  0  0  0  0
   23.8431  -20.4148  -12.7525 C   0  0  0  0  0  0  0  0  0  0  0  0
   23.7530  -19.1338  -12.7655 O   0  0  0  0  0  0  0  0  0  0  0  0
   22.7545  -21.1430  -13.2613 N   0  0  0  0  0  0  0  0  0  0  0  0
   21.5979  -20.4418  -13.7828 C   0  0  0  0  0  0  0  0  0  0  0  0
   20.4780  -20.4272  -12.8109 C   0  0  0  0  0  0  0  0  0  0  0  0
   19.2891  -19.7526  -13.0337 O   0  0  0  0  0  0  0  0  0  0  0  0
   20.6003  -21.0521  -11.7305 O   0  0  0  0  0  0  0  0  0  0  0  0
  2  1  1  0
  2  3  1  0
  3  5  1  0
  3  4  1  1
  5  7  1  0
  5  6  1  6
  7  8  2  0
 10  9  1  0
 11 10  1  0
 11 12  1  1
 13 11  1  0
 14  7  1  0
 13 14  1  6
 15 17  1  0
 15 13  1  0
 16 15  2  0
 18 17  1  0
 19 20  1  0
 19 18  1  0
 21 19  2  0
M  END
$$$$
