IIG.pdb
     RDKit          3D

 21 20  0  0  1  0  0  0  0  0999 V2000
   25.3459  -13.8210  -18.2684 C   0  0  0  0  0  0  0  0  0  0  0  0
   25.2797  -12.6404  -17.3631 C   0  0  0  0  0  0  0  0  0  0  0  0
   24.2028  -11.6411  -17.6993 C   0  0  2  0  0  0  0  0  0  0  0  0
   24.2768  -11.2158  -19.1285 C   0  0  0  0  0  0  0  0  0  0  0  0
   24.2869  -10.5112  -16.7051 C   0  0  2  0  0  0  0  0  0  0  0  0
   24.4378  -11.1692  -15.3930 N   0  0  0  0  0  0  0  0  0  0  0  0
   23.0590   -9.6877  -16.6223 C   0  0  0  0  0  0  0  0  0  0  0  0
   22.7303   -8.9375  -17.6076 O   0  0  0  0  0  0  0  0  0  0  0  0
   18.9147  -10.6056  -17.2094 C   0  0  0  0  0  0  0  0  0  0  0  0
   19.6599  -10.9778  -15.9151 C   0  0  0  0  0  0  0  0  0  0  0  0
   19.8728   -9.7700  -15.0613 C   0  0  2  0  0  0  0  0  0  0  0  0
   18.6022   -9.1029  -14.6294 C   0  0  0  0  0  0  0  0  0  0  0  0
   20.9370   -8.8327  -15.5648 C   0  0  2  0  0  0  0  0  0  0  0  0
   22.1740   -9.6424  -15.5240 N   0  0  0  0  0  0  0  0  0  0  0  0
   21.1011   -7.5785  -14.8531 C   0  0  0  0  0  0  0  0  0  0  0  0
   20.1081   -6.7659  -14.9038 O   0  0  0  0  0  0  0  0  0  0  0  0
   22.2296   -7.1729  -14.1206 N   0  0  0  0  0  0  0  0  0  0  0  0
   22.1854   -5.9478  -13.3469 C   0  0  0  0  0  0  0  0  0  0  0  0
   22.2245   -4.7462  -14.2149 C   0  0  0  0  0  0  0  0  0  0  0  0
   22.2346   -3.4528  -13.7197 O   0  0  0  0  0  0  0  0  0  0  0  0
   22.2501   -4.8941  -15.4600 O   0  0  0  0  0  0  0  0  0  0  0  0
  2  1  1  0
  2  3  1  0
  3  5  1  0
  3  4  1  6
  5  7  1  0
  5  6  1  1
  7  8  2  0
 10  9  1  0
 11 10  1  0
 11 12  1  6
 13 11  1  0
 14  7  1  0
 13 14  1  1
 15 17  1  0
 15 13  1  0
 16 15  2  0
 18 17  1  0
 19 20  1  0
 19 18  1  0
 21 19  2  0
M  END
$$$$
