IIG.pdb
     RDKit          3D

 21 20  0  0  1  0  0  0  0  0999 V2000
   18.7929  -15.3835  -18.4726 C   0  0  0  0  0  0  0  0  0  0  0  0
   20.2722  -15.2491  -18.3656 C   0  0  0  0  0  0  0  0  0  0  0  0
   20.7479  -14.2700  -17.3234 C   0  0  2  0  0  0  0  0  0  0  0  0
   20.0916  -12.9385  -17.4823 C   0  0  0  0  0  0  0  0  0  0  0  0
   22.2542  -14.2345  -17.3685 C   0  0  2  0  0  0  0  0  0  0  0  0
   22.6736  -15.6372  -17.1851 N   0  0  0  0  0  0  0  0  0  0  0  0
   22.8729  -13.4644  -16.2654 C   0  0  0  0  0  0  0  0  0  0  0  0
   22.6981  -13.8403  -15.0530 O   0  0  0  0  0  0  0  0  0  0  0  0
   27.9024  -12.4429  -15.9690 C   0  0  0  0  0  0  0  0  0  0  0  0
   26.4508  -12.6874  -15.5194 C   0  0  0  0  0  0  0  0  0  0  0  0
   25.6657  -11.4163  -15.5525 C   0  0  2  0  0  0  0  0  0  0  0  0
   26.3309  -10.2756  -14.8438 C   0  0  0  0  0  0  0  0  0  0  0  0
   24.2019  -11.5817  -15.2447 C   0  0  2  0  0  0  0  0  0  0  0  0
   23.6709  -12.3104  -16.4171 N   0  0  0  0  0  0  0  0  0  0  0  0
   23.4425  -10.3728  -14.9838 C   0  0  0  0  0  0  0  0  0  0  0  0
   23.6852   -9.7825  -13.8695 O   0  0  0  0  0  0  0  0  0  0  0  0
   22.4784   -9.7917  -15.8249 N   0  0  0  0  0  0  0  0  0  0  0  0
   21.8132   -8.5682  -15.4225 C   0  0  0  0  0  0  0  0  0  0  0  0
   22.5130   -7.3660  -15.9362 C   0  0  0  0  0  0  0  0  0  0  0  0
   22.1097   -6.0727  -15.6485 O   0  0  0  0  0  0  0  0  0  0  0  0
   23.5207   -7.5134  -16.6682 O   0  0  0  0  0  0  0  0  0  0  0  0
  2  1  1  0
  2  3  1  0
  3  5  1  0
  3  4  1  6
  5  7  1  0
  5  6  1  1
  7  8  2  0
 10  9  1  0
 11 10  1  0
 11 12  1  1
 13 11  1  0
 14  7  1  0
 13 14  1  6
 15 17  1  0
 15 13  1  0
 16 15  2  0
 18 17  1  0
 19 20  1  0
 19 18  1  0
 21 19  2  0
M  END
$$$$
