IIG.pdb
     RDKit          3D

 21 20  0  0  1  0  0  0  0  0999 V2000
   28.3090  -11.7536  -16.3031 C   0  0  0  0  0  0  0  0  0  0  0  0
   26.8925  -12.2099  -16.2476 C   0  0  0  0  0  0  0  0  0  0  0  0
   25.8664  -11.1086  -16.3216 C   0  0  2  0  0  0  0  0  0  0  0  0
   26.1066  -10.0650  -15.2813 C   0  0  0  0  0  0  0  0  0  0  0  0
   24.4987  -11.7400  -16.2704 C   0  0  2  0  0  0  0  0  0  0  0  0
   24.4816  -12.7024  -17.3888 N   0  0  0  0  0  0  0  0  0  0  0  0
   23.3872  -10.7927  -16.5157 C   0  0  0  0  0  0  0  0  0  0  0  0
   23.2151  -10.3062  -17.6884 O   0  0  0  0  0  0  0  0  0  0  0  0
   17.7068   -9.9747  -16.3843 C   0  0  0  0  0  0  0  0  0  0  0  0
   18.9874   -9.1369  -16.2196 C   0  0  0  0  0  0  0  0  0  0  0  0
   20.1677  -10.0186  -15.9695 C   0  0  2  0  0  0  0  0  0  0  0  0
   19.9349  -11.0563  -14.9136 C   0  0  0  0  0  0  0  0  0  0  0  0
   21.4774   -9.2863  -15.8554 C   0  0  2  0  0  0  0  0  0  0  0  0
   22.4566  -10.3521  -15.5506 N   0  0  0  0  0  0  0  0  0  0  0  0
   21.5480   -8.2091  -14.8855 C   0  0  0  0  0  0  0  0  0  0  0  0
   21.9207   -8.5383  -13.7015 O   0  0  0  0  0  0  0  0  0  0  0  0
   21.2522   -6.8547  -15.1152 N   0  0  0  0  0  0  0  0  0  0  0  0
   21.4280   -5.8871  -14.0502 C   0  0  0  0  0  0  0  0  0  0  0  0
   22.5589   -4.9675  -14.3224 C   0  0  0  0  0  0  0  0  0  0  0  0
   22.8746   -3.8918  -13.5091 O   0  0  0  0  0  0  0  0  0  0  0  0
   23.2725   -5.1619  -15.3352 O   0  0  0  0  0  0  0  0  0  0  0  0
  2  1  1  0
  2  3  1  0
  3  5  1  0
  3  4  1  1
  5  7  1  0
  5  6  1  6
  7  8  2  0
 10  9  1  0
 11 10  1  0
 11 12  1  1
 13 11  1  0
 14  7  1  0
 13 14  1  1
 15 17  1  0
 15 13  1  0
 16 15  2  0
 18 17  1  0
 19 20  1  0
 19 18  1  0
 21 19  2  0
M  END
$$$$
