IIG.pdb
     RDKit          3D

 21 20  0  0  1  0  0  0  0  0999 V2000
    9.0810   -9.8178   -6.8321 C   0  0  0  0  0  0  0  0  0  0  0  0
    9.6328  -10.2722   -8.1386 C   0  0  0  0  0  0  0  0  0  0  0  0
   11.1167  -10.0699   -8.3068 C   0  0  2  0  0  0  0  0  0  0  0  0
   11.5292   -8.6889   -7.9171 C   0  0  0  0  0  0  0  0  0  0  0  0
   11.4847  -10.4586   -9.7159 C   0  0  2  0  0  0  0  0  0  0  0  0
   11.2467  -11.9133   -9.7839 N   0  0  0  0  0  0  0  0  0  0  0  0
   12.9135  -10.2518  -10.0454 C   0  0  0  0  0  0  0  0  0  0  0  0
   13.8015  -11.0158   -9.5263 O   0  0  0  0  0  0  0  0  0  0  0  0
   13.8376  -10.6322  -14.3285 C   0  0  0  0  0  0  0  0  0  0  0  0
   14.7373  -10.6763  -13.0804 C   0  0  0  0  0  0  0  0  0  0  0  0
   15.0497   -9.2947  -12.6046 C   0  0  2  0  0  0  0  0  0  0  0  0
   16.3196   -8.7332  -13.1686 C   0  0  0  0  0  0  0  0  0  0  0  0
   14.8748   -9.0929  -11.1236 C   0  0  2  0  0  0  0  0  0  0  0  0
   13.4207   -9.2587  -10.9102 N   0  0  0  0  0  0  0  0  0  0  0  0
   15.3522   -7.8400  -10.5680 C   0  0  0  0  0  0  0  0  0  0  0  0
   14.6918   -6.7886  -10.8957 O   0  0  0  0  0  0  0  0  0  0  0  0
   16.4550   -7.6689   -9.7141 N   0  0  0  0  0  0  0  0  0  0  0  0
   16.8274   -6.3387   -9.2745 C   0  0  0  0  0  0  0  0  0  0  0  0
   17.5416   -5.5877  -10.3350 C   0  0  0  0  0  0  0  0  0  0  0  0
   17.9759   -4.2820  -10.1785 O   0  0  0  0  0  0  0  0  0  0  0  0
   17.7699   -6.1506  -11.4323 O   0  0  0  0  0  0  0  0  0  0  0  0
  2  1  1  0
  2  3  1  0
  3  5  1  0
  3  4  1  6
  5  7  1  0
  5  6  1  1
  7  8  2  0
 10  9  1  0
 11 10  1  0
 11 12  1  1
 13 11  1  0
 14  7  1  0
 13 14  1  6
 15 17  1  0
 15 13  1  0
 16 15  2  0
 18 17  1  0
 19 20  1  0
 19 18  1  0
 21 19  2  0
M  END
$$$$
