IIG.pdb
     RDKit          3D

 21 20  0  0  1  0  0  0  0  0999 V2000
   28.1839  -18.6897  -18.0650 C   0  0  0  0  0  0  0  0  0  0  0  0
   28.5190  -19.3598  -16.7780 C   0  0  0  0  0  0  0  0  0  0  0  0
   27.3336  -19.7085  -15.9152 C   0  0  2  0  0  0  0  0  0  0  0  0
   26.4413  -18.5296  -15.7076 C   0  0  0  0  0  0  0  0  0  0  0  0
   27.8484  -20.3349  -14.6446 C   0  0  2  0  0  0  0  0  0  0  0  0
   28.6321  -21.5042  -15.0871 N   0  0  0  0  0  0  0  0  0  0  0  0
   26.7854  -20.8552  -13.7545 C   0  0  0  0  0  0  0  0  0  0  0  0
   26.1893  -21.9500  -14.0507 O   0  0  0  0  0  0  0  0  0  0  0  0
   27.5463  -20.5148   -8.5871 C   0  0  0  0  0  0  0  0  0  0  0  0
   27.1096  -21.0458   -9.9642 C   0  0  0  0  0  0  0  0  0  0  0  0
   25.7412  -20.5555  -10.3104 C   0  0  2  0  0  0  0  0  0  0  0  0
   24.7136  -20.8346   -9.2559 C   0  0  0  0  0  0  0  0  0  0  0  0
   25.3044  -20.8723  -11.7153 C   0  0  2  0  0  0  0  0  0  0  0  0
   26.3425  -20.2450  -12.5617 N   0  0  0  0  0  0  0  0  0  0  0  0
   23.9736  -20.4436  -12.1043 C   0  0  0  0  0  0  0  0  0  0  0  0
   23.8280  -19.1879  -12.3306 O   0  0  0  0  0  0  0  0  0  0  0  0
   22.8415  -21.2619  -12.2569 N   0  0  0  0  0  0  0  0  0  0  0  0
   21.5635  -20.6690  -12.5986 C   0  0  0  0  0  0  0  0  0  0  0  0
   21.2881  -20.7538  -14.0531 C   0  0  0  0  0  0  0  0  0  0  0  0
   20.1175  -20.2921  -14.6317 O   0  0  0  0  0  0  0  0  0  0  0  0
   22.1488  -21.2663  -14.8077 O   0  0  0  0  0  0  0  0  0  0  0  0
  2  1  1  0
  2  3  1  0
  3  5  1  0
  3  4  1  1
  5  7  1  0
  5  6  1  6
  7  8  2  0
 10  9  1  0
 11 10  1  0
 11 12  1  1
 13 11  1  0
 14  7  1  0
 13 14  1  6
 15 17  1  0
 15 13  1  0
 16 15  2  0
 18 17  1  0
 19 20  1  0
 19 18  1  0
 21 19  2  0
M  END
$$$$
