IIG.pdb
     RDKit          3D

 21 20  0  0  1  0  0  0  0  0999 V2000
   25.2386  -14.8689  -17.1860 C   0  0  0  0  0  0  0  0  0  0  0  0
   25.1593  -13.5887  -16.4293 C   0  0  0  0  0  0  0  0  0  0  0  0
   24.2741  -12.5379  -17.0484 C   0  0  2  0  0  0  0  0  0  0  0  0
   24.5865  -12.3412  -18.4951 C   0  0  0  0  0  0  0  0  0  0  0  0
   24.3754  -11.2888  -16.2110 C   0  0  2  0  0  0  0  0  0  0  0  0
   24.2479  -11.7541  -14.8165 N   0  0  0  0  0  0  0  0  0  0  0  0
   23.2752  -10.3227  -16.4328 C   0  0  0  0  0  0  0  0  0  0  0  0
   23.3133   -9.5391  -17.4458 O   0  0  0  0  0  0  0  0  0  0  0  0
   19.1045  -12.3745  -16.6888 C   0  0  0  0  0  0  0  0  0  0  0  0
   19.5896  -10.9747  -17.1064 C   0  0  0  0  0  0  0  0  0  0  0  0
   19.8081  -10.1110  -15.9067 C   0  0  2  0  0  0  0  0  0  0  0  0
   18.5735   -9.4022  -15.4384 C   0  0  0  0  0  0  0  0  0  0  0  0
   21.0405   -9.2502  -15.9767 C   0  0  2  0  0  0  0  0  0  0  0  0
   22.1393  -10.1697  -15.6096 N   0  0  0  0  0  0  0  0  0  0  0  0
   21.0556   -8.0528  -15.1569 C   0  0  0  0  0  0  0  0  0  0  0  0
   20.1287   -7.1955  -15.3916 O   0  0  0  0  0  0  0  0  0  0  0  0
   21.9763   -7.7451  -14.1409 N   0  0  0  0  0  0  0  0  0  0  0  0
   21.8698   -6.4878  -13.4273 C   0  0  0  0  0  0  0  0  0  0  0  0
   22.4123   -5.3574  -14.2188 C   0  0  0  0  0  0  0  0  0  0  0  0
   22.7680   -5.4671  -15.5528 O   0  0  0  0  0  0  0  0  0  0  0  0
   22.5614   -4.2418  -13.6654 O   0  0  0  0  0  0  0  0  0  0  0  0
  2  1  1  0
  2  3  1  0
  3  5  1  0
  3  4  1  6
  5  7  1  0
  5  6  1  1
  7  8  2  0
 10  9  1  0
 11 10  1  0
 11 12  1  6
 13 11  1  0
 14  7  1  0
 13 14  1  1
 15 17  1  0
 15 13  1  0
 16 15  2  0
 18 17  1  0
 19 20  1  0
 19 18  1  0
 21 19  2  0
M  END
$$$$
