IIG.pdb
     RDKit          3D

 21 20  0  0  1  0  0  0  0  0999 V2000
   18.9030  -16.4034  -17.4172 C   0  0  0  0  0  0  0  0  0  0  0  0
   18.0128  -15.3513  -16.8528 C   0  0  0  0  0  0  0  0  0  0  0  0
   18.3058  -14.9697  -15.4246 C   0  0  2  0  0  0  0  0  0  0  0  0
   18.9852  -16.0775  -14.6897 C   0  0  0  0  0  0  0  0  0  0  0  0
   17.0209  -14.4964  -14.7944 C   0  0  2  0  0  0  0  0  0  0  0  0
   16.0222  -15.5231  -15.1492 N   0  0  0  0  0  0  0  0  0  0  0  0
   16.5172  -13.2153  -15.3401 C   0  0  0  0  0  0  0  0  0  0  0  0
   16.3007  -13.1027  -16.5979 O   0  0  0  0  0  0  0  0  0  0  0  0
   12.5348  -12.1249  -14.5036 C   0  0  0  0  0  0  0  0  0  0  0  0
   13.4130  -11.3441  -15.4977 C   0  0  0  0  0  0  0  0  0  0  0  0
   14.4470  -10.5438  -14.7744 C   0  0  2  0  0  0  0  0  0  0  0  0
   14.0821   -9.1009  -14.5992 C   0  0  0  0  0  0  0  0  0  0  0  0
   15.8576  -10.7848  -15.2403 C   0  0  2  0  0  0  0  0  0  0  0  0
   16.2371  -12.0558  -14.5860 N   0  0  0  0  0  0  0  0  0  0  0  0
   16.8283   -9.7401  -14.9711 C   0  0  0  0  0  0  0  0  0  0  0  0
   17.2160   -9.6295  -13.7519 O   0  0  0  0  0  0  0  0  0  0  0  0
   17.3798   -8.8483  -15.9066 N   0  0  0  0  0  0  0  0  0  0  0  0
   18.2584   -7.7856  -15.4592 C   0  0  0  0  0  0  0  0  0  0  0  0
   17.5014   -6.6618  -14.8567 C   0  0  0  0  0  0  0  0  0  0  0  0
   16.1243   -6.6676  -14.7094 O   0  0  0  0  0  0  0  0  0  0  0  0
   18.1264   -5.6507  -14.4568 O   0  0  0  0  0  0  0  0  0  0  0  0
  2  1  1  0
  2  3  1  0
  3  5  1  0
  3  4  1  1
  5  7  1  0
  5  6  1  6
  7  8  2  0
 10  9  1  0
 11 10  1  0
 11 12  1  6
 13 11  1  0
 14  7  1  0
 13 14  1  1
 15 17  1  0
 15 13  1  0
 16 15  2  0
 18 17  1  0
 19 20  1  0
 19 18  1  0
 21 19  2  0
M  END
$$$$
