IIG.pdb
     RDKit          3D

 21 20  0  0  1  0  0  0  0  0999 V2000
   25.4780  -20.1872   -9.1785 C   0  0  0  0  0  0  0  0  0  0  0  0
   26.3842  -20.2073  -10.3602 C   0  0  0  0  0  0  0  0  0  0  0  0
   25.9286  -21.0870  -11.4958 C   0  0  2  0  0  0  0  0  0  0  0  0
   25.8870  -22.5240  -11.0932 C   0  0  0  0  0  0  0  0  0  0  0  0
   26.8008  -20.7970  -12.6905 C   0  0  2  0  0  0  0  0  0  0  0  0
   28.1776  -20.7749  -12.1602 N   0  0  0  0  0  0  0  0  0  0  0  0
   26.5655  -19.4687  -13.3012 C   0  0  0  0  0  0  0  0  0  0  0  0
   26.8343  -18.4075  -12.6354 O   0  0  0  0  0  0  0  0  0  0  0  0
   28.9700  -17.8498  -16.8928 C   0  0  0  0  0  0  0  0  0  0  0  0
   28.0506  -17.5833  -15.6876 C   0  0  0  0  0  0  0  0  0  0  0  0
   26.6194  -17.5357  -16.1145 C   0  0  2  0  0  0  0  0  0  0  0  0
   26.2652  -16.3152  -16.9090 C   0  0  0  0  0  0  0  0  0  0  0  0
   25.6357  -17.8902  -15.0323 C   0  0  2  0  0  0  0  0  0  0  0  0
   26.0553  -19.2401  -14.5969 N   0  0  0  0  0  0  0  0  0  0  0  0
   24.2283  -17.8613  -15.3853 C   0  0  0  0  0  0  0  0  0  0  0  0
   23.7850  -18.8830  -16.0247 O   0  0  0  0  0  0  0  0  0  0  0  0
   23.3136  -16.8344  -15.0967 N   0  0  0  0  0  0  0  0  0  0  0  0
   21.9333  -16.9571  -15.5224 C   0  0  0  0  0  0  0  0  0  0  0  0
   21.7616  -16.5879  -16.9482 C   0  0  0  0  0  0  0  0  0  0  0  0
   20.5247  -16.4968  -17.5646 O   0  0  0  0  0  0  0  0  0  0  0  0
   22.7779  -16.3437  -17.6414 O   0  0  0  0  0  0  0  0  0  0  0  0
  2  1  1  0
  2  3  1  0
  3  5  1  0
  3  4  1  1
  5  7  1  0
  5  6  1  1
  7  8  2  0
 10  9  1  0
 11 10  1  0
 11 12  1  1
 13 11  1  0
 14  7  1  0
 13 14  1  6
 15 17  1  0
 15 13  1  0
 16 15  2  0
 18 17  1  0
 19 20  1  0
 19 18  1  0
 21 19  2  0
M  END
$$$$
