IIG.pdb
     RDKit          3D

 21 20  0  0  1  0  0  0  0  0999 V2000
   16.7954  -27.4099   -8.1842 C   0  0  0  0  0  0  0  0  0  0  0  0
   17.8921  -26.5198   -7.7120 C   0  0  0  0  0  0  0  0  0  0  0  0
   17.9888  -25.1963   -8.4263 C   0  0  2  0  0  0  0  0  0  0  0  0
   18.0498  -25.3760   -9.9072 C   0  0  0  0  0  0  0  0  0  0  0  0
   19.1489  -24.4327   -7.8404 C   0  0  2  0  0  0  0  0  0  0  0  0
   18.7351  -24.1113   -6.4610 N   0  0  0  0  0  0  0  0  0  0  0  0
   19.4193  -23.1394   -8.5090 C   0  0  0  0  0  0  0  0  0  0  0  0
   18.6130  -22.1578   -8.3418 O   0  0  0  0  0  0  0  0  0  0  0  0
   23.9031  -20.8921   -7.9796 C   0  0  0  0  0  0  0  0  0  0  0  0
   22.4004  -21.1293   -8.2133 C   0  0  0  0  0  0  0  0  0  0  0  0
   22.0879  -21.1416   -9.6745 C   0  0  2  0  0  0  0  0  0  0  0  0
   22.5804  -19.9315  -10.4087 C   0  0  0  0  0  0  0  0  0  0  0  0
   20.6772  -21.5482  -10.0050 C   0  0  2  0  0  0  0  0  0  0  0  0
   20.5212  -22.8632   -9.3462 N   0  0  0  0  0  0  0  0  0  0  0  0
   20.3225  -21.6147  -11.4107 C   0  0  0  0  0  0  0  0  0  0  0  0
   20.9140  -22.5222  -12.1004 O   0  0  0  0  0  0  0  0  0  0  0  0
   19.4029  -20.7913  -12.0821 N   0  0  0  0  0  0  0  0  0  0  0  0
   19.1429  -21.0007  -13.4928 C   0  0  0  0  0  0  0  0  0  0  0  0
   19.7859  -19.9609  -14.3319 C   0  0  0  0  0  0  0  0  0  0  0  0
   19.6866  -19.9324  -15.7130 O   0  0  0  0  0  0  0  0  0  0  0  0
   20.4553  -19.0574  -13.7766 O   0  0  0  0  0  0  0  0  0  0  0  0
  2  1  1  0
  2  3  1  0
  3  5  1  0
  3  4  1  6
  5  7  1  0
  5  6  1  1
  7  8  2  0
 10  9  1  0
 11 10  1  0
 11 12  1  1
 13 11  1  0
 14  7  1  0
 13 14  1  6
 15 17  1  0
 15 13  1  0
 16 15  2  0
 18 17  1  0
 19 20  1  0
 19 18  1  0
 21 19  2  0
M  END
$$$$
