CKQ.pdb
     RDKit          3D

 25 24  0  0  1  0  0  0  0  0999 V2000
   17.5718  -15.8223  -15.4578 N   0  0  0  0  0  0  0  0  0  0  0  0
   18.8436  -15.2407  -15.7479 C   0  0  1  0  0  0  0  0  0  0  0  0
   19.6219  -16.1951  -16.6270 C   0  0  0  0  0  0  0  0  0  0  0  0
   20.1277  -17.6523  -15.7118 S   0  0  0  0  0  0  0  0  0  0  0  0
   18.6586  -13.9335  -16.3982 C   0  0  0  0  0  0  0  0  0  0  0  0
   19.6326  -13.2731  -16.8166 O   0  0  0  0  0  0  0  0  0  0  0  0
   17.3586  -13.4122  -16.5541 N   0  0  0  0  0  0  0  0  0  0  0  0
   17.0895  -12.0873  -17.1040 C   0  0  1  0  0  0  0  0  0  0  0  0
   15.7479  -11.9944  -17.7200 C   0  0  0  0  0  0  0  0  0  0  0  0
   15.7152  -12.3725  -19.1748 C   0  0  0  0  0  0  0  0  0  0  0  0
   14.2993  -12.2625  -19.7312 C   0  0  0  0  0  0  0  0  0  0  0  0
   14.4048  -12.6672  -21.2040 C   0  0  0  0  0  0  0  0  0  0  0  0
   13.0650  -12.5961  -21.7630 N   0  0  0  0  0  0  0  0  0  0  0  0
   17.3716  -11.0760  -16.0561 C   0  0  0  0  0  0  0  0  0  0  0  0
   17.1201  -11.2137  -14.8344 O   0  0  0  0  0  0  0  0  0  0  0  0
   22.3615   -8.1566  -15.4235 N   0  0  0  0  0  0  0  0  0  0  0  0
   21.6557   -7.3525  -14.4975 C   0  0  0  0  0  0  0  0  0  0  0  0
   22.2591   -6.5279  -13.7834 O   0  0  0  0  0  0  0  0  0  0  0  0
   20.1650   -7.5394  -14.4193 C   0  0  0  0  0  0  0  0  0  0  0  0
   19.7854   -8.5688  -15.4365 C   0  0  0  0  0  0  0  0  0  0  0  0
   18.3167   -8.8308  -15.4219 C   0  0  2  0  0  0  0  0  0  0  0  0
   17.9751   -9.8386  -16.4298 N   0  0  0  0  0  0  0  0  0  0  0  0
   17.4794   -7.6322  -15.5808 C   0  0  0  0  0  0  0  0  0  0  0  0
   17.1705   -6.8063  -14.4821 O   0  0  0  0  0  0  0  0  0  0  0  0
   17.0079   -7.2888  -16.6718 O   0  0  0  0  0  0  0  0  0  0  0  0
  2  1  1  6
  2  3  1  0
  3  4  1  0
  5  2  1  0
  6  5  2  0
  7  5  1  0
  8  7  1  0
  8  9  1  1
 10 11  1  0
 10  9  1  0
 12 11  1  0
 13 12  1  0
 14 22  1  0
 14  8  1  0
 15 14  2  0
 17 16  1  0
 18 17  2  0
 19 17  1  0
 21 20  1  6
 20 19  1  0
 21 23  1  0
 21 22  1  0
 23 24  1  0
 25 23  2  0
M  END
$$$$
