CKQ.pdb
     RDKit          3D

 25 24  0  0  1  0  0  0  0  0999 V2000
   27.0486  -20.7834  -12.7269 N   0  0  0  0  0  0  0  0  0  0  0  0
   25.9209  -21.1120  -11.9144 C   0  0  1  0  0  0  0  0  0  0  0  0
   26.1478  -20.5559  -10.5256 C   0  0  0  0  0  0  0  0  0  0  0  0
   27.6984  -21.1404   -9.8394 S   0  0  0  0  0  0  0  0  0  0  0  0
   24.6936  -20.5716  -12.5207 C   0  0  0  0  0  0  0  0  0  0  0  0
   24.3277  -19.3966  -12.3081 O   0  0  0  0  0  0  0  0  0  0  0  0
   23.9122  -21.3924  -13.3583 N   0  0  0  0  0  0  0  0  0  0  0  0
   22.7610  -20.9019  -14.1097 C   0  0  1  0  0  0  0  0  0  0  0  0
   23.0886  -20.6233  -15.5250 C   0  0  0  0  0  0  0  0  0  0  0  0
   22.0996  -19.7267  -16.2167 C   0  0  0  0  0  0  0  0  0  0  0  0
   22.7515  -18.4064  -16.6142 C   0  0  0  0  0  0  0  0  0  0  0  0
   21.6332  -17.5691  -17.2407 C   0  0  0  0  0  0  0  0  0  0  0  0
   22.1866  -16.2528  -17.5120 N   0  0  0  0  0  0  0  0  0  0  0  0
   21.6280  -21.8359  -13.8987 C   0  0  0  0  0  0  0  0  0  0  0  0
   21.7107  -23.0878  -13.9241 O   0  0  0  0  0  0  0  0  0  0  0  0
   18.4496  -23.3732  -10.2366 N   0  0  0  0  0  0  0  0  0  0  0  0
   17.2534  -23.4608  -10.9872 C   0  0  0  0  0  0  0  0  0  0  0  0
   16.3687  -24.2829  -10.6782 O   0  0  0  0  0  0  0  0  0  0  0  0
   17.1051  -22.5274  -12.1577 C   0  0  0  0  0  0  0  0  0  0  0  0
   18.3767  -21.7481  -12.2773 C   0  0  0  0  0  0  0  0  0  0  0  0
   19.1752  -22.1897  -13.4577 C   0  0  2  0  0  0  0  0  0  0  0  0
   20.3285  -21.3049  -13.6446 N   0  0  0  0  0  0  0  0  0  0  0  0
   18.4065  -22.3122  -14.7055 C   0  0  0  0  0  0  0  0  0  0  0  0
   17.7589  -23.5153  -15.0490 O   0  0  0  0  0  0  0  0  0  0  0  0
   18.2882  -21.3795  -15.5094 O   0  0  0  0  0  0  0  0  0  0  0  0
  2  1  1  6
  2  3  1  0
  3  4  1  0
  5  2  1  0
  6  5  2  0
  7  5  1  0
  8  7  1  0
  8  9  1  6
 10 11  1  0
 10  9  1  0
 12 11  1  0
 13 12  1  0
 14 22  1  0
 14  8  1  0
 15 14  2  0
 17 16  1  0
 18 17  2  0
 19 17  1  0
 21 20  1  1
 20 19  1  0
 21 23  1  0
 21 22  1  0
 23 24  1  0
 25 23  2  0
M  END
$$$$
