CKQ.pdb
     RDKit          3D

 25 24  0  0  1  0  0  0  0  0999 V2000
   26.1007  -13.5547  -17.8255 N   0  0  0  0  0  0  0  0  0  0  0  0
   25.3550  -13.2902  -16.6364 C   0  0  1  0  0  0  0  0  0  0  0  0
   26.3161  -12.8627  -15.5488 C   0  0  0  0  0  0  0  0  0  0  0  0
   27.4540  -14.1854  -15.1335 S   0  0  0  0  0  0  0  0  0  0  0  0
   24.3419  -12.2562  -16.9015 C   0  0  0  0  0  0  0  0  0  0  0  0
   24.5560  -11.3303  -17.7119 O   0  0  0  0  0  0  0  0  0  0  0  0
   23.1040  -12.3073  -16.2299 N   0  0  0  0  0  0  0  0  0  0  0  0
   22.0375  -11.3344  -16.4446 C   0  0  1  0  0  0  0  0  0  0  0  0
   20.7002  -11.9649  -16.4921 C   0  0  0  0  0  0  0  0  0  0  0  0
   20.4783  -12.8387  -17.6952 C   0  0  0  0  0  0  0  0  0  0  0  0
   19.1085  -13.5067  -17.6339 C   0  0  0  0  0  0  0  0  0  0  0  0
   18.9881  -14.3153  -18.9285 C   0  0  0  0  0  0  0  0  0  0  0  0
   17.7402  -15.0567  -18.8540 N   0  0  0  0  0  0  0  0  0  0  0  0
   22.1846  -10.2463  -15.4472 C   0  0  0  0  0  0  0  0  0  0  0  0
   22.4445  -10.4129  -14.2309 O   0  0  0  0  0  0  0  0  0  0  0  0
   22.5566   -4.2135  -16.8195 N   0  0  0  0  0  0  0  0  0  0  0  0
   22.4886   -4.0928  -15.4113 C   0  0  0  0  0  0  0  0  0  0  0  0
   22.5705   -2.9752  -14.8651 O   0  0  0  0  0  0  0  0  0  0  0  0
   22.3152   -5.3600  -14.6192 C   0  0  0  0  0  0  0  0  0  0  0  0
   22.2622   -6.4961  -15.5914 C   0  0  0  0  0  0  0  0  0  0  0  0
   22.0279   -7.7952  -14.8962 C   0  0  2  0  0  0  0  0  0  0  0  0
   22.0246   -8.8925  -15.8677 N   0  0  0  0  0  0  0  0  0  0  0  0
   20.8160   -7.8342  -14.0638 C   0  0  0  0  0  0  0  0  0  0  0  0
   20.8415   -7.4214  -12.7171 O   0  0  0  0  0  0  0  0  0  0  0  0
   19.7244   -8.2256  -14.4945 O   0  0  0  0  0  0  0  0  0  0  0  0
  2  1  1  6
  2  3  1  0
  3  4  1  0
  5  2  1  0
  6  5  2  0
  7  5  1  0
  8  7  1  0
  8  9  1  1
 10 11  1  0
 10  9  1  0
 12 11  1  0
 13 12  1  0
 14 22  1  0
 14  8  1  0
 15 14  2  0
 17 16  1  0
 18 17  2  0
 19 17  1  0
 21 20  1  6
 20 19  1  0
 21 23  1  0
 21 22  1  0
 23 24  1  0
 25 23  2  0
M  END
$$$$
