CKQ.pdb
     RDKit          3D

 25 24  0  0  1  0  0  0  0  0999 V2000
   26.0693  -21.4898  -15.8515 N   0  0  0  0  0  0  0  0  0  0  0  0
   25.4262  -20.6061  -14.9321 C   0  0  1  0  0  0  0  0  0  0  0  0
   25.2954  -19.2455  -15.5810 C   0  0  0  0  0  0  0  0  0  0  0  0
   24.1565  -19.2953  -16.9656 S   0  0  0  0  0  0  0  0  0  0  0  0
   24.1144  -21.1520  -14.5486 C   0  0  0  0  0  0  0  0  0  0  0  0
   23.5113  -21.9658  -15.2792 O   0  0  0  0  0  0  0  0  0  0  0  0
   23.5228  -20.7514  -13.3339 N   0  0  0  0  0  0  0  0  0  0  0  0
   22.2149  -21.2219  -12.8886 C   0  0  1  0  0  0  0  0  0  0  0  0
   22.1434  -21.3822  -11.4198 C   0  0  0  0  0  0  0  0  0  0  0  0
   20.8941  -22.0669  -10.9393 C   0  0  0  0  0  0  0  0  0  0  0  0
   20.8536  -22.1122   -9.4153 C   0  0  0  0  0  0  0  0  0  0  0  0
   19.5266  -22.7883   -9.0601 C   0  0  0  0  0  0  0  0  0  0  0  0
   19.4064  -22.7580   -7.6120 N   0  0  0  0  0  0  0  0  0  0  0  0
   21.1733  -20.3447  -13.4768 C   0  0  0  0  0  0  0  0  0  0  0  0
   21.1705  -19.0910  -13.4214 O   0  0  0  0  0  0  0  0  0  0  0  0
   19.7968  -19.2892  -19.5072 N   0  0  0  0  0  0  0  0  0  0  0  0
   19.0509  -19.8714  -18.4552 C   0  0  0  0  0  0  0  0  0  0  0  0
   17.8626  -20.2057  -18.6288 O   0  0  0  0  0  0  0  0  0  0  0  0
   19.7523  -20.0636  -17.1382 C   0  0  0  0  0  0  0  0  0  0  0  0
   18.7453  -20.5864  -16.1629 C   0  0  0  0  0  0  0  0  0  0  0  0
   19.0318  -20.1093  -14.7786 C   0  0  2  0  0  0  0  0  0  0  0  0
   20.0742  -20.9378  -14.1663 N   0  0  0  0  0  0  0  0  0  0  0  0
   17.8527  -20.0266  -13.9033 C   0  0  0  0  0  0  0  0  0  0  0  0
   17.7596  -20.7991  -12.7288 O   0  0  0  0  0  0  0  0  0  0  0  0
   16.8930  -19.2851  -14.1469 O   0  0  0  0  0  0  0  0  0  0  0  0
  2  1  1  6
  2  3  1  0
  3  4  1  0
  5  2  1  0
  6  5  2  0
  7  5  1  0
  8  7  1  0
  8  9  1  1
 10 11  1  0
 10  9  1  0
 12 11  1  0
 13 12  1  0
 14 22  1  0
 14  8  1  0
 15 14  2  0
 17 16  1  0
 18 17  2  0
 19 17  1  0
 21 20  1  6
 20 19  1  0
 21 23  1  0
 21 22  1  0
 23 24  1  0
 25 23  2  0
M  END
$$$$
