CKQ.pdb
     RDKit          3D

 25 24  0  0  1  0  0  0  0  0999 V2000
   30.5845  -25.7461  -17.7140 N   0  0  0  0  0  0  0  0  0  0  0  0
   29.6964  -25.2345  -16.7193 C   0  0  1  0  0  0  0  0  0  0  0  0
   30.3870  -24.1015  -15.9921 C   0  0  0  0  0  0  0  0  0  0  0  0
   31.7099  -24.7137  -14.9471 S   0  0  0  0  0  0  0  0  0  0  0  0
   28.4430  -24.7897  -17.3494 C   0  0  0  0  0  0  0  0  0  0  0  0
   28.4494  -24.0571  -18.3608 O   0  0  0  0  0  0  0  0  0  0  0  0
   27.2086  -25.1958  -16.8042 N   0  0  0  0  0  0  0  0  0  0  0  0
   25.9200  -24.8307  -17.3843 C   0  0  1  0  0  0  0  0  0  0  0  0
   25.3460  -25.9150  -18.2106 C   0  0  0  0  0  0  0  0  0  0  0  0
   24.4565  -25.4317  -19.3222 C   0  0  0  0  0  0  0  0  0  0  0  0
   25.1465  -25.5857  -20.6736 C   0  0  0  0  0  0  0  0  0  0  0  0
   24.1751  -24.9959  -21.6997 C   0  0  0  0  0  0  0  0  0  0  0  0
   24.8326  -25.0581  -22.9944 N   0  0  0  0  0  0  0  0  0  0  0  0
   25.0390  -24.3333  -16.2995 C   0  0  0  0  0  0  0  0  0  0  0  0
   24.8327  -24.9220  -15.2106 O   0  0  0  0  0  0  0  0  0  0  0  0
   22.7250  -18.5857  -16.1375 N   0  0  0  0  0  0  0  0  0  0  0  0
   22.1845  -19.0537  -14.9164 C   0  0  0  0  0  0  0  0  0  0  0  0
   21.5648  -18.2815  -14.1590 O   0  0  0  0  0  0  0  0  0  0  0  0
   22.3917  -20.5061  -14.5835 C   0  0  0  0  0  0  0  0  0  0  0  0
   23.2162  -21.1067  -15.6781 C   0  0  0  0  0  0  0  0  0  0  0  0
   23.5013  -22.5474  -15.4151 C   0  0  2  0  0  0  0  0  0  0  0  0
   24.3568  -23.0924  -16.4729 N   0  0  0  0  0  0  0  0  0  0  0  0
   22.3060  -23.3842  -15.2304 C   0  0  0  0  0  0  0  0  0  0  0  0
   21.7851  -23.6401  -13.9467 O   0  0  0  0  0  0  0  0  0  0  0  0
   21.7018  -23.9010  -16.1781 O   0  0  0  0  0  0  0  0  0  0  0  0
  2  1  1  6
  2  3  1  0
  3  4  1  0
  5  2  1  0
  6  5  2  0
  7  5  1  0
  8  7  1  0
  8  9  1  1
 10 11  1  0
 10  9  1  0
 12 11  1  0
 13 12  1  0
 14 22  1  0
 14  8  1  0
 15 14  2  0
 17 16  1  0
 18 17  2  0
 19 17  1  0
 21 20  1  6
 20 19  1  0
 21 23  1  0
 21 22  1  0
 23 24  1  0
 25 23  2  0
M  END
$$$$
