CKQ.pdb
     RDKit          3D

 25 24  0  0  1  0  0  0  0  0999 V2000
   27.9943  -11.5423  -18.1449 N   0  0  0  0  0  0  0  0  0  0  0  0
   27.1017  -12.0982  -17.1783 C   0  0  1  0  0  0  0  0  0  0  0  0
   27.7514  -12.0107  -15.8145 C   0  0  0  0  0  0  0  0  0  0  0  0
   29.2019  -13.0614  -15.7196 S   0  0  0  0  0  0  0  0  0  0  0  0
   25.8171  -11.3810  -17.2135 C   0  0  0  0  0  0  0  0  0  0  0  0
   25.7624  -10.1597  -17.4690 O   0  0  0  0  0  0  0  0  0  0  0  0
   24.6223  -12.0818  -16.9543 N   0  0  0  0  0  0  0  0  0  0  0  0
   23.2985  -11.4825  -17.0914 C   0  0  1  0  0  0  0  0  0  0  0  0
   22.2299  -12.4980  -17.2140 C   0  0  0  0  0  0  0  0  0  0  0  0
   20.8429  -11.9214  -17.2809 C   0  0  0  0  0  0  0  0  0  0  0  0
   20.4853  -11.5363  -18.7127 C   0  0  0  0  0  0  0  0  0  0  0  0
   19.0650  -10.9686  -18.6421 C   0  0  0  0  0  0  0  0  0  0  0  0
   18.6891  -10.5904  -19.9942 N   0  0  0  0  0  0  0  0  0  0  0  0
   23.1100  -10.5006  -15.9957 C   0  0  0  0  0  0  0  0  0  0  0  0
   23.4480  -10.6795  -14.8005 O   0  0  0  0  0  0  0  0  0  0  0  0
   22.7776   -4.4730  -16.7305 N   0  0  0  0  0  0  0  0  0  0  0  0
   22.4520   -4.4942  -15.3537 C   0  0  0  0  0  0  0  0  0  0  0  0
   22.3740   -3.4337  -14.7032 O   0  0  0  0  0  0  0  0  0  0  0  0
   22.2086   -5.8389  -14.7244 C   0  0  0  0  0  0  0  0  0  0  0  0
   22.3858   -6.8743  -15.7897 C   0  0  0  0  0  0  0  0  0  0  0  0
   22.2732   -8.2531  -15.2310 C   0  0  2  0  0  0  0  0  0  0  0  0
   22.5002   -9.2441  -16.2866 N   0  0  0  0  0  0  0  0  0  0  0  0
   21.0127   -8.5261  -14.5241 C   0  0  0  0  0  0  0  0  0  0  0  0
   20.8998   -8.3357  -13.1328 O   0  0  0  0  0  0  0  0  0  0  0  0
   19.9981   -8.9316  -15.1040 O   0  0  0  0  0  0  0  0  0  0  0  0
  2  1  1  6
  2  3  1  0
  3  4  1  0
  5  2  1  0
  6  5  2  0
  7  5  1  0
  8  7  1  0
  8  9  1  1
 10 11  1  0
 10  9  1  0
 12 11  1  0
 13 12  1  0
 14 22  1  0
 14  8  1  0
 15 14  2  0
 17 16  1  0
 18 17  2  0
 19 17  1  0
 21 20  1  6
 20 19  1  0
 21 23  1  0
 21 22  1  0
 23 24  1  0
 25 23  2  0
M  END
$$$$
