CKQ.pdb
     RDKit          3D

 25 24  0  0  1  0  0  0  0  0999 V2000
   18.9686  -15.3424  -16.6509 N   0  0  0  0  0  0  0  0  0  0  0  0
   19.6048  -14.0752  -16.4796 C   0  0  1  0  0  0  0  0  0  0  0  0
   20.8397  -14.0328  -17.3530 C   0  0  0  0  0  0  0  0  0  0  0  0
   22.2606  -14.7173  -16.4989 S   0  0  0  0  0  0  0  0  0  0  0  0
   18.6648  -12.9943  -16.8175 C   0  0  0  0  0  0  0  0  0  0  0  0
   18.3274  -12.7735  -17.9995 O   0  0  0  0  0  0  0  0  0  0  0  0
   18.1325  -12.1896  -15.7904 N   0  0  0  0  0  0  0  0  0  0  0  0
   17.1217  -11.1626  -16.0224 C   0  0  1  0  0  0  0  0  0  0  0  0
   15.8817  -11.4080  -15.2541 C   0  0  0  0  0  0  0  0  0  0  0  0
   14.8633  -12.2380  -15.9851 C   0  0  0  0  0  0  0  0  0  0  0  0
   14.9219  -13.6923  -15.5292 C   0  0  0  0  0  0  0  0  0  0  0  0
   13.7530  -14.3894  -16.2304 C   0  0  0  0  0  0  0  0  0  0  0  0
   12.8769  -14.9034  -15.1907 N   0  0  0  0  0  0  0  0  0  0  0  0
   17.7427   -9.8330  -15.8060 C   0  0  0  0  0  0  0  0  0  0  0  0
   18.6330   -9.5820  -14.9579 O   0  0  0  0  0  0  0  0  0  0  0  0
   18.0359   -5.4997  -20.0873 N   0  0  0  0  0  0  0  0  0  0  0  0
   18.5954   -4.7390  -19.0336 C   0  0  0  0  0  0  0  0  0  0  0  0
   19.0295   -3.5891  -19.2415 O   0  0  0  0  0  0  0  0  0  0  0  0
   18.6394   -5.3770  -17.6718 C   0  0  0  0  0  0  0  0  0  0  0  0
   18.0162   -6.7322  -17.7881 C   0  0  0  0  0  0  0  0  0  0  0  0
   17.9406   -7.4108  -16.4616 C   0  0  2  0  0  0  0  0  0  0  0  0
   17.3193   -8.7303  -16.6059 N   0  0  0  0  0  0  0  0  0  0  0  0
   17.2666   -6.6308  -15.4126 C   0  0  0  0  0  0  0  0  0  0  0  0
   17.9925   -5.7833  -14.5526 O   0  0  0  0  0  0  0  0  0  0  0  0
   16.0438   -6.6757  -15.2310 O   0  0  0  0  0  0  0  0  0  0  0  0
  2  1  1  6
  2  3  1  0
  3  4  1  0
  5  2  1  0
  6  5  2  0
  7  5  1  0
  8  7  1  0
  8  9  1  1
 10 11  1  0
 10  9  1  0
 12 11  1  0
 13 12  1  0
 14 22  1  0
 14  8  1  0
 15 14  2  0
 17 16  1  0
 18 17  2  0
 19 17  1  0
 21 20  1  6
 20 19  1  0
 21 23  1  0
 21 22  1  0
 23 24  1  0
 25 23  2  0
M  END
$$$$
