CKQ.pdb
     RDKit          3D

 25 24  0  0  1  0  0  0  0  0999 V2000
   12.2769  -10.7435   -9.4006 N   0  0  0  0  0  0  0  0  0  0  0  0
   12.8018   -9.4940   -9.8511 C   0  0  1  0  0  0  0  0  0  0  0  0
   13.2334   -8.6885   -8.6451 C   0  0  0  0  0  0  0  0  0  0  0  0
   11.8582   -8.4067   -7.5287 S   0  0  0  0  0  0  0  0  0  0  0  0
   13.9223   -9.7270  -10.7764 C   0  0  0  0  0  0  0  0  0  0  0  0
   14.7667  -10.6216  -10.5609 O   0  0  0  0  0  0  0  0  0  0  0  0
   14.0494   -8.9272  -11.9297 N   0  0  0  0  0  0  0  0  0  0  0  0
   15.0856   -9.1352  -12.9363 C   0  0  1  0  0  0  0  0  0  0  0  0
   14.5381   -9.6462  -14.2119 C   0  0  0  0  0  0  0  0  0  0  0  0
   15.5862   -9.9877  -15.2343 C   0  0  0  0  0  0  0  0  0  0  0  0
   16.0940  -11.4119  -15.0343 C   0  0  0  0  0  0  0  0  0  0  0  0
   17.1755  -11.6150  -16.0989 C   0  0  0  0  0  0  0  0  0  0  0  0
   16.7559  -12.7349  -16.9250 N   0  0  0  0  0  0  0  0  0  0  0  0
   15.8887   -7.8932  -13.0494 C   0  0  0  0  0  0  0  0  0  0  0  0
   15.4218   -6.7285  -13.0362 O   0  0  0  0  0  0  0  0  0  0  0  0
   22.1043   -7.7923  -13.0906 N   0  0  0  0  0  0  0  0  0  0  0  0
   21.8806   -6.4053  -13.2589 C   0  0  0  0  0  0  0  0  0  0  0  0
   22.8394   -5.6150  -13.3594 O   0  0  0  0  0  0  0  0  0  0  0  0
   20.4509   -5.9397  -13.3097 C   0  0  0  0  0  0  0  0  0  0  0  0
   19.5780   -7.1493  -13.1937 C   0  0  0  0  0  0  0  0  0  0  0  0
   18.1355   -6.7928  -13.3273 C   0  0  2  0  0  0  0  0  0  0  0  0
   17.3053   -7.9922  -13.1853 N   0  0  0  0  0  0  0  0  0  0  0  0
   17.7956   -6.0686  -14.5614 C   0  0  0  0  0  0  0  0  0  0  0  0
   17.8614   -4.6627  -14.6247 O   0  0  0  0  0  0  0  0  0  0  0  0
   17.4389   -6.6458  -15.5958 O   0  0  0  0  0  0  0  0  0  0  0  0
  2  1  1  1
  2  3  1  0
  3  4  1  0
  5  2  1  0
  6  5  2  0
  7  5  1  0
  8  7  1  0
  8  9  1  6
 10 11  1  0
 10  9  1  0
 12 11  1  0
 13 12  1  0
 14 22  1  0
 14  8  1  0
 15 14  2  0
 17 16  1  0
 18 17  2  0
 19 17  1  0
 21 20  1  6
 20 19  1  0
 21 23  1  0
 21 22  1  0
 23 24  1  0
 25 23  2  0
M  END
$$$$
