CKQ.pdb
     RDKit          3D

 25 24  0  0  1  0  0  0  0  0999 V2000
   21.0846  -31.1413  -16.1986 N   0  0  0  0  0  0  0  0  0  0  0  0
   22.2833  -30.6728  -15.5792 C   0  0  1  0  0  0  0  0  0  0  0  0
   22.0729  -30.6429  -14.0811 C   0  0  0  0  0  0  0  0  0  0  0  0
   21.3341  -32.1705  -13.5003 S   0  0  0  0  0  0  0  0  0  0  0  0
   23.4107  -31.5426  -15.9509 C   0  0  0  0  0  0  0  0  0  0  0  0
   23.2311  -32.7355  -16.2740 O   0  0  0  0  0  0  0  0  0  0  0  0
   24.7210  -31.0238  -15.9433 N   0  0  0  0  0  0  0  0  0  0  0  0
   25.9002  -31.8265  -16.2523 C   0  0  1  0  0  0  0  0  0  0  0  0
   26.9793  -31.0276  -16.8730 C   0  0  0  0  0  0  0  0  0  0  0  0
   28.1166  -31.8500  -17.4121 C   0  0  0  0  0  0  0  0  0  0  0  0
   29.3435  -31.7320  -16.5138 C   0  0  0  0  0  0  0  0  0  0  0  0
   30.4415  -32.5398  -17.2110 C   0  0  0  0  0  0  0  0  0  0  0  0
   31.6467  -32.4011  -16.4105 N   0  0  0  0  0  0  0  0  0  0  0  0
   26.2934  -32.5747  -15.0333 C   0  0  0  0  0  0  0  0  0  0  0  0
   26.7896  -32.0622  -14.0009 O   0  0  0  0  0  0  0  0  0  0  0  0
   26.7618  -32.6757  -10.6966 N   0  0  0  0  0  0  0  0  0  0  0  0
   26.5253  -34.0242  -10.3391 C   0  0  0  0  0  0  0  0  0  0  0  0
   26.8679  -34.4540   -9.2202 O   0  0  0  0  0  0  0  0  0  0  0  0
   25.8505  -34.8990  -11.3602 C   0  0  0  0  0  0  0  0  0  0  0  0
   25.6911  -34.0927  -12.6104 C   0  0  0  0  0  0  0  0  0  0  0  0
   26.3600  -34.7510  -13.7702 C   0  0  2  0  0  0  0  0  0  0  0  0
   26.1075  -33.9886  -14.9961 N   0  0  0  0  0  0  0  0  0  0  0  0
   26.0083  -36.1668  -13.9568 C   0  0  0  0  0  0  0  0  0  0  0  0
   25.4042  -36.6184  -15.1468 O   0  0  0  0  0  0  0  0  0  0  0  0
   26.2208  -37.0256  -13.0921 O   0  0  0  0  0  0  0  0  0  0  0  0
  2  1  1  6
  2  3  1  0
  3  4  1  0
  5  2  1  0
  6  5  2  0
  7  5  1  0
  8  7  1  0
  8  9  1  1
 10 11  1  0
 10  9  1  0
 12 11  1  0
 13 12  1  0
 14 22  1  0
 14  8  1  0
 15 14  2  0
 17 16  1  0
 18 17  2  0
 19 17  1  0
 21 20  1  1
 20 19  1  0
 21 23  1  0
 21 22  1  0
 23 24  1  0
 25 23  2  0
M  END
$$$$
