QSG.pdb
     RDKit          3D

 20 19  0  0  1  0  0  0  0  0999 V2000
    6.1286  -21.4257   17.8491 N   0  0  0  0  0  0  0  0  0  0  0  0
    6.4948  -20.7696   16.6215 C   0  0  0  0  0  0  0  0  0  0  0  0
    7.0043  -21.4285   15.7041 O   0  0  0  0  0  0  0  0  0  0  0  0
    6.2276  -19.2841   16.5295 C   0  0  0  0  0  0  0  0  0  0  0  0
    7.2740  -18.6221   17.3436 C   0  0  0  0  0  0  0  0  0  0  0  0
    7.4722  -17.1665   17.1698 C   0  0  2  0  0  0  0  0  0  0  0  0
    8.2235  -17.0022   15.9046 N   0  0  0  0  0  0  0  0  0  0  0  0
    8.2125  -16.4628   18.2182 C   0  0  0  0  0  0  0  0  0  0  0  0
    9.4920  -16.4452   18.1903 O   0  0  0  0  0  0  0  0  0  0  0  0
    6.3780  -14.7452   21.5603 O   0  0  0  0  0  0  0  0  0  0  0  0
    7.5303  -14.1382   21.0662 C   0  0  0  0  0  0  0  0  0  0  0  0
    8.4192  -15.1973   20.3996 C   0  0  2  0  0  0  0  0  0  0  0  0
    7.6519  -15.7596   19.3184 N   0  0  0  0  0  0  0  0  0  0  0  0
    8.7497  -16.1826   21.4450 C   0  0  0  0  0  0  0  0  0  0  0  0
    8.0232  -17.1518   21.7668 O   0  0  0  0  0  0  0  0  0  0  0  0
    9.9793  -16.0227   22.1373 N   0  0  0  0  0  0  0  0  0  0  0  0
   10.3523  -16.9070   23.2321 C   0  0  0  0  0  0  0  0  0  0  0  0
   11.6544  -16.4987   23.8218 C   0  0  0  0  0  0  0  0  0  0  0  0
   12.2922  -15.5967   23.2200 O   0  0  0  0  0  0  0  0  0  0  0  0
   12.1891  -17.0408   24.9644 O   0  0  0  0  0  0  0  0  0  0  0  0
  2  1  1  0
  3  2  2  0
  4  2  1  0
  5  4  1  0
  6  7  1  6
  6  5  1  0
  8  9  2  0
  8  6  1  0
 10 11  1  0
 12 11  1  1
 12 13  1  0
 12 14  1  0
 13  8  1  0
 14 15  2  0
 14 16  1  0
 16 17  1  0
 18 17  1  0
 18 20  1  0
 19 18  2  0
M  END
$$$$
