QSG.pdb
     RDKit          3D

 20 19  0  0  1  0  0  0  0  0999 V2000
   13.6871  -14.4946   18.7172 N   0  0  0  0  0  0  0  0  0  0  0  0
   12.4242  -15.0139   18.2624 C   0  0  0  0  0  0  0  0  0  0  0  0
   12.2656  -16.2389   18.1655 O   0  0  0  0  0  0  0  0  0  0  0  0
   11.3481  -14.0066   17.9245 C   0  0  0  0  0  0  0  0  0  0  0  0
   10.1452  -14.7905   17.5576 C   0  0  0  0  0  0  0  0  0  0  0  0
    8.8399  -14.3543   18.0998 C   0  0  2  0  0  0  0  0  0  0  0  0
    8.5145  -13.0827   17.4150 N   0  0  0  0  0  0  0  0  0  0  0  0
    8.7619  -14.1128   19.5414 C   0  0  0  0  0  0  0  0  0  0  0  0
    9.0851  -12.9673   20.0122 O   0  0  0  0  0  0  0  0  0  0  0  0
    6.2870  -15.9281   22.1826 O   0  0  0  0  0  0  0  0  0  0  0  0
    6.9178  -14.7076   22.4124 C   0  0  0  0  0  0  0  0  0  0  0  0
    8.3784  -14.7927   21.9483 C   0  0  2  0  0  0  0  0  0  0  0  0
    8.3476  -15.0447   20.5308 N   0  0  0  0  0  0  0  0  0  0  0  0
    8.9966  -15.8893   22.7153 C   0  0  0  0  0  0  0  0  0  0  0  0
    9.3815  -16.9754   22.2225 O   0  0  0  0  0  0  0  0  0  0  0  0
    9.1685  -15.7021   24.1124 N   0  0  0  0  0  0  0  0  0  0  0  0
   10.4780  -15.4201   24.6830 C   0  0  0  0  0  0  0  0  0  0  0  0
   11.2742  -16.6677   24.8222 C   0  0  0  0  0  0  0  0  0  0  0  0
   10.9479  -17.4484   25.7531 O   0  0  0  0  0  0  0  0  0  0  0  0
   12.3253  -17.0084   24.0072 O   0  0  0  0  0  0  0  0  0  0  0  0
  2  1  1  0
  3  2  2  0
  4  2  1  0
  5  4  1  0
  6  7  1  6
  6  5  1  0
  8  9  2  0
  8  6  1  0
 10 11  1  0
 12 11  1  1
 12 13  1  0
 12 14  1  0
 13  8  1  0
 14 15  2  0
 14 16  1  0
 16 17  1  0
 18 17  1  0
 18 20  1  0
 19 18  2  0
M  END
$$$$
