QSG.pdb
     RDKit          3D

 20 19  0  0  1  0  0  0  0  0999 V2000
    5.5465  -17.8920   19.3663 N   0  0  0  0  0  0  0  0  0  0  0  0
    6.7256  -18.2339   18.6151 C   0  0  0  0  0  0  0  0  0  0  0  0
    7.6356  -18.8725   19.1621 O   0  0  0  0  0  0  0  0  0  0  0  0
    6.7777  -17.7807   17.1733 C   0  0  0  0  0  0  0  0  0  0  0  0
    7.8883  -16.8035   17.0845 C   0  0  0  0  0  0  0  0  0  0  0  0
    7.5995  -15.3915   17.4177 C   0  0  2  0  0  0  0  0  0  0  0  0
    7.9112  -14.6097   16.1996 N   0  0  0  0  0  0  0  0  0  0  0  0
    8.3491  -14.7997   18.5269 C   0  0  0  0  0  0  0  0  0  0  0  0
    9.5053  -14.2934   18.3141 O   0  0  0  0  0  0  0  0  0  0  0  0
    6.6548  -13.6529   22.0812 O   0  0  0  0  0  0  0  0  0  0  0  0
    7.8171  -13.0580   21.5960 C   0  0  0  0  0  0  0  0  0  0  0  0
    8.7022  -14.1270   20.9404 C   0  0  2  0  0  0  0  0  0  0  0  0
    7.9245  -14.7142   19.8801 N   0  0  0  0  0  0  0  0  0  0  0  0
    9.0492  -15.0896   22.0016 C   0  0  0  0  0  0  0  0  0  0  0  0
    8.4666  -15.1715   23.1082 O   0  0  0  0  0  0  0  0  0  0  0  0
   10.1200  -15.9885   21.7527 N   0  0  0  0  0  0  0  0  0  0  0  0
   10.6796  -16.8121   22.8149 C   0  0  0  0  0  0  0  0  0  0  0  0
   12.0733  -16.3990   23.1261 C   0  0  0  0  0  0  0  0  0  0  0  0
   12.6467  -17.0018   24.0697 O   0  0  0  0  0  0  0  0  0  0  0  0
   12.7560  -15.4153   22.4541 O   0  0  0  0  0  0  0  0  0  0  0  0
  2  1  1  0
  3  2  2  0
  4  2  1  0
  5  4  1  0
  6  7  1  6
  6  5  1  0
  8  9  2  0
  8  6  1  0
 10 11  1  0
 12 11  1  1
 12 13  1  0
 12 14  1  0
 13  8  1  0
 14 15  2  0
 14 16  1  0
 16 17  1  0
 18 17  1  0
 18 20  1  0
 19 18  2  0
M  END
$$$$
