QSG.pdb
     RDKit          3D

 20 19  0  0  1  0  0  0  0  0999 V2000
    8.7651  -22.0726   17.7794 N   0  0  0  0  0  0  0  0  0  0  0  0
    8.2359  -21.1762   16.7856 C   0  0  0  0  0  0  0  0  0  0  0  0
    7.1398  -21.4212   16.2624 O   0  0  0  0  0  0  0  0  0  0  0  0
    9.0721  -19.9655   16.4366 C   0  0  0  0  0  0  0  0  0  0  0  0
    9.2309  -19.1940   17.6918 C   0  0  0  0  0  0  0  0  0  0  0  0
    8.4123  -17.9742   17.8658 C   0  0  2  0  0  0  0  0  0  0  0  0
    8.3882  -17.3036   16.5460 N   0  0  0  0  0  0  0  0  0  0  0  0
    8.8732  -16.9949   18.8511 C   0  0  0  0  0  0  0  0  0  0  0  0
   10.1122  -16.6778   18.9005 O   0  0  0  0  0  0  0  0  0  0  0  0
    6.3389  -15.2308   21.6345 O   0  0  0  0  0  0  0  0  0  0  0  0
    7.4546  -14.5019   21.2291 C   0  0  0  0  0  0  0  0  0  0  0  0
    8.5847  -15.4684   20.8484 C   0  0  2  0  0  0  0  0  0  0  0  0
    8.0683  -16.3183   19.8069 N   0  0  0  0  0  0  0  0  0  0  0  0
    8.9329  -16.2073   22.0755 C   0  0  0  0  0  0  0  0  0  0  0  0
    8.2040  -17.0694   22.6198 O   0  0  0  0  0  0  0  0  0  0  0  0
   10.1835  -15.9223   22.6849 N   0  0  0  0  0  0  0  0  0  0  0  0
   10.5447  -16.4928   23.9748 C   0  0  0  0  0  0  0  0  0  0  0  0
   11.8672  -15.9854   24.4260 C   0  0  0  0  0  0  0  0  0  0  0  0
   12.5040  -15.2627   23.6169 O   0  0  0  0  0  0  0  0  0  0  0  0
   12.4212  -16.2565   25.6527 O   0  0  0  0  0  0  0  0  0  0  0  0
  2  1  1  0
  3  2  2  0
  4  2  1  0
  5  4  1  0
  6  7  1  6
  6  5  1  0
  8  9  2  0
  8  6  1  0
 10 11  1  0
 12 11  1  1
 12 13  1  0
 12 14  1  0
 13  8  1  0
 14 15  2  0
 14 16  1  0
 16 17  1  0
 18 17  1  0
 18 20  1  0
 19 18  2  0
M  END
$$$$
