QSG.pdb
     RDKit          3D

 20 19  0  0  1  0  0  0  0  0999 V2000
    2.8141  -19.1383   20.2077 N   0  0  0  0  0  0  0  0  0  0  0  0
    2.1869  -20.0529   21.1251 C   0  0  0  0  0  0  0  0  0  0  0  0
    0.9898  -20.3385   20.9818 O   0  0  0  0  0  0  0  0  0  0  0  0
    3.0505  -20.6189   22.2299 C   0  0  0  0  0  0  0  0  0  0  0  0
    4.4008  -20.0384   22.0411 C   0  0  0  0  0  0  0  0  0  0  0  0
    4.5940  -18.6085   22.3670 C   0  0  2  0  0  0  0  0  0  0  0  0
    4.3652  -17.8652   21.1071 N   0  0  0  0  0  0  0  0  0  0  0  0
    5.9052  -18.2117   22.8825 C   0  0  0  0  0  0  0  0  0  0  0  0
    6.9477  -18.3690   22.1567 O   0  0  0  0  0  0  0  0  0  0  0  0
    5.9564  -15.9269   25.8481 O   0  0  0  0  0  0  0  0  0  0  0  0
    7.3139  -16.1443   25.6236 C   0  0  0  0  0  0  0  0  0  0  0  0
    7.4881  -17.3075   24.6373 C   0  0  2  0  0  0  0  0  0  0  0  0
    6.1726  -17.6423   24.1566 N   0  0  0  0  0  0  0  0  0  0  0  0
    8.1219  -18.4035   25.3925 C   0  0  0  0  0  0  0  0  0  0  0  0
    7.5120  -19.3943   25.8583 O   0  0  0  0  0  0  0  0  0  0  0  0
    9.5237  -18.3318   25.6079 N   0  0  0  0  0  0  0  0  0  0  0  0
   10.2485  -19.4221   26.2449 C   0  0  0  0  0  0  0  0  0  0  0  0
   10.3753  -19.1896   27.7077 C   0  0  0  0  0  0  0  0  0  0  0  0
    9.8429  -18.1455   28.1647 O   0  0  0  0  0  0  0  0  0  0  0  0
   11.0284  -20.0347   28.5706 O   0  0  0  0  0  0  0  0  0  0  0  0
  2  1  1  0
  3  2  2  0
  4  2  1  0
  5  4  1  0
  6  7  1  6
  6  5  1  0
  8  9  2  0
  8  6  1  0
 10 11  1  0
 12 11  1  1
 12 13  1  0
 12 14  1  0
 13  8  1  0
 14 15  2  0
 14 16  1  0
 16 17  1  0
 18 17  1  0
 18 20  1  0
 19 18  2  0
M  END
$$$$
