QSG.pdb
     RDKit          3D

 20 19  0  0  1  0  0  0  0  0999 V2000
   11.1919  -22.0070   18.4552 N   0  0  0  0  0  0  0  0  0  0  0  0
   10.1415  -21.2176   17.8680 C   0  0  0  0  0  0  0  0  0  0  0  0
    9.0535  -21.7476   17.6021 O   0  0  0  0  0  0  0  0  0  0  0  0
   10.4415  -19.7584   17.6077 C   0  0  0  0  0  0  0  0  0  0  0  0
   10.2373  -19.0556   18.8962 C   0  0  0  0  0  0  0  0  0  0  0  0
    9.0706  -18.1545   19.0187 C   0  0  2  0  0  0  0  0  0  0  0  0
    8.8101  -17.6320   17.6581 N   0  0  0  0  0  0  0  0  0  0  0  0
    9.2047  -17.0055   19.9155 C   0  0  0  0  0  0  0  0  0  0  0  0
   10.3668  -16.5402   20.1828 O   0  0  0  0  0  0  0  0  0  0  0  0
    5.9727  -14.8590   21.3195 O   0  0  0  0  0  0  0  0  0  0  0  0
    7.2037  -14.2156   21.2142 C   0  0  0  0  0  0  0  0  0  0  0  0
    8.3305  -15.2225   21.4837 C   0  0  2  0  0  0  0  0  0  0  0  0
    8.1452  -16.3083   20.5560 N   0  0  0  0  0  0  0  0  0  0  0  0
    8.1915  -15.6373   22.8915 C   0  0  0  0  0  0  0  0  0  0  0  0
    7.5179  -16.6192   23.2823 O   0  0  0  0  0  0  0  0  0  0  0  0
    8.8691  -14.8697   23.8754 N   0  0  0  0  0  0  0  0  0  0  0  0
    8.7272  -15.1628   25.2945 C   0  0  0  0  0  0  0  0  0  0  0  0
    9.9296  -15.8674   25.8120 C   0  0  0  0  0  0  0  0  0  0  0  0
   10.7888  -16.2215   24.9642 O   0  0  0  0  0  0  0  0  0  0  0  0
   10.1499  -16.1476   27.1380 O   0  0  0  0  0  0  0  0  0  0  0  0
  2  1  1  0
  3  2  2  0
  4  2  1  0
  5  4  1  0
  6  7  1  6
  6  5  1  0
  8  9  2  0
  8  6  1  0
 10 11  1  0
 12 11  1  6
 12 13  1  0
 12 14  1  0
 13  8  1  0
 14 15  2  0
 14 16  1  0
 16 17  1  0
 18 17  1  0
 18 20  1  0
 19 18  2  0
M  END
$$$$
