QSG.pdb
     RDKit          3D

 20 19  0  0  1  0  0  0  0  0999 V2000
    8.0762  -22.0744   19.0409 N   0  0  0  0  0  0  0  0  0  0  0  0
    9.3972  -21.8708   19.5748 C   0  0  0  0  0  0  0  0  0  0  0  0
    9.5834  -21.9586   20.7966 O   0  0  0  0  0  0  0  0  0  0  0  0
   10.4973  -21.5556   18.5862 C   0  0  0  0  0  0  0  0  0  0  0  0
   11.2694  -20.4322   19.1675 C   0  0  0  0  0  0  0  0  0  0  0  0
   10.7740  -19.0572   18.9393 C   0  0  2  0  0  0  0  0  0  0  0  0
   10.9633  -18.7863   17.4961 N   0  0  0  0  0  0  0  0  0  0  0  0
   11.4291  -17.9789   19.6813 C   0  0  0  0  0  0  0  0  0  0  0  0
   12.4448  -17.3858   19.1763 O   0  0  0  0  0  0  0  0  0  0  0  0
    9.8464  -16.3024   23.1197 O   0  0  0  0  0  0  0  0  0  0  0  0
   10.6410  -15.5344   22.2717 C   0  0  0  0  0  0  0  0  0  0  0  0
   11.7304  -16.4204   21.6518 C   0  0  2  0  0  0  0  0  0  0  0  0
   11.0522  -17.4856   20.9594 N   0  0  0  0  0  0  0  0  0  0  0  0
   12.5649  -16.8988   22.7688 C   0  0  0  0  0  0  0  0  0  0  0  0
   12.2280  -17.7945   23.5780 O   0  0  0  0  0  0  0  0  0  0  0  0
   13.8421  -16.3022   22.9407 N   0  0  0  0  0  0  0  0  0  0  0  0
   14.7325  -16.7160   24.0157 C   0  0  0  0  0  0  0  0  0  0  0  0
   15.9993  -15.9388   23.9823 C   0  0  0  0  0  0  0  0  0  0  0  0
   16.7980  -16.1138   24.9383 O   0  0  0  0  0  0  0  0  0  0  0  0
   16.3391  -15.0578   22.9855 O   0  0  0  0  0  0  0  0  0  0  0  0
  2  1  1  0
  3  2  2  0
  4  2  1  0
  5  4  1  0
  6  7  1  6
  6  5  1  0
  8  9  2  0
  8  6  1  0
 10 11  1  0
 12 11  1  1
 12 13  1  0
 12 14  1  0
 13  8  1  0
 14 15  2  0
 14 16  1  0
 16 17  1  0
 18 17  1  0
 18 20  1  0
 19 18  2  0
M  END
$$$$
