QSG.pdb
     RDKit          3D

 20 19  0  0  1  0  0  0  0  0999 V2000
    6.8652  -21.2829   26.1620 N   0  0  0  0  0  0  0  0  0  0  0  0
    6.0329  -21.9639   25.2056 C   0  0  0  0  0  0  0  0  0  0  0  0
    5.0876  -22.6595   25.6028 O   0  0  0  0  0  0  0  0  0  0  0  0
    6.3745  -21.7815   23.7438 C   0  0  0  0  0  0  0  0  0  0  0  0
    7.0678  -20.4761   23.6384 C   0  0  0  0  0  0  0  0  0  0  0  0
    6.2455  -19.2472   23.6832 C   0  0  2  0  0  0  0  0  0  0  0  0
    5.1162  -19.4742   22.7531 N   0  0  0  0  0  0  0  0  0  0  0  0
    6.8942  -17.9943   23.2937 C   0  0  0  0  0  0  0  0  0  0  0  0
    7.3181  -17.8439   22.0953 O   0  0  0  0  0  0  0  0  0  0  0  0
    6.9089  -14.8409   25.6775 O   0  0  0  0  0  0  0  0  0  0  0  0
    7.5798  -14.5528   24.4912 C   0  0  0  0  0  0  0  0  0  0  0  0
    8.1126  -15.8548   23.8772 C   0  0  2  0  0  0  0  0  0  0  0  0
    7.1197  -16.8670   24.1288 N   0  0  0  0  0  0  0  0  0  0  0  0
    9.3996  -16.1327   24.5401 C   0  0  0  0  0  0  0  0  0  0  0  0
    9.5272  -16.4451   25.7471 O   0  0  0  0  0  0  0  0  0  0  0  0
   10.5796  -16.0399   23.7554 N   0  0  0  0  0  0  0  0  0  0  0  0
   11.8968  -16.2404   24.3423 C   0  0  0  0  0  0  0  0  0  0  0  0
   12.9640  -16.0480   23.3254 C   0  0  0  0  0  0  0  0  0  0  0  0
   12.5915  -15.8965   22.1334 O   0  0  0  0  0  0  0  0  0  0  0  0
   14.3072  -16.0268   23.6094 O   0  0  0  0  0  0  0  0  0  0  0  0
  2  1  1  0
  3  2  2  0
  4  2  1  0
  5  4  1  0
  6  7  1  6
  6  5  1  0
  8  9  2  0
  8  6  1  0
 10 11  1  0
 12 11  1  1
 12 13  1  0
 12 14  1  0
 13  8  1  0
 14 15  2  0
 14 16  1  0
 16 17  1  0
 18 17  1  0
 18 20  1  0
 19 18  2  0
M  END
$$$$
