QSG.pdb
     RDKit          3D

 20 19  0  0  1  0  0  0  0  0999 V2000
    9.4502  -16.3818   25.5792 N   0  0  0  0  0  0  0  0  0  0  0  0
    8.4153  -15.3835   25.6392 C   0  0  0  0  0  0  0  0  0  0  0  0
    8.6213  -14.3247   26.2490 O   0  0  0  0  0  0  0  0  0  0  0  0
    7.1136  -15.6995   24.9376 C   0  0  0  0  0  0  0  0  0  0  0  0
    7.4732  -16.4526   23.7131 C   0  0  0  0  0  0  0  0  0  0  0  0
    6.6859  -16.2009   22.4863 C   0  0  2  0  0  0  0  0  0  0  0  0
    5.9515  -17.4552   22.2046 N   0  0  0  0  0  0  0  0  0  0  0  0
    7.4287  -15.8423   21.2771 C   0  0  0  0  0  0  0  0  0  0  0  0
    8.1575  -16.7192   20.6955 O   0  0  0  0  0  0  0  0  0  0  0  0
    8.6035  -12.4817   17.9310 O   0  0  0  0  0  0  0  0  0  0  0  0
    7.8260  -12.8585   19.0237 C   0  0  0  0  0  0  0  0  0  0  0  0
    8.3113  -14.2157   19.5516 C   0  0  2  0  0  0  0  0  0  0  0  0
    7.4366  -14.5731   20.6383 N   0  0  0  0  0  0  0  0  0  0  0  0
    9.7094  -14.0222   19.9768 C   0  0  0  0  0  0  0  0  0  0  0  0
   10.0591  -13.5262   21.0733 O   0  0  0  0  0  0  0  0  0  0  0  0
   10.7337  -14.4266   19.0802 N   0  0  0  0  0  0  0  0  0  0  0  0
   12.1401  -14.2179   19.3936 C   0  0  0  0  0  0  0  0  0  0  0  0
   13.0070  -14.7189   18.2948 C   0  0  0  0  0  0  0  0  0  0  0  0
   14.2389  -14.4830   18.3913 O   0  0  0  0  0  0  0  0  0  0  0  0
   12.5468  -15.4112   17.2021 O   0  0  0  0  0  0  0  0  0  0  0  0
  2  1  1  0
  3  2  2  0
  4  2  1  0
  5  4  1  0
  6  7  1  6
  6  5  1  0
  8  9  2  0
  8  6  1  0
 10 11  1  0
 12 11  1  1
 12 13  1  0
 12 14  1  0
 13  8  1  0
 14 15  2  0
 14 16  1  0
 16 17  1  0
 18 17  1  0
 18 20  1  0
 19 18  2  0
M  END
$$$$
