QSG.pdb
     RDKit          3D

 20 19  0  0  1  0  0  0  0  0999 V2000
    9.0945  -16.8149   14.0888 N   0  0  0  0  0  0  0  0  0  0  0  0
   10.0282  -16.4931   15.1357 C   0  0  0  0  0  0  0  0  0  0  0  0
   11.2448  -16.5398   14.9060 O   0  0  0  0  0  0  0  0  0  0  0  0
    9.4495  -16.1100   16.4793 C   0  0  0  0  0  0  0  0  0  0  0  0
    8.7290  -14.8317   16.2726 C   0  0  0  0  0  0  0  0  0  0  0  0
    7.9174  -14.3031   17.3906 C   0  0  2  0  0  0  0  0  0  0  0  0
    7.3936  -12.9951   16.9358 N   0  0  0  0  0  0  0  0  0  0  0  0
    8.5992  -14.0866   18.6676 C   0  0  0  0  0  0  0  0  0  0  0  0
    9.4317  -13.1217   18.7880 O   0  0  0  0  0  0  0  0  0  0  0  0
    7.2879  -15.4647   22.1797 O   0  0  0  0  0  0  0  0  0  0  0  0
    8.2771  -14.4843   22.2025 C   0  0  0  0  0  0  0  0  0  0  0  0
    9.2458  -14.7095   21.0332 C   0  0  2  0  0  0  0  0  0  0  0  0
    8.4381  -14.8576   19.8502 N   0  0  0  0  0  0  0  0  0  0  0  0
   10.0183  -15.9220   21.3590 C   0  0  0  0  0  0  0  0  0  0  0  0
    9.7025  -17.0837   21.0107 O   0  0  0  0  0  0  0  0  0  0  0  0
   11.2053  -15.7628   22.1220 N   0  0  0  0  0  0  0  0  0  0  0  0
   11.9755  -16.9131   22.5729 C   0  0  0  0  0  0  0  0  0  0  0  0
   13.2192  -16.4798   23.2625 C   0  0  0  0  0  0  0  0  0  0  0  0
   13.4870  -15.2511   23.2309 O   0  0  0  0  0  0  0  0  0  0  0  0
   14.0748  -17.3296   23.9190 O   0  0  0  0  0  0  0  0  0  0  0  0
  2  1  1  0
  3  2  2  0
  4  2  1  0
  5  4  1  0
  6  7  1  6
  6  5  1  0
  8  9  2  0
  8  6  1  0
 10 11  1  0
 12 11  1  1
 12 13  1  0
 12 14  1  0
 13  8  1  0
 14 15  2  0
 14 16  1  0
 16 17  1  0
 18 17  1  0
 18 20  1  0
 19 18  2  0
M  END
$$$$
