QSG.pdb
     RDKit          3D

 20 19  0  0  1  0  0  0  0  0999 V2000
    4.9054  -18.5017   21.3027 N   0  0  0  0  0  0  0  0  0  0  0  0
    5.8387  -18.5723   20.2095 C   0  0  0  0  0  0  0  0  0  0  0  0
    5.7149  -19.4617   19.3557 O   0  0  0  0  0  0  0  0  0  0  0  0
    6.9354  -17.5317   20.1734 C   0  0  0  0  0  0  0  0  0  0  0  0
    6.7183  -16.6578   21.3503 C   0  0  0  0  0  0  0  0  0  0  0  0
    7.4582  -15.3783   21.4114 C   0  0  2  0  0  0  0  0  0  0  0  0
    8.5263  -15.4720   20.3904 N   0  0  0  0  0  0  0  0  0  0  0  0
    8.0925  -15.0331   22.6846 C   0  0  0  0  0  0  0  0  0  0  0  0
    9.3396  -15.2642   22.8566 O   0  0  0  0  0  0  0  0  0  0  0  0
    5.8534  -13.6816   25.8813 O   0  0  0  0  0  0  0  0  0  0  0  0
    7.2153  -13.3957   25.9417 C   0  0  0  0  0  0  0  0  0  0  0  0
    7.9943  -14.4515   25.1452 C   0  0  2  0  0  0  0  0  0  0  0  0
    7.4574  -14.4403   23.8090 N   0  0  0  0  0  0  0  0  0  0  0  0
    7.7859  -15.7353   25.8392 C   0  0  0  0  0  0  0  0  0  0  0  0
    6.7271  -16.4045   25.7979 O   0  0  0  0  0  0  0  0  0  0  0  0
    8.8616  -16.2510   26.6096 N   0  0  0  0  0  0  0  0  0  0  0  0
    8.7866  -17.5663   27.2294 C   0  0  0  0  0  0  0  0  0  0  0  0
    9.9814  -17.8208   28.0767 C   0  0  0  0  0  0  0  0  0  0  0  0
   10.8699  -16.9303   28.0872 O   0  0  0  0  0  0  0  0  0  0  0  0
   10.1652  -18.9516   28.8335 O   0  0  0  0  0  0  0  0  0  0  0  0
  2  1  1  0
  3  2  2  0
  4  2  1  0
  5  4  1  0
  6  7  1  6
  6  5  1  0
  8  9  2  0
  8  6  1  0
 10 11  1  0
 12 11  1  1
 12 13  1  0
 12 14  1  0
 13  8  1  0
 14 15  2  0
 14 16  1  0
 16 17  1  0
 18 17  1  0
 18 20  1  0
 19 18  2  0
M  END
$$$$
