QSG.pdb
     RDKit          3D

 20 19  0  0  1  0  0  0  0  0999 V2000
    9.6800  -17.7264   16.0297 N   0  0  0  0  0  0  0  0  0  0  0  0
    9.4091  -16.8383   14.9301 C   0  0  0  0  0  0  0  0  0  0  0  0
    9.4742  -17.2650   13.7687 O   0  0  0  0  0  0  0  0  0  0  0  0
    9.0544  -15.4086   15.2723 C   0  0  0  0  0  0  0  0  0  0  0  0
    9.1333  -15.3024   16.7483 C   0  0  0  0  0  0  0  0  0  0  0  0
    8.0493  -14.5828   17.4519 C   0  0  2  0  0  0  0  0  0  0  0  0
    7.7787  -13.3653   16.6540 N   0  0  0  0  0  0  0  0  0  0  0  0
    8.3113  -14.1601   18.8285 C   0  0  0  0  0  0  0  0  0  0  0  0
    8.9573  -13.0773   19.0488 O   0  0  0  0  0  0  0  0  0  0  0  0
    6.3524  -15.4377   22.1195 O   0  0  0  0  0  0  0  0  0  0  0  0
    7.2166  -14.3518   22.2399 C   0  0  0  0  0  0  0  0  0  0  0  0
    8.4303  -14.5615   21.3240 C   0  0  2  0  0  0  0  0  0  0  0  0
    7.9126  -14.8419   20.0097 N   0  0  0  0  0  0  0  0  0  0  0  0
    9.1942  -15.6859   21.8944 C   0  0  0  0  0  0  0  0  0  0  0  0
    9.0927  -16.8784   21.5224 O   0  0  0  0  0  0  0  0  0  0  0  0
   10.1107  -15.3977   22.9402 N   0  0  0  0  0  0  0  0  0  0  0  0
   10.8234  -16.4594   23.6362 C   0  0  0  0  0  0  0  0  0  0  0  0
   12.2790  -16.4022   23.3395 C   0  0  0  0  0  0  0  0  0  0  0  0
   12.6594  -15.5150   22.5328 O   0  0  0  0  0  0  0  0  0  0  0  0
   13.2128  -17.2472   23.8864 O   0  0  0  0  0  0  0  0  0  0  0  0
  2  1  1  0
  3  2  2  0
  4  2  1  0
  5  4  1  0
  6  7  1  6
  6  5  1  0
  8  9  2  0
  8  6  1  0
 10 11  1  0
 12 11  1  1
 12 13  1  0
 12 14  1  0
 13  8  1  0
 14 15  2  0
 14 16  1  0
 16 17  1  0
 18 17  1  0
 18 20  1  0
 19 18  2  0
M  END
$$$$
