QSG.pdb
     RDKit          3D

 20 19  0  0  1  0  0  0  0  0999 V2000
    7.2694  -18.8522   27.7028 N   0  0  0  0  0  0  0  0  0  0  0  0
    6.7953  -20.1704   27.3728 C   0  0  0  0  0  0  0  0  0  0  0  0
    6.4599  -20.9448   28.2800 O   0  0  0  0  0  0  0  0  0  0  0  0
    6.7361  -20.5326   25.9058 C   0  0  0  0  0  0  0  0  0  0  0  0
    7.2011  -19.3375   25.1633 C   0  0  0  0  0  0  0  0  0  0  0  0
    6.2949  -18.7525   24.1510 C   0  0  2  0  0  0  0  0  0  0  0  0
    5.7626  -19.8914   23.3688 N   0  0  0  0  0  0  0  0  0  0  0  0
    6.8763  -17.7993   23.2045 C   0  0  0  0  0  0  0  0  0  0  0  0
    7.2089  -18.1904   22.0320 O   0  0  0  0  0  0  0  0  0  0  0  0
    7.3693  -13.8735   24.1722 O   0  0  0  0  0  0  0  0  0  0  0  0
    7.7173  -14.1831   22.8594 C   0  0  0  0  0  0  0  0  0  0  0  0
    8.1487  -15.6540   22.7791 C   0  0  2  0  0  0  0  0  0  0  0  0
    7.1269  -16.4212   23.4433 N   0  0  0  0  0  0  0  0  0  0  0  0
    9.4602  -15.7412   23.4467 C   0  0  0  0  0  0  0  0  0  0  0  0
    9.6252  -15.8251   24.6862 O   0  0  0  0  0  0  0  0  0  0  0  0
   10.6198  -15.7292   22.6271 N   0  0  0  0  0  0  0  0  0  0  0  0
   11.9494  -15.9045   23.1939 C   0  0  0  0  0  0  0  0  0  0  0  0
   12.9898  -15.8323   22.1345 C   0  0  0  0  0  0  0  0  0  0  0  0
   12.7508  -16.4440   21.0616 O   0  0  0  0  0  0  0  0  0  0  0  0
   14.1739  -15.1486   22.2598 O   0  0  0  0  0  0  0  0  0  0  0  0
  2  1  1  0
  3  2  2  0
  4  2  1  0
  5  4  1  0
  6  7  1  6
  6  5  1  0
  8  9  2  0
  8  6  1  0
 10 11  1  0
 12 11  1  1
 12 13  1  0
 12 14  1  0
 13  8  1  0
 14 15  2  0
 14 16  1  0
 16 17  1  0
 18 17  1  0
 18 20  1  0
 19 18  2  0
M  END
$$$$
