QSG.pdb
     RDKit          3D

 20 19  0  0  1  0  0  0  0  0999 V2000
    7.7892  -19.3430   20.9529 N   0  0  0  0  0  0  0  0  0  0  0  0
    7.5408  -18.8608   19.6198 C   0  0  0  0  0  0  0  0  0  0  0  0
    6.7021  -19.4322   18.9089 O   0  0  0  0  0  0  0  0  0  0  0  0
    8.3385  -17.6600   19.1632 C   0  0  0  0  0  0  0  0  0  0  0  0
    9.1579  -17.2392   20.3240 C   0  0  0  0  0  0  0  0  0  0  0  0
    8.9905  -15.8588   20.8286 C   0  0  2  0  0  0  0  0  0  0  0  0
    9.7760  -14.9915   19.9214 N   0  0  0  0  0  0  0  0  0  0  0  0
    9.4373  -15.5881   22.1959 C   0  0  0  0  0  0  0  0  0  0  0  0
   10.6689  -15.3225   22.4213 O   0  0  0  0  0  0  0  0  0  0  0  0
    6.9369  -14.6555   25.2257 O   0  0  0  0  0  0  0  0  0  0  0  0
    8.2892  -14.3622   25.3857 C   0  0  0  0  0  0  0  0  0  0  0  0
    9.1313  -15.4493   24.7038 C   0  0  2  0  0  0  0  0  0  0  0  0
    8.6255  -15.5831   23.3621 N   0  0  0  0  0  0  0  0  0  0  0  0
    8.9628  -16.6733   25.5079 C   0  0  0  0  0  0  0  0  0  0  0  0
    7.8972  -17.3269   25.5968 O   0  0  0  0  0  0  0  0  0  0  0  0
   10.0881  -17.1460   26.2338 N   0  0  0  0  0  0  0  0  0  0  0  0
   10.0478  -18.4108   26.9537 C   0  0  0  0  0  0  0  0  0  0  0  0
   10.4355  -18.2224   28.3765 C   0  0  0  0  0  0  0  0  0  0  0  0
   10.7559  -17.0578   28.7280 O   0  0  0  0  0  0  0  0  0  0  0  0
   10.4627  -19.2292   29.3097 O   0  0  0  0  0  0  0  0  0  0  0  0
  2  1  1  0
  3  2  2  0
  4  2  1  0
  5  4  1  0
  6  7  1  6
  6  5  1  0
  8  9  2  0
  8  6  1  0
 10 11  1  0
 12 11  1  1
 12 13  1  0
 12 14  1  0
 13  8  1  0
 14 15  2  0
 14 16  1  0
 16 17  1  0
 18 17  1  0
 18 20  1  0
 19 18  2  0
M  END
$$$$
