ECK.pdb
     RDKit          3D

 25 24  0  0  1  0  0  0  0  0999 V2000
    8.3743  -14.0082   19.9812 N   0  0  0  0  0  0  0  0  0  0  0  0
    7.2817  -14.2552   20.9422 C   0  0  1  0  0  0  0  0  0  0  0  0
    6.5814  -15.5356   20.6275 C   0  0  0  0  0  0  0  0  0  0  0  0
    7.3797  -16.7789   20.8096 C   0  0  0  0  0  0  0  0  0  0  0  0
    6.5514  -17.9780   20.5273 C   0  0  0  0  0  0  0  0  0  0  0  0
    6.6127  -18.9620   21.2950 O   0  0  0  0  0  0  0  0  0  0  0  0
    7.8141  -14.1658   22.3099 C   0  0  0  0  0  0  0  0  0  0  0  0
    8.9924  -14.5389   22.5245 O   0  0  0  0  0  0  0  0  0  0  0  0
    5.7101  -18.0375   19.4343 O   0  0  0  0  0  0  0  0  0  0  0  0
    7.0862  -13.6832   23.4189 N   0  0  0  0  0  0  0  0  0  0  0  0
    7.6772  -13.6257   24.7124 C   0  0  1  0  0  0  0  0  0  0  0  0
    6.8597  -12.8570   25.7202 C   0  0  0  0  0  0  0  0  0  0  0  0
    7.5504  -12.8658   27.3654 S   0  0  0  0  0  0  0  0  0  0  0  0
    8.0055  -15.0017   25.2232 C   0  0  0  0  0  0  0  0  0  0  0  0
    7.1279  -15.9098   25.2709 O   0  0  0  0  0  0  0  0  0  0  0  0
    9.3035  -15.3425   25.6714 N   0  0  0  0  0  0  0  0  0  0  0  0
    9.6011  -16.6367   26.2554 C   0  0  1  0  0  0  0  0  0  0  0  0
   10.7347  -17.2729   25.4837 C   0  0  0  0  0  0  0  0  0  0  0  0
   11.1080  -18.6249   26.0512 C   0  0  0  0  0  0  0  0  0  0  0  0
   12.1964  -19.2600   25.2403 C   0  0  0  0  0  0  0  0  0  0  0  0
   12.5734  -20.5979   25.7927 C   0  0  0  0  0  0  0  0  0  0  0  0
   13.6311  -21.1332   24.9405 N   0  0  0  0  0  0  0  0  0  0  0  0
   10.0205  -16.4673   27.6704 C   0  0  0  0  0  0  0  0  0  0  0  0
   10.3303  -15.3324   28.1051 O   0  0  0  0  0  0  0  0  0  0  0  0
   10.0774  -17.5491   28.5306 O   0  0  0  0  0  0  0  0  0  0  0  0
  2  1  1  6
  2  7  1  0
  3  2  1  0
  4  5  1  0
  4  3  1  0
  5  9  1  0
  6  5  2  0
  7  8  2  0
 10  7  1  0
 10 11  1  0
 11 14  1  0
 11 12  1  1
 12 13  1  0
 14 15  2  0
 16 17  1  0
 16 14  1  0
 17 23  1  0
 17 18  1  6
 19 18  1  0
 20 19  1  0
 21 20  1  0
 21 22  1  0
 23 24  2  0
 23 25  1  0
M  END
$$$$
