ECK.pdb
     RDKit          3D

 25 24  0  0  1  0  0  0  0  0999 V2000
    8.1018  -18.6164   20.2892 N   0  0  0  0  0  0  0  0  0  0  0  0
    9.4535  -18.0262   20.3421 C   0  0  1  0  0  0  0  0  0  0  0  0
    9.6683  -17.0954   19.1947 C   0  0  0  0  0  0  0  0  0  0  0  0
    8.8057  -17.3185   18.0020 C   0  0  0  0  0  0  0  0  0  0  0  0
    9.6331  -17.4602   16.7777 C   0  0  0  0  0  0  0  0  0  0  0  0
   10.1367  -18.5699   16.5011 O   0  0  0  0  0  0  0  0  0  0  0  0
    9.6655  -17.4267   21.6679 C   0  0  0  0  0  0  0  0  0  0  0  0
   10.7259  -16.7912   21.8804 O   0  0  0  0  0  0  0  0  0  0  0  0
    9.8637  -16.3947   15.9307 O   0  0  0  0  0  0  0  0  0  0  0  0
    8.7493  -17.5142   22.7382 N   0  0  0  0  0  0  0  0  0  0  0  0
    9.0754  -16.9979   24.0238 C   0  0  1  0  0  0  0  0  0  0  0  0
    7.9957  -16.1315   24.6223 C   0  0  0  0  0  0  0  0  0  0  0  0
    6.4724  -17.0013   24.9492 S   0  0  0  0  0  0  0  0  0  0  0  0
    9.4675  -18.0993   24.9700 C   0  0  0  0  0  0  0  0  0  0  0  0
    8.8502  -19.2020   24.9841 O   0  0  0  0  0  0  0  0  0  0  0  0
   10.5386  -17.9543   25.8829 N   0  0  0  0  0  0  0  0  0  0  0  0
   10.9060  -19.0062   26.8119 C   0  0  1  0  0  0  0  0  0  0  0  0
   12.2227  -18.6472   27.4620 C   0  0  0  0  0  0  0  0  0  0  0  0
   12.6598  -19.6992   28.4580 C   0  0  0  0  0  0  0  0  0  0  0  0
   13.9748  -19.3327   29.0761 C   0  0  0  0  0  0  0  0  0  0  0  0
   14.5181  -20.4563   29.9003 C   0  0  0  0  0  0  0  0  0  0  0  0
   15.8363  -20.0447   30.3740 N   0  0  0  0  0  0  0  0  0  0  0  0
    9.8687  -19.1318   27.8679 C   0  0  0  0  0  0  0  0  0  0  0  0
    9.2355  -18.1203   28.2536 O   0  0  0  0  0  0  0  0  0  0  0  0
    9.5823  -20.3570   28.4426 O   0  0  0  0  0  0  0  0  0  0  0  0
  2  1  1  1
  2  7  1  0
  3  2  1  0
  4  5  1  0
  4  3  1  0
  5  9  1  0
  6  5  2  0
  7  8  2  0
 10  7  1  0
 10 11  1  0
 11 14  1  0
 11 12  1  1
 12 13  1  0
 14 15  2  0
 16 17  1  0
 16 14  1  0
 17 23  1  0
 17 18  1  1
 19 18  1  0
 20 19  1  0
 21 20  1  0
 21 22  1  0
 23 24  2  0
 23 25  1  0
M  END
$$$$
