ECK.pdb
     RDKit          3D

 25 24  0  0  1  0  0  0  0  0999 V2000
   11.3324  -16.6704   18.5672 N   0  0  0  0  0  0  0  0  0  0  0  0
   10.3638  -17.3102   19.4785 C   0  0  1  0  0  0  0  0  0  0  0  0
   10.7794  -18.7093   19.7928 C   0  0  0  0  0  0  0  0  0  0  0  0
   11.7701  -18.8652   20.8929 C   0  0  0  0  0  0  0  0  0  0  0  0
   12.1100  -20.2966   21.0912 C   0  0  0  0  0  0  0  0  0  0  0  0
   12.9785  -20.6113   21.9327 O   0  0  0  0  0  0  0  0  0  0  0  0
   10.1671  -16.4488   20.6538 C   0  0  0  0  0  0  0  0  0  0  0  0
   11.1721  -15.9325   21.1987 O   0  0  0  0  0  0  0  0  0  0  0  0
   11.4904  -21.2962   20.3682 O   0  0  0  0  0  0  0  0  0  0  0  0
    8.9103  -16.1540   21.2249 N   0  0  0  0  0  0  0  0  0  0  0  0
    8.8037  -15.2930   22.3532 C   0  0  1  0  0  0  0  0  0  0  0  0
    7.4419  -14.6643   22.5113 C   0  0  0  0  0  0  0  0  0  0  0  0
    6.2279  -15.7490   23.2416 S   0  0  0  0  0  0  0  0  0  0  0  0
    9.2219  -15.9952   23.6159 C   0  0  0  0  0  0  0  0  0  0  0  0
    9.3503  -17.2519   23.6552 O   0  0  0  0  0  0  0  0  0  0  0  0
    9.4895  -15.2873   24.8112 N   0  0  0  0  0  0  0  0  0  0  0  0
    9.7934  -15.9665   26.0565 C   0  0  1  0  0  0  0  0  0  0  0  0
    9.9971  -14.9330   27.1408 C   0  0  0  0  0  0  0  0  0  0  0  0
   10.2989  -15.5760   28.4768 C   0  0  0  0  0  0  0  0  0  0  0  0
   10.5144  -14.5340   29.5319 C   0  0  0  0  0  0  0  0  0  0  0  0
   10.7460  -15.1587   30.8711 C   0  0  0  0  0  0  0  0  0  0  0  0
   10.9290  -14.0711   31.8277 N   0  0  0  0  0  0  0  0  0  0  0  0
    8.6601  -16.8469   26.4407 C   0  0  0  0  0  0  0  0  0  0  0  0
    7.4820  -16.5135   26.1690 O   0  0  0  0  0  0  0  0  0  0  0  0
    8.8793  -18.0427   27.1005 O   0  0  0  0  0  0  0  0  0  0  0  0
  2  1  1  6
  2  7  1  0
  3  2  1  0
  4  5  1  0
  4  3  1  0
  5  9  1  0
  6  5  2  0
  7  8  2  0
 10  7  1  0
 10 11  1  0
 11 14  1  0
 11 12  1  1
 12 13  1  0
 14 15  2  0
 16 17  1  0
 16 14  1  0
 17 23  1  0
 17 18  1  1
 19 18  1  0
 20 19  1  0
 21 20  1  0
 21 22  1  0
 23 24  2  0
 23 25  1  0
M  END
$$$$
