ECK.pdb
     RDKit          3D

 25 24  0  0  1  0  0  0  0  0999 V2000
    8.9705  -18.4095   18.5229 N   0  0  0  0  0  0  0  0  0  0  0  0
   10.0634  -18.4529   19.5136 C   0  0  1  0  0  0  0  0  0  0  0  0
   11.3927  -18.4425   18.8341 C   0  0  0  0  0  0  0  0  0  0  0  0
   11.5863  -17.3958   17.7933 C   0  0  0  0  0  0  0  0  0  0  0  0
   12.9690  -17.4432   17.2552 C   0  0  0  0  0  0  0  0  0  0  0  0
   13.7024  -16.4365   17.3552 O   0  0  0  0  0  0  0  0  0  0  0  0
    9.8664  -17.3761   20.4953 C   0  0  0  0  0  0  0  0  0  0  0  0
   10.7947  -17.1127   21.2968 O   0  0  0  0  0  0  0  0  0  0  0  0
   13.4709  -18.5745   16.6435 O   0  0  0  0  0  0  0  0  0  0  0  0
    8.6905  -16.6029   20.6054 N   0  0  0  0  0  0  0  0  0  0  0  0
    8.5661  -15.6000   21.6077 C   0  0  1  0  0  0  0  0  0  0  0  0
    7.3047  -14.7811   21.4944 C   0  0  0  0  0  0  0  0  0  0  0  0
    6.0478  -15.5311   20.4738 S   0  0  0  0  0  0  0  0  0  0  0  0
    8.7047  -16.1866   22.9857 C   0  0  0  0  0  0  0  0  0  0  0  0
    8.4732  -17.4098   23.2037 O   0  0  0  0  0  0  0  0  0  0  0  0
    9.0981  -15.4025   24.0957 N   0  0  0  0  0  0  0  0  0  0  0  0
    9.1706  -15.9492   25.4374 C   0  0  1  0  0  0  0  0  0  0  0  0
    9.6157  -14.8600   26.3865 C   0  0  0  0  0  0  0  0  0  0  0  0
    9.7794  -15.3804   27.7978 C   0  0  0  0  0  0  0  0  0  0  0  0
   10.2680  -14.2973   28.7108 C   0  0  0  0  0  0  0  0  0  0  0  0
   10.5467  -14.8282   30.0811 C   0  0  0  0  0  0  0  0  0  0  0  0
   10.9711  -13.6985   30.9026 N   0  0  0  0  0  0  0  0  0  0  0  0
    7.8305  -16.4331   25.8581 C   0  0  0  0  0  0  0  0  0  0  0  0
    6.7965  -15.8256   25.4911 O   0  0  0  0  0  0  0  0  0  0  0  0
    7.6968  -17.5545   26.6568 O   0  0  0  0  0  0  0  0  0  0  0  0
  2  1  1  6
  2  7  1  0
  3  2  1  0
  4  5  1  0
  4  3  1  0
  5  9  1  0
  6  5  2  0
  7  8  2  0
 10  7  1  0
 10 11  1  0
 11 14  1  0
 11 12  1  1
 12 13  1  0
 14 15  2  0
 16 17  1  0
 16 14  1  0
 17 23  1  0
 17 18  1  1
 19 18  1  0
 20 19  1  0
 21 20  1  0
 21 22  1  0
 23 24  2  0
 23 25  1  0
M  END
$$$$
