ECK.pdb
     RDKit          3D

 25 24  0  0  1  0  0  0  0  0999 V2000
    9.5945  -16.9333   15.9135 N   0  0  0  0  0  0  0  0  0  0  0  0
    8.3834  -16.3762   16.5467 C   0  0  1  0  0  0  0  0  0  0  0  0
    7.2587  -17.3564   16.4883 C   0  0  0  0  0  0  0  0  0  0  0  0
    7.5062  -18.6741   17.1351 C   0  0  0  0  0  0  0  0  0  0  0  0
    6.3141  -19.5499   17.0102 C   0  0  0  0  0  0  0  0  0  0  0  0
    6.2469  -20.3656   16.0660 O   0  0  0  0  0  0  0  0  0  0  0  0
    8.7197  -15.9064   17.8988 C   0  0  0  0  0  0  0  0  0  0  0  0
    9.7862  -16.3022   18.4274 O   0  0  0  0  0  0  0  0  0  0  0  0
    5.2711  -19.4885   17.9126 O   0  0  0  0  0  0  0  0  0  0  0  0
    7.9186  -15.0280   18.6599 N   0  0  0  0  0  0  0  0  0  0  0  0
    8.3533  -14.5580   19.9310 C   0  0  1  0  0  0  0  0  0  0  0  0
    7.4486  -13.5129   20.5343 C   0  0  0  0  0  0  0  0  0  0  0  0
    7.9854  -12.9316   22.1337 S   0  0  0  0  0  0  0  0  0  0  0  0
    8.5716  -15.6977   20.8879 C   0  0  0  0  0  0  0  0  0  0  0  0
    7.7501  -16.6549   20.9655 O   0  0  0  0  0  0  0  0  0  0  0  0
    9.6992  -15.7520   21.7408 N   0  0  0  0  0  0  0  0  0  0  0  0
    9.9287  -16.8641   22.6435 C   0  0  1  0  0  0  0  0  0  0  0  0
   11.3663  -17.3128   22.5119 C   0  0  0  0  0  0  0  0  0  0  0  0
   11.6794  -18.4660   23.4401 C   0  0  0  0  0  0  0  0  0  0  0  0
   13.0598  -18.9919   23.1880 C   0  0  0  0  0  0  0  0  0  0  0  0
   13.4066  -20.0856   24.1475 C   0  0  0  0  0  0  0  0  0  0  0  0
   14.7452  -20.5541   23.8009 N   0  0  0  0  0  0  0  0  0  0  0  0
    9.6873  -16.4345   24.0450 C   0  0  0  0  0  0  0  0  0  0  0  0
    9.6475  -17.2836   24.9671 O   0  0  0  0  0  0  0  0  0  0  0  0
    9.5029  -15.1000   24.3590 O   0  0  0  0  0  0  0  0  0  0  0  0
  2  1  1  1
  2  7  1  0
  3  2  1  0
  4  5  1  0
  4  3  1  0
  5  9  1  0
  6  5  2  0
  7  8  2  0
 10  7  1  0
 10 11  1  0
 11 14  1  0
 11 12  1  1
 12 13  1  0
 14 15  2  0
 16 17  1  0
 16 14  1  0
 17 23  1  0
 17 18  1  1
 19 18  1  0
 20 19  1  0
 21 20  1  0
 21 22  1  0
 23 24  2  0
 23 25  1  0
M  END
$$$$
