ECK.pdb
     RDKit          3D

 25 24  0  0  1  0  0  0  0  0999 V2000
    8.8798  -17.9489   18.1882 N   0  0  0  0  0  0  0  0  0  0  0  0
   10.1708  -17.9829   18.9025 C   0  0  1  0  0  0  0  0  0  0  0  0
   11.2745  -17.4987   18.0215 C   0  0  0  0  0  0  0  0  0  0  0  0
   12.6386  -17.5084   18.6177 C   0  0  0  0  0  0  0  0  0  0  0  0
   13.6112  -18.1347   17.6874 C   0  0  0  0  0  0  0  0  0  0  0  0
   14.0572  -17.4719   16.7266 O   0  0  0  0  0  0  0  0  0  0  0  0
   10.0365  -17.2576   20.1745 C   0  0  0  0  0  0  0  0  0  0  0  0
   11.0363  -17.1681   20.9268 O   0  0  0  0  0  0  0  0  0  0  0  0
   14.0397  -19.4364   17.8543 O   0  0  0  0  0  0  0  0  0  0  0  0
    8.8462  -16.6437   20.6205 N   0  0  0  0  0  0  0  0  0  0  0  0
    8.7864  -15.9991   21.8880 C   0  0  1  0  0  0  0  0  0  0  0  0
    7.8117  -14.8493   21.9396 C   0  0  0  0  0  0  0  0  0  0  0  0
    6.1016  -15.3562   21.9893 S   0  0  0  0  0  0  0  0  0  0  0  0
    8.5125  -16.9864   22.9891 C   0  0  0  0  0  0  0  0  0  0  0  0
    7.8357  -18.0326   22.7779 O   0  0  0  0  0  0  0  0  0  0  0  0
    8.9960  -16.7921   24.3045 N   0  0  0  0  0  0  0  0  0  0  0  0
    8.6786  -17.7074   25.3843 C   0  0  1  0  0  0  0  0  0  0  0  0
    9.6381  -17.4672   26.5275 C   0  0  0  0  0  0  0  0  0  0  0  0
    9.3920  -18.4231   27.6743 C   0  0  0  0  0  0  0  0  0  0  0  0
   10.3268  -18.1418   28.8112 C   0  0  0  0  0  0  0  0  0  0  0  0
   10.0454  -19.0345   29.9778 C   0  0  0  0  0  0  0  0  0  0  0  0
   11.2944  -19.7122   30.3126 N   0  0  0  0  0  0  0  0  0  0  0  0
    7.2933  -17.4632   25.8620 C   0  0  0  0  0  0  0  0  0  0  0  0
    6.7562  -16.3425   25.6932 O   0  0  0  0  0  0  0  0  0  0  0  0
    6.5733  -18.4587   26.4975 O   0  0  0  0  0  0  0  0  0  0  0  0
  2  1  1  6
  2  7  1  0
  3  2  1  0
  4  5  1  0
  4  3  1  0
  5  9  1  0
  6  5  2  0
  7  8  2  0
 10  7  1  0
 10 11  1  0
 11 14  1  0
 11 12  1  6
 12 13  1  0
 14 15  2  0
 16 17  1  0
 16 14  1  0
 17 23  1  0
 17 18  1  1
 19 18  1  0
 20 19  1  0
 21 20  1  0
 21 22  1  0
 23 24  2  0
 23 25  1  0
M  END
$$$$
