ECK.pdb
     RDKit          3D

 25 24  0  0  1  0  0  0  0  0999 V2000
    7.9100  -12.6748   19.6635 N   0  0  0  0  0  0  0  0  0  0  0  0
    7.2267  -13.6679   20.5149 C   0  0  1  0  0  0  0  0  0  0  0  0
    7.0668  -14.9635   19.7905 C   0  0  0  0  0  0  0  0  0  0  0  0
    8.3248  -15.6908   19.4670 C   0  0  0  0  0  0  0  0  0  0  0  0
    8.0254  -16.9771   18.7893 C   0  0  0  0  0  0  0  0  0  0  0  0
    6.8372  -17.2908   18.5632 O   0  0  0  0  0  0  0  0  0  0  0  0
    7.9323  -13.7659   21.8013 C   0  0  0  0  0  0  0  0  0  0  0  0
    9.1786  -13.6240   21.8184 O   0  0  0  0  0  0  0  0  0  0  0  0
    9.0282  -17.8422   18.3992 O   0  0  0  0  0  0  0  0  0  0  0  0
    7.3016  -14.0118   23.0400 N   0  0  0  0  0  0  0  0  0  0  0  0
    8.0598  -14.1038   24.2410 C   0  0  1  0  0  0  0  0  0  0  0  0
    7.4471  -13.3648   25.4043 C   0  0  0  0  0  0  0  0  0  0  0  0
    5.6857  -13.6023   25.5617 S   0  0  0  0  0  0  0  0  0  0  0  0
    8.3386  -15.5373   24.6009 C   0  0  0  0  0  0  0  0  0  0  0  0
    7.4659  -16.4363   24.4355 O   0  0  0  0  0  0  0  0  0  0  0  0
    9.5825  -15.9446   25.1380 N   0  0  0  0  0  0  0  0  0  0  0  0
    9.8160  -17.3011   25.5962 C   0  0  1  0  0  0  0  0  0  0  0  0
   11.1029  -17.8089   24.9869 C   0  0  0  0  0  0  0  0  0  0  0  0
   11.4869  -19.1639   25.5400 C   0  0  0  0  0  0  0  0  0  0  0  0
   12.8224  -19.5941   25.0137 C   0  0  0  0  0  0  0  0  0  0  0  0
   13.2075  -20.9378   25.5461 C   0  0  0  0  0  0  0  0  0  0  0  0
   14.4177  -21.3497   24.8411 N   0  0  0  0  0  0  0  0  0  0  0  0
    9.9469  -17.3183   27.0759 C   0  0  0  0  0  0  0  0  0  0  0  0
   10.2045  -16.2607   27.6988 O   0  0  0  0  0  0  0  0  0  0  0  0
    9.7887  -18.4916   27.7912 O   0  0  0  0  0  0  0  0  0  0  0  0
  2  1  1  6
  2  7  1  0
  3  2  1  0
  4  5  1  0
  4  3  1  0
  5  9  1  0
  6  5  2  0
  7  8  2  0
 10  7  1  0
 10 11  1  0
 11 14  1  0
 11 12  1  1
 12 13  1  0
 14 15  2  0
 16 17  1  0
 16 14  1  0
 17 23  1  0
 17 18  1  6
 19 18  1  0
 20 19  1  0
 21 20  1  0
 21 22  1  0
 23 24  2  0
 23 25  1  0
M  END
$$$$
