ECK.pdb
     RDKit          3D

 25 24  0  0  1  0  0  0  0  0999 V2000
    6.1450  -17.6064   18.8517 N   0  0  0  0  0  0  0  0  0  0  0  0
    7.4641  -18.1672   19.2032 C   0  0  1  0  0  0  0  0  0  0  0  0
    8.2907  -18.3800   17.9783 C   0  0  0  0  0  0  0  0  0  0  0  0
    8.9759  -17.1751   17.4351 C   0  0  0  0  0  0  0  0  0  0  0  0
    9.8314  -17.5379   16.2774 C   0  0  0  0  0  0  0  0  0  0  0  0
    9.2975  -17.9231   15.2153 O   0  0  0  0  0  0  0  0  0  0  0  0
    8.0904  -17.3187   20.2278 C   0  0  0  0  0  0  0  0  0  0  0  0
    9.2217  -17.6373   20.6662 O   0  0  0  0  0  0  0  0  0  0  0  0
   11.2084  -17.4613   16.3408 O   0  0  0  0  0  0  0  0  0  0  0  0
    7.5041  -16.1521   20.7644 N   0  0  0  0  0  0  0  0  0  0  0  0
    8.1594  -15.4075   21.7851 C   0  0  1  0  0  0  0  0  0  0  0  0
    7.4897  -14.0944   22.1044 C   0  0  0  0  0  0  0  0  0  0  0  0
    8.1639  -13.2712   23.5367 S   0  0  0  0  0  0  0  0  0  0  0  0
    8.3444  -16.2333   23.0285 C   0  0  0  0  0  0  0  0  0  0  0  0
    7.3569  -16.7459   23.6279 O   0  0  0  0  0  0  0  0  0  0  0  0
    9.6239  -16.4739   23.5823 N   0  0  0  0  0  0  0  0  0  0  0  0
    9.8083  -17.2861   24.7701 C   0  0  1  0  0  0  0  0  0  0  0  0
   10.1974  -18.6854   24.3506 C   0  0  0  0  0  0  0  0  0  0  0  0
   10.4877  -19.5670   25.5456 C   0  0  0  0  0  0  0  0  0  0  0  0
   10.9319  -20.9290   25.1062 C   0  0  0  0  0  0  0  0  0  0  0  0
   11.2521  -21.7994   26.2797 C   0  0  0  0  0  0  0  0  0  0  0  0
   11.4760  -23.1480   25.7673 N   0  0  0  0  0  0  0  0  0  0  0  0
   10.8957  -16.7169   25.6069 C   0  0  0  0  0  0  0  0  0  0  0  0
   11.8174  -16.0519   25.0767 O   0  0  0  0  0  0  0  0  0  0  0  0
   10.9138  -16.9070   26.9769 O   0  0  0  0  0  0  0  0  0  0  0  0
  2  1  1  6
  2  7  1  0
  3  2  1  0
  4  5  1  0
  4  3  1  0
  5  9  1  0
  6  5  2  0
  7  8  2  0
 10  7  1  0
 10 11  1  0
 11 14  1  0
 11 12  1  1
 12 13  1  0
 14 15  2  0
 16 17  1  0
 16 14  1  0
 17 23  1  0
 17 18  1  6
 19 18  1  0
 20 19  1  0
 21 20  1  0
 21 22  1  0
 23 24  2  0
 23 25  1  0
M  END
$$$$
