ECK.pdb
     RDKit          3D

 25 24  0  0  1  0  0  0  0  0999 V2000
    8.3186  -12.8750   19.6423 N   0  0  0  0  0  0  0  0  0  0  0  0
    7.3618  -13.4671   20.5973 C   0  0  1  0  0  0  0  0  0  0  0  0
    6.7094  -14.6750   20.0105 C   0  0  0  0  0  0  0  0  0  0  0  0
    7.5392  -15.4718   19.0657 C   0  0  0  0  0  0  0  0  0  0  0  0
    7.2681  -16.9224   19.2274 C   0  0  0  0  0  0  0  0  0  0  0  0
    6.3243  -17.2937   19.9573 O   0  0  0  0  0  0  0  0  0  0  0  0
    8.0425  -13.6981   21.8800 C   0  0  0  0  0  0  0  0  0  0  0  0
    9.2683  -13.9644   21.8735 O   0  0  0  0  0  0  0  0  0  0  0  0
    8.0336  -17.8788   18.5907 O   0  0  0  0  0  0  0  0  0  0  0  0
    7.4091  -13.6415   23.1403 N   0  0  0  0  0  0  0  0  0  0  0  0
    8.1494  -13.8370   24.3400 C   0  0  1  0  0  0  0  0  0  0  0  0
    7.5548  -13.1441   25.5405 C   0  0  0  0  0  0  0  0  0  0  0  0
    5.7765  -13.2586   25.6311 S   0  0  0  0  0  0  0  0  0  0  0  0
    8.3648  -15.2999   24.6152 C   0  0  0  0  0  0  0  0  0  0  0  0
    7.5015  -16.1626   24.2873 O   0  0  0  0  0  0  0  0  0  0  0  0
    9.5361  -15.7764   25.2499 N   0  0  0  0  0  0  0  0  0  0  0  0
    9.8001  -17.1933   25.4149 C   0  0  1  0  0  0  0  0  0  0  0  0
   11.0592  -17.5481   24.6573 C   0  0  0  0  0  0  0  0  0  0  0  0
   11.4713  -18.9839   24.8988 C   0  0  0  0  0  0  0  0  0  0  0  0
   12.7590  -19.2928   24.1974 C   0  0  0  0  0  0  0  0  0  0  0  0
   13.1767  -20.7099   24.4306 C   0  0  0  0  0  0  0  0  0  0  0  0
   14.3927  -20.9338   23.6543 N   0  0  0  0  0  0  0  0  0  0  0  0
   10.0024  -17.5047   26.8533 C   0  0  0  0  0  0  0  0  0  0  0  0
   10.1592  -16.5778   27.6834 O   0  0  0  0  0  0  0  0  0  0  0  0
   10.0219  -18.8127   27.3028 O   0  0  0  0  0  0  0  0  0  0  0  0
  2  1  1  6
  2  7  1  0
  3  2  1  0
  4  5  1  0
  4  3  1  0
  5  9  1  0
  6  5  2  0
  7  8  2  0
 10  7  1  0
 10 11  1  0
 11 14  1  0
 11 12  1  1
 12 13  1  0
 14 15  2  0
 16 17  1  0
 16 14  1  0
 17 23  1  0
 17 18  1  6
 19 18  1  0
 20 19  1  0
 21 20  1  0
 21 22  1  0
 23 24  2  0
 23 25  1  0
M  END
$$$$
