ECK.pdb
     RDKit          3D

 25 24  0  0  1  0  0  0  0  0999 V2000
    8.2034  -16.7220   17.5212 N   0  0  0  0  0  0  0  0  0  0  0  0
    8.0451  -17.3685   18.8384 C   0  0  1  0  0  0  0  0  0  0  0  0
    8.3118  -18.8343   18.7425 C   0  0  0  0  0  0  0  0  0  0  0  0
    9.6896  -19.2224   18.3337 C   0  0  0  0  0  0  0  0  0  0  0  0
    9.7991  -20.6967   18.1992 C   0  0  0  0  0  0  0  0  0  0  0  0
    8.8060  -21.4123   18.4503 O   0  0  0  0  0  0  0  0  0  0  0  0
    8.8699  -16.6570   19.8261 C   0  0  0  0  0  0  0  0  0  0  0  0
    9.9400  -16.1235   19.4468 O   0  0  0  0  0  0  0  0  0  0  0  0
   10.9738  -21.3036   17.8022 O   0  0  0  0  0  0  0  0  0  0  0  0
    8.5424  -16.5270   21.1931 N   0  0  0  0  0  0  0  0  0  0  0  0
    9.3871  -15.8044   22.0818 C   0  0  1  0  0  0  0  0  0  0  0  0
    8.6422  -14.8756   23.0077 C   0  0  0  0  0  0  0  0  0  0  0  0
    7.0087  -15.4479   23.4413 S   0  0  0  0  0  0  0  0  0  0  0  0
   10.2832  -16.7314   22.8564 C   0  0  0  0  0  0  0  0  0  0  0  0
    9.9833  -17.9482   23.0199 O   0  0  0  0  0  0  0  0  0  0  0  0
   11.4960  -16.2883   23.4348 N   0  0  0  0  0  0  0  0  0  0  0  0
   12.4072  -17.1976   24.1037 C   0  0  1  0  0  0  0  0  0  0  0  0
   13.8245  -16.7198   23.8843 C   0  0  0  0  0  0  0  0  0  0  0  0
   14.8275  -17.5955   24.6031 C   0  0  0  0  0  0  0  0  0  0  0  0
   16.2267  -17.1289   24.3387 C   0  0  0  0  0  0  0  0  0  0  0  0
   17.2254  -17.9690   25.0695 C   0  0  0  0  0  0  0  0  0  0  0  0
   18.5507  -17.4767   24.7057 N   0  0  0  0  0  0  0  0  0  0  0  0
   12.1264  -17.2108   25.5625 C   0  0  0  0  0  0  0  0  0  0  0  0
   12.6739  -18.0625   26.3026 O   0  0  0  0  0  0  0  0  0  0  0  0
   11.2624  -16.2916   26.1297 O   0  0  0  0  0  0  0  0  0  0  0  0
  2  1  1  6
  2  7  1  0
  3  2  1  0
  4  5  1  0
  4  3  1  0
  5  9  1  0
  6  5  2  0
  7  8  2  0
 10  7  1  0
 10 11  1  0
 11 14  1  0
 11 12  1  1
 12 13  1  0
 14 15  2  0
 16 17  1  0
 16 14  1  0
 17 23  1  0
 17 18  1  1
 19 18  1  0
 20 19  1  0
 21 20  1  0
 21 22  1  0
 23 24  2  0
 23 25  1  0
M  END
$$$$
