ECK.pdb
     RDKit          3D

 25 24  0  0  1  0  0  0  0  0999 V2000
    8.1706  -17.5389   16.5477 N   0  0  0  0  0  0  0  0  0  0  0  0
    9.5443  -17.6370   17.0782 C   0  0  1  0  0  0  0  0  0  0  0  0
   10.5450  -17.5296   15.9754 C   0  0  0  0  0  0  0  0  0  0  0  0
   10.5424  -16.2510   15.2131 C   0  0  0  0  0  0  0  0  0  0  0  0
   11.6260  -16.2452   14.1984 C   0  0  0  0  0  0  0  0  0  0  0  0
   12.7998  -16.0064   14.5540 O   0  0  0  0  0  0  0  0  0  0  0  0
    9.7139  -16.6556   18.1599 C   0  0  0  0  0  0  0  0  0  0  0  0
   10.7939  -16.6411   18.7979 O   0  0  0  0  0  0  0  0  0  0  0  0
   11.3725  -16.4977   12.8650 O   0  0  0  0  0  0  0  0  0  0  0  0
    8.7356  -15.7120   18.5410 N   0  0  0  0  0  0  0  0  0  0  0  0
    8.9818  -14.7893   19.5963 C   0  0  1  0  0  0  0  0  0  0  0  0
    7.9630  -13.6806   19.6840 C   0  0  0  0  0  0  0  0  0  0  0  0
    7.8860  -12.6558   18.2253 S   0  0  0  0  0  0  0  0  0  0  0  0
    9.1225  -15.4961   20.9165 C   0  0  0  0  0  0  0  0  0  0  0  0
    8.1914  -16.2157   21.3773 O   0  0  0  0  0  0  0  0  0  0  0  0
   10.2959  -15.3898   21.6998 N   0  0  0  0  0  0  0  0  0  0  0  0
   10.5312  -16.2379   22.8529 C   0  0  1  0  0  0  0  0  0  0  0  0
   10.6999  -17.6653   22.3845 C   0  0  0  0  0  0  0  0  0  0  0  0
   11.0041  -18.5993   23.5354 C   0  0  0  0  0  0  0  0  0  0  0  0
   11.0891  -20.0181   23.0607 C   0  0  0  0  0  0  0  0  0  0  0  0
   11.2898  -20.9611   24.2043 C   0  0  0  0  0  0  0  0  0  0  0  0
   11.4855  -22.2916   23.6361 N   0  0  0  0  0  0  0  0  0  0  0  0
   11.7731  -15.8117   23.5478 C   0  0  0  0  0  0  0  0  0  0  0  0
   12.6593  -15.1796   22.9250 O   0  0  0  0  0  0  0  0  0  0  0  0
   11.9758  -16.1009   24.8853 O   0  0  0  0  0  0  0  0  0  0  0  0
  2  1  1  6
  2  7  1  0
  3  2  1  0
  4  5  1  0
  4  3  1  0
  5  9  1  0
  6  5  2  0
  7  8  2  0
 10  7  1  0
 10 11  1  0
 11 14  1  0
 11 12  1  1
 12 13  1  0
 14 15  2  0
 16 17  1  0
 16 14  1  0
 17 23  1  0
 17 18  1  6
 19 18  1  0
 20 19  1  0
 21 20  1  0
 21 22  1  0
 23 24  2  0
 23 25  1  0
M  END
$$$$
