ECK.pdb
     RDKit          3D

 25 24  0  0  1  0  0  0  0  0999 V2000
    9.6009  -16.6575   15.1107 N   0  0  0  0  0  0  0  0  0  0  0  0
    8.4394  -16.5043   16.0081 C   0  0  1  0  0  0  0  0  0  0  0  0
    7.5284  -17.6820   15.8981 C   0  0  0  0  0  0  0  0  0  0  0  0
    7.5391  -18.6262   17.0490 C   0  0  0  0  0  0  0  0  0  0  0  0
    6.6439  -19.7809   16.7862 C   0  0  0  0  0  0  0  0  0  0  0  0
    6.0406  -19.8548   15.6945 O   0  0  0  0  0  0  0  0  0  0  0  0
    8.9170  -16.2217   17.3698 C   0  0  0  0  0  0  0  0  0  0  0  0
   10.1367  -16.3671   17.6239 O   0  0  0  0  0  0  0  0  0  0  0  0
    6.4577  -20.7814   17.7190 O   0  0  0  0  0  0  0  0  0  0  0  0
    8.0915  -15.7915   18.4310 N   0  0  0  0  0  0  0  0  0  0  0  0
    8.6499  -15.4123   19.6841 C   0  0  1  0  0  0  0  0  0  0  0  0
    7.7868  -14.4568   20.4696 C   0  0  0  0  0  0  0  0  0  0  0  0
    6.2881  -15.1916   21.1002 S   0  0  0  0  0  0  0  0  0  0  0  0
    9.0059  -16.6182   20.5094 C   0  0  0  0  0  0  0  0  0  0  0  0
    8.3049  -17.6691   20.4708 O   0  0  0  0  0  0  0  0  0  0  0  0
   10.1348  -16.6334   21.3622 N   0  0  0  0  0  0  0  0  0  0  0  0
   10.4464  -17.7712   22.2064 C   0  0  1  0  0  0  0  0  0  0  0  0
   11.9474  -17.8753   22.3532 C   0  0  0  0  0  0  0  0  0  0  0  0
   12.6131  -18.2422   21.0449 C   0  0  0  0  0  0  0  0  0  0  0  0
   14.1006  -18.3202   21.2086 C   0  0  0  0  0  0  0  0  0  0  0  0
   14.7642  -18.7456   19.9374 C   0  0  0  0  0  0  0  0  0  0  0  0
   16.2054  -18.6814   20.1615 N   0  0  0  0  0  0  0  0  0  0  0  0
    9.8455  -17.5810   23.5516 C   0  0  0  0  0  0  0  0  0  0  0  0
    9.3818  -16.4638   23.8832 O   0  0  0  0  0  0  0  0  0  0  0  0
    9.7855  -18.6236   24.4587 O   0  0  0  0  0  0  0  0  0  0  0  0
  2  1  1  6
  2  7  1  0
  3  2  1  0
  4  5  1  0
  4  3  1  0
  5  9  1  0
  6  5  2  0
  7  8  2  0
 10  7  1  0
 10 11  1  0
 11 14  1  0
 11 12  1  1
 12 13  1  0
 14 15  2  0
 16 17  1  0
 16 14  1  0
 17 23  1  0
 17 18  1  1
 19 18  1  0
 20 19  1  0
 21 20  1  0
 21 22  1  0
 23 24  2  0
 23 25  1  0
M  END
$$$$
