KDC.pdb
     RDKit          3D

 24 23  0  0  1  0  0  0  0  0999 V2000
   19.2391  -12.0571  -15.7509 N   0  0  0  0  0  0  0  0  0  0  0  0
   19.9348  -11.0219  -16.4425 C   0  0  1  0  0  0  0  0  0  0  0  0
   19.5818  -10.8418  -17.8794 C   0  0  0  0  0  0  0  0  0  0  0  0
   19.8446  -12.0533  -18.6992 C   0  0  0  0  0  0  0  0  0  0  0  0
   19.4772  -11.9795  -20.1371 C   0  0  0  0  0  0  0  0  0  0  0  0
   19.8727  -13.2006  -20.9263 C   0  0  0  0  0  0  0  0  0  0  0  0
   19.5498  -12.9511  -22.3192 N   0  0  0  0  0  0  0  0  0  0  0  0
   19.8313   -9.7165  -15.7095 C   0  0  0  0  0  0  0  0  0  0  0  0
   18.7908   -9.4919  -15.0340 O   0  0  0  0  0  0  0  0  0  0  0  0
   20.8435   -8.7351  -15.7439 N   0  0  0  0  0  0  0  0  0  0  0  0
   20.7026   -7.4480  -15.0049 C   0  0  1  0  0  0  0  0  0  0  0  0
   21.9250   -7.2153  -14.1816 C   0  0  0  0  0  0  0  0  0  0  0  0
   21.8525   -5.9512  -13.4238 C   0  0  0  0  0  0  0  0  0  0  0  0
   22.6316   -4.9786  -13.7288 O   0  0  0  0  0  0  0  0  0  0  0  0
   20.4493   -6.4236  -16.0414 C   0  0  0  0  0  0  0  0  0  0  0  0
   21.2515   -6.2818  -17.0309 O   0  0  0  0  0  0  0  0  0  0  0  0
   20.9730   -5.7545  -12.3838 O   0  0  0  0  0  0  0  0  0  0  0  0
   19.3528   -5.5312  -16.0620 N   0  0  0  0  0  0  0  0  0  0  0  0
   19.1821   -4.5314  -17.0862 C   0  0  1  0  0  0  0  0  0  0  0  0
   17.7778   -4.4515  -17.6110 C   0  0  0  0  0  0  0  0  0  0  0  0
   17.6359   -3.2644  -18.9602 S   0  0  0  0  0  0  0  0  0  0  0  0
   19.5389   -3.2016  -16.5475 C   0  0  0  0  0  0  0  0  0  0  0  0
   19.7078   -3.0228  -15.1906 O   0  0  0  0  0  0  0  0  0  0  0  0
   19.6943   -2.2102  -17.3237 O   0  0  0  0  0  0  0  0  0  0  0  0
  2  1  1  1
  3  2  1  0
  4  3  1  0
  5  6  1  0
  5  4  1  0
  6  7  1  0
  8  2  1  0
  8  9  2  0
 10  8  1  0
 11 10  1  0
 11 12  1  6
 13 12  1  0
 13 17  1  0
 14 13  2  0
 15 11  1  0
 16 15  2  0
 18 15  1  0
 19 18  1  0
 19 20  1  1
 20 21  1  0
 22 23  1  0
 22 19  1  0
 24 22  2  0
M  END
$$$$
