KDC.pdb
     RDKit          3D

 24 23  0  0  1  0  0  0  0  0999 V2000
   18.0948  -11.7510  -17.9124 N   0  0  0  0  0  0  0  0  0  0  0  0
   17.2770  -11.0515  -16.9767 C   0  0  1  0  0  0  0  0  0  0  0  0
   16.9561  -11.7780  -15.7154 C   0  0  0  0  0  0  0  0  0  0  0  0
   15.9733  -12.8757  -15.9104 C   0  0  0  0  0  0  0  0  0  0  0  0
   15.3520  -13.4416  -14.6850 C   0  0  0  0  0  0  0  0  0  0  0  0
   14.2468  -14.4265  -14.9662 C   0  0  0  0  0  0  0  0  0  0  0  0
   13.8259  -14.9935  -13.6981 N   0  0  0  0  0  0  0  0  0  0  0  0
   17.8422   -9.6952  -16.6712 C   0  0  0  0  0  0  0  0  0  0  0  0
   18.9581   -9.3871  -17.1705 O   0  0  0  0  0  0  0  0  0  0  0  0
   17.1814   -8.7552  -15.8536 N   0  0  0  0  0  0  0  0  0  0  0  0
   17.6148   -7.3297  -15.8029 C   0  0  1  0  0  0  0  0  0  0  0  0
   16.4344   -6.4650  -15.5106 C   0  0  0  0  0  0  0  0  0  0  0  0
   15.4522   -6.4743  -16.6117 C   0  0  0  0  0  0  0  0  0  0  0  0
   15.7938   -6.0554  -17.7753 O   0  0  0  0  0  0  0  0  0  0  0  0
   18.6869   -7.2792  -14.7851 C   0  0  0  0  0  0  0  0  0  0  0  0
   18.5946   -7.9603  -13.7033 O   0  0  0  0  0  0  0  0  0  0  0  0
   14.1595   -6.9194  -16.4543 O   0  0  0  0  0  0  0  0  0  0  0  0
   19.8741   -6.5174  -14.8814 N   0  0  0  0  0  0  0  0  0  0  0  0
   20.9148   -6.5687  -13.8854 C   0  0  1  0  0  0  0  0  0  0  0  0
   21.8521   -7.7279  -14.0640 C   0  0  0  0  0  0  0  0  0  0  0  0
   23.1774   -7.7092  -12.8421 S   0  0  0  0  0  0  0  0  0  0  0  0
   21.7165   -5.3277  -13.9393 C   0  0  0  0  0  0  0  0  0  0  0  0
   22.4423   -4.9197  -12.8400 O   0  0  0  0  0  0  0  0  0  0  0  0
   21.7476   -4.6234  -14.9941 O   0  0  0  0  0  0  0  0  0  0  0  0
  2  1  1  1
  3  2  1  0
  4  3  1  0
  5  6  1  0
  5  4  1  0
  6  7  1  0
  8  2  1  0
  8  9  2  0
 10  8  1  0
 11 10  1  0
 11 12  1  1
 13 12  1  0
 13 17  1  0
 14 13  2  0
 15 11  1  0
 16 15  2  0
 18 15  1  0
 19 18  1  0
 19 20  1  6
 20 21  1  0
 22 23  1  0
 22 19  1  0
 24 22  2  0
M  END
$$$$
