KDC.pdb
     RDKit          3D

 24 23  0  0  1  0  0  0  0  0999 V2000
   18.9869  -13.3801  -17.3140 N   0  0  0  0  0  0  0  0  0  0  0  0
   20.1289  -12.5431  -17.1428 C   0  0  1  0  0  0  0  0  0  0  0  0
   21.3076  -12.8599  -17.9984 C   0  0  0  0  0  0  0  0  0  0  0  0
   21.1734  -14.1535  -18.7177 C   0  0  0  0  0  0  0  0  0  0  0  0
   21.6590  -15.3657  -18.0087 C   0  0  0  0  0  0  0  0  0  0  0  0
   21.5684  -16.6250  -18.8311 C   0  0  0  0  0  0  0  0  0  0  0  0
   22.0877  -17.7166  -18.0278 N   0  0  0  0  0  0  0  0  0  0  0  0
   19.7622  -11.0935  -17.2713 C   0  0  0  0  0  0  0  0  0  0  0  0
   18.9177  -10.7668  -18.1485 O   0  0  0  0  0  0  0  0  0  0  0  0
   20.3193  -10.0863  -16.4565 N   0  0  0  0  0  0  0  0  0  0  0  0
   19.8894   -8.6639  -16.5770 C   0  0  1  0  0  0  0  0  0  0  0  0
   18.4388   -8.5568  -16.2443 C   0  0  0  0  0  0  0  0  0  0  0  0
   17.9772   -7.1556  -16.2143 C   0  0  0  0  0  0  0  0  0  0  0  0
   18.1246   -6.4127  -17.2498 O   0  0  0  0  0  0  0  0  0  0  0  0
   20.7881   -7.9029  -15.6819 C   0  0  0  0  0  0  0  0  0  0  0  0
   20.9375   -8.2487  -14.4568 O   0  0  0  0  0  0  0  0  0  0  0  0
   17.3825   -6.5899  -15.1097 O   0  0  0  0  0  0  0  0  0  0  0  0
   21.5468   -6.7688  -16.0525 N   0  0  0  0  0  0  0  0  0  0  0  0
   22.4548   -6.1101  -15.1472 C   0  0  1  0  0  0  0  0  0  0  0  0
   23.5985   -5.4300  -15.8425 C   0  0  0  0  0  0  0  0  0  0  0  0
   24.5469   -6.5835  -16.8523 S   0  0  0  0  0  0  0  0  0  0  0  0
   21.7259   -5.0857  -14.3695 C   0  0  0  0  0  0  0  0  0  0  0  0
   22.3316   -4.4635  -13.2983 O   0  0  0  0  0  0  0  0  0  0  0  0
   20.5371   -4.7658  -14.6761 O   0  0  0  0  0  0  0  0  0  0  0  0
  2  1  1  6
  3  2  1  0
  4  3  1  0
  5  6  1  0
  5  4  1  0
  6  7  1  0
  8  2  1  0
  8  9  2  0
 10  8  1  0
 11 10  1  0
 11 12  1  1
 13 12  1  0
 13 17  1  0
 14 13  2  0
 15 11  1  0
 16 15  2  0
 18 15  1  0
 19 18  1  0
 19 20  1  6
 20 21  1  0
 22 23  1  0
 22 19  1  0
 24 22  2  0
M  END
$$$$
