KDC.pdb
     RDKit          3D

 24 23  0  0  1  0  0  0  0  0999 V2000
   26.0378  -32.5104  -10.1365 N   0  0  0  0  0  0  0  0  0  0  0  0
   24.8194  -32.9600   -9.5473 C   0  0  1  0  0  0  0  0  0  0  0  0
   23.9948  -33.8867  -10.3738 C   0  0  0  0  0  0  0  0  0  0  0  0
   23.2104  -33.1871  -11.4245 C   0  0  0  0  0  0  0  0  0  0  0  0
   22.6840  -31.8409  -11.0801 C   0  0  0  0  0  0  0  0  0  0  0  0
   21.4557  -31.4530  -11.8620 C   0  0  0  0  0  0  0  0  0  0  0  0
   21.6510  -31.8825  -13.2347 N   0  0  0  0  0  0  0  0  0  0  0  0
   25.0593  -33.5442   -8.1859 C   0  0  0  0  0  0  0  0  0  0  0  0
   24.3409  -34.5121   -7.8166 O   0  0  0  0  0  0  0  0  0  0  0  0
   26.0493  -33.0591   -7.3065 N   0  0  0  0  0  0  0  0  0  0  0  0
   26.2964  -33.7023   -5.9846 C   0  0  1  0  0  0  0  0  0  0  0  0
   27.5592  -33.1624   -5.4013 C   0  0  0  0  0  0  0  0  0  0  0  0
   27.8685  -33.7654   -4.0905 C   0  0  0  0  0  0  0  0  0  0  0  0
   28.0000  -33.0154   -3.0580 O   0  0  0  0  0  0  0  0  0  0  0  0
   25.0813  -33.4377   -5.1837 C   0  0  0  0  0  0  0  0  0  0  0  0
   24.6186  -32.2477   -5.0705 O   0  0  0  0  0  0  0  0  0  0  0  0
   28.0262  -35.1208   -3.9118 O   0  0  0  0  0  0  0  0  0  0  0  0
   24.3284  -34.4122   -4.4891 N   0  0  0  0  0  0  0  0  0  0  0  0
   23.1604  -34.0843   -3.7107 C   0  0  1  0  0  0  0  0  0  0  0  0
   21.8942  -34.6743   -4.2610 C   0  0  0  0  0  0  0  0  0  0  0  0
   22.0735  -36.4342   -4.6079 S   0  0  0  0  0  0  0  0  0  0  0  0
   23.3274  -34.5829   -2.3290 C   0  0  0  0  0  0  0  0  0  0  0  0
   22.4134  -34.2470   -1.3526 O   0  0  0  0  0  0  0  0  0  0  0  0
   24.3106  -35.3244   -2.0237 O   0  0  0  0  0  0  0  0  0  0  0  0
  2  1  1  6
  3  2  1  0
  4  3  1  0
  5  6  1  0
  5  4  1  0
  6  7  1  0
  8  2  1  0
  8  9  2  0
 10  8  1  0
 11 10  1  0
 11 12  1  1
 13 12  1  0
 13 17  1  0
 14 13  2  0
 15 11  1  0
 16 15  2  0
 18 15  1  0
 19 18  1  0
 19 20  1  6
 20 21  1  0
 22 23  1  0
 22 19  1  0
 24 22  2  0
M  END
$$$$
