KDC.pdb
     RDKit          3D

 24 23  0  0  1  0  0  0  0  0999 V2000
   12.9055  -12.0640  -10.1264 N   0  0  0  0  0  0  0  0  0  0  0  0
   14.2266  -11.5315  -10.1968 C   0  0  1  0  0  0  0  0  0  0  0  0
   15.0805  -12.0416  -11.3069 C   0  0  0  0  0  0  0  0  0  0  0  0
   15.4455  -13.4736  -11.1490 C   0  0  0  0  0  0  0  0  0  0  0  0
   14.3686  -14.4682  -11.3917 C   0  0  0  0  0  0  0  0  0  0  0  0
   14.8257  -15.8984  -11.2646 C   0  0  0  0  0  0  0  0  0  0  0  0
   13.7037  -16.7537  -11.6058 N   0  0  0  0  0  0  0  0  0  0  0  0
   14.2063  -10.0308  -10.1980 C   0  0  0  0  0  0  0  0  0  0  0  0
   13.3171   -9.4463  -10.8739 O   0  0  0  0  0  0  0  0  0  0  0  0
   15.1350   -9.2506   -9.4786 N   0  0  0  0  0  0  0  0  0  0  0  0
   15.0944   -7.7609   -9.5196 C   0  0  1  0  0  0  0  0  0  0  0  0
   15.1543   -7.2270   -8.1276 C   0  0  0  0  0  0  0  0  0  0  0  0
   15.1879   -5.7521   -8.0988 C   0  0  0  0  0  0  0  0  0  0  0  0
   14.8457   -5.0854   -9.1401 O   0  0  0  0  0  0  0  0  0  0  0  0
   16.2235   -7.3591  -10.3864 C   0  0  0  0  0  0  0  0  0  0  0  0
   17.3288   -8.0077  -10.3637 O   0  0  0  0  0  0  0  0  0  0  0  0
   15.5749   -5.0365   -6.9888 O   0  0  0  0  0  0  0  0  0  0  0  0
   16.2161   -6.2738  -11.2926 N   0  0  0  0  0  0  0  0  0  0  0  0
   17.2845   -6.0356  -12.2305 C   0  0  1  0  0  0  0  0  0  0  0  0
   17.3856   -7.0880  -13.2964 C   0  0  0  0  0  0  0  0  0  0  0  0
   18.6411   -6.6772  -14.5231 S   0  0  0  0  0  0  0  0  0  0  0  0
   17.0777   -4.7337  -12.8998 C   0  0  0  0  0  0  0  0  0  0  0  0
   18.1408   -4.0709  -13.4761 O   0  0  0  0  0  0  0  0  0  0  0  0
   15.9233   -4.2102  -12.9530 O   0  0  0  0  0  0  0  0  0  0  0  0
  2  1  1  6
  3  2  1  0
  4  3  1  0
  5  6  1  0
  5  4  1  0
  6  7  1  0
  8  2  1  0
  8  9  2  0
 10  8  1  0
 11 10  1  0
 11 12  1  1
 13 12  1  0
 13 17  1  0
 14 13  2  0
 15 11  1  0
 16 15  2  0
 18 15  1  0
 19 18  1  0
 19 20  1  6
 20 21  1  0
 22 23  1  0
 22 19  1  0
 24 22  2  0
M  END
$$$$
