KDC.pdb
     RDKit          3D

 24 23  0  0  1  0  0  0  0  0999 V2000
   18.4274  -11.9683  -15.4874 N   0  0  0  0  0  0  0  0  0  0  0  0
   19.3889  -11.9876  -16.5404 C   0  0  1  0  0  0  0  0  0  0  0  0
   19.1451  -12.9725  -17.6324 C   0  0  0  0  0  0  0  0  0  0  0  0
   18.4455  -14.1976  -17.1651 C   0  0  0  0  0  0  0  0  0  0  0  0
   19.2841  -15.2405  -16.5192 C   0  0  0  0  0  0  0  0  0  0  0  0
   18.5098  -16.4602  -16.0910 C   0  0  0  0  0  0  0  0  0  0  0  0
   19.4507  -17.4000  -15.5094 N   0  0  0  0  0  0  0  0  0  0  0  0
   19.5967  -10.6146  -17.1094 C   0  0  0  0  0  0  0  0  0  0  0  0
   20.4001  -10.4825  -18.0720 O   0  0  0  0  0  0  0  0  0  0  0  0
   18.9346   -9.4714  -16.6158 N   0  0  0  0  0  0  0  0  0  0  0  0
   19.2580   -8.1073  -17.1228 C   0  0  1  0  0  0  0  0  0  0  0  0
   18.0954   -7.5793  -17.8949 C   0  0  0  0  0  0  0  0  0  0  0  0
   18.3106   -6.1901  -18.3434 C   0  0  0  0  0  0  0  0  0  0  0  0
   17.5912   -5.2445  -17.8595 O   0  0  0  0  0  0  0  0  0  0  0  0
   19.6173   -7.3163  -15.9257 C   0  0  0  0  0  0  0  0  0  0  0  0
   18.8977   -7.3691  -14.8664 O   0  0  0  0  0  0  0  0  0  0  0  0
   19.2645   -5.8461  -19.2738 O   0  0  0  0  0  0  0  0  0  0  0  0
   20.7355   -6.4581  -15.8150 N   0  0  0  0  0  0  0  0  0  0  0  0
   21.0502   -5.7420  -14.6042 C   0  0  1  0  0  0  0  0  0  0  0  0
   22.4208   -6.0467  -14.0724 C   0  0  0  0  0  0  0  0  0  0  0  0
   22.8071   -5.0565  -12.6163 S   0  0  0  0  0  0  0  0  0  0  0  0
   20.9760   -4.2867  -14.8534 C   0  0  0  0  0  0  0  0  0  0  0  0
   20.8449   -3.4060  -13.8004 O   0  0  0  0  0  0  0  0  0  0  0  0
   21.0319   -3.8296  -16.0356 O   0  0  0  0  0  0  0  0  0  0  0  0
  2  1  1  1
  3  2  1  0
  4  3  1  0
  5  6  1  0
  5  4  1  0
  6  7  1  0
  8  2  1  0
  8  9  2  0
 10  8  1  0
 11 10  1  0
 11 12  1  1
 13 12  1  0
 13 17  1  0
 14 13  2  0
 15 11  1  0
 16 15  2  0
 18 15  1  0
 19 18  1  0
 19 20  1  6
 20 21  1  0
 22 23  1  0
 22 19  1  0
 24 22  2  0
M  END
$$$$
