KDC.pdb
     RDKit          3D

 24 23  0  0  1  0  0  0  0  0999 V2000
   16.2545  -10.7982  -17.6317 N   0  0  0  0  0  0  0  0  0  0  0  0
   16.9524  -10.4918  -16.4264 C   0  0  1  0  0  0  0  0  0  0  0  0
   18.1396  -11.3403  -16.1228 C   0  0  0  0  0  0  0  0  0  0  0  0
   17.8410  -12.7955  -16.1667 C   0  0  0  0  0  0  0  0  0  0  0  0
   18.9288  -13.7139  -15.7410 C   0  0  0  0  0  0  0  0  0  0  0  0
   18.5373  -15.1687  -15.7661 C   0  0  0  0  0  0  0  0  0  0  0  0
   19.7175  -15.9503  -15.4451 N   0  0  0  0  0  0  0  0  0  0  0  0
   17.3183   -9.0375  -16.3670 C   0  0  0  0  0  0  0  0  0  0  0  0
   17.6840   -8.4700  -17.4317 O   0  0  0  0  0  0  0  0  0  0  0  0
   17.2706   -8.2825  -15.1769 N   0  0  0  0  0  0  0  0  0  0  0  0
   17.6553   -6.8424  -15.1550 C   0  0  1  0  0  0  0  0  0  0  0  0
   16.5365   -6.0414  -14.5778 C   0  0  0  0  0  0  0  0  0  0  0  0
   15.3623   -6.0025  -15.4706 C   0  0  0  0  0  0  0  0  0  0  0  0
   15.5031   -5.6472  -16.6954 O   0  0  0  0  0  0  0  0  0  0  0  0
   18.9192   -6.7831  -14.3889 C   0  0  0  0  0  0  0  0  0  0  0  0
   19.0164   -7.3480  -13.2425 O   0  0  0  0  0  0  0  0  0  0  0  0
   14.0948   -6.3356  -15.0507 O   0  0  0  0  0  0  0  0  0  0  0  0
   20.1031   -6.1340  -14.8085 N   0  0  0  0  0  0  0  0  0  0  0  0
   21.3321   -6.1948  -14.0578 C   0  0  1  0  0  0  0  0  0  0  0  0
   22.3866   -7.0407  -14.7110 C   0  0  0  0  0  0  0  0  0  0  0  0
   22.0335   -8.7999  -14.5371 S   0  0  0  0  0  0  0  0  0  0  0  0
   21.8832   -4.8327  -13.8947 C   0  0  0  0  0  0  0  0  0  0  0  0
   22.8585   -4.5849  -12.9519 O   0  0  0  0  0  0  0  0  0  0  0  0
   21.4678   -3.8764  -14.6175 O   0  0  0  0  0  0  0  0  0  0  0  0
  2  1  1  6
  3  2  1  0
  4  3  1  0
  5  6  1  0
  5  4  1  0
  6  7  1  0
  8  2  1  0
  8  9  2  0
 10  8  1  0
 11 10  1  0
 11 12  1  1
 13 12  1  0
 13 17  1  0
 14 13  2  0
 15 11  1  0
 16 15  2  0
 18 15  1  0
 19 18  1  0
 19 20  1  6
 20 21  1  0
 22 23  1  0
 22 19  1  0
 24 22  2  0
M  END
$$$$
