KDC.pdb
     RDKit          3D

 24 23  0  0  1  0  0  0  0  0999 V2000
   17.4579  -13.4555  -15.0155 N   0  0  0  0  0  0  0  0  0  0  0  0
   17.4408  -12.3454  -15.9105 C   0  0  1  0  0  0  0  0  0  0  0  0
   16.1384  -12.0615  -16.5776 C   0  0  0  0  0  0  0  0  0  0  0  0
   15.3276  -13.2842  -16.8145 C   0  0  0  0  0  0  0  0  0  0  0  0
   15.1813  -13.7258  -18.2258 C   0  0  0  0  0  0  0  0  0  0  0  0
   14.2435  -14.8921  -18.4010 C   0  0  0  0  0  0  0  0  0  0  0  0
   14.1730  -15.1942  -19.8189 N   0  0  0  0  0  0  0  0  0  0  0  0
   17.9716  -11.1076  -15.2484 C   0  0  0  0  0  0  0  0  0  0  0  0
   17.7026  -10.9195  -14.0312 O   0  0  0  0  0  0  0  0  0  0  0  0
   18.7546  -10.1506  -15.9266 N   0  0  0  0  0  0  0  0  0  0  0  0
   19.3311   -8.9740  -15.2153 C   0  0  1  0  0  0  0  0  0  0  0  0
   20.8061   -8.9370  -15.4377 C   0  0  0  0  0  0  0  0  0  0  0  0
   21.4268   -7.7340  -14.8503 C   0  0  0  0  0  0  0  0  0  0  0  0
   22.0424   -6.8998  -15.6058 O   0  0  0  0  0  0  0  0  0  0  0  0
   18.5965   -7.8001  -15.7349 C   0  0  0  0  0  0  0  0  0  0  0  0
   18.4609   -7.6190  -16.9965 O   0  0  0  0  0  0  0  0  0  0  0  0
   21.3788   -7.4519  -13.5041 O   0  0  0  0  0  0  0  0  0  0  0  0
   17.9899   -6.7965  -14.9449 N   0  0  0  0  0  0  0  0  0  0  0  0
   17.3239   -5.6528  -15.5160 C   0  0  1  0  0  0  0  0  0  0  0  0
   16.1446   -5.1884  -14.7113 C   0  0  0  0  0  0  0  0  0  0  0  0
   14.9775   -6.5274  -14.4036 S   0  0  0  0  0  0  0  0  0  0  0  0
   18.2732   -4.5241  -15.6182 C   0  0  0  0  0  0  0  0  0  0  0  0
   17.8774   -3.3309  -16.1849 O   0  0  0  0  0  0  0  0  0  0  0  0
   19.4611   -4.6374  -15.1873 O   0  0  0  0  0  0  0  0  0  0  0  0
  2  1  1  1
  3  2  1  0
  4  3  1  0
  5  6  1  0
  5  4  1  0
  6  7  1  0
  8  2  1  0
  8  9  2  0
 10  8  1  0
 11 10  1  0
 11 12  1  6
 13 12  1  0
 13 17  1  0
 14 13  2  0
 15 11  1  0
 16 15  2  0
 18 15  1  0
 19 18  1  0
 19 20  1  1
 20 21  1  0
 22 23  1  0
 22 19  1  0
 24 22  2  0
M  END
$$$$
