KDC.pdb
     RDKit          3D

 24 23  0  0  1  0  0  0  0  0999 V2000
   17.5424  -12.0632  -18.3670 N   0  0  0  0  0  0  0  0  0  0  0  0
   17.4967  -11.4038  -17.1033 C   0  0  1  0  0  0  0  0  0  0  0  0
   17.8405  -12.2374  -15.9164 C   0  0  0  0  0  0  0  0  0  0  0  0
   16.8164  -13.2714  -15.6154 C   0  0  0  0  0  0  0  0  0  0  0  0
   17.0833  -14.6430  -16.1207 C   0  0  0  0  0  0  0  0  0  0  0  0
   15.9768  -15.6225  -15.8262 C   0  0  0  0  0  0  0  0  0  0  0  0
   16.2656  -16.8472  -16.5498 N   0  0  0  0  0  0  0  0  0  0  0  0
   18.3179  -10.1478  -17.1176 C   0  0  0  0  0  0  0  0  0  0  0  0
   19.5337  -10.2331  -17.4399 O   0  0  0  0  0  0  0  0  0  0  0  0
   17.7901   -8.8824  -16.7876 N   0  0  0  0  0  0  0  0  0  0  0  0
   18.6087   -7.6428  -16.9135 C   0  0  1  0  0  0  0  0  0  0  0  0
   17.7414   -6.5245  -17.3864 C   0  0  0  0  0  0  0  0  0  0  0  0
   18.4722   -5.2444  -17.4537 C   0  0  0  0  0  0  0  0  0  0  0  0
   18.6274   -4.5414  -16.3917 O   0  0  0  0  0  0  0  0  0  0  0  0
   19.2169   -7.4345  -15.5814 C   0  0  0  0  0  0  0  0  0  0  0  0
   18.5085   -7.5268  -14.5172 O   0  0  0  0  0  0  0  0  0  0  0  0
   19.0095   -4.7528  -18.6214 O   0  0  0  0  0  0  0  0  0  0  0  0
   20.5756   -7.1278  -15.3389 N   0  0  0  0  0  0  0  0  0  0  0  0
   21.1044   -6.9309  -14.0125 C   0  0  1  0  0  0  0  0  0  0  0  0
   22.0423   -8.0200  -13.5786 C   0  0  0  0  0  0  0  0  0  0  0  0
   22.6019   -7.7822  -11.8815 S   0  0  0  0  0  0  0  0  0  0  0  0
   21.8421   -5.6510  -13.9560 C   0  0  0  0  0  0  0  0  0  0  0  0
   22.0348   -5.0114  -12.7496 O   0  0  0  0  0  0  0  0  0  0  0  0
   22.3065   -5.1253  -15.0131 O   0  0  0  0  0  0  0  0  0  0  0  0
  2  1  1  6
  3  2  1  0
  4  3  1  0
  5  6  1  0
  5  4  1  0
  6  7  1  0
  8  2  1  0
  8  9  2  0
 10  8  1  0
 11 10  1  0
 11 12  1  1
 13 12  1  0
 13 17  1  0
 14 13  2  0
 15 11  1  0
 16 15  2  0
 18 15  1  0
 19 18  1  0
 19 20  1  6
 20 21  1  0
 22 23  1  0
 22 19  1  0
 24 22  2  0
M  END
$$$$
