KDC.pdb
     RDKit          3D

 24 23  0  0  1  0  0  0  0  0999 V2000
   20.5235  -22.4395  -14.3457 N   0  0  0  0  0  0  0  0  0  0  0  0
   21.1170  -21.3653  -13.6193 C   0  0  1  0  0  0  0  0  0  0  0  0
   22.6039  -21.3862  -13.5168 C   0  0  0  0  0  0  0  0  0  0  0  0
   23.2732  -21.6399  -14.8193 C   0  0  0  0  0  0  0  0  0  0  0  0
   24.7502  -21.7997  -14.7914 C   0  0  0  0  0  0  0  0  0  0  0  0
   25.3662  -21.9722  -16.1556 C   0  0  0  0  0  0  0  0  0  0  0  0
   26.7948  -22.1562  -15.9762 N   0  0  0  0  0  0  0  0  0  0  0  0
   20.6456  -20.0371  -14.1350 C   0  0  0  0  0  0  0  0  0  0  0  0
   20.2897  -19.9574  -15.3418 O   0  0  0  0  0  0  0  0  0  0  0  0
   20.5839  -18.8801  -13.3310 N   0  0  0  0  0  0  0  0  0  0  0  0
   19.9839  -17.6132  -13.8382 C   0  0  1  0  0  0  0  0  0  0  0  0
   19.1834  -16.9766  -12.7517 C   0  0  0  0  0  0  0  0  0  0  0  0
   17.8372  -17.5690  -12.6329 C   0  0  0  0  0  0  0  0  0  0  0  0
   17.6100  -18.4640  -11.7421 O   0  0  0  0  0  0  0  0  0  0  0  0
   21.1227  -16.8040  -14.3241 C   0  0  0  0  0  0  0  0  0  0  0  0
   22.2076  -16.7276  -13.6459 O   0  0  0  0  0  0  0  0  0  0  0  0
   16.7875  -17.2040  -13.4446 O   0  0  0  0  0  0  0  0  0  0  0  0
   21.1475  -16.0624  -15.5277 N   0  0  0  0  0  0  0  0  0  0  0  0
   22.3075  -15.3268  -15.9648 C   0  0  1  0  0  0  0  0  0  0  0  0
   23.0683  -16.0134  -17.0621 C   0  0  0  0  0  0  0  0  0  0  0  0
   21.9877  -16.4987  -18.4209 S   0  0  0  0  0  0  0  0  0  0  0  0
   21.8946  -13.9982  -16.4649 C   0  0  0  0  0  0  0  0  0  0  0  0
   22.8389  -13.0257  -16.7184 O   0  0  0  0  0  0  0  0  0  0  0  0
   20.6700  -13.7356  -16.6672 O   0  0  0  0  0  0  0  0  0  0  0  0
  2  1  1  6
  3  2  1  0
  4  3  1  0
  5  6  1  0
  5  4  1  0
  6  7  1  0
  8  2  1  0
  8  9  2  0
 10  8  1  0
 11 10  1  0
 11 12  1  1
 13 12  1  0
 13 17  1  0
 14 13  2  0
 15 11  1  0
 16 15  2  0
 18 15  1  0
 19 18  1  0
 19 20  1  6
 20 21  1  0
 22 23  1  0
 22 19  1  0
 24 22  2  0
M  END
$$$$
