KDC.pdb
     RDKit          3D

 24 23  0  0  1  0  0  0  0  0999 V2000
   23.5396  -12.2843  -16.9933 N   0  0  0  0  0  0  0  0  0  0  0  0
   23.9714  -11.1464  -16.2500 C   0  0  1  0  0  0  0  0  0  0  0  0
   25.2792  -10.5569  -16.6549 C   0  0  0  0  0  0  0  0  0  0  0  0
   26.3591  -11.5699  -16.7827 C   0  0  0  0  0  0  0  0  0  0  0  0
   27.2514  -11.7471  -15.6078 C   0  0  0  0  0  0  0  0  0  0  0  0
   28.3251  -12.7840  -15.8141 C   0  0  0  0  0  0  0  0  0  0  0  0
   28.9693  -12.5072  -17.0850 N   0  0  0  0  0  0  0  0  0  0  0  0
   22.9081  -10.0880  -16.2132 C   0  0  0  0  0  0  0  0  0  0  0  0
   22.5487   -9.5647  -17.3024 O   0  0  0  0  0  0  0  0  0  0  0  0
   22.2967   -9.6561  -15.0181 N   0  0  0  0  0  0  0  0  0  0  0  0
   21.1905   -8.6567  -15.0289 C   0  0  1  0  0  0  0  0  0  0  0  0
   20.3653   -8.8205  -13.7965 C   0  0  0  0  0  0  0  0  0  0  0  0
   19.5664  -10.0608  -13.8232 C   0  0  0  0  0  0  0  0  0  0  0  0
   19.3962  -10.7338  -12.7443 O   0  0  0  0  0  0  0  0  0  0  0  0
   21.8500   -7.3395  -15.1624 C   0  0  0  0  0  0  0  0  0  0  0  0
   22.9689   -7.1062  -14.5822 O   0  0  0  0  0  0  0  0  0  0  0  0
   18.9795  -10.5453  -14.9698 O   0  0  0  0  0  0  0  0  0  0  0  0
   21.3523   -6.2446  -15.9056 N   0  0  0  0  0  0  0  0  0  0  0  0
   22.0731   -5.0036  -16.0409 C   0  0  1  0  0  0  0  0  0  0  0  0
   21.8192   -4.3079  -17.3469 C   0  0  0  0  0  0  0  0  0  0  0  0
   22.6343   -2.7016  -17.4170 S   0  0  0  0  0  0  0  0  0  0  0  0
   21.6825   -4.0805  -14.9543 C   0  0  0  0  0  0  0  0  0  0  0  0
   22.4348   -2.9546  -14.6935 O   0  0  0  0  0  0  0  0  0  0  0  0
   20.6531   -4.3106  -14.2493 O   0  0  0  0  0  0  0  0  0  0  0  0
  2  1  1  6
  3  2  1  0
  4  3  1  0
  5  6  1  0
  5  4  1  0
  6  7  1  0
  8  2  1  0
  8  9  2  0
 10  8  1  0
 11 10  1  0
 11 12  1  1
 13 12  1  0
 13 17  1  0
 14 13  2  0
 15 11  1  0
 16 15  2  0
 18 15  1  0
 19 18  1  0
 19 20  1  6
 20 21  1  0
 22 23  1  0
 22 19  1  0
 24 22  2  0
M  END
$$$$
