KDC.pdb
     RDKit          3D

 24 23  0  0  1  0  0  0  0  0999 V2000
   16.0861  -13.0810  -13.4398 N   0  0  0  0  0  0  0  0  0  0  0  0
   15.4262  -11.8702  -13.8036 C   0  0  1  0  0  0  0  0  0  0  0  0
   13.9565  -11.8260  -13.5593 C   0  0  0  0  0  0  0  0  0  0  0  0
   13.5807  -12.2691  -12.1914 C   0  0  0  0  0  0  0  0  0  0  0  0
   12.1286  -12.3139  -11.8790 C   0  0  0  0  0  0  0  0  0  0  0  0
   11.8239  -12.8000  -10.4857 C   0  0  0  0  0  0  0  0  0  0  0  0
   10.3823  -12.9154  -10.3626 N   0  0  0  0  0  0  0  0  0  0  0  0
   16.0971  -10.6800  -13.1826 C   0  0  0  0  0  0  0  0  0  0  0  0
   16.6531  -10.8261  -12.0606 O   0  0  0  0  0  0  0  0  0  0  0  0
   16.1318   -9.4114  -13.7976 N   0  0  0  0  0  0  0  0  0  0  0  0
   16.9486   -8.2981  -13.2356 C   0  0  1  0  0  0  0  0  0  0  0  0
   17.2087   -7.2890  -14.3035 C   0  0  0  0  0  0  0  0  0  0  0  0
   18.0334   -6.1658  -13.8181 C   0  0  0  0  0  0  0  0  0  0  0  0
   18.9953   -6.3878  -12.9985 O   0  0  0  0  0  0  0  0  0  0  0  0
   16.1806   -7.7909  -12.0777 C   0  0  0  0  0  0  0  0  0  0  0  0
   14.9069   -7.6633  -12.1426 O   0  0  0  0  0  0  0  0  0  0  0  0
   17.8220   -4.8628  -14.2069 O   0  0  0  0  0  0  0  0  0  0  0  0
   16.7305   -7.4101  -10.8320 N   0  0  0  0  0  0  0  0  0  0  0  0
   15.9234   -6.9271   -9.7398 C   0  0  1  0  0  0  0  0  0  0  0  0
   16.5559   -7.1375   -8.3946 C   0  0  0  0  0  0  0  0  0  0  0  0
   15.4456   -6.6681   -7.0542 S   0  0  0  0  0  0  0  0  0  0  0  0
   15.6815   -5.4778   -9.9031 C   0  0  0  0  0  0  0  0  0  0  0  0
   16.4602   -4.7350  -10.7654 O   0  0  0  0  0  0  0  0  0  0  0  0
   14.7571   -4.8995   -9.2545 O   0  0  0  0  0  0  0  0  0  0  0  0
  2  1  1  1
  3  2  1  0
  4  3  1  0
  5  6  1  0
  5  4  1  0
  6  7  1  0
  8  2  1  0
  8  9  2  0
 10  8  1  0
 11 10  1  0
 11 12  1  6
 13 12  1  0
 13 17  1  0
 14 13  2  0
 15 11  1  0
 16 15  2  0
 18 15  1  0
 19 18  1  0
 19 20  1  1
 20 21  1  0
 22 23  1  0
 22 19  1  0
 24 22  2  0
M  END
$$$$
