KDC.pdb
     RDKit          3D

 24 23  0  0  1  0  0  0  0  0999 V2000
   17.2521  -11.2944  -14.8697 N   0  0  0  0  0  0  0  0  0  0  0  0
   18.3622  -11.2129  -15.7612 C   0  0  1  0  0  0  0  0  0  0  0  0
   18.3525  -12.1645  -16.9085 C   0  0  0  0  0  0  0  0  0  0  0  0
   18.3127  -13.5879  -16.4831 C   0  0  0  0  0  0  0  0  0  0  0  0
   17.1129  -14.0247  -15.7230 C   0  0  0  0  0  0  0  0  0  0  0  0
   17.1285  -15.4858  -15.3549 C   0  0  0  0  0  0  0  0  0  0  0  0
   15.9047  -15.7724  -14.6288 N   0  0  0  0  0  0  0  0  0  0  0  0
   18.5644   -9.8075  -16.2474 C   0  0  0  0  0  0  0  0  0  0  0  0
   19.4823   -9.5915  -17.0842 O   0  0  0  0  0  0  0  0  0  0  0  0
   17.7752   -8.7236  -15.8103 N   0  0  0  0  0  0  0  0  0  0  0  0
   17.9965   -7.3433  -16.3283 C   0  0  1  0  0  0  0  0  0  0  0  0
   16.6815   -6.7302  -16.6765 C   0  0  0  0  0  0  0  0  0  0  0  0
   16.8133   -5.3104  -17.0565 C   0  0  0  0  0  0  0  0  0  0  0  0
   15.8618   -4.4895  -16.7982 O   0  0  0  0  0  0  0  0  0  0  0  0
   18.7468   -6.6388  -15.2661 C   0  0  0  0  0  0  0  0  0  0  0  0
   18.3767   -6.7176  -14.0415 O   0  0  0  0  0  0  0  0  0  0  0  0
   17.9285   -4.8076  -17.6869 O   0  0  0  0  0  0  0  0  0  0  0  0
   19.8971   -5.8413  -15.4654 N   0  0  0  0  0  0  0  0  0  0  0  0
   20.5355   -5.1150  -14.3965 C   0  0  1  0  0  0  0  0  0  0  0  0
   21.8779   -5.6711  -14.0185 C   0  0  0  0  0  0  0  0  0  0  0  0
   22.7006   -4.6479  -12.7831 S   0  0  0  0  0  0  0  0  0  0  0  0
   20.7279   -3.7054  -14.7984 C   0  0  0  0  0  0  0  0  0  0  0  0
   20.5880   -2.6925  -13.8731 O   0  0  0  0  0  0  0  0  0  0  0  0
   21.0235   -3.4092  -15.9961 O   0  0  0  0  0  0  0  0  0  0  0  0
  2  1  1  6
  3  2  1  0
  4  3  1  0
  5  6  1  0
  5  4  1  0
  6  7  1  0
  8  2  1  0
  8  9  2  0
 10  8  1  0
 11 10  1  0
 11 12  1  1
 13 12  1  0
 13 17  1  0
 14 13  2  0
 15 11  1  0
 16 15  2  0
 18 15  1  0
 19 18  1  0
 19 20  1  6
 20 21  1  0
 22 23  1  0
 22 19  1  0
 24 22  2  0
M  END
$$$$
