KDC.pdb
     RDKit          3D

 24 23  0  0  1  0  0  0  0  0999 V2000
   20.7583  -23.0833  -15.9714 N   0  0  0  0  0  0  0  0  0  0  0  0
   21.1261  -23.4090  -14.6326 C   0  0  1  0  0  0  0  0  0  0  0  0
   22.2812  -22.6544  -14.0685 C   0  0  0  0  0  0  0  0  0  0  0  0
   23.5324  -22.8369  -14.8494 C   0  0  0  0  0  0  0  0  0  0  0  0
   24.0234  -24.2304  -15.0084 C   0  0  0  0  0  0  0  0  0  0  0  0
   25.2030  -24.3542  -15.9377 C   0  0  0  0  0  0  0  0  0  0  0  0
   25.5202  -25.7648  -16.0649 N   0  0  0  0  0  0  0  0  0  0  0  0
   19.9448  -23.3256  -13.7107 C   0  0  0  0  0  0  0  0  0  0  0  0
   19.4512  -22.1900  -13.4741 O   0  0  0  0  0  0  0  0  0  0  0  0
   19.3663  -24.4580  -13.1010 N   0  0  0  0  0  0  0  0  0  0  0  0
   18.2218  -24.3305  -12.1542 C   0  0  1  0  0  0  0  0  0  0  0  0
   16.9988  -24.9166  -12.7765 C   0  0  0  0  0  0  0  0  0  0  0  0
   15.8200  -24.8073  -11.8957 C   0  0  0  0  0  0  0  0  0  0  0  0
   15.8764  -24.0786  -10.8413 O   0  0  0  0  0  0  0  0  0  0  0  0
   18.6634  -24.9963  -10.9094 C   0  0  0  0  0  0  0  0  0  0  0  0
   19.2898  -26.1137  -10.9519 O   0  0  0  0  0  0  0  0  0  0  0  0
   14.6354  -25.4596  -12.1509 O   0  0  0  0  0  0  0  0  0  0  0  0
   18.4592  -24.5049   -9.5995 N   0  0  0  0  0  0  0  0  0  0  0  0
   18.9311  -25.1968   -8.4263 C   0  0  1  0  0  0  0  0  0  0  0  0
   18.8460  -24.3716   -7.1749 C   0  0  0  0  0  0  0  0  0  0  0  0
   17.1816  -23.7322   -6.9089 S   0  0  0  0  0  0  0  0  0  0  0  0
   18.1299  -26.4211   -8.2149 C   0  0  0  0  0  0  0  0  0  0  0  0
   16.8922  -26.5540   -8.8082 O   0  0  0  0  0  0  0  0  0  0  0  0
   18.5687  -27.3632   -7.4873 O   0  0  0  0  0  0  0  0  0  0  0  0
  2  1  1  6
  3  2  1  0
  4  3  1  0
  5  6  1  0
  5  4  1  0
  6  7  1  0
  8  2  1  0
  8  9  2  0
 10  8  1  0
 11 10  1  0
 11 12  1  6
 13 12  1  0
 13 17  1  0
 14 13  2  0
 15 11  1  0
 16 15  2  0
 18 15  1  0
 19 18  1  0
 19 20  1  1
 20 21  1  0
 22 23  1  0
 22 19  1  0
 24 22  2  0
M  END
$$$$
