KDC.pdb
     RDKit          3D

 24 23  0  0  1  0  0  0  0  0999 V2000
   18.6199  -13.2093  -17.0228 N   0  0  0  0  0  0  0  0  0  0  0  0
   17.6700  -12.1502  -17.1213 C   0  0  1  0  0  0  0  0  0  0  0  0
   16.2397  -12.5350  -16.9537 C   0  0  0  0  0  0  0  0  0  0  0  0
   16.0266  -13.5202  -15.8616 C   0  0  0  0  0  0  0  0  0  0  0  0
   14.6887  -14.1632  -15.7937 C   0  0  0  0  0  0  0  0  0  0  0  0
   14.4893  -15.0175  -14.5686 C   0  0  0  0  0  0  0  0  0  0  0  0
   13.1356  -15.5398  -14.6087 N   0  0  0  0  0  0  0  0  0  0  0  0
   18.0206  -11.0205  -16.1977 C   0  0  0  0  0  0  0  0  0  0  0  0
   18.6408  -11.2898  -15.1336 O   0  0  0  0  0  0  0  0  0  0  0  0
   17.6877   -9.6770  -16.4681 N   0  0  0  0  0  0  0  0  0  0  0  0
   18.0827   -8.5776  -15.5420 C   0  0  1  0  0  0  0  0  0  0  0  0
   18.2550   -7.3156  -16.3191 C   0  0  0  0  0  0  0  0  0  0  0  0
   18.5552   -6.1630  -15.4482 C   0  0  0  0  0  0  0  0  0  0  0  0
   17.9135   -5.0627  -15.6017 O   0  0  0  0  0  0  0  0  0  0  0  0
   17.0232   -8.5305  -14.5109 C   0  0  0  0  0  0  0  0  0  0  0  0
   15.7931   -8.7006  -14.8286 O   0  0  0  0  0  0  0  0  0  0  0  0
   19.5082   -6.2060  -14.4563 O   0  0  0  0  0  0  0  0  0  0  0  0
   17.2313   -8.3065  -13.1305 N   0  0  0  0  0  0  0  0  0  0  0  0
   16.1481   -8.2262  -12.1829 C   0  0  1  0  0  0  0  0  0  0  0  0
   16.5850   -8.4329  -10.7615 C   0  0  0  0  0  0  0  0  0  0  0  0
   17.2425  -10.0909  -10.4996 S   0  0  0  0  0  0  0  0  0  0  0  0
   15.5088   -6.8961  -12.2697 C   0  0  0  0  0  0  0  0  0  0  0  0
   16.0358   -5.9230  -13.0926 O   0  0  0  0  0  0  0  0  0  0  0  0
   14.4700   -6.6325  -11.5907 O   0  0  0  0  0  0  0  0  0  0  0  0
  2  1  1  1
  3  2  1  0
  4  3  1  0
  5  6  1  0
  5  4  1  0
  6  7  1  0
  8  2  1  0
  8  9  2  0
 10  8  1  0
 11 10  1  0
 11 12  1  6
 13 12  1  0
 13 17  1  0
 14 13  2  0
 15 11  1  0
 16 15  2  0
 18 15  1  0
 19 18  1  0
 19 20  1  1
 20 21  1  0
 22 23  1  0
 22 19  1  0
 24 22  2  0
M  END
$$$$
