KDC.pdb
     RDKit          3D

 24 23  0  0  1  0  0  0  0  0999 V2000
   25.2924  -22.7281  -12.4427 N   0  0  0  0  0  0  0  0  0  0  0  0
   25.0505  -21.3242  -12.3774 C   0  0  1  0  0  0  0  0  0  0  0  0
   26.0892  -20.5119  -11.6825 C   0  0  0  0  0  0  0  0  0  0  0  0
   26.0921  -20.7083  -10.2094 C   0  0  0  0  0  0  0  0  0  0  0  0
   24.7743  -20.6505   -9.5252 C   0  0  0  0  0  0  0  0  0  0  0  0
   24.8672  -20.7416   -8.0240 C   0  0  0  0  0  0  0  0  0  0  0  0
   23.5153  -20.7358   -7.4957 N   0  0  0  0  0  0  0  0  0  0  0  0
   24.7670  -20.7594  -13.7386 C   0  0  0  0  0  0  0  0  0  0  0  0
   25.5467  -21.0582  -14.6831 O   0  0  0  0  0  0  0  0  0  0  0  0
   23.6709  -19.9130  -14.0049 N   0  0  0  0  0  0  0  0  0  0  0  0
   23.4022  -19.3992  -15.3783 C   0  0  1  0  0  0  0  0  0  0  0  0
   21.9720  -18.9861  -15.4798 C   0  0  0  0  0  0  0  0  0  0  0  0
   21.0505  -20.1239  -15.2965 C   0  0  0  0  0  0  0  0  0  0  0  0
   21.3060  -21.2490  -15.8575 O   0  0  0  0  0  0  0  0  0  0  0  0
   24.3787  -18.3084  -15.5895 C   0  0  0  0  0  0  0  0  0  0  0  0
   24.2581  -17.1932  -14.9694 O   0  0  0  0  0  0  0  0  0  0  0  0
   19.9053  -20.0412  -14.5378 O   0  0  0  0  0  0  0  0  0  0  0  0
   25.4983  -18.3652  -16.4511 N   0  0  0  0  0  0  0  0  0  0  0  0
   26.4193  -17.2670  -16.6040 C   0  0  1  0  0  0  0  0  0  0  0  0
   27.8030  -17.5784  -16.1115 C   0  0  0  0  0  0  0  0  0  0  0  0
   27.7880  -18.1701  -14.4087 S   0  0  0  0  0  0  0  0  0  0  0  0
   26.5208  -16.8981  -18.0320 C   0  0  0  0  0  0  0  0  0  0  0  0
   27.3213  -15.8458  -18.4238 O   0  0  0  0  0  0  0  0  0  0  0  0
   25.8753  -17.5427  -18.9137 O   0  0  0  0  0  0  0  0  0  0  0  0
  2  1  1  6
  3  2  1  0
  4  3  1  0
  5  6  1  0
  5  4  1  0
  6  7  1  0
  8  2  1  0
  8  9  2  0
 10  8  1  0
 11 10  1  0
 11 12  1  1
 13 12  1  0
 13 17  1  0
 14 13  2  0
 15 11  1  0
 16 15  2  0
 18 15  1  0
 19 18  1  0
 19 20  1  6
 20 21  1  0
 22 23  1  0
 22 19  1  0
 24 22  2  0
M  END
$$$$
