DTT.pdb
     RDKit          3D

 23 22  0  0  1  0  0  0  0  0999 V2000
    9.9082  -14.3445   19.2239 N   0  0  0  0  0  0  0  0  0  0  0  0
    8.6710  -13.5973   19.1609 C   0  0  1  0  0  0  0  0  0  0  0  0
    7.9276  -13.8352   17.8769 C   0  0  0  0  0  0  0  0  0  0  0  0
    8.7816  -14.5548   16.9180 C   0  0  0  0  0  0  0  0  0  0  0  0
    9.6558  -15.3756   17.3058 O   0  0  0  0  0  0  0  0  0  0  0  0
    7.8080  -13.9181   20.3372 C   0  0  0  0  0  0  0  0  0  0  0  0
    6.5909  -13.6014   20.3183 O   0  0  0  0  0  0  0  0  0  0  0  0
    8.6592  -14.3591   15.5484 O   0  0  0  0  0  0  0  0  0  0  0  0
    6.4996  -16.8942   21.4673 C   0  0  0  0  0  0  0  0  0  0  0  0
    7.2127  -16.3818   22.6931 C   0  0  1  0  0  0  0  0  0  0  0  0
    8.4696  -17.0078   22.7498 O   0  0  0  0  0  0  0  0  0  0  0  0
    7.3707  -14.8769   22.6238 C   0  0  2  0  0  0  0  0  0  0  0  0
    8.2889  -14.5693   21.4923 N   0  0  0  0  0  0  0  0  0  0  0  0
    8.0876  -14.4104   23.8294 C   0  0  0  0  0  0  0  0  0  0  0  0
    9.3528  -14.2400   23.7529 O   0  0  0  0  0  0  0  0  0  0  0  0
    7.5031  -11.4483   26.1737 C   0  0  0  0  0  0  0  0  0  0  0  0
    7.4066  -12.7304   26.9674 C   0  0  1  0  0  0  0  0  0  0  0  0
    6.0855  -13.1648   27.0013 O   0  0  0  0  0  0  0  0  0  0  0  0
    8.2108  -13.8003   26.2395 C   0  0  2  0  0  0  0  0  0  0  0  0
    7.4458  -14.1408   25.0560 N   0  0  0  0  0  0  0  0  0  0  0  0
    8.4537  -14.9639   27.0951 C   0  0  0  0  0  0  0  0  0  0  0  0
    9.1456  -14.8766   28.2776 O   0  0  0  0  0  0  0  0  0  0  0  0
    8.0141  -16.0927   26.7396 O   0  0  0  0  0  0  0  0  0  0  0  0
  2  1  1  6
  2  3  1  0
  3  4  1  0
  4  8  1  0
  5  4  2  0
  6 13  1  0
  6  2  1  0
  7  6  2  0
 10  9  1  6
 10 12  1  0
 11 10  1  0
 12 13  1  6
 12 14  1  0
 14 20  1  0
 15 14  2  0
 17 18  1  0
 17 16  1  6
 19 17  1  0
 19 20  1  6
 21 22  1  0
 21 19  1  0
 23 21  2  0
M  END
$$$$
