DTT.pdb
     RDKit          3D

 23 22  0  0  1  0  0  0  0  0999 V2000
   11.3064  -18.1271   21.6923 N   0  0  0  0  0  0  0  0  0  0  0  0
   10.9971  -16.8632   21.0601 C   0  0  1  0  0  0  0  0  0  0  0  0
   10.7645  -17.0080   19.5827 C   0  0  0  0  0  0  0  0  0  0  0  0
   11.9677  -17.5451   18.9264 C   0  0  0  0  0  0  0  0  0  0  0  0
   13.1197  -17.1362   19.2330 O   0  0  0  0  0  0  0  0  0  0  0  0
    9.8181  -16.2255   21.7196 C   0  0  0  0  0  0  0  0  0  0  0  0
    9.2583  -15.2413   21.1720 O   0  0  0  0  0  0  0  0  0  0  0  0
   11.8828  -18.5230   17.9439 O   0  0  0  0  0  0  0  0  0  0  0  0
    6.7146  -18.0883   23.0094 C   0  0  0  0  0  0  0  0  0  0  0  0
    7.2053  -17.1638   24.0948 C   0  0  1  0  0  0  0  0  0  0  0  0
    7.9597  -17.9295   25.0002 O   0  0  0  0  0  0  0  0  0  0  0  0
    8.0500  -16.0541   23.5039 C   0  0  2  0  0  0  0  0  0  0  0  0
    9.2850  -16.6725   22.9466 N   0  0  0  0  0  0  0  0  0  0  0  0
    8.5260  -15.1765   24.5939 C   0  0  0  0  0  0  0  0  0  0  0  0
    9.7740  -15.1815   24.8734 O   0  0  0  0  0  0  0  0  0  0  0  0
    7.2243  -11.4808   25.6386 C   0  0  0  0  0  0  0  0  0  0  0  0
    7.1391  -12.5001   26.7506 C   0  0  1  0  0  0  0  0  0  0  0  0
    5.8888  -13.1099   26.7356 O   0  0  0  0  0  0  0  0  0  0  0  0
    8.1705  -13.5876   26.4767 C   0  0  2  0  0  0  0  0  0  0  0  0
    7.6740  -14.3329   25.3366 N   0  0  0  0  0  0  0  0  0  0  0  0
    8.3745  -14.4411   27.6494 C   0  0  0  0  0  0  0  0  0  0  0  0
    8.1356  -15.7929   27.6266 O   0  0  0  0  0  0  0  0  0  0  0  0
    8.7849  -13.9229   28.7249 O   0  0  0  0  0  0  0  0  0  0  0  0
  2  1  1  1
  2  3  1  0
  3  4  1  0
  4  8  1  0
  5  4  2  0
  6 13  1  0
  6  2  1  0
  7  6  2  0
 10  9  1  6
 10 12  1  0
 11 10  1  0
 12 13  1  1
 12 14  1  0
 14 20  1  0
 15 14  2  0
 17 18  1  0
 17 16  1  6
 19 17  1  0
 19 20  1  6
 21 22  1  0
 21 19  1  0
 23 21  2  0
M  END
$$$$
