DTT.pdb
     RDKit          3D

 23 22  0  0  1  0  0  0  0  0999 V2000
   10.2153  -18.3655   20.5369 N   0  0  0  0  0  0  0  0  0  0  0  0
   11.2522  -17.3589   20.6030 C   0  0  1  0  0  0  0  0  0  0  0  0
   11.5612  -16.7712   19.2552 C   0  0  0  0  0  0  0  0  0  0  0  0
   12.2644  -17.7563   18.4174 C   0  0  0  0  0  0  0  0  0  0  0  0
   11.6409  -18.4892   17.6035 O   0  0  0  0  0  0  0  0  0  0  0  0
   10.8760  -16.2863   21.5724 C   0  0  0  0  0  0  0  0  0  0  0  0
   11.4636  -15.1751   21.5267 O   0  0  0  0  0  0  0  0  0  0  0  0
   13.6420  -17.9181   18.4894 O   0  0  0  0  0  0  0  0  0  0  0  0
    7.4868  -14.7084   22.2239 C   0  0  0  0  0  0  0  0  0  0  0  0
    8.0264  -15.2266   23.5331 C   0  0  1  0  0  0  0  0  0  0  0  0
    7.4510  -16.4879   23.7637 O   0  0  0  0  0  0  0  0  0  0  0  0
    9.5364  -15.3328   23.4790 C   0  0  2  0  0  0  0  0  0  0  0  0
    9.8793  -16.4508   22.5568 N   0  0  0  0  0  0  0  0  0  0  0  0
   10.0379  -15.7660   24.8003 C   0  0  0  0  0  0  0  0  0  0  0  0
   10.5207  -16.9455   24.9072 O   0  0  0  0  0  0  0  0  0  0  0  0
    9.0732  -13.6779   28.1736 C   0  0  0  0  0  0  0  0  0  0  0  0
   10.4820  -14.2237   28.1608 C   0  0  1  0  0  0  0  0  0  0  0  0
   10.8173  -14.6913   29.4273 O   0  0  0  0  0  0  0  0  0  0  0  0
   10.5183  -15.4202   27.2181 C   0  0  2  0  0  0  0  0  0  0  0  0
   10.0139  -14.9430   25.9454 N   0  0  0  0  0  0  0  0  0  0  0  0
    9.7311  -16.5392   27.7408 C   0  0  0  0  0  0  0  0  0  0  0  0
   10.2109  -17.3895   28.7059 O   0  0  0  0  0  0  0  0  0  0  0  0
    8.5674  -16.7364   27.2929 O   0  0  0  0  0  0  0  0  0  0  0  0
  2  1  1  6
  2  3  1  0
  3  4  1  0
  4  8  1  0
  5  4  2  0
  6 13  1  0
  6  2  1  0
  7  6  2  0
 10  9  1  6
 10 12  1  0
 11 10  1  0
 12 13  1  6
 12 14  1  0
 14 20  1  0
 15 14  2  0
 17 18  1  0
 17 16  1  1
 19 17  1  0
 19 20  1  6
 21 22  1  0
 21 19  1  0
 23 21  2  0
M  END
$$$$
