DTT.pdb
     RDKit          3D

 23 22  0  0  1  0  0  0  0  0999 V2000
   11.6257  -16.1500   18.9655 N   0  0  0  0  0  0  0  0  0  0  0  0
   11.8168  -15.4933   20.2403 C   0  0  1  0  0  0  0  0  0  0  0  0
   12.5216  -14.1738   20.1004 C   0  0  0  0  0  0  0  0  0  0  0  0
   13.9325  -14.3841   19.7373 C   0  0  0  0  0  0  0  0  0  0  0  0
   14.6595  -15.1938   20.3731 O   0  0  0  0  0  0  0  0  0  0  0  0
   10.5076  -15.3207   20.9389 C   0  0  0  0  0  0  0  0  0  0  0  0
    9.5766  -14.6984   20.3663 O   0  0  0  0  0  0  0  0  0  0  0  0
   14.5195  -13.7000   18.6807 O   0  0  0  0  0  0  0  0  0  0  0  0
    6.9630  -16.9965   23.6687 C   0  0  0  0  0  0  0  0  0  0  0  0
    8.3217  -17.0692   23.0187 C   0  0  1  0  0  0  0  0  0  0  0  0
    8.1666  -17.7006   21.7728 O   0  0  0  0  0  0  0  0  0  0  0  0
    8.8998  -15.6803   22.8427 C   0  0  2  0  0  0  0  0  0  0  0  0
   10.2497  -15.8255   22.2304 N   0  0  0  0  0  0  0  0  0  0  0  0
    9.1508  -15.0891   24.1740 C   0  0  0  0  0  0  0  0  0  0  0  0
   10.3180  -15.2144   24.6814 O   0  0  0  0  0  0  0  0  0  0  0  0
    7.4413  -11.7608   25.8448 C   0  0  0  0  0  0  0  0  0  0  0  0
    7.2753  -13.0339   26.6413 C   0  0  1  0  0  0  0  0  0  0  0  0
    6.0915  -13.6667   26.2761 O   0  0  0  0  0  0  0  0  0  0  0  0
    8.4168  -13.9744   26.2751 C   0  0  2  0  0  0  0  0  0  0  0  0
    8.1696  -14.3917   24.9089 N   0  0  0  0  0  0  0  0  0  0  0  0
    8.4918  -15.1110   27.1958 C   0  0  0  0  0  0  0  0  0  0  0  0
    8.8731  -14.9720   28.5074 O   0  0  0  0  0  0  0  0  0  0  0  0
    8.1968  -16.2645   26.7762 O   0  0  0  0  0  0  0  0  0  0  0  0
  2  1  1  6
  2  3  1  0
  3  4  1  0
  4  8  1  0
  5  4  2  0
  6 13  1  0
  6  2  1  0
  7  6  2  0
 10  9  1  6
 10 12  1  0
 11 10  1  0
 12 13  1  6
 12 14  1  0
 14 20  1  0
 15 14  2  0
 17 18  1  0
 17 16  1  6
 19 17  1  0
 19 20  1  6
 21 22  1  0
 21 19  1  0
 23 21  2  0
M  END
$$$$
