DTT.pdb
     RDKit          3D

 23 22  0  0  1  0  0  0  0  0999 V2000
    9.6431  -18.0502   17.6845 N   0  0  0  0  0  0  0  0  0  0  0  0
   10.8090  -17.2312   17.9353 C   0  0  1  0  0  0  0  0  0  0  0  0
   11.3271  -16.5809   16.6839 C   0  0  0  0  0  0  0  0  0  0  0  0
   12.1305  -17.5379   15.9058 C   0  0  0  0  0  0  0  0  0  0  0  0
   11.7752  -18.7402   15.7772 O   0  0  0  0  0  0  0  0  0  0  0  0
   10.5099  -16.2045   18.9784 C   0  0  0  0  0  0  0  0  0  0  0  0
   11.3892  -15.3600   19.2874 O   0  0  0  0  0  0  0  0  0  0  0  0
   13.3112  -17.1557   15.2822 O   0  0  0  0  0  0  0  0  0  0  0  0
    7.6151  -13.6450   19.3867 C   0  0  0  0  0  0  0  0  0  0  0  0
    7.6765  -14.5563   20.5865 C   0  0  1  0  0  0  0  0  0  0  0  0
    6.7357  -15.5822   20.3930 O   0  0  0  0  0  0  0  0  0  0  0  0
    9.0681  -15.1335   20.7428 C   0  0  2  0  0  0  0  0  0  0  0  0
    9.2726  -16.1255   19.6510 N   0  0  0  0  0  0  0  0  0  0  0  0
    9.1251  -15.9265   21.9890 C   0  0  0  0  0  0  0  0  0  0  0  0
    9.2327  -17.1973   21.8931 O   0  0  0  0  0  0  0  0  0  0  0  0
    9.1777  -16.0610   26.9119 C   0  0  0  0  0  0  0  0  0  0  0  0
    9.1908  -15.2368   25.6457 C   0  0  1  0  0  0  0  0  0  0  0  0
   10.4275  -14.6165   25.5005 O   0  0  0  0  0  0  0  0  0  0  0  0
    9.0228  -16.1824   24.4628 C   0  0  2  0  0  0  0  0  0  0  0  0
    9.0707  -15.3516   23.2757 N   0  0  0  0  0  0  0  0  0  0  0  0
    7.7742  -16.9422   24.5564 C   0  0  0  0  0  0  0  0  0  0  0  0
    6.6727  -16.6452   23.7927 O   0  0  0  0  0  0  0  0  0  0  0  0
    7.6993  -17.9072   25.3668 O   0  0  0  0  0  0  0  0  0  0  0  0
  2  1  1  6
  2  3  1  0
  3  4  1  0
  4  8  1  0
  5  4  2  0
  6 13  1  0
  6  2  1  0
  7  6  2  0
 10  9  1  6
 10 12  1  0
 11 10  1  0
 12 13  1  6
 12 14  1  0
 14 20  1  0
 15 14  2  0
 17 18  1  0
 17 16  1  1
 19 17  1  0
 19 20  1  6
 21 22  1  0
 21 19  1  0
 23 21  2  0
M  END
$$$$
