DTT.pdb
     RDKit          3D

 23 22  0  0  1  0  0  0  0  0999 V2000
    9.1997  -16.7353   16.7057 N   0  0  0  0  0  0  0  0  0  0  0  0
    9.7474  -17.4721   17.8237 C   0  0  1  0  0  0  0  0  0  0  0  0
   11.0473  -18.1432   17.4807 C   0  0  0  0  0  0  0  0  0  0  0  0
   10.8879  -18.9830   16.2823 C   0  0  0  0  0  0  0  0  0  0  0  0
    9.7567  -19.4091   15.9258 O   0  0  0  0  0  0  0  0  0  0  0  0
    9.9128  -16.5759   19.0074 C   0  0  0  0  0  0  0  0  0  0  0  0
   11.0379  -16.0677   19.2481 O   0  0  0  0  0  0  0  0  0  0  0  0
   11.9761  -19.3396   15.4964 O   0  0  0  0  0  0  0  0  0  0  0  0
    7.6457  -13.5470   19.9089 C   0  0  0  0  0  0  0  0  0  0  0  0
    7.7994  -14.4489   21.1075 C   0  0  1  0  0  0  0  0  0  0  0  0
    6.6679  -15.2805   21.1650 O   0  0  0  0  0  0  0  0  0  0  0  0
    9.0623  -15.2767   20.9893 C   0  0  2  0  0  0  0  0  0  0  0  0
    8.8585  -16.2600   19.8894 N   0  0  0  0  0  0  0  0  0  0  0  0
    9.2165  -16.0996   22.2076 C   0  0  0  0  0  0  0  0  0  0  0  0
    8.7823  -17.3023   22.1843 O   0  0  0  0  0  0  0  0  0  0  0  0
   10.3231  -18.2289   22.8359 C   0  0  0  0  0  0  0  0  0  0  0  0
   10.9083  -17.6196   24.0886 C   0  0  1  0  0  0  0  0  0  0  0  0
   12.1443  -17.0493   23.8017 O   0  0  0  0  0  0  0  0  0  0  0  0
    9.9893  -16.4917   24.5410 C   0  0  2  0  0  0  0  0  0  0  0  0
    9.8211  -15.6258   23.3904 N   0  0  0  0  0  0  0  0  0  0  0  0
   10.5431  -15.7782   25.6941 C   0  0  0  0  0  0  0  0  0  0  0  0
   10.9703  -14.4757   25.6181 O   0  0  0  0  0  0  0  0  0  0  0  0
   10.6345  -16.3756   26.8025 O   0  0  0  0  0  0  0  0  0  0  0  0
  2  1  1  6
  2  3  1  0
  3  4  1  0
  4  8  1  0
  5  4  2  0
  6 13  1  0
  6  2  1  0
  7  6  2  0
 10  9  1  6
 10 12  1  0
 11 10  1  0
 12 13  1  6
 12 14  1  0
 14 20  1  0
 15 14  2  0
 17 18  1  0
 17 16  1  6
 19 17  1  0
 19 20  1  6
 21 22  1  0
 21 19  1  0
 23 21  2  0
M  END
$$$$
