DTT.pdb
     RDKit          3D

 23 22  0  0  1  0  0  0  0  0999 V2000
   11.5538  -18.1959   21.4153 N   0  0  0  0  0  0  0  0  0  0  0  0
   11.3470  -16.9487   20.7119 C   0  0  1  0  0  0  0  0  0  0  0  0
   11.2136  -17.1477   19.2286 C   0  0  0  0  0  0  0  0  0  0  0  0
   12.5185  -17.4898   18.6396 C   0  0  0  0  0  0  0  0  0  0  0  0
   13.4301  -18.0210   19.3290 O   0  0  0  0  0  0  0  0  0  0  0  0
   10.1539  -16.2344   21.2577 C   0  0  0  0  0  0  0  0  0  0  0  0
    9.7259  -15.2060   20.6736 O   0  0  0  0  0  0  0  0  0  0  0  0
   12.7983  -17.2416   17.3021 O   0  0  0  0  0  0  0  0  0  0  0  0
    7.5796  -17.9192   24.1445 C   0  0  0  0  0  0  0  0  0  0  0  0
    7.1648  -16.8561   23.1589 C   0  0  1  0  0  0  0  0  0  0  0  0
    6.0459  -16.1927   23.6908 O   0  0  0  0  0  0  0  0  0  0  0  0
    8.2992  -15.8805   22.9231 C   0  0  2  0  0  0  0  0  0  0  0  0
    9.4649  -16.6552   22.4143 N   0  0  0  0  0  0  0  0  0  0  0  0
    8.7460  -15.3359   24.2227 C   0  0  0  0  0  0  0  0  0  0  0  0
    9.8759  -15.7193   24.6830 O   0  0  0  0  0  0  0  0  0  0  0  0
    7.9743  -11.6734   25.8126 C   0  0  0  0  0  0  0  0  0  0  0  0
    7.5480  -12.8278   26.6893 C   0  0  1  0  0  0  0  0  0  0  0  0
    6.2224  -13.1559   26.4241 O   0  0  0  0  0  0  0  0  0  0  0  0
    8.3919  -14.0411   26.3188 C   0  0  2  0  0  0  0  0  0  0  0  0
    7.9910  -14.4133   24.9762 N   0  0  0  0  0  0  0  0  0  0  0  0
    8.2072  -15.1352   27.2749 C   0  0  0  0  0  0  0  0  0  0  0  0
    8.5959  -15.0389   28.5880 O   0  0  0  0  0  0  0  0  0  0  0  0
    7.6716  -16.2100   26.8854 O   0  0  0  0  0  0  0  0  0  0  0  0
  2  1  1  1
  2  3  1  0
  3  4  1  0
  4  8  1  0
  5  4  2  0
  6 13  1  0
  6  2  1  0
  7  6  2  0
 10  9  1  1
 10 12  1  0
 11 10  1  0
 12 13  1  1
 12 14  1  0
 14 20  1  0
 15 14  2  0
 17 18  1  0
 17 16  1  6
 19 17  1  0
 19 20  1  6
 21 22  1  0
 21 19  1  0
 23 21  2  0
M  END
$$$$
