DTT.pdb
     RDKit          3D

 23 22  0  0  1  0  0  0  0  0999 V2000
   10.3716  -18.4932   21.0683 N   0  0  0  0  0  0  0  0  0  0  0  0
   11.2322  -17.3334   20.9847 C   0  0  1  0  0  0  0  0  0  0  0  0
   11.8441  -17.1762   19.6214 C   0  0  0  0  0  0  0  0  0  0  0  0
   13.1925  -17.7659   19.5956 C   0  0  0  0  0  0  0  0  0  0  0  0
   14.0704  -17.3601   18.7875 O   0  0  0  0  0  0  0  0  0  0  0  0
   10.4835  -16.1001   21.3722 C   0  0  0  0  0  0  0  0  0  0  0  0
   11.0005  -14.9715   21.1699 O   0  0  0  0  0  0  0  0  0  0  0  0
   13.5522  -18.7923   20.4595 O   0  0  0  0  0  0  0  0  0  0  0  0
    7.1776  -14.5109   20.3939 C   0  0  0  0  0  0  0  0  0  0  0  0
    7.1509  -14.8393   21.8653 C   0  0  1  0  0  0  0  0  0  0  0  0
    6.5341  -16.0935   22.0126 O   0  0  0  0  0  0  0  0  0  0  0  0
    8.5572  -14.8691   22.4272 C   0  0  2  0  0  0  0  0  0  0  0  0
    9.2036  -16.1284   21.9643 N   0  0  0  0  0  0  0  0  0  0  0  0
    8.4873  -14.9991   23.8980 C   0  0  0  0  0  0  0  0  0  0  0  0
    9.1345  -15.9527   24.4525 O   0  0  0  0  0  0  0  0  0  0  0  0
    7.7314  -11.9665   26.5692 C   0  0  0  0  0  0  0  0  0  0  0  0
    6.8426  -13.1809   26.7032 C   0  0  1  0  0  0  0  0  0  0  0  0
    5.6967  -13.0130   25.9326 O   0  0  0  0  0  0  0  0  0  0  0  0
    7.5911  -14.3809   26.1364 C   0  0  2  0  0  0  0  0  0  0  0  0
    7.7468  -14.1229   24.7183 N   0  0  0  0  0  0  0  0  0  0  0  0
    6.8744  -15.6317   26.3958 C   0  0  0  0  0  0  0  0  0  0  0  0
    6.3105  -16.3789   25.3916 O   0  0  0  0  0  0  0  0  0  0  0  0
    6.7665  -16.0451   27.5837 O   0  0  0  0  0  0  0  0  0  0  0  0
  2  1  1  6
  2  3  1  0
  3  4  1  0
  4  8  1  0
  5  4  2  0
  6 13  1  0
  6  2  1  0
  7  6  2  0
 10  9  1  6
 10 12  1  0
 11 10  1  0
 12 13  1  6
 12 14  1  0
 14 20  1  0
 15 14  2  0
 17 18  1  0
 17 16  1  6
 19 17  1  0
 19 20  1  6
 21 22  1  0
 21 19  1  0
 23 21  2  0
M  END
$$$$
