DTT.pdb
     RDKit          3D

 23 22  0  0  1  0  0  0  0  0999 V2000
   11.4944  -18.5957   20.9846 N   0  0  0  0  0  0  0  0  0  0  0  0
   12.2106  -17.3390   20.9605 C   0  0  1  0  0  0  0  0  0  0  0  0
   12.4212  -16.8311   19.5622 C   0  0  0  0  0  0  0  0  0  0  0  0
   13.5863  -17.4896   18.9494 C   0  0  0  0  0  0  0  0  0  0  0  0
   14.1943  -16.9723   17.9742 O   0  0  0  0  0  0  0  0  0  0  0  0
   11.5019  -16.3194   21.7910 C   0  0  0  0  0  0  0  0  0  0  0  0
   11.8401  -15.1106   21.7111 O   0  0  0  0  0  0  0  0  0  0  0  0
   14.0627  -18.7063   19.4202 O   0  0  0  0  0  0  0  0  0  0  0  0
    7.7342  -15.4716   22.1917 C   0  0  0  0  0  0  0  0  0  0  0  0
    8.3326  -15.8262   23.5295 C   0  0  1  0  0  0  0  0  0  0  0  0
    8.0531  -17.1810   23.7775 O   0  0  0  0  0  0  0  0  0  0  0  0
    9.8279  -15.5845   23.5220 C   0  0  2  0  0  0  0  0  0  0  0  0
   10.4534  -16.6403   22.6782 N   0  0  0  0  0  0  0  0  0  0  0  0
   10.3623  -15.8205   24.8799 C   0  0  0  0  0  0  0  0  0  0  0  0
   11.1336  -16.8245   25.0604 O   0  0  0  0  0  0  0  0  0  0  0  0
    9.0563  -13.5130   28.0172 C   0  0  0  0  0  0  0  0  0  0  0  0
   10.4873  -13.9914   28.0960 C   0  0  1  0  0  0  0  0  0  0  0  0
   10.8105  -14.2944   29.4146 O   0  0  0  0  0  0  0  0  0  0  0  0
   10.5992  -15.2852   27.2992 C   0  0  2  0  0  0  0  0  0  0  0  0
   10.0672  -14.9924   25.9827 N   0  0  0  0  0  0  0  0  0  0  0  0
    9.8828  -16.3822   27.9540 C   0  0  0  0  0  0  0  0  0  0  0  0
   10.3914  -17.0482   29.0414 O   0  0  0  0  0  0  0  0  0  0  0  0
    8.7554  -16.7347   27.5085 O   0  0  0  0  0  0  0  0  0  0  0  0
  2  1  1  6
  2  3  1  0
  3  4  1  0
  4  8  1  0
  5  4  2  0
  6 13  1  0
  6  2  1  0
  7  6  2  0
 10  9  1  6
 10 12  1  0
 11 10  1  0
 12 13  1  6
 12 14  1  0
 14 20  1  0
 15 14  2  0
 17 18  1  0
 17 16  1  1
 19 17  1  0
 19 20  1  6
 21 22  1  0
 21 19  1  0
 23 21  2  0
M  END
$$$$
