YKG.pdb
     RDKit          3D

 26 26  0  0  1  0  0  0  0  0999 V2000
    4.9676  -10.8379   28.1961 O   0  0  0  0  0  0  0  0  0  0  0  0
    5.6884  -11.6993   27.3843 C   0  0  0  0  0  0  0  0  0  0  0  0
    5.1535  -12.2584   26.2425 C   0  0  0  0  0  0  0  0  0  0  0  0
    5.8735  -13.1187   25.4318 C   0  0  0  0  0  0  0  0  0  0  0  0
    7.1823  -13.4484   25.7545 C   0  0  0  0  0  0  0  0  0  0  0  0
    8.0132  -14.3583   24.9395 C   0  0  0  0  0  0  0  0  0  0  0  0
    7.4525  -15.7650   24.9143 C   0  0  2  0  0  0  0  0  0  0  0  0
    7.4487  -16.3535   26.2464 N   0  0  0  0  0  0  0  0  0  0  0  0
    8.1713  -16.6404   23.9802 C   0  0  0  0  0  0  0  0  0  0  0  0
    9.0710  -17.4048   24.4268 O   0  0  0  0  0  0  0  0  0  0  0  0
    7.7106  -12.8873   26.8951 C   0  0  0  0  0  0  0  0  0  0  0  0
    6.9922  -12.0270   27.7068 C   0  0  0  0  0  0  0  0  0  0  0  0
    7.9275  -16.6961   22.5787 N   0  0  0  0  0  0  0  0  0  0  0  0
    8.8992  -17.2227   21.6408 C   0  0  1  0  0  0  0  0  0  0  0  0
    8.2550  -17.4260   20.3053 C   0  0  0  0  0  0  0  0  0  0  0  0
    7.6612  -18.7817   20.1093 C   0  0  0  0  0  0  0  0  0  0  0  0
    6.4135  -18.6188   19.2546 C   0  0  0  0  0  0  0  0  0  0  0  0
    5.7332  -19.9526   19.0099 C   0  0  0  0  0  0  0  0  0  0  0  0
    4.5026  -19.7379   18.2911 N   0  0  0  0  0  0  0  0  0  0  0  0
   10.1154  -16.3788   21.5763 C   0  0  0  0  0  0  0  0  0  0  0  0
   10.1146  -15.2073   21.1255 O   0  0  0  0  0  0  0  0  0  0  0  0
   11.3549  -16.8993   22.0415 N   0  0  0  0  0  0  0  0  0  0  0  0
   12.5758  -16.1306   21.8845 C   0  0  0  0  0  0  0  0  0  0  0  0
   13.7391  -16.9151   22.2863 C   0  0  0  0  0  0  0  0  0  0  0  0
   13.5699  -18.1978   22.7723 O   0  0  0  0  0  0  0  0  0  0  0  0
   14.8945  -16.4425   22.1973 O   0  0  0  0  0  0  0  0  0  0  0  0
  2  3  2  0
  2  1  1  0
  4  3  1  0
  5  4  2  0
  6  5  1  0
  7  6  1  0
  7  9  1  0
  7  8  1  1
  9 10  2  0
 11  5  1  0
 11 12  2  0
 12  2  1  0
 13  9  1  0
 13 14  1  0
 14 15  1  6
 15 16  1  0
 17 16  1  0
 18 19  1  0
 18 17  1  0
 20 21  2  0
 20 14  1  0
 22 20  1  0
 23 24  1  0
 23 22  1  0
 24 25  1  0
 26 24  2  0
M  END
$$$$
