YKG.pdb
     RDKit          3D

 26 26  0  0  1  0  0  0  0  0999 V2000
   11.1612  -14.6970   30.7250 O   0  0  0  0  0  0  0  0  0  0  0  0
   10.3446  -14.7966   29.6098 C   0  0  0  0  0  0  0  0  0  0  0  0
    9.9388  -13.6916   28.8910 C   0  0  0  0  0  0  0  0  0  0  0  0
    9.1232  -13.7912   27.7772 C   0  0  0  0  0  0  0  0  0  0  0  0
    8.6825  -15.0342   27.3452 C   0  0  0  0  0  0  0  0  0  0  0  0
    7.8112  -15.2204   26.1668 C   0  0  0  0  0  0  0  0  0  0  0  0
    8.5419  -15.8956   25.0248 C   0  0  2  0  0  0  0  0  0  0  0  0
    9.9425  -15.4981   24.9887 N   0  0  0  0  0  0  0  0  0  0  0  0
    7.9126  -15.6378   23.7237 C   0  0  0  0  0  0  0  0  0  0  0  0
    6.6783  -15.8627   23.5854 O   0  0  0  0  0  0  0  0  0  0  0  0
    9.0908  -16.1331   28.0666 C   0  0  0  0  0  0  0  0  0  0  0  0
    9.9062  -16.0354   29.1804 C   0  0  0  0  0  0  0  0  0  0  0  0
    8.6009  -15.1430   22.5799 N   0  0  0  0  0  0  0  0  0  0  0  0
    8.0499  -15.2317   21.2422 C   0  0  1  0  0  0  0  0  0  0  0  0
    7.7669  -13.8583   20.7192 C   0  0  0  0  0  0  0  0  0  0  0  0
    7.0156  -13.8345   19.4292 C   0  0  0  0  0  0  0  0  0  0  0  0
    7.8580  -13.0698   18.4197 C   0  0  0  0  0  0  0  0  0  0  0  0
    7.2372  -13.1130   17.0361 C   0  0  0  0  0  0  0  0  0  0  0  0
    7.9758  -12.2468   16.1523 N   0  0  0  0  0  0  0  0  0  0  0  0
    8.9158  -16.0286   20.3419 C   0  0  0  0  0  0  0  0  0  0  0  0
    8.4767  -16.6632   19.3520 O   0  0  0  0  0  0  0  0  0  0  0  0
   10.3150  -16.0927   20.5911 N   0  0  0  0  0  0  0  0  0  0  0  0
   11.0011  -17.3714   20.5841 C   0  0  0  0  0  0  0  0  0  0  0  0
   11.7503  -17.5523   19.3447 C   0  0  0  0  0  0  0  0  0  0  0  0
   12.6574  -18.5892   19.2337 O   0  0  0  0  0  0  0  0  0  0  0  0
   11.5839  -16.7791   18.3747 O   0  0  0  0  0  0  0  0  0  0  0  0
  2  3  2  0
  2  1  1  0
  4  3  1  0
  5  4  2  0
  6  5  1  0
  7  6  1  0
  7  9  1  0
  7  8  1  6
  9 10  2  0
 11  5  1  0
 11 12  2  0
 12  2  1  0
 13  9  1  0
 13 14  1  0
 14 15  1  6
 15 16  1  0
 17 16  1  0
 18 19  1  0
 18 17  1  0
 20 21  2  0
 20 14  1  0
 22 20  1  0
 23 24  1  0
 23 22  1  0
 24 25  1  0
 26 24  2  0
M  END
$$$$
