YKG.pdb
     RDKit          3D

 26 26  0  0  1  0  0  0  0  0999 V2000
   10.1416  -14.3845   31.1897 O   0  0  0  0  0  0  0  0  0  0  0  0
   10.5019  -14.7636   29.9063 C   0  0  0  0  0  0  0  0  0  0  0  0
   10.1290  -14.0423   28.7914 C   0  0  0  0  0  0  0  0  0  0  0  0
   10.4889  -14.4209   27.5097 C   0  0  0  0  0  0  0  0  0  0  0  0
   11.2520  -15.5626   27.3090 C   0  0  0  0  0  0  0  0  0  0  0  0
   11.6746  -16.0300   25.9728 C   0  0  0  0  0  0  0  0  0  0  0  0
   10.5575  -16.7500   25.2466 C   0  0  2  0  0  0  0  0  0  0  0  0
   10.0345  -17.8500   26.0450 N   0  0  0  0  0  0  0  0  0  0  0  0
   10.9693  -17.2396   23.9252 C   0  0  0  0  0  0  0  0  0  0  0  0
   11.2886  -18.4537   23.7944 O   0  0  0  0  0  0  0  0  0  0  0  0
   11.6211  -16.2782   28.4254 C   0  0  0  0  0  0  0  0  0  0  0  0
   11.2621  -15.9011   29.7076 C   0  0  0  0  0  0  0  0  0  0  0  0
   11.0384  -16.4341   22.7533 N   0  0  0  0  0  0  0  0  0  0  0  0
   11.3939  -16.9764   21.4569 C   0  0  1  0  0  0  0  0  0  0  0  0
   10.3668  -16.5795   20.4433 C   0  0  0  0  0  0  0  0  0  0  0  0
    9.3760  -17.6489   20.1210 C   0  0  0  0  0  0  0  0  0  0  0  0
    8.7652  -17.3180   18.7678 C   0  0  0  0  0  0  0  0  0  0  0  0
    7.7617  -18.3730   18.3416 C   0  0  0  0  0  0  0  0  0  0  0  0
    7.2216  -18.0267   17.0511 N   0  0  0  0  0  0  0  0  0  0  0  0
   12.7726  -16.6029   21.0632 C   0  0  0  0  0  0  0  0  0  0  0  0
   13.2624  -16.8731   19.9396 O   0  0  0  0  0  0  0  0  0  0  0  0
   13.5998  -15.9041   21.9859 N   0  0  0  0  0  0  0  0  0  0  0  0
   14.9704  -15.5782   21.6376 C   0  0  0  0  0  0  0  0  0  0  0  0
   15.8842  -15.9623   22.7089 C   0  0  0  0  0  0  0  0  0  0  0  0
   15.9924  -17.2896   23.0787 O   0  0  0  0  0  0  0  0  0  0  0  0
   16.5757  -15.1041   23.3019 O   0  0  0  0  0  0  0  0  0  0  0  0
  2  3  2  0
  2  1  1  0
  4  3  1  0
  5  4  2  0
  6  5  1  0
  7  6  1  0
  7  9  1  0
  7  8  1  1
  9 10  2  0
 11  5  1  0
 11 12  2  0
 12  2  1  0
 13  9  1  0
 13 14  1  0
 14 15  1  6
 15 16  1  0
 17 16  1  0
 18 19  1  0
 18 17  1  0
 20 21  2  0
 20 14  1  0
 22 20  1  0
 23 24  1  0
 23 22  1  0
 24 25  1  0
 26 24  2  0
M  END
$$$$
