YKG.pdb
     RDKit          3D

 26 26  0  0  1  0  0  0  0  0999 V2000
    5.8984  -10.1707   26.9377 O   0  0  0  0  0  0  0  0  0  0  0  0
    6.4019  -11.4437   26.7217 C   0  0  0  0  0  0  0  0  0  0  0  0
    6.3841  -12.4197   27.6960 C   0  0  0  0  0  0  0  0  0  0  0  0
    6.8870  -13.6910   27.4802 C   0  0  0  0  0  0  0  0  0  0  0  0
    7.4347  -14.0239   26.2493 C   0  0  0  0  0  0  0  0  0  0  0  0
    7.9905  -15.3582   25.9439 C   0  0  0  0  0  0  0  0  0  0  0  0
    7.0978  -16.1402   25.0030 C   0  0  2  0  0  0  0  0  0  0  0  0
    6.6608  -17.3899   25.6099 N   0  0  0  0  0  0  0  0  0  0  0  0
    7.7401  -16.4071   23.7100 C   0  0  0  0  0  0  0  0  0  0  0  0
    8.1219  -17.5811   23.4469 O   0  0  0  0  0  0  0  0  0  0  0  0
    7.4497  -13.0457   25.2810 C   0  0  0  0  0  0  0  0  0  0  0  0
    6.9473  -11.7741   25.4951 C   0  0  0  0  0  0  0  0  0  0  0  0
    7.9712  -15.4235   22.7071 N   0  0  0  0  0  0  0  0  0  0  0  0
    8.2759  -15.7705   21.3332 C   0  0  1  0  0  0  0  0  0  0  0  0
    7.8152  -14.6772   20.4209 C   0  0  0  0  0  0  0  0  0  0  0  0
    8.0051  -14.9676   18.9687 C   0  0  0  0  0  0  0  0  0  0  0  0
    8.0450  -13.6362   18.2342 C   0  0  0  0  0  0  0  0  0  0  0  0
    8.2733  -13.8320   16.7472 C   0  0  0  0  0  0  0  0  0  0  0  0
    8.4565  -12.5486   16.1176 N   0  0  0  0  0  0  0  0  0  0  0  0
    9.7072  -16.1102   21.1557 C   0  0  0  0  0  0  0  0  0  0  0  0
   10.2095  -16.4055   20.0439 O   0  0  0  0  0  0  0  0  0  0  0  0
   10.5731  -16.1083   22.2844 N   0  0  0  0  0  0  0  0  0  0  0  0
   11.9986  -16.3187   22.1127 C   0  0  0  0  0  0  0  0  0  0  0  0
   12.6877  -16.2832   23.3988 C   0  0  0  0  0  0  0  0  0  0  0  0
   11.9568  -16.2171   24.5699 O   0  0  0  0  0  0  0  0  0  0  0  0
   13.9375  -16.3119   23.4589 O   0  0  0  0  0  0  0  0  0  0  0  0
  2  3  2  0
  2  1  1  0
  4  3  1  0
  5  4  2  0
  6  5  1  0
  7  6  1  0
  7  9  1  0
  7  8  1  1
  9 10  2  0
 11  5  1  0
 11 12  2  0
 12  2  1  0
 13  9  1  0
 13 14  1  0
 14 15  1  6
 15 16  1  0
 17 16  1  0
 18 19  1  0
 18 17  1  0
 20 21  2  0
 20 14  1  0
 22 20  1  0
 23 24  1  0
 23 22  1  0
 24 25  1  0
 26 24  2  0
M  END
$$$$
