YKG.pdb
     RDKit          3D

 26 26  0  0  1  0  0  0  0  0999 V2000
    5.7581  -10.3131   27.6752 O   0  0  0  0  0  0  0  0  0  0  0  0
    6.2965  -11.4918   27.1839 C   0  0  0  0  0  0  0  0  0  0  0  0
    5.7140  -12.7209   27.4124 C   0  0  0  0  0  0  0  0  0  0  0  0
    6.2517  -13.8981   26.9216 C   0  0  0  0  0  0  0  0  0  0  0  0
    7.4179  -13.8711   26.1698 C   0  0  0  0  0  0  0  0  0  0  0  0
    8.0512  -15.0841   25.6129 C   0  0  0  0  0  0  0  0  0  0  0  0
    7.2336  -15.6822   24.4870 C   0  0  2  0  0  0  0  0  0  0  0  0
    6.3647  -16.7442   24.9748 N   0  0  0  0  0  0  0  0  0  0  0  0
    8.0697  -16.1817   23.3885 C   0  0  0  0  0  0  0  0  0  0  0  0
    8.4254  -17.3928   23.3918 O   0  0  0  0  0  0  0  0  0  0  0  0
    7.9945  -12.6415   25.9452 C   0  0  0  0  0  0  0  0  0  0  0  0
    7.4582  -11.4636   26.4351 C   0  0  0  0  0  0  0  0  0  0  0  0
    8.5210  -15.3894   22.2951 N   0  0  0  0  0  0  0  0  0  0  0  0
    9.5428  -15.8457   21.3737 C   0  0  1  0  0  0  0  0  0  0  0  0
    9.6275  -14.9106   20.2083 C   0  0  0  0  0  0  0  0  0  0  0  0
    8.4849  -15.0141   19.2529 C   0  0  0  0  0  0  0  0  0  0  0  0
    8.7113  -13.9896   18.1516 C   0  0  0  0  0  0  0  0  0  0  0  0
    7.6354  -14.0773   17.0855 C   0  0  0  0  0  0  0  0  0  0  0  0
    7.9000  -13.1033   16.0567 N   0  0  0  0  0  0  0  0  0  0  0  0
   10.8447  -16.0479   22.0517 C   0  0  0  0  0  0  0  0  0  0  0  0
   11.2103  -15.3787   23.0487 O   0  0  0  0  0  0  0  0  0  0  0  0
   11.7398  -17.0420   21.5677 N   0  0  0  0  0  0  0  0  0  0  0  0
   13.0288  -17.2378   22.2049 C   0  0  0  0  0  0  0  0  0  0  0  0
   13.8437  -18.1840   21.4493 C   0  0  0  0  0  0  0  0  0  0  0  0
   15.1427  -18.4424   21.8440 O   0  0  0  0  0  0  0  0  0  0  0  0
   13.3825  -18.7688   20.4435 O   0  0  0  0  0  0  0  0  0  0  0  0
  2  3  2  0
  2  1  1  0
  4  3  1  0
  5  4  2  0
  6  5  1  0
  7  6  1  0
  7  9  1  0
  7  8  1  1
  9 10  2  0
 11  5  1  0
 11 12  2  0
 12  2  1  0
 13  9  1  0
 13 14  1  0
 14 15  1  6
 15 16  1  0
 17 16  1  0
 18 19  1  0
 18 17  1  0
 20 21  2  0
 20 14  1  0
 22 20  1  0
 23 24  1  0
 23 22  1  0
 24 25  1  0
 26 24  2  0
M  END
$$$$
