YKG.pdb
     RDKit          3D

 26 26  0  0  1  0  0  0  0  0999 V2000
    5.6777  -10.8046   28.8927 O   0  0  0  0  0  0  0  0  0  0  0  0
    6.2711  -11.7328   28.0518 C   0  0  0  0  0  0  0  0  0  0  0  0
    5.7091  -12.1036   26.8481 C   0  0  0  0  0  0  0  0  0  0  0  0
    6.3017  -13.0306   26.0083 C   0  0  0  0  0  0  0  0  0  0  0  0
    7.5045  -13.6243   26.3643 C   0  0  0  0  0  0  0  0  0  0  0  0
    8.1968  -14.6208   25.5215 C   0  0  0  0  0  0  0  0  0  0  0  0
    7.2203  -15.5008   24.7692 C   0  0  2  0  0  0  0  0  0  0  0  0
    6.7699  -16.6123   25.5954 N   0  0  0  0  0  0  0  0  0  0  0  0
    7.7749  -16.0053   23.5069 C   0  0  0  0  0  0  0  0  0  0  0  0
    7.8020  -17.2509   23.3047 O   0  0  0  0  0  0  0  0  0  0  0  0
    8.0604  -13.2502   27.5667 C   0  0  0  0  0  0  0  0  0  0  0  0
    7.4692  -12.3236   28.4075 C   0  0  0  0  0  0  0  0  0  0  0  0
    8.2962  -15.1812   22.4697 N   0  0  0  0  0  0  0  0  0  0  0  0
    8.5509  -15.6812   21.1332 C   0  0  1  0  0  0  0  0  0  0  0  0
    8.2423  -14.6170   20.1273 C   0  0  0  0  0  0  0  0  0  0  0  0
    8.3725  -15.0576   18.7067 C   0  0  0  0  0  0  0  0  0  0  0  0
    8.3387  -13.8126   17.8334 C   0  0  0  0  0  0  0  0  0  0  0  0
    8.3400  -14.1714   16.3593 C   0  0  0  0  0  0  0  0  0  0  0  0
    8.2221  -12.9689   15.5736 N   0  0  0  0  0  0  0  0  0  0  0  0
    9.9231  -16.2245   21.0011 C   0  0  0  0  0  0  0  0  0  0  0  0
   10.3241  -16.8344   19.9799 O   0  0  0  0  0  0  0  0  0  0  0  0
   10.8480  -16.0594   22.0692 N   0  0  0  0  0  0  0  0  0  0  0  0
   12.1810  -16.6253   21.9762 C   0  0  0  0  0  0  0  0  0  0  0  0
   13.0905  -15.7047   21.3013 C   0  0  0  0  0  0  0  0  0  0  0  0
   14.4441  -15.7483   21.5772 O   0  0  0  0  0  0  0  0  0  0  0  0
   12.6621  -14.8713   20.4716 O   0  0  0  0  0  0  0  0  0  0  0  0
  2  3  2  0
  2  1  1  0
  4  3  1  0
  5  4  2  0
  6  5  1  0
  7  6  1  0
  7  9  1  0
  7  8  1  1
  9 10  2  0
 11  5  1  0
 11 12  2  0
 12  2  1  0
 13  9  1  0
 13 14  1  0
 14 15  1  6
 15 16  1  0
 17 16  1  0
 18 19  1  0
 18 17  1  0
 20 21  2  0
 20 14  1  0
 22 20  1  0
 23 24  1  0
 23 22  1  0
 24 25  1  0
 26 24  2  0
M  END
$$$$
