YKG.pdb
     RDKit          3D

 26 26  0  0  1  0  0  0  0  0999 V2000
    5.5640  -10.4836   27.3612 O   0  0  0  0  0  0  0  0  0  0  0  0
    6.0935  -11.7236   27.0409 C   0  0  0  0  0  0  0  0  0  0  0  0
    6.2224  -12.7338   27.9711 C   0  0  0  0  0  0  0  0  0  0  0  0
    6.7513  -13.9722   27.6512 C   0  0  0  0  0  0  0  0  0  0  0  0
    7.1751  -14.2353   26.3562 C   0  0  0  0  0  0  0  0  0  0  0  0
    7.7494  -15.5309   25.9390 C   0  0  0  0  0  0  0  0  0  0  0  0
    6.9285  -16.1880   24.8490 C   0  0  2  0  0  0  0  0  0  0  0  0
    6.4717  -17.5088   25.2585 N   0  0  0  0  0  0  0  0  0  0  0  0
    7.6543  -16.2797   23.5761 C   0  0  0  0  0  0  0  0  0  0  0  0
    8.3441  -17.3094   23.3375 O   0  0  0  0  0  0  0  0  0  0  0  0
    7.0439  -13.2233   25.4324 C   0  0  0  0  0  0  0  0  0  0  0  0
    6.5154  -11.9845   25.7505 C   0  0  0  0  0  0  0  0  0  0  0  0
    7.6407  -15.2755   22.5670 N   0  0  0  0  0  0  0  0  0  0  0  0
    8.6374  -15.2155   21.5162 C   0  0  1  0  0  0  0  0  0  0  0  0
    8.3350  -14.0746   20.5962 C   0  0  0  0  0  0  0  0  0  0  0  0
    7.7863  -14.4839   19.2693 C   0  0  0  0  0  0  0  0  0  0  0  0
    8.3633  -13.5432   18.2224 C   0  0  0  0  0  0  0  0  0  0  0  0
    7.8340  -13.8660   16.8377 C   0  0  0  0  0  0  0  0  0  0  0  0
    8.4930  -13.0299   15.8661 N   0  0  0  0  0  0  0  0  0  0  0  0
   10.0132  -15.1702   22.0645 C   0  0  0  0  0  0  0  0  0  0  0  0
   10.4378  -14.2267   22.7753 O   0  0  0  0  0  0  0  0  0  0  0  0
   10.9142  -16.2352   21.7858 N   0  0  0  0  0  0  0  0  0  0  0  0
   12.3116  -16.1282   22.1620 C   0  0  0  0  0  0  0  0  0  0  0  0
   13.0749  -17.2641   21.6547 C   0  0  0  0  0  0  0  0  0  0  0  0
   14.4457  -17.3041   21.8261 O   0  0  0  0  0  0  0  0  0  0  0  0
   12.5048  -18.2084   21.0632 O   0  0  0  0  0  0  0  0  0  0  0  0
  2  3  2  0
  2  1  1  0
  4  3  1  0
  5  4  2  0
  6  5  1  0
  7  6  1  0
  7  9  1  0
  7  8  1  1
  9 10  2  0
 11  5  1  0
 11 12  2  0
 12  2  1  0
 13  9  1  0
 13 14  1  0
 14 15  1  1
 15 16  1  0
 17 16  1  0
 18 19  1  0
 18 17  1  0
 20 21  2  0
 20 14  1  0
 22 20  1  0
 23 24  1  0
 23 22  1  0
 24 25  1  0
 26 24  2  0
M  END
$$$$
