YKG.pdb
     RDKit          3D

 26 26  0  0  1  0  0  0  0  0999 V2000
   10.2723  -14.6347   31.2447 O   0  0  0  0  0  0  0  0  0  0  0  0
   10.3589  -14.9528   29.8987 C   0  0  0  0  0  0  0  0  0  0  0  0
   11.0137  -16.0796   29.4471 C   0  0  0  0  0  0  0  0  0  0  0  0
   11.1002  -16.3973   28.1027 C   0  0  0  0  0  0  0  0  0  0  0  0
   10.5166  -15.5709   27.1527 C   0  0  0  0  0  0  0  0  0  0  0  0
   10.5666  -15.8432   25.7015 C   0  0  0  0  0  0  0  0  0  0  0  0
    9.2433  -16.3616   25.1780 C   0  0  2  0  0  0  0  0  0  0  0  0
    8.8545  -17.5903   25.8562 N   0  0  0  0  0  0  0  0  0  0  0  0
    9.2568  -16.5722   23.7251 C   0  0  0  0  0  0  0  0  0  0  0  0
    9.2104  -17.7513   23.2770 O   0  0  0  0  0  0  0  0  0  0  0  0
    9.8645  -14.4480   27.6095 C   0  0  0  0  0  0  0  0  0  0  0  0
    9.7772  -14.1289   28.9532 C   0  0  0  0  0  0  0  0  0  0  0  0
    9.3195  -15.5272   22.7602 N   0  0  0  0  0  0  0  0  0  0  0  0
    9.0463  -15.7498   21.3542 C   0  0  1  0  0  0  0  0  0  0  0  0
    8.0947  -14.7093   20.8526 C   0  0  0  0  0  0  0  0  0  0  0  0
    6.6620  -14.9812   21.1727 C   0  0  0  0  0  0  0  0  0  0  0  0
    6.2954  -16.3173   20.5447 C   0  0  0  0  0  0  0  0  0  0  0  0
    4.8347  -16.6549   20.7772 C   0  0  0  0  0  0  0  0  0  0  0  0
    4.5448  -17.9461   20.2062 N   0  0  0  0  0  0  0  0  0  0  0  0
   10.2928  -15.8290   20.5571 C   0  0  0  0  0  0  0  0  0  0  0  0
   10.3018  -15.9513   19.3079 O   0  0  0  0  0  0  0  0  0  0  0  0
   11.5516  -15.7655   21.2167 N   0  0  0  0  0  0  0  0  0  0  0  0
   12.7823  -15.8741   20.4554 C   0  0  0  0  0  0  0  0  0  0  0  0
   13.9404  -15.5869   21.2960 C   0  0  0  0  0  0  0  0  0  0  0  0
   15.0101  -14.8825   20.7768 O   0  0  0  0  0  0  0  0  0  0  0  0
   13.9809  -15.9705   22.4867 O   0  0  0  0  0  0  0  0  0  0  0  0
  2  3  2  0
  2  1  1  0
  4  3  1  0
  5  4  2  0
  6  5  1  0
  7  6  1  0
  7  9  1  0
  7  8  1  1
  9 10  2  0
 11  5  1  0
 11 12  2  0
 12  2  1  0
 13  9  1  0
 13 14  1  0
 14 15  1  6
 15 16  1  0
 17 16  1  0
 18 19  1  0
 18 17  1  0
 20 21  2  0
 20 14  1  0
 22 20  1  0
 23 24  1  0
 23 22  1  0
 24 25  1  0
 26 24  2  0
M  END
$$$$
