YKG.pdb
     RDKit          3D

 26 26  0  0  1  0  0  0  0  0999 V2000
    5.5766  -10.7469   27.9902 O   0  0  0  0  0  0  0  0  0  0  0  0
    6.1896  -11.7384   27.2407 C   0  0  0  0  0  0  0  0  0  0  0  0
    5.5936  -12.2993   26.1305 C   0  0  0  0  0  0  0  0  0  0  0  0
    6.2059  -13.2895   25.3819 C   0  0  0  0  0  0  0  0  0  0  0  0
    7.4644  -13.7540   25.7375 C   0  0  0  0  0  0  0  0  0  0  0  0
    8.1808  -14.8070   24.9889 C   0  0  0  0  0  0  0  0  0  0  0  0
    7.3222  -16.0376   24.7832 C   0  0  2  0  0  0  0  0  0  0  0  0
    7.1581  -16.7780   26.0265 N   0  0  0  0  0  0  0  0  0  0  0  0
    7.8490  -16.9227   23.7370 C   0  0  0  0  0  0  0  0  0  0  0  0
    8.6174  -17.8688   24.0653 O   0  0  0  0  0  0  0  0  0  0  0  0
    8.0540  -13.1903   26.8463 C   0  0  0  0  0  0  0  0  0  0  0  0
    7.4432  -12.2003   27.5958 C   0  0  0  0  0  0  0  0  0  0  0  0
    7.5545  -16.7947   22.3501 N   0  0  0  0  0  0  0  0  0  0  0  0
    8.4322  -17.3100   21.3180 C   0  0  1  0  0  0  0  0  0  0  0  0
    7.9145  -16.9162   19.9702 C   0  0  0  0  0  0  0  0  0  0  0  0
    8.6790  -17.4939   18.8253 C   0  0  0  0  0  0  0  0  0  0  0  0
    7.7145  -17.6499   17.6594 C   0  0  0  0  0  0  0  0  0  0  0  0
    8.3903  -18.2984   16.4660 C   0  0  0  0  0  0  0  0  0  0  0  0
    7.5063  -18.2477   15.3289 N   0  0  0  0  0  0  0  0  0  0  0  0
    9.8401  -16.9051   21.5401 C   0  0  0  0  0  0  0  0  0  0  0  0
   10.1786  -15.7329   21.8350 O   0  0  0  0  0  0  0  0  0  0  0  0
   10.8752  -17.8735   21.4190 N   0  0  0  0  0  0  0  0  0  0  0  0
   12.2665  -17.4722   21.5133 C   0  0  0  0  0  0  0  0  0  0  0  0
   13.1519  -18.6128   21.3005 C   0  0  0  0  0  0  0  0  0  0  0  0
   14.5221  -18.4403   21.3555 O   0  0  0  0  0  0  0  0  0  0  0  0
   12.6879  -19.7516   21.0677 O   0  0  0  0  0  0  0  0  0  0  0  0
  2  3  2  0
  2  1  1  0
  4  3  1  0
  5  4  2  0
  6  5  1  0
  7  6  1  0
  7  9  1  0
  7  8  1  1
  9 10  2  0
 11  5  1  0
 11 12  2  0
 12  2  1  0
 13  9  1  0
 13 14  1  0
 14 15  1  6
 15 16  1  0
 17 16  1  0
 18 19  1  0
 18 17  1  0
 20 21  2  0
 20 14  1  0
 22 20  1  0
 23 24  1  0
 23 22  1  0
 24 25  1  0
 26 24  2  0
M  END
$$$$
