YKG.pdb
     RDKit          3D

 26 26  0  0  1  0  0  0  0  0999 V2000
    5.5063  -10.4474   28.1799 O   0  0  0  0  0  0  0  0  0  0  0  0
    6.1618  -11.4485   27.4808 C   0  0  0  0  0  0  0  0  0  0  0  0
    7.2484  -12.1212   27.9998 C   0  0  0  0  0  0  0  0  0  0  0  0
    7.9030  -13.1210   27.3016 C   0  0  0  0  0  0  0  0  0  0  0  0
    7.4729  -13.4806   26.0321 C   0  0  0  0  0  0  0  0  0  0  0  0
    8.1196  -14.5365   25.2262 C   0  0  0  0  0  0  0  0  0  0  0  0
    7.1455  -15.6311   24.8429 C   0  0  2  0  0  0  0  0  0  0  0  0
    6.9986  -16.6039   25.9167 N   0  0  0  0  0  0  0  0  0  0  0  0
    7.5242  -16.3104   23.5977 C   0  0  0  0  0  0  0  0  0  0  0  0
    8.1423  -17.4089   23.6632 O   0  0  0  0  0  0  0  0  0  0  0  0
    6.3882  -12.8057   25.5196 C   0  0  0  0  0  0  0  0  0  0  0  0
    5.7325  -11.8058   26.2163 C   0  0  0  0  0  0  0  0  0  0  0  0
    7.2426  -15.8161   22.2927 N   0  0  0  0  0  0  0  0  0  0  0  0
    8.1822  -15.9374   21.1957 C   0  0  1  0  0  0  0  0  0  0  0  0
    7.8982  -14.8877   20.1674 C   0  0  0  0  0  0  0  0  0  0  0  0
    8.6864  -15.0322   18.9077 C   0  0  0  0  0  0  0  0  0  0  0  0
    8.1480  -14.0191   17.9089 C   0  0  0  0  0  0  0  0  0  0  0  0
    8.8215  -14.1639   16.5572 C   0  0  0  0  0  0  0  0  0  0  0  0
    8.1941  -13.2753   15.6118 N   0  0  0  0  0  0  0  0  0  0  0  0
    9.5861  -15.9214   21.6691 C   0  0  0  0  0  0  0  0  0  0  0  0
   10.0702  -14.9842   22.3495 O   0  0  0  0  0  0  0  0  0  0  0  0
   10.4457  -17.0091   21.3500 N   0  0  0  0  0  0  0  0  0  0  0  0
   11.8465  -16.9690   21.7269 C   0  0  0  0  0  0  0  0  0  0  0  0
   12.7039  -17.0227   20.5470 C   0  0  0  0  0  0  0  0  0  0  0  0
   12.1396  -17.1367   19.2905 O   0  0  0  0  0  0  0  0  0  0  0  0
   13.9496  -16.9670   20.6549 O   0  0  0  0  0  0  0  0  0  0  0  0
  2  3  2  0
  2  1  1  0
  4  3  1  0
  5  4  2  0
  6  5  1  0
  7  6  1  0
  7  9  1  0
  7  8  1  1
  9 10  2  0
 11  5  1  0
 11 12  2  0
 12  2  1  0
 13  9  1  0
 13 14  1  0
 14 15  1  6
 15 16  1  0
 17 16  1  0
 18 19  1  0
 18 17  1  0
 20 21  2  0
 20 14  1  0
 22 20  1  0
 23 24  1  0
 23 22  1  0
 24 25  1  0
 26 24  2  0
M  END
$$$$
