YKG.pdb
     RDKit          3D

 26 26  0  0  1  0  0  0  0  0999 V2000
    5.8397  -10.4488   28.6805 O   0  0  0  0  0  0  0  0  0  0  0  0
    6.4149  -11.4492   27.9132 C   0  0  0  0  0  0  0  0  0  0  0  0
    7.2577  -12.3995   28.4509 C   0  0  0  0  0  0  0  0  0  0  0  0
    7.8322  -13.3987   27.6846 C   0  0  0  0  0  0  0  0  0  0  0  0
    7.5689  -13.4716   26.3240 C   0  0  0  0  0  0  0  0  0  0  0  0
    8.1441  -14.5076   25.4417 C   0  0  0  0  0  0  0  0  0  0  0  0
    7.0705  -15.3501   24.7849 C   0  0  2  0  0  0  0  0  0  0  0  0
    6.6976  -16.4774   25.6281 N   0  0  0  0  0  0  0  0  0  0  0  0
    7.4655  -15.8271   23.4538 C   0  0  0  0  0  0  0  0  0  0  0  0
    7.3873  -17.0606   23.1975 O   0  0  0  0  0  0  0  0  0  0  0  0
    6.7271  -12.5205   25.7932 C   0  0  0  0  0  0  0  0  0  0  0  0
    6.1519  -11.5209   26.5580 C   0  0  0  0  0  0  0  0  0  0  0  0
    7.9406  -14.9887   22.4059 N   0  0  0  0  0  0  0  0  0  0  0  0
    7.8573  -15.3670   21.0091 C   0  0  1  0  0  0  0  0  0  0  0  0
    7.6504  -14.1480   20.1660 C   0  0  0  0  0  0  0  0  0  0  0  0
    7.2772  -14.4365   18.7495 C   0  0  0  0  0  0  0  0  0  0  0  0
    8.3845  -13.8902   17.8611 C   0  0  0  0  0  0  0  0  0  0  0  0
    8.1284  -14.2083   16.4000 C   0  0  0  0  0  0  0  0  0  0  0  0
    9.1464  -13.5888   15.5893 N   0  0  0  0  0  0  0  0  0  0  0  0
    9.0264  -16.1734   20.5866 C   0  0  0  0  0  0  0  0  0  0  0  0
    9.0884  -16.7652   19.4814 O   0  0  0  0  0  0  0  0  0  0  0  0
   10.1439  -16.2976   21.4581 N   0  0  0  0  0  0  0  0  0  0  0  0
   11.3339  -17.0060   21.0248 C   0  0  0  0  0  0  0  0  0  0  0  0
   12.3273  -16.0775   20.4945 C   0  0  0  0  0  0  0  0  0  0  0  0
   13.5854  -16.0165   21.0633 O   0  0  0  0  0  0  0  0  0  0  0  0
   12.0568  -15.3308   19.5272 O   0  0  0  0  0  0  0  0  0  0  0  0
  2  3  2  0
  2  1  1  0
  4  3  1  0
  5  4  2  0
  6  5  1  0
  7  6  1  0
  7  9  1  0
  7  8  1  1
  9 10  2  0
 11  5  1  0
 11 12  2  0
 12  2  1  0
 13  9  1  0
 13 14  1  0
 14 15  1  6
 15 16  1  0
 17 16  1  0
 18 19  1  0
 18 17  1  0
 20 21  2  0
 20 14  1  0
 22 20  1  0
 23 24  1  0
 23 22  1  0
 24 25  1  0
 26 24  2  0
M  END
$$$$
