YKG.pdb
     RDKit          3D

 26 26  0  0  1  0  0  0  0  0999 V2000
    5.2406  -10.6080   27.7395 O   0  0  0  0  0  0  0  0  0  0  0  0
    5.8967  -11.6858   27.1665 C   0  0  0  0  0  0  0  0  0  0  0  0
    6.1116  -11.7816   25.8074 C   0  0  0  0  0  0  0  0  0  0  0  0
    6.7669  -12.8582   25.2352 C   0  0  0  0  0  0  0  0  0  0  0  0
    7.2353  -13.8927   26.0329 C   0  0  0  0  0  0  0  0  0  0  0  0
    7.9430  -15.0732   25.4960 C   0  0  0  0  0  0  0  0  0  0  0  0
    7.1454  -15.7644   24.4097 C   0  0  2  0  0  0  0  0  0  0  0  0
    6.5148  -16.9774   24.9116 N   0  0  0  0  0  0  0  0  0  0  0  0
    7.9568  -16.0727   23.2257 C   0  0  0  0  0  0  0  0  0  0  0  0
    8.2559  -17.2751   22.9847 O   0  0  0  0  0  0  0  0  0  0  0  0
    7.0178  -13.7914   27.3883 C   0  0  0  0  0  0  0  0  0  0  0  0
    6.3629  -12.7158   27.9621 C   0  0  0  0  0  0  0  0  0  0  0  0
    8.4439  -15.1000   22.3074 N   0  0  0  0  0  0  0  0  0  0  0  0
    8.7862  -15.4268   20.9373 C   0  0  1  0  0  0  0  0  0  0  0  0
    8.5526  -14.2372   20.0597 C   0  0  0  0  0  0  0  0  0  0  0  0
    8.9956  -14.4202   18.6457 C   0  0  0  0  0  0  0  0  0  0  0  0
    7.9723  -13.7379   17.7506 C   0  0  0  0  0  0  0  0  0  0  0  0
    8.3274  -13.8971   16.2842 C   0  0  0  0  0  0  0  0  0  0  0  0
    7.3724  -13.1778   15.4794 N   0  0  0  0  0  0  0  0  0  0  0  0
   10.1610  -15.9682   20.8275 C   0  0  0  0  0  0  0  0  0  0  0  0
   10.6256  -16.4510   19.7661 O   0  0  0  0  0  0  0  0  0  0  0  0
   11.0140  -15.9508   21.9659 N   0  0  0  0  0  0  0  0  0  0  0  0
   12.3994  -16.3664   21.8480 C   0  0  0  0  0  0  0  0  0  0  0  0
   13.1317  -16.0894   23.0797 C   0  0  0  0  0  0  0  0  0  0  0  0
   14.4914  -16.3291   23.1410 O   0  0  0  0  0  0  0  0  0  0  0  0
   12.5449  -15.6355   24.0877 O   0  0  0  0  0  0  0  0  0  0  0  0
  2  3  2  0
  2  1  1  0
  4  3  1  0
  5  4  2  0
  6  5  1  0
  7  6  1  0
  7  9  1  0
  7  8  1  1
  9 10  2  0
 11  5  1  0
 11 12  2  0
 12  2  1  0
 13  9  1  0
 13 14  1  0
 14 15  1  6
 15 16  1  0
 17 16  1  0
 18 19  1  0
 18 17  1  0
 20 21  2  0
 20 14  1  0
 22 20  1  0
 23 24  1  0
 23 22  1  0
 24 25  1  0
 26 24  2  0
M  END
$$$$
