GEW.pdb
     RDKit          3D

 28 29  0  0  1  0  0  0  0  0999 V2000
    5.9816  -14.8596   20.4877 N   0  0  0  0  0  0  0  0  0  0  0  0
    7.4312  -14.7267   20.6483 C   0  0  0  0  0  0  0  0  0  0  0  0
    7.9721  -15.7794   21.5161 C   0  0  0  0  0  0  0  0  0  0  0  0
    7.2004  -16.5186   22.1826 O   0  0  0  0  0  0  0  0  0  0  0  0
    9.3888  -15.9658   21.6042 N   0  0  0  0  0  0  0  0  0  0  0  0
    9.9440  -16.9810   22.4159 C   0  0  1  0  0  0  0  0  0  0  0  0
   11.2556  -17.5644   22.0669 C   0  0  0  0  0  0  0  0  0  0  0  0
   11.5119  -17.9846   20.6772 C   0  0  0  0  0  0  0  0  0  0  0  0
   12.8053  -17.5741   20.1477 C   0  0  0  0  0  0  0  0  0  0  0  0
   13.0587  -16.6454   19.3745 O   0  0  0  0  0  0  0  0  0  0  0  0
   10.0854  -16.4159   23.8117 C   0  0  0  0  0  0  0  0  0  0  0  0
   10.6496  -15.2858   23.9602 O   0  0  0  0  0  0  0  0  0  0  0  0
   13.9262  -18.3323   20.5672 O   0  0  0  0  0  0  0  0  0  0  0  0
    9.6198  -17.0824   24.9631 N   0  0  0  0  0  0  0  0  0  0  0  0
    9.8911  -16.5192   26.2697 C   0  0  1  0  0  0  0  0  0  0  0  0
    8.6269  -16.4671   27.1109 C   0  0  0  0  0  0  0  0  0  0  0  0
    7.6552  -15.5705   26.4393 C   0  0  0  0  0  0  0  0  0  0  0  0
    6.5846  -15.9908   25.6785 C   0  0  0  0  0  0  0  0  0  0  0  0
    5.9552  -14.8899   25.2424 N   0  0  0  0  0  0  0  0  0  0  0  0
    6.5775  -13.7815   25.6917 C   0  0  0  0  0  0  0  0  0  0  0  0
    6.3065  -12.4318   25.5101 C   0  0  0  0  0  0  0  0  0  0  0  0
    7.1456  -11.5222   26.1108 C   0  0  0  0  0  0  0  0  0  0  0  0
    8.2221  -11.9277   26.8696 C   0  0  0  0  0  0  0  0  0  0  0  0
    8.4858  -13.2693   27.0456 C   0  0  0  0  0  0  0  0  0  0  0  0
    7.6402  -14.2058   26.4400 C   0  0  0  0  0  0  0  0  0  0  0  0
   10.9575  -17.2985   26.9344 C   0  0  0  0  0  0  0  0  0  0  0  0
   11.4130  -18.3240   26.3829 O   0  0  0  0  0  0  0  0  0  0  0  0
   11.4680  -16.9181   28.1598 O   0  0  0  0  0  0  0  0  0  0  0  0
  1  2  1  0
  3  4  2  0
  3  2  1  0
  5  3  1  0
  6  5  1  0
  6  7  1  6
  8  7  1  0
  9 13  1  0
  9  8  1  0
 10  9  2  0
 11  6  1  0
 11 12  2  0
 14 11  1  0
 15 14  1  0
 15 16  1  1
 17 16  1  0
 17 25  1  0
 18 19  1  0
 18 17  2  0
 19 20  1  0
 20 25  2  0
 20 21  1  0
 21 22  2  0
 22 23  1  0
 24 23  2  0
 25 24  1  0
 26 15  1  0
 26 28  1  0
 27 26  2  0
M  END
$$$$
