GEW.pdb
     RDKit          3D

 28 29  0  0  1  0  0  0  0  0999 V2000
    5.6918  -14.9857   20.5491 N   0  0  0  0  0  0  0  0  0  0  0  0
    7.1308  -14.7248   20.6284 C   0  0  0  0  0  0  0  0  0  0  0  0
    7.8044  -15.6998   21.4942 C   0  0  0  0  0  0  0  0  0  0  0  0
    7.1714  -16.2849   22.4124 O   0  0  0  0  0  0  0  0  0  0  0  0
    9.1923  -15.9863   21.2918 N   0  0  0  0  0  0  0  0  0  0  0  0
    9.8713  -16.9251   22.1014 C   0  0  1  0  0  0  0  0  0  0  0  0
   11.1535  -17.4979   21.6430 C   0  0  0  0  0  0  0  0  0  0  0  0
   11.2774  -17.9685   20.2513 C   0  0  0  0  0  0  0  0  0  0  0  0
   12.6477  -18.1436   19.7895 C   0  0  0  0  0  0  0  0  0  0  0  0
   13.4713  -18.9962   20.1348 O   0  0  0  0  0  0  0  0  0  0  0  0
   10.1518  -16.2567   23.4288 C   0  0  0  0  0  0  0  0  0  0  0  0
   10.8889  -15.2204   23.4485 O   0  0  0  0  0  0  0  0  0  0  0  0
   13.1068  -17.2206   18.8176 O   0  0  0  0  0  0  0  0  0  0  0  0
    9.6340  -16.7270   24.6524 N   0  0  0  0  0  0  0  0  0  0  0  0
   10.3490  -16.4494   25.8811 C   0  0  1  0  0  0  0  0  0  0  0  0
    9.9948  -15.0719   26.4155 C   0  0  0  0  0  0  0  0  0  0  0  0
    8.5373  -14.8629   26.2395 C   0  0  0  0  0  0  0  0  0  0  0  0
    7.6216  -15.8577   25.9682 C   0  0  0  0  0  0  0  0  0  0  0  0
    6.4192  -15.2712   25.8748 N   0  0  0  0  0  0  0  0  0  0  0  0
    6.5257  -13.9421   26.0749 C   0  0  0  0  0  0  0  0  0  0  0  0
    5.5762  -12.9290   26.0766 C   0  0  0  0  0  0  0  0  0  0  0  0
    6.0079  -11.6453   26.3174 C   0  0  0  0  0  0  0  0  0  0  0  0
    7.3368  -11.3644   26.5502 C   0  0  0  0  0  0  0  0  0  0  0  0
    8.2745  -12.3750   26.5467 C   0  0  0  0  0  0  0  0  0  0  0  0
    7.8492  -13.6859   26.3030 C   0  0  0  0  0  0  0  0  0  0  0  0
   10.0635  -17.5094   26.8718 C   0  0  0  0  0  0  0  0  0  0  0  0
   10.5694  -17.4451   28.0133 O   0  0  0  0  0  0  0  0  0  0  0  0
    9.2442  -18.5778   26.5650 O   0  0  0  0  0  0  0  0  0  0  0  0
  1  2  1  0
  3  4  2  0
  3  2  1  0
  5  3  1  0
  6  5  1  0
  6  7  1  6
  8  7  1  0
  9 13  1  0
  9  8  1  0
 10  9  2  0
 11  6  1  0
 11 12  2  0
 14 11  1  0
 15 14  1  0
 15 16  1  1
 17 16  1  0
 17 25  1  0
 18 19  1  0
 18 17  2  0
 19 20  1  0
 20 25  2  0
 20 21  1  0
 21 22  2  0
 22 23  1  0
 24 23  2  0
 25 24  1  0
 26 15  1  0
 26 28  1  0
 27 26  2  0
M  END
$$$$
