GEW.pdb
     RDKit          3D

 28 29  0  0  1  0  0  0  0  0999 V2000
    8.0938  -16.3978   17.1668 N   0  0  0  0  0  0  0  0  0  0  0  0
    9.1990  -16.2965   18.1225 C   0  0  0  0  0  0  0  0  0  0  0  0
    8.7155  -16.3491   19.5071 C   0  0  0  0  0  0  0  0  0  0  0  0
    8.0659  -15.3867   19.9951 O   0  0  0  0  0  0  0  0  0  0  0  0
    8.9856  -17.5046   20.3079 N   0  0  0  0  0  0  0  0  0  0  0  0
    8.5428  -17.5861   21.6477 C   0  0  1  0  0  0  0  0  0  0  0  0
    7.8743  -18.8136   22.1262 C   0  0  0  0  0  0  0  0  0  0  0  0
    7.3763  -18.8706   23.5126 C   0  0  0  0  0  0  0  0  0  0  0  0
    6.8658  -20.1722   23.9211 C   0  0  0  0  0  0  0  0  0  0  0  0
    5.7049  -20.5903   23.8762 O   0  0  0  0  0  0  0  0  0  0  0  0
    9.7507  -17.3834   22.5352 C   0  0  0  0  0  0  0  0  0  0  0  0
   10.4562  -18.3940   22.8487 O   0  0  0  0  0  0  0  0  0  0  0  0
    7.8161  -21.0861   24.4399 O   0  0  0  0  0  0  0  0  0  0  0  0
   10.1362  -16.1231   23.0348 N   0  0  0  0  0  0  0  0  0  0  0  0
    9.3995  -15.5391   24.1367 C   0  0  1  0  0  0  0  0  0  0  0  0
    7.9776  -15.2019   23.7203 C   0  0  0  0  0  0  0  0  0  0  0  0
    7.2969  -14.5514   24.8659 C   0  0  0  0  0  0  0  0  0  0  0  0
    6.5167  -15.2033   25.7976 C   0  0  0  0  0  0  0  0  0  0  0  0
    6.0780  -14.2763   26.6616 N   0  0  0  0  0  0  0  0  0  0  0  0
    6.5442  -13.0574   26.3228 C   0  0  0  0  0  0  0  0  0  0  0  0
    6.3671  -11.8072   26.9003 C   0  0  0  0  0  0  0  0  0  0  0  0
    6.9867  -10.7323   26.3062 C   0  0  0  0  0  0  0  0  0  0  0  0
    7.7596  -10.8817   25.1750 C   0  0  0  0  0  0  0  0  0  0  0  0
    7.9310  -12.1258   24.6065 C   0  0  0  0  0  0  0  0  0  0  0  0
    7.3062  -13.2283   25.2005 C   0  0  0  0  0  0  0  0  0  0  0  0
    9.4259  -16.4587   25.2942 C   0  0  0  0  0  0  0  0  0  0  0  0
    9.8001  -16.0403   26.4114 O   0  0  0  0  0  0  0  0  0  0  0  0
    9.0435  -17.7799   25.1711 O   0  0  0  0  0  0  0  0  0  0  0  0
  1  2  1  0
  3  4  2  0
  3  2  1  0
  5  3  1  0
  6  5  1  0
  6  7  1  6
  8  7  1  0
  9 13  1  0
  9  8  1  0
 10  9  2  0
 11  6  1  0
 11 12  2  0
 14 11  1  0
 15 14  1  0
 15 16  1  6
 17 16  1  0
 17 25  1  0
 18 19  1  0
 18 17  2  0
 19 20  1  0
 20 25  2  0
 20 21  1  0
 21 22  2  0
 22 23  1  0
 24 23  2  0
 25 24  1  0
 26 15  1  0
 26 28  1  0
 27 26  2  0
M  END
$$$$
