GEW.pdb
     RDKit          3D

 28 29  0  0  1  0  0  0  0  0999 V2000
    6.0431  -16.6999   19.3897 N   0  0  0  0  0  0  0  0  0  0  0  0
    7.1719  -15.8968   19.8650 C   0  0  0  0  0  0  0  0  0  0  0  0
    7.9607  -16.6230   20.8672 C   0  0  0  0  0  0  0  0  0  0  0  0
    7.6504  -17.7983   21.1968 O   0  0  0  0  0  0  0  0  0  0  0  0
    9.0915  -15.9883   21.4738 N   0  0  0  0  0  0  0  0  0  0  0  0
   10.1047  -16.7457   22.1042 C   0  0  1  0  0  0  0  0  0  0  0  0
   11.4870  -16.6978   21.5854 C   0  0  0  0  0  0  0  0  0  0  0  0
   12.4753  -17.6773   22.0726 C   0  0  0  0  0  0  0  0  0  0  0  0
   13.4470  -18.1062   21.0758 C   0  0  0  0  0  0  0  0  0  0  0  0
   13.5454  -17.7519   19.8972 O   0  0  0  0  0  0  0  0  0  0  0  0
   10.1735  -16.2952   23.5464 C   0  0  0  0  0  0  0  0  0  0  0  0
   10.8320  -15.2444   23.8285 O   0  0  0  0  0  0  0  0  0  0  0  0
   14.4097  -19.0541   21.5028 O   0  0  0  0  0  0  0  0  0  0  0  0
    9.5400  -16.9851   24.5997 N   0  0  0  0  0  0  0  0  0  0  0  0
    9.8127  -16.5986   25.9687 C   0  0  1  0  0  0  0  0  0  0  0  0
    8.5408  -16.6127   26.7998 C   0  0  0  0  0  0  0  0  0  0  0  0
    7.5895  -15.6371   26.2149 C   0  0  0  0  0  0  0  0  0  0  0  0
    6.5521  -15.9550   25.3637 C   0  0  0  0  0  0  0  0  0  0  0  0
    5.9323  -14.8073   25.0525 N   0  0  0  0  0  0  0  0  0  0  0  0
    6.5289  -13.7669   25.6685 C   0  0  0  0  0  0  0  0  0  0  0  0
    6.2555  -12.4056   25.6562 C   0  0  0  0  0  0  0  0  0  0  0  0
    7.0642  -11.5818   26.4044 C   0  0  0  0  0  0  0  0  0  0  0  0
    8.1134  -12.0821   27.1446 C   0  0  0  0  0  0  0  0  0  0  0  0
    8.3796  -13.4347   27.1521 C   0  0  0  0  0  0  0  0  0  0  0  0
    7.5648  -14.2845   26.3953 C   0  0  0  0  0  0  0  0  0  0  0  0
   10.8473  -17.4880   26.5388 C   0  0  0  0  0  0  0  0  0  0  0  0
   11.2745  -18.4532   25.8686 O   0  0  0  0  0  0  0  0  0  0  0  0
   11.3585  -17.2769   27.8041 O   0  0  0  0  0  0  0  0  0  0  0  0
  1  2  1  0
  3  4  2  0
  3  2  1  0
  5  3  1  0
  6  5  1  0
  6  7  1  6
  8  7  1  0
  9 13  1  0
  9  8  1  0
 10  9  2  0
 11  6  1  0
 11 12  2  0
 14 11  1  0
 15 14  1  0
 15 16  1  1
 17 16  1  0
 17 25  1  0
 18 19  1  0
 18 17  2  0
 19 20  1  0
 20 25  2  0
 20 21  1  0
 21 22  2  0
 22 23  1  0
 24 23  2  0
 25 24  1  0
 26 15  1  0
 26 28  1  0
 27 26  2  0
M  END
$$$$
