GEW.pdb
     RDKit          3D

 28 29  0  0  1  0  0  0  0  0999 V2000
    6.0652  -14.9265   19.9995 N   0  0  0  0  0  0  0  0  0  0  0  0
    7.1474  -14.3864   20.8254 C   0  0  0  0  0  0  0  0  0  0  0  0
    7.8481  -15.4514   21.5524 C   0  0  0  0  0  0  0  0  0  0  0  0
    7.2497  -16.1278   22.4302 O   0  0  0  0  0  0  0  0  0  0  0  0
    9.2232  -15.7218   21.2599 N   0  0  0  0  0  0  0  0  0  0  0  0
    9.9559  -16.6741   22.0041 C   0  0  1  0  0  0  0  0  0  0  0  0
   11.2466  -17.1738   21.4876 C   0  0  0  0  0  0  0  0  0  0  0  0
   11.9533  -18.2401   22.2205 C   0  0  0  0  0  0  0  0  0  0  0  0
   12.6519  -19.1980   21.3742 C   0  0  0  0  0  0  0  0  0  0  0  0
   13.5303  -18.9825   20.5337 O   0  0  0  0  0  0  0  0  0  0  0  0
   10.2446  -16.0639   23.3577 C   0  0  0  0  0  0  0  0  0  0  0  0
   11.0283  -15.0646   23.4238 O   0  0  0  0  0  0  0  0  0  0  0  0
   12.2834  -20.5576   21.5261 O   0  0  0  0  0  0  0  0  0  0  0  0
    9.6847  -16.5498   24.5565 N   0  0  0  0  0  0  0  0  0  0  0  0
   10.3739  -16.3169   25.8090 C   0  0  1  0  0  0  0  0  0  0  0  0
    9.9887  -14.9701   26.3977 C   0  0  0  0  0  0  0  0  0  0  0  0
    8.5339  -14.7691   26.1923 C   0  0  0  0  0  0  0  0  0  0  0  0
    7.6267  -15.7711   25.9193 C   0  0  0  0  0  0  0  0  0  0  0  0
    6.4242  -15.1905   25.7955 N   0  0  0  0  0  0  0  0  0  0  0  0
    6.5226  -13.8582   25.9776 C   0  0  0  0  0  0  0  0  0  0  0  0
    5.5698  -12.8486   25.9470 C   0  0  0  0  0  0  0  0  0  0  0  0
    5.9927  -11.5599   26.1764 C   0  0  0  0  0  0  0  0  0  0  0  0
    7.3163  -11.2708   26.4290 C   0  0  0  0  0  0  0  0  0  0  0  0
    8.2572  -12.2779   26.4575 C   0  0  0  0  0  0  0  0  0  0  0  0
    7.8409  -13.5938   26.2258 C   0  0  0  0  0  0  0  0  0  0  0  0
   10.0880  -17.4243   26.7461 C   0  0  0  0  0  0  0  0  0  0  0  0
   10.5542  -17.3926   27.9058 O   0  0  0  0  0  0  0  0  0  0  0  0
    9.3114  -18.5021   26.3692 O   0  0  0  0  0  0  0  0  0  0  0  0
  1  2  1  0
  3  4  2  0
  3  2  1  0
  5  3  1  0
  6  5  1  0
  6  7  1  6
  8  7  1  0
  9 13  1  0
  9  8  1  0
 10  9  2  0
 11  6  1  0
 11 12  2  0
 14 11  1  0
 15 14  1  0
 15 16  1  1
 17 16  1  0
 17 25  1  0
 18 19  1  0
 18 17  2  0
 19 20  1  0
 20 25  2  0
 20 21  1  0
 21 22  2  0
 22 23  1  0
 24 23  2  0
 25 24  1  0
 26 15  1  0
 26 28  1  0
 27 26  2  0
M  END
$$$$
