GEW.pdb
     RDKit          3D

 28 29  0  0  1  0  0  0  0  0999 V2000
    7.0546  -15.4423   19.6770 N   0  0  0  0  0  0  0  0  0  0  0  0
    8.2550  -15.0006   20.3903 C   0  0  0  0  0  0  0  0  0  0  0  0
    8.7360  -16.0314   21.3176 C   0  0  0  0  0  0  0  0  0  0  0  0
    7.9299  -16.8390   21.8507 O   0  0  0  0  0  0  0  0  0  0  0  0
   10.1332  -16.1177   21.6173 N   0  0  0  0  0  0  0  0  0  0  0  0
   10.6303  -17.0900   22.5147 C   0  0  1  0  0  0  0  0  0  0  0  0
   12.0336  -17.5389   22.4069 C   0  0  0  0  0  0  0  0  0  0  0  0
   12.5945  -17.8415   21.0775 C   0  0  0  0  0  0  0  0  0  0  0  0
   14.0479  -17.9284   21.0374 C   0  0  0  0  0  0  0  0  0  0  0  0
   14.7725  -18.8543   21.4144 O   0  0  0  0  0  0  0  0  0  0  0  0
   10.4638  -16.5397   23.9137 C   0  0  0  0  0  0  0  0  0  0  0  0
   11.0371  -15.4447   24.2129 O   0  0  0  0  0  0  0  0  0  0  0  0
   14.7304  -16.8101   20.4978 O   0  0  0  0  0  0  0  0  0  0  0  0
    9.7000  -17.1832   24.9083 N   0  0  0  0  0  0  0  0  0  0  0  0
    9.6839  -16.6442   26.2527 C   0  0  1  0  0  0  0  0  0  0  0  0
    8.2675  -16.5959   26.8006 C   0  0  0  0  0  0  0  0  0  0  0  0
    7.4801  -15.6464   25.9776 C   0  0  0  0  0  0  0  0  0  0  0  0
    6.7715  -15.9807   24.8428 C   0  0  0  0  0  0  0  0  0  0  0  0
    6.2056  -14.8540   24.3858 N   0  0  0  0  0  0  0  0  0  0  0  0
    6.5219  -13.8115   25.1800 C   0  0  0  0  0  0  0  0  0  0  0  0
    6.1816  -12.4667   25.1187 C   0  0  0  0  0  0  0  0  0  0  0  0
    6.6729  -11.6350   26.0982 C   0  0  0  0  0  0  0  0  0  0  0  0
    7.4769  -12.1118   27.1108 C   0  0  0  0  0  0  0  0  0  0  0  0
    7.8112  -13.4481   27.1656 C   0  0  0  0  0  0  0  0  0  0  0  0
    7.3184  -14.3057   26.1754 C   0  0  0  0  0  0  0  0  0  0  0  0
   10.5773  -17.4432   27.1185 C   0  0  0  0  0  0  0  0  0  0  0  0
   11.1192  -18.4757   26.6672 O   0  0  0  0  0  0  0  0  0  0  0  0
   10.8309  -17.0740   28.4247 O   0  0  0  0  0  0  0  0  0  0  0  0
  1  2  1  0
  3  4  2  0
  3  2  1  0
  5  3  1  0
  6  5  1  0
  6  7  1  6
  8  7  1  0
  9 13  1  0
  9  8  1  0
 10  9  2  0
 11  6  1  0
 11 12  2  0
 14 11  1  0
 15 14  1  0
 15 16  1  1
 17 16  1  0
 17 25  1  0
 18 19  1  0
 18 17  2  0
 19 20  1  0
 20 25  2  0
 20 21  1  0
 21 22  2  0
 22 23  1  0
 24 23  2  0
 25 24  1  0
 26 15  1  0
 26 28  1  0
 27 26  2  0
M  END
$$$$
