GEW.pdb
     RDKit          3D

 28 29  0  0  1  0  0  0  0  0999 V2000
    5.8971  -17.1918   20.1662 N   0  0  0  0  0  0  0  0  0  0  0  0
    6.1401  -16.2986   21.3012 C   0  0  0  0  0  0  0  0  0  0  0  0
    7.3918  -16.6359   21.9890 C   0  0  0  0  0  0  0  0  0  0  0  0
    7.3906  -17.4288   22.9675 O   0  0  0  0  0  0  0  0  0  0  0  0
    8.6230  -16.0577   21.5426 N   0  0  0  0  0  0  0  0  0  0  0  0
    9.8595  -16.4409   22.1101 C   0  0  1  0  0  0  0  0  0  0  0  0
   11.1219  -15.9654   21.5080 C   0  0  0  0  0  0  0  0  0  0  0  0
   12.4060  -16.4475   22.0487 C   0  0  0  0  0  0  0  0  0  0  0  0
   13.4101  -16.7596   21.0407 C   0  0  0  0  0  0  0  0  0  0  0  0
   13.6109  -16.2009   19.9581 O   0  0  0  0  0  0  0  0  0  0  0  0
    9.8642  -15.9643   23.5455 C   0  0  0  0  0  0  0  0  0  0  0  0
    9.9951  -14.7206   23.7769 O   0  0  0  0  0  0  0  0  0  0  0  0
   14.2747  -17.8445   21.3288 O   0  0  0  0  0  0  0  0  0  0  0  0
    9.7294  -16.8343   24.6461 N   0  0  0  0  0  0  0  0  0  0  0  0
    9.9800  -16.3350   25.9825 C   0  0  1  0  0  0  0  0  0  0  0  0
    8.7507  -16.4956   26.8609 C   0  0  0  0  0  0  0  0  0  0  0  0
    7.6853  -15.6046   26.3414 C   0  0  0  0  0  0  0  0  0  0  0  0
    6.5697  -16.0246   25.6479 C   0  0  0  0  0  0  0  0  0  0  0  0
    5.8573  -14.9290   25.3473 N   0  0  0  0  0  0  0  0  0  0  0  0
    6.4695  -13.8241   25.8189 C   0  0  0  0  0  0  0  0  0  0  0  0
    6.1258  -12.4802   25.7579 C   0  0  0  0  0  0  0  0  0  0  0  0
    6.9757  -11.5730   26.3471 C   0  0  0  0  0  0  0  0  0  0  0  0
    8.1323  -11.9755   26.9792 C   0  0  0  0  0  0  0  0  0  0  0  0
    8.4677  -13.3114   27.0359 C   0  0  0  0  0  0  0  0  0  0  0  0
    7.6121  -14.2453   26.4405 C   0  0  0  0  0  0  0  0  0  0  0  0
   11.1555  -17.0236   26.5573 C   0  0  0  0  0  0  0  0  0  0  0  0
   11.5865  -16.6838   27.6807 O   0  0  0  0  0  0  0  0  0  0  0  0
   11.7947  -18.0421   25.8783 O   0  0  0  0  0  0  0  0  0  0  0  0
  1  2  1  0
  3  4  2  0
  3  2  1  0
  5  3  1  0
  6  5  1  0
  6  7  1  6
  8  7  1  0
  9 13  1  0
  9  8  1  0
 10  9  2  0
 11  6  1  0
 11 12  2  0
 14 11  1  0
 15 14  1  0
 15 16  1  1
 17 16  1  0
 17 25  1  0
 18 19  1  0
 18 17  2  0
 19 20  1  0
 20 25  2  0
 20 21  1  0
 21 22  2  0
 22 23  1  0
 24 23  2  0
 25 24  1  0
 26 15  1  0
 26 28  1  0
 27 26  2  0
M  END
$$$$
