GEW.pdb
     RDKit          3D

 28 29  0  0  1  0  0  0  0  0999 V2000
    5.7458  -15.8218   20.4987 N   0  0  0  0  0  0  0  0  0  0  0  0
    7.0360  -15.1849   20.7718 C   0  0  0  0  0  0  0  0  0  0  0  0
    7.9073  -16.0597   21.5651 C   0  0  0  0  0  0  0  0  0  0  0  0
    7.4239  -17.0211   22.2195 O   0  0  0  0  0  0  0  0  0  0  0  0
    9.3177  -15.8164   21.5939 N   0  0  0  0  0  0  0  0  0  0  0  0
   10.1878  -16.6439   22.3396 C   0  0  1  0  0  0  0  0  0  0  0  0
   11.6283  -16.6767   22.0134 C   0  0  0  0  0  0  0  0  0  0  0  0
   12.4958  -17.6686   22.6744 C   0  0  0  0  0  0  0  0  0  0  0  0
   13.5684  -18.1900   21.8382 C   0  0  0  0  0  0  0  0  0  0  0  0
   14.6782  -17.6964   21.6166 O   0  0  0  0  0  0  0  0  0  0  0  0
   10.0869  -16.2166   23.7869 C   0  0  0  0  0  0  0  0  0  0  0  0
   10.4152  -15.0281   24.0984 O   0  0  0  0  0  0  0  0  0  0  0  0
   13.3167  -19.4238   21.1888 O   0  0  0  0  0  0  0  0  0  0  0  0
    9.6439  -17.0743   24.8139 N   0  0  0  0  0  0  0  0  0  0  0  0
    9.7561  -16.6489   26.1939 C   0  0  1  0  0  0  0  0  0  0  0  0
    8.3975  -16.6510   26.8743 C   0  0  0  0  0  0  0  0  0  0  0  0
    7.5499  -15.6196   26.2288 C   0  0  0  0  0  0  0  0  0  0  0  0
    6.5184  -15.8781   25.3507 C   0  0  0  0  0  0  0  0  0  0  0  0
    6.0061  -14.6938   24.9855 N   0  0  0  0  0  0  0  0  0  0  0  0
    6.6660  -13.6870   25.5926 C   0  0  0  0  0  0  0  0  0  0  0  0
    6.5066  -12.3089   25.5323 C   0  0  0  0  0  0  0  0  0  0  0  0
    7.3555  -11.5311   26.2851 C   0  0  0  0  0  0  0  0  0  0  0  0
    8.3348  -12.0921   27.0759 C   0  0  0  0  0  0  0  0  0  0  0  0
    8.4879  -13.4611   27.1309 C   0  0  0  0  0  0  0  0  0  0  0  0
    7.6311  -14.2646   26.3700 C   0  0  0  0  0  0  0  0  0  0  0  0
   10.7232  -17.5140   26.9029 C   0  0  0  0  0  0  0  0  0  0  0  0
   11.2528  -18.4748   26.3032 O   0  0  0  0  0  0  0  0  0  0  0  0
   11.0595  -17.2848   28.2224 O   0  0  0  0  0  0  0  0  0  0  0  0
  1  2  1  0
  3  4  2  0
  3  2  1  0
  5  3  1  0
  6  5  1  0
  6  7  1  6
  8  7  1  0
  9 13  1  0
  9  8  1  0
 10  9  2  0
 11  6  1  0
 11 12  2  0
 14 11  1  0
 15 14  1  0
 15 16  1  1
 17 16  1  0
 17 25  1  0
 18 19  1  0
 18 17  2  0
 19 20  1  0
 20 25  2  0
 20 21  1  0
 21 22  2  0
 22 23  1  0
 24 23  2  0
 25 24  1  0
 26 15  1  0
 26 28  1  0
 27 26  2  0
M  END
$$$$
