GEW.pdb
     RDKit          3D

 28 29  0  0  1  0  0  0  0  0999 V2000
   13.6234  -15.6570   19.7757 N   0  0  0  0  0  0  0  0  0  0  0  0
   12.2349  -15.4892   19.3408 C   0  0  0  0  0  0  0  0  0  0  0  0
   11.3045  -15.5881   20.4714 C   0  0  0  0  0  0  0  0  0  0  0  0
   10.8756  -14.5494   21.0400 O   0  0  0  0  0  0  0  0  0  0  0  0
   10.8824  -16.8769   20.9303 N   0  0  0  0  0  0  0  0  0  0  0  0
    9.8186  -17.0135   21.8508 C   0  0  1  0  0  0  0  0  0  0  0  0
    9.0009  -18.2438   21.8500 C   0  0  0  0  0  0  0  0  0  0  0  0
    8.4290  -18.7295   20.5809 C   0  0  0  0  0  0  0  0  0  0  0  0
    8.7424  -20.1165   20.2653 C   0  0  0  0  0  0  0  0  0  0  0  0
    9.4309  -20.9138   20.9093 O   0  0  0  0  0  0  0  0  0  0  0  0
   10.4052  -16.8910   23.2396 C   0  0  0  0  0  0  0  0  0  0  0  0
   11.5620  -17.3712   23.4598 O   0  0  0  0  0  0  0  0  0  0  0  0
    8.1913  -20.6286   19.0647 O   0  0  0  0  0  0  0  0  0  0  0  0
    9.7304  -16.2671   24.3082 N   0  0  0  0  0  0  0  0  0  0  0  0
   10.3549  -16.2216   25.6143 C   0  0  1  0  0  0  0  0  0  0  0  0
    9.9852  -14.9435   26.3480 C   0  0  0  0  0  0  0  0  0  0  0  0
    8.5249  -14.7285   26.2058 C   0  0  0  0  0  0  0  0  0  0  0  0
    7.5915  -15.7270   26.0228 C   0  0  0  0  0  0  0  0  0  0  0  0
    6.3924  -15.1334   25.9326 N   0  0  0  0  0  0  0  0  0  0  0  0
    6.5181  -13.7962   26.0500 C   0  0  0  0  0  0  0  0  0  0  0  0
    5.5788  -12.7739   26.0214 C   0  0  0  0  0  0  0  0  0  0  0  0
    6.0302  -11.4832   26.1719 C   0  0  0  0  0  0  0  0  0  0  0  0
    7.3686  -11.2043   26.3458 C   0  0  0  0  0  0  0  0  0  0  0  0
    8.2959  -12.2240   26.3729 C   0  0  0  0  0  0  0  0  0  0  0  0
    7.8506  -13.5421   26.2209 C   0  0  0  0  0  0  0  0  0  0  0  0
    9.9766  -17.4239   26.3874 C   0  0  0  0  0  0  0  0  0  0  0  0
   10.4652  -17.6113   27.5229 O   0  0  0  0  0  0  0  0  0  0  0  0
    9.0887  -18.3531   25.8823 O   0  0  0  0  0  0  0  0  0  0  0  0
  1  2  1  0
  3  4  2  0
  3  2  1  0
  5  3  1  0
  6  5  1  0
  6  7  1  1
  8  7  1  0
  9 13  1  0
  9  8  1  0
 10  9  2  0
 11  6  1  0
 11 12  2  0
 14 11  1  0
 15 14  1  0
 15 16  1  1
 17 16  1  0
 17 25  1  0
 18 19  1  0
 18 17  2  0
 19 20  1  0
 20 25  2  0
 20 21  1  0
 21 22  2  0
 22 23  1  0
 24 23  2  0
 25 24  1  0
 26 15  1  0
 26 28  1  0
 27 26  2  0
M  END
$$$$
