GEW.pdb
     RDKit          3D

 28 29  0  0  1  0  0  0  0  0999 V2000
    5.8832  -19.7713   22.9972 N   0  0  0  0  0  0  0  0  0  0  0  0
    6.2432  -18.3587   22.8562 C   0  0  0  0  0  0  0  0  0  0  0  0
    7.6626  -18.1359   23.1555 C   0  0  0  0  0  0  0  0  0  0  0  0
    8.2364  -18.7949   24.0624 O   0  0  0  0  0  0  0  0  0  0  0  0
    8.3989  -17.1609   22.4093 N   0  0  0  0  0  0  0  0  0  0  0  0
    9.7395  -16.8515   22.7328 C   0  0  1  0  0  0  0  0  0  0  0  0
   10.5378  -16.0058   21.8218 C   0  0  0  0  0  0  0  0  0  0  0  0
   11.9807  -15.8368   22.0725 C   0  0  0  0  0  0  0  0  0  0  0  0
   12.8344  -16.1373   20.9312 C   0  0  0  0  0  0  0  0  0  0  0  0
   12.5046  -16.3503   19.7606 O   0  0  0  0  0  0  0  0  0  0  0  0
    9.7296  -16.1470   24.0712 C   0  0  0  0  0  0  0  0  0  0  0  0
    9.6301  -14.8794   24.0949 O   0  0  0  0  0  0  0  0  0  0  0  0
   14.2270  -16.1962   21.1854 O   0  0  0  0  0  0  0  0  0  0  0  0
    9.8251  -16.8291   25.3010 N   0  0  0  0  0  0  0  0  0  0  0  0
   10.1654  -16.0904   26.4995 C   0  0  1  0  0  0  0  0  0  0  0  0
    9.0005  -16.0727   27.4748 C   0  0  0  0  0  0  0  0  0  0  0  0
    7.8589  -15.3826   26.8271 C   0  0  0  0  0  0  0  0  0  0  0  0
    6.8175  -16.0122   26.1784 C   0  0  0  0  0  0  0  0  0  0  0  0
    5.9976  -15.0523   25.7260 N   0  0  0  0  0  0  0  0  0  0  0  0
    6.4698  -13.8337   26.0574 C   0  0  0  0  0  0  0  0  0  0  0  0
    5.9818  -12.5565   25.8153 C   0  0  0  0  0  0  0  0  0  0  0  0
    6.7085  -11.4906   26.2928 C   0  0  0  0  0  0  0  0  0  0  0  0
    7.8833  -11.6745   26.9893 C   0  0  0  0  0  0  0  0  0  0  0  0
    8.3625  -12.9453   27.2259 C   0  0  0  0  0  0  0  0  0  0  0  0
    7.6332  -14.0391   26.7457 C   0  0  0  0  0  0  0  0  0  0  0  0
   11.3808  -16.6694   27.1111 C   0  0  0  0  0  0  0  0  0  0  0  0
   11.8578  -16.1589   28.1479 O   0  0  0  0  0  0  0  0  0  0  0  0
   12.0074  -17.7701   26.5609 O   0  0  0  0  0  0  0  0  0  0  0  0
  1  2  1  0
  3  4  2  0
  3  2  1  0
  5  3  1  0
  6  5  1  0
  6  7  1  6
  8  7  1  0
  9 13  1  0
  9  8  1  0
 10  9  2  0
 11  6  1  0
 11 12  2  0
 14 11  1  0
 15 14  1  0
 15 16  1  1
 17 16  1  0
 17 25  1  0
 18 19  1  0
 18 17  2  0
 19 20  1  0
 20 25  2  0
 20 21  1  0
 21 22  2  0
 22 23  1  0
 24 23  2  0
 25 24  1  0
 26 15  1  0
 26 28  1  0
 27 26  2  0
M  END
$$$$
