GEW.pdb
     RDKit          3D

 28 29  0  0  1  0  0  0  0  0999 V2000
    7.4230  -13.4766   18.0666 N   0  0  0  0  0  0  0  0  0  0  0  0
    7.9239  -13.2281   19.4202 C   0  0  0  0  0  0  0  0  0  0  0  0
    8.1906  -14.4840   20.1310 C   0  0  0  0  0  0  0  0  0  0  0  0
    7.3190  -15.3921   20.1745 O   0  0  0  0  0  0  0  0  0  0  0  0
    9.4523  -14.6763   20.7795 N   0  0  0  0  0  0  0  0  0  0  0  0
    9.8027  -15.9244   21.3429 C   0  0  1  0  0  0  0  0  0  0  0  0
   11.0114  -16.6297   20.8698 C   0  0  0  0  0  0  0  0  0  0  0  0
   11.2532  -18.0179   21.3033 C   0  0  0  0  0  0  0  0  0  0  0  0
   12.4550  -18.6263   20.7489 C   0  0  0  0  0  0  0  0  0  0  0  0
   12.6724  -19.8181   20.5107 O   0  0  0  0  0  0  0  0  0  0  0  0
    9.9854  -15.7129   22.8294 C   0  0  0  0  0  0  0  0  0  0  0  0
   10.6514  -14.7051   23.2268 O   0  0  0  0  0  0  0  0  0  0  0  0
   13.5205  -17.7454   20.4391 O   0  0  0  0  0  0  0  0  0  0  0  0
    9.4509  -16.5817   23.8021 N   0  0  0  0  0  0  0  0  0  0  0  0
    9.7727  -16.3704   25.1984 C   0  0  1  0  0  0  0  0  0  0  0  0
    8.5608  -16.6249   26.0788 C   0  0  0  0  0  0  0  0  0  0  0  0
    7.5489  -15.5787   25.7950 C   0  0  0  0  0  0  0  0  0  0  0  0
    6.4697  -15.7291   24.9498 C   0  0  0  0  0  0  0  0  0  0  0  0
    5.8009  -14.5668   24.9545 N   0  0  0  0  0  0  0  0  0  0  0  0
    6.4062  -13.6775   25.7672 C   0  0  0  0  0  0  0  0  0  0  0  0
    6.0958  -12.3641   26.0940 C   0  0  0  0  0  0  0  0  0  0  0  0
    6.9268  -11.7077   26.9719 C   0  0  0  0  0  0  0  0  0  0  0  0
    8.0331  -12.3250   27.5143 C   0  0  0  0  0  0  0  0  0  0  0  0
    8.3358  -13.6291   27.1853 C   0  0  0  0  0  0  0  0  0  0  0  0
    7.4989  -14.3090   26.2932 C   0  0  0  0  0  0  0  0  0  0  0  0
   10.9147  -17.2287   25.5799 C   0  0  0  0  0  0  0  0  0  0  0  0
   11.3678  -18.0591   24.7624 O   0  0  0  0  0  0  0  0  0  0  0  0
   11.4988  -17.1349   26.8277 O   0  0  0  0  0  0  0  0  0  0  0  0
  1  2  1  0
  3  4  2  0
  3  2  1  0
  5  3  1  0
  6  5  1  0
  6  7  1  6
  8  7  1  0
  9 13  1  0
  9  8  1  0
 10  9  2  0
 11  6  1  0
 11 12  2  0
 14 11  1  0
 15 14  1  0
 15 16  1  1
 17 16  1  0
 17 25  1  0
 18 19  1  0
 18 17  2  0
 19 20  1  0
 20 25  2  0
 20 21  1  0
 21 22  2  0
 22 23  1  0
 24 23  2  0
 25 24  1  0
 26 15  1  0
 26 28  1  0
 27 26  2  0
M  END
$$$$
