FCN.pdb
     RDKit          3D

 26 26  0  0  1  0  0  0  0  0999 V2000
   23.4906   -8.1475  -15.8388 N   0  0  0  0  0  0  0  0  0  0  0  0
   22.2349   -8.5108  -15.2682 C   0  0  1  0  0  0  0  0  0  0  0  0
   22.2597   -9.6538  -14.3089 C   0  0  0  0  0  0  0  0  0  0  0  0
   22.7525  -10.8577  -15.0247 C   0  0  0  0  0  0  0  0  0  0  0  0
   22.0683  -11.3901  -16.0993 C   0  0  0  0  0  0  0  0  0  0  0  0
   22.5004  -12.5087  -16.7718 C   0  0  0  0  0  0  0  0  0  0  0  0
   23.6573  -13.1277  -16.3640 C   0  0  0  0  0  0  0  0  0  0  0  0
   24.3774  -12.6252  -15.2859 C   0  0  0  0  0  0  0  0  0  0  0  0
   23.9111  -11.4874  -14.6264 C   0  0  0  0  0  0  0  0  0  0  0  0
   21.5048   -7.3119  -14.7557 C   0  0  0  0  0  0  0  0  0  0  0  0
   22.0277   -6.6773  -13.8108 O   0  0  0  0  0  0  0  0  0  0  0  0
   20.2811   -6.8778  -15.2810 N   0  0  0  0  0  0  0  0  0  0  0  0
   19.5683   -5.7134  -14.8740 C   0  0  1  0  0  0  0  0  0  0  0  0
   18.9000   -4.9987  -16.0271 C   0  0  0  0  0  0  0  0  0  0  0  0
   20.1765   -4.3859  -17.1877 S   0  0  0  0  0  0  0  0  0  0  0  0
   18.4862   -6.0831  -13.9027 C   0  0  0  0  0  0  0  0  0  0  0  0
   18.3017   -7.2834  -13.5965 O   0  0  0  0  0  0  0  0  0  0  0  0
   15.0531   -5.9557  -10.0335 N   0  0  0  0  0  0  0  0  0  0  0  0
   16.4605   -6.0882   -9.9410 C   0  0  0  0  0  0  0  0  0  0  0  0
   16.9665   -6.3846   -8.8230 O   0  0  0  0  0  0  0  0  0  0  0  0
   17.3100   -5.8915  -11.1036 C   0  0  0  0  0  0  0  0  0  0  0  0
   16.5998   -5.3938  -12.3403 C   0  0  2  0  0  0  0  0  0  0  0  0
   17.6503   -5.1097  -13.3098 N   0  0  0  0  0  0  0  0  0  0  0  0
   15.9273   -4.1041  -11.9336 C   0  0  0  0  0  0  0  0  0  0  0  0
   14.9138   -4.1619  -11.1950 O   0  0  0  0  0  0  0  0  0  0  0  0
   16.3907   -2.8818  -12.3480 O   0  0  0  0  0  0  0  0  0  0  0  0
  2  1  1  1
  3  2  1  0
  4  9  2  0
  4  3  1  0
  5  4  1  0
  6  7  1  0
  6  5  2  0
  7  8  2  0
  8  9  1  0
 10  2  1  0
 10 11  2  0
 12 13  1  0
 12 10  1  0
 13 14  1  6
 15 14  1  0
 16 17  2  0
 16 13  1  0
 19 21  1  0
 19 18  1  0
 20 19  2  0
 22 21  1  1
 22 23  1  0
 23 16  1  0
 24 22  1  0
 24 26  1  0
 25 24  2  0
M  END
$$$$
