FCN.pdb
     RDKit          3D

 26 26  0  0  1  0  0  0  0  0999 V2000
   23.5065  -20.7532  -14.2354 N   0  0  0  0  0  0  0  0  0  0  0  0
   22.5746  -20.3194  -13.2464 C   0  0  1  0  0  0  0  0  0  0  0  0
   21.2089  -19.9776  -13.7414 C   0  0  0  0  0  0  0  0  0  0  0  0
   21.3408  -18.9834  -14.8362 C   0  0  0  0  0  0  0  0  0  0  0  0
   21.3071  -19.3615  -16.1637 C   0  0  0  0  0  0  0  0  0  0  0  0
   21.4359  -18.4603  -17.1939 C   0  0  0  0  0  0  0  0  0  0  0  0
   21.6062  -17.1291  -16.8994 C   0  0  0  0  0  0  0  0  0  0  0  0
   21.6464  -16.7047  -15.5758 C   0  0  0  0  0  0  0  0  0  0  0  0
   21.5114  -17.6457  -14.5545 C   0  0  0  0  0  0  0  0  0  0  0  0
   22.5740  -21.2331  -12.0639 C   0  0  0  0  0  0  0  0  0  0  0  0
   22.2238  -22.4210  -12.2518 O   0  0  0  0  0  0  0  0  0  0  0  0
   22.9431  -20.8208  -10.7772 N   0  0  0  0  0  0  0  0  0  0  0  0
   22.8335  -21.6019   -9.5909 C   0  0  1  0  0  0  0  0  0  0  0  0
   23.8518  -21.2223   -8.5393 C   0  0  0  0  0  0  0  0  0  0  0  0
   24.2416  -19.4391   -8.6827 S   0  0  0  0  0  0  0  0  0  0  0  0
   21.4783  -21.4171   -8.9740 C   0  0  0  0  0  0  0  0  0  0  0  0
   20.7724  -20.4336   -9.2944 O   0  0  0  0  0  0  0  0  0  0  0  0
   16.5695  -22.6134   -9.3978 N   0  0  0  0  0  0  0  0  0  0  0  0
   17.5915  -23.5180   -9.0183 C   0  0  0  0  0  0  0  0  0  0  0  0
   17.2621  -24.6760   -8.6388 O   0  0  0  0  0  0  0  0  0  0  0  0
   18.9913  -23.1298   -9.0645 C   0  0  0  0  0  0  0  0  0  0  0  0
   19.5404  -22.5547   -7.7803 C   0  0  2  0  0  0  0  0  0  0  0  0
   20.9590  -22.3276   -8.0258 N   0  0  0  0  0  0  0  0  0  0  0  0
   19.3761  -23.6407   -6.7436 C   0  0  0  0  0  0  0  0  0  0  0  0
   20.2490  -24.5401   -6.6722 O   0  0  0  0  0  0  0  0  0  0  0  0
   18.3062  -23.6702   -5.8864 O   0  0  0  0  0  0  0  0  0  0  0  0
  2  1  1  6
  3  2  1  0
  4  9  2  0
  4  3  1  0
  5  4  1  0
  6  7  1  0
  6  5  2  0
  7  8  2  0
  8  9  1  0
 10  2  1  0
 10 11  2  0
 12 13  1  0
 12 10  1  0
 13 14  1  1
 15 14  1  0
 16 17  2  0
 16 13  1  0
 19 21  1  0
 19 18  1  0
 20 19  2  0
 22 21  1  6
 22 23  1  0
 23 16  1  0
 24 22  1  0
 24 26  1  0
 25 24  2  0
M  END
$$$$
