FCN.pdb
     RDKit          3D

 26 26  0  0  1  0  0  0  0  0999 V2000
   26.5615  -18.4969   -7.7716 N   0  0  0  0  0  0  0  0  0  0  0  0
   27.0229  -19.7787   -8.1940 C   0  0  1  0  0  0  0  0  0  0  0  0
   27.0670  -20.8362   -7.1418 C   0  0  0  0  0  0  0  0  0  0  0  0
   27.9634  -20.3769   -6.0509 C   0  0  0  0  0  0  0  0  0  0  0  0
   27.4843  -20.1204   -4.7818 C   0  0  0  0  0  0  0  0  0  0  0  0
   28.2933  -19.6861   -3.7585 C   0  0  0  0  0  0  0  0  0  0  0  0
   29.6325  -19.4964   -4.0005 C   0  0  0  0  0  0  0  0  0  0  0  0
   30.1569  -19.7422   -5.2646 C   0  0  0  0  0  0  0  0  0  0  0  0
   29.3079  -20.1833   -6.2802 C   0  0  0  0  0  0  0  0  0  0  0  0
   26.3442  -20.2117   -9.4530 C   0  0  0  0  0  0  0  0  0  0  0  0
   25.0921  -20.1845   -9.4731 O   0  0  0  0  0  0  0  0  0  0  0  0
   27.0407  -20.6388  -10.5907 N   0  0  0  0  0  0  0  0  0  0  0  0
   26.6256  -20.4468  -11.9399 C   0  0  1  0  0  0  0  0  0  0  0  0
   27.7065  -20.7837  -12.9425 C   0  0  0  0  0  0  0  0  0  0  0  0
   27.0345  -20.6321  -14.6388 S   0  0  0  0  0  0  0  0  0  0  0  0
   25.4517  -21.3284  -12.2498 C   0  0  0  0  0  0  0  0  0  0  0  0
   25.4913  -22.5477  -11.9667 O   0  0  0  0  0  0  0  0  0  0  0  0
   20.5048  -22.7177  -13.4536 N   0  0  0  0  0  0  0  0  0  0  0  0
   20.6381  -21.5026  -12.7376 C   0  0  0  0  0  0  0  0  0  0  0  0
   19.6058  -20.9885  -12.2241 O   0  0  0  0  0  0  0  0  0  0  0  0
   21.9319  -20.8571  -12.5907 C   0  0  0  0  0  0  0  0  0  0  0  0
   23.0987  -21.6186  -13.1738 C   0  0  2  0  0  0  0  0  0  0  0  0
   24.2813  -20.8256  -12.8621 N   0  0  0  0  0  0  0  0  0  0  0  0
   22.8762  -21.6254  -14.6677 C   0  0  0  0  0  0  0  0  0  0  0  0
   22.9835  -20.5439  -15.2960 O   0  0  0  0  0  0  0  0  0  0  0  0
   22.5612  -22.7728  -15.3494 O   0  0  0  0  0  0  0  0  0  0  0  0
  2  1  1  1
  3  2  1  0
  4  9  2  0
  4  3  1  0
  5  4  1  0
  6  7  1  0
  6  5  2  0
  7  8  2  0
  8  9  1  0
 10  2  1  0
 10 11  2  0
 12 13  1  0
 12 10  1  0
 13 14  1  6
 15 14  1  0
 16 17  2  0
 16 13  1  0
 19 21  1  0
 19 18  1  0
 20 19  2  0
 22 21  1  1
 22 23  1  0
 23 16  1  0
 24 22  1  0
 24 26  1  0
 25 24  2  0
M  END
$$$$
