FCN.pdb
     RDKit          3D

 26 26  0  0  1  0  0  0  0  0999 V2000
   27.0614  -11.9794  -16.2265 N   0  0  0  0  0  0  0  0  0  0  0  0
   26.5769  -10.7258  -16.7042 C   0  0  1  0  0  0  0  0  0  0  0  0
   27.0659  -10.3069  -18.0506 C   0  0  0  0  0  0  0  0  0  0  0  0
   28.5500  -10.2714  -18.0216 C   0  0  0  0  0  0  0  0  0  0  0  0
   29.3083  -11.2299  -18.6639 C   0  0  0  0  0  0  0  0  0  0  0  0
   30.6830  -11.2225  -18.6436 C   0  0  0  0  0  0  0  0  0  0  0  0
   31.3356  -10.2261  -17.9586 C   0  0  0  0  0  0  0  0  0  0  0  0
   30.6106   -9.2410  -17.2972 C   0  0  0  0  0  0  0  0  0  0  0  0
   29.2164   -9.2776  -17.3390 C   0  0  0  0  0  0  0  0  0  0  0  0
   25.0949  -10.6202  -16.5436 C   0  0  0  0  0  0  0  0  0  0  0  0
   24.4049  -11.6083  -16.8849 O   0  0  0  0  0  0  0  0  0  0  0  0
   24.4589   -9.4804  -16.0353 N   0  0  0  0  0  0  0  0  0  0  0  0
   23.0507   -9.2911  -15.9321 C   0  0  1  0  0  0  0  0  0  0  0  0
   22.5081   -9.6396  -14.5641 C   0  0  0  0  0  0  0  0  0  0  0  0
   23.7684   -9.2576  -13.2922 S   0  0  0  0  0  0  0  0  0  0  0  0
   22.7024   -7.8543  -16.1875 C   0  0  0  0  0  0  0  0  0  0  0  0
   23.5458   -6.9556  -15.9653 O   0  0  0  0  0  0  0  0  0  0  0  0
   20.3870   -3.6113  -18.1662 N   0  0  0  0  0  0  0  0  0  0  0  0
   20.9931   -4.5980  -18.9823 C   0  0  0  0  0  0  0  0  0  0  0  0
   21.2606   -4.3082  -20.1815 O   0  0  0  0  0  0  0  0  0  0  0  0
   21.3056   -5.9166  -18.4573 C   0  0  0  0  0  0  0  0  0  0  0  0
   21.0400   -6.0991  -16.9816 C   0  0  2  0  0  0  0  0  0  0  0  0
   21.4338   -7.4691  -16.6774 N   0  0  0  0  0  0  0  0  0  0  0  0
   19.5457   -5.9557  -16.8151 C   0  0  0  0  0  0  0  0  0  0  0  0
   18.8203   -6.9618  -17.0091 O   0  0  0  0  0  0  0  0  0  0  0  0
   18.9657   -4.7645  -16.4616 O   0  0  0  0  0  0  0  0  0  0  0  0
  2  1  1  6
  3  2  1  0
  4  9  2  0
  4  3  1  0
  5  4  1  0
  6  7  1  0
  6  5  2  0
  7  8  2  0
  8  9  1  0
 10  2  1  0
 10 11  2  0
 12 13  1  0
 12 10  1  0
 13 14  1  1
 15 14  1  0
 16 17  2  0
 16 13  1  0
 19 21  1  0
 19 18  1  0
 20 19  2  0
 22 21  1  6
 22 23  1  0
 23 16  1  0
 24 22  1  0
 24 26  1  0
 25 24  2  0
M  END
$$$$
