FCN.pdb
     RDKit          3D

 26 26  0  0  1  0  0  0  0  0999 V2000
   23.9331  -12.6911  -16.6581 N   0  0  0  0  0  0  0  0  0  0  0  0
   24.2043  -11.3264  -16.3444 C   0  0  1  0  0  0  0  0  0  0  0  0
   25.4294  -10.7442  -16.9669 C   0  0  0  0  0  0  0  0  0  0  0  0
   26.5860  -11.6118  -16.6291 C   0  0  0  0  0  0  0  0  0  0  0  0
   27.2670  -11.4758  -15.4358 C   0  0  0  0  0  0  0  0  0  0  0  0
   28.3458  -12.2615  -15.1051 C   0  0  0  0  0  0  0  0  0  0  0  0
   28.7698  -13.2214  -15.9921 C   0  0  0  0  0  0  0  0  0  0  0  0
   28.1129  -13.3918  -17.2057 C   0  0  0  0  0  0  0  0  0  0  0  0
   27.0208  -12.5782  -17.5092 C   0  0  0  0  0  0  0  0  0  0  0  0
   22.9848  -10.4789  -16.5112 C   0  0  0  0  0  0  0  0  0  0  0  0
   22.1715  -10.8065  -17.4057 O   0  0  0  0  0  0  0  0  0  0  0  0
   22.7205   -9.3532  -15.7208 N   0  0  0  0  0  0  0  0  0  0  0  0
   21.5470   -8.5481  -15.7874 C   0  0  1  0  0  0  0  0  0  0  0  0
   20.5378   -8.8876  -14.7135 C   0  0  0  0  0  0  0  0  0  0  0  0
   21.4027   -9.1312  -13.1182 S   0  0  0  0  0  0  0  0  0  0  0  0
   21.9025   -7.1011  -15.6114 C   0  0  0  0  0  0  0  0  0  0  0  0
   22.8772   -6.7775  -14.8947 O   0  0  0  0  0  0  0  0  0  0  0  0
   19.8661   -4.1235  -19.5709 N   0  0  0  0  0  0  0  0  0  0  0  0
   20.8683   -4.2761  -18.5814 C   0  0  0  0  0  0  0  0  0  0  0  0
   22.0120   -4.6745  -18.9374 O   0  0  0  0  0  0  0  0  0  0  0  0
   20.5945   -3.9800  -17.1852 C   0  0  0  0  0  0  0  0  0  0  0  0
   21.5130   -4.6549  -16.1941 C   0  0  2  0  0  0  0  0  0  0  0  0
   21.1640   -6.0695  -16.2345 N   0  0  0  0  0  0  0  0  0  0  0  0
   21.1473   -4.0842  -14.8444 C   0  0  0  0  0  0  0  0  0  0  0  0
   21.4063   -2.8780  -14.6120 O   0  0  0  0  0  0  0  0  0  0  0  0
   20.5459   -4.8437  -13.8739 O   0  0  0  0  0  0  0  0  0  0  0  0
  2  1  1  6
  3  2  1  0
  4  9  2  0
  4  3  1  0
  5  4  1  0
  6  7  1  0
  6  5  2  0
  7  8  2  0
  8  9  1  0
 10  2  1  0
 10 11  2  0
 12 13  1  0
 12 10  1  0
 13 14  1  1
 15 14  1  0
 16 17  2  0
 16 13  1  0
 19 21  1  0
 19 18  1  0
 20 19  2  0
 22 21  1  6
 22 23  1  0
 23 16  1  0
 24 22  1  0
 24 26  1  0
 25 24  2  0
M  END
$$$$
