FCN.pdb
     RDKit          3D

 26 26  0  0  1  0  0  0  0  0999 V2000
   25.7764   -9.6719  -17.4392 N   0  0  0  0  0  0  0  0  0  0  0  0
   25.1120   -9.6664  -16.1770 C   0  0  1  0  0  0  0  0  0  0  0  0
   25.9822   -9.8593  -14.9801 C   0  0  0  0  0  0  0  0  0  0  0  0
   26.5892  -11.2123  -15.0532 C   0  0  0  0  0  0  0  0  0  0  0  0
   27.8591  -11.4082  -15.5585 C   0  0  0  0  0  0  0  0  0  0  0  0
   28.4382  -12.6522  -15.6442 C   0  0  0  0  0  0  0  0  0  0  0  0
   27.7317  -13.7490  -15.2131 C   0  0  0  0  0  0  0  0  0  0  0  0
   26.4493  -13.5969  -14.6977 C   0  0  0  0  0  0  0  0  0  0  0  0
   25.8918  -12.3200  -14.6239 C   0  0  0  0  0  0  0  0  0  0  0  0
   24.1786   -8.5052  -16.0605 C   0  0  0  0  0  0  0  0  0  0  0  0
   24.6729   -7.3568  -16.1358 O   0  0  0  0  0  0  0  0  0  0  0  0
   22.7977   -8.6482  -15.8741 N   0  0  0  0  0  0  0  0  0  0  0  0
   21.8575   -7.5822  -15.7775 C   0  0  1  0  0  0  0  0  0  0  0  0
   21.0404   -7.4014  -17.0372 C   0  0  0  0  0  0  0  0  0  0  0  0
   22.1549   -7.0146  -18.4373 S   0  0  0  0  0  0  0  0  0  0  0  0
   20.8890   -7.8469  -14.6625 C   0  0  0  0  0  0  0  0  0  0  0  0
   20.9685   -8.9076  -14.0015 O   0  0  0  0  0  0  0  0  0  0  0  0
   17.4565   -7.3146  -10.8331 N   0  0  0  0  0  0  0  0  0  0  0  0
   18.8712   -7.2742  -10.7713 C   0  0  0  0  0  0  0  0  0  0  0  0
   19.4278   -7.3364   -9.6399 O   0  0  0  0  0  0  0  0  0  0  0  0
   19.6716   -7.1661  -11.9796 C   0  0  0  0  0  0  0  0  0  0  0  0
   18.8853   -7.1277  -13.2687 C   0  0  2  0  0  0  0  0  0  0  0  0
   19.8702   -6.9275  -14.3243 N   0  0  0  0  0  0  0  0  0  0  0  0
   17.9982   -5.9094  -13.1696 C   0  0  0  0  0  0  0  0  0  0  0  0
   17.0029   -5.9515  -12.4056 O   0  0  0  0  0  0  0  0  0  0  0  0
   18.2491   -4.7684  -13.8877 O   0  0  0  0  0  0  0  0  0  0  0  0
  2  1  1  6
  3  2  1  0
  4  9  2  0
  4  3  1  0
  5  4  1  0
  6  7  1  0
  6  5  2  0
  7  8  2  0
  8  9  1  0
 10  2  1  0
 10 11  2  0
 12 13  1  0
 12 10  1  0
 13 14  1  6
 15 14  1  0
 16 17  2  0
 16 13  1  0
 19 21  1  0
 19 18  1  0
 20 19  2  0
 22 21  1  1
 22 23  1  0
 23 16  1  0
 24 22  1  0
 24 26  1  0
 25 24  2  0
M  END
$$$$
