FCN.pdb
     RDKit          3D

 26 26  0  0  1  0  0  0  0  0999 V2000
   23.3700   -8.6440  -16.8913 N   0  0  0  0  0  0  0  0  0  0  0  0
   22.6266   -8.6342  -15.6740 C   0  0  1  0  0  0  0  0  0  0  0  0
   23.3956   -8.9580  -14.4366 C   0  0  0  0  0  0  0  0  0  0  0  0
   23.9899  -10.3096  -14.5927 C   0  0  0  0  0  0  0  0  0  0  0  0
   25.3104  -10.4805  -14.9579 C   0  0  0  0  0  0  0  0  0  0  0  0
   25.8801  -11.7217  -15.1170 C   0  0  0  0  0  0  0  0  0  0  0  0
   25.1115  -12.8412  -14.9071 C   0  0  0  0  0  0  0  0  0  0  0  0
   23.7767  -12.7147  -14.5386 C   0  0  0  0  0  0  0  0  0  0  0  0
   23.2305  -11.4400  -14.3848 C   0  0  0  0  0  0  0  0  0  0  0  0
   21.7928   -7.3995  -15.5575 C   0  0  0  0  0  0  0  0  0  0  0  0
   22.3223   -6.3119  -15.8829 O   0  0  0  0  0  0  0  0  0  0  0  0
   20.4666   -7.4106  -15.1072 N   0  0  0  0  0  0  0  0  0  0  0  0
   19.5847   -6.2918  -15.0924 C   0  0  1  0  0  0  0  0  0  0  0  0
   19.0121   -5.9749  -16.4558 C   0  0  0  0  0  0  0  0  0  0  0  0
   17.8579   -4.5603  -16.3194 S   0  0  0  0  0  0  0  0  0  0  0  0
   18.4228   -6.5618  -14.1823 C   0  0  0  0  0  0  0  0  0  0  0  0
   17.6745   -7.5432  -14.3951 O   0  0  0  0  0  0  0  0  0  0  0  0
   16.4389   -7.6119   -9.9210 N   0  0  0  0  0  0  0  0  0  0  0  0
   17.2717   -6.4872   -9.7010 C   0  0  0  0  0  0  0  0  0  0  0  0
   17.7409   -6.3009   -8.5439 O   0  0  0  0  0  0  0  0  0  0  0  0
   17.5860   -5.5648  -10.7791 C   0  0  0  0  0  0  0  0  0  0  0  0
   17.0419   -5.9520  -12.1339 C   0  0  2  0  0  0  0  0  0  0  0  0
   18.1344   -5.7339  -13.0737 N   0  0  0  0  0  0  0  0  0  0  0  0
   15.9275   -4.9738  -12.4210 C   0  0  0  0  0  0  0  0  0  0  0  0
   16.2068   -3.9010  -13.0102 O   0  0  0  0  0  0  0  0  0  0  0  0
   14.6296   -5.2246  -12.0565 O   0  0  0  0  0  0  0  0  0  0  0  0
  2  1  1  6
  3  2  1  0
  4  9  2  0
  4  3  1  0
  5  4  1  0
  6  7  1  0
  6  5  2  0
  7  8  2  0
  8  9  1  0
 10  2  1  0
 10 11  2  0
 12 13  1  0
 12 10  1  0
 13 14  1  6
 15 14  1  0
 16 17  2  0
 16 13  1  0
 19 21  1  0
 19 18  1  0
 20 19  2  0
 22 21  1  1
 22 23  1  0
 23 16  1  0
 24 22  1  0
 24 26  1  0
 25 24  2  0
M  END
$$$$
