FCN.pdb
     RDKit          3D

 26 26  0  0  1  0  0  0  0  0999 V2000
   21.1854  -13.1883  -18.4692 N   0  0  0  0  0  0  0  0  0  0  0  0
   22.2467  -12.3166  -18.0839 C   0  0  1  0  0  0  0  0  0  0  0  0
   23.1408  -11.8503  -19.1841 C   0  0  0  0  0  0  0  0  0  0  0  0
   23.6877  -13.0412  -19.8821 C   0  0  0  0  0  0  0  0  0  0  0  0
   23.1716  -13.4723  -21.0880 C   0  0  0  0  0  0  0  0  0  0  0  0
   23.6558  -14.5768  -21.7482 C   0  0  0  0  0  0  0  0  0  0  0  0
   24.6932  -15.2857  -21.1923 C   0  0  0  0  0  0  0  0  0  0  0  0
   25.2425  -14.8867  -19.9788 C   0  0  0  0  0  0  0  0  0  0  0  0
   24.7280  -13.7603  -19.3359 C   0  0  0  0  0  0  0  0  0  0  0  0
   21.7514  -11.2148  -17.2042 C   0  0  0  0  0  0  0  0  0  0  0  0
   20.7972  -10.5223  -17.6274 O   0  0  0  0  0  0  0  0  0  0  0  0
   22.3021  -10.9314  -15.9480 N   0  0  0  0  0  0  0  0  0  0  0  0
   21.8662   -9.9044  -15.0621 C   0  0  1  0  0  0  0  0  0  0  0  0
   22.3170  -10.1262  -13.6357 C   0  0  0  0  0  0  0  0  0  0  0  0
   21.4809  -11.6057  -12.9544 S   0  0  0  0  0  0  0  0  0  0  0  0
   22.4208   -8.5791  -15.4947 C   0  0  0  0  0  0  0  0  0  0  0  0
   23.2678   -8.5243  -16.4155 O   0  0  0  0  0  0  0  0  0  0  0  0
   22.0668   -4.5147  -18.7910 N   0  0  0  0  0  0  0  0  0  0  0  0
   21.9796   -4.6214  -17.3811 C   0  0  0  0  0  0  0  0  0  0  0  0
   22.0755   -3.5698  -16.6893 O   0  0  0  0  0  0  0  0  0  0  0  0
   21.7815   -5.9094  -16.7376 C   0  0  0  0  0  0  0  0  0  0  0  0
   22.3876   -6.0383  -15.3601 C   0  0  2  0  0  0  0  0  0  0  0  0
   22.0167   -7.3672  -14.8899 N   0  0  0  0  0  0  0  0  0  0  0  0
   21.7004   -4.9941  -14.5124 C   0  0  0  0  0  0  0  0  0  0  0  0
   22.2347   -3.8635  -14.4016 O   0  0  0  0  0  0  0  0  0  0  0  0
   20.5185   -5.2476  -13.8650 O   0  0  0  0  0  0  0  0  0  0  0  0
  2  1  1  6
  3  2  1  0
  4  9  2  0
  4  3  1  0
  5  4  1  0
  6  7  1  0
  6  5  2  0
  7  8  2  0
  8  9  1  0
 10  2  1  0
 10 11  2  0
 12 13  1  0
 12 10  1  0
 13 14  1  1
 15 14  1  0
 16 17  2  0
 16 13  1  0
 19 21  1  0
 19 18  1  0
 20 19  2  0
 22 21  1  6
 22 23  1  0
 23 16  1  0
 24 22  1  0
 24 26  1  0
 25 24  2  0
M  END
$$$$
