FCN.pdb
     RDKit          3D

 26 26  0  0  1  0  0  0  0  0999 V2000
   20.9068  -12.4180  -17.2648 N   0  0  0  0  0  0  0  0  0  0  0  0
   21.2855  -11.1594  -17.8190 C   0  0  1  0  0  0  0  0  0  0  0  0
   20.8077  -10.8864  -19.2062 C   0  0  0  0  0  0  0  0  0  0  0  0
   21.3768  -11.9170  -20.1109 C   0  0  0  0  0  0  0  0  0  0  0  0
   22.6984  -11.8793  -20.5083 C   0  0  0  0  0  0  0  0  0  0  0  0
   23.2451  -12.8173  -21.3519 C   0  0  0  0  0  0  0  0  0  0  0  0
   22.4513  -13.8349  -21.8234 C   0  0  0  0  0  0  0  0  0  0  0  0
   21.1144  -13.9105  -21.4487 C   0  0  0  0  0  0  0  0  0  0  0  0
   20.5919  -12.9427  -20.5901 C   0  0  0  0  0  0  0  0  0  0  0  0
   21.0201  -10.0433  -16.8614 C   0  0  0  0  0  0  0  0  0  0  0  0
   19.8648   -9.9523  -16.3860 O   0  0  0  0  0  0  0  0  0  0  0  0
   21.9949   -9.1119  -16.4816 N   0  0  0  0  0  0  0  0  0  0  0  0
   21.7883   -7.9987  -15.6169 C   0  0  1  0  0  0  0  0  0  0  0  0
   22.9386   -7.7736  -14.6612 C   0  0  0  0  0  0  0  0  0  0  0  0
   22.8971   -9.0463  -13.3457 S   0  0  0  0  0  0  0  0  0  0  0  0
   21.6357   -6.7412  -16.4210 C   0  0  0  0  0  0  0  0  0  0  0  0
   21.7610   -6.7743  -17.6666 O   0  0  0  0  0  0  0  0  0  0  0  0
   19.9772   -2.1195  -18.0256 N   0  0  0  0  0  0  0  0  0  0  0  0
   19.2174   -3.3098  -17.9130 C   0  0  0  0  0  0  0  0  0  0  0  0
   18.0764   -3.3506  -18.4515 O   0  0  0  0  0  0  0  0  0  0  0  0
   19.7344   -4.4642  -17.1972 C   0  0  0  0  0  0  0  0  0  0  0  0
   21.0780   -4.2612  -16.5376 C   0  0  2  0  0  0  0  0  0  0  0  0
   21.3517   -5.4966  -15.8142 N   0  0  0  0  0  0  0  0  0  0  0  0
   20.8828   -3.1332  -15.5524 C   0  0  0  0  0  0  0  0  0  0  0  0
   20.3616   -3.3908  -14.4397 O   0  0  0  0  0  0  0  0  0  0  0  0
   21.2560   -1.8455  -15.8400 O   0  0  0  0  0  0  0  0  0  0  0  0
  2  1  1  1
  3  2  1  0
  4  9  2  0
  4  3  1  0
  5  4  1  0
  6  7  1  0
  6  5  2  0
  7  8  2  0
  8  9  1  0
 10  2  1  0
 10 11  2  0
 12 13  1  0
 12 10  1  0
 13 14  1  1
 15 14  1  0
 16 17  2  0
 16 13  1  0
 19 21  1  0
 19 18  1  0
 20 19  2  0
 22 21  1  1
 22 23  1  0
 23 16  1  0
 24 22  1  0
 24 26  1  0
 25 24  2  0
M  END
$$$$
