FCN.pdb
     RDKit          3D

 26 26  0  0  1  0  0  0  0  0999 V2000
   21.5946  -20.9235  -12.8034 N   0  0  0  0  0  0  0  0  0  0  0  0
   21.8171  -20.3979  -14.1107 C   0  0  1  0  0  0  0  0  0  0  0  0
   20.5947  -20.1340  -14.9251 C   0  0  0  0  0  0  0  0  0  0  0  0
   19.9372  -21.4321  -15.2204 C   0  0  0  0  0  0  0  0  0  0  0  0
   20.3645  -22.2395  -16.2556 C   0  0  0  0  0  0  0  0  0  0  0  0
   19.7659  -23.4409  -16.5534 C   0  0  0  0  0  0  0  0  0  0  0  0
   18.6992  -23.8613  -15.7963 C   0  0  0  0  0  0  0  0  0  0  0  0
   18.2359  -23.0788  -14.7444 C   0  0  0  0  0  0  0  0  0  0  0  0
   18.8671  -21.8654  -14.4688 C   0  0  0  0  0  0  0  0  0  0  0  0
   22.7767  -19.2529  -14.0788 C   0  0  0  0  0  0  0  0  0  0  0  0
   22.4888  -18.2778  -13.3472 O   0  0  0  0  0  0  0  0  0  0  0  0
   23.9641  -19.2278  -14.8214 N   0  0  0  0  0  0  0  0  0  0  0  0
   24.8897  -18.1459  -14.8722 C   0  0  1  0  0  0  0  0  0  0  0  0
   26.2978  -18.5577  -14.5050 C   0  0  0  0  0  0  0  0  0  0  0  0
   27.4233  -17.1272  -14.7029 S   0  0  0  0  0  0  0  0  0  0  0  0
   24.9477  -17.5802  -16.2606 C   0  0  0  0  0  0  0  0  0  0  0  0
   25.1648  -18.3345  -17.2365 O   0  0  0  0  0  0  0  0  0  0  0  0
   25.3123  -13.8273  -15.6962 N   0  0  0  0  0  0  0  0  0  0  0  0
   24.2944  -13.4616  -16.6110 C   0  0  0  0  0  0  0  0  0  0  0  0
   23.7185  -12.3485  -16.4596 O   0  0  0  0  0  0  0  0  0  0  0  0
   23.9173  -14.3418  -17.7042 C   0  0  0  0  0  0  0  0  0  0  0  0
   24.7528  -15.5930  -17.8379 C   0  0  2  0  0  0  0  0  0  0  0  0
   24.7643  -16.2018  -16.5136 N   0  0  0  0  0  0  0  0  0  0  0  0
   26.1440  -15.1195  -18.1867 C   0  0  0  0  0  0  0  0  0  0  0  0
   27.0241  -15.1295  -17.2915 O   0  0  0  0  0  0  0  0  0  0  0  0
   26.4675  -14.6814  -19.4452 O   0  0  0  0  0  0  0  0  0  0  0  0
  2  1  1  1
  3  2  1  0
  4  9  2  0
  4  3  1  0
  5  4  1  0
  6  7  1  0
  6  5  2  0
  7  8  2  0
  8  9  1  0
 10  2  1  0
 10 11  2  0
 12 13  1  0
 12 10  1  0
 13 14  1  6
 15 14  1  0
 16 17  2  0
 16 13  1  0
 19 21  1  0
 19 18  1  0
 20 19  2  0
 22 21  1  1
 22 23  1  0
 23 16  1  0
 24 22  1  0
 24 26  1  0
 25 24  2  0
M  END
$$$$
