FCN.pdb
     RDKit          3D

 26 26  0  0  1  0  0  0  0  0999 V2000
   28.5512  -20.9714   -8.9372 N   0  0  0  0  0  0  0  0  0  0  0  0
   27.1618  -20.6560   -8.8697 C   0  0  1  0  0  0  0  0  0  0  0  0
   26.7930  -19.5185   -7.9767 C   0  0  0  0  0  0  0  0  0  0  0  0
   27.5417  -19.6594   -6.7023 C   0  0  0  0  0  0  0  0  0  0  0  0
   26.9028  -19.9766   -5.5202 C   0  0  0  0  0  0  0  0  0  0  0  0
   27.5736  -20.1038   -4.3268 C   0  0  0  0  0  0  0  0  0  0  0  0
   28.9334  -19.9080   -4.3008 C   0  0  0  0  0  0  0  0  0  0  0  0
   29.6165  -19.5865   -5.4684 C   0  0  0  0  0  0  0  0  0  0  0  0
   28.9051  -19.4663   -6.6627 C   0  0  0  0  0  0  0  0  0  0  0  0
   26.5584  -20.5689  -10.2340 C   0  0  0  0  0  0  0  0  0  0  0  0
   26.8159  -19.5501  -10.9157 O   0  0  0  0  0  0  0  0  0  0  0  0
   25.7314  -21.5639  -10.7707 N   0  0  0  0  0  0  0  0  0  0  0  0
   25.0596  -21.4986  -12.0253 C   0  0  1  0  0  0  0  0  0  0  0  0
   25.0987  -22.8066  -12.7833 C   0  0  0  0  0  0  0  0  0  0  0  0
   24.3907  -22.5651  -14.4544 S   0  0  0  0  0  0  0  0  0  0  0  0
   23.6136  -21.1554  -11.8198 C   0  0  0  0  0  0  0  0  0  0  0  0
   22.9536  -21.7309  -10.9245 O   0  0  0  0  0  0  0  0  0  0  0  0
   19.0865  -18.4141  -12.3922 N   0  0  0  0  0  0  0  0  0  0  0  0
   20.0845  -17.9432  -13.2805 C   0  0  0  0  0  0  0  0  0  0  0  0
   19.8348  -16.9246  -13.9832 O   0  0  0  0  0  0  0  0  0  0  0  0
   21.3711  -18.6109  -13.3845 C   0  0  0  0  0  0  0  0  0  0  0  0
   21.5697  -19.7720  -12.4391 C   0  0  2  0  0  0  0  0  0  0  0  0
   22.9550  -20.1897  -12.6145 N   0  0  0  0  0  0  0  0  0  0  0  0
   20.6484  -20.8624  -12.9327 C   0  0  0  0  0  0  0  0  0  0  0  0
   20.9427  -21.4620  -13.9957 O   0  0  0  0  0  0  0  0  0  0  0  0
   19.5077  -21.2104  -12.2561 O   0  0  0  0  0  0  0  0  0  0  0  0
  2  1  1  6
  3  2  1  0
  4  9  2  0
  4  3  1  0
  5  4  1  0
  6  7  1  0
  6  5  2  0
  7  8  2  0
  8  9  1  0
 10  2  1  0
 10 11  2  0
 12 13  1  0
 12 10  1  0
 13 14  1  1
 15 14  1  0
 16 17  2  0
 16 13  1  0
 19 21  1  0
 19 18  1  0
 20 19  2  0
 22 21  1  6
 22 23  1  0
 23 16  1  0
 24 22  1  0
 24 26  1  0
 25 24  2  0
M  END
$$$$
