FCN.pdb
     RDKit          3D

 26 26  0  0  1  0  0  0  0  0999 V2000
   27.8901  -21.2242  -15.9123 N   0  0  0  0  0  0  0  0  0  0  0  0
   27.1412  -20.3118  -15.1115 C   0  0  1  0  0  0  0  0  0  0  0  0
   26.3923  -19.2550  -15.8528 C   0  0  0  0  0  0  0  0  0  0  0  0
   27.3720  -18.3964  -16.5652 C   0  0  0  0  0  0  0  0  0  0  0  0
   28.0651  -17.3964  -15.9126 C   0  0  0  0  0  0  0  0  0  0  0  0
   28.9703  -16.5835  -16.5530 C   0  0  0  0  0  0  0  0  0  0  0  0
   29.1991  -16.7663  -17.8954 C   0  0  0  0  0  0  0  0  0  0  0  0
   28.5222  -17.7615  -18.5916 C   0  0  0  0  0  0  0  0  0  0  0  0
   27.6110  -18.5696  -17.9107 C   0  0  0  0  0  0  0  0  0  0  0  0
   26.3158  -21.0329  -14.0957 C   0  0  0  0  0  0  0  0  0  0  0  0
   25.7184  -22.0694  -14.4669 O   0  0  0  0  0  0  0  0  0  0  0  0
   26.1865  -20.6030  -12.7689 N   0  0  0  0  0  0  0  0  0  0  0  0
   25.1296  -20.9549  -11.8807 C   0  0  1  0  0  0  0  0  0  0  0  0
   25.3440  -20.4377  -10.4759 C   0  0  0  0  0  0  0  0  0  0  0  0
   26.8943  -21.1368   -9.7979 S   0  0  0  0  0  0  0  0  0  0  0  0
   23.8328  -20.3771  -12.3661 C   0  0  0  0  0  0  0  0  0  0  0  0
   23.8322  -19.3409  -13.0694 O   0  0  0  0  0  0  0  0  0  0  0  0
   20.2527  -21.0229  -16.3184 N   0  0  0  0  0  0  0  0  0  0  0  0
   20.2679  -20.7206  -14.9345 C   0  0  0  0  0  0  0  0  0  0  0  0
   19.2433  -20.1909  -14.4213 O   0  0  0  0  0  0  0  0  0  0  0  0
   21.4326  -21.0132  -14.1160 C   0  0  0  0  0  0  0  0  0  0  0  0
   21.3164  -20.6062  -12.6660 C   0  0  2  0  0  0  0  0  0  0  0  0
   22.5880  -20.9686  -12.0526 N   0  0  0  0  0  0  0  0  0  0  0  0
   20.2158  -21.4641  -12.0883 C   0  0  0  0  0  0  0  0  0  0  0  0
   20.4030  -22.7023  -11.9997 O   0  0  0  0  0  0  0  0  0  0  0  0
   19.0268  -20.9300  -11.6627 O   0  0  0  0  0  0  0  0  0  0  0  0
  2  1  1  6
  3  2  1  0
  4  9  2  0
  4  3  1  0
  5  4  1  0
  6  7  1  0
  6  5  2  0
  7  8  2  0
  8  9  1  0
 10  2  1  0
 10 11  2  0
 12 13  1  0
 12 10  1  0
 13 14  1  1
 15 14  1  0
 16 17  2  0
 16 13  1  0
 19 21  1  0
 19 18  1  0
 20 19  2  0
 22 21  1  6
 22 23  1  0
 23 16  1  0
 24 22  1  0
 24 26  1  0
 25 24  2  0
M  END
$$$$
