FCN.pdb
     RDKit          3D

 26 26  0  0  1  0  0  0  0  0999 V2000
   26.1247  -10.2846  -18.9774 N   0  0  0  0  0  0  0  0  0  0  0  0
   25.7900  -10.0896  -17.6046 C   0  0  1  0  0  0  0  0  0  0  0  0
   26.7828   -9.3267  -16.7924 C   0  0  0  0  0  0  0  0  0  0  0  0
   28.1330   -9.8869  -17.0527 C   0  0  0  0  0  0  0  0  0  0  0  0
   28.4763  -11.1618  -16.6493 C   0  0  0  0  0  0  0  0  0  0  0  0
   29.7225  -11.6984  -16.8713 C   0  0  0  0  0  0  0  0  0  0  0  0
   30.6696  -10.9421  -17.5187 C   0  0  0  0  0  0  0  0  0  0  0  0
   30.3662   -9.6527  -17.9416 C   0  0  0  0  0  0  0  0  0  0  0  0
   29.0913   -9.1394  -17.7011 C   0  0  0  0  0  0  0  0  0  0  0  0
   24.3863   -9.6000  -17.4528 C   0  0  0  0  0  0  0  0  0  0  0  0
   23.9045   -8.9266  -18.3926 O   0  0  0  0  0  0  0  0  0  0  0  0
   23.6026   -9.8601  -16.3214 N   0  0  0  0  0  0  0  0  0  0  0  0
   22.2532   -9.4443  -16.1319 C   0  0  1  0  0  0  0  0  0  0  0  0
   21.4436  -10.4257  -15.3142 C   0  0  0  0  0  0  0  0  0  0  0  0
   22.4005  -10.9228  -13.8346 S   0  0  0  0  0  0  0  0  0  0  0  0
   22.2141   -8.1325  -15.4046 C   0  0  0  0  0  0  0  0  0  0  0  0
   23.2467   -7.6924  -14.8493 O   0  0  0  0  0  0  0  0  0  0  0  0
   22.6041   -3.2409  -14.2595 N   0  0  0  0  0  0  0  0  0  0  0  0
   21.7702   -3.7272  -15.2963 C   0  0  0  0  0  0  0  0  0  0  0  0
   21.0303   -2.9086  -15.9096 O   0  0  0  0  0  0  0  0  0  0  0  0
   21.7629   -5.1358  -15.6540 C   0  0  0  0  0  0  0  0  0  0  0  0
   20.9515   -6.0251  -14.7417 C   0  0  2  0  0  0  0  0  0  0  0  0
   21.0331   -7.3606  -15.3198 N   0  0  0  0  0  0  0  0  0  0  0  0
   19.5311   -5.5207  -14.8376 C   0  0  0  0  0  0  0  0  0  0  0  0
   18.8642   -5.7950  -15.8652 O   0  0  0  0  0  0  0  0  0  0  0  0
   18.9564   -4.7758  -13.8399 O   0  0  0  0  0  0  0  0  0  0  0  0
  2  1  1  6
  3  2  1  0
  4  9  2  0
  4  3  1  0
  5  4  1  0
  6  7  1  0
  6  5  2  0
  7  8  2  0
  8  9  1  0
 10  2  1  0
 10 11  2  0
 12 13  1  0
 12 10  1  0
 13 14  1  1
 15 14  1  0
 16 17  2  0
 16 13  1  0
 19 21  1  0
 19 18  1  0
 20 19  2  0
 22 21  1  6
 22 23  1  0
 23 16  1  0
 24 22  1  0
 24 26  1  0
 25 24  2  0
M  END
$$$$
