FCN.pdb
     RDKit          3D

 26 26  0  0  1  0  0  0  0  0999 V2000
   27.5030  -19.5384  -12.6156 N   0  0  0  0  0  0  0  0  0  0  0  0
   26.4556  -20.4509  -12.2916 C   0  0  1  0  0  0  0  0  0  0  0  0
   26.4036  -20.9078  -10.8718 C   0  0  0  0  0  0  0  0  0  0  0  0
   27.7738  -21.2966  -10.4525 C   0  0  0  0  0  0  0  0  0  0  0  0
   28.6907  -21.7976  -11.3549 C   0  0  0  0  0  0  0  0  0  0  0  0
   29.9617  -22.1724  -10.9884 C   0  0  0  0  0  0  0  0  0  0  0  0
   30.3419  -22.0475   -9.6739 C   0  0  0  0  0  0  0  0  0  0  0  0
   29.4496  -21.5479   -8.7318 C   0  0  0  0  0  0  0  0  0  0  0  0
   28.1677  -21.1759   -9.1380 C   0  0  0  0  0  0  0  0  0  0  0  0
   25.1404  -19.9762  -12.8188 C   0  0  0  0  0  0  0  0  0  0  0  0
   24.7552  -18.8367  -12.4694 O   0  0  0  0  0  0  0  0  0  0  0  0
   24.3362  -20.7416  -13.6728 N   0  0  0  0  0  0  0  0  0  0  0  0
   23.0993  -20.3253  -14.2440 C   0  0  1  0  0  0  0  0  0  0  0  0
   23.1952  -20.0639  -15.7305 C   0  0  0  0  0  0  0  0  0  0  0  0
   21.6795  -19.2085  -16.2989 S   0  0  0  0  0  0  0  0  0  0  0  0
   22.0582  -21.3888  -14.0535 C   0  0  0  0  0  0  0  0  0  0  0  0
   22.3488  -22.5919  -14.2441 O   0  0  0  0  0  0  0  0  0  0  0  0
   19.5431  -23.5020  -11.1329 N   0  0  0  0  0  0  0  0  0  0  0  0
   18.7319  -22.3464  -11.2493 C   0  0  0  0  0  0  0  0  0  0  0  0
   17.9861  -22.0326  -10.2803 O   0  0  0  0  0  0  0  0  0  0  0  0
   18.7541  -21.5331  -12.4535 C   0  0  0  0  0  0  0  0  0  0  0  0
   19.6503  -22.0445  -13.5566 C   0  0  2  0  0  0  0  0  0  0  0  0
   20.7365  -21.0781  -13.6609 N   0  0  0  0  0  0  0  0  0  0  0  0
   18.8151  -22.0012  -14.8142 C   0  0  0  0  0  0  0  0  0  0  0  0
   18.4918  -20.8821  -15.2825 O   0  0  0  0  0  0  0  0  0  0  0  0
   18.4030  -23.1432  -15.4517 O   0  0  0  0  0  0  0  0  0  0  0  0
  2  1  1  1
  3  2  1  0
  4  9  2  0
  4  3  1  0
  5  4  1  0
  6  7  1  0
  6  5  2  0
  7  8  2  0
  8  9  1  0
 10  2  1  0
 10 11  2  0
 12 13  1  0
 12 10  1  0
 13 14  1  6
 15 14  1  0
 16 17  2  0
 16 13  1  0
 19 21  1  0
 19 18  1  0
 20 19  2  0
 22 21  1  1
 22 23  1  0
 23 16  1  0
 24 22  1  0
 24 26  1  0
 25 24  2  0
M  END
$$$$
