FCN.pdb
     RDKit          3D

 26 26  0  0  1  0  0  0  0  0999 V2000
   28.0250  -19.3522  -15.5291 N   0  0  0  0  0  0  0  0  0  0  0  0
   26.9486  -19.0278  -14.6512 C   0  0  1  0  0  0  0  0  0  0  0  0
   25.9875  -18.0000  -15.1485 C   0  0  0  0  0  0  0  0  0  0  0  0
   26.7501  -16.7772  -15.5060 C   0  0  0  0  0  0  0  0  0  0  0  0
   27.0078  -16.4451  -16.8211 C   0  0  0  0  0  0  0  0  0  0  0  0
   27.7189  -15.3232  -17.1759 C   0  0  0  0  0  0  0  0  0  0  0  0
   28.1962  -14.4951  -16.1888 C   0  0  0  0  0  0  0  0  0  0  0  0
   27.9600  -14.7923  -14.8511 C   0  0  0  0  0  0  0  0  0  0  0  0
   27.2336  -15.9384  -14.5261 C   0  0  0  0  0  0  0  0  0  0  0  0
   26.2899  -20.2604  -14.1222 C   0  0  0  0  0  0  0  0  0  0  0  0
   25.7826  -21.0470  -14.9545 O   0  0  0  0  0  0  0  0  0  0  0  0
   26.2190  -20.5650  -12.7568 N   0  0  0  0  0  0  0  0  0  0  0  0
   25.2439  -21.4019  -12.1417 C   0  0  1  0  0  0  0  0  0  0  0  0
   25.4532  -21.5534  -10.6517 C   0  0  0  0  0  0  0  0  0  0  0  0
   25.5270  -19.8975   -9.8741 S   0  0  0  0  0  0  0  0  0  0  0  0
   23.8724  -20.8248  -12.3341 C   0  0  0  0  0  0  0  0  0  0  0  0
   23.7383  -19.6289  -12.6809 O   0  0  0  0  0  0  0  0  0  0  0  0
   19.4582  -21.2112  -15.6201 N   0  0  0  0  0  0  0  0  0  0  0  0
   20.0828  -20.5451  -14.5371 C   0  0  0  0  0  0  0  0  0  0  0  0
   19.5295  -19.5144  -14.0626 O   0  0  0  0  0  0  0  0  0  0  0  0
   21.3321  -21.0328  -13.9770 C   0  0  0  0  0  0  0  0  0  0  0  0
   21.3539  -21.1606  -12.4722 C   0  0  2  0  0  0  0  0  0  0  0  0
   22.7037  -21.5940  -12.1337 N   0  0  0  0  0  0  0  0  0  0  0  0
   20.3737  -22.2612  -12.1418 C   0  0  0  0  0  0  0  0  0  0  0  0
   20.5613  -23.4006  -12.6344 O   0  0  0  0  0  0  0  0  0  0  0  0
   19.2925  -22.0493  -11.3255 O   0  0  0  0  0  0  0  0  0  0  0  0
  2  1  1  6
  3  2  1  0
  4  9  2  0
  4  3  1  0
  5  4  1  0
  6  7  1  0
  6  5  2  0
  7  8  2  0
  8  9  1  0
 10  2  1  0
 10 11  2  0
 12 13  1  0
 12 10  1  0
 13 14  1  1
 15 14  1  0
 16 17  2  0
 16 13  1  0
 19 21  1  0
 19 18  1  0
 20 19  2  0
 22 21  1  6
 22 23  1  0
 23 16  1  0
 24 22  1  0
 24 26  1  0
 25 24  2  0
M  END
$$$$
