FCN.pdb
     RDKit          3D

 26 26  0  0  1  0  0  0  0  0999 V2000
   23.0268  -16.0180  -16.8490 N   0  0  0  0  0  0  0  0  0  0  0  0
   22.6569  -14.7769  -17.4469 C   0  0  1  0  0  0  0  0  0  0  0  0
   21.3540  -14.7653  -18.1747 C   0  0  0  0  0  0  0  0  0  0  0  0
   21.4084  -15.7852  -19.2524 C   0  0  0  0  0  0  0  0  0  0  0  0
   22.1535  -15.5872  -20.3977 C   0  0  0  0  0  0  0  0  0  0  0  0
   22.2120  -16.5130  -21.4124 C   0  0  0  0  0  0  0  0  0  0  0  0
   21.5030  -17.6836  -21.2902 C   0  0  0  0  0  0  0  0  0  0  0  0
   20.7390  -17.9235  -20.1534 C   0  0  0  0  0  0  0  0  0  0  0  0
   20.7027  -16.9631  -19.1420 C   0  0  0  0  0  0  0  0  0  0  0  0
   22.8195  -13.6429  -16.4875 C   0  0  0  0  0  0  0  0  0  0  0  0
   22.3024  -13.7669  -15.3534 O   0  0  0  0  0  0  0  0  0  0  0  0
   23.5148  -12.4681  -16.8010 N   0  0  0  0  0  0  0  0  0  0  0  0
   23.7228  -11.3660  -15.9224 C   0  0  1  0  0  0  0  0  0  0  0  0
   25.1643  -10.9106  -15.8796 C   0  0  0  0  0  0  0  0  0  0  0  0
   26.1835  -12.1871  -15.0526 S   0  0  0  0  0  0  0  0  0  0  0  0
   22.9056  -10.1890  -16.3674 C   0  0  0  0  0  0  0  0  0  0  0  0
   22.8723   -9.8706  -17.5781 O   0  0  0  0  0  0  0  0  0  0  0  0
   19.2137   -6.4682  -16.3857 N   0  0  0  0  0  0  0  0  0  0  0  0
   18.8703   -7.7724  -15.9522 C   0  0  0  0  0  0  0  0  0  0  0  0
   17.6500   -8.0534  -15.7921 O   0  0  0  0  0  0  0  0  0  0  0  0
   19.8944   -8.7717  -15.6976 C   0  0  0  0  0  0  0  0  0  0  0  0
   21.3168   -8.2783  -15.8202 C   0  0  2  0  0  0  0  0  0  0  0  0
   22.1587   -9.4104  -15.4544 N   0  0  0  0  0  0  0  0  0  0  0  0
   21.4612   -7.1879  -14.7852 C   0  0  0  0  0  0  0  0  0  0  0  0
   21.8087   -7.5063  -13.6216 O   0  0  0  0  0  0  0  0  0  0  0  0
   21.2231   -5.8702  -15.0809 O   0  0  0  0  0  0  0  0  0  0  0  0
  2  1  1  1
  3  2  1  0
  4  9  2  0
  4  3  1  0
  5  4  1  0
  6  7  1  0
  6  5  2  0
  7  8  2  0
  8  9  1  0
 10  2  1  0
 10 11  2  0
 12 13  1  0
 12 10  1  0
 13 14  1  6
 15 14  1  0
 16 17  2  0
 16 13  1  0
 19 21  1  0
 19 18  1  0
 20 19  2  0
 22 21  1  1
 22 23  1  0
 23 16  1  0
 24 22  1  0
 24 26  1  0
 25 24  2  0
M  END
$$$$
