FCN.pdb
     RDKit          3D

 26 26  0  0  1  0  0  0  0  0999 V2000
   27.2001  -19.2701  -19.6802 N   0  0  0  0  0  0  0  0  0  0  0  0
   26.3306  -18.4107  -18.9453 C   0  0  1  0  0  0  0  0  0  0  0  0
   25.3549  -17.6225  -19.7540 C   0  0  0  0  0  0  0  0  0  0  0  0
   26.1119  -16.6814  -20.6176 C   0  0  0  0  0  0  0  0  0  0  0  0
   26.2034  -16.8676  -21.9826 C   0  0  0  0  0  0  0  0  0  0  0  0
   26.9057  -16.0147  -22.8009 C   0  0  0  0  0  0  0  0  0  0  0  0
   27.5454  -14.9326  -22.2462 C   0  0  0  0  0  0  0  0  0  0  0  0
   27.4796  -14.7077  -20.8756 C   0  0  0  0  0  0  0  0  0  0  0  0
   26.7572  -15.5924  -20.0742 C   0  0  0  0  0  0  0  0  0  0  0  0
   25.7126  -19.1256  -17.7877 C   0  0  0  0  0  0  0  0  0  0  0  0
   25.1322  -20.2106  -18.0217 O   0  0  0  0  0  0  0  0  0  0  0  0
   25.7564  -18.6389  -16.4750 N   0  0  0  0  0  0  0  0  0  0  0  0
   25.1644  -19.2606  -15.3381 C   0  0  1  0  0  0  0  0  0  0  0  0
   25.6370  -18.6676  -14.0296 C   0  0  0  0  0  0  0  0  0  0  0  0
   27.4658  -18.7214  -13.9602 S   0  0  0  0  0  0  0  0  0  0  0  0
   23.6734  -19.0983  -15.3783 C   0  0  0  0  0  0  0  0  0  0  0  0
   23.1700  -17.9596  -15.5138 O   0  0  0  0  0  0  0  0  0  0  0  0
   20.2325  -19.8289  -17.8347 N   0  0  0  0  0  0  0  0  0  0  0  0
   20.3022  -21.1314  -17.2821 C   0  0  0  0  0  0  0  0  0  0  0  0
   19.8781  -22.1019  -17.9691 O   0  0  0  0  0  0  0  0  0  0  0  0
   20.8511  -21.3543  -15.9550 C   0  0  0  0  0  0  0  0  0  0  0  0
   21.3439  -20.1139  -15.2479 C   0  0  2  0  0  0  0  0  0  0  0  0
   22.7987  -20.2028  -15.2655 N   0  0  0  0  0  0  0  0  0  0  0  0
   20.8493  -20.2311  -13.8256 C   0  0  0  0  0  0  0  0  0  0  0  0
   21.4932  -20.9502  -13.0230 O   0  0  0  0  0  0  0  0  0  0  0  0
   19.7237  -19.5787  -13.3925 O   0  0  0  0  0  0  0  0  0  0  0  0
  2  1  1  6
  3  2  1  0
  4  9  2  0
  4  3  1  0
  5  4  1  0
  6  7  1  0
  6  5  2  0
  7  8  2  0
  8  9  1  0
 10  2  1  0
 10 11  2  0
 12 13  1  0
 12 10  1  0
 13 14  1  1
 15 14  1  0
 16 17  2  0
 16 13  1  0
 19 21  1  0
 19 18  1  0
 20 19  2  0
 22 21  1  6
 22 23  1  0
 23 16  1  0
 24 22  1  0
 24 26  1  0
 25 24  2  0
M  END
$$$$
