VYG.pdb
     RDKit          3D

 24 24  0  0  1  0  0  0  0  0999 V2000
    9.8464  -15.6217   18.2816 C   0  0  0  0  0  0  0  0  0  0  0  0
    8.3356  -15.5790   18.2953 C   0  0  2  0  0  0  0  0  0  0  0  0
    7.7453  -15.9734   16.9794 C   0  0  0  0  0  0  0  0  0  0  0  0
    7.8120  -14.2246   18.6903 C   0  0  2  0  0  0  0  0  0  0  0  0
    8.1259  -13.1976   17.7502 N   0  0  0  0  0  0  0  0  0  0  0  0
    8.2809  -13.8954   20.0729 C   0  0  0  0  0  0  0  0  0  0  0  0
    9.2109  -13.0613   20.2166 O   0  0  0  0  0  0  0  0  0  0  0  0
    6.9344  -12.4110   28.7549 O   0  0  0  0  0  0  0  0  0  0  0  0
    6.8697  -12.8557   27.4376 C   0  0  0  0  0  0  0  0  0  0  0  0
    6.8251  -11.9410   26.4074 C   0  0  0  0  0  0  0  0  0  0  0  0
    6.7603  -12.3512   25.0846 C   0  0  0  0  0  0  0  0  0  0  0  0
    6.7374  -13.6856   24.7361 C   0  0  0  0  0  0  0  0  0  0  0  0
    6.6632  -14.1469   23.3363 C   0  0  0  0  0  0  0  0  0  0  0  0
    7.9527  -14.0335   22.5755 C   0  0  2  0  0  0  0  0  0  0  0  0
    7.7050  -14.4966   21.2000 N   0  0  0  0  0  0  0  0  0  0  0  0
    9.0591  -14.8166   23.1752 C   0  0  0  0  0  0  0  0  0  0  0  0
    9.4626  -14.4938   24.3340 O   0  0  0  0  0  0  0  0  0  0  0  0
    6.7831  -14.5955   25.7860 C   0  0  0  0  0  0  0  0  0  0  0  0
    6.8476  -14.1912   27.1032 C   0  0  0  0  0  0  0  0  0  0  0  0
    9.6319  -15.8917   22.4510 N   0  0  0  0  0  0  0  0  0  0  0  0
   10.6103  -16.7677   23.0525 C   0  0  0  0  0  0  0  0  0  0  0  0
   10.9845  -17.8650   22.1301 C   0  0  0  0  0  0  0  0  0  0  0  0
   10.1542  -18.7778   21.9175 O   0  0  0  0  0  0  0  0  0  0  0  0
   12.2102  -17.8804   21.5240 O   0  0  0  0  0  0  0  0  0  0  0  0
  2  1  1  6
  2  4  1  0
  2  3  1  0
  4  6  1  0
  4  5  1  6
  6  7  2  0
  8  9  1  0
  9 10  2  0
 10 11  1  0
 12 11  2  0
 12 13  1  0
 14 13  1  1
 14 16  1  0
 15 14  1  0
 15  6  1  0
 16 20  1  0
 16 17  2  0
 18 12  1  0
 19  9  1  0
 19 18  2  0
 20 21  1  0
 22 24  1  0
 22 21  1  0
 23 22  2  0
M  END
$$$$
