VYG.pdb
     RDKit          3D

 24 24  0  0  1  0  0  0  0  0999 V2000
   11.7827  -18.8087   21.9083 C   0  0  0  0  0  0  0  0  0  0  0  0
   10.3195  -18.8565   21.5327 C   0  0  2  0  0  0  0  0  0  0  0  0
    9.9869  -20.0524   20.6992 C   0  0  0  0  0  0  0  0  0  0  0  0
    9.8796  -17.6100   20.8135 C   0  0  2  0  0  0  0  0  0  0  0  0
   10.6684  -17.3094   19.6626 N   0  0  0  0  0  0  0  0  0  0  0  0
    9.8267  -16.4706   21.7825 C   0  0  0  0  0  0  0  0  0  0  0  0
   10.7930  -15.6673   21.8291 O   0  0  0  0  0  0  0  0  0  0  0  0
    6.0239  -10.6205   27.3707 O   0  0  0  0  0  0  0  0  0  0  0  0
    6.3031  -11.6491   26.4756 C   0  0  0  0  0  0  0  0  0  0  0  0
    5.9654  -12.9465   26.7964 C   0  0  0  0  0  0  0  0  0  0  0  0
    6.2298  -13.9936   25.9269 C   0  0  0  0  0  0  0  0  0  0  0  0
    6.8398  -13.7907   24.7064 C   0  0  0  0  0  0  0  0  0  0  0  0
    7.1366  -14.8891   23.7667 C   0  0  0  0  0  0  0  0  0  0  0  0
    8.6006  -15.1426   23.5496 C   0  0  2  0  0  0  0  0  0  0  0  0
    8.7271  -16.2865   22.6312 N   0  0  0  0  0  0  0  0  0  0  0  0
    9.3401  -15.4235   24.8031 C   0  0  0  0  0  0  0  0  0  0  0  0
    9.4831  -14.4798   25.6391 O   0  0  0  0  0  0  0  0  0  0  0  0
    7.1740  -12.4772   24.3977 C   0  0  0  0  0  0  0  0  0  0  0  0
    6.9125  -11.4329   25.2601 C   0  0  0  0  0  0  0  0  0  0  0  0
    9.8623  -16.7203   25.0351 N   0  0  0  0  0  0  0  0  0  0  0  0
   10.4805  -17.0688   26.2932 C   0  0  0  0  0  0  0  0  0  0  0  0
   10.9896  -18.4599   26.2718 C   0  0  0  0  0  0  0  0  0  0  0  0
   10.1649  -19.4003   26.3291 O   0  0  0  0  0  0  0  0  0  0  0  0
   12.3313  -18.7114   26.1913 O   0  0  0  0  0  0  0  0  0  0  0  0
  2  1  1  6
  2  4  1  0
  2  3  1  0
  4  6  1  0
  4  5  1  6
  6  7  2  0
  8  9  1  0
  9 10  2  0
 10 11  1  0
 12 11  2  0
 12 13  1  0
 14 13  1  1
 14 16  1  0
 15 14  1  0
 15  6  1  0
 16 20  1  0
 16 17  2  0
 18 12  1  0
 19  9  1  0
 19 18  2  0
 20 21  1  0
 22 24  1  0
 22 21  1  0
 23 22  2  0
M  END
$$$$
