VYG.pdb
     RDKit          3D

 24 24  0  0  1  0  0  0  0  0999 V2000
   10.4795  -18.6547   20.4903 C   0  0  0  0  0  0  0  0  0  0  0  0
    9.0083  -18.4203   20.2356 C   0  0  2  0  0  0  0  0  0  0  0  0
    8.4467  -19.3774   19.2336 C   0  0  0  0  0  0  0  0  0  0  0  0
    8.7296  -17.0106   19.7886 C   0  0  2  0  0  0  0  0  0  0  0  0
    9.4299  -16.6421   18.6009 N   0  0  0  0  0  0  0  0  0  0  0  0
    8.9935  -16.0695   20.9220 C   0  0  0  0  0  0  0  0  0  0  0  0
   10.0191  -15.3430   20.8822 O   0  0  0  0  0  0  0  0  0  0  0  0
    6.6979  -10.8513   27.8160 O   0  0  0  0  0  0  0  0  0  0  0  0
    6.7475  -11.8272   26.8249 C   0  0  0  0  0  0  0  0  0  0  0  0
    6.8363  -11.4546   25.5007 C   0  0  0  0  0  0  0  0  0  0  0  0
    6.8876  -12.4019   24.4897 C   0  0  0  0  0  0  0  0  0  0  0  0
    6.8523  -13.7548   24.7565 C   0  0  0  0  0  0  0  0  0  0  0  0
    6.8999  -14.7817   23.6978 C   0  0  0  0  0  0  0  0  0  0  0  0
    8.2525  -14.9676   23.0730 C   0  0  2  0  0  0  0  0  0  0  0  0
    8.1234  -15.9858   22.0171 N   0  0  0  0  0  0  0  0  0  0  0  0
    9.2951  -15.3814   24.0419 C   0  0  0  0  0  0  0  0  0  0  0  0
    9.6179  -14.5667   24.9594 O   0  0  0  0  0  0  0  0  0  0  0  0
    6.7627  -14.1143   26.0963 C   0  0  0  0  0  0  0  0  0  0  0  0
    6.7116  -13.1748   27.1049 C   0  0  0  0  0  0  0  0  0  0  0  0
    9.8981  -16.6583   23.9224 N   0  0  0  0  0  0  0  0  0  0  0  0
   10.8150  -17.1541   24.9224 C   0  0  0  0  0  0  0  0  0  0  0  0
   11.2287  -18.5454   24.6258 C   0  0  0  0  0  0  0  0  0  0  0  0
   10.7690  -19.1015   23.6025 O   0  0  0  0  0  0  0  0  0  0  0  0
   12.0942  -19.2077   25.4518 O   0  0  0  0  0  0  0  0  0  0  0  0
  2  1  1  6
  2  4  1  0
  2  3  1  0
  4  6  1  0
  4  5  1  6
  6  7  2  0
  8  9  1  0
  9 10  2  0
 10 11  1  0
 12 11  2  0
 12 13  1  0
 14 13  1  1
 14 16  1  0
 15 14  1  0
 15  6  1  0
 16 20  1  0
 16 17  2  0
 18 12  1  0
 19  9  1  0
 19 18  2  0
 20 21  1  0
 22 24  1  0
 22 21  1  0
 23 22  2  0
M  END
$$$$
