VYG.pdb
     RDKit          3D

 24 24  0  0  1  0  0  0  0  0999 V2000
    8.7118  -15.9285   19.6685 C   0  0  0  0  0  0  0  0  0  0  0  0
    7.3364  -15.4531   20.0766 C   0  0  2  0  0  0  0  0  0  0  0  0
    6.3594  -15.5067   18.9460 C   0  0  0  0  0  0  0  0  0  0  0  0
    7.3653  -14.0598   20.6444 C   0  0  2  0  0  0  0  0  0  0  0  0
    7.7094  -13.0617   19.6839 N   0  0  0  0  0  0  0  0  0  0  0  0
    8.2611  -14.0311   21.8430 C   0  0  0  0  0  0  0  0  0  0  0  0
    9.3954  -13.4980   21.7412 O   0  0  0  0  0  0  0  0  0  0  0  0
   10.7085  -14.8495   30.3959 O   0  0  0  0  0  0  0  0  0  0  0  0
   10.0169  -14.7509   29.1920 C   0  0  0  0  0  0  0  0  0  0  0  0
    9.4735  -15.8811   28.6199 C   0  0  0  0  0  0  0  0  0  0  0  0
    8.7789  -15.8167   27.4216 C   0  0  0  0  0  0  0  0  0  0  0  0
    8.5987  -14.6271   26.7471 C   0  0  0  0  0  0  0  0  0  0  0  0
    7.8684  -14.5339   25.4681 C   0  0  0  0  0  0  0  0  0  0  0  0
    8.7355  -14.6493   24.2477 C   0  0  2  0  0  0  0  0  0  0  0  0
    7.8592  -14.5839   23.0662 N   0  0  0  0  0  0  0  0  0  0  0  0
    9.5332  -15.8980   24.2101 C   0  0  0  0  0  0  0  0  0  0  0  0
    8.9164  -16.9999   24.0870 O   0  0  0  0  0  0  0  0  0  0  0  0
    9.1524  -13.4967   27.3369 C   0  0  0  0  0  0  0  0  0  0  0  0
    9.8439  -13.5567   28.5289 C   0  0  0  0  0  0  0  0  0  0  0  0
   10.9453  -15.8329   24.3110 N   0  0  0  0  0  0  0  0  0  0  0  0
   11.7431  -17.0244   24.4855 C   0  0  0  0  0  0  0  0  0  0  0  0
   12.2990  -17.4897   23.1935 C   0  0  0  0  0  0  0  0  0  0  0  0
   11.6710  -18.3616   22.5506 O   0  0  0  0  0  0  0  0  0  0  0  0
   13.4727  -16.9780   22.7134 O   0  0  0  0  0  0  0  0  0  0  0  0
  2  1  1  6
  2  4  1  0
  2  3  1  0
  4  6  1  0
  4  5  1  6
  6  7  2  0
  8  9  1  0
  9 10  2  0
 10 11  1  0
 12 11  2  0
 12 13  1  0
 14 13  1  1
 14 16  1  0
 15 14  1  0
 15  6  1  0
 16 20  1  0
 16 17  2  0
 18 12  1  0
 19  9  1  0
 19 18  2  0
 20 21  1  0
 22 24  1  0
 22 21  1  0
 23 22  2  0
M  END
$$$$
