VYG.pdb
     RDKit          3D

 24 24  0  0  1  0  0  0  0  0999 V2000
    8.2259  -15.7696   16.8351 C   0  0  0  0  0  0  0  0  0  0  0  0
    8.5889  -15.4986   18.2770 C   0  0  2  0  0  0  0  0  0  0  0  0
    8.3802  -16.6953   19.1487 C   0  0  0  0  0  0  0  0  0  0  0  0
    7.8257  -14.3313   18.8423 C   0  0  2  0  0  0  0  0  0  0  0  0
    7.8051  -13.1944   17.9798 N   0  0  0  0  0  0  0  0  0  0  0  0
    8.3547  -14.0052   20.2038 C   0  0  0  0  0  0  0  0  0  0  0  0
    9.3964  -13.3074   20.2998 O   0  0  0  0  0  0  0  0  0  0  0  0
    7.1946  -11.7439   28.7290 O   0  0  0  0  0  0  0  0  0  0  0  0
    7.0748  -12.2866   27.4529 C   0  0  0  0  0  0  0  0  0  0  0  0
    7.7817  -13.4230   27.1229 C   0  0  0  0  0  0  0  0  0  0  0  0
    7.6844  -13.9883   25.8606 C   0  0  0  0  0  0  0  0  0  0  0  0
    6.8813  -13.4456   24.8792 C   0  0  0  0  0  0  0  0  0  0  0  0
    6.7655  -14.0256   23.5273 C   0  0  0  0  0  0  0  0  0  0  0  0
    8.0222  -13.9502   22.7090 C   0  0  2  0  0  0  0  0  0  0  0  0
    7.7132  -14.4611   21.3631 N   0  0  0  0  0  0  0  0  0  0  0  0
    9.1481  -14.7197   23.2898 C   0  0  0  0  0  0  0  0  0  0  0  0
    9.5897  -14.3703   24.4267 O   0  0  0  0  0  0  0  0  0  0  0  0
    6.1750  -12.3002   25.2276 C   0  0  0  0  0  0  0  0  0  0  0  0
    6.2692  -11.7348   26.4822 C   0  0  0  0  0  0  0  0  0  0  0  0
    9.6968  -15.8116   22.5721 N   0  0  0  0  0  0  0  0  0  0  0  0
   10.6959  -16.6730   23.1606 C   0  0  0  0  0  0  0  0  0  0  0  0
   11.1429  -17.7080   22.1994 C   0  0  0  0  0  0  0  0  0  0  0  0
   12.3718  -17.8735   22.0261 O   0  0  0  0  0  0  0  0  0  0  0  0
   10.2327  -18.4662   21.5162 O   0  0  0  0  0  0  0  0  0  0  0  0
  2  1  1  6
  2  4  1  0
  2  3  1  0
  4  6  1  0
  4  5  1  6
  6  7  2  0
  8  9  1  0
  9 10  2  0
 10 11  1  0
 12 11  2  0
 12 13  1  0
 14 13  1  1
 14 16  1  0
 15 14  1  0
 15  6  1  0
 16 20  1  0
 16 17  2  0
 18 12  1  0
 19  9  1  0
 19 18  2  0
 20 21  1  0
 22 24  1  0
 22 21  1  0
 23 22  2  0
M  END
$$$$
