VYG.pdb
     RDKit          3D

 24 24  0  0  1  0  0  0  0  0999 V2000
    9.0799  -15.3483   18.9823 C   0  0  0  0  0  0  0  0  0  0  0  0
    7.7733  -14.7375   19.4339 C   0  0  2  0  0  0  0  0  0  0  0  0
    6.9081  -14.3344   18.2830 C   0  0  0  0  0  0  0  0  0  0  0  0
    7.9854  -13.5523   20.3367 C   0  0  2  0  0  0  0  0  0  0  0  0
    8.6533  -12.4642   19.6987 N   0  0  0  0  0  0  0  0  0  0  0  0
    8.6826  -13.9974   21.5840 C   0  0  0  0  0  0  0  0  0  0  0  0
    9.9069  -13.7444   21.7190 O   0  0  0  0  0  0  0  0  0  0  0  0
    6.1857  -10.1948   27.1514 O   0  0  0  0  0  0  0  0  0  0  0  0
    6.5117  -11.4267   26.5917 C   0  0  0  0  0  0  0  0  0  0  0  0
    7.7136  -12.0247   26.9048 C   0  0  0  0  0  0  0  0  0  0  0  0
    8.0681  -13.2512   26.3643 C   0  0  0  0  0  0  0  0  0  0  0  0
    7.2419  -13.9293   25.4924 C   0  0  0  0  0  0  0  0  0  0  0  0
    7.5993  -15.2327   24.8999 C   0  0  0  0  0  0  0  0  0  0  0  0
    8.6481  -15.1612   23.8277 C   0  0  2  0  0  0  0  0  0  0  0  0
    7.9985  -14.6855   22.5949 N   0  0  0  0  0  0  0  0  0  0  0  0
    9.3161  -16.4595   23.5721 C   0  0  0  0  0  0  0  0  0  0  0  0
    8.7795  -17.2568   22.7438 O   0  0  0  0  0  0  0  0  0  0  0  0
    6.0339  -13.3134   25.1867 C   0  0  0  0  0  0  0  0  0  0  0  0
    5.6776  -12.0933   25.7225 C   0  0  0  0  0  0  0  0  0  0  0  0
   10.5205  -16.7751   24.2489 N   0  0  0  0  0  0  0  0  0  0  0  0
   11.8054  -16.3721   23.7262 C   0  0  0  0  0  0  0  0  0  0  0  0
   12.7532  -17.5105   23.7005 C   0  0  0  0  0  0  0  0  0  0  0  0
   12.3018  -18.6690   23.8482 O   0  0  0  0  0  0  0  0  0  0  0  0
   14.0922  -17.3003   23.5192 O   0  0  0  0  0  0  0  0  0  0  0  0
  2  1  1  6
  2  4  1  0
  2  3  1  0
  4  6  1  0
  4  5  1  6
  6  7  2  0
  8  9  1  0
  9 10  2  0
 10 11  1  0
 12 11  2  0
 12 13  1  0
 14 13  1  1
 14 16  1  0
 15 14  1  0
 15  6  1  0
 16 20  1  0
 16 17  2  0
 18 12  1  0
 19  9  1  0
 19 18  2  0
 20 21  1  0
 22 24  1  0
 22 21  1  0
 23 22  2  0
M  END
$$$$
