VYG.pdb
     RDKit          3D

 24 24  0  0  1  0  0  0  0  0999 V2000
    9.1312  -19.5561   17.9924 C   0  0  0  0  0  0  0  0  0  0  0  0
    9.3235  -18.6254   19.1676 C   0  0  2  0  0  0  0  0  0  0  0  0
    8.9625  -19.2709   20.4671 C   0  0  0  0  0  0  0  0  0  0  0  0
    8.5421  -17.3488   19.0115 C   0  0  2  0  0  0  0  0  0  0  0  0
    8.7343  -16.7159   17.7467 N   0  0  0  0  0  0  0  0  0  0  0  0
    8.8474  -16.4368   20.1582 C   0  0  0  0  0  0  0  0  0  0  0  0
    9.9596  -15.8508   20.1891 O   0  0  0  0  0  0  0  0  0  0  0  0
    7.2883  -11.6393   27.5468 O   0  0  0  0  0  0  0  0  0  0  0  0
    7.2012  -12.3807   26.3722 C   0  0  0  0  0  0  0  0  0  0  0  0
    6.8001  -13.6985   26.4223 C   0  0  0  0  0  0  0  0  0  0  0  0
    6.7030  -14.4642   25.2705 C   0  0  0  0  0  0  0  0  0  0  0  0
    7.0010  -13.9492   24.0260 C   0  0  0  0  0  0  0  0  0  0  0  0
    6.9107  -14.7455   22.7869 C   0  0  0  0  0  0  0  0  0  0  0  0
    8.2013  -15.3866   22.3649 C   0  0  2  0  0  0  0  0  0  0  0  0
    7.9216  -16.2275   21.1890 N   0  0  0  0  0  0  0  0  0  0  0  0
    8.8249  -16.2075   23.4298 C   0  0  0  0  0  0  0  0  0  0  0  0
    8.2566  -17.2925   23.7606 O   0  0  0  0  0  0  0  0  0  0  0  0
    7.4038  -12.6192   23.9922 C   0  0  0  0  0  0  0  0  0  0  0  0
    7.5014  -11.8542   25.1359 C   0  0  0  0  0  0  0  0  0  0  0  0
   10.0237  -15.7677   24.0446 N   0  0  0  0  0  0  0  0  0  0  0  0
   10.6823  -16.5566   25.0596 C   0  0  0  0  0  0  0  0  0  0  0  0
   12.1553  -16.4922   24.9150 C   0  0  0  0  0  0  0  0  0  0  0  0
   12.6665  -16.8481   23.8288 O   0  0  0  0  0  0  0  0  0  0  0  0
   12.9397  -16.0536   25.9457 O   0  0  0  0  0  0  0  0  0  0  0  0
  2  1  1  6
  2  4  1  0
  2  3  1  0
  4  6  1  0
  4  5  1  6
  6  7  2  0
  8  9  1  0
  9 10  2  0
 10 11  1  0
 12 11  2  0
 12 13  1  0
 14 13  1  1
 14 16  1  0
 15 14  1  0
 15  6  1  0
 16 20  1  0
 16 17  2  0
 18 12  1  0
 19  9  1  0
 19 18  2  0
 20 21  1  0
 22 24  1  0
 22 21  1  0
 23 22  2  0
M  END
$$$$
