VYG.pdb
     RDKit          3D

 24 24  0  0  1  0  0  0  0  0999 V2000
    7.5053  -14.2977   18.0526 C   0  0  0  0  0  0  0  0  0  0  0  0
    8.0654  -14.7326   19.3873 C   0  0  2  0  0  0  0  0  0  0  0  0
    7.3561  -15.9284   19.9374 C   0  0  0  0  0  0  0  0  0  0  0  0
    8.0322  -13.6227   20.4029 C   0  0  2  0  0  0  0  0  0  0  0  0
    8.5415  -12.3845   19.9085 N   0  0  0  0  0  0  0  0  0  0  0  0
    8.7299  -14.0698   21.6493 C   0  0  0  0  0  0  0  0  0  0  0  0
    9.9470  -13.7908   21.7976 O   0  0  0  0  0  0  0  0  0  0  0  0
    5.9200  -10.3677   27.2848 O   0  0  0  0  0  0  0  0  0  0  0  0
    6.3431  -11.5675   26.7204 C   0  0  0  0  0  0  0  0  0  0  0  0
    5.4716  -12.3066   25.9495 C   0  0  0  0  0  0  0  0  0  0  0  0
    5.8620  -13.5058   25.3733 C   0  0  0  0  0  0  0  0  0  0  0  0
    7.1327  -14.0153   25.5416 C   0  0  0  0  0  0  0  0  0  0  0  0
    7.5699  -15.2915   24.9433 C   0  0  0  0  0  0  0  0  0  0  0  0
    8.6699  -15.1581   23.9300 C   0  0  2  0  0  0  0  0  0  0  0  0
    8.0541  -14.7879   22.6448 N   0  0  0  0  0  0  0  0  0  0  0  0
    9.4685  -16.3956   23.7639 C   0  0  0  0  0  0  0  0  0  0  0  0
   10.0530  -16.8733   24.7837 O   0  0  0  0  0  0  0  0  0  0  0  0
    7.9995  -13.2584   26.3213 C   0  0  0  0  0  0  0  0  0  0  0  0
    7.6148  -12.0650   26.8961 C   0  0  0  0  0  0  0  0  0  0  0  0
    9.5593  -17.0073   22.4888 N   0  0  0  0  0  0  0  0  0  0  0  0
   10.2646  -18.2537   22.3004 C   0  0  0  0  0  0  0  0  0  0  0  0
   11.7185  -18.0251   22.1301 C   0  0  0  0  0  0  0  0  0  0  0  0
   12.1568  -16.8566   22.2314 O   0  0  0  0  0  0  0  0  0  0  0  0
   12.5633  -19.0678   21.8680 O   0  0  0  0  0  0  0  0  0  0  0  0
  2  1  1  6
  2  4  1  0
  2  3  1  0
  4  6  1  0
  4  5  1  6
  6  7  2  0
  8  9  1  0
  9 10  2  0
 10 11  1  0
 12 11  2  0
 12 13  1  0
 14 13  1  1
 14 16  1  0
 15 14  1  0
 15  6  1  0
 16 20  1  0
 16 17  2  0
 18 12  1  0
 19  9  1  0
 19 18  2  0
 20 21  1  0
 22 24  1  0
 22 21  1  0
 23 22  2  0
M  END
$$$$
