VYG.pdb
     RDKit          3D

 24 24  0  0  1  0  0  0  0  0999 V2000
    8.0623  -16.5274   19.8847 C   0  0  0  0  0  0  0  0  0  0  0  0
    6.9370  -15.6671   20.4117 C   0  0  2  0  0  0  0  0  0  0  0  0
    5.8313  -15.5085   19.4179 C   0  0  0  0  0  0  0  0  0  0  0  0
    7.4186  -14.3080   20.8424 C   0  0  2  0  0  0  0  0  0  0  0  0
    7.9596  -13.5318   19.7738 N   0  0  0  0  0  0  0  0  0  0  0  0
    8.3787  -14.4595   21.9805 C   0  0  0  0  0  0  0  0  0  0  0  0
    9.6130  -14.4256   21.7428 O   0  0  0  0  0  0  0  0  0  0  0  0
   11.1255  -15.0809   30.4741 O   0  0  0  0  0  0  0  0  0  0  0  0
   10.3942  -14.9290   29.2997 C   0  0  0  0  0  0  0  0  0  0  0  0
   10.2347  -13.6751   28.7496 C   0  0  0  0  0  0  0  0  0  0  0  0
    9.5122  -13.4900   27.5808 C   0  0  0  0  0  0  0  0  0  0  0  0
    8.9211  -14.5436   26.9151 C   0  0  0  0  0  0  0  0  0  0  0  0
    8.1429  -14.3712   25.6732 C   0  0  0  0  0  0  0  0  0  0  0  0
    8.8331  -14.8639   24.4341 C   0  0  2  0  0  0  0  0  0  0  0  0
    7.9277  -14.6370   23.2953 N   0  0  0  0  0  0  0  0  0  0  0  0
    9.2049  -16.2972   24.4995 C   0  0  0  0  0  0  0  0  0  0  0  0
    8.2940  -17.1617   24.3183 O   0  0  0  0  0  0  0  0  0  0  0  0
    9.0911  -15.8012   27.4822 C   0  0  0  0  0  0  0  0  0  0  0  0
    9.8093  -15.9894   28.6448 C   0  0  0  0  0  0  0  0  0  0  0  0
   10.5492  -16.6632   24.7591 N   0  0  0  0  0  0  0  0  0  0  0  0
   11.5119  -16.7991   23.6908 C   0  0  0  0  0  0  0  0  0  0  0  0
   12.8210  -17.2631   24.2065 C   0  0  0  0  0  0  0  0  0  0  0  0
   13.8382  -16.5744   23.9641 O   0  0  0  0  0  0  0  0  0  0  0  0
   12.9161  -18.4186   24.9315 O   0  0  0  0  0  0  0  0  0  0  0  0
  2  1  1  6
  2  4  1  0
  2  3  1  0
  4  6  1  0
  4  5  1  6
  6  7  2  0
  8  9  1  0
  9 10  2  0
 10 11  1  0
 12 11  2  0
 12 13  1  0
 14 13  1  1
 14 16  1  0
 15 14  1  0
 15  6  1  0
 16 20  1  0
 16 17  2  0
 18 12  1  0
 19  9  1  0
 19 18  2  0
 20 21  1  0
 22 24  1  0
 22 21  1  0
 23 22  2  0
M  END
$$$$
