VYG.pdb
     RDKit          3D

 24 24  0  0  1  0  0  0  0  0999 V2000
    9.8196  -15.7868   18.6227 C   0  0  0  0  0  0  0  0  0  0  0  0
    8.3544  -15.4194   18.6743 C   0  0  2  0  0  0  0  0  0  0  0  0
    7.7038  -15.4927   17.3300 C   0  0  0  0  0  0  0  0  0  0  0  0
    8.1351  -14.0507   19.2599 C   0  0  2  0  0  0  0  0  0  0  0  0
    8.7022  -13.0002   18.4776 N   0  0  0  0  0  0  0  0  0  0  0  0
    8.6200  -14.0333   20.6757 C   0  0  0  0  0  0  0  0  0  0  0  0
    9.7136  -13.4700   20.9366 O   0  0  0  0  0  0  0  0  0  0  0  0
    6.7650  -10.9876   28.3609 O   0  0  0  0  0  0  0  0  0  0  0  0
    6.8288  -11.8658   27.2830 C   0  0  0  0  0  0  0  0  0  0  0  0
    5.8675  -11.8103   26.2967 C   0  0  0  0  0  0  0  0  0  0  0  0
    5.9025  -12.6708   25.2101 C   0  0  0  0  0  0  0  0  0  0  0  0
    6.8938  -13.6187   25.0632 C   0  0  0  0  0  0  0  0  0  0  0  0
    6.9494  -14.5491   23.9191 C   0  0  0  0  0  0  0  0  0  0  0  0
    8.2259  -14.4888   23.1307 C   0  0  2  0  0  0  0  0  0  0  0  0
    7.8811  -14.6296   21.7062 N   0  0  0  0  0  0  0  0  0  0  0  0
    9.2031  -15.5351   23.5145 C   0  0  0  0  0  0  0  0  0  0  0  0
    9.6135  -15.5607   24.7148 O   0  0  0  0  0  0  0  0  0  0  0  0
    7.8555  -13.6620   26.0659 C   0  0  0  0  0  0  0  0  0  0  0  0
    7.8241  -12.8075   27.1483 C   0  0  0  0  0  0  0  0  0  0  0  0
    9.6496  -16.4685   22.5462 N   0  0  0  0  0  0  0  0  0  0  0  0
   10.6107  -17.4948   22.8772 C   0  0  0  0  0  0  0  0  0  0  0  0
   11.9964  -17.0240   22.6470 C   0  0  0  0  0  0  0  0  0  0  0  0
   12.4267  -16.9807   21.4720 O   0  0  0  0  0  0  0  0  0  0  0  0
   12.7884  -16.6451   23.6954 O   0  0  0  0  0  0  0  0  0  0  0  0
  2  1  1  6
  2  4  1  0
  2  3  1  0
  4  6  1  0
  4  5  1  6
  6  7  2  0
  8  9  1  0
  9 10  2  0
 10 11  1  0
 12 11  2  0
 12 13  1  0
 14 13  1  1
 14 16  1  0
 15 14  1  0
 15  6  1  0
 16 20  1  0
 16 17  2  0
 18 12  1  0
 19  9  1  0
 19 18  2  0
 20 21  1  0
 22 24  1  0
 22 21  1  0
 23 22  2  0
M  END
$$$$
