VYG.pdb
     RDKit          3D

 24 24  0  0  1  0  0  0  0  0999 V2000
    8.7943  -15.6422   18.8435 C   0  0  0  0  0  0  0  0  0  0  0  0
    7.6703  -14.6328   18.7977 C   0  0  2  0  0  0  0  0  0  0  0  0
    7.0938  -14.4879   17.4258 C   0  0  0  0  0  0  0  0  0  0  0  0
    8.1025  -13.2823   19.3017 C   0  0  2  0  0  0  0  0  0  0  0  0
    9.1379  -12.6883   18.5191 N   0  0  0  0  0  0  0  0  0  0  0  0
    8.4698  -13.3870   20.7488 C   0  0  0  0  0  0  0  0  0  0  0  0
    9.6856  -13.3760   21.0694 O   0  0  0  0  0  0  0  0  0  0  0  0
    7.2477  -12.5716   29.5518 O   0  0  0  0  0  0  0  0  0  0  0  0
    7.0943  -12.6578   28.1711 C   0  0  0  0  0  0  0  0  0  0  0  0
    6.3998  -13.7153   27.6239 C   0  0  0  0  0  0  0  0  0  0  0  0
    6.2292  -13.8303   26.2528 C   0  0  0  0  0  0  0  0  0  0  0  0
    6.7424  -12.8989   25.3742 C   0  0  0  0  0  0  0  0  0  0  0  0
    6.5789  -13.0023   23.9112 C   0  0  0  0  0  0  0  0  0  0  0  0
    7.7969  -13.4932   23.1831 C   0  0  2  0  0  0  0  0  0  0  0  0
    7.4887  -13.4962   21.7433 N   0  0  0  0  0  0  0  0  0  0  0  0
    8.2274  -14.8472   23.6051 C   0  0  0  0  0  0  0  0  0  0  0  0
    8.6734  -14.9943   24.7838 O   0  0  0  0  0  0  0  0  0  0  0  0
    7.4399  -11.8387   25.9414 C   0  0  0  0  0  0  0  0  0  0  0  0
    7.6116  -11.7209   27.3050 C   0  0  0  0  0  0  0  0  0  0  0  0
    8.1323  -15.9300   22.6957 N   0  0  0  0  0  0  0  0  0  0  0  0
    8.4808  -17.2756   23.0885 C   0  0  0  0  0  0  0  0  0  0  0  0
    8.2673  -18.2298   21.9755 C   0  0  0  0  0  0  0  0  0  0  0  0
    7.1905  -18.8673   21.9316 O   0  0  0  0  0  0  0  0  0  0  0  0
    9.2257  -18.4105   21.0170 O   0  0  0  0  0  0  0  0  0  0  0  0
  2  1  1  6
  2  4  1  0
  2  3  1  0
  4  6  1  0
  4  5  1  6
  6  7  2  0
  8  9  1  0
  9 10  2  0
 10 11  1  0
 12 11  2  0
 12 13  1  0
 14 13  1  1
 14 16  1  0
 15 14  1  0
 15  6  1  0
 16 20  1  0
 16 17  2  0
 18 12  1  0
 19  9  1  0
 19 18  2  0
 20 21  1  0
 22 24  1  0
 22 21  1  0
 23 22  2  0
M  END
$$$$
