VYG.pdb
     RDKit          3D

 24 24  0  0  1  0  0  0  0  0999 V2000
    8.3760  -16.4751   19.4766 C   0  0  0  0  0  0  0  0  0  0  0  0
    7.0709  -15.8521   19.9159 C   0  0  2  0  0  0  0  0  0  0  0  0
    6.0349  -15.8870   18.8383 C   0  0  0  0  0  0  0  0  0  0  0  0
    7.2517  -14.4346   20.3875 C   0  0  2  0  0  0  0  0  0  0  0  0
    7.6547  -13.5383   19.3524 N   0  0  0  0  0  0  0  0  0  0  0  0
    8.1877  -14.4157   21.5551 C   0  0  0  0  0  0  0  0  0  0  0  0
    9.3869  -14.0874   21.3673 O   0  0  0  0  0  0  0  0  0  0  0  0
   10.5967  -14.7876   30.1803 O   0  0  0  0  0  0  0  0  0  0  0  0
    9.9131  -14.7286   28.9694 C   0  0  0  0  0  0  0  0  0  0  0  0
    9.7092  -13.5108   28.3567 C   0  0  0  0  0  0  0  0  0  0  0  0
    9.0322  -13.4179   27.1503 C   0  0  0  0  0  0  0  0  0  0  0  0
    8.5324  -14.5314   26.5078 C   0  0  0  0  0  0  0  0  0  0  0  0
    7.8040  -14.4576   25.2265 C   0  0  0  0  0  0  0  0  0  0  0  0
    8.6406  -14.7632   24.0177 C   0  0  2  0  0  0  0  0  0  0  0  0
    7.7526  -14.7552   22.8431 N   0  0  0  0  0  0  0  0  0  0  0  0
    9.3437  -16.0652   24.1040 C   0  0  0  0  0  0  0  0  0  0  0  0
    8.6437  -17.1219   24.1604 O   0  0  0  0  0  0  0  0  0  0  0  0
    8.7462  -15.7518   27.1381 C   0  0  0  0  0  0  0  0  0  0  0  0
    9.4193  -15.8482   28.3382 C   0  0  0  0  0  0  0  0  0  0  0  0
   10.7604  -16.0988   24.1215 N   0  0  0  0  0  0  0  0  0  0  0  0
   11.4812  -17.3277   24.3599 C   0  0  0  0  0  0  0  0  0  0  0  0
   12.9433  -17.1225   24.2376 C   0  0  0  0  0  0  0  0  0  0  0  0
   13.4015  -15.9685   24.3987 O   0  0  0  0  0  0  0  0  0  0  0  0
   13.7743  -18.1709   23.9547 O   0  0  0  0  0  0  0  0  0  0  0  0
  2  1  1  6
  2  4  1  0
  2  3  1  0
  4  6  1  0
  4  5  1  6
  6  7  2  0
  8  9  1  0
  9 10  2  0
 10 11  1  0
 12 11  2  0
 12 13  1  0
 14 13  1  1
 14 16  1  0
 15 14  1  0
 15  6  1  0
 16 20  1  0
 16 17  2  0
 18 12  1  0
 19  9  1  0
 19 18  2  0
 20 21  1  0
 22 24  1  0
 22 21  1  0
 23 22  2  0
M  END
$$$$
