TWN.pdb
     RDKit          3D

 30 31  0  0  1  0  0  0  0  0999 V2000
    6.8568  -15.8743   18.3282 C   0  0  0  0  0  0  0  0  0  0  0  0
    7.7206  -15.9138   19.5700 C   0  0  1  0  0  0  0  0  0  0  0  0
    9.0201  -15.5907   19.1085 O   0  0  0  0  0  0  0  0  0  0  0  0
    7.3732  -14.8475   20.5727 C   0  0  2  0  0  0  0  0  0  0  0  0
    7.4114  -13.5540   19.9433 N   0  0  0  0  0  0  0  0  0  0  0  0
    8.2686  -14.8885   21.7753 C   0  0  0  0  0  0  0  0  0  0  0  0
    9.1942  -14.0462   21.9161 O   0  0  0  0  0  0  0  0  0  0  0  0
    8.1109  -15.8636   22.7874 N   0  0  0  0  0  0  0  0  0  0  0  0
    8.9744  -15.8554   23.9570 C   0  0  1  0  0  0  0  0  0  0  0  0
    8.1464  -16.1205   25.1726 C   0  0  0  0  0  0  0  0  0  0  0  0
    7.1605  -15.0980   25.5184 C   0  0  0  0  0  0  0  0  0  0  0  0
    5.7726  -15.2924   25.5631 C   0  0  0  0  0  0  0  0  0  0  0  0
    5.1988  -14.1452   25.9340 N   0  0  0  0  0  0  0  0  0  0  0  0
    6.1486  -13.1869   26.1400 C   0  0  0  0  0  0  0  0  0  0  0  0
    6.0503  -11.8619   26.5182 C   0  0  0  0  0  0  0  0  0  0  0  0
    7.1693  -11.0758   26.6513 C   0  0  0  0  0  0  0  0  0  0  0  0
    8.3891  -11.6671   26.3921 C   0  0  0  0  0  0  0  0  0  0  0  0
    8.4836  -12.9860   26.0172 C   0  0  0  0  0  0  0  0  0  0  0  0
    7.3545  -13.7868   25.8812 C   0  0  0  0  0  0  0  0  0  0  0  0
   10.1930  -16.6303   23.7784 C   0  0  0  0  0  0  0  0  0  0  0  0
   10.2398  -17.7045   23.0868 O   0  0  0  0  0  0  0  0  0  0  0  0
   16.0520  -16.3192   22.8784 N   0  0  0  0  0  0  0  0  0  0  0  0
   14.6338  -16.3883   22.7971 C   0  0  0  0  0  0  0  0  0  0  0  0
   14.0452  -16.7754   21.7476 O   0  0  0  0  0  0  0  0  0  0  0  0
   13.7714  -16.0050   23.9423 C   0  0  0  0  0  0  0  0  0  0  0  0
   12.6529  -17.0639   24.1754 C   0  0  2  0  0  0  0  0  0  0  0  0
   11.4779  -16.2726   24.3428 N   0  0  0  0  0  0  0  0  0  0  0  0
   13.0417  -17.9546   25.2450 C   0  0  0  0  0  0  0  0  0  0  0  0
   12.6251  -17.8343   26.4095 O   0  0  0  0  0  0  0  0  0  0  0  0
   13.9164  -18.9974   24.9871 O   0  0  0  0  0  0  0  0  0  0  0  0
  2  1  1  6
  2  3  1  0
  4  6  1  0
  4  2  1  0
  4  5  1  6
  6  7  2  0
  8  9  1  0
  8  6  1  0
  9 10  1  1
 10 11  1  0
 11 19  1  0
 12 11  2  0
 12 13  1  0
 13 14  1  0
 14 15  1  0
 15 16  2  0
 17 16  1  0
 18 17  2  0
 19 14  2  0
 19 18  1  0
 20  9  1  0
 21 20  2  0
 22 23  1  0
 23 24  2  0
 25 23  1  0
 26 27  1  0
 26 25  1  1
 27 20  1  0
 28 30  1  0
 28 26  1  0
 29 28  2  0
M  END
$$$$
