TWN.pdb
     RDKit          3D

 30 31  0  0  1  0  0  0  0  0999 V2000
    6.8628  -15.2584   18.1009 C   0  0  0  0  0  0  0  0  0  0  0  0
    7.6741  -15.3722   19.3731 C   0  0  1  0  0  0  0  0  0  0  0  0
    8.9990  -15.0649   18.9775 O   0  0  0  0  0  0  0  0  0  0  0  0
    7.3129  -14.3394   20.4056 C   0  0  2  0  0  0  0  0  0  0  0  0
    7.3830  -13.0241   19.8261 N   0  0  0  0  0  0  0  0  0  0  0  0
    8.1757  -14.4363   21.6287 C   0  0  0  0  0  0  0  0  0  0  0  0
    9.1265  -13.6305   21.8096 O   0  0  0  0  0  0  0  0  0  0  0  0
    7.9582  -15.4251   22.6160 N   0  0  0  0  0  0  0  0  0  0  0  0
    8.8762  -15.5608   23.7352 C   0  0  1  0  0  0  0  0  0  0  0  0
    8.0973  -15.9133   24.9610 C   0  0  0  0  0  0  0  0  0  0  0  0
    7.1692  -14.8959   25.4516 C   0  0  0  0  0  0  0  0  0  0  0  0
    5.7810  -15.0545   25.5698 C   0  0  0  0  0  0  0  0  0  0  0  0
    5.2697  -13.9265   26.0689 N   0  0  0  0  0  0  0  0  0  0  0  0
    6.2618  -13.0156   26.2904 C   0  0  0  0  0  0  0  0  0  0  0  0
    6.2312  -11.7244   26.7805 C   0  0  0  0  0  0  0  0  0  0  0  0
    7.3818  -10.9837   26.9044 C   0  0  0  0  0  0  0  0  0  0  0  0
    8.5629  -11.5853   26.5199 C   0  0  0  0  0  0  0  0  0  0  0  0
    8.5901  -12.8706   26.0338 C   0  0  0  0  0  0  0  0  0  0  0  0
    7.4287  -13.6254   25.9064 C   0  0  0  0  0  0  0  0  0  0  0  0
   10.0530  -16.3571   23.4213 C   0  0  0  0  0  0  0  0  0  0  0  0
   10.0197  -17.3721   22.6447 O   0  0  0  0  0  0  0  0  0  0  0  0
   14.9945  -18.0589   23.0972 N   0  0  0  0  0  0  0  0  0  0  0  0
   14.9264  -16.6384   23.1182 C   0  0  0  0  0  0  0  0  0  0  0  0
   15.9284  -15.9197   22.8406 O   0  0  0  0  0  0  0  0  0  0  0  0
   13.6729  -15.9269   23.4716 C   0  0  0  0  0  0  0  0  0  0  0  0
   12.5020  -16.9330   23.6802 C   0  0  2  0  0  0  0  0  0  0  0  0
   11.3809  -16.0880   23.9328 N   0  0  0  0  0  0  0  0  0  0  0  0
   12.8703  -17.9068   24.6826 C   0  0  0  0  0  0  0  0  0  0  0  0
   13.7583  -18.7575   24.5039 O   0  0  0  0  0  0  0  0  0  0  0  0
   12.2201  -17.9134   25.9057 O   0  0  0  0  0  0  0  0  0  0  0  0
  2  1  1  6
  2  3  1  0
  4  6  1  0
  4  2  1  0
  4  5  1  6
  6  7  2  0
  8  9  1  0
  8  6  1  0
  9 10  1  1
 10 11  1  0
 11 19  1  0
 12 11  2  0
 12 13  1  0
 13 14  1  0
 14 15  1  0
 15 16  2  0
 17 16  1  0
 18 17  2  0
 19 14  2  0
 19 18  1  0
 20  9  1  0
 21 20  2  0
 22 23  1  0
 23 24  2  0
 25 23  1  0
 26 27  1  0
 26 25  1  1
 27 20  1  0
 28 30  1  0
 28 26  1  0
 29 28  2  0
M  END
$$$$
