TWN.pdb
     RDKit          3D

 30 31  0  0  1  0  0  0  0  0999 V2000
    7.1803  -17.3270   18.8534 C   0  0  0  0  0  0  0  0  0  0  0  0
    7.9986  -17.1732   20.1169 C   0  0  1  0  0  0  0  0  0  0  0  0
    9.3393  -17.1066   19.6652 O   0  0  0  0  0  0  0  0  0  0  0  0
    7.7507  -15.8742   20.8340 C   0  0  2  0  0  0  0  0  0  0  0  0
    7.9324  -14.7726   19.9261 N   0  0  0  0  0  0  0  0  0  0  0  0
    8.6202  -15.7225   22.0466 C   0  0  0  0  0  0  0  0  0  0  0  0
    9.6480  -14.9954   22.0133 O   0  0  0  0  0  0  0  0  0  0  0  0
    8.3240  -16.3824   23.2618 N   0  0  0  0  0  0  0  0  0  0  0  0
    9.2398  -16.2958   24.3876 C   0  0  1  0  0  0  0  0  0  0  0  0
    8.4504  -16.3048   25.6565 C   0  0  0  0  0  0  0  0  0  0  0  0
    7.4058  -15.2890   25.7747 C   0  0  0  0  0  0  0  0  0  0  0  0
    6.0310  -15.5184   25.6217 C   0  0  0  0  0  0  0  0  0  0  0  0
    5.3875  -14.3650   25.8185 N   0  0  0  0  0  0  0  0  0  0  0  0
    6.2780  -13.3690   26.0977 C   0  0  0  0  0  0  0  0  0  0  0  0
    6.1002  -12.0246   26.3613 C   0  0  0  0  0  0  0  0  0  0  0  0
    7.1719  -11.2006   26.6065 C   0  0  0  0  0  0  0  0  0  0  0  0
    8.4269  -11.7740   26.5785 C   0  0  0  0  0  0  0  0  0  0  0  0
    8.6004  -13.1121   26.3172 C   0  0  0  0  0  0  0  0  0  0  0  0
    7.5193  -13.9513   26.0685 C   0  0  0  0  0  0  0  0  0  0  0  0
   10.3711  -17.2048   24.2806 C   0  0  0  0  0  0  0  0  0  0  0  0
   10.7505  -17.7164   23.1722 O   0  0  0  0  0  0  0  0  0  0  0  0
   13.7943  -18.2030   22.7631 N   0  0  0  0  0  0  0  0  0  0  0  0
   13.8241  -16.9188   23.3736 C   0  0  0  0  0  0  0  0  0  0  0  0
   14.3574  -15.9237   22.8052 O   0  0  0  0  0  0  0  0  0  0  0  0
   13.2321  -16.6829   24.7137 C   0  0  0  0  0  0  0  0  0  0  0  0
   12.5682  -17.9799   25.2648 C   0  0  2  0  0  0  0  0  0  0  0  0
   11.1949  -17.6178   25.3979 N   0  0  0  0  0  0  0  0  0  0  0  0
   13.2793  -18.4286   26.4402 C   0  0  0  0  0  0  0  0  0  0  0  0
   13.7772  -19.5630   26.5367 O   0  0  0  0  0  0  0  0  0  0  0  0
   13.4267  -17.5754   27.5215 O   0  0  0  0  0  0  0  0  0  0  0  0
  2  1  1  6
  2  3  1  0
  4  6  1  0
  4  2  1  0
  4  5  1  6
  6  7  2  0
  8  9  1  0
  8  6  1  0
  9 10  1  1
 10 11  1  0
 11 19  1  0
 12 11  2  0
 12 13  1  0
 13 14  1  0
 14 15  1  0
 15 16  2  0
 17 16  1  0
 18 17  2  0
 19 14  2  0
 19 18  1  0
 20  9  1  0
 21 20  2  0
 22 23  1  0
 23 24  2  0
 25 23  1  0
 26 27  1  0
 26 25  1  1
 27 20  1  0
 28 30  1  0
 28 26  1  0
 29 28  2  0
M  END
$$$$
