TWN.pdb
     RDKit          3D

 30 31  0  0  1  0  0  0  0  0999 V2000
    7.3149  -14.8288   18.2367 C   0  0  0  0  0  0  0  0  0  0  0  0
    7.9256  -15.1363   19.5866 C   0  0  1  0  0  0  0  0  0  0  0  0
    9.3119  -15.2667   19.3273 O   0  0  0  0  0  0  0  0  0  0  0  0
    7.8049  -14.0028   20.5683 C   0  0  2  0  0  0  0  0  0  0  0  0
    8.1989  -12.7691   19.9409 N   0  0  0  0  0  0  0  0  0  0  0  0
    8.5975  -14.2495   21.8175 C   0  0  0  0  0  0  0  0  0  0  0  0
    9.6131  -13.5532   22.0820 O   0  0  0  0  0  0  0  0  0  0  0  0
    8.2400  -15.2622   22.7376 N   0  0  0  0  0  0  0  0  0  0  0  0
    9.0834  -15.5407   23.8886 C   0  0  1  0  0  0  0  0  0  0  0  0
    8.2168  -15.9371   25.0399 C   0  0  0  0  0  0  0  0  0  0  0  0
    7.1617  -14.9949   25.4089 C   0  0  0  0  0  0  0  0  0  0  0  0
    5.7848  -15.2472   25.3276 C   0  0  0  0  0  0  0  0  0  0  0  0
    5.1327  -14.1674   25.7655 N   0  0  0  0  0  0  0  0  0  0  0  0
    6.0193  -13.1988   26.1378 C   0  0  0  0  0  0  0  0  0  0  0  0
    5.8321  -11.9244   26.6370 C   0  0  0  0  0  0  0  0  0  0  0  0
    6.9005  -11.1128   26.9328 C   0  0  0  0  0  0  0  0  0  0  0  0
    8.1622  -11.6261   26.7105 C   0  0  0  0  0  0  0  0  0  0  0  0
    8.3451  -12.8949   26.2148 C   0  0  0  0  0  0  0  0  0  0  0  0
    7.2675  -13.7212   25.9139 C   0  0  0  0  0  0  0  0  0  0  0  0
   10.2278  -16.3825   23.5736 C   0  0  0  0  0  0  0  0  0  0  0  0
   10.8414  -17.0802   24.4517 O   0  0  0  0  0  0  0  0  0  0  0  0
   13.7469  -19.1251   20.7746 N   0  0  0  0  0  0  0  0  0  0  0  0
   12.9586  -18.3405   19.8882 C   0  0  0  0  0  0  0  0  0  0  0  0
   13.0816  -18.4279   18.6333 O   0  0  0  0  0  0  0  0  0  0  0  0
   11.9517  -17.3747   20.3937 C   0  0  0  0  0  0  0  0  0  0  0  0
   11.8531  -17.4358   21.9472 C   0  0  2  0  0  0  0  0  0  0  0  0
   10.7871  -16.5365   22.2466 N   0  0  0  0  0  0  0  0  0  0  0  0
   13.1521  -17.1818   22.5274 C   0  0  0  0  0  0  0  0  0  0  0  0
   13.6394  -16.0426   22.6205 O   0  0  0  0  0  0  0  0  0  0  0  0
   13.9080  -18.2381   23.0089 O   0  0  0  0  0  0  0  0  0  0  0  0
  2  1  1  6
  2  3  1  0
  4  6  1  0
  4  2  1  0
  4  5  1  6
  6  7  2  0
  8  9  1  0
  8  6  1  0
  9 10  1  1
 10 11  1  0
 11 19  1  0
 12 11  2  0
 12 13  1  0
 13 14  1  0
 14 15  1  0
 15 16  2  0
 17 16  1  0
 18 17  2  0
 19 14  2  0
 19 18  1  0
 20  9  1  0
 21 20  2  0
 22 23  1  0
 23 24  2  0
 25 23  1  0
 26 27  1  0
 26 25  1  6
 27 20  1  0
 28 30  1  0
 28 26  1  0
 29 28  2  0
M  END
$$$$
