TWN.pdb
     RDKit          3D

 30 31  0  0  1  0  0  0  0  0999 V2000
    6.6731  -15.1283   18.0342 C   0  0  0  0  0  0  0  0  0  0  0  0
    7.5211  -15.3104   19.2742 C   0  0  1  0  0  0  0  0  0  0  0  0
    8.8501  -15.1084   18.8278 O   0  0  0  0  0  0  0  0  0  0  0  0
    7.2833  -14.2554   20.3200 C   0  0  2  0  0  0  0  0  0  0  0  0
    7.4384  -12.9481   19.7390 N   0  0  0  0  0  0  0  0  0  0  0  0
    8.1801  -14.4263   21.5100 C   0  0  0  0  0  0  0  0  0  0  0  0
    9.2241  -13.7327   21.6327 O   0  0  0  0  0  0  0  0  0  0  0  0
    7.8921  -15.3625   22.5302 N   0  0  0  0  0  0  0  0  0  0  0  0
    8.8146  -15.5491   23.6383 C   0  0  1  0  0  0  0  0  0  0  0  0
    8.0417  -15.9670   24.8473 C   0  0  0  0  0  0  0  0  0  0  0  0
    7.0838  -14.9941   25.3698 C   0  0  0  0  0  0  0  0  0  0  0  0
    5.7112  -15.2213   25.5443 C   0  0  0  0  0  0  0  0  0  0  0  0
    5.1640  -14.1170   26.0582 N   0  0  0  0  0  0  0  0  0  0  0  0
    6.1170  -13.1561   26.2355 C   0  0  0  0  0  0  0  0  0  0  0  0
    6.0409  -11.8648   26.7204 C   0  0  0  0  0  0  0  0  0  0  0  0
    7.1567  -11.0666   26.7948 C   0  0  0  0  0  0  0  0  0  0  0  0
    8.3504  -11.6108   26.3661 C   0  0  0  0  0  0  0  0  0  0  0  0
    8.4229  -12.8963   25.8853 C   0  0  0  0  0  0  0  0  0  0  0  0
    7.2969  -13.7092   25.8080 C   0  0  0  0  0  0  0  0  0  0  0  0
    9.9946  -16.3221   23.2812 C   0  0  0  0  0  0  0  0  0  0  0  0
    9.9516  -17.3432   22.5131 O   0  0  0  0  0  0  0  0  0  0  0  0
   14.9534  -17.9690   22.8622 N   0  0  0  0  0  0  0  0  0  0  0  0
   14.8599  -16.5505   22.8179 C   0  0  0  0  0  0  0  0  0  0  0  0
   15.8391  -15.8292   22.4735 O   0  0  0  0  0  0  0  0  0  0  0  0
   13.6055  -15.8441   23.1780 C   0  0  0  0  0  0  0  0  0  0  0  0
   12.4592  -16.8584   23.4673 C   0  0  2  0  0  0  0  0  0  0  0  0
   11.3362  -16.0208   23.7357 N   0  0  0  0  0  0  0  0  0  0  0  0
   12.8815  -17.7919   24.4865 C   0  0  0  0  0  0  0  0  0  0  0  0
   13.7849  -18.6259   24.3064 O   0  0  0  0  0  0  0  0  0  0  0  0
   12.2682  -17.7770   25.7286 O   0  0  0  0  0  0  0  0  0  0  0  0
  2  1  1  6
  2  3  1  0
  4  6  1  0
  4  2  1  0
  4  5  1  6
  6  7  2  0
  8  9  1  0
  8  6  1  0
  9 10  1  1
 10 11  1  0
 11 19  1  0
 12 11  2  0
 12 13  1  0
 13 14  1  0
 14 15  1  0
 15 16  2  0
 17 16  1  0
 18 17  2  0
 19 14  2  0
 19 18  1  0
 20  9  1  0
 21 20  2  0
 22 23  1  0
 23 24  2  0
 25 23  1  0
 26 27  1  0
 26 25  1  1
 27 20  1  0
 28 30  1  0
 28 26  1  0
 29 28  2  0
M  END
$$$$
