TWN.pdb
     RDKit          3D

 30 31  0  0  1  0  0  0  0  0999 V2000
    9.8790  -15.0840   17.4463 C   0  0  0  0  0  0  0  0  0  0  0  0
    8.3755  -14.9207   17.4985 C   0  0  1  0  0  0  0  0  0  0  0  0
    7.9055  -16.1382   18.0488 O   0  0  0  0  0  0  0  0  0  0  0  0
    7.9246  -13.8478   18.4518 C   0  0  2  0  0  0  0  0  0  0  0  0
    8.4391  -12.5718   18.0299 N   0  0  0  0  0  0  0  0  0  0  0  0
    8.3191  -14.1468   19.8676 C   0  0  0  0  0  0  0  0  0  0  0  0
    9.4868  -13.9065   20.2736 O   0  0  0  0  0  0  0  0  0  0  0  0
    7.4058  -14.7040   20.7925 N   0  0  0  0  0  0  0  0  0  0  0  0
    7.7629  -14.8240   22.1968 C   0  0  1  0  0  0  0  0  0  0  0  0
    6.5438  -14.5887   23.0287 C   0  0  0  0  0  0  0  0  0  0  0  0
    6.7378  -14.6027   24.4776 C   0  0  0  0  0  0  0  0  0  0  0  0
    6.8422  -15.7545   25.2704 C   0  0  0  0  0  0  0  0  0  0  0  0
    7.0322  -15.3775   26.5372 N   0  0  0  0  0  0  0  0  0  0  0  0
    7.0591  -14.0157   26.6258 C   0  0  0  0  0  0  0  0  0  0  0  0
    7.2174  -13.1680   27.7050 C   0  0  0  0  0  0  0  0  0  0  0  0
    7.1970  -11.8034   27.5460 C   0  0  0  0  0  0  0  0  0  0  0  0
    7.0131  -11.3210   26.2661 C   0  0  0  0  0  0  0  0  0  0  0  0
    6.8571  -12.1671   25.1943 C   0  0  0  0  0  0  0  0  0  0  0  0
    6.8772  -13.5492   25.3490 C   0  0  0  0  0  0  0  0  0  0  0  0
    8.5714  -15.9986   22.4869 C   0  0  0  0  0  0  0  0  0  0  0  0
    8.6209  -17.0173   21.7161 O   0  0  0  0  0  0  0  0  0  0  0  0
   12.8950  -18.3127   21.8959 N   0  0  0  0  0  0  0  0  0  0  0  0
   12.7851  -17.0188   22.4760 C   0  0  0  0  0  0  0  0  0  0  0  0
   13.7907  -16.4097   22.9401 O   0  0  0  0  0  0  0  0  0  0  0  0
   11.4801  -16.3185   22.5689 C   0  0  0  0  0  0  0  0  0  0  0  0
   10.5888  -16.9480   23.6807 C   0  0  2  0  0  0  0  0  0  0  0  0
    9.4122  -16.1420   23.6574 N   0  0  0  0  0  0  0  0  0  0  0  0
   11.3386  -17.0368   24.9130 C   0  0  0  0  0  0  0  0  0  0  0  0
   11.1586  -16.2654   25.8704 O   0  0  0  0  0  0  0  0  0  0  0  0
   12.3067  -18.0168   25.0592 O   0  0  0  0  0  0  0  0  0  0  0  0
  2  1  1  1
  2  3  1  0
  4  6  1  0
  4  2  1  0
  4  5  1  6
  6  7  2  0
  8  9  1  0
  8  6  1  0
  9 10  1  1
 10 11  1  0
 11 19  1  0
 12 11  2  0
 12 13  1  0
 13 14  1  0
 14 15  1  0
 15 16  2  0
 17 16  1  0
 18 17  2  0
 19 14  2  0
 19 18  1  0
 20  9  1  0
 21 20  2  0
 22 23  1  0
 23 24  2  0
 25 23  1  0
 26 27  1  0
 26 25  1  6
 27 20  1  0
 28 30  1  0
 28 26  1  0
 29 28  2  0
M  END
$$$$
