TWN.pdb
     RDKit          3D

 30 31  0  0  1  0  0  0  0  0999 V2000
    6.5927  -14.9267   17.9874 C   0  0  0  0  0  0  0  0  0  0  0  0
    7.4998  -15.1588   19.1762 C   0  0  1  0  0  0  0  0  0  0  0  0
    8.8096  -15.0897   18.6416 O   0  0  0  0  0  0  0  0  0  0  0  0
    7.4270  -14.0637   20.2051 C   0  0  2  0  0  0  0  0  0  0  0  0
    7.6479  -12.7879   19.5771 N   0  0  0  0  0  0  0  0  0  0  0  0
    8.3903  -14.2830   21.3337 C   0  0  0  0  0  0  0  0  0  0  0  0
    9.4723  -13.6410   21.3887 O   0  0  0  0  0  0  0  0  0  0  0  0
    8.1246  -15.2088   22.3692 N   0  0  0  0  0  0  0  0  0  0  0  0
    9.1166  -15.4617   23.4015 C   0  0  1  0  0  0  0  0  0  0  0  0
    8.4154  -15.8501   24.6629 C   0  0  0  0  0  0  0  0  0  0  0  0
    7.4293  -14.8989   25.1731 C   0  0  0  0  0  0  0  0  0  0  0  0
    6.0518  -15.1381   25.2793 C   0  0  0  0  0  0  0  0  0  0  0  0
    5.4757  -14.0534   25.8032 N   0  0  0  0  0  0  0  0  0  0  0  0
    6.4139  -13.0941   26.0528 C   0  0  0  0  0  0  0  0  0  0  0  0
    6.3086  -11.8193   26.5745 C   0  0  0  0  0  0  0  0  0  0  0  0
    7.4151  -11.0185   26.7234 C   0  0  0  0  0  0  0  0  0  0  0  0
    8.6298  -11.5431   26.3310 C   0  0  0  0  0  0  0  0  0  0  0  0
    8.7314  -12.8122   25.8134 C   0  0  0  0  0  0  0  0  0  0  0  0
    7.6150  -13.6276   25.6607 C   0  0  0  0  0  0  0  0  0  0  0  0
   10.2192  -16.2961   22.9484 C   0  0  0  0  0  0  0  0  0  0  0  0
   10.0520  -17.4658   22.4601 O   0  0  0  0  0  0  0  0  0  0  0  0
   13.5459  -14.0815   20.5629 N   0  0  0  0  0  0  0  0  0  0  0  0
   13.5011  -15.4633   20.8965 C   0  0  0  0  0  0  0  0  0  0  0  0
   13.1689  -16.3419   20.0507 O   0  0  0  0  0  0  0  0  0  0  0  0
   13.8397  -15.9439   22.2590 C   0  0  0  0  0  0  0  0  0  0  0  0
   12.6911  -16.8205   22.8412 C   0  0  2  0  0  0  0  0  0  0  0  0
   11.6116  -15.8992   22.9840 N   0  0  0  0  0  0  0  0  0  0  0  0
   13.1603  -17.5193   24.0160 C   0  0  0  0  0  0  0  0  0  0  0  0
   12.6609  -17.3581   25.1424 O   0  0  0  0  0  0  0  0  0  0  0  0
   14.2121  -18.4144   23.9089 O   0  0  0  0  0  0  0  0  0  0  0  0
  2  1  1  6
  2  3  1  0
  4  6  1  0
  4  2  1  0
  4  5  1  6
  6  7  2  0
  8  9  1  0
  8  6  1  0
  9 10  1  1
 10 11  1  0
 11 19  1  0
 12 11  2  0
 12 13  1  0
 13 14  1  0
 14 15  1  0
 15 16  2  0
 17 16  1  0
 18 17  2  0
 19 14  2  0
 19 18  1  0
 20  9  1  0
 21 20  2  0
 22 23  1  0
 23 24  2  0
 25 23  1  0
 26 27  1  0
 26 25  1  1
 27 20  1  0
 28 30  1  0
 28 26  1  0
 29 28  2  0
M  END
$$$$
