TWN.pdb
     RDKit          3D

 30 31  0  0  1  0  0  0  0  0999 V2000
    8.3567  -13.1247   19.6316 C   0  0  0  0  0  0  0  0  0  0  0  0
    7.3141  -14.1491   20.0233 C   0  0  1  0  0  0  0  0  0  0  0  0
    6.6481  -14.4582   18.8120 O   0  0  0  0  0  0  0  0  0  0  0  0
    7.9038  -15.4481   20.5010 C   0  0  2  0  0  0  0  0  0  0  0  0
    6.8551  -16.4081   20.7230 N   0  0  0  0  0  0  0  0  0  0  0  0
    8.7414  -15.2701   21.7324 C   0  0  0  0  0  0  0  0  0  0  0  0
    9.7096  -14.4648   21.7399 O   0  0  0  0  0  0  0  0  0  0  0  0
    8.4802  -15.9914   22.9204 N   0  0  0  0  0  0  0  0  0  0  0  0
    9.3579  -15.8548   24.0714 C   0  0  1  0  0  0  0  0  0  0  0  0
    8.5559  -16.0455   25.3179 C   0  0  0  0  0  0  0  0  0  0  0  0
    7.3912  -15.1762   25.4761 C   0  0  0  0  0  0  0  0  0  0  0  0
    6.0584  -15.5616   25.2727 C   0  0  0  0  0  0  0  0  0  0  0  0
    5.2733  -14.5123   25.5287 N   0  0  0  0  0  0  0  0  0  0  0  0
    6.0280  -13.4362   25.8964 C   0  0  0  0  0  0  0  0  0  0  0  0
    5.6800  -12.1452   26.2438 C   0  0  0  0  0  0  0  0  0  0  0  0
    6.6365  -11.2147   26.5708 C   0  0  0  0  0  0  0  0  0  0  0  0
    7.9534  -11.6264   26.5374 C   0  0  0  0  0  0  0  0  0  0  0  0
    8.2963  -12.9118   26.1925 C   0  0  0  0  0  0  0  0  0  0  0  0
    7.3325  -13.8582   25.8608 C   0  0  0  0  0  0  0  0  0  0  0  0
   10.6013  -16.5991   23.9387 C   0  0  0  0  0  0  0  0  0  0  0  0
   11.1601  -16.8255   22.8114 O   0  0  0  0  0  0  0  0  0  0  0  0
   14.3193  -17.9463   22.5170 N   0  0  0  0  0  0  0  0  0  0  0  0
   13.9594  -16.6844   23.0657 C   0  0  0  0  0  0  0  0  0  0  0  0
   13.9849  -15.6264   22.3746 O   0  0  0  0  0  0  0  0  0  0  0  0
   13.5379  -16.5459   24.4817 C   0  0  0  0  0  0  0  0  0  0  0  0
   12.6366  -17.7409   24.9134 C   0  0  2  0  0  0  0  0  0  0  0  0
   11.3463  -17.1489   25.0523 N   0  0  0  0  0  0  0  0  0  0  0  0
   13.2192  -18.4000   26.0601 C   0  0  0  0  0  0  0  0  0  0  0  0
   12.7872  -18.2524   27.2158 O   0  0  0  0  0  0  0  0  0  0  0  0
   14.3082  -19.2392   25.8905 O   0  0  0  0  0  0  0  0  0  0  0  0
  2  1  1  6
  2  3  1  0
  4  6  1  0
  4  2  1  0
  4  5  1  1
  6  7  2  0
  8  9  1  0
  8  6  1  0
  9 10  1  1
 10 11  1  0
 11 19  1  0
 12 11  2  0
 12 13  1  0
 13 14  1  0
 14 15  1  0
 15 16  2  0
 17 16  1  0
 18 17  2  0
 19 14  2  0
 19 18  1  0
 20  9  1  0
 21 20  2  0
 22 23  1  0
 23 24  2  0
 25 23  1  0
 26 27  1  0
 26 25  1  1
 27 20  1  0
 28 30  1  0
 28 26  1  0
 29 28  2  0
M  END
$$$$
