TWN.pdb
     RDKit          3D

 30 31  0  0  1  0  0  0  0  0999 V2000
    8.4278  -16.2662   18.3792 C   0  0  0  0  0  0  0  0  0  0  0  0
    8.5687  -14.7658   18.2423 C   0  0  1  0  0  0  0  0  0  0  0  0
    7.9579  -14.4641   17.0006 O   0  0  0  0  0  0  0  0  0  0  0  0
    7.7875  -13.9966   19.2724 C   0  0  2  0  0  0  0  0  0  0  0  0
    7.7664  -12.5999   18.9268 N   0  0  0  0  0  0  0  0  0  0  0  0
    8.3239  -14.2010   20.6581 C   0  0  0  0  0  0  0  0  0  0  0  0
    9.3902  -13.6394   21.0235 O   0  0  0  0  0  0  0  0  0  0  0  0
    7.6611  -15.0232   21.5987 N   0  0  0  0  0  0  0  0  0  0  0  0
    8.3068  -15.3727   22.8535 C   0  0  1  0  0  0  0  0  0  0  0  0
    7.2572  -15.7282   23.8562 C   0  0  0  0  0  0  0  0  0  0  0  0
    6.7036  -14.6201   24.6327 C   0  0  0  0  0  0  0  0  0  0  0  0
    5.3910  -14.1371   24.5337 C   0  0  0  0  0  0  0  0  0  0  0  0
    5.2439  -13.1369   25.4060 N   0  0  0  0  0  0  0  0  0  0  0  0
    6.4082  -12.9292   26.0873 C   0  0  0  0  0  0  0  0  0  0  0  0
    6.7491  -12.0180   27.0681 C   0  0  0  0  0  0  0  0  0  0  0  0
    8.0131  -11.9921   27.6059 C   0  0  0  0  0  0  0  0  0  0  0  0
    8.9214  -12.9131   27.1250 C   0  0  0  0  0  0  0  0  0  0  0  0
    8.5788  -13.8192   26.1499 C   0  0  0  0  0  0  0  0  0  0  0  0
    7.3007  -13.8504   25.6020 C   0  0  0  0  0  0  0  0  0  0  0  0
    9.4303  -16.2826   22.6890 C   0  0  0  0  0  0  0  0  0  0  0  0
   10.0490  -16.4314   21.5802 O   0  0  0  0  0  0  0  0  0  0  0  0
   14.0974  -17.9847   23.6308 N   0  0  0  0  0  0  0  0  0  0  0  0
   13.5767  -16.7999   23.0407 C   0  0  0  0  0  0  0  0  0  0  0  0
   14.3037  -16.0186   22.3634 O   0  0  0  0  0  0  0  0  0  0  0  0
   12.1507  -16.4189   23.1939 C   0  0  0  0  0  0  0  0  0  0  0  0
   11.3101  -17.6148   23.7323 C   0  0  2  0  0  0  0  0  0  0  0  0
    9.9790  -17.1023   23.7495 N   0  0  0  0  0  0  0  0  0  0  0  0
   11.8807  -18.0914   24.9716 C   0  0  0  0  0  0  0  0  0  0  0  0
   11.5054  -17.6908   26.0864 O   0  0  0  0  0  0  0  0  0  0  0  0
   12.8924  -19.0373   24.9433 O   0  0  0  0  0  0  0  0  0  0  0  0
  2  1  1  1
  2  3  1  0
  4  6  1  0
  4  2  1  0
  4  5  1  6
  6  7  2  0
  8  9  1  0
  8  6  1  0
  9 10  1  1
 10 11  1  0
 11 19  1  0
 12 11  2  0
 12 13  1  0
 13 14  1  0
 14 15  1  0
 15 16  2  0
 17 16  1  0
 18 17  2  0
 19 14  2  0
 19 18  1  0
 20  9  1  0
 21 20  2  0
 22 23  1  0
 23 24  2  0
 25 23  1  0
 26 27  1  0
 26 25  1  1
 27 20  1  0
 28 30  1  0
 28 26  1  0
 29 28  2  0
M  END
$$$$
