TWN.pdb
     RDKit          3D

 30 31  0  0  1  0  0  0  0  0999 V2000
   11.1733  -15.8624   17.8691 C   0  0  0  0  0  0  0  0  0  0  0  0
    9.8033  -16.4991   17.9548 C   0  0  1  0  0  0  0  0  0  0  0  0
    9.7137  -17.3055   16.7939 O   0  0  0  0  0  0  0  0  0  0  0  0
    9.6567  -17.4458   19.1146 C   0  0  2  0  0  0  0  0  0  0  0  0
    8.4751  -18.2490   18.9432 N   0  0  0  0  0  0  0  0  0  0  0  0
    9.6343  -16.7281   20.4314 C   0  0  0  0  0  0  0  0  0  0  0  0
   10.6323  -16.0644   20.8184 O   0  0  0  0  0  0  0  0  0  0  0  0
    8.5045  -16.7675   21.2811 N   0  0  0  0  0  0  0  0  0  0  0  0
    8.5368  -16.1112   22.5780 C   0  0  1  0  0  0  0  0  0  0  0  0
    7.1482  -15.7017   22.9488 C   0  0  0  0  0  0  0  0  0  0  0  0
    6.9702  -15.1695   24.2987 C   0  0  0  0  0  0  0  0  0  0  0  0
    6.6043  -15.9209   25.4246 C   0  0  0  0  0  0  0  0  0  0  0  0
    6.5586  -15.1034   26.4793 N   0  0  0  0  0  0  0  0  0  0  0  0
    6.8797  -13.8308   26.1048 C   0  0  0  0  0  0  0  0  0  0  0  0
    6.9603  -12.6539   26.8237 C   0  0  0  0  0  0  0  0  0  0  0  0
    7.2986  -11.4701   26.2139 C   0  0  0  0  0  0  0  0  0  0  0  0
    7.5537  -11.5102   24.8582 C   0  0  0  0  0  0  0  0  0  0  0  0
    7.4739  -12.6830   24.1459 C   0  0  0  0  0  0  0  0  0  0  0  0
    7.1322  -13.8844   24.7578 C   0  0  0  0  0  0  0  0  0  0  0  0
    9.3239  -16.8308   23.5680 C   0  0  0  0  0  0  0  0  0  0  0  0
    9.1615  -18.0743   23.8163 O   0  0  0  0  0  0  0  0  0  0  0  0
   12.4475  -17.7081   23.0604 N   0  0  0  0  0  0  0  0  0  0  0  0
   13.1648  -16.8930   23.9790 C   0  0  0  0  0  0  0  0  0  0  0  0
   14.3613  -16.5452   23.7668 O   0  0  0  0  0  0  0  0  0  0  0  0
   12.5438  -16.4115   25.2378 C   0  0  0  0  0  0  0  0  0  0  0  0
   11.0865  -16.9436   25.3783 C   0  0  2  0  0  0  0  0  0  0  0  0
   10.3763  -16.2346   24.3645 N   0  0  0  0  0  0  0  0  0  0  0  0
   10.6491  -16.8077   26.7490 C   0  0  0  0  0  0  0  0  0  0  0  0
    9.7751  -15.9981   27.1022 O   0  0  0  0  0  0  0  0  0  0  0  0
   11.2132  -17.6037   27.7324 O   0  0  0  0  0  0  0  0  0  0  0  0
  2  1  1  1
  2  3  1  0
  4  6  1  0
  4  2  1  0
  4  5  1  6
  6  7  2  0
  8  9  1  0
  8  6  1  0
  9 10  1  1
 10 11  1  0
 11 19  1  0
 12 11  2  0
 12 13  1  0
 13 14  1  0
 14 15  1  0
 15 16  2  0
 17 16  1  0
 18 17  2  0
 19 14  2  0
 19 18  1  0
 20  9  1  0
 21 20  2  0
 22 23  1  0
 23 24  2  0
 25 23  1  0
 26 27  1  0
 26 25  1  1
 27 20  1  0
 28 30  1  0
 28 26  1  0
 29 28  2  0
M  END
$$$$
