TWN.pdb
     RDKit          3D

 30 31  0  0  1  0  0  0  0  0999 V2000
    8.7128  -19.2780   17.6115 C   0  0  0  0  0  0  0  0  0  0  0  0
    8.8866  -18.5825   18.9442 C   0  0  1  0  0  0  0  0  0  0  0  0
   10.1600  -19.0028   19.4002 O   0  0  0  0  0  0  0  0  0  0  0  0
    8.9748  -17.0851   18.8288 C   0  0  2  0  0  0  0  0  0  0  0  0
   10.0596  -16.7256   17.9544 N   0  0  0  0  0  0  0  0  0  0  0  0
    9.1183  -16.4222   20.1666 C   0  0  0  0  0  0  0  0  0  0  0  0
   10.2508  -16.0724   20.5920 O   0  0  0  0  0  0  0  0  0  0  0  0
    8.0002  -16.1665   20.9939 N   0  0  0  0  0  0  0  0  0  0  0  0
    8.1870  -15.7167   22.3638 C   0  0  1  0  0  0  0  0  0  0  0  0
    6.8785  -15.2292   22.8965 C   0  0  0  0  0  0  0  0  0  0  0  0
    6.8487  -14.8797   24.3157 C   0  0  0  0  0  0  0  0  0  0  0  0
    6.6913  -15.7891   25.3714 C   0  0  0  0  0  0  0  0  0  0  0  0
    6.7325  -15.1106   26.5207 N   0  0  0  0  0  0  0  0  0  0  0  0
    6.9113  -13.7796   26.2774 C   0  0  0  0  0  0  0  0  0  0  0  0
    7.0070  -12.6947   27.1274 C   0  0  0  0  0  0  0  0  0  0  0  0
    7.1772  -11.4219   26.6389 C   0  0  0  0  0  0  0  0  0  0  0  0
    7.2485  -11.2773   25.2682 C   0  0  0  0  0  0  0  0  0  0  0  0
    7.1541  -12.3588   24.4253 C   0  0  0  0  0  0  0  0  0  0  0  0
    6.9822  -13.6497   24.9140 C   0  0  0  0  0  0  0  0  0  0  0  0
    8.9502  -16.6509   23.1775 C   0  0  0  0  0  0  0  0  0  0  0  0
    8.6722  -17.8965   23.2529 O   0  0  0  0  0  0  0  0  0  0  0  0
   13.1796  -15.8423   22.3757 N   0  0  0  0  0  0  0  0  0  0  0  0
   12.7918  -16.9405   23.1921 C   0  0  0  0  0  0  0  0  0  0  0  0
   12.8286  -18.1307   22.7683 O   0  0  0  0  0  0  0  0  0  0  0  0
   12.3200  -16.7431   24.5852 C   0  0  0  0  0  0  0  0  0  0  0  0
   10.8478  -17.2258   24.7476 C   0  0  2  0  0  0  0  0  0  0  0  0
   10.1044  -16.2867   23.9729 N   0  0  0  0  0  0  0  0  0  0  0  0
   10.5331  -17.3631   26.1514 C   0  0  0  0  0  0  0  0  0  0  0  0
   11.1471  -18.1330   26.9093 O   0  0  0  0  0  0  0  0  0  0  0  0
    9.5058  -16.6142   26.7018 O   0  0  0  0  0  0  0  0  0  0  0  0
  2  1  1  6
  2  3  1  0
  4  6  1  0
  4  2  1  0
  4  5  1  6
  6  7  2  0
  8  9  1  0
  8  6  1  0
  9 10  1  1
 10 11  1  0
 11 19  1  0
 12 11  2  0
 12 13  1  0
 13 14  1  0
 14 15  1  0
 15 16  2  0
 17 16  1  0
 18 17  2  0
 19 14  2  0
 19 18  1  0
 20  9  1  0
 21 20  2  0
 22 23  1  0
 23 24  2  0
 25 23  1  0
 26 27  1  0
 26 25  1  1
 27 20  1  0
 28 30  1  0
 28 26  1  0
 29 28  2  0
M  END
$$$$
