TWN.pdb
     RDKit          3D

 30 31  0  0  1  0  0  0  0  0999 V2000
    8.3161  -12.6079   19.9975 C   0  0  0  0  0  0  0  0  0  0  0  0
    7.5438  -13.9073   20.0682 C   0  0  1  0  0  0  0  0  0  0  0  0
    7.0902  -14.1227   18.7439 O   0  0  0  0  0  0  0  0  0  0  0  0
    8.4050  -15.0961   20.3969 C   0  0  2  0  0  0  0  0  0  0  0  0
    7.6763  -16.3114   20.1463 N   0  0  0  0  0  0  0  0  0  0  0  0
    8.9136  -15.0536   21.8073 C   0  0  0  0  0  0  0  0  0  0  0  0
    9.6029  -14.0807   22.2127 O   0  0  0  0  0  0  0  0  0  0  0  0
    8.6423  -16.0926   22.7276 N   0  0  0  0  0  0  0  0  0  0  0  0
    9.2371  -16.0736   24.0541 C   0  0  1  0  0  0  0  0  0  0  0  0
    8.1705  -16.3367   25.0674 C   0  0  0  0  0  0  0  0  0  0  0  0
    7.2614  -15.2276   25.3513 C   0  0  0  0  0  0  0  0  0  0  0  0
    5.8620  -15.3124   25.3753 C   0  0  0  0  0  0  0  0  0  0  0  0
    5.3729  -14.1098   25.6878 N   0  0  0  0  0  0  0  0  0  0  0  0
    6.3908  -13.2199   25.8744 C   0  0  0  0  0  0  0  0  0  0  0  0
    6.3895  -11.8766   26.1968 C   0  0  0  0  0  0  0  0  0  0  0  0
    7.5639  -11.1743   26.3209 C   0  0  0  0  0  0  0  0  0  0  0  0
    8.7382  -11.8682   26.1110 C   0  0  0  0  0  0  0  0  0  0  0  0
    8.7362  -13.2050   25.7915 C   0  0  0  0  0  0  0  0  0  0  0  0
    7.5506  -13.9213   25.6648 C   0  0  0  0  0  0  0  0  0  0  0  0
   10.4690  -16.8429   24.1437 C   0  0  0  0  0  0  0  0  0  0  0  0
   10.5647  -17.9283   24.8125 O   0  0  0  0  0  0  0  0  0  0  0  0
   13.4466  -17.5023   20.3223 N   0  0  0  0  0  0  0  0  0  0  0  0
   13.3170  -16.4359   21.2544 C   0  0  0  0  0  0  0  0  0  0  0  0
   12.7159  -15.3637   20.9599 O   0  0  0  0  0  0  0  0  0  0  0  0
   13.8855  -16.5275   22.6221 C   0  0  0  0  0  0  0  0  0  0  0  0
   12.9013  -17.2547   23.5861 C   0  0  2  0  0  0  0  0  0  0  0  0
   11.7068  -16.4818   23.4842 N   0  0  0  0  0  0  0  0  0  0  0  0
   13.5155  -17.4053   24.8856 C   0  0  0  0  0  0  0  0  0  0  0  0
   13.0959  -16.8273   25.9024 O   0  0  0  0  0  0  0  0  0  0  0  0
   14.6227  -18.2251   25.0314 O   0  0  0  0  0  0  0  0  0  0  0  0
  2  1  1  6
  2  3  1  0
  4  6  1  0
  4  2  1  0
  4  5  1  1
  6  7  2  0
  8  9  1  0
  8  6  1  0
  9 10  1  1
 10 11  1  0
 11 19  1  0
 12 11  2  0
 12 13  1  0
 13 14  1  0
 14 15  1  0
 15 16  2  0
 17 16  1  0
 18 17  2  0
 19 14  2  0
 19 18  1  0
 20  9  1  0
 21 20  2  0
 22 23  1  0
 23 24  2  0
 25 23  1  0
 26 27  1  0
 26 25  1  6
 27 20  1  0
 28 30  1  0
 28 26  1  0
 29 28  2  0
M  END
$$$$
