TWN.pdb
     RDKit          3D

 30 31  0  0  1  0  0  0  0  0999 V2000
    8.4255  -17.2858   19.6097 C   0  0  0  0  0  0  0  0  0  0  0  0
    8.1822  -15.8178   19.3347 C   0  0  1  0  0  0  0  0  0  0  0  0
    7.2791  -15.8063   18.2437 O   0  0  0  0  0  0  0  0  0  0  0  0
    7.4689  -15.1110   20.4549 C   0  0  2  0  0  0  0  0  0  0  0  0
    7.0178  -13.8195   20.0087 N   0  0  0  0  0  0  0  0  0  0  0  0
    8.3231  -14.9895   21.6818 C   0  0  0  0  0  0  0  0  0  0  0  0
    9.1874  -14.0782   21.7751 O   0  0  0  0  0  0  0  0  0  0  0  0
    8.1933  -15.8831   22.7701 N   0  0  0  0  0  0  0  0  0  0  0  0
    9.1168  -15.8154   23.8910 C   0  0  1  0  0  0  0  0  0  0  0  0
    8.3725  -16.1178   25.1512 C   0  0  0  0  0  0  0  0  0  0  0  0
    7.3374  -15.1598   25.5359 C   0  0  0  0  0  0  0  0  0  0  0  0
    5.9662  -15.4397   25.6236 C   0  0  0  0  0  0  0  0  0  0  0  0
    5.3354  -14.3320   26.0212 N   0  0  0  0  0  0  0  0  0  0  0  0
    6.2308  -13.3182   26.2038 C   0  0  0  0  0  0  0  0  0  0  0  0
    6.0636  -12.0038   26.5948 C   0  0  0  0  0  0  0  0  0  0  0  0
    7.1359  -11.1510   26.6977 C   0  0  0  0  0  0  0  0  0  0  0  0
    8.3807  -11.6646   26.3953 C   0  0  0  0  0  0  0  0  0  0  0  0
    8.5438  -12.9731   26.0077 C   0  0  0  0  0  0  0  0  0  0  0  0
    7.4622  -13.8412   25.9021 C   0  0  0  0  0  0  0  0  0  0  0  0
   10.3669  -16.5201   23.6503 C   0  0  0  0  0  0  0  0  0  0  0  0
   10.4171  -17.7073   23.1786 O   0  0  0  0  0  0  0  0  0  0  0  0
   16.4177  -16.0125   23.8569 N   0  0  0  0  0  0  0  0  0  0  0  0
   15.2513  -16.2061   23.0663 C   0  0  0  0  0  0  0  0  0  0  0  0
   15.2712  -16.8980   22.0087 O   0  0  0  0  0  0  0  0  0  0  0  0
   13.9498  -15.6007   23.4426 C   0  0  0  0  0  0  0  0  0  0  0  0
   12.8881  -16.7022   23.7362 C   0  0  2  0  0  0  0  0  0  0  0  0
   11.6798  -15.9619   23.8997 N   0  0  0  0  0  0  0  0  0  0  0  0
   13.3395  -17.5340   24.8284 C   0  0  0  0  0  0  0  0  0  0  0  0
   12.9382  -18.6971   25.0024 O   0  0  0  0  0  0  0  0  0  0  0  0
   14.2605  -17.0366   25.7358 O   0  0  0  0  0  0  0  0  0  0  0  0
  2  1  1  1
  2  3  1  0
  4  6  1  0
  4  2  1  0
  4  5  1  6
  6  7  2  0
  8  9  1  0
  8  6  1  0
  9 10  1  1
 10 11  1  0
 11 19  1  0
 12 11  2  0
 12 13  1  0
 13 14  1  0
 14 15  1  0
 15 16  2  0
 17 16  1  0
 18 17  2  0
 19 14  2  0
 19 18  1  0
 20  9  1  0
 21 20  2  0
 22 23  1  0
 23 24  2  0
 25 23  1  0
 26 27  1  0
 26 25  1  1
 27 20  1  0
 28 30  1  0
 28 26  1  0
 29 28  2  0
M  END
$$$$
