LTY.pdb
     RDKit          3D

 28 28  0  0  1  0  0  0  0  0999 V2000
   25.5639  -19.3200  -21.7875 C   0  0  0  0  0  0  0  0  0  0  0  0
   24.7969  -19.8169  -20.5921 C   0  0  1  0  0  0  0  0  0  0  0  0
   23.8325  -20.8965  -21.0730 C   0  0  0  0  0  0  0  0  0  0  0  0
   25.6982  -20.3498  -19.5232 C   0  0  0  0  0  0  0  0  0  0  0  0
   25.0503  -20.6712  -18.2265 C   0  0  2  0  0  0  0  0  0  0  0  0
   23.9676  -19.7245  -17.9247 N   0  0  0  0  0  0  0  0  0  0  0  0
   25.8879  -20.8653  -17.0542 C   0  0  0  0  0  0  0  0  0  0  0  0
   26.9358  -21.5976  -17.1281 O   0  0  0  0  0  0  0  0  0  0  0  0
   28.2065  -19.0198  -15.7095 C   0  0  0  0  0  0  0  0  0  0  0  0
   27.3963  -19.2140  -14.4444 C   0  0  1  0  0  0  0  0  0  0  0  0
   26.7908  -18.0505  -14.1220 O   0  0  0  0  0  0  0  0  0  0  0  0
   26.5063  -20.4039  -14.6548 C   0  0  2  0  0  0  0  0  0  0  0  0
   25.6302  -20.2801  -15.7898 N   0  0  0  0  0  0  0  0  0  0  0  0
   25.9017  -20.9308  -13.4338 C   0  0  0  0  0  0  0  0  0  0  0  0
   24.6684  -20.9405  -13.2139 O   0  0  0  0  0  0  0  0  0  0  0  0
   26.4873  -19.2246   -4.8621 O   0  0  0  0  0  0  0  0  0  0  0  0
   26.7477  -19.6672   -6.1550 C   0  0  0  0  0  0  0  0  0  0  0  0
   26.2687  -20.8752   -6.5960 C   0  0  0  0  0  0  0  0  0  0  0  0
   26.5352  -21.3054   -7.8854 C   0  0  0  0  0  0  0  0  0  0  0  0
   27.2769  -20.5608   -8.7701 C   0  0  0  0  0  0  0  0  0  0  0  0
   27.5859  -20.9915  -10.1509 C   0  0  0  0  0  0  0  0  0  0  0  0
   26.3622  -21.2271  -10.9723 C   0  0  2  0  0  0  0  0  0  0  0  0
   26.6867  -21.4953  -12.3643 N   0  0  0  0  0  0  0  0  0  0  0  0
   25.4518  -20.0807  -10.8877 C   0  0  0  0  0  0  0  0  0  0  0  0
   24.3234  -20.0954  -10.3601 O   0  0  0  0  0  0  0  0  0  0  0  0
   27.7499  -19.3430   -8.2989 C   0  0  0  0  0  0  0  0  0  0  0  0
   27.4866  -18.9129   -7.0189 C   0  0  0  0  0  0  0  0  0  0  0  0
   25.8578  -18.8484  -11.4381 O   0  0  0  0  0  0  0  0  0  0  0  0
  2  1  1  6
  2  4  1  0
  2  3  1  0
  4  5  1  0
  5  6  1  1
  7  5  1  0
  8  7  2  0
 10  9  1  6
 11 10  1  0
 12 13  1  6
 12 10  1  0
 13  7  1  0
 14 12  1  0
 15 14  2  0
 17 16  1  0
 17 27  2  0
 18 17  1  0
 19 18  2  0
 19 20  1  0
 20 26  2  0
 21 20  1  0
 22 21  1  1
 22 23  1  0
 23 14  1  0
 24 22  1  0
 24 28  1  0
 25 24  2  0
 26 27  1  0
M  END
$$$$
