LTY.pdb
     RDKit          3D

 28 28  0  0  1  0  0  0  0  0999 V2000
   23.9187   -9.9175  -24.0420 C   0  0  0  0  0  0  0  0  0  0  0  0
   24.7968   -8.7109  -23.8488 C   0  0  1  0  0  0  0  0  0  0  0  0
   24.2165   -7.5737  -24.6835 C   0  0  0  0  0  0  0  0  0  0  0  0
   24.9018   -8.3121  -22.4104 C   0  0  0  0  0  0  0  0  0  0  0  0
   25.7872   -7.1564  -22.1188 C   0  0  2  0  0  0  0  0  0  0  0  0
   27.1948   -7.4858  -22.3829 N   0  0  0  0  0  0  0  0  0  0  0  0
   25.6617   -6.4843  -20.8358 C   0  0  0  0  0  0  0  0  0  0  0  0
   26.5214   -6.6998  -19.9115 O   0  0  0  0  0  0  0  0  0  0  0  0
   25.9044   -3.0614  -20.0172 C   0  0  0  0  0  0  0  0  0  0  0  0
   24.5927   -3.4054  -19.3421 C   0  0  1  0  0  0  0  0  0  0  0  0
   23.5841   -2.7793  -19.9865 O   0  0  0  0  0  0  0  0  0  0  0  0
   24.5101   -4.9010  -19.2486 C   0  0  2  0  0  0  0  0  0  0  0  0
   24.6278   -5.5694  -20.5177 N   0  0  0  0  0  0  0  0  0  0  0  0
   23.4613   -5.3948  -18.3597 C   0  0  0  0  0  0  0  0  0  0  0  0
   22.3634   -5.8466  -18.7595 O   0  0  0  0  0  0  0  0  0  0  0  0
   18.5082   -8.5188  -11.8488 O   0  0  0  0  0  0  0  0  0  0  0  0
   19.5527   -8.1474  -12.6892 C   0  0  0  0  0  0  0  0  0  0  0  0
   19.6130   -8.6038  -13.9820 C   0  0  0  0  0  0  0  0  0  0  0  0
   20.6584   -8.2275  -14.8092 C   0  0  0  0  0  0  0  0  0  0  0  0
   21.6669   -7.3957  -14.3868 C   0  0  0  0  0  0  0  0  0  0  0  0
   22.8008   -6.9787  -15.2402 C   0  0  0  0  0  0  0  0  0  0  0  0
   22.4947   -5.7703  -16.0611 C   0  0  2  0  0  0  0  0  0  0  0  0
   23.6062   -5.4060  -16.9253 N   0  0  0  0  0  0  0  0  0  0  0  0
   22.1418   -4.6353  -15.2025 C   0  0  0  0  0  0  0  0  0  0  0  0
   20.9817   -4.2701  -14.9332 O   0  0  0  0  0  0  0  0  0  0  0  0
   21.5823   -6.9484  -13.0748 C   0  0  0  0  0  0  0  0  0  0  0  0
   20.5451   -7.3202  -12.2510 C   0  0  0  0  0  0  0  0  0  0  0  0
   23.1767   -3.8768  -14.6194 O   0  0  0  0  0  0  0  0  0  0  0  0
  2  1  1  1
  2  4  1  0
  2  3  1  0
  4  5  1  0
  5  6  1  1
  7  5  1  0
  8  7  2  0
 10  9  1  6
 11 10  1  0
 12 13  1  6
 12 10  1  0
 13  7  1  0
 14 12  1  0
 15 14  2  0
 17 16  1  0
 17 27  2  0
 18 17  1  0
 19 18  2  0
 19 20  1  0
 20 26  2  0
 21 20  1  0
 22 21  1  1
 22 23  1  0
 23 14  1  0
 24 22  1  0
 24 28  1  0
 25 24  2  0
 26 27  1  0
M  END
$$$$
