LTY.pdb
     RDKit          3D

 28 28  0  0  1  0  0  0  0  0999 V2000
   27.5742  -18.2372  -17.8827 C   0  0  0  0  0  0  0  0  0  0  0  0
   27.6424  -19.0515  -16.6192 C   0  0  1  0  0  0  0  0  0  0  0  0
   28.0795  -18.1240  -15.4899 C   0  0  0  0  0  0  0  0  0  0  0  0
   26.3346  -19.7020  -16.2942 C   0  0  0  0  0  0  0  0  0  0  0  0
   26.3065  -20.5242  -15.0581 C   0  0  2  0  0  0  0  0  0  0  0  0
   27.3539  -21.5546  -15.0817 N   0  0  0  0  0  0  0  0  0  0  0  0
   25.0433  -21.1030  -14.6306 C   0  0  0  0  0  0  0  0  0  0  0  0
   24.7920  -22.3374  -14.8614 O   0  0  0  0  0  0  0  0  0  0  0  0
   22.4544  -19.3324  -11.7457 C   0  0  0  0  0  0  0  0  0  0  0  0
   22.5163  -20.8142  -12.0540 C   0  0  1  0  0  0  0  0  0  0  0  0
   21.4050  -21.4141  -11.5750 O   0  0  0  0  0  0  0  0  0  0  0  0
   22.7836  -20.9601  -13.5235 C   0  0  2  0  0  0  0  0  0  0  0  0
   24.0325  -20.3835  -13.9466 N   0  0  0  0  0  0  0  0  0  0  0  0
   21.6305  -20.6880  -14.3783 C   0  0  0  0  0  0  0  0  0  0  0  0
   21.3845  -19.5677  -14.8822 O   0  0  0  0  0  0  0  0  0  0  0  0
   14.3456  -21.4974  -19.3547 O   0  0  0  0  0  0  0  0  0  0  0  0
   15.4459  -21.7672  -18.5474 C   0  0  0  0  0  0  0  0  0  0  0  0
   16.7170  -21.7631  -19.0645 C   0  0  0  0  0  0  0  0  0  0  0  0
   17.8048  -22.0339  -18.2507 C   0  0  0  0  0  0  0  0  0  0  0  0
   17.6697  -22.3144  -16.9127 C   0  0  0  0  0  0  0  0  0  0  0  0
   18.8074  -22.6140  -16.0161 C   0  0  0  0  0  0  0  0  0  0  0  0
   19.4910  -21.3849  -15.5165 C   0  0  2  0  0  0  0  0  0  0  0  0
   20.6658  -21.7033  -14.7207 N   0  0  0  0  0  0  0  0  0  0  0  0
   18.5679  -20.5611  -14.7296 C   0  0  0  0  0  0  0  0  0  0  0  0
   17.9388  -19.5752  -15.1589 O   0  0  0  0  0  0  0  0  0  0  0  0
   16.3733  -22.3124  -16.4147 C   0  0  0  0  0  0  0  0  0  0  0  0
   15.2911  -22.0436  -17.2204 C   0  0  0  0  0  0  0  0  0  0  0  0
   18.3532  -20.8858  -13.3751 O   0  0  0  0  0  0  0  0  0  0  0  0
  2  1  1  6
  2  4  1  0
  2  3  1  0
  4  5  1  0
  5  6  1  6
  7  5  1  0
  8  7  2  0
 10  9  1  6
 11 10  1  0
 12 13  1  6
 12 10  1  0
 13  7  1  0
 14 12  1  0
 15 14  2  0
 17 16  1  0
 17 27  2  0
 18 17  1  0
 19 18  2  0
 19 20  1  0
 20 26  2  0
 21 20  1  0
 22 21  1  1
 22 23  1  0
 23 14  1  0
 24 22  1  0
 24 28  1  0
 25 24  2  0
 26 27  1  0
M  END
$$$$
