LTY.pdb
     RDKit          3D

 28 28  0  0  1  0  0  0  0  0999 V2000
   23.2620  -17.6156  -18.9394 C   0  0  0  0  0  0  0  0  0  0  0  0
   24.0123  -18.6236  -18.1115 C   0  0  1  0  0  0  0  0  0  0  0  0
   25.4307  -18.7178  -18.6647 C   0  0  0  0  0  0  0  0  0  0  0  0
   24.0328  -18.2608  -16.6600 C   0  0  0  0  0  0  0  0  0  0  0  0
   24.8195  -19.1579  -15.7764 C   0  0  2  0  0  0  0  0  0  0  0  0
   24.8615  -20.5262  -16.3105 N   0  0  0  0  0  0  0  0  0  0  0  0
   24.5152  -19.1837  -14.3550 C   0  0  0  0  0  0  0  0  0  0  0  0
   24.2999  -18.0899  -13.7246 O   0  0  0  0  0  0  0  0  0  0  0  0
   21.6758  -20.6136  -12.8555 C   0  0  0  0  0  0  0  0  0  0  0  0
   22.7595  -21.1964  -11.9721 C   0  0  1  0  0  0  0  0  0  0  0  0
   22.8356  -22.5284  -12.1827 O   0  0  0  0  0  0  0  0  0  0  0  0
   24.0111  -20.4021  -12.2070 C   0  0  2  0  0  0  0  0  0  0  0  0
   24.4278  -20.3692  -13.5841 N   0  0  0  0  0  0  0  0  0  0  0  0
   25.0669  -20.6314  -11.2238 C   0  0  0  0  0  0  0  0  0  0  0  0
   26.0629  -21.3634  -11.4275 O   0  0  0  0  0  0  0  0  0  0  0  0
   29.6909  -20.0746   -3.6442 O   0  0  0  0  0  0  0  0  0  0  0  0
   29.0371  -19.9120   -4.8612 C   0  0  0  0  0  0  0  0  0  0  0  0
   29.3145  -20.7331   -5.9252 C   0  0  0  0  0  0  0  0  0  0  0  0
   28.6572  -20.5610   -7.1324 C   0  0  0  0  0  0  0  0  0  0  0  0
   27.7141  -19.5803   -7.3223 C   0  0  0  0  0  0  0  0  0  0  0  0
   26.9979  -19.3640   -8.5982 C   0  0  0  0  0  0  0  0  0  0  0  0
   25.9938  -20.4298   -8.8874 C   0  0  2  0  0  0  0  0  0  0  0  0
   25.0514  -20.0221   -9.9172 N   0  0  0  0  0  0  0  0  0  0  0  0
   25.2668  -20.8021   -7.6697 C   0  0  0  0  0  0  0  0  0  0  0  0
   25.7577  -21.3991   -6.6926 O   0  0  0  0  0  0  0  0  0  0  0  0
   27.4523  -18.7632   -6.2303 C   0  0  0  0  0  0  0  0  0  0  0  0
   28.1032  -18.9319   -5.0301 C   0  0  0  0  0  0  0  0  0  0  0  0
   23.9008  -20.4711   -7.5657 O   0  0  0  0  0  0  0  0  0  0  0  0
  2  1  1  6
  2  4  1  0
  2  3  1  0
  4  5  1  0
  5  6  1  6
  7  5  1  0
  8  7  2  0
 10  9  1  6
 11 10  1  0
 12 13  1  6
 12 10  1  0
 13  7  1  0
 14 12  1  0
 15 14  2  0
 17 16  1  0
 17 27  2  0
 18 17  1  0
 19 18  2  0
 19 20  1  0
 20 26  2  0
 21 20  1  0
 22 21  1  1
 22 23  1  0
 23 14  1  0
 24 22  1  0
 24 28  1  0
 25 24  2  0
 26 27  1  0
M  END
$$$$
