LTY.pdb
     RDKit          3D

 28 28  0  0  1  0  0  0  0  0999 V2000
   29.2405  -14.7503  -19.6703 C   0  0  0  0  0  0  0  0  0  0  0  0
   28.8772  -16.1587  -19.2847 C   0  0  1  0  0  0  0  0  0  0  0  0
   30.0973  -16.7899  -18.6219 C   0  0  0  0  0  0  0  0  0  0  0  0
   27.6932  -16.2076  -18.3710 C   0  0  0  0  0  0  0  0  0  0  0  0
   27.3360  -17.5474  -17.8403 C   0  0  2  0  0  0  0  0  0  0  0  0
   27.5610  -18.5945  -18.8464 N   0  0  0  0  0  0  0  0  0  0  0  0
   26.0383  -17.7280  -17.2104 C   0  0  0  0  0  0  0  0  0  0  0  0
   25.6115  -16.8689  -16.3619 O   0  0  0  0  0  0  0  0  0  0  0  0
   22.8725  -18.4004  -19.0810 C   0  0  0  0  0  0  0  0  0  0  0  0
   22.8137  -19.3709  -17.9195 C   0  0  1  0  0  0  0  0  0  0  0  0
   22.9039  -20.6335  -18.3909 O   0  0  0  0  0  0  0  0  0  0  0  0
   23.8508  -18.9461  -16.9214 C   0  0  2  0  0  0  0  0  0  0  0  0
   25.1723  -18.8173  -17.4765 N   0  0  0  0  0  0  0  0  0  0  0  0
   23.7618  -19.6239  -15.6305 C   0  0  0  0  0  0  0  0  0  0  0  0
   24.7467  -20.1117  -15.0292 O   0  0  0  0  0  0  0  0  0  0  0  0
   23.1396  -21.4012   -7.2816 O   0  0  0  0  0  0  0  0  0  0  0  0
   23.1488  -20.9187   -8.5863 C   0  0  0  0  0  0  0  0  0  0  0  0
   22.0064  -20.4218   -9.1618 C   0  0  0  0  0  0  0  0  0  0  0  0
   22.0280  -19.9447  -10.4621 C   0  0  0  0  0  0  0  0  0  0  0  0
   23.1698  -19.9445  -11.2259 C   0  0  0  0  0  0  0  0  0  0  0  0
   23.2277  -19.4491  -12.6184 C   0  0  0  0  0  0  0  0  0  0  0  0
   22.4772  -20.3160  -13.5738 C   0  0  2  0  0  0  0  0  0  0  0  0
   22.5132  -19.7880  -14.9284 N   0  0  0  0  0  0  0  0  0  0  0  0
   21.0853  -20.4797  -13.1426 C   0  0  0  0  0  0  0  0  0  0  0  0
   20.1830  -19.6330  -13.2868 O   0  0  0  0  0  0  0  0  0  0  0  0
   24.3114  -20.4527  -10.6202 C   0  0  0  0  0  0  0  0  0  0  0  0
   24.2932  -20.9270   -9.3290 C   0  0  0  0  0  0  0  0  0  0  0  0
   20.7063  -21.6815  -12.5114 O   0  0  0  0  0  0  0  0  0  0  0  0
  2  1  1  1
  2  4  1  0
  2  3  1  0
  4  5  1  0
  5  6  1  6
  7  5  1  0
  8  7  2  0
 10  9  1  6
 11 10  1  0
 12 13  1  6
 12 10  1  0
 13  7  1  0
 14 12  1  0
 15 14  2  0
 17 16  1  0
 17 27  2  0
 18 17  1  0
 19 18  2  0
 19 20  1  0
 20 26  2  0
 21 20  1  0
 22 21  1  1
 22 23  1  0
 23 14  1  0
 24 22  1  0
 24 28  1  0
 25 24  2  0
 26 27  1  0
M  END
$$$$
