LTY.pdb
     RDKit          3D

 28 28  0  0  1  0  0  0  0  0999 V2000
   25.1168  -14.3536  -15.7911 C   0  0  0  0  0  0  0  0  0  0  0  0
   23.6414  -14.1418  -15.5849 C   0  0  1  0  0  0  0  0  0  0  0  0
   23.3718  -14.1707  -14.0838 C   0  0  0  0  0  0  0  0  0  0  0  0
   23.1652  -12.8560  -16.1840 C   0  0  0  0  0  0  0  0  0  0  0  0
   21.7086  -12.5886  -16.0769 C   0  0  2  0  0  0  0  0  0  0  0  0
   20.9269  -13.6166  -16.7781 N   0  0  0  0  0  0  0  0  0  0  0  0
   21.2130  -11.2644  -16.4151 C   0  0  0  0  0  0  0  0  0  0  0  0
   21.1250  -10.9057  -17.6413 O   0  0  0  0  0  0  0  0  0  0  0  0
   18.6380   -7.2539  -15.7652 C   0  0  0  0  0  0  0  0  0  0  0  0
   18.9618   -8.6679  -15.3290 C   0  0  1  0  0  0  0  0  0  0  0  0
   17.9818   -9.4974  -15.7484 O   0  0  0  0  0  0  0  0  0  0  0  0
   20.3547   -8.9775  -15.7941 C   0  0  2  0  0  0  0  0  0  0  0  0
   20.7971  -10.3053  -15.4588 N   0  0  0  0  0  0  0  0  0  0  0  0
   21.3204   -7.9048  -15.5686 C   0  0  0  0  0  0  0  0  0  0  0  0
   21.9152   -7.7185  -14.4818 O   0  0  0  0  0  0  0  0  0  0  0  0
   27.1809   -1.3944  -16.7017 O   0  0  0  0  0  0  0  0  0  0  0  0
   26.2637   -2.4171  -16.9208 C   0  0  0  0  0  0  0  0  0  0  0  0
   25.0686   -2.1692  -17.5479 C   0  0  0  0  0  0  0  0  0  0  0  0
   24.1630   -3.1958  -17.7599 C   0  0  0  0  0  0  0  0  0  0  0  0
   24.4097   -4.4872  -17.3616 C   0  0  0  0  0  0  0  0  0  0  0  0
   23.4638   -5.6058  -17.5658 C   0  0  0  0  0  0  0  0  0  0  0  0
   22.6599   -5.9152  -16.3469 C   0  0  2  0  0  0  0  0  0  0  0  0
   21.6772   -6.9579  -16.5956 N   0  0  0  0  0  0  0  0  0  0  0  0
   21.9890   -4.7105  -15.8482 C   0  0  0  0  0  0  0  0  0  0  0  0
   20.9218   -4.2455  -16.2917 O   0  0  0  0  0  0  0  0  0  0  0  0
   25.6257   -4.7110  -16.7294 C   0  0  0  0  0  0  0  0  0  0  0  0
   26.5272   -3.6935  -16.5177 C   0  0  0  0  0  0  0  0  0  0  0  0
   22.5736   -3.9995  -14.7810 O   0  0  0  0  0  0  0  0  0  0  0  0
  2  1  1  1
  2  4  1  0
  2  3  1  0
  4  5  1  0
  5  6  1  6
  7  5  1  0
  8  7  2  0
 10  9  1  6
 11 10  1  0
 12 13  1  1
 12 10  1  0
 13  7  1  0
 14 12  1  0
 15 14  2  0
 17 16  1  0
 17 27  2  0
 18 17  1  0
 19 18  2  0
 19 20  1  0
 20 26  2  0
 21 20  1  0
 22 21  1  6
 22 23  1  0
 23 14  1  0
 24 22  1  0
 24 28  1  0
 25 24  2  0
 26 27  1  0
M  END
$$$$
