LTY.pdb
     RDKit          3D

 28 28  0  0  1  0  0  0  0  0999 V2000
   25.0806  -16.1429  -19.5332 C   0  0  0  0  0  0  0  0  0  0  0  0
   25.1019  -15.3799  -18.2364 C   0  0  1  0  0  0  0  0  0  0  0  0
   26.5454  -15.3359  -17.7452 C   0  0  0  0  0  0  0  0  0  0  0  0
   24.5504  -13.9969  -18.3845 C   0  0  0  0  0  0  0  0  0  0  0  0
   24.3494  -13.2383  -17.1241 C   0  0  2  0  0  0  0  0  0  0  0  0
   23.7717  -14.0920  -16.0768 N   0  0  0  0  0  0  0  0  0  0  0  0
   23.6485  -11.9657  -17.1768 C   0  0  0  0  0  0  0  0  0  0  0  0
   23.9266  -11.1172  -18.0948 O   0  0  0  0  0  0  0  0  0  0  0  0
   19.7866  -11.6873  -16.6892 C   0  0  0  0  0  0  0  0  0  0  0  0
   20.4253  -10.5567  -15.9091 C   0  0  1  0  0  0  0  0  0  0  0  0
   20.2746  -10.7889  -14.5871 O   0  0  0  0  0  0  0  0  0  0  0  0
   21.8303  -10.3969  -16.4118 C   0  0  2  0  0  0  0  0  0  0  0  0
   22.6384  -11.5782  -16.2619 N   0  0  0  0  0  0  0  0  0  0  0  0
   22.4659   -9.1350  -16.0407 C   0  0  0  0  0  0  0  0  0  0  0  0
   23.2598   -9.0097  -15.0797 O   0  0  0  0  0  0  0  0  0  0  0  0
   25.7045   -0.8953  -16.3415 O   0  0  0  0  0  0  0  0  0  0  0  0
   25.1185   -2.1191  -16.6482 C   0  0  0  0  0  0  0  0  0  0  0  0
   23.7902   -2.3483  -16.3910 C   0  0  0  0  0  0  0  0  0  0  0  0
   23.2181   -3.5713  -16.7003 C   0  0  0  0  0  0  0  0  0  0  0  0
   23.9358   -4.5957  -17.2684 C   0  0  0  0  0  0  0  0  0  0  0  0
   23.3595   -5.9154  -17.6059 C   0  0  0  0  0  0  0  0  0  0  0  0
   22.9202   -6.6811  -16.4024 C   0  0  2  0  0  0  0  0  0  0  0  0
   22.2306   -7.9096  -16.7631 N   0  0  0  0  0  0  0  0  0  0  0  0
   22.0547   -5.8585  -15.5514 C   0  0  0  0  0  0  0  0  0  0  0  0
   20.8271   -5.7106  -15.7031 O   0  0  0  0  0  0  0  0  0  0  0  0
   25.2774   -4.3380  -17.5182 C   0  0  0  0  0  0  0  0  0  0  0  0
   25.8483   -3.1243  -17.2123 C   0  0  0  0  0  0  0  0  0  0  0  0
   22.6282   -5.1672  -14.4653 O   0  0  0  0  0  0  0  0  0  0  0  0
  2  1  1  6
  2  4  1  0
  2  3  1  0
  4  5  1  0
  5  6  1  1
  7  5  1  0
  8  7  2  0
 10  9  1  6
 11 10  1  0
 12 13  1  1
 12 10  1  0
 13  7  1  0
 14 12  1  0
 15 14  2  0
 17 16  1  0
 17 27  2  0
 18 17  1  0
 19 18  2  0
 19 20  1  0
 20 26  2  0
 21 20  1  0
 22 21  1  6
 22 23  1  0
 23 14  1  0
 24 22  1  0
 24 28  1  0
 25 24  2  0
 26 27  1  0
M  END
$$$$
