LTY.pdb
     RDKit          3D

 28 28  0  0  1  0  0  0  0  0999 V2000
   33.1136  -33.1892  -16.3988 C   0  0  0  0  0  0  0  0  0  0  0  0
   32.1714  -32.0679  -16.7442 C   0  0  1  0  0  0  0  0  0  0  0  0
   32.9004  -31.1223  -17.6934 C   0  0  0  0  0  0  0  0  0  0  0  0
   30.9028  -32.5651  -17.3625 C   0  0  0  0  0  0  0  0  0  0  0  0
   30.0846  -33.4775  -16.5243 C   0  0  2  0  0  0  0  0  0  0  0  0
   30.5921  -34.8551  -16.5878 N   0  0  0  0  0  0  0  0  0  0  0  0
   28.6396  -33.4678  -16.6836 C   0  0  0  0  0  0  0  0  0  0  0  0
   28.0876  -34.1982  -17.5790 O   0  0  0  0  0  0  0  0  0  0  0  0
   26.1020  -34.6496  -14.6344 C   0  0  0  0  0  0  0  0  0  0  0  0
   25.5875  -33.2448  -14.8722 C   0  0  1  0  0  0  0  0  0  0  0  0
   25.6584  -32.5449  -13.7191 O   0  0  0  0  0  0  0  0  0  0  0  0
   26.3294  -32.6842  -16.0502 C   0  0  2  0  0  0  0  0  0  0  0  0
   27.7598  -32.6895  -15.8915 N   0  0  0  0  0  0  0  0  0  0  0  0
   25.7511  -31.4623  -16.6039 C   0  0  0  0  0  0  0  0  0  0  0  0
   26.4143  -30.4314  -16.8623 O   0  0  0  0  0  0  0  0  0  0  0  0
   22.3594  -24.9007  -20.9048 O   0  0  0  0  0  0  0  0  0  0  0  0
   22.8758  -26.0750  -20.3668 C   0  0  0  0  0  0  0  0  0  0  0  0
   23.9989  -26.0545  -19.5785 C   0  0  0  0  0  0  0  0  0  0  0  0
   24.5041  -27.2306  -19.0490 C   0  0  0  0  0  0  0  0  0  0  0  0
   23.9192  -28.4518  -19.2808 C   0  0  0  0  0  0  0  0  0  0  0  0
   24.4346  -29.7272  -18.7372 C   0  0  0  0  0  0  0  0  0  0  0  0
   23.7983  -30.1040  -17.4408 C   0  0  2  0  0  0  0  0  0  0  0  0
   24.3467  -31.3405  -16.9066 N   0  0  0  0  0  0  0  0  0  0  0  0
   22.3455  -30.2315  -17.5934 C   0  0  0  0  0  0  0  0  0  0  0  0
   21.7407  -31.2849  -17.8703 O   0  0  0  0  0  0  0  0  0  0  0  0
   22.7846  -28.4448  -20.0816 C   0  0  0  0  0  0  0  0  0  0  0  0
   22.2804  -27.2784  -20.6087 C   0  0  0  0  0  0  0  0  0  0  0  0
   21.5408  -29.0878  -17.4182 O   0  0  0  0  0  0  0  0  0  0  0  0
  2  1  1  6
  2  4  1  0
  2  3  1  0
  4  5  1  0
  5  6  1  6
  7  5  1  0
  8  7  2  0
 10  9  1  1
 11 10  1  0
 12 13  1  1
 12 10  1  0
 13  7  1  0
 14 12  1  0
 15 14  2  0
 17 16  1  0
 17 27  2  0
 18 17  1  0
 19 18  2  0
 19 20  1  0
 20 26  2  0
 21 20  1  0
 22 21  1  6
 22 23  1  0
 23 14  1  0
 24 22  1  0
 24 28  1  0
 25 24  2  0
 26 27  1  0
M  END
$$$$
