LTY.pdb
     RDKit          3D

 28 28  0  0  1  0  0  0  0  0999 V2000
   17.2667  -16.2060  -19.0552 C   0  0  0  0  0  0  0  0  0  0  0  0
   16.9480  -14.8563  -18.4713 C   0  0  1  0  0  0  0  0  0  0  0  0
   15.6282  -14.9752  -17.7158 C   0  0  0  0  0  0  0  0  0  0  0  0
   18.0327  -14.3603  -17.5679 C   0  0  0  0  0  0  0  0  0  0  0  0
   19.3445  -14.0953  -18.2110 C   0  0  2  0  0  0  0  0  0  0  0  0
   20.1864  -15.2997  -18.2162 N   0  0  0  0  0  0  0  0  0  0  0  0
   20.1184  -12.9445  -17.7751 C   0  0  0  0  0  0  0  0  0  0  0  0
   21.0027  -13.0756  -16.8581 O   0  0  0  0  0  0  0  0  0  0  0  0
   22.0410  -10.6401  -20.0064 C   0  0  0  0  0  0  0  0  0  0  0  0
   21.2830   -9.7062  -19.0856 C   0  0  1  0  0  0  0  0  0  0  0  0
   20.3545   -9.0347  -19.8006 O   0  0  0  0  0  0  0  0  0  0  0  0
   20.7859  -10.5187  -17.9258 C   0  0  2  0  0  0  0  0  0  0  0  0
   19.9708  -11.6409  -18.3101 N   0  0  0  0  0  0  0  0  0  0  0  0
   20.2972   -9.7285  -16.7985 C   0  0  0  0  0  0  0  0  0  0  0  0
   19.1071   -9.7328  -16.4074 O   0  0  0  0  0  0  0  0  0  0  0  0
   25.3510   -4.0879  -16.2872 O   0  0  0  0  0  0  0  0  0  0  0  0
   24.4935   -5.0181  -15.7087 C   0  0  0  0  0  0  0  0  0  0  0  0
   24.6867   -6.3642  -15.8925 C   0  0  0  0  0  0  0  0  0  0  0  0
   23.8256   -7.2807  -15.3117 C   0  0  0  0  0  0  0  0  0  0  0  0
   22.7569   -6.8973  -14.5383 C   0  0  0  0  0  0  0  0  0  0  0  0
   21.8145   -7.8475  -13.9085 C   0  0  0  0  0  0  0  0  0  0  0  0
   20.6871   -8.2287  -14.8092 C   0  0  2  0  0  0  0  0  0  0  0  0
   21.1586   -8.8663  -16.0282 N   0  0  0  0  0  0  0  0  0  0  0  0
   19.8728   -7.0567  -15.1460 C   0  0  0  0  0  0  0  0  0  0  0  0
   19.1792   -6.4069  -14.3406 O   0  0  0  0  0  0  0  0  0  0  0  0
   22.5838   -5.5300  -14.3683 C   0  0  0  0  0  0  0  0  0  0  0  0
   23.4374   -4.6173  -14.9436 C   0  0  0  0  0  0  0  0  0  0  0  0
   19.8529   -6.6037  -16.4804 O   0  0  0  0  0  0  0  0  0  0  0  0
  2  1  1  1
  2  4  1  0
  2  3  1  0
  4  5  1  0
  5  6  1  1
  7  5  1  0
  8  7  2  0
 10  9  1  6
 11 10  1  0
 12 13  1  6
 12 10  1  0
 13  7  1  0
 14 12  1  0
 15 14  2  0
 17 16  1  0
 17 27  2  0
 18 17  1  0
 19 18  2  0
 19 20  1  0
 20 26  2  0
 21 20  1  0
 22 21  1  1
 22 23  1  0
 23 14  1  0
 24 22  1  0
 24 28  1  0
 25 24  2  0
 26 27  1  0
M  END
$$$$
