LTY.pdb
     RDKit          3D

 28 28  0  0  1  0  0  0  0  0999 V2000
   25.2413  -32.1728   -9.4893 C   0  0  0  0  0  0  0  0  0  0  0  0
   26.0349  -33.4491   -9.5629 C   0  0  1  0  0  0  0  0  0  0  0  0
   27.2275  -33.2040  -10.4817 C   0  0  0  0  0  0  0  0  0  0  0  0
   26.4909  -33.9104   -8.2145 C   0  0  0  0  0  0  0  0  0  0  0  0
   27.3138  -35.1461   -8.1937 C   0  0  2  0  0  0  0  0  0  0  0  0
   26.5631  -36.2931   -8.7230 N   0  0  0  0  0  0  0  0  0  0  0  0
   27.9910  -35.5157   -6.9616 C   0  0  0  0  0  0  0  0  0  0  0  0
   27.4188  -36.2974   -6.1241 O   0  0  0  0  0  0  0  0  0  0  0  0
   31.9012  -35.4381   -3.9438 C   0  0  0  0  0  0  0  0  0  0  0  0
   31.4059  -35.2753   -5.3660 C   0  0  1  0  0  0  0  0  0  0  0  0
   32.0352  -36.1684   -6.1603 O   0  0  0  0  0  0  0  0  0  0  0  0
   29.9068  -35.3380   -5.3335 C   0  0  2  0  0  0  0  0  0  0  0  0
   29.2867  -35.0679   -6.6038 N   0  0  0  0  0  0  0  0  0  0  0  0
   29.2991  -34.6903   -4.1737 C   0  0  0  0  0  0  0  0  0  0  0  0
   29.0564  -33.4630   -4.1074 O   0  0  0  0  0  0  0  0  0  0  0  0
   25.2596  -40.4004   -1.3730 O   0  0  0  0  0  0  0  0  0  0  0  0
   25.6466  -39.0683   -1.4784 C   0  0  0  0  0  0  0  0  0  0  0  0
   26.3085  -38.4437   -0.4513 C   0  0  0  0  0  0  0  0  0  0  0  0
   26.6883  -37.1166   -0.5678 C   0  0  0  0  0  0  0  0  0  0  0  0
   26.4273  -36.3736   -1.6935 C   0  0  0  0  0  0  0  0  0  0  0  0
   26.8122  -34.9541   -1.8496 C   0  0  0  0  0  0  0  0  0  0  0  0
   28.2910  -34.7525   -1.8631 C   0  0  2  0  0  0  0  0  0  0  0  0
   28.9193  -35.4220   -2.9908 N   0  0  0  0  0  0  0  0  0  0  0  0
   28.8904  -35.2235   -0.6105 C   0  0  0  0  0  0  0  0  0  0  0  0
   29.6914  -36.1721   -0.5081 O   0  0  0  0  0  0  0  0  0  0  0  0
   25.7563  -37.0292   -2.7175 C   0  0  0  0  0  0  0  0  0  0  0  0
   25.3782  -38.3471   -2.6048 C   0  0  0  0  0  0  0  0  0  0  0  0
   28.5535  -34.5701    0.5919 O   0  0  0  0  0  0  0  0  0  0  0  0
  2  1  1  1
  2  4  1  0
  2  3  1  0
  4  5  1  0
  5  6  1  1
  7  5  1  0
  8  7  2  0
 10  9  1  1
 11 10  1  0
 12 13  1  6
 12 10  1  0
 13  7  1  0
 14 12  1  0
 15 14  2  0
 17 16  1  0
 17 27  2  0
 18 17  1  0
 19 18  2  0
 19 20  1  0
 20 26  2  0
 21 20  1  0
 22 21  1  1
 22 23  1  0
 23 14  1  0
 24 22  1  0
 24 28  1  0
 25 24  2  0
 26 27  1  0
M  END
$$$$
