TKC.pdb
     RDKit          3D

 23 22  0  0  1  0  0  0  0  0999 V2000
    9.4995  -14.3927   18.5625 C   0  0  0  0  0  0  0  0  0  0  0  0
    9.0570  -14.6294   19.9801 C   0  0  1  0  0  0  0  0  0  0  0  0
    9.4589  -13.5723   20.8236 O   0  0  0  0  0  0  0  0  0  0  0  0
    7.5508  -14.7176   20.1166 C   0  0  2  0  0  0  0  0  0  0  0  0
    6.8992  -13.5239   19.6182 N   0  0  0  0  0  0  0  0  0  0  0  0
    7.1489  -15.0498   21.5093 C   0  0  0  0  0  0  0  0  0  0  0  0
    6.6746  -14.1422   22.2070 O   0  0  0  0  0  0  0  0  0  0  0  0
    7.3038  -16.3590   22.0193 N   0  0  0  0  0  0  0  0  0  0  0  0
    6.9318  -16.6956   23.4228 C   0  0  1  0  0  0  0  0  0  0  0  0
    6.9423  -18.1841   23.4881 C   0  0  0  0  0  0  0  0  0  0  0  0
    6.7942  -18.8189   24.8178 C   0  0  0  0  0  0  0  0  0  0  0  0
    6.9262  -20.3116   24.8124 C   0  0  0  0  0  0  0  0  0  0  0  0
    6.7352  -20.8518   26.2187 C   0  0  0  0  0  0  0  0  0  0  0  0
    6.9685  -22.2749   26.2486 N   0  0  0  0  0  0  0  0  0  0  0  0
    7.9122  -16.0011   24.2710 C   0  0  0  0  0  0  0  0  0  0  0  0
    9.1096  -15.9362   23.8844 O   0  0  0  0  0  0  0  0  0  0  0  0
    7.5961  -15.3892   25.5101 N   0  0  0  0  0  0  0  0  0  0  0  0
    8.5838  -14.6337   26.2738 C   0  0  1  0  0  0  0  0  0  0  0  0
    7.9342  -13.4842   27.0125 C   0  0  0  0  0  0  0  0  0  0  0  0
    9.1402  -12.5489   27.9725 S   0  0  0  0  0  0  0  0  0  0  0  0
    9.2114  -15.5286   27.2483 C   0  0  0  0  0  0  0  0  0  0  0  0
   10.3852  -15.1054   27.8797 O   0  0  0  0  0  0  0  0  0  0  0  0
    8.7660  -16.6622   27.5615 O   0  0  0  0  0  0  0  0  0  0  0  0
  2  1  1  6
  2  4  1  0
  3  2  1  0
  4  6  1  0
  4  5  1  1
  6  8  1  0
  7  6  2  0
  8  9  1  0
  9 10  1  6
 10 11  1  0
 11 12  1  0
 12 13  1  0
 13 14  1  0
 15 17  1  0
 15  9  1  0
 16 15  2  0
 18 17  1  0
 18 19  1  1
 19 20  1  0
 21 18  1  0
 22 21  1  0
 23 21  2  0
M  END
$$$$
