TKC.pdb
     RDKit          3D

 23 22  0  0  1  0  0  0  0  0999 V2000
   10.5102  -13.9628   18.3641 C   0  0  0  0  0  0  0  0  0  0  0  0
    9.8735  -14.1621   19.7118 C   0  0  1  0  0  0  0  0  0  0  0  0
   10.3277  -13.2000   20.6383 O   0  0  0  0  0  0  0  0  0  0  0  0
    8.3656  -14.0202   19.6740 C   0  0  2  0  0  0  0  0  0  0  0  0
    7.9643  -12.7274   19.1587 N   0  0  0  0  0  0  0  0  0  0  0  0
    7.7570  -14.3231   20.9966 C   0  0  0  0  0  0  0  0  0  0  0  0
    7.1477  -13.4126   21.5756 O   0  0  0  0  0  0  0  0  0  0  0  0
    7.8709  -15.6086   21.5734 N   0  0  0  0  0  0  0  0  0  0  0  0
    7.1559  -15.9617   22.8326 C   0  0  1  0  0  0  0  0  0  0  0  0
    7.0923  -17.4503   22.8465 C   0  0  0  0  0  0  0  0  0  0  0  0
    6.5284  -18.1070   24.0480 C   0  0  0  0  0  0  0  0  0  0  0  0
    7.5224  -18.8849   24.8557 C   0  0  0  0  0  0  0  0  0  0  0  0
    6.8485  -19.4593   26.0894 C   0  0  0  0  0  0  0  0  0  0  0  0
    7.8188  -20.1037   26.9404 N   0  0  0  0  0  0  0  0  0  0  0  0
    7.9268  -15.3343   23.9165 C   0  0  0  0  0  0  0  0  0  0  0  0
    9.1850  -15.3849   23.8730 O   0  0  0  0  0  0  0  0  0  0  0  0
    7.3419  -14.6649   25.0207 N   0  0  0  0  0  0  0  0  0  0  0  0
    8.1498  -14.0532   26.0708 C   0  0  1  0  0  0  0  0  0  0  0  0
    7.3177  -13.1160   26.9184 C   0  0  0  0  0  0  0  0  0  0  0  0
    6.2019  -12.1242   25.9073 S   0  0  0  0  0  0  0  0  0  0  0  0
    8.6906  -15.1114   26.9264 C   0  0  0  0  0  0  0  0  0  0  0  0
    9.5791  -14.7534   27.9452 O   0  0  0  0  0  0  0  0  0  0  0  0
    8.4104  -16.3318   26.8097 O   0  0  0  0  0  0  0  0  0  0  0  0
  2  1  1  6
  2  4  1  0
  3  2  1  0
  4  6  1  0
  4  5  1  1
  6  8  1  0
  7  6  2  0
  8  9  1  0
  9 10  1  1
 10 11  1  0
 11 12  1  0
 12 13  1  0
 13 14  1  0
 15 17  1  0
 15  9  1  0
 16 15  2  0
 18 17  1  0
 18 19  1  1
 19 20  1  0
 21 18  1  0
 22 21  1  0
 23 21  2  0
M  END
$$$$
