TKC.pdb
     RDKit          3D

 23 22  0  0  1  0  0  0  0  0999 V2000
   10.1873  -14.0251   18.5250 C   0  0  0  0  0  0  0  0  0  0  0  0
    9.5606  -14.2749   19.8690 C   0  0  1  0  0  0  0  0  0  0  0  0
    9.7859  -13.1932   20.7462 O   0  0  0  0  0  0  0  0  0  0  0  0
    8.0565  -14.4390   19.7926 C   0  0  2  0  0  0  0  0  0  0  0  0
    7.4321  -13.3235   19.1118 N   0  0  0  0  0  0  0  0  0  0  0  0
    7.4677  -14.6926   21.1345 C   0  0  0  0  0  0  0  0  0  0  0  0
    6.7394  -13.8165   21.6220 O   0  0  0  0  0  0  0  0  0  0  0  0
    7.7314  -15.8946   21.8301 N   0  0  0  0  0  0  0  0  0  0  0  0
    7.2165  -16.1230   23.2100 C   0  0  1  0  0  0  0  0  0  0  0  0
    7.4377  -17.5717   23.4793 C   0  0  0  0  0  0  0  0  0  0  0  0
    7.2033  -18.0626   24.8566 C   0  0  0  0  0  0  0  0  0  0  0  0
    7.5140  -19.5143   25.0606 C   0  0  0  0  0  0  0  0  0  0  0  0
    7.2500  -19.9006   26.5053 C   0  0  0  0  0  0  0  0  0  0  0  0
    7.6413  -21.2687   26.7414 N   0  0  0  0  0  0  0  0  0  0  0  0
    7.9519  -15.1828   24.0691 C   0  0  0  0  0  0  0  0  0  0  0  0
    9.1856  -15.0195   23.8715 O   0  0  0  0  0  0  0  0  0  0  0  0
    7.3579  -14.4357   25.1172 N   0  0  0  0  0  0  0  0  0  0  0  0
    8.1161  -13.4676   25.9029 C   0  0  1  0  0  0  0  0  0  0  0  0
    7.2614  -12.2716   26.2609 C   0  0  0  0  0  0  0  0  0  0  0  0
    5.7193  -12.7730   27.0493 S   0  0  0  0  0  0  0  0  0  0  0  0
    8.5686  -14.1128   27.1371 C   0  0  0  0  0  0  0  0  0  0  0  0
    9.4652  -13.4220   27.9583 O   0  0  0  0  0  0  0  0  0  0  0  0
    8.2049  -15.2556   27.5157 O   0  0  0  0  0  0  0  0  0  0  0  0
  2  1  1  6
  2  4  1  0
  3  2  1  0
  4  6  1  0
  4  5  1  1
  6  8  1  0
  7  6  2  0
  8  9  1  0
  9 10  1  1
 10 11  1  0
 11 12  1  0
 12 13  1  0
 13 14  1  0
 15 17  1  0
 15  9  1  0
 16 15  2  0
 18 17  1  0
 18 19  1  1
 19 20  1  0
 21 18  1  0
 22 21  1  0
 23 21  2  0
M  END
$$$$
