TKC.pdb
     RDKit          3D

 23 22  0  0  1  0  0  0  0  0999 V2000
    6.7297  -20.9467   20.6383 C   0  0  0  0  0  0  0  0  0  0  0  0
    7.6501  -19.7776   20.8569 C   0  0  1  0  0  0  0  0  0  0  0  0
    8.9947  -20.1958   20.9439 O   0  0  0  0  0  0  0  0  0  0  0  0
    7.6016  -18.7739   19.7232 C   0  0  2  0  0  0  0  0  0  0  0  0
    7.9128  -19.3914   18.4505 N   0  0  0  0  0  0  0  0  0  0  0  0
    8.4543  -17.5893   20.0081 C   0  0  0  0  0  0  0  0  0  0  0  0
    9.5970  -17.5699   19.5293 O   0  0  0  0  0  0  0  0  0  0  0  0
    7.9752  -16.5207   20.7998 N   0  0  0  0  0  0  0  0  0  0  0  0
    8.8202  -15.3273   21.0883 C   0  0  1  0  0  0  0  0  0  0  0  0
    7.8662  -14.1903   21.2196 C   0  0  0  0  0  0  0  0  0  0  0  0
    7.2074  -13.6950   19.9894 C   0  0  0  0  0  0  0  0  0  0  0  0
    8.1317  -13.4931   18.8272 C   0  0  0  0  0  0  0  0  0  0  0  0
    7.3335  -13.1108   17.5932 C   0  0  0  0  0  0  0  0  0  0  0  0
    8.1898  -13.0624   16.4334 N   0  0  0  0  0  0  0  0  0  0  0  0
    9.5929  -15.6694   22.2919 C   0  0  0  0  0  0  0  0  0  0  0  0
    8.9742  -16.0514   23.3209 O   0  0  0  0  0  0  0  0  0  0  0  0
   11.0065  -15.5998   22.3730 N   0  0  0  0  0  0  0  0  0  0  0  0
   11.7418  -16.1183   23.5218 C   0  0  1  0  0  0  0  0  0  0  0  0
   11.5181  -17.6061   23.6822 C   0  0  0  0  0  0  0  0  0  0  0  0
   11.0705  -18.0289   25.3768 S   0  0  0  0  0  0  0  0  0  0  0  0
   13.1710  -15.8737   23.3165 C   0  0  0  0  0  0  0  0  0  0  0  0
   14.0320  -16.0070   24.4102 O   0  0  0  0  0  0  0  0  0  0  0  0
   13.6849  -15.5490   22.2156 O   0  0  0  0  0  0  0  0  0  0  0  0
  2  1  1  6
  2  4  1  0
  3  2  1  0
  4  6  1  0
  4  5  1  6
  6  8  1  0
  7  6  2  0
  8  9  1  0
  9 10  1  1
 10 11  1  0
 11 12  1  0
 12 13  1  0
 13 14  1  0
 15 17  1  0
 15  9  1  0
 16 15  2  0
 18 17  1  0
 18 19  1  6
 19 20  1  0
 21 18  1  0
 22 21  1  0
 23 21  2  0
M  END
$$$$
