TKC.pdb
     RDKit          3D

 23 22  0  0  1  0  0  0  0  0999 V2000
   10.3723  -13.7834   18.0454 C   0  0  0  0  0  0  0  0  0  0  0  0
    9.7556  -14.1762   19.3595 C   0  0  1  0  0  0  0  0  0  0  0  0
   10.1062  -13.2672   20.3799 O   0  0  0  0  0  0  0  0  0  0  0  0
    8.2413  -14.1856   19.3164 C   0  0  2  0  0  0  0  0  0  0  0  0
    7.7117  -12.9053   18.8941 N   0  0  0  0  0  0  0  0  0  0  0  0
    7.6628  -14.6467   20.6065 C   0  0  0  0  0  0  0  0  0  0  0  0
    7.0233  -13.8265   21.2802 O   0  0  0  0  0  0  0  0  0  0  0  0
    7.8377  -15.9779   21.0485 N   0  0  0  0  0  0  0  0  0  0  0  0
    7.2596  -16.4510   22.3383 C   0  0  1  0  0  0  0  0  0  0  0  0
    7.3548  -17.9373   22.2922 C   0  0  0  0  0  0  0  0  0  0  0  0
    7.0075  -18.6907   23.5189 C   0  0  0  0  0  0  0  0  0  0  0  0
    7.0941  -20.1801   23.3793 C   0  0  0  0  0  0  0  0  0  0  0  0
    6.6972  -20.8450   24.6857 C   0  0  0  0  0  0  0  0  0  0  0  0
    5.4756  -21.5938   24.5199 N   0  0  0  0  0  0  0  0  0  0  0  0
    8.0382  -15.7824   23.3916 C   0  0  0  0  0  0  0  0  0  0  0  0
    9.2780  -15.6315   23.2253 O   0  0  0  0  0  0  0  0  0  0  0  0
    7.4800  -15.2871   24.5968 N   0  0  0  0  0  0  0  0  0  0  0  0
    8.2870  -14.5934   25.5952 C   0  0  1  0  0  0  0  0  0  0  0  0
    7.4538  -13.5927   26.3657 C   0  0  0  0  0  0  0  0  0  0  0  0
    8.4021  -12.8254   27.6935 S   0  0  0  0  0  0  0  0  0  0  0  0
    8.8285  -15.5800   26.5322 C   0  0  0  0  0  0  0  0  0  0  0  0
   10.0991  -15.3568   27.0718 O   0  0  0  0  0  0  0  0  0  0  0  0
    8.2266  -16.6245   26.8903 O   0  0  0  0  0  0  0  0  0  0  0  0
  2  1  1  6
  2  4  1  0
  3  2  1  0
  4  6  1  0
  4  5  1  1
  6  8  1  0
  7  6  2  0
  8  9  1  0
  9 10  1  1
 10 11  1  0
 11 12  1  0
 12 13  1  0
 13 14  1  0
 15 17  1  0
 15  9  1  0
 16 15  2  0
 18 17  1  0
 18 19  1  1
 19 20  1  0
 21 18  1  0
 22 21  1  0
 23 21  2  0
M  END
$$$$
