TKC.pdb
     RDKit          3D

 23 22  0  0  1  0  0  0  0  0999 V2000
   11.5639  -14.0160   18.1985 C   0  0  0  0  0  0  0  0  0  0  0  0
   10.7390  -14.2493   19.4341 C   0  0  1  0  0  0  0  0  0  0  0  0
   10.9579  -13.2375   20.3926 O   0  0  0  0  0  0  0  0  0  0  0  0
    9.2501  -14.2394   19.1549 C   0  0  2  0  0  0  0  0  0  0  0  0
    8.8244  -12.9819   18.5758 N   0  0  0  0  0  0  0  0  0  0  0  0
    8.4669  -14.6064   20.3646 C   0  0  0  0  0  0  0  0  0  0  0  0
    7.7293  -13.7431   20.8607 O   0  0  0  0  0  0  0  0  0  0  0  0
    8.5620  -15.8989   20.9292 N   0  0  0  0  0  0  0  0  0  0  0  0
    7.6490  -16.3388   22.0221 C   0  0  1  0  0  0  0  0  0  0  0  0
    7.8349  -17.8138   22.1222 C   0  0  0  0  0  0  0  0  0  0  0  0
    6.9104  -18.5692   22.9984 C   0  0  0  0  0  0  0  0  0  0  0  0
    5.5178  -18.7059   22.4622 C   0  0  0  0  0  0  0  0  0  0  0  0
    4.6295  -19.3739   23.4970 C   0  0  0  0  0  0  0  0  0  0  0  0
    3.2786  -19.4874   23.0044 N   0  0  0  0  0  0  0  0  0  0  0  0
    8.0364  -15.5534   23.2036 C   0  0  0  0  0  0  0  0  0  0  0  0
    9.2617  -15.3840   23.4434 O   0  0  0  0  0  0  0  0  0  0  0  0
    7.1116  -14.9639   24.1018 N   0  0  0  0  0  0  0  0  0  0  0  0
    7.5446  -14.2249   25.2832 C   0  0  1  0  0  0  0  0  0  0  0  0
    6.4240  -13.3651   25.8257 C   0  0  0  0  0  0  0  0  0  0  0  0
    6.8985  -12.5535   27.3642 S   0  0  0  0  0  0  0  0  0  0  0  0
    7.9499  -15.1814   26.3154 C   0  0  0  0  0  0  0  0  0  0  0  0
    8.8320  -14.7506   27.3113 O   0  0  0  0  0  0  0  0  0  0  0  0
    7.5575  -16.3749   26.3712 O   0  0  0  0  0  0  0  0  0  0  0  0
  2  1  1  6
  2  4  1  0
  3  2  1  0
  4  6  1  0
  4  5  1  1
  6  8  1  0
  7  6  2  0
  8  9  1  0
  9 10  1  1
 10 11  1  0
 11 12  1  0
 12 13  1  0
 13 14  1  0
 15 17  1  0
 15  9  1  0
 16 15  2  0
 18 17  1  0
 18 19  1  1
 19 20  1  0
 21 18  1  0
 22 21  1  0
 23 21  2  0
M  END
$$$$
