TKC.pdb
     RDKit          3D

 23 22  0  0  1  0  0  0  0  0999 V2000
    6.9635  -15.1420   17.6974 C   0  0  0  0  0  0  0  0  0  0  0  0
    7.7095  -15.1174   19.0030 C   0  0  1  0  0  0  0  0  0  0  0  0
    9.0829  -15.3769   18.8111 O   0  0  0  0  0  0  0  0  0  0  0  0
    7.6356  -13.7715   19.6945 C   0  0  2  0  0  0  0  0  0  0  0  0
    8.1098  -12.7046   18.8373 N   0  0  0  0  0  0  0  0  0  0  0  0
    8.3264  -13.7974   21.0113 C   0  0  0  0  0  0  0  0  0  0  0  0
    9.5026  -13.4099   21.0557 O   0  0  0  0  0  0  0  0  0  0  0  0
    7.6613  -14.2498   22.1737 N   0  0  0  0  0  0  0  0  0  0  0  0
    8.3586  -14.3244   23.4889 C   0  0  1  0  0  0  0  0  0  0  0  0
    7.2870  -14.1742   24.5131 C   0  0  0  0  0  0  0  0  0  0  0  0
    7.2110  -12.8927   25.2514 C   0  0  0  0  0  0  0  0  0  0  0  0
    6.1310  -12.8358   26.2887 C   0  0  0  0  0  0  0  0  0  0  0  0
    6.1668  -11.4935   26.9980 C   0  0  0  0  0  0  0  0  0  0  0  0
    5.1756  -11.4495   28.0450 N   0  0  0  0  0  0  0  0  0  0  0  0
    9.0783  -15.6069   23.4847 C   0  0  0  0  0  0  0  0  0  0  0  0
    8.5357  -16.6044   22.9386 O   0  0  0  0  0  0  0  0  0  0  0  0
   10.3599  -15.7988   24.0593 N   0  0  0  0  0  0  0  0  0  0  0  0
   11.0116  -17.1043   24.0779 C   0  0  1  0  0  0  0  0  0  0  0  0
   12.4770  -16.9838   23.7212 C   0  0  0  0  0  0  0  0  0  0  0  0
   13.3371  -18.5563   23.9176 S   0  0  0  0  0  0  0  0  0  0  0  0
   10.8968  -17.6695   25.4240 C   0  0  0  0  0  0  0  0  0  0  0  0
   11.2544  -19.0077   25.6157 O   0  0  0  0  0  0  0  0  0  0  0  0
   10.4956  -17.0312   26.4305 O   0  0  0  0  0  0  0  0  0  0  0  0
  2  1  1  6
  2  4  1  0
  3  2  1  0
  4  6  1  0
  4  5  1  6
  6  8  1  0
  7  6  2  0
  8  9  1  0
  9 10  1  1
 10 11  1  0
 11 12  1  0
 12 13  1  0
 13 14  1  0
 15 17  1  0
 15  9  1  0
 16 15  2  0
 18 17  1  0
 18 19  1  1
 19 20  1  0
 21 18  1  0
 22 21  1  0
 23 21  2  0
M  END
$$$$
