TKC.pdb
     RDKit          3D

 23 22  0  0  1  0  0  0  0  0999 V2000
   10.6450  -13.7427   20.8717 C   0  0  0  0  0  0  0  0  0  0  0  0
    9.6578  -13.0972   19.9388 C   0  0  1  0  0  0  0  0  0  0  0  0
   10.2389  -12.8391   18.6795 O   0  0  0  0  0  0  0  0  0  0  0  0
    8.4512  -13.9718   19.6661 C   0  0  2  0  0  0  0  0  0  0  0  0
    7.5392  -13.3461   18.7309 N   0  0  0  0  0  0  0  0  0  0  0  0
    7.7821  -14.3852   20.9282 C   0  0  0  0  0  0  0  0  0  0  0  0
    7.0495  -13.5601   21.4921 O   0  0  0  0  0  0  0  0  0  0  0  0
    7.9766  -15.6779   21.4660 N   0  0  0  0  0  0  0  0  0  0  0  0
    7.2947  -16.1091   22.7192 C   0  0  1  0  0  0  0  0  0  0  0  0
    7.3163  -17.5987   22.6881 C   0  0  0  0  0  0  0  0  0  0  0  0
    6.8580  -18.3221   23.8962 C   0  0  0  0  0  0  0  0  0  0  0  0
    6.7774  -19.8099   23.7369 C   0  0  0  0  0  0  0  0  0  0  0  0
    6.3583  -20.4478   25.0498 C   0  0  0  0  0  0  0  0  0  0  0  0
    6.2999  -21.8829   24.9175 N   0  0  0  0  0  0  0  0  0  0  0  0
    8.0386  -15.4713   23.8159 C   0  0  0  0  0  0  0  0  0  0  0  0
    9.2945  -15.4056   23.7383 O   0  0  0  0  0  0  0  0  0  0  0  0
    7.4296  -14.9157   24.9691 N   0  0  0  0  0  0  0  0  0  0  0  0
    8.2099  -14.2792   26.0252 C   0  0  1  0  0  0  0  0  0  0  0  0
    7.3217  -13.4631   26.9387 C   0  0  0  0  0  0  0  0  0  0  0  0
    6.6753  -12.0030   26.1013 S   0  0  0  0  0  0  0  0  0  0  0  0
    8.8722  -15.3198   26.8145 C   0  0  0  0  0  0  0  0  0  0  0  0
    9.7327  -14.9265   27.8443 O   0  0  0  0  0  0  0  0  0  0  0  0
    8.7212  -16.5547   26.6310 O   0  0  0  0  0  0  0  0  0  0  0  0
  2  1  1  1
  2  4  1  0
  3  2  1  0
  4  6  1  0
  4  5  1  6
  6  8  1  0
  7  6  2  0
  8  9  1  0
  9 10  1  1
 10 11  1  0
 11 12  1  0
 12 13  1  0
 13 14  1  0
 15 17  1  0
 15  9  1  0
 16 15  2  0
 18 17  1  0
 18 19  1  1
 19 20  1  0
 21 18  1  0
 22 21  1  0
 23 21  2  0
M  END
$$$$
