TKC.pdb
     RDKit          3D

 23 22  0  0  1  0  0  0  0  0999 V2000
    9.4334  -14.8377   19.1480 C   0  0  0  0  0  0  0  0  0  0  0  0
    8.9312  -14.8480   20.5655 C   0  0  1  0  0  0  0  0  0  0  0  0
    8.9694  -13.5556   21.1300 O   0  0  0  0  0  0  0  0  0  0  0  0
    7.4905  -15.3039   20.6731 C   0  0  2  0  0  0  0  0  0  0  0  0
    6.6052  -14.4626   19.8944 N   0  0  0  0  0  0  0  0  0  0  0  0
    7.0627  -15.4257   22.0922 C   0  0  0  0  0  0  0  0  0  0  0  0
    6.2923  -14.5648   22.5405 O   0  0  0  0  0  0  0  0  0  0  0  0
    7.5209  -16.4897   22.9021 N   0  0  0  0  0  0  0  0  0  0  0  0
    7.0820  -16.6326   24.3193 C   0  0  1  0  0  0  0  0  0  0  0  0
    7.2698  -18.0739   24.6475 C   0  0  0  0  0  0  0  0  0  0  0  0
    7.0863  -18.4917   26.0563 C   0  0  0  0  0  0  0  0  0  0  0  0
    7.1752  -19.9703   26.2829 C   0  0  0  0  0  0  0  0  0  0  0  0
    7.0480  -20.2739   27.7654 C   0  0  0  0  0  0  0  0  0  0  0  0
    8.3014  -20.0359   28.4385 N   0  0  0  0  0  0  0  0  0  0  0  0
    7.8987  -15.6799   25.0861 C   0  0  0  0  0  0  0  0  0  0  0  0
    9.1251  -15.5780   24.8154 O   0  0  0  0  0  0  0  0  0  0  0  0
    7.3919  -14.8551   26.1218 N   0  0  0  0  0  0  0  0  0  0  0  0
    8.2312  -13.8870   26.8201 C   0  0  1  0  0  0  0  0  0  0  0  0
    7.3875  -12.8811   27.5722 C   0  0  0  0  0  0  0  0  0  0  0  0
    6.2116  -12.0570   26.4817 S   0  0  0  0  0  0  0  0  0  0  0  0
    9.0803  -14.6015   27.7756 C   0  0  0  0  0  0  0  0  0  0  0  0
   10.0111  -13.8666   28.5167 O   0  0  0  0  0  0  0  0  0  0  0  0
    9.0322  -15.8414   27.9797 O   0  0  0  0  0  0  0  0  0  0  0  0
  2  1  1  6
  2  4  1  0
  3  2  1  0
  4  6  1  0
  4  5  1  6
  6  8  1  0
  7  6  2  0
  8  9  1  0
  9 10  1  1
 10 11  1  0
 11 12  1  0
 12 13  1  0
 13 14  1  0
 15 17  1  0
 15  9  1  0
 16 15  2  0
 18 17  1  0
 18 19  1  1
 19 20  1  0
 21 18  1  0
 22 21  1  0
 23 21  2  0
M  END
$$$$
