TKC.pdb
     RDKit          3D

 23 22  0  0  1  0  0  0  0  0999 V2000
    9.5688  -12.7707   20.7015 C   0  0  0  0  0  0  0  0  0  0  0  0
    8.7235  -13.0826   19.4975 C   0  0  1  0  0  0  0  0  0  0  0  0
    9.4500  -12.8985   18.3022 O   0  0  0  0  0  0  0  0  0  0  0  0
    8.2456  -14.5200   19.4737 C   0  0  2  0  0  0  0  0  0  0  0  0
    7.4604  -14.8016   18.2896 N   0  0  0  0  0  0  0  0  0  0  0  0
    7.5349  -14.8782   20.7300 C   0  0  0  0  0  0  0  0  0  0  0  0
    6.3493  -14.5358   20.8422 O   0  0  0  0  0  0  0  0  0  0  0  0
    8.1921  -15.5863   21.7619 N   0  0  0  0  0  0  0  0  0  0  0  0
    7.4811  -15.9750   23.0129 C   0  0  1  0  0  0  0  0  0  0  0  0
    7.6425  -17.4526   23.1161 C   0  0  0  0  0  0  0  0  0  0  0  0
    7.1848  -18.1128   24.3602 C   0  0  0  0  0  0  0  0  0  0  0  0
    7.4427  -19.5880   24.4123 C   0  0  0  0  0  0  0  0  0  0  0  0
    6.8535  -20.1703   25.6851 C   0  0  0  0  0  0  0  0  0  0  0  0
    6.9948  -21.6058   25.6957 N   0  0  0  0  0  0  0  0  0  0  0  0
    8.0973  -15.1776   24.0840 C   0  0  0  0  0  0  0  0  0  0  0  0
    9.3533  -15.0867   24.1256 O   0  0  0  0  0  0  0  0  0  0  0  0
    7.3634  -14.4930   25.0852 N   0  0  0  0  0  0  0  0  0  0  0  0
    8.0217  -13.7484   26.1536 C   0  0  1  0  0  0  0  0  0  0  0  0
    7.0468  -12.8251   26.8511 C   0  0  0  0  0  0  0  0  0  0  0  0
    6.3187  -11.6418   25.7019 S   0  0  0  0  0  0  0  0  0  0  0  0
    8.5556  -14.6991   27.1312 C   0  0  0  0  0  0  0  0  0  0  0  0
    9.3008  -14.2008   28.2045 O   0  0  0  0  0  0  0  0  0  0  0  0
    8.3905  -15.9444   27.0743 O   0  0  0  0  0  0  0  0  0  0  0  0
  2  1  1  1
  2  4  1  0
  3  2  1  0
  4  6  1  0
  4  5  1  6
  6  8  1  0
  7  6  2  0
  8  9  1  0
  9 10  1  1
 10 11  1  0
 11 12  1  0
 12 13  1  0
 13 14  1  0
 15 17  1  0
 15  9  1  0
 16 15  2  0
 18 17  1  0
 18 19  1  1
 19 20  1  0
 21 18  1  0
 22 21  1  0
 23 21  2  0
M  END
$$$$
