TKC.pdb
     RDKit          3D

 23 22  0  0  1  0  0  0  0  0999 V2000
    9.2947  -14.4216   18.7961 C   0  0  0  0  0  0  0  0  0  0  0  0
    8.8974  -14.4574   20.2460 C   0  0  1  0  0  0  0  0  0  0  0  0
    8.8461  -13.1581   20.7935 O   0  0  0  0  0  0  0  0  0  0  0  0
    7.5206  -15.0516   20.4616 C   0  0  2  0  0  0  0  0  0  0  0  0
    6.5054  -14.3263   19.7259 N   0  0  0  0  0  0  0  0  0  0  0  0
    7.2009  -15.1736   21.9088 C   0  0  0  0  0  0  0  0  0  0  0  0
    6.4749  -14.3071   22.4164 O   0  0  0  0  0  0  0  0  0  0  0  0
    7.7096  -16.2441   22.6792 N   0  0  0  0  0  0  0  0  0  0  0  0
    7.3279  -16.4231   24.1088 C   0  0  1  0  0  0  0  0  0  0  0  0
    7.5081  -17.8758   24.3868 C   0  0  0  0  0  0  0  0  0  0  0  0
    6.5333  -18.8194   23.7931 C   0  0  0  0  0  0  0  0  0  0  0  0
    6.7492  -20.2541   24.1679 C   0  0  0  0  0  0  0  0  0  0  0  0
    5.6469  -21.1141   23.5750 C   0  0  0  0  0  0  0  0  0  0  0  0
    5.8188  -22.4928   23.9626 N   0  0  0  0  0  0  0  0  0  0  0  0
    8.1897  -15.5046   24.8681 C   0  0  0  0  0  0  0  0  0  0  0  0
    9.3881  -15.3602   24.5067 O   0  0  0  0  0  0  0  0  0  0  0  0
    7.7565  -14.7585   25.9929 N   0  0  0  0  0  0  0  0  0  0  0  0
    8.6523  -13.8651   26.7201 C   0  0  1  0  0  0  0  0  0  0  0  0
    7.9397  -12.5926   27.1225 C   0  0  0  0  0  0  0  0  0  0  0  0
    6.3189  -12.9383   27.8328 S   0  0  0  0  0  0  0  0  0  0  0  0
    9.1208  -14.5478   27.9280 C   0  0  0  0  0  0  0  0  0  0  0  0
   10.1040  -13.9259   28.7040 O   0  0  0  0  0  0  0  0  0  0  0  0
    8.6980  -15.6648   28.3217 O   0  0  0  0  0  0  0  0  0  0  0  0
  2  1  1  6
  2  4  1  0
  3  2  1  0
  4  6  1  0
  4  5  1  6
  6  8  1  0
  7  6  2  0
  8  9  1  0
  9 10  1  1
 10 11  1  0
 11 12  1  0
 12 13  1  0
 13 14  1  0
 15 17  1  0
 15  9  1  0
 16 15  2  0
 18 17  1  0
 18 19  1  1
 19 20  1  0
 21 18  1  0
 22 21  1  0
 23 21  2  0
M  END
$$$$
