TKC.pdb
     RDKit          3D

 23 22  0  0  1  0  0  0  0  0999 V2000
   14.2401  -20.7838   13.8291 C   0  0  0  0  0  0  0  0  0  0  0  0
   14.0195  -19.3523   14.2337 C   0  0  1  0  0  0  0  0  0  0  0  0
   14.3240  -18.4701   13.1756 O   0  0  0  0  0  0  0  0  0  0  0  0
   12.5805  -19.0651   14.6105 C   0  0  2  0  0  0  0  0  0  0  0  0
   12.0226  -17.9953   13.8092 N   0  0  0  0  0  0  0  0  0  0  0  0
   12.4386  -18.8204   16.0704 C   0  0  0  0  0  0  0  0  0  0  0  0
   12.7559  -17.7036   16.5037 O   0  0  0  0  0  0  0  0  0  0  0  0
   11.9572  -19.8300   16.9347 N   0  0  0  0  0  0  0  0  0  0  0  0
   11.9661  -19.6556   18.4149 C   0  0  1  0  0  0  0  0  0  0  0  0
   10.8429  -20.4953   18.9183 C   0  0  0  0  0  0  0  0  0  0  0  0
   10.6458  -20.5800   20.3836 C   0  0  0  0  0  0  0  0  0  0  0  0
    9.4519  -21.3815   20.8051 C   0  0  0  0  0  0  0  0  0  0  0  0
    9.3416  -21.3856   22.3197 C   0  0  0  0  0  0  0  0  0  0  0  0
    8.1109  -22.0135   22.7342 N   0  0  0  0  0  0  0  0  0  0  0  0
   13.3151  -20.0447   18.8526 C   0  0  0  0  0  0  0  0  0  0  0  0
   13.8664  -21.0376   18.3066 O   0  0  0  0  0  0  0  0  0  0  0  0
   14.0483  -19.3675   19.8592 N   0  0  0  0  0  0  0  0  0  0  0  0
   15.4187  -19.7365   20.1986 C   0  0  1  0  0  0  0  0  0  0  0  0
   16.2711  -18.5070   20.4243 C   0  0  0  0  0  0  0  0  0  0  0  0
   16.4419  -17.5344   18.9156 S   0  0  0  0  0  0  0  0  0  0  0  0
   15.4020  -20.5332   21.4271 C   0  0  0  0  0  0  0  0  0  0  0  0
   14.1971  -20.6504   22.1271 O   0  0  0  0  0  0  0  0  0  0  0  0
   16.4040  -21.1258   21.9030 O   0  0  0  0  0  0  0  0  0  0  0  0
  2  1  1  6
  2  4  1  0
  3  2  1  0
  4  6  1  0
  4  5  1  6
  6  8  1  0
  7  6  2  0
  8  9  1  0
  9 10  1  1
 10 11  1  0
 11 12  1  0
 12 13  1  0
 13 14  1  0
 15 17  1  0
 15  9  1  0
 16 15  2  0
 18 17  1  0
 18 19  1  1
 19 20  1  0
 21 18  1  0
 22 21  1  0
 23 21  2  0
M  END
$$$$
