TKC.pdb
     RDKit          3D

 23 22  0  0  1  0  0  0  0  0999 V2000
   10.3458  -13.8642   18.1079 C   0  0  0  0  0  0  0  0  0  0  0  0
    9.7237  -14.2531   19.4206 C   0  0  1  0  0  0  0  0  0  0  0  0
   10.2205  -13.4594   20.4759 O   0  0  0  0  0  0  0  0  0  0  0  0
    8.2204  -14.0659   19.4346 C   0  0  2  0  0  0  0  0  0  0  0  0
    7.8487  -12.7079   19.0944 N   0  0  0  0  0  0  0  0  0  0  0  0
    7.6278  -14.5158   20.7223 C   0  0  0  0  0  0  0  0  0  0  0  0
    7.1877  -13.6493   21.4911 O   0  0  0  0  0  0  0  0  0  0  0  0
    7.5694  -15.8879   21.0570 N   0  0  0  0  0  0  0  0  0  0  0  0
    6.9583  -16.3508   22.3352 C   0  0  1  0  0  0  0  0  0  0  0  0
    6.8197  -17.8277   22.1946 C   0  0  0  0  0  0  0  0  0  0  0  0
    6.3972  -18.5990   23.3860 C   0  0  0  0  0  0  0  0  0  0  0  0
    6.4070  -20.0859   23.1998 C   0  0  0  0  0  0  0  0  0  0  0  0
    5.8426  -20.7646   24.4355 C   0  0  0  0  0  0  0  0  0  0  0  0
    5.8094  -22.1952   24.2546 N   0  0  0  0  0  0  0  0  0  0  0  0
    7.8587  -15.8811   23.3990 C   0  0  0  0  0  0  0  0  0  0  0  0
    9.1030  -15.9418   23.2102 O   0  0  0  0  0  0  0  0  0  0  0  0
    7.4151  -15.3552   24.6384 N   0  0  0  0  0  0  0  0  0  0  0  0
    8.3480  -14.8877   25.6585 C   0  0  1  0  0  0  0  0  0  0  0  0
    7.6558  -13.9789   26.6505 C   0  0  0  0  0  0  0  0  0  0  0  0
    8.8287  -13.2488   27.8090 S   0  0  0  0  0  0  0  0  0  0  0  0
    8.8850  -16.0475   26.3733 C   0  0  0  0  0  0  0  0  0  0  0  0
   10.2079  -15.9966   26.8237 O   0  0  0  0  0  0  0  0  0  0  0  0
    8.2352  -17.0969   26.6139 O   0  0  0  0  0  0  0  0  0  0  0  0
  2  1  1  6
  2  4  1  0
  3  2  1  0
  4  6  1  0
  4  5  1  1
  6  8  1  0
  7  6  2  0
  8  9  1  0
  9 10  1  6
 10 11  1  0
 11 12  1  0
 12 13  1  0
 13 14  1  0
 15 17  1  0
 15  9  1  0
 16 15  2  0
 18 17  1  0
 18 19  1  1
 19 20  1  0
 21 18  1  0
 22 21  1  0
 23 21  2  0
M  END
$$$$
