TKC.pdb
     RDKit          3D

 23 22  0  0  1  0  0  0  0  0999 V2000
    9.8564  -13.8766   18.1478 C   0  0  0  0  0  0  0  0  0  0  0  0
    9.5062  -14.2804   19.5535 C   0  0  1  0  0  0  0  0  0  0  0  0
   10.2823  -13.5735   20.4960 O   0  0  0  0  0  0  0  0  0  0  0  0
    8.0618  -13.9877   19.9043 C   0  0  2  0  0  0  0  0  0  0  0  0
    7.7377  -12.5898   19.7076 N   0  0  0  0  0  0  0  0  0  0  0  0
    7.7261  -14.4659   21.2719 C   0  0  0  0  0  0  0  0  0  0  0  0
    7.5998  -13.6182   22.1668 O   0  0  0  0  0  0  0  0  0  0  0  0
    7.5570  -15.8434   21.5406 N   0  0  0  0  0  0  0  0  0  0  0  0
    7.2914  -16.3392   22.9209 C   0  0  1  0  0  0  0  0  0  0  0  0
    6.9273  -17.7752   22.7615 C   0  0  0  0  0  0  0  0  0  0  0  0
    6.6597  -18.5609   23.9879 C   0  0  0  0  0  0  0  0  0  0  0  0
    6.4841  -20.0312   23.7584 C   0  0  0  0  0  0  0  0  0  0  0  0
    6.0925  -20.7133   25.0575 C   0  0  0  0  0  0  0  0  0  0  0  0
    6.0112  -22.1415   24.8729 N   0  0  0  0  0  0  0  0  0  0  0  0
    8.5163  -16.0605   23.6857 C   0  0  0  0  0  0  0  0  0  0  0  0
    9.4739  -15.4820   23.1062 O   0  0  0  0  0  0  0  0  0  0  0  0
    8.6938  -16.4013   25.0502 N   0  0  0  0  0  0  0  0  0  0  0  0
    9.1724  -15.4346   26.0329 C   0  0  1  0  0  0  0  0  0  0  0  0
    8.1596  -14.3308   26.2453 C   0  0  0  0  0  0  0  0  0  0  0  0
    8.6770  -13.2006   27.5514 S   0  0  0  0  0  0  0  0  0  0  0  0
    9.3937  -16.1254   27.3050 C   0  0  0  0  0  0  0  0  0  0  0  0
   10.2767  -15.5543   28.2267 O   0  0  0  0  0  0  0  0  0  0  0  0
    8.8410  -17.2068   27.6315 O   0  0  0  0  0  0  0  0  0  0  0  0
  2  1  1  6
  2  4  1  0
  3  2  1  0
  4  6  1  0
  4  5  1  1
  6  8  1  0
  7  6  2  0
  8  9  1  0
  9 10  1  6
 10 11  1  0
 11 12  1  0
 12 13  1  0
 13 14  1  0
 15 17  1  0
 15  9  1  0
 16 15  2  0
 18 17  1  0
 18 19  1  1
 19 20  1  0
 21 18  1  0
 22 21  1  0
 23 21  2  0
M  END
$$$$
