FVW.pdb
     RDKit          3D

 33 35  0  0  1  0  0  0  0  0999 V2000
   28.5287  -27.7918  -16.1141 N   0  0  0  0  0  0  0  0  0  0  0  0
   27.7440  -26.9829  -17.0543 C   0  0  1  0  0  0  0  0  0  0  0  0
   26.3424  -27.4934  -17.0724 C   0  0  0  0  0  0  0  0  0  0  0  0
   26.2211  -28.5689  -18.0899 C   0  0  0  0  0  0  0  0  0  0  0  0
   26.1721  -29.8871  -17.6899 C   0  0  0  0  0  0  0  0  0  0  0  0
   26.0486  -30.8814  -18.6263 C   0  0  0  0  0  0  0  0  0  0  0  0
   25.9706  -30.6085  -19.9700 C   0  0  0  0  0  0  0  0  0  0  0  0
   26.0218  -29.2765  -20.3481 C   0  0  0  0  0  0  0  0  0  0  0  0
   26.1452  -28.2621  -19.4285 C   0  0  0  0  0  0  0  0  0  0  0  0
   27.8912  -25.5672  -16.6497 C   0  0  0  0  0  0  0  0  0  0  0  0
   28.0262  -25.2146  -15.4455 O   0  0  0  0  0  0  0  0  0  0  0  0
   30.4000  -23.1753  -16.9137 C   0  0  0  0  0  0  0  0  0  0  0  0
   29.2744  -22.4844  -17.6539 C   0  0  2  0  0  0  0  0  0  0  0  0
   29.2760  -21.0136  -17.2284 C   0  0  0  0  0  0  0  0  0  0  0  0
   27.9809  -23.1082  -17.2557 C   0  0  2  0  0  0  0  0  0  0  0  0
   27.8897  -24.5060  -17.5991 N   0  0  0  0  0  0  0  0  0  0  0  0
   26.7827  -22.4143  -17.7045 C   0  0  0  0  0  0  0  0  0  0  0  0
   25.9639  -23.0378  -18.4315 O   0  0  0  0  0  0  0  0  0  0  0  0
   26.4808  -21.0534  -17.3635 N   0  0  0  0  0  0  0  0  0  0  0  0
   25.2190  -20.5116  -17.7909 C   0  0  1  0  0  0  0  0  0  0  0  0
   24.0476  -21.2675  -17.2061 C   0  0  0  0  0  0  0  0  0  0  0  0
   24.0144  -21.0503  -15.7457 C   0  0  0  0  0  0  0  0  0  0  0  0
   23.6594  -19.8904  -15.0920 C   0  0  0  0  0  0  0  0  0  0  0  0
   23.7611  -20.0824  -13.7459 N   0  0  0  0  0  0  0  0  0  0  0  0
   24.1751  -21.3448  -13.5197 C   0  0  0  0  0  0  0  0  0  0  0  0
   24.4195  -21.9882  -12.3283 C   0  0  0  0  0  0  0  0  0  0  0  0
   24.8441  -23.3013  -12.3640 C   0  0  0  0  0  0  0  0  0  0  0  0
   25.0126  -23.9352  -13.5882 C   0  0  0  0  0  0  0  0  0  0  0  0
   24.7626  -23.2732  -14.7602 C   0  0  0  0  0  0  0  0  0  0  0  0
   24.3368  -21.9591  -14.7578 C   0  0  0  0  0  0  0  0  0  0  0  0
   25.1633  -19.0598  -17.4241 C   0  0  0  0  0  0  0  0  0  0  0  0
   26.0653  -18.5988  -16.6951 O   0  0  0  0  0  0  0  0  0  0  0  0
   24.1332  -18.2317  -17.8804 O   0  0  0  0  0  0  0  0  0  0  0  0
  2  3  1  0
  2  1  1  1
  4  3  1  0
  5  4  2  0
  6  5  1  0
  7  6  2  0
  7  8  1  0
  8  9  2  0
  9  4  1  0
 10 16  1  0
 10  2  1  0
 11 10  2  0
 13 14  1  1
 13 12  1  0
 15 13  1  0
 15 16  1  6
 17 15  1  0
 17 18  2  0
 19 17  1  0
 20 21  1  1
 20 19  1  0
 22 21  1  0
 22 30  1  0
 23 22  2  0
 24 23  1  0
 24 25  1  0
 25 26  1  0
 25 30  2  0
 26 27  2  0
 27 28  1  0
 29 28  2  0
 30 29  1  0
 31 20  1  0
 31 33  1  0
 32 31  2  0
M  END
$$$$
