FVW.pdb
     RDKit          3D

 33 35  0  0  1  0  0  0  0  0999 V2000
   26.6955  -17.7100  -16.1031 N   0  0  0  0  0  0  0  0  0  0  0  0
   27.1545  -18.7569  -15.1826 C   0  0  1  0  0  0  0  0  0  0  0  0
   28.6147  -18.5744  -14.9385 C   0  0  0  0  0  0  0  0  0  0  0  0
   29.3714  -18.9556  -16.1586 C   0  0  0  0  0  0  0  0  0  0  0  0
   30.0149  -17.9849  -16.8961 C   0  0  0  0  0  0  0  0  0  0  0  0
   30.7236  -18.3355  -18.0165 C   0  0  0  0  0  0  0  0  0  0  0  0
   30.8179  -19.6390  -18.4386 C   0  0  0  0  0  0  0  0  0  0  0  0
   30.1631  -20.5970  -17.6815 C   0  0  0  0  0  0  0  0  0  0  0  0
   29.4465  -20.2707  -16.5546 C   0  0  0  0  0  0  0  0  0  0  0  0
   26.3027  -18.6881  -13.9745 C   0  0  0  0  0  0  0  0  0  0  0  0
   25.4578  -17.7690  -13.7896 O   0  0  0  0  0  0  0  0  0  0  0  0
   23.5336  -19.0407  -13.4027 C   0  0  0  0  0  0  0  0  0  0  0  0
   24.0238  -20.2620  -12.6540 C   0  0  2  0  0  0  0  0  0  0  0  0
   22.9861  -20.5913  -11.5775 C   0  0  0  0  0  0  0  0  0  0  0  0
   25.3226  -19.9373  -11.9995 C   0  0  2  0  0  0  0  0  0  0  0  0
   26.3828  -19.6602  -12.9372 N   0  0  0  0  0  0  0  0  0  0  0  0
   25.7847  -20.8966  -11.0071 C   0  0  0  0  0  0  0  0  0  0  0  0
   25.9890  -22.0858  -11.3704 O   0  0  0  0  0  0  0  0  0  0  0  0
   26.0215  -20.5619   -9.6319 N   0  0  0  0  0  0  0  0  0  0  0  0
   26.3201  -21.6299   -8.7161 C   0  0  1  0  0  0  0  0  0  0  0  0
   27.7168  -21.5190   -8.1482 C   0  0  0  0  0  0  0  0  0  0  0  0
   27.7772  -20.3553   -7.2409 C   0  0  0  0  0  0  0  0  0  0  0  0
   27.1938  -19.1229   -7.4399 C   0  0  0  0  0  0  0  0  0  0  0  0
   27.4811  -18.3121   -6.3821 N   0  0  0  0  0  0  0  0  0  0  0  0
   28.2390  -18.9990   -5.5047 C   0  0  0  0  0  0  0  0  0  0  0  0
   28.7681  -18.5979   -4.2995 C   0  0  0  0  0  0  0  0  0  0  0  0
   29.5228  -19.5013   -3.5783 C   0  0  0  0  0  0  0  0  0  0  0  0
   29.7279  -20.7798   -4.0806 C   0  0  0  0  0  0  0  0  0  0  0  0
   29.1905  -21.1548   -5.2825 C   0  0  0  0  0  0  0  0  0  0  0  0
   28.4310  -20.2741   -6.0278 C   0  0  0  0  0  0  0  0  0  0  0  0
   25.2921  -21.6382   -7.6260 C   0  0  0  0  0  0  0  0  0  0  0  0
   24.3847  -20.7820   -7.6621 O   0  0  0  0  0  0  0  0  0  0  0  0
   25.3362  -22.5756   -6.5895 O   0  0  0  0  0  0  0  0  0  0  0  0
  2  3  1  0
  2  1  1  6
  4  3  1  0
  5  4  2  0
  6  5  1  0
  7  6  2  0
  7  8  1  0
  8  9  2  0
  9  4  1  0
 10 16  1  0
 10  2  1  0
 11 10  2  0
 13 14  1  1
 13 12  1  0
 15 13  1  0
 15 16  1  6
 17 15  1  0
 17 18  2  0
 19 17  1  0
 20 21  1  1
 20 19  1  0
 22 21  1  0
 22 30  1  0
 23 22  2  0
 24 23  1  0
 24 25  1  0
 25 26  1  0
 25 30  2  0
 26 27  2  0
 27 28  1  0
 29 28  2  0
 30 29  1  0
 31 20  1  0
 31 33  1  0
 32 31  2  0
M  END
$$$$
