FVW.pdb
     RDKit          3D

 33 35  0  0  1  0  0  0  0  0999 V2000
   23.8903  -17.8141  -17.2625 N   0  0  0  0  0  0  0  0  0  0  0  0
   24.1634  -17.8133  -15.8205 C   0  0  1  0  0  0  0  0  0  0  0  0
   22.8719  -17.9555  -15.0877 C   0  0  0  0  0  0  0  0  0  0  0  0
   22.0268  -16.7599  -15.3387 C   0  0  0  0  0  0  0  0  0  0  0  0
   22.5061  -15.5054  -15.0275 C   0  0  0  0  0  0  0  0  0  0  0  0
   21.7326  -14.3990  -15.2688 C   0  0  0  0  0  0  0  0  0  0  0  0
   20.4775  -14.4954  -15.8179 C   0  0  0  0  0  0  0  0  0  0  0  0
   20.0171  -15.7663  -16.1223 C   0  0  0  0  0  0  0  0  0  0  0  0
   20.7735  -16.8905  -15.8900 C   0  0  0  0  0  0  0  0  0  0  0  0
   25.1551  -18.8796  -15.5575 C   0  0  0  0  0  0  0  0  0  0  0  0
   25.1228  -19.9975  -16.1424 O   0  0  0  0  0  0  0  0  0  0  0  0
   29.1165  -18.3554  -14.8995 C   0  0  0  0  0  0  0  0  0  0  0  0
   28.4771  -19.1790  -13.8017 C   0  0  2  0  0  0  0  0  0  0  0  0
   29.4264  -20.3363  -13.4799 C   0  0  0  0  0  0  0  0  0  0  0  0
   27.1856  -19.7293  -14.3018 C   0  0  2  0  0  0  0  0  0  0  0  0
   26.2151  -18.7115  -14.6218 N   0  0  0  0  0  0  0  0  0  0  0  0
   26.5691  -20.7480  -13.4647 C   0  0  0  0  0  0  0  0  0  0  0  0
   26.7210  -21.9584  -13.7808 O   0  0  0  0  0  0  0  0  0  0  0  0
   25.7944  -20.4493  -12.2942 N   0  0  0  0  0  0  0  0  0  0  0  0
   25.0876  -21.5270  -11.6560 C   0  0  1  0  0  0  0  0  0  0  0  0
   25.8715  -22.1208  -10.5077 C   0  0  0  0  0  0  0  0  0  0  0  0
   26.2039  -21.0501   -9.5464 C   0  0  0  0  0  0  0  0  0  0  0  0
   25.4576  -19.9238   -9.2755 C   0  0  0  0  0  0  0  0  0  0  0  0
   26.0991  -19.1737   -8.3348 N   0  0  0  0  0  0  0  0  0  0  0  0
   27.2451  -19.7955   -7.9942 C   0  0  0  0  0  0  0  0  0  0  0  0
   28.2136  -19.4189   -7.0924 C   0  0  0  0  0  0  0  0  0  0  0  0
   29.3106  -20.2397   -6.9229 C   0  0  0  0  0  0  0  0  0  0  0  0
   29.4096  -21.4136   -7.6585 C   0  0  0  0  0  0  0  0  0  0  0  0
   28.4322  -21.7664   -8.5498 C   0  0  0  0  0  0  0  0  0  0  0  0
   27.3227  -20.9664   -8.7421 C   0  0  0  0  0  0  0  0  0  0  0  0
   23.7508  -21.0286  -11.1978 C   0  0  0  0  0  0  0  0  0  0  0  0
   23.5141  -19.8063  -11.2835 O   0  0  0  0  0  0  0  0  0  0  0  0
   22.7844  -21.8999  -10.6859 O   0  0  0  0  0  0  0  0  0  0  0  0
  2  3  1  0
  2  1  1  6
  4  3  1  0
  5  4  2  0
  6  5  1  0
  7  6  2  0
  7  8  1  0
  8  9  2  0
  9  4  1  0
 10 16  1  0
 10  2  1  0
 11 10  2  0
 13 14  1  6
 13 12  1  0
 15 13  1  0
 15 16  1  1
 17 15  1  0
 17 18  2  0
 19 17  1  0
 20 21  1  1
 20 19  1  0
 22 21  1  0
 22 30  1  0
 23 22  2  0
 24 23  1  0
 24 25  1  0
 25 26  1  0
 25 30  2  0
 26 27  2  0
 27 28  1  0
 29 28  2  0
 30 29  1  0
 31 20  1  0
 31 33  1  0
 32 31  2  0
M  END
$$$$
