FVW.pdb
     RDKit          3D

 33 35  0  0  1  0  0  0  0  0999 V2000
   28.0871  -19.8055  -16.4050 N   0  0  0  0  0  0  0  0  0  0  0  0
   27.3309  -19.0435  -15.4042 C   0  0  1  0  0  0  0  0  0  0  0  0
   26.4524  -18.0656  -16.1093 C   0  0  0  0  0  0  0  0  0  0  0  0
   27.2846  -16.9758  -16.6807 C   0  0  0  0  0  0  0  0  0  0  0  0
   27.5871  -16.9790  -18.0256 C   0  0  0  0  0  0  0  0  0  0  0  0
   28.3456  -15.9682  -18.5579 C   0  0  0  0  0  0  0  0  0  0  0  0
   28.8232  -14.9355  -17.7887 C   0  0  0  0  0  0  0  0  0  0  0  0
   28.5063  -14.9535  -16.4400 C   0  0  0  0  0  0  0  0  0  0  0  0
   27.7477  -15.9555  -15.8829 C   0  0  0  0  0  0  0  0  0  0  0  0
   26.6223  -20.0200  -14.5475 C   0  0  0  0  0  0  0  0  0  0  0  0
   26.2938  -21.1688  -14.9540 O   0  0  0  0  0  0  0  0  0  0  0  0
   27.7762  -21.2911  -11.3095 C   0  0  0  0  0  0  0  0  0  0  0  0
   26.3652  -20.8273  -11.0156 C   0  0  2  0  0  0  0  0  0  0  0  0
   25.6830  -21.9195  -10.1874 C   0  0  0  0  0  0  0  0  0  0  0  0
   25.6343  -20.6606  -12.3036 C   0  0  2  0  0  0  0  0  0  0  0  0
   26.2633  -19.7238  -13.2018 N   0  0  0  0  0  0  0  0  0  0  0  0
   24.2166  -20.3515  -12.1875 C   0  0  0  0  0  0  0  0  0  0  0  0
   23.8794  -19.2887  -11.6003 O   0  0  0  0  0  0  0  0  0  0  0  0
   23.1771  -21.1936  -12.7068 N   0  0  0  0  0  0  0  0  0  0  0  0
   21.8148  -20.7560  -12.5621 C   0  0  1  0  0  0  0  0  0  0  0  0
   21.5670  -19.4305  -13.2457 C   0  0  0  0  0  0  0  0  0  0  0  0
   21.8324  -19.5765  -14.6911 C   0  0  0  0  0  0  0  0  0  0  0  0
   21.5185  -20.6603  -15.4820 C   0  0  0  0  0  0  0  0  0  0  0  0
   21.9293  -20.4198  -16.7597 N   0  0  0  0  0  0  0  0  0  0  0  0
   22.5022  -19.2010  -16.8072 C   0  0  0  0  0  0  0  0  0  0  0  0
   23.0613  -18.5348  -17.8733 C   0  0  0  0  0  0  0  0  0  0  0  0
   23.5923  -17.2785  -17.6597 C   0  0  0  0  0  0  0  0  0  0  0  0
   23.5499  -16.7226  -16.3877 C   0  0  0  0  0  0  0  0  0  0  0  0
   22.9878  -17.4058  -15.3429 C   0  0  0  0  0  0  0  0  0  0  0  0
   22.4484  -18.6644  -15.5244 C   0  0  0  0  0  0  0  0  0  0  0  0
   20.9029  -21.8184  -13.0957 C   0  0  0  0  0  0  0  0  0  0  0  0
   19.6709  -21.6454  -12.9960 O   0  0  0  0  0  0  0  0  0  0  0  0
   21.4060  -22.9784  -13.6929 O   0  0  0  0  0  0  0  0  0  0  0  0
  2  3  1  0
  2  1  1  6
  4  3  1  0
  5  4  2  0
  6  5  1  0
  7  6  2  0
  7  8  1  0
  8  9  2  0
  9  4  1  0
 10 16  1  0
 10  2  1  0
 11 10  2  0
 13 14  1  1
 13 12  1  0
 15 13  1  0
 15 16  1  1
 17 15  1  0
 17 18  2  0
 19 17  1  0
 20 21  1  6
 20 19  1  0
 22 21  1  0
 22 30  1  0
 23 22  2  0
 24 23  1  0
 24 25  1  0
 25 26  1  0
 25 30  2  0
 26 27  2  0
 27 28  1  0
 29 28  2  0
 30 29  1  0
 31 20  1  0
 31 33  1  0
 32 31  2  0
M  END
$$$$
