FVW.pdb
     RDKit          3D

 33 35  0  0  1  0  0  0  0  0999 V2000
   26.0972  -17.8925  -16.5884 N   0  0  0  0  0  0  0  0  0  0  0  0
   26.8511  -18.2065  -15.3690 C   0  0  1  0  0  0  0  0  0  0  0  0
   27.6343  -17.0026  -14.9660 C   0  0  0  0  0  0  0  0  0  0  0  0
   28.7335  -16.7791  -15.9399 C   0  0  0  0  0  0  0  0  0  0  0  0
   28.8020  -15.5900  -16.6337 C   0  0  0  0  0  0  0  0  0  0  0  0
   29.8221  -15.3765  -17.5250 C   0  0  0  0  0  0  0  0  0  0  0  0
   30.7944  -16.3185  -17.7561 C   0  0  0  0  0  0  0  0  0  0  0  0
   30.7049  -17.5056  -17.0471 C   0  0  0  0  0  0  0  0  0  0  0  0
   29.6921  -17.7432  -16.1484 C   0  0  0  0  0  0  0  0  0  0  0  0
   25.8812  -18.6905  -14.3617 C   0  0  0  0  0  0  0  0  0  0  0  0
   24.8771  -18.0144  -14.0046 O   0  0  0  0  0  0  0  0  0  0  0  0
   23.2700  -20.8395  -14.2417 C   0  0  0  0  0  0  0  0  0  0  0  0
   24.1702  -21.4789  -13.2058 C   0  0  2  0  0  0  0  0  0  0  0  0
   23.2836  -21.9450  -12.0478 C   0  0  0  0  0  0  0  0  0  0  0  0
   25.1321  -20.4564  -12.7057 C   0  0  2  0  0  0  0  0  0  0  0  0
   26.0199  -19.9576  -13.7270 N   0  0  0  0  0  0  0  0  0  0  0  0
   25.9021  -20.8378  -11.5308 C   0  0  0  0  0  0  0  0  0  0  0  0
   27.1169  -21.1381  -11.6799 O   0  0  0  0  0  0  0  0  0  0  0  0
   25.3523  -20.8912  -10.2064 N   0  0  0  0  0  0  0  0  0  0  0  0
   26.2556  -21.0911   -9.1052 C   0  0  1  0  0  0  0  0  0  0  0  0
   27.3237  -20.0229   -9.0441 C   0  0  0  0  0  0  0  0  0  0  0  0
   28.2913  -20.3689   -7.9833 C   0  0  0  0  0  0  0  0  0  0  0  0
   29.2727  -21.3342   -8.0449 C   0  0  0  0  0  0  0  0  0  0  0  0
   29.9571  -21.3569   -6.8659 N   0  0  0  0  0  0  0  0  0  0  0  0
   29.4351  -20.4241   -6.0453 C   0  0  0  0  0  0  0  0  0  0  0  0
   29.7944  -20.0844   -4.7612 C   0  0  0  0  0  0  0  0  0  0  0  0
   29.0921  -19.0809   -4.1245 C   0  0  0  0  0  0  0  0  0  0  0  0
   28.0508  -18.4446   -4.7877 C   0  0  0  0  0  0  0  0  0  0  0  0
   27.7126  -18.8008   -6.0655 C   0  0  0  0  0  0  0  0  0  0  0  0
   28.3959  -19.8009   -6.7295 C   0  0  0  0  0  0  0  0  0  0  0  0
   25.4673  -21.1411   -7.8318 C   0  0  0  0  0  0  0  0  0  0  0  0
   24.4456  -20.4302   -7.7403 O   0  0  0  0  0  0  0  0  0  0  0  0
   25.8551  -21.9590   -6.7661 O   0  0  0  0  0  0  0  0  0  0  0  0
  2  3  1  0
  2  1  1  6
  4  3  1  0
  5  4  2  0
  6  5  1  0
  7  6  2  0
  7  8  1  0
  8  9  2  0
  9  4  1  0
 10 16  1  0
 10  2  1  0
 11 10  2  0
 13 14  1  1
 13 12  1  0
 15 13  1  0
 15 16  1  6
 17 15  1  0
 17 18  2  0
 19 17  1  0
 20 21  1  1
 20 19  1  0
 22 21  1  0
 22 30  1  0
 23 22  2  0
 24 23  1  0
 24 25  1  0
 25 26  1  0
 25 30  2  0
 26 27  2  0
 27 28  1  0
 29 28  2  0
 30 29  1  0
 31 20  1  0
 31 33  1  0
 32 31  2  0
M  END
$$$$
