FVW.pdb
     RDKit          3D

 33 35  0  0  1  0  0  0  0  0999 V2000
   26.0230  -17.5385  -16.3892 N   0  0  0  0  0  0  0  0  0  0  0  0
   26.8464  -17.8795  -15.2232 C   0  0  1  0  0  0  0  0  0  0  0  0
   27.4149  -16.6235  -14.6535 C   0  0  0  0  0  0  0  0  0  0  0  0
   28.4302  -16.0724  -15.5874 C   0  0  0  0  0  0  0  0  0  0  0  0
   28.2670  -14.8057  -16.1061 C   0  0  0  0  0  0  0  0  0  0  0  0
   29.2085  -14.2901  -16.9594 C   0  0  0  0  0  0  0  0  0  0  0  0
   30.3267  -15.0000  -17.3227 C   0  0  0  0  0  0  0  0  0  0  0  0
   30.4693  -16.2706  -16.7886 C   0  0  0  0  0  0  0  0  0  0  0  0
   29.5394  -16.8094  -15.9313 C   0  0  0  0  0  0  0  0  0  0  0  0
   25.9983  -18.6615  -14.2963 C   0  0  0  0  0  0  0  0  0  0  0  0
   24.8525  -18.2762  -13.9340 O   0  0  0  0  0  0  0  0  0  0  0  0
   24.5397  -21.9154  -14.7306 C   0  0  0  0  0  0  0  0  0  0  0  0
   25.3319  -22.0798  -13.4509 C   0  0  2  0  0  0  0  0  0  0  0  0
   24.4611  -22.8646  -12.4661 C   0  0  0  0  0  0  0  0  0  0  0  0
   25.6185  -20.7314  -12.8846 C   0  0  2  0  0  0  0  0  0  0  0  0
   26.4239  -19.9060  -13.7507 N   0  0  0  0  0  0  0  0  0  0  0  0
   26.1748  -20.7187  -11.5396 C   0  0  0  0  0  0  0  0  0  0  0  0
   27.3805  -21.0506  -11.3848 O   0  0  0  0  0  0  0  0  0  0  0  0
   25.4230  -20.3477  -10.3749 N   0  0  0  0  0  0  0  0  0  0  0  0
   25.9481  -20.7094   -9.0857 C   0  0  1  0  0  0  0  0  0  0  0  0
   26.4116  -19.5032   -8.3010 C   0  0  0  0  0  0  0  0  0  0  0  0
   26.8333  -19.9375   -6.9539 C   0  0  0  0  0  0  0  0  0  0  0  0
   26.2070  -20.8679   -6.1534 C   0  0  0  0  0  0  0  0  0  0  0  0
   26.8944  -20.9906   -4.9824 N   0  0  0  0  0  0  0  0  0  0  0  0
   27.9524  -20.1564   -5.0130 C   0  0  0  0  0  0  0  0  0  0  0  0
   28.9231  -19.9346   -4.0634 C   0  0  0  0  0  0  0  0  0  0  0  0
   29.9143  -19.0137   -4.3376 C   0  0  0  0  0  0  0  0  0  0  0  0
   29.9086  -18.3402   -5.5522 C   0  0  0  0  0  0  0  0  0  0  0  0
   28.9315  -18.5788   -6.4810 C   0  0  0  0  0  0  0  0  0  0  0  0
   27.9261  -19.4940   -6.2365 C   0  0  0  0  0  0  0  0  0  0  0  0
   24.9040  -21.4760   -8.3325 C   0  0  0  0  0  0  0  0  0  0  0  0
   23.7037  -21.2201   -8.5590 O   0  0  0  0  0  0  0  0  0  0  0  0
   25.2518  -22.4559   -7.3976 O   0  0  0  0  0  0  0  0  0  0  0  0
  2  3  1  0
  2  1  1  6
  4  3  1  0
  5  4  2  0
  6  5  1  0
  7  6  2  0
  7  8  1  0
  8  9  2  0
  9  4  1  0
 10 16  1  0
 10  2  1  0
 11 10  2  0
 13 14  1  1
 13 12  1  0
 15 13  1  0
 15 16  1  6
 17 15  1  0
 17 18  2  0
 19 17  1  0
 20 21  1  1
 20 19  1  0
 22 21  1  0
 22 30  1  0
 23 22  2  0
 24 23  1  0
 24 25  1  0
 25 26  1  0
 25 30  2  0
 26 27  2  0
 27 28  1  0
 29 28  2  0
 30 29  1  0
 31 20  1  0
 31 33  1  0
 32 31  2  0
M  END
$$$$
