FVW.pdb
     RDKit          3D

 33 35  0  0  1  0  0  0  0  0999 V2000
   26.3341  -18.5907   -7.9238 N   0  0  0  0  0  0  0  0  0  0  0  0
   27.0550  -19.7464   -8.4702 C   0  0  1  0  0  0  0  0  0  0  0  0
   26.8692  -20.9061   -7.5505 C   0  0  0  0  0  0  0  0  0  0  0  0
   27.6234  -20.6661   -6.2935 C   0  0  0  0  0  0  0  0  0  0  0  0
   29.0016  -20.6482   -6.3150 C   0  0  0  0  0  0  0  0  0  0  0  0
   29.7002  -20.4155   -5.1581 C   0  0  0  0  0  0  0  0  0  0  0  0
   29.0679  -20.1959   -3.9589 C   0  0  0  0  0  0  0  0  0  0  0  0
   27.6825  -20.2184   -3.9619 C   0  0  0  0  0  0  0  0  0  0  0  0
   26.9598  -20.4494   -5.1083 C   0  0  0  0  0  0  0  0  0  0  0  0
   26.5700  -19.9572   -9.8522 C   0  0  0  0  0  0  0  0  0  0  0  0
   25.4667  -19.5021  -10.2626 O   0  0  0  0  0  0  0  0  0  0  0  0
   29.5194  -20.4123  -12.7147 C   0  0  0  0  0  0  0  0  0  0  0  0
   28.2525  -21.1803  -13.0270 C   0  0  2  0  0  0  0  0  0  0  0  0
   27.9631  -21.0062  -14.5204 C   0  0  0  0  0  0  0  0  0  0  0  0
   27.1293  -20.5985  -12.2392 C   0  0  2  0  0  0  0  0  0  0  0  0
   27.3216  -20.6918  -10.8129 N   0  0  0  0  0  0  0  0  0  0  0  0
   25.8005  -21.0804  -12.5869 C   0  0  0  0  0  0  0  0  0  0  0  0
   25.4263  -22.1936  -12.1298 O   0  0  0  0  0  0  0  0  0  0  0  0
   24.8890  -20.3552  -13.4250 N   0  0  0  0  0  0  0  0  0  0  0  0
   23.5659  -20.8887  -13.6081 C   0  0  1  0  0  0  0  0  0  0  0  0
   22.4947  -19.8495  -13.3665 C   0  0  0  0  0  0  0  0  0  0  0  0
   22.6051  -18.7955  -14.3951 C   0  0  0  0  0  0  0  0  0  0  0  0
   21.7026  -18.5269  -15.4012 C   0  0  0  0  0  0  0  0  0  0  0  0
   22.1604  -17.4840  -16.1507 N   0  0  0  0  0  0  0  0  0  0  0  0
   23.3414  -17.0751  -15.6464 C   0  0  0  0  0  0  0  0  0  0  0  0
   24.1727  -16.0630  -16.0679 C   0  0  0  0  0  0  0  0  0  0  0  0
   25.3450  -15.8414  -15.3735 C   0  0  0  0  0  0  0  0  0  0  0  0
   25.6543  -16.6364  -14.2775 C   0  0  0  0  0  0  0  0  0  0  0  0
   24.8104  -17.6375  -13.8777 C   0  0  0  0  0  0  0  0  0  0  0  0
   23.6302  -17.8842  -14.5517 C   0  0  0  0  0  0  0  0  0  0  0  0
   23.4597  -21.4644  -14.9874 C   0  0  0  0  0  0  0  0  0  0  0  0
   22.4446  -22.1318  -15.2732 O   0  0  0  0  0  0  0  0  0  0  0  0
   24.4645  -21.2662  -15.9394 O   0  0  0  0  0  0  0  0  0  0  0  0
  2  3  1  0
  2  1  1  1
  4  3  1  0
  5  4  2  0
  6  5  1  0
  7  6  2  0
  7  8  1  0
  8  9  2  0
  9  4  1  0
 10 16  1  0
 10  2  1  0
 11 10  2  0
 13 14  1  6
 13 12  1  0
 15 13  1  0
 15 16  1  1
 17 15  1  0
 17 18  2  0
 19 17  1  0
 20 21  1  6
 20 19  1  0
 22 21  1  0
 22 30  1  0
 23 22  2  0
 24 23  1  0
 24 25  1  0
 25 26  1  0
 25 30  2  0
 26 27  2  0
 27 28  1  0
 29 28  2  0
 30 29  1  0
 31 20  1  0
 31 33  1  0
 32 31  2  0
M  END
$$$$
