FVW.pdb
     RDKit          3D

 33 35  0  0  1  0  0  0  0  0999 V2000
   26.0063  -17.0892  -17.8634 N   0  0  0  0  0  0  0  0  0  0  0  0
   26.8165  -17.8003  -16.8675 C   0  0  1  0  0  0  0  0  0  0  0  0
   27.6574  -16.8084  -16.1366 C   0  0  0  0  0  0  0  0  0  0  0  0
   28.6993  -16.2745  -17.0509 C   0  0  0  0  0  0  0  0  0  0  0  0
   29.7264  -17.0927  -17.4702 C   0  0  0  0  0  0  0  0  0  0  0  0
   30.6833  -16.6058  -18.3233 C   0  0  0  0  0  0  0  0  0  0  0  0
   30.6564  -15.3120  -18.7833 C   0  0  0  0  0  0  0  0  0  0  0  0
   29.6147  -14.5085  -18.3484 C   0  0  0  0  0  0  0  0  0  0  0  0
   28.6437  -14.9734  -17.4936 C   0  0  0  0  0  0  0  0  0  0  0  0
   25.8894  -18.5828  -16.0202 C   0  0  0  0  0  0  0  0  0  0  0  0
   24.8480  -18.0837  -15.5111 O   0  0  0  0  0  0  0  0  0  0  0  0
   23.7863  -21.5317  -16.5796 C   0  0  0  0  0  0  0  0  0  0  0  0
   24.7216  -21.9572  -15.4676 C   0  0  2  0  0  0  0  0  0  0  0  0
   23.8916  -22.7230  -14.4337 C   0  0  0  0  0  0  0  0  0  0  0  0
   25.2973  -20.7399  -14.8294 C   0  0  2  0  0  0  0  0  0  0  0  0
   26.1148  -19.9570  -15.7231 N   0  0  0  0  0  0  0  0  0  0  0  0
   26.0111  -20.9616  -13.5803 C   0  0  0  0  0  0  0  0  0  0  0  0
   27.2651  -21.0793  -13.6175 O   0  0  0  0  0  0  0  0  0  0  0  0
   25.3630  -21.0542  -12.3033 N   0  0  0  0  0  0  0  0  0  0  0  0
   26.1880  -21.1851  -11.1325 C   0  0  1  0  0  0  0  0  0  0  0  0
   27.2047  -20.0713  -11.0251 C   0  0  0  0  0  0  0  0  0  0  0  0
   28.1087  -20.3516   -9.8914 C   0  0  0  0  0  0  0  0  0  0  0  0
   29.2138  -21.1745   -9.9015 C   0  0  0  0  0  0  0  0  0  0  0  0
   29.7837  -21.1791   -8.6629 N   0  0  0  0  0  0  0  0  0  0  0  0
   29.0663  -20.3743   -7.8543 C   0  0  0  0  0  0  0  0  0  0  0  0
   29.2566  -20.0692   -6.5262 C   0  0  0  0  0  0  0  0  0  0  0  0
   28.3687  -19.2068   -5.9149 C   0  0  0  0  0  0  0  0  0  0  0  0
   27.3159  -18.6731   -6.6469 C   0  0  0  0  0  0  0  0  0  0  0  0
   27.1481  -18.9922   -7.9676 C   0  0  0  0  0  0  0  0  0  0  0  0
   28.0193  -19.8520   -8.6076 C   0  0  0  0  0  0  0  0  0  0  0  0
   25.3087  -21.2334   -9.9202 C   0  0  0  0  0  0  0  0  0  0  0  0
   24.3092  -20.4868   -9.8842 O   0  0  0  0  0  0  0  0  0  0  0  0
   25.5889  -22.0887   -8.8501 O   0  0  0  0  0  0  0  0  0  0  0  0
  2  3  1  0
  2  1  1  6
  4  3  1  0
  5  4  2  0
  6  5  1  0
  7  6  2  0
  7  8  1  0
  8  9  2  0
  9  4  1  0
 10 16  1  0
 10  2  1  0
 11 10  2  0
 13 14  1  1
 13 12  1  0
 15 13  1  0
 15 16  1  6
 17 15  1  0
 17 18  2  0
 19 17  1  0
 20 21  1  1
 20 19  1  0
 22 21  1  0
 22 30  1  0
 23 22  2  0
 24 23  1  0
 24 25  1  0
 25 26  1  0
 25 30  2  0
 26 27  2  0
 27 28  1  0
 29 28  2  0
 30 29  1  0
 31 20  1  0
 31 33  1  0
 32 31  2  0
M  END
$$$$
