FVW.pdb
     RDKit          3D

 33 35  0  0  1  0  0  0  0  0999 V2000
   29.5935  -20.0565  -18.2138 N   0  0  0  0  0  0  0  0  0  0  0  0
   28.2733  -19.4711  -18.4757 C   0  0  1  0  0  0  0  0  0  0  0  0
   27.5243  -20.3712  -19.3998 C   0  0  0  0  0  0  0  0  0  0  0  0
   27.9804  -20.1383  -20.7943 C   0  0  0  0  0  0  0  0  0  0  0  0
   27.6716  -18.9529  -21.4264 C   0  0  0  0  0  0  0  0  0  0  0  0
   28.1012  -18.7306  -22.7096 C   0  0  0  0  0  0  0  0  0  0  0  0
   28.8397  -19.6600  -23.4001 C   0  0  0  0  0  0  0  0  0  0  0  0
   29.1379  -20.8436  -22.7443 C   0  0  0  0  0  0  0  0  0  0  0  0
   28.7189  -21.0898  -21.4584 C   0  0  0  0  0  0  0  0  0  0  0  0
   27.6258  -19.2368  -17.1659 C   0  0  0  0  0  0  0  0  0  0  0  0
   28.0754  -19.7178  -16.0892 O   0  0  0  0  0  0  0  0  0  0  0  0
   26.9075  -15.8975  -15.5057 C   0  0  0  0  0  0  0  0  0  0  0  0
   25.5857  -16.6221  -15.6475 C   0  0  2  0  0  0  0  0  0  0  0  0
   24.7792  -16.3658  -14.3716 C   0  0  0  0  0  0  0  0  0  0  0  0
   25.8483  -18.0834  -15.7759 C   0  0  2  0  0  0  0  0  0  0  0  0
   26.4467  -18.4491  -17.0362 N   0  0  0  0  0  0  0  0  0  0  0  0
   24.7140  -18.9533  -15.5015 C   0  0  0  0  0  0  0  0  0  0  0  0
   23.9927  -19.3229  -16.4665 O   0  0  0  0  0  0  0  0  0  0  0  0
   24.3698  -19.4155  -14.1872 N   0  0  0  0  0  0  0  0  0  0  0  0
   23.3050  -20.3743  -14.0632 C   0  0  1  0  0  0  0  0  0  0  0  0
   23.7101  -21.5705  -13.2322 C   0  0  0  0  0  0  0  0  0  0  0  0
   24.2548  -21.0996  -11.9428 C   0  0  0  0  0  0  0  0  0  0  0  0
   23.5333  -20.6798  -10.8465 C   0  0  0  0  0  0  0  0  0  0  0  0
   24.3936  -20.3172   -9.8528 N   0  0  0  0  0  0  0  0  0  0  0  0
   25.6564  -20.4954  -10.2881 C   0  0  0  0  0  0  0  0  0  0  0  0
   26.8487  -20.2651   -9.6412 C   0  0  0  0  0  0  0  0  0  0  0  0
   28.0248  -20.5294  -10.3140 C   0  0  0  0  0  0  0  0  0  0  0  0
   27.9775  -21.0164  -11.6138 C   0  0  0  0  0  0  0  0  0  0  0  0
   26.7781  -21.2374  -12.2359 C   0  0  0  0  0  0  0  0  0  0  0  0
   25.5842  -20.9827  -11.5896 C   0  0  0  0  0  0  0  0  0  0  0  0
   22.1028  -19.6943  -13.4822 C   0  0  0  0  0  0  0  0  0  0  0  0
   21.0151  -20.3063  -13.4910 O   0  0  0  0  0  0  0  0  0  0  0  0
   22.1837  -18.4078  -12.9404 O   0  0  0  0  0  0  0  0  0  0  0  0
  2  3  1  0
  2  1  1  1
  4  3  1  0
  5  4  2  0
  6  5  1  0
  7  6  2  0
  7  8  1  0
  8  9  2  0
  9  4  1  0
 10 16  1  0
 10  2  1  0
 11 10  2  0
 13 14  1  1
 13 12  1  0
 15 13  1  0
 15 16  1  6
 17 15  1  0
 17 18  2  0
 19 17  1  0
 20 21  1  1
 20 19  1  0
 22 21  1  0
 22 30  1  0
 23 22  2  0
 24 23  1  0
 24 25  1  0
 25 26  1  0
 25 30  2  0
 26 27  2  0
 27 28  1  0
 29 28  2  0
 30 29  1  0
 31 20  1  0
 31 33  1  0
 32 31  2  0
M  END
$$$$
