FVW.pdb
     RDKit          3D

 33 35  0  0  1  0  0  0  0  0999 V2000
   23.1701  -17.6108  -16.4837 N   0  0  0  0  0  0  0  0  0  0  0  0
   24.3342  -17.7646  -15.6033 C   0  0  1  0  0  0  0  0  0  0  0  0
   24.7588  -16.4154  -15.1294 C   0  0  0  0  0  0  0  0  0  0  0  0
   25.3159  -15.6436  -16.2699 C   0  0  0  0  0  0  0  0  0  0  0  0
   24.7551  -14.4329  -16.6160 C   0  0  0  0  0  0  0  0  0  0  0  0
   25.2747  -13.7129  -17.6612 C   0  0  0  0  0  0  0  0  0  0  0  0
   26.3506  -14.1602  -18.3881 C   0  0  0  0  0  0  0  0  0  0  0  0
   26.8974  -15.3795  -18.0217 C   0  0  0  0  0  0  0  0  0  0  0  0
   26.3947  -16.1196  -16.9780 C   0  0  0  0  0  0  0  0  0  0  0  0
   23.9574  -18.7156  -14.5340 C   0  0  0  0  0  0  0  0  0  0  0  0
   22.8935  -18.6000  -13.8650 O   0  0  0  0  0  0  0  0  0  0  0  0
   22.8137  -22.0249  -14.5209 C   0  0  0  0  0  0  0  0  0  0  0  0
   24.0991  -22.1384  -13.7289 C   0  0  2  0  0  0  0  0  0  0  0  0
   23.8455  -23.1104  -12.5735 C   0  0  0  0  0  0  0  0  0  0  0  0
   24.4443  -20.7985  -13.1753 C   0  0  2  0  0  0  0  0  0  0  0  0
   24.7764  -19.8283  -14.1893 N   0  0  0  0  0  0  0  0  0  0  0  0
   25.4640  -20.7902  -12.1366 C   0  0  0  0  0  0  0  0  0  0  0  0
   26.6340  -21.1464  -12.4402 O   0  0  0  0  0  0  0  0  0  0  0  0
   25.2097  -20.3973  -10.7801 N   0  0  0  0  0  0  0  0  0  0  0  0
   26.2075  -20.6983   -9.7889 C   0  0  1  0  0  0  0  0  0  0  0  0
   27.0372  -19.4865   -9.4302 C   0  0  0  0  0  0  0  0  0  0  0  0
   28.1074  -19.8939   -8.4975 C   0  0  0  0  0  0  0  0  0  0  0  0
   29.1593  -20.7417   -8.7687 C   0  0  0  0  0  0  0  0  0  0  0  0
   29.9297  -20.8755   -7.6517 N   0  0  0  0  0  0  0  0  0  0  0  0
   29.3939  -20.1297   -6.6654 C   0  0  0  0  0  0  0  0  0  0  0  0
   29.8187  -19.9534   -5.3686 C   0  0  0  0  0  0  0  0  0  0  0  0
   29.0840  -19.1276   -4.5415 C   0  0  0  0  0  0  0  0  0  0  0  0
   27.9460  -18.5008   -5.0325 C   0  0  0  0  0  0  0  0  0  0  0  0
   27.5440  -18.6924   -6.3271 C   0  0  0  0  0  0  0  0  0  0  0  0
   28.2575  -19.5126   -7.1793 C   0  0  0  0  0  0  0  0  0  0  0  0
   25.5345  -21.2705   -8.5787 C   0  0  0  0  0  0  0  0  0  0  0  0
   24.3661  -20.9116   -8.3264 O   0  0  0  0  0  0  0  0  0  0  0  0
   26.1870  -22.1842   -7.7453 O   0  0  0  0  0  0  0  0  0  0  0  0
  2  3  1  0
  2  1  1  6
  4  3  1  0
  5  4  2  0
  6  5  1  0
  7  6  2  0
  7  8  1  0
  8  9  2  0
  9  4  1  0
 10 16  1  0
 10  2  1  0
 11 10  2  0
 13 14  1  1
 13 12  1  0
 15 13  1  0
 15 16  1  6
 17 15  1  0
 17 18  2  0
 19 17  1  0
 20 21  1  1
 20 19  1  0
 22 21  1  0
 22 30  1  0
 23 22  2  0
 24 23  1  0
 24 25  1  0
 25 26  1  0
 25 30  2  0
 26 27  2  0
 27 28  1  0
 29 28  2  0
 30 29  1  0
 31 20  1  0
 31 33  1  0
 32 31  2  0
M  END
$$$$
