FVW.pdb
     RDKit          3D

 33 35  0  0  1  0  0  0  0  0999 V2000
   29.7257   -3.9760  -18.2490 N   0  0  0  0  0  0  0  0  0  0  0  0
   29.3989   -5.0280  -19.2187 C   0  0  1  0  0  0  0  0  0  0  0  0
   30.1924   -6.2474  -18.8891 C   0  0  0  0  0  0  0  0  0  0  0  0
   31.5907   -6.0689  -19.3578 C   0  0  0  0  0  0  0  0  0  0  0  0
   31.8968   -6.2630  -20.6878 C   0  0  0  0  0  0  0  0  0  0  0  0
   33.1846   -6.0878  -21.1253 C   0  0  0  0  0  0  0  0  0  0  0  0
   34.1977   -5.7201  -20.2741 C   0  0  0  0  0  0  0  0  0  0  0  0
   33.8661   -5.5306  -18.9422 C   0  0  0  0  0  0  0  0  0  0  0  0
   32.5827   -5.7000  -18.4795 C   0  0  0  0  0  0  0  0  0  0  0  0
   27.9305   -5.2095  -19.1962 C   0  0  0  0  0  0  0  0  0  0  0  0
   27.2590   -5.1887  -18.1279 O   0  0  0  0  0  0  0  0  0  0  0  0
   25.2065   -3.2242  -20.6514 C   0  0  0  0  0  0  0  0  0  0  0  0
   25.0475   -4.5948  -21.2746 C   0  0  2  0  0  0  0  0  0  0  0  0
   23.5510   -4.9168  -21.3070 C   0  0  0  0  0  0  0  0  0  0  0  0
   25.7460   -5.5968  -20.4208 C   0  0  2  0  0  0  0  0  0  0  0  0
   27.1770   -5.4210  -20.3858 N   0  0  0  0  0  0  0  0  0  0  0  0
   25.4303   -6.9902  -20.6990 C   0  0  0  0  0  0  0  0  0  0  0  0
   25.9395   -7.5301  -21.7174 O   0  0  0  0  0  0  0  0  0  0  0  0
   24.5674   -7.7869  -19.8743 N   0  0  0  0  0  0  0  0  0  0  0  0
   24.2389   -9.1140  -20.3207 C   0  0  1  0  0  0  0  0  0  0  0  0
   24.6969  -10.1729  -19.3436 C   0  0  0  0  0  0  0  0  0  0  0  0
   24.4652  -11.5065  -19.9344 C   0  0  0  0  0  0  0  0  0  0  0  0
   25.3564  -12.2426  -20.6843 C   0  0  0  0  0  0  0  0  0  0  0  0
   24.7716  -13.4175  -21.0541 N   0  0  0  0  0  0  0  0  0  0  0  0
   23.5197  -13.4524  -20.5564 C   0  0  0  0  0  0  0  0  0  0  0  0
   22.5571  -14.4290  -20.6694 C   0  0  0  0  0  0  0  0  0  0  0  0
   21.3352  -14.2228  -20.0609 C   0  0  0  0  0  0  0  0  0  0  0  0
   21.1088  -13.0474  -19.3565 C   0  0  0  0  0  0  0  0  0  0  0  0
   22.0831  -12.0906  -19.2586 C   0  0  0  0  0  0  0  0  0  0  0  0
   23.3159  -12.2672  -19.8562 C   0  0  0  0  0  0  0  0  0  0  0  0
   22.7613   -9.1971  -20.5549 C   0  0  0  0  0  0  0  0  0  0  0  0
   21.9974   -8.7290  -19.6860 O   0  0  0  0  0  0  0  0  0  0  0  0
   22.2384   -9.7809  -21.7129 O   0  0  0  0  0  0  0  0  0  0  0  0
  2  3  1  0
  2  1  1  1
  4  3  1  0
  5  4  2  0
  6  5  1  0
  7  6  2  0
  7  8  1  0
  8  9  2  0
  9  4  1  0
 10 16  1  0
 10  2  1  0
 11 10  2  0
 13 14  1  1
 13 12  1  0
 15 13  1  0
 15 16  1  6
 17 15  1  0
 17 18  2  0
 19 17  1  0
 20 21  1  1
 20 19  1  0
 22 21  1  0
 22 30  1  0
 23 22  2  0
 24 23  1  0
 24 25  1  0
 25 26  1  0
 25 30  2  0
 26 27  2  0
 27 28  1  0
 29 28  2  0
 30 29  1  0
 31 20  1  0
 31 33  1  0
 32 31  2  0
M  END
$$$$
