FVW.pdb
     RDKit          3D

 33 35  0  0  1  0  0  0  0  0999 V2000
   23.0724  -12.1238  -19.7860 N   0  0  0  0  0  0  0  0  0  0  0  0
   23.0962  -10.6996  -19.4321 C   0  0  1  0  0  0  0  0  0  0  0  0
   22.4728   -9.9196  -20.5404 C   0  0  0  0  0  0  0  0  0  0  0  0
   23.3497   -9.9752  -21.7381 C   0  0  0  0  0  0  0  0  0  0  0  0
   24.3558   -9.0457  -21.8936 C   0  0  0  0  0  0  0  0  0  0  0  0
   25.1740   -9.1017  -22.9927 C   0  0  0  0  0  0  0  0  0  0  0  0
   25.0264  -10.0649  -23.9604 C   0  0  0  0  0  0  0  0  0  0  0  0
   24.0087  -10.9882  -23.7825 C   0  0  0  0  0  0  0  0  0  0  0  0
   23.1756  -10.9531  -22.6896 C   0  0  0  0  0  0  0  0  0  0  0  0
   22.4338  -10.5598  -18.1163 C   0  0  0  0  0  0  0  0  0  0  0  0
   21.3932  -11.2034  -17.8069 O   0  0  0  0  0  0  0  0  0  0  0  0
   23.4736  -11.4643  -14.8387 C   0  0  0  0  0  0  0  0  0  0  0  0
   23.2236   -9.9781  -14.6934 C   0  0  2  0  0  0  0  0  0  0  0  0
   22.5077   -9.7585  -13.3580 C   0  0  0  0  0  0  0  0  0  0  0  0
   22.3381   -9.5272  -15.8041 C   0  0  2  0  0  0  0  0  0  0  0  0
   22.9313   -9.6847  -17.1092 N   0  0  0  0  0  0  0  0  0  0  0  0
   21.7965   -8.1827  -15.6711 C   0  0  0  0  0  0  0  0  0  0  0  0
   22.5206   -7.2073  -16.0061 O   0  0  0  0  0  0  0  0  0  0  0  0
   20.4780   -7.9050  -15.1775 N   0  0  0  0  0  0  0  0  0  0  0  0
   20.0367   -6.5363  -15.1559 C   0  0  1  0  0  0  0  0  0  0  0  0
   20.1213   -5.8894  -16.5197 C   0  0  0  0  0  0  0  0  0  0  0  0
   18.7547   -5.6708  -17.0351 C   0  0  0  0  0  0  0  0  0  0  0  0
   17.6441   -5.3129  -16.3022 C   0  0  0  0  0  0  0  0  0  0  0  0
   16.5681   -5.2140  -17.1338 N   0  0  0  0  0  0  0  0  0  0  0  0
   16.9644   -5.5014  -18.3893 C   0  0  0  0  0  0  0  0  0  0  0  0
   16.2340   -5.5326  -19.5549 C   0  0  0  0  0  0  0  0  0  0  0  0
   16.8810   -5.8629  -20.7288 C   0  0  0  0  0  0  0  0  0  0  0  0
   18.2391   -6.1529  -20.7060 C   0  0  0  0  0  0  0  0  0  0  0  0
   18.9439   -6.1149  -19.5329 C   0  0  0  0  0  0  0  0  0  0  0  0
   18.3253   -5.7880  -18.3419 C   0  0  0  0  0  0  0  0  0  0  0  0
   18.6391   -6.4838  -14.6182 C   0  0  0  0  0  0  0  0  0  0  0  0
   17.9511   -7.5244  -14.6563 O   0  0  0  0  0  0  0  0  0  0  0  0
   18.1072   -5.3060  -14.0843 O   0  0  0  0  0  0  0  0  0  0  0  0
  2  3  1  0
  2  1  1  6
  4  3  1  0
  5  4  2  0
  6  5  1  0
  7  6  2  0
  7  8  1  0
  8  9  2  0
  9  4  1  0
 10 16  1  0
 10  2  1  0
 11 10  2  0
 13 14  1  1
 13 12  1  0
 15 13  1  0
 15 16  1  6
 17 15  1  0
 17 18  2  0
 19 17  1  0
 20 21  1  6
 20 19  1  0
 22 21  1  0
 22 30  1  0
 23 22  2  0
 24 23  1  0
 24 25  1  0
 25 26  1  0
 25 30  2  0
 26 27  2  0
 27 28  1  0
 29 28  2  0
 30 29  1  0
 31 20  1  0
 31 33  1  0
 32 31  2  0
M  END
$$$$
