IYC.pdb
     RDKit          3D

 27 27  0  0  1  0  0  0  0  0999 V2000
   25.2466  -14.0515  -18.7492 C   0  0  0  0  0  0  0  0  0  0  0  0
   25.3073  -12.9516  -17.7168 C   0  0  0  0  0  0  0  0  0  0  0  0
   24.0141  -12.1525  -17.6963 C   0  0  2  0  0  0  0  0  0  0  0  0
   23.7280  -11.6715  -19.0949 C   0  0  0  0  0  0  0  0  0  0  0  0
   24.2227  -11.0102  -16.7301 C   0  0  2  0  0  0  0  0  0  0  0  0
   24.4858  -11.5743  -15.4252 N   0  0  0  0  0  0  0  0  0  0  0  0
   23.0219  -10.1471  -16.6447 C   0  0  0  0  0  0  0  0  0  0  0  0
   22.6822   -9.5771  -17.7137 O   0  0  0  0  0  0  0  0  0  0  0  0
   17.2728  -13.5966  -17.7773 O   0  0  0  0  0  0  0  0  0  0  0  0
   17.9452  -12.6331  -17.0279 C   0  0  0  0  0  0  0  0  0  0  0  0
   18.8136  -13.0451  -16.0560 C   0  0  0  0  0  0  0  0  0  0  0  0
   19.4995  -12.1241  -15.2914 C   0  0  0  0  0  0  0  0  0  0  0  0
   19.3425  -10.7673  -15.4705 C   0  0  0  0  0  0  0  0  0  0  0  0
   20.1029   -9.8509  -14.6248 C   0  0  0  0  0  0  0  0  0  0  0  0
   21.2171   -9.1492  -15.3056 C   0  0  2  0  0  0  0  0  0  0  0  0
   22.3558  -10.0237  -15.4047 N   0  0  0  0  0  0  0  0  0  0  0  0
   21.6411   -7.8867  -14.6050 C   0  0  0  0  0  0  0  0  0  0  0  0
   22.2962   -7.8697  -13.5383 O   0  0  0  0  0  0  0  0  0  0  0  0
   18.4630  -10.3579  -16.4547 C   0  0  0  0  0  0  0  0  0  0  0  0
   17.7752  -11.2796  -17.2214 C   0  0  0  0  0  0  0  0  0  0  0  0
   21.2888   -6.6088  -15.1682 N   0  0  0  0  0  0  0  0  0  0  0  0
   21.6610   -5.4019  -14.4743 C   0  0  1  0  0  0  0  0  0  0  0  0
   22.7971   -4.7052  -15.2382 C   0  0  0  0  0  0  0  0  0  0  0  0
   23.0983   -3.0703  -14.5153 S   0  0  0  0  0  0  0  0  0  0  0  0
   20.5188   -4.4794  -14.2995 C   0  0  0  0  0  0  0  0  0  0  0  0
   19.3452   -4.7416  -14.9874 O   0  0  0  0  0  0  0  0  0  0  0  0
   20.5893   -3.4765  -13.5508 O   0  0  0  0  0  0  0  0  0  0  0  0
  1  2  1  0
  2  3  1  0
  3  5  1  0
  3  4  1  6
  5  6  1  1
  7  5  1  0
  7  8  2  0
  9 10  1  0
 10 20  2  0
 10 11  1  0
 11 12  2  0
 13 12  1  0
 13 14  1  0
 15 14  1  1
 15 16  1  0
 16  7  1  0
 17 15  1  0
 18 17  2  0
 19 13  2  0
 20 19  1  0
 21 17  1  0
 22 23  1  6
 22 21  1  0
 24 23  1  0
 25 22  1  0
 26 25  1  0
 27 25  2  0
M  END
$$$$
