IYC.pdb
     RDKit          3D

 27 27  0  0  1  0  0  0  0  0999 V2000
   25.8568  -21.8427  -20.1781 C   0  0  0  0  0  0  0  0  0  0  0  0
   26.6208  -22.4649  -19.0343 C   0  0  0  0  0  0  0  0  0  0  0  0
   25.9027  -22.2389  -17.7134 C   0  0  2  0  0  0  0  0  0  0  0  0
   25.7071  -20.7573  -17.5238 C   0  0  0  0  0  0  0  0  0  0  0  0
   26.7715  -22.8438  -16.6357 C   0  0  2  0  0  0  0  0  0  0  0  0
   26.8665  -24.2644  -16.8866 N   0  0  0  0  0  0  0  0  0  0  0  0
   26.1897  -22.6337  -15.2898 C   0  0  0  0  0  0  0  0  0  0  0  0
   25.2090  -23.3662  -14.9985 O   0  0  0  0  0  0  0  0  0  0  0  0
   25.8420  -19.9661   -6.8473 O   0  0  0  0  0  0  0  0  0  0  0  0
   26.1499  -20.1804   -8.1894 C   0  0  0  0  0  0  0  0  0  0  0  0
   27.3423  -20.7702   -8.5036 C   0  0  0  0  0  0  0  0  0  0  0  0
   27.6861  -21.0005   -9.8197 C   0  0  0  0  0  0  0  0  0  0  0  0
   26.8551  -20.6514  -10.8615 C   0  0  0  0  0  0  0  0  0  0  0  0
   27.2846  -20.9273  -12.2299 C   0  0  0  0  0  0  0  0  0  0  0  0
   26.2357  -21.4886  -13.1143 C   0  0  2  0  0  0  0  0  0  0  0  0
   26.7573  -21.6532  -14.4455 N   0  0  0  0  0  0  0  0  0  0  0  0
   24.9987  -20.6346  -13.1858 C   0  0  0  0  0  0  0  0  0  0  0  0
   24.9049  -19.6040  -13.8903 O   0  0  0  0  0  0  0  0  0  0  0  0
   25.6514  -20.0555  -10.5366 C   0  0  0  0  0  0  0  0  0  0  0  0
   25.3057  -19.8242   -9.2185 C   0  0  0  0  0  0  0  0  0  0  0  0
   23.8395  -20.9968  -12.4117 N   0  0  0  0  0  0  0  0  0  0  0  0
   22.5735  -20.3698  -12.6959 C   0  0  1  0  0  0  0  0  0  0  0  0
   22.1544  -20.6990  -14.1367 C   0  0  0  0  0  0  0  0  0  0  0  0
   22.9404  -19.5297  -15.2774 S   0  0  0  0  0  0  0  0  0  0  0  0
   21.5169  -20.7817  -11.7472 C   0  0  0  0  0  0  0  0  0  0  0  0
   21.8444  -21.6727  -10.7382 O   0  0  0  0  0  0  0  0  0  0  0  0
   20.3446  -20.3467  -11.8356 O   0  0  0  0  0  0  0  0  0  0  0  0
  1  2  1  0
  2  3  1  0
  3  5  1  0
  3  4  1  1
  5  6  1  6
  7  5  1  0
  7  8  2  0
  9 10  1  0
 10 20  2  0
 10 11  1  0
 11 12  2  0
 13 12  1  0
 13 14  1  0
 15 14  1  1
 15 16  1  0
 16  7  1  0
 17 15  1  0
 18 17  2  0
 19 13  2  0
 20 19  1  0
 21 17  1  0
 22 23  1  6
 22 21  1  0
 24 23  1  0
 25 22  1  0
 26 25  1  0
 27 25  2  0
M  END
$$$$
