IYC.pdb
     RDKit          3D

 27 27  0  0  1  0  0  0  0  0999 V2000
   27.6497  -20.5310   -4.5668 C   0  0  0  0  0  0  0  0  0  0  0  0
   26.4563  -20.5539   -5.4912 C   0  0  0  0  0  0  0  0  0  0  0  0
   26.8630  -20.2036   -6.9137 C   0  0  2  0  0  0  0  0  0  0  0  0
   27.6257  -18.9048   -6.8859 C   0  0  0  0  0  0  0  0  0  0  0  0
   25.5890  -20.1017   -7.7188 C   0  0  2  0  0  0  0  0  0  0  0  0
   24.9035  -21.3714   -7.6288 N   0  0  0  0  0  0  0  0  0  0  0  0
   25.8706  -19.8103   -9.1436 C   0  0  0  0  0  0  0  0  0  0  0  0
   26.5626  -18.7828   -9.3642 O   0  0  0  0  0  0  0  0  0  0  0  0
   30.5242  -20.8384  -15.8760 O   0  0  0  0  0  0  0  0  0  0  0  0
   29.6628  -21.0677  -14.8050 C   0  0  0  0  0  0  0  0  0  0  0  0
   28.3146  -21.0009  -15.0205 C   0  0  0  0  0  0  0  0  0  0  0  0
   27.4270  -21.2213  -13.9876 C   0  0  0  0  0  0  0  0  0  0  0  0
   27.8532  -21.5144  -12.7108 C   0  0  0  0  0  0  0  0  0  0  0  0
   26.8559  -21.7372  -11.6674 C   0  0  0  0  0  0  0  0  0  0  0  0
   25.9016  -20.6213  -11.4647 C   0  0  2  0  0  0  0  0  0  0  0  0
   25.3590  -20.6796  -10.1330 N   0  0  0  0  0  0  0  0  0  0  0  0
   24.7621  -20.6273  -12.4477 C   0  0  0  0  0  0  0  0  0  0  0  0
   24.8540  -21.0671  -13.6162 O   0  0  0  0  0  0  0  0  0  0  0  0
   29.2174  -21.5803  -12.5001 C   0  0  0  0  0  0  0  0  0  0  0  0
   30.1077  -21.3597  -13.5341 C   0  0  0  0  0  0  0  0  0  0  0  0
   23.4798  -20.1043  -12.0523 N   0  0  0  0  0  0  0  0  0  0  0  0
   22.2859  -20.8531  -12.3533 C   0  0  1  0  0  0  0  0  0  0  0  0
   22.4830  -22.3168  -11.9309 C   0  0  0  0  0  0  0  0  0  0  0  0
   21.2881  -23.3642  -12.8036 S   0  0  0  0  0  0  0  0  0  0  0  0
   21.0874  -20.2867  -11.6983 C   0  0  0  0  0  0  0  0  0  0  0  0
   19.8447  -20.5496  -12.2514 O   0  0  0  0  0  0  0  0  0  0  0  0
   21.1711  -19.5818  -10.6652 O   0  0  0  0  0  0  0  0  0  0  0  0
  1  2  1  0
  2  3  1  0
  3  5  1  0
  3  4  1  1
  5  6  1  6
  7  5  1  0
  7  8  2  0
  9 10  1  0
 10 20  2  0
 10 11  1  0
 11 12  2  0
 13 12  1  0
 13 14  1  0
 15 14  1  6
 15 16  1  0
 16  7  1  0
 17 15  1  0
 18 17  2  0
 19 13  2  0
 20 19  1  0
 21 17  1  0
 22 23  1  1
 22 21  1  0
 24 23  1  0
 25 22  1  0
 26 25  1  0
 27 25  2  0
M  END
$$$$
