IYC.pdb
     RDKit          3D

 27 27  0  0  1  0  0  0  0  0999 V2000
   29.0207  -31.8314  -17.0317 C   0  0  0  0  0  0  0  0  0  0  0  0
   28.1810  -32.9683  -16.5010 C   0  0  0  0  0  0  0  0  0  0  0  0
   27.3553  -32.5228  -15.3046 C   0  0  2  0  0  0  0  0  0  0  0  0
   28.2959  -32.1095  -14.2029 C   0  0  0  0  0  0  0  0  0  0  0  0
   26.4920  -33.6975  -14.9090 C   0  0  2  0  0  0  0  0  0  0  0  0
   25.5787  -33.9645  -15.9975 N   0  0  0  0  0  0  0  0  0  0  0  0
   25.7072  -33.4055  -13.6871 C   0  0  0  0  0  0  0  0  0  0  0  0
   24.5480  -32.9547  -13.8775 O   0  0  0  0  0  0  0  0  0  0  0  0
   19.8360  -33.2674   -8.2091 O   0  0  0  0  0  0  0  0  0  0  0  0
   20.9179  -33.5664   -9.0348 C   0  0  0  0  0  0  0  0  0  0  0  0
   22.0657  -34.0437   -8.4664 C   0  0  0  0  0  0  0  0  0  0  0  0
   23.1602  -34.3521   -9.2476 C   0  0  0  0  0  0  0  0  0  0  0  0
   23.1458  -34.1952  -10.6161 C   0  0  0  0  0  0  0  0  0  0  0  0
   24.3413  -34.5437  -11.3793 C   0  0  0  0  0  0  0  0  0  0  0  0
   25.4687  -33.5905  -11.2468 C   0  0  2  0  0  0  0  0  0  0  0  0
   26.2943  -33.6452  -12.4244 N   0  0  0  0  0  0  0  0  0  0  0  0
   26.3322  -33.8545  -10.0429 C   0  0  0  0  0  0  0  0  0  0  0  0
   27.2736  -34.6796  -10.0296 O   0  0  0  0  0  0  0  0  0  0  0  0
   21.9823  -33.7122  -11.1841 C   0  0  0  0  0  0  0  0  0  0  0  0
   20.8850  -33.4029  -10.4025 C   0  0  0  0  0  0  0  0  0  0  0  0
   26.0872  -33.1329   -8.8207 N   0  0  0  0  0  0  0  0  0  0  0  0
   26.8962  -33.4090   -7.6606 C   0  0  1  0  0  0  0  0  0  0  0  0
   26.5753  -32.3857   -6.5608 C   0  0  0  0  0  0  0  0  0  0  0  0
   24.8296  -32.5279   -6.0932 S   0  0  0  0  0  0  0  0  0  0  0  0
   26.7017  -34.7846   -7.1544 C   0  0  0  0  0  0  0  0  0  0  0  0
   27.6682  -35.3265   -6.3229 O   0  0  0  0  0  0  0  0  0  0  0  0
   25.6923  -35.4629   -7.4584 O   0  0  0  0  0  0  0  0  0  0  0  0
  1  2  1  0
  2  3  1  0
  3  5  1  0
  3  4  1  1
  5  6  1  6
  7  5  1  0
  7  8  2  0
  9 10  1  0
 10 20  2  0
 10 11  1  0
 11 12  2  0
 13 12  1  0
 13 14  1  0
 15 14  1  6
 15 16  1  0
 16  7  1  0
 17 15  1  0
 18 17  2  0
 19 13  2  0
 20 19  1  0
 21 17  1  0
 22 23  1  1
 22 21  1  0
 24 23  1  0
 25 22  1  0
 26 25  1  0
 27 25  2  0
M  END
$$$$
