IYC.pdb
     RDKit          3D

 27 27  0  0  1  0  0  0  0  0999 V2000
   19.9298  -15.6072  -19.0335 C   0  0  0  0  0  0  0  0  0  0  0  0
   21.2374  -14.8526  -19.0372 C   0  0  0  0  0  0  0  0  0  0  0  0
   21.2757  -13.8246  -17.9178 C   0  0  2  0  0  0  0  0  0  0  0  0
   20.0985  -12.8987  -18.0795 C   0  0  0  0  0  0  0  0  0  0  0  0
   22.5950  -13.0987  -18.0374 C   0  0  2  0  0  0  0  0  0  0  0  0
   23.6529  -14.0769  -17.9189 N   0  0  0  0  0  0  0  0  0  0  0  0
   22.7561  -12.0880  -16.9665 C   0  0  0  0  0  0  0  0  0  0  0  0
   23.0841  -12.5364  -15.8375 O   0  0  0  0  0  0  0  0  0  0  0  0
   28.7172  -12.0399  -16.2163 O   0  0  0  0  0  0  0  0  0  0  0  0
   27.5442  -11.2877  -16.2233 C   0  0  0  0  0  0  0  0  0  0  0  0
   27.0145  -10.9081  -17.4248 C   0  0  0  0  0  0  0  0  0  0  0  0
   25.8547  -10.1628  -17.4764 C   0  0  0  0  0  0  0  0  0  0  0  0
   25.1877   -9.7732  -16.3358 C   0  0  0  0  0  0  0  0  0  0  0  0
   23.9643   -8.9864  -16.4674 C   0  0  0  0  0  0  0  0  0  0  0  0
   22.7079   -9.7394  -16.2400 C   0  0  2  0  0  0  0  0  0  0  0  0
   22.5373  -10.7263  -17.2735 N   0  0  0  0  0  0  0  0  0  0  0  0
   21.4860   -8.8616  -16.2083 C   0  0  0  0  0  0  0  0  0  0  0  0
   20.9906   -8.3222  -17.2236 O   0  0  0  0  0  0  0  0  0  0  0  0
   25.7287  -10.1604  -15.1246 C   0  0  0  0  0  0  0  0  0  0  0  0
   26.8907  -10.9071  -15.0715 C   0  0  0  0  0  0  0  0  0  0  0  0
   20.8256   -8.6081  -14.9537 N   0  0  0  0  0  0  0  0  0  0  0  0
   19.6254   -7.8108  -14.9334 C   0  0  1  0  0  0  0  0  0  0  0  0
   18.6542   -8.3792  -13.8877 C   0  0  0  0  0  0  0  0  0  0  0  0
   17.2356   -7.2645  -13.7107 S   0  0  0  0  0  0  0  0  0  0  0  0
   19.9024   -6.3853  -14.6552 C   0  0  0  0  0  0  0  0  0  0  0  0
   19.1556   -5.4246  -15.3174 O   0  0  0  0  0  0  0  0  0  0  0  0
   20.7886   -6.0318  -13.8421 O   0  0  0  0  0  0  0  0  0  0  0  0
  1  2  1  0
  2  3  1  0
  3  5  1  0
  3  4  1  6
  5  6  1  1
  7  5  1  0
  7  8  2  0
  9 10  1  0
 10 20  2  0
 10 11  1  0
 11 12  2  0
 13 12  1  0
 13 14  1  0
 15 14  1  6
 15 16  1  0
 16  7  1  0
 17 15  1  0
 18 17  2  0
 19 13  2  0
 20 19  1  0
 21 17  1  0
 22 23  1  1
 22 21  1  0
 24 23  1  0
 25 22  1  0
 26 25  1  0
 27 25  2  0
M  END
$$$$
