IYC.pdb
     RDKit          3D

 27 27  0  0  1  0  0  0  0  0999 V2000
   28.4813  -21.2932  -20.8366 C   0  0  0  0  0  0  0  0  0  0  0  0
   28.9857  -21.6974  -19.4722 C   0  0  0  0  0  0  0  0  0  0  0  0
   27.8449  -21.7698  -18.4698 C   0  0  2  0  0  0  0  0  0  0  0  0
   27.1285  -20.4447  -18.4655 C   0  0  0  0  0  0  0  0  0  0  0  0
   28.4625  -22.0906  -17.1290 C   0  0  2  0  0  0  0  0  0  0  0  0
   29.1024  -23.3828  -17.2321 N   0  0  0  0  0  0  0  0  0  0  0  0
   27.4378  -22.1482  -16.0608 C   0  0  0  0  0  0  0  0  0  0  0  0
   26.6559  -23.1329  -16.1069 O   0  0  0  0  0  0  0  0  0  0  0  0
   23.4419  -20.4194   -8.4153 O   0  0  0  0  0  0  0  0  0  0  0  0
   24.3472  -20.4629   -9.4738 C   0  0  0  0  0  0  0  0  0  0  0  0
   24.0322  -19.8134  -10.6346 C   0  0  0  0  0  0  0  0  0  0  0  0
   24.9003  -19.8313  -11.7066 C   0  0  0  0  0  0  0  0  0  0  0  0
   26.1064  -20.4950  -11.6564 C   0  0  0  0  0  0  0  0  0  0  0  0
   26.9755  -20.4697  -12.8299 C   0  0  0  0  0  0  0  0  0  0  0  0
   26.4645  -21.2165  -14.0039 C   0  0  2  0  0  0  0  0  0  0  0  0
   27.4063  -21.1237  -15.0883 N   0  0  0  0  0  0  0  0  0  0  0  0
   25.1271  -20.7232  -14.4863 C   0  0  0  0  0  0  0  0  0  0  0  0
   24.9686  -19.6618  -15.1310 O   0  0  0  0  0  0  0  0  0  0  0  0
   26.4184  -21.1495  -10.4800 C   0  0  0  0  0  0  0  0  0  0  0  0
   25.5495  -21.1323   -9.4051 C   0  0  0  0  0  0  0  0  0  0  0  0
   23.9427  -21.4934  -14.2067 N   0  0  0  0  0  0  0  0  0  0  0  0
   22.6541  -20.9767  -14.5930 C   0  0  1  0  0  0  0  0  0  0  0  0
   22.2633  -21.5546  -15.9615 C   0  0  0  0  0  0  0  0  0  0  0  0
   22.9469  -20.5106  -17.2765 S   0  0  0  0  0  0  0  0  0  0  0  0
   21.6068  -21.2736  -13.5924 C   0  0  0  0  0  0  0  0  0  0  0  0
   20.3264  -20.7923  -13.8120 O   0  0  0  0  0  0  0  0  0  0  0  0
   21.8502  -21.9439  -12.5615 O   0  0  0  0  0  0  0  0  0  0  0  0
  1  2  1  0
  2  3  1  0
  3  5  1  0
  3  4  1  1
  5  6  1  6
  7  5  1  0
  7  8  2  0
  9 10  1  0
 10 20  2  0
 10 11  1  0
 11 12  2  0
 13 12  1  0
 13 14  1  0
 15 14  1  1
 15 16  1  0
 16  7  1  0
 17 15  1  0
 18 17  2  0
 19 13  2  0
 20 19  1  0
 21 17  1  0
 22 23  1  6
 22 21  1  0
 24 23  1  0
 25 22  1  0
 26 25  1  0
 27 25  2  0
M  END
$$$$
