IYC.pdb
     RDKit          3D

 27 27  0  0  1  0  0  0  0  0999 V2000
   28.8185  -26.0520  -18.7846 C   0  0  0  0  0  0  0  0  0  0  0  0
   28.2410  -24.8615  -18.0576 C   0  0  0  0  0  0  0  0  0  0  0  0
   26.7791  -25.0928  -17.7100 C   0  0  2  0  0  0  0  0  0  0  0  0
   26.0469  -25.4886  -18.9656 C   0  0  0  0  0  0  0  0  0  0  0  0
   26.2593  -23.7991  -17.1284 C   0  0  2  0  0  0  0  0  0  0  0  0
   27.1036  -23.4438  -16.0100 N   0  0  0  0  0  0  0  0  0  0  0  0
   24.8653  -23.9427  -16.6486 C   0  0  0  0  0  0  0  0  0  0  0  0
   23.9955  -24.1137  -17.5416 O   0  0  0  0  0  0  0  0  0  0  0  0
   25.1525  -19.8675  -10.2726 O   0  0  0  0  0  0  0  0  0  0  0  0
   24.6345  -20.9235  -11.0198 C   0  0  0  0  0  0  0  0  0  0  0  0
   25.4920  -21.8798  -11.4876 C   0  0  0  0  0  0  0  0  0  0  0  0
   25.0206  -22.9418  -12.2313 C   0  0  0  0  0  0  0  0  0  0  0  0
   23.6838  -23.0846  -12.5316 C   0  0  0  0  0  0  0  0  0  0  0  0
   23.2569  -24.2357  -13.3225 C   0  0  0  0  0  0  0  0  0  0  0  0
   23.2581  -24.0227  -14.7895 C   0  0  2  0  0  0  0  0  0  0  0  0
   24.6106  -23.8800  -15.2603 N   0  0  0  0  0  0  0  0  0  0  0  0
   22.4717  -22.8123  -15.2151 C   0  0  0  0  0  0  0  0  0  0  0  0
   22.9548  -21.6597  -15.2891 O   0  0  0  0  0  0  0  0  0  0  0  0
   22.8226  -22.1143  -12.0555 C   0  0  0  0  0  0  0  0  0  0  0  0
   23.2936  -21.0496  -11.3103 C   0  0  0  0  0  0  0  0  0  0  0  0
   21.0815  -22.9547  -15.5638 N   0  0  0  0  0  0  0  0  0  0  0  0
   20.2982  -21.7788  -15.8471 C   0  0  1  0  0  0  0  0  0  0  0  0
   19.2845  -22.0974  -16.9564 C   0  0  0  0  0  0  0  0  0  0  0  0
   18.2162  -20.6588  -17.2310 S   0  0  0  0  0  0  0  0  0  0  0  0
   19.6022  -21.2649  -14.6480 C   0  0  0  0  0  0  0  0  0  0  0  0
   19.5782  -19.8967  -14.4324 O   0  0  0  0  0  0  0  0  0  0  0  0
   19.0400  -22.0325  -13.8319 O   0  0  0  0  0  0  0  0  0  0  0  0
  1  2  1  0
  2  3  1  0
  3  5  1  0
  3  4  1  6
  5  6  1  1
  7  5  1  0
  7  8  2  0
  9 10  1  0
 10 20  2  0
 10 11  1  0
 11 12  2  0
 13 12  1  0
 13 14  1  0
 15 14  1  1
 15 16  1  0
 16  7  1  0
 17 15  1  0
 18 17  2  0
 19 13  2  0
 20 19  1  0
 21 17  1  0
 22 23  1  6
 22 21  1  0
 24 23  1  0
 25 22  1  0
 26 25  1  0
 27 25  2  0
M  END
$$$$
