IYC.pdb
     RDKit          3D

 27 27  0  0  1  0  0  0  0  0999 V2000
   31.3077   -9.9121  -18.6272 C   0  0  0  0  0  0  0  0  0  0  0  0
   30.4090  -10.7747  -17.7742 C   0  0  0  0  0  0  0  0  0  0  0  0
   28.9613  -10.3223  -17.8788 C   0  0  2  0  0  0  0  0  0  0  0  0
   28.8925   -8.8580  -17.5317 C   0  0  0  0  0  0  0  0  0  0  0  0
   28.1673  -11.1758  -16.9180 C   0  0  2  0  0  0  0  0  0  0  0  0
   28.3989  -12.5615  -17.2587 N   0  0  0  0  0  0  0  0  0  0  0  0
   26.7162  -10.8951  -17.0165 C   0  0  0  0  0  0  0  0  0  0  0  0
   26.0933  -11.5437  -17.8966 O   0  0  0  0  0  0  0  0  0  0  0  0
   18.4656   -9.4969  -14.7562 O   0  0  0  0  0  0  0  0  0  0  0  0
   19.8393   -9.7160  -14.8387 C   0  0  0  0  0  0  0  0  0  0  0  0
   20.6846   -8.8122  -14.2581 C   0  0  0  0  0  0  0  0  0  0  0  0
   22.0512   -8.9914  -14.3166 C   0  0  0  0  0  0  0  0  0  0  0  0
   22.6175  -10.0736  -14.9536 C   0  0  0  0  0  0  0  0  0  0  0  0
   24.0725  -10.1988  -14.9742 C   0  0  0  0  0  0  0  0  0  0  0  0
   24.7266   -9.6985  -16.2067 C   0  0  2  0  0  0  0  0  0  0  0  0
   26.1430   -9.9453  -16.1415 N   0  0  0  0  0  0  0  0  0  0  0  0
   24.5061   -8.2286  -16.4423 C   0  0  0  0  0  0  0  0  0  0  0  0
   25.0618   -7.3264  -15.7757 O   0  0  0  0  0  0  0  0  0  0  0  0
   21.7571  -10.9833  -15.5383 C   0  0  0  0  0  0  0  0  0  0  0  0
   20.3877  -10.8050  -15.4805 C   0  0  0  0  0  0  0  0  0  0  0  0
   23.6106   -7.8030  -17.4869 N   0  0  0  0  0  0  0  0  0  0  0  0
   23.3774   -6.3955  -17.6903 C   0  0  1  0  0  0  0  0  0  0  0  0
   23.6119   -6.0490  -19.1683 C   0  0  0  0  0  0  0  0  0  0  0  0
   25.3757   -6.2107  -19.5550 S   0  0  0  0  0  0  0  0  0  0  0  0
   22.0185   -5.9855  -17.2764 C   0  0  0  0  0  0  0  0  0  0  0  0
   21.8240   -4.6855  -16.8390 O   0  0  0  0  0  0  0  0  0  0  0  0
   21.0498   -6.7804  -17.3124 O   0  0  0  0  0  0  0  0  0  0  0  0
  1  2  1  0
  2  3  1  0
  3  5  1  0
  3  4  1  1
  5  6  1  6
  7  5  1  0
  7  8  2  0
  9 10  1  0
 10 20  2  0
 10 11  1  0
 11 12  2  0
 13 12  1  0
 13 14  1  0
 15 14  1  1
 15 16  1  0
 16  7  1  0
 17 15  1  0
 18 17  2  0
 19 13  2  0
 20 19  1  0
 21 17  1  0
 22 23  1  6
 22 21  1  0
 24 23  1  0
 25 22  1  0
 26 25  1  0
 27 25  2  0
M  END
$$$$
