IYC.pdb
     RDKit          3D

 27 27  0  0  1  0  0  0  0  0999 V2000
   29.1953  -12.5486  -16.1596 C   0  0  0  0  0  0  0  0  0  0  0  0
   27.7119  -12.8133  -16.0651 C   0  0  0  0  0  0  0  0  0  0  0  0
   26.9132  -11.6214  -16.5681 C   0  0  2  0  0  0  0  0  0  0  0  0
   27.2226  -10.4356  -15.6921 C   0  0  0  0  0  0  0  0  0  0  0  0
   25.4562  -12.0149  -16.5046 C   0  0  2  0  0  0  0  0  0  0  0  0
   25.2878  -13.2230  -17.2807 N   0  0  0  0  0  0  0  0  0  0  0  0
   24.5849  -10.9584  -17.0693 C   0  0  0  0  0  0  0  0  0  0  0  0
   24.6978  -10.7614  -18.3069 O   0  0  0  0  0  0  0  0  0  0  0  0
   19.5802  -14.5824  -15.5907 O   0  0  0  0  0  0  0  0  0  0  0  0
   20.0996  -13.3646  -16.0253 C   0  0  0  0  0  0  0  0  0  0  0  0
   20.8732  -13.3451  -17.1521 C   0  0  0  0  0  0  0  0  0  0  0  0
   21.4069  -12.1608  -17.6166 C   0  0  0  0  0  0  0  0  0  0  0  0
   21.1873  -10.9616  -16.9751 C   0  0  0  0  0  0  0  0  0  0  0  0
   21.7833   -9.7471  -17.5254 C   0  0  0  0  0  0  0  0  0  0  0  0
   22.9090   -9.1898  -16.7384 C   0  0  2  0  0  0  0  0  0  0  0  0
   23.7096  -10.2612  -16.2068 N   0  0  0  0  0  0  0  0  0  0  0  0
   22.4619   -8.3141  -15.5991 C   0  0  0  0  0  0  0  0  0  0  0  0
   22.6887   -8.5699  -14.3948 O   0  0  0  0  0  0  0  0  0  0  0  0
   20.4044  -10.9886  -15.8367 C   0  0  0  0  0  0  0  0  0  0  0  0
   19.8692  -12.1746  -15.3702 C   0  0  0  0  0  0  0  0  0  0  0  0
   21.7291   -7.1057  -15.8770 N   0  0  0  0  0  0  0  0  0  0  0  0
   21.4332   -6.1934  -14.8014 C   0  0  1  0  0  0  0  0  0  0  0  0
   22.7458   -5.7263  -14.1544 C   0  0  0  0  0  0  0  0  0  0  0  0
   22.3822   -4.5159  -12.8547 S   0  0  0  0  0  0  0  0  0  0  0  0
   20.6412   -5.0296  -15.2536 C   0  0  0  0  0  0  0  0  0  0  0  0
   19.9998   -4.2552  -14.3007 O   0  0  0  0  0  0  0  0  0  0  0  0
   20.5391   -4.7324  -16.4671 O   0  0  0  0  0  0  0  0  0  0  0  0
  1  2  1  0
  2  3  1  0
  3  5  1  0
  3  4  1  1
  5  6  1  6
  7  5  1  0
  7  8  2  0
  9 10  1  0
 10 20  2  0
 10 11  1  0
 11 12  2  0
 13 12  1  0
 13 14  1  0
 15 14  1  1
 15 16  1  0
 16  7  1  0
 17 15  1  0
 18 17  2  0
 19 13  2  0
 20 19  1  0
 21 17  1  0
 22 23  1  6
 22 21  1  0
 24 23  1  0
 25 22  1  0
 26 25  1  0
 27 25  2  0
M  END
$$$$
