IYC.pdb
     RDKit          3D

 27 27  0  0  1  0  0  0  0  0999 V2000
   26.0981  -16.9958  -18.2549 C   0  0  0  0  0  0  0  0  0  0  0  0
   26.0969  -16.5385  -16.8161 C   0  0  0  0  0  0  0  0  0  0  0  0
   25.3895  -17.5470  -15.9251 C   0  0  2  0  0  0  0  0  0  0  0  0
   24.0116  -17.0243  -15.6129 C   0  0  0  0  0  0  0  0  0  0  0  0
   26.2370  -17.7025  -14.6843 C   0  0  2  0  0  0  0  0  0  0  0  0
   27.5411  -18.1739  -15.0930 N   0  0  0  0  0  0  0  0  0  0  0  0
   25.6465  -18.6838  -13.7448 C   0  0  0  0  0  0  0  0  0  0  0  0
   24.4936  -18.4095  -13.3221 O   0  0  0  0  0  0  0  0  0  0  0  0
   22.1994  -23.1108  -17.3770 O   0  0  0  0  0  0  0  0  0  0  0  0
   23.1512  -22.8641  -16.3896 C   0  0  0  0  0  0  0  0  0  0  0  0
   22.7968  -23.0291  -15.0798 C   0  0  0  0  0  0  0  0  0  0  0  0
   23.7086  -22.7954  -14.0712 C   0  0  0  0  0  0  0  0  0  0  0  0
   24.9989  -22.3912  -14.3348 C   0  0  0  0  0  0  0  0  0  0  0  0
   25.9101  -22.1641  -13.2162 C   0  0  0  0  0  0  0  0  0  0  0  0
   25.7857  -20.8376  -12.5666 C   0  0  2  0  0  0  0  0  0  0  0  0
   26.3946  -19.8302  -13.3947 N   0  0  0  0  0  0  0  0  0  0  0  0
   26.4169  -20.7824  -11.2016 C   0  0  0  0  0  0  0  0  0  0  0  0
   27.6411  -20.6062  -11.0081 O   0  0  0  0  0  0  0  0  0  0  0  0
   25.3503  -22.2263  -15.6611 C   0  0  0  0  0  0  0  0  0  0  0  0
   24.4377  -22.4600  -16.6726 C   0  0  0  0  0  0  0  0  0  0  0  0
   25.5926  -20.9378  -10.0308 N   0  0  0  0  0  0  0  0  0  0  0  0
   26.1843  -20.7983   -8.7243 C   0  0  1  0  0  0  0  0  0  0  0  0
   26.7633  -19.3832   -8.5760 C   0  0  0  0  0  0  0  0  0  0  0  0
   27.2763  -19.1166   -6.8578 S   0  0  0  0  0  0  0  0  0  0  0  0
   25.2197  -21.0746   -7.6382 C   0  0  0  0  0  0  0  0  0  0  0  0
   25.7092  -21.3289   -6.3674 O   0  0  0  0  0  0  0  0  0  0  0  0
   23.9827  -21.0836   -7.8409 O   0  0  0  0  0  0  0  0  0  0  0  0
  1  2  1  0
  2  3  1  0
  3  5  1  0
  3  4  1  1
  5  6  1  6
  7  5  1  0
  7  8  2  0
  9 10  1  0
 10 20  2  0
 10 11  1  0
 11 12  2  0
 13 12  1  0
 13 14  1  0
 15 14  1  6
 15 16  1  0
 16  7  1  0
 17 15  1  0
 18 17  2  0
 19 13  2  0
 20 19  1  0
 21 17  1  0
 22 23  1  1
 22 21  1  0
 24 23  1  0
 25 22  1  0
 26 25  1  0
 27 25  2  0
M  END
$$$$
