IYC.pdb
     RDKit          3D

 27 27  0  0  1  0  0  0  0  0999 V2000
   23.9240  -35.2382  -15.3747 C   0  0  0  0  0  0  0  0  0  0  0  0
   24.9007  -34.1780  -14.9263 C   0  0  0  0  0  0  0  0  0  0  0  0
   25.4769  -34.5119  -13.5595 C   0  0  2  0  0  0  0  0  0  0  0  0
   25.9339  -35.9473  -13.5719 C   0  0  0  0  0  0  0  0  0  0  0  0
   24.3775  -34.2703  -12.5521 C   0  0  2  0  0  0  0  0  0  0  0  0
   23.9911  -32.8800  -12.6407 N   0  0  0  0  0  0  0  0  0  0  0  0
   24.8362  -34.5520  -11.1721 C   0  0  0  0  0  0  0  0  0  0  0  0
   25.1500  -35.7472  -10.9344 O   0  0  0  0  0  0  0  0  0  0  0  0
   27.6178  -33.1574   -2.9432 O   0  0  0  0  0  0  0  0  0  0  0  0
   27.1701  -32.9790   -4.2508 C   0  0  0  0  0  0  0  0  0  0  0  0
   27.8558  -33.5823   -5.2678 C   0  0  0  0  0  0  0  0  0  0  0  0
   27.4465  -33.4314   -6.5765 C   0  0  0  0  0  0  0  0  0  0  0  0
   26.3440  -32.6769   -6.9127 C   0  0  0  0  0  0  0  0  0  0  0  0
   25.9686  -32.5631   -8.3195 C   0  0  0  0  0  0  0  0  0  0  0  0
   25.3165  -33.7645   -8.8928 C   0  0  2  0  0  0  0  0  0  0  0  0
   24.8899  -33.4916  -10.2399 N   0  0  0  0  0  0  0  0  0  0  0  0
   24.1269  -34.2316   -8.0981 C   0  0  0  0  0  0  0  0  0  0  0  0
   23.0265  -33.6349   -8.0775 O   0  0  0  0  0  0  0  0  0  0  0  0
   25.6555  -32.0699   -5.8796 C   0  0  0  0  0  0  0  0  0  0  0  0
   26.0647  -32.2202   -4.5679 C   0  0  0  0  0  0  0  0  0  0  0  0
   24.2279  -35.4301   -7.3058 N   0  0  0  0  0  0  0  0  0  0  0  0
   23.1165  -35.8289   -6.4797 C   0  0  1  0  0  0  0  0  0  0  0  0
   22.6648  -37.2411   -6.8811 C   0  0  0  0  0  0  0  0  0  0  0  0
   21.4599  -37.8566   -5.6744 S   0  0  0  0  0  0  0  0  0  0  0  0
   23.4436  -35.7849   -5.0384 C   0  0  0  0  0  0  0  0  0  0  0  0
   22.4935  -35.2913   -4.1591 O   0  0  0  0  0  0  0  0  0  0  0  0
   24.5496  -36.1801   -4.6004 O   0  0  0  0  0  0  0  0  0  0  0  0
  1  2  1  0
  2  3  1  0
  3  5  1  0
  3  4  1  6
  5  6  1  1
  7  5  1  0
  7  8  2  0
  9 10  1  0
 10 20  2  0
 10 11  1  0
 11 12  2  0
 13 12  1  0
 13 14  1  0
 15 14  1  1
 15 16  1  0
 16  7  1  0
 17 15  1  0
 18 17  2  0
 19 13  2  0
 20 19  1  0
 21 17  1  0
 22 23  1  6
 22 21  1  0
 24 23  1  0
 25 22  1  0
 26 25  1  0
 27 25  2  0
M  END
$$$$
