IYC.pdb
     RDKit          3D

 27 27  0  0  1  0  0  0  0  0999 V2000
   19.1040  -18.2034  -18.8543 C   0  0  0  0  0  0  0  0  0  0  0  0
   19.1245  -16.7828  -19.3651 C   0  0  0  0  0  0  0  0  0  0  0  0
   19.3249  -15.7973  -18.2248 C   0  0  2  0  0  0  0  0  0  0  0  0
   18.2425  -16.0244  -17.2020 C   0  0  0  0  0  0  0  0  0  0  0  0
   19.2608  -14.4139  -18.8280 C   0  0  2  0  0  0  0  0  0  0  0  0
   20.2079  -14.3603  -19.9190 N   0  0  0  0  0  0  0  0  0  0  0  0
   19.6157  -13.3734  -17.8352 C   0  0  0  0  0  0  0  0  0  0  0  0
   18.9586  -13.3957  -16.7623 O   0  0  0  0  0  0  0  0  0  0  0  0
   25.5323  -15.9454  -16.2137 O   0  0  0  0  0  0  0  0  0  0  0  0
   24.7771  -14.7891  -16.3998 C   0  0  0  0  0  0  0  0  0  0  0  0
   24.5309  -14.3636  -17.6753 C   0  0  0  0  0  0  0  0  0  0  0  0
   23.7878  -13.2240  -17.9038 C   0  0  0  0  0  0  0  0  0  0  0  0
   23.2677  -12.4743  -16.8718 C   0  0  0  0  0  0  0  0  0  0  0  0
   22.4891  -11.2801  -17.1893 C   0  0  0  0  0  0  0  0  0  0  0  0
   21.0188  -11.4673  -17.1686 C   0  0  2  0  0  0  0  0  0  0  0  0
   20.6388  -12.4506  -18.1484 N   0  0  0  0  0  0  0  0  0  0  0  0
   20.2542  -10.1998  -17.4394 C   0  0  0  0  0  0  0  0  0  0  0  0
   19.8362   -9.8681  -18.5719 O   0  0  0  0  0  0  0  0  0  0  0  0
   23.5204  -12.9102  -15.5850 C   0  0  0  0  0  0  0  0  0  0  0  0
   24.2649  -14.0518  -15.3547 C   0  0  0  0  0  0  0  0  0  0  0  0
   19.9708   -9.2955  -16.3548 N   0  0  0  0  0  0  0  0  0  0  0  0
   19.2027   -8.1030  -16.6090 C   0  0  1  0  0  0  0  0  0  0  0  0
   17.8785   -8.4853  -17.2872 C   0  0  0  0  0  0  0  0  0  0  0  0
   16.8162   -7.0213  -17.4084 S   0  0  0  0  0  0  0  0  0  0  0  0
   18.9433   -7.3284  -15.3766 C   0  0  0  0  0  0  0  0  0  0  0  0
   18.9772   -5.9451  -15.4451 O   0  0  0  0  0  0  0  0  0  0  0  0
   18.6962   -7.8904  -14.2837 O   0  0  0  0  0  0  0  0  0  0  0  0
  1  2  1  0
  2  3  1  0
  3  5  1  0
  3  4  1  1
  5  6  1  6
  7  5  1  0
  7  8  2  0
  9 10  1  0
 10 20  2  0
 10 11  1  0
 11 12  2  0
 13 12  1  0
 13 14  1  0
 15 14  1  6
 15 16  1  0
 16  7  1  0
 17 15  1  0
 18 17  2  0
 19 13  2  0
 20 19  1  0
 21 17  1  0
 22 23  1  1
 22 21  1  0
 24 23  1  0
 25 22  1  0
 26 25  1  0
 27 25  2  0
M  END
$$$$
