GNH.pdb
     RDKit          3D

 23 23  0  0  1  0  0  0  0  0999 V2000
   17.7138  -15.7982  -16.2327 N   0  0  0  0  0  0  0  0  0  0  0  0
   18.0127  -15.0930  -17.4597 C   0  0  0  0  0  0  0  0  0  0  0  0
   18.2410  -13.6589  -17.1490 C   0  0  0  0  0  0  0  0  0  0  0  0
   18.7339  -12.8942  -18.0083 O   0  0  0  0  0  0  0  0  0  0  0  0
   14.6682  -11.5695  -14.3035 N   0  0  0  0  0  0  0  0  0  0  0  0
   15.7551  -11.0734  -15.0504 C   0  0  0  0  0  0  0  0  0  0  0  0
   15.5299  -10.5263  -16.1464 O   0  0  0  0  0  0  0  0  0  0  0  0
   17.1155  -11.1965  -14.5534 C   0  0  0  0  0  0  0  0  0  0  0  0
   18.0966  -11.7119  -15.5810 C   0  0  2  0  0  0  0  0  0  0  0  0
   17.9131  -13.0981  -15.8764 N   0  0  0  0  0  0  0  0  0  0  0  0
   19.5065  -11.4149  -15.1787 C   0  0  0  0  0  0  0  0  0  0  0  0
   20.1871  -12.3624  -14.7538 O   0  0  0  0  0  0  0  0  0  0  0  0
   20.0721  -10.1324  -15.2634 N   0  0  0  0  0  0  0  0  0  0  0  0
   21.4606   -9.7775  -15.1283 C   0  0  1  0  0  0  0  0  0  0  0  0
   22.3666  -10.6460  -15.9181 C   0  0  0  0  0  0  0  0  0  0  0  0
   23.7820  -10.3328  -15.6398 C   0  0  0  0  0  0  0  0  0  0  0  0
   24.6468  -10.8416  -14.7245 C   0  0  0  0  0  0  0  0  0  0  0  0
   25.8222  -10.2095  -14.8366 N   0  0  0  0  0  0  0  0  0  0  0  0
   25.7295   -9.2958  -15.8149 C   0  0  0  0  0  0  0  0  0  0  0  0
   24.4841   -9.3693  -16.3069 N   0  0  0  0  0  0  0  0  0  0  0  0
   21.7355   -8.3311  -15.2215 C   0  0  0  0  0  0  0  0  0  0  0  0
   21.0958   -7.6592  -16.1040 O   0  0  0  0  0  0  0  0  0  0  0  0
   22.6205   -7.6289  -14.4414 O   0  0  0  0  0  0  0  0  0  0  0  0
  2  3  1  0
  2  1  1  0
  3 10  1  0
  4  3  2  0
  6  8  1  0
  6  5  1  0
  7  6  2  0
  9  8  1  1
 10  9  1  0
 11  9  1  0
 12 11  2  0
 13 11  1  0
 14 15  1  6
 14 13  1  0
 15 16  1  0
 16 17  2  0
 18 17  1  0
 19 18  1  0
 20 19  2  0
 20 16  1  0
 21 14  1  0
 21 23  1  0
 22 21  2  0
M  END
$$$$
