GNH.pdb
     RDKit          3D

 23 23  0  0  1  0  0  0  0  0999 V2000
   17.5725  -11.8255  -17.0911 N   0  0  0  0  0  0  0  0  0  0  0  0
   17.9807  -11.1632  -15.8717 C   0  0  0  0  0  0  0  0  0  0  0  0
   18.8191   -9.9875  -16.2182 C   0  0  0  0  0  0  0  0  0  0  0  0
   19.4704   -9.9654  -17.2865 O   0  0  0  0  0  0  0  0  0  0  0  0
   17.7150   -6.3788  -16.8724 N   0  0  0  0  0  0  0  0  0  0  0  0
   18.2361   -5.8297  -15.6840 C   0  0  0  0  0  0  0  0  0  0  0  0
   17.7247   -4.7890  -15.2294 O   0  0  0  0  0  0  0  0  0  0  0  0
   19.3499   -6.4642  -14.9988 C   0  0  0  0  0  0  0  0  0  0  0  0
   19.8006   -7.7588  -15.6353 C   0  0  2  0  0  0  0  0  0  0  0  0
   18.9172   -8.8483  -15.3613 N   0  0  0  0  0  0  0  0  0  0  0  0
   21.2115   -8.0836  -15.2587 C   0  0  0  0  0  0  0  0  0  0  0  0
   21.3990   -8.5841  -14.1381 O   0  0  0  0  0  0  0  0  0  0  0  0
   22.3038   -7.8474  -16.1089 N   0  0  0  0  0  0  0  0  0  0  0  0
   23.6515   -8.3301  -15.9571 C   0  0  1  0  0  0  0  0  0  0  0  0
   23.7211   -9.7541  -15.5494 C   0  0  0  0  0  0  0  0  0  0  0  0
   25.1183  -10.2281  -15.5043 C   0  0  0  0  0  0  0  0  0  0  0  0
   26.2642   -9.5988  -15.1364 C   0  0  0  0  0  0  0  0  0  0  0  0
   27.2946  -10.4387  -15.2995 N   0  0  0  0  0  0  0  0  0  0  0  0
   26.8296  -11.6064  -15.7693 C   0  0  0  0  0  0  0  0  0  0  0  0
   25.5004  -11.4800  -15.8952 N   0  0  0  0  0  0  0  0  0  0  0  0
   24.5680   -7.9417  -17.0459 C   0  0  0  0  0  0  0  0  0  0  0  0
   24.0510   -7.6061  -18.1682 O   0  0  0  0  0  0  0  0  0  0  0  0
   25.9382   -7.9031  -16.9682 O   0  0  0  0  0  0  0  0  0  0  0  0
  2  3  1  0
  2  1  1  0
  3 10  1  0
  4  3  2  0
  6  8  1  0
  6  5  1  0
  7  6  2  0
  9  8  1  1
 10  9  1  0
 11  9  1  0
 12 11  2  0
 13 11  1  0
 14 15  1  6
 14 13  1  0
 15 16  1  0
 16 17  2  0
 18 17  1  0
 19 18  1  0
 20 19  2  0
 20 16  1  0
 21 14  1  0
 21 23  1  0
 22 21  2  0
M  END
$$$$
