GNH.pdb
     RDKit          3D

 23 23  0  0  1  0  0  0  0  0999 V2000
   26.4961  -10.9483  -21.6987 N   0  0  0  0  0  0  0  0  0  0  0  0
   25.5321  -10.8676  -20.6233 C   0  0  0  0  0  0  0  0  0  0  0  0
   26.2292  -11.0950  -19.3320 C   0  0  0  0  0  0  0  0  0  0  0  0
   25.8422  -10.5170  -18.2917 O   0  0  0  0  0  0  0  0  0  0  0  0
   26.2480  -13.3777  -16.1354 N   0  0  0  0  0  0  0  0  0  0  0  0
   27.2047  -14.2251  -16.7288 C   0  0  0  0  0  0  0  0  0  0  0  0
   27.2173  -15.4297  -16.4126 O   0  0  0  0  0  0  0  0  0  0  0  0
   28.1604  -13.7057  -17.6930 C   0  0  0  0  0  0  0  0  0  0  0  0
   28.0018  -12.2294  -17.9751 C   0  0  2  0  0  0  0  0  0  0  0  0
   27.3537  -11.9696  -19.2220 N   0  0  0  0  0  0  0  0  0  0  0  0
   29.3130  -11.5162  -17.8751 C   0  0  0  0  0  0  0  0  0  0  0  0
   30.0902  -11.6195  -18.8378 O   0  0  0  0  0  0  0  0  0  0  0  0
   29.6852  -10.7528  -16.7569 N   0  0  0  0  0  0  0  0  0  0  0  0
   30.8903   -9.9847  -16.5832 C   0  0  1  0  0  0  0  0  0  0  0  0
   32.1148  -10.7166  -16.9880 C   0  0  0  0  0  0  0  0  0  0  0  0
   33.3210   -9.8900  -16.7868 C   0  0  0  0  0  0  0  0  0  0  0  0
   33.7038   -9.1057  -15.7461 C   0  0  0  0  0  0  0  0  0  0  0  0
   34.8726   -8.5243  -16.0452 N   0  0  0  0  0  0  0  0  0  0  0  0
   35.2526   -8.9229  -17.2688 C   0  0  0  0  0  0  0  0  0  0  0  0
   34.3062   -9.7572  -17.7238 N   0  0  0  0  0  0  0  0  0  0  0  0
   30.8033   -8.5914  -17.0601 C   0  0  0  0  0  0  0  0  0  0  0  0
   31.7756   -7.8056  -16.7835 O   0  0  0  0  0  0  0  0  0  0  0  0
   29.7679   -8.0521  -17.7826 O   0  0  0  0  0  0  0  0  0  0  0  0
  2  3  1  0
  2  1  1  0
  3 10  1  0
  4  3  2  0
  6  8  1  0
  6  5  1  0
  7  6  2  0
  9  8  1  6
 10  9  1  0
 11  9  1  0
 12 11  2  0
 13 11  1  0
 14 15  1  6
 14 13  1  0
 15 16  1  0
 16 17  2  0
 18 17  1  0
 19 18  1  0
 20 19  2  0
 20 16  1  0
 21 14  1  0
 21 23  1  0
 22 21  2  0
M  END
$$$$
