GNH.pdb
     RDKit          3D

 23 23  0  0  1  0  0  0  0  0999 V2000
   12.6499  -12.6330  -12.2437 N   0  0  0  0  0  0  0  0  0  0  0  0
   12.8420  -11.3493  -12.8819 C   0  0  0  0  0  0  0  0  0  0  0  0
   14.2143  -10.8642  -12.5871 C   0  0  0  0  0  0  0  0  0  0  0  0
   14.5899  -10.7034  -11.4043 O   0  0  0  0  0  0  0  0  0  0  0  0
   16.8934  -12.7682  -13.9570 N   0  0  0  0  0  0  0  0  0  0  0  0
   17.6373  -11.8171  -14.6834 C   0  0  0  0  0  0  0  0  0  0  0  0
   18.4599  -12.2173  -15.5286 O   0  0  0  0  0  0  0  0  0  0  0  0
   17.4500  -10.3943  -14.4528 C   0  0  0  0  0  0  0  0  0  0  0  0
   16.4665  -10.0790  -13.3494 C   0  0  2  0  0  0  0  0  0  0  0  0
   15.1508  -10.5647  -13.6238 N   0  0  0  0  0  0  0  0  0  0  0  0
   16.4606   -8.6171  -13.0323 C   0  0  0  0  0  0  0  0  0  0  0  0
   15.7047   -7.8941  -13.7014 O   0  0  0  0  0  0  0  0  0  0  0  0
   17.2611   -8.0489  -12.0282 N   0  0  0  0  0  0  0  0  0  0  0  0
   17.3127   -6.6673  -11.6270 C   0  0  1  0  0  0  0  0  0  0  0  0
   17.4877   -6.4881  -10.1654 C   0  0  0  0  0  0  0  0  0  0  0  0
   16.2913   -6.9365   -9.4263 C   0  0  0  0  0  0  0  0  0  0  0  0
   15.1030   -7.4281   -9.8630 C   0  0  0  0  0  0  0  0  0  0  0  0
   14.3141   -7.6641   -8.8067 N   0  0  0  0  0  0  0  0  0  0  0  0
   14.9778   -7.3309   -7.6891 C   0  0  0  0  0  0  0  0  0  0  0  0
   16.1858   -6.8862   -8.0652 N   0  0  0  0  0  0  0  0  0  0  0  0
   18.1696   -5.8149  -12.4727 C   0  0  0  0  0  0  0  0  0  0  0  0
   19.0699   -6.3900  -13.1786 O   0  0  0  0  0  0  0  0  0  0  0  0
   18.0908   -4.4483  -12.5777 O   0  0  0  0  0  0  0  0  0  0  0  0
  2  3  1  0
  2  1  1  0
  3 10  1  0
  4  3  2  0
  6  8  1  0
  6  5  1  0
  7  6  2  0
  9  8  1  6
 10  9  1  0
 11  9  1  0
 12 11  2  0
 13 11  1  0
 14 15  1  1
 14 13  1  0
 15 16  1  0
 16 17  2  0
 18 17  1  0
 19 18  1  0
 20 19  2  0
 20 16  1  0
 21 14  1  0
 21 23  1  0
 22 21  2  0
M  END
$$$$
