GNH.pdb
     RDKit          3D

 23 23  0  0  1  0  0  0  0  0999 V2000
   15.9160  -10.7206  -17.2421 N   0  0  0  0  0  0  0  0  0  0  0  0
   16.6032  -11.4359  -16.1894 C   0  0  0  0  0  0  0  0  0  0  0  0
   17.7852  -10.6457  -15.7606 C   0  0  0  0  0  0  0  0  0  0  0  0
   17.6779   -9.7796  -14.8638 O   0  0  0  0  0  0  0  0  0  0  0  0
   22.5593   -8.8520  -15.0491 N   0  0  0  0  0  0  0  0  0  0  0  0
   22.6913  -10.0898  -15.7093 C   0  0  0  0  0  0  0  0  0  0  0  0
   23.8299  -10.5728  -15.8565 O   0  0  0  0  0  0  0  0  0  0  0  0
   21.5218  -10.7927  -16.2102 C   0  0  0  0  0  0  0  0  0  0  0  0
   20.2177  -10.0787  -15.9384 C   0  0  2  0  0  0  0  0  0  0  0  0
   19.0757  -10.8365  -16.3434 N   0  0  0  0  0  0  0  0  0  0  0  0
   20.2149   -8.7101  -16.5424 C   0  0  0  0  0  0  0  0  0  0  0  0
   19.9122   -8.6202  -17.7432 O   0  0  0  0  0  0  0  0  0  0  0  0
   20.5350   -7.5523  -15.8151 N   0  0  0  0  0  0  0  0  0  0  0  0
   20.1609   -6.1960  -16.1196 C   0  0  1  0  0  0  0  0  0  0  0  0
   18.7220   -6.0441  -16.4441 C   0  0  0  0  0  0  0  0  0  0  0  0
   18.4260   -4.6824  -16.9308 C   0  0  0  0  0  0  0  0  0  0  0  0
   18.8256   -4.0271  -18.0513 C   0  0  0  0  0  0  0  0  0  0  0  0
   18.3190   -2.7874  -18.0354 N   0  0  0  0  0  0  0  0  0  0  0  0
   17.5948   -2.6311  -16.9167 C   0  0  0  0  0  0  0  0  0  0  0  0
   17.6589   -3.7874  -16.2403 N   0  0  0  0  0  0  0  0  0  0  0  0
   20.7069   -5.1866  -15.1926 C   0  0  0  0  0  0  0  0  0  0  0  0
   20.4718   -3.9543  -15.4484 O   0  0  0  0  0  0  0  0  0  0  0  0
   21.4498   -5.4465  -14.0676 O   0  0  0  0  0  0  0  0  0  0  0  0
  2  3  1  0
  2  1  1  0
  3 10  1  0
  4  3  2  0
  6  8  1  0
  6  5  1  0
  7  6  2  0
  9  8  1  6
 10  9  1  0
 11  9  1  0
 12 11  2  0
 13 11  1  0
 14 15  1  1
 14 13  1  0
 15 16  1  0
 16 17  2  0
 18 17  1  0
 19 18  1  0
 20 19  2  0
 20 16  1  0
 21 14  1  0
 21 23  1  0
 22 21  2  0
M  END
$$$$
