GNH.pdb
     RDKit          3D

 23 23  0  0  1  0  0  0  0  0999 V2000
   26.5825  -24.3860  -16.3237 N   0  0  0  0  0  0  0  0  0  0  0  0
   27.1288  -23.2590  -15.6002 C   0  0  0  0  0  0  0  0  0  0  0  0
   26.1153  -22.7700  -14.6312 C   0  0  0  0  0  0  0  0  0  0  0  0
   24.9378  -23.1910  -14.6781 O   0  0  0  0  0  0  0  0  0  0  0  0
   25.0593  -21.4510   -9.0869 N   0  0  0  0  0  0  0  0  0  0  0  0
   25.0753  -20.7379  -10.3021 C   0  0  0  0  0  0  0  0  0  0  0  0
   24.2263  -19.8451  -10.4850 O   0  0  0  0  0  0  0  0  0  0  0  0
   26.0635  -21.0365  -11.3254 C   0  0  0  0  0  0  0  0  0  0  0  0
   25.4665  -21.3409  -12.6801 C   0  0  2  0  0  0  0  0  0  0  0  0
   26.4347  -21.8133  -13.6192 N   0  0  0  0  0  0  0  0  0  0  0  0
   24.7079  -20.1666  -13.2125 C   0  0  0  0  0  0  0  0  0  0  0  0
   25.3589  -19.1429  -13.4771 O   0  0  0  0  0  0  0  0  0  0  0  0
   23.3190  -20.1826  -13.4180 N   0  0  0  0  0  0  0  0  0  0  0  0
   22.5691  -19.4295  -14.3891 C   0  0  1  0  0  0  0  0  0  0  0  0
   23.1732  -19.4544  -15.7431 C   0  0  0  0  0  0  0  0  0  0  0  0
   24.1671  -18.3750  -15.9033 C   0  0  0  0  0  0  0  0  0  0  0  0
   24.7713  -17.5732  -14.9885 C   0  0  0  0  0  0  0  0  0  0  0  0
   25.5795  -16.7164  -15.6259 N   0  0  0  0  0  0  0  0  0  0  0  0
   25.5064  -16.9534  -16.9446 C   0  0  0  0  0  0  0  0  0  0  0  0
   24.6442  -17.9662  -17.1164 N   0  0  0  0  0  0  0  0  0  0  0  0
   21.1116  -19.6534  -14.3460 C   0  0  0  0  0  0  0  0  0  0  0  0
   20.3875  -19.0265  -15.1958 O   0  0  0  0  0  0  0  0  0  0  0  0
   20.4508  -20.4814  -13.4727 O   0  0  0  0  0  0  0  0  0  0  0  0
  2  3  1  0
  2  1  1  0
  3 10  1  0
  4  3  2  0
  6  8  1  0
  6  5  1  0
  7  6  2  0
  9  8  1  1
 10  9  1  0
 11  9  1  0
 12 11  2  0
 13 11  1  0
 14 15  1  6
 14 13  1  0
 15 16  1  0
 16 17  2  0
 18 17  1  0
 19 18  1  0
 20 19  2  0
 20 16  1  0
 21 14  1  0
 21 23  1  0
 22 21  2  0
M  END
$$$$
