GNH.pdb
     RDKit          3D

 23 23  0  0  1  0  0  0  0  0999 V2000
   27.9279  -21.2316  -15.5502 N   0  0  0  0  0  0  0  0  0  0  0  0
   27.0584  -20.2041  -15.0207 C   0  0  0  0  0  0  0  0  0  0  0  0
   25.8821  -20.8484  -14.3832 C   0  0  0  0  0  0  0  0  0  0  0  0
   25.2043  -21.6933  -15.0098 O   0  0  0  0  0  0  0  0  0  0  0  0
   26.0881  -20.9251   -9.1990 N   0  0  0  0  0  0  0  0  0  0  0  0
   25.5066  -21.5506  -10.3197 C   0  0  0  0  0  0  0  0  0  0  0  0
   26.0324  -22.5866  -10.7686 O   0  0  0  0  0  0  0  0  0  0  0  0
   24.3146  -20.9992  -10.9426 C   0  0  0  0  0  0  0  0  0  0  0  0
   24.3104  -21.1025  -12.4504 C   0  0  2  0  0  0  0  0  0  0  0  0
   25.4790  -20.5373  -13.0482 N   0  0  0  0  0  0  0  0  0  0  0  0
   23.0587  -20.5219  -13.0283 C   0  0  0  0  0  0  0  0  0  0  0  0
   22.9051  -19.2936  -12.9312 O   0  0  0  0  0  0  0  0  0  0  0  0
   22.0759  -21.2999  -13.6613 N   0  0  0  0  0  0  0  0  0  0  0  0
   20.8468  -20.8435  -14.2557 C   0  0  1  0  0  0  0  0  0  0  0  0
   20.7115  -21.2200  -15.6835 C   0  0  0  0  0  0  0  0  0  0  0  0
   21.8976  -20.8066  -16.4586 C   0  0  0  0  0  0  0  0  0  0  0  0
   22.8008  -21.5333  -17.1663 C   0  0  0  0  0  0  0  0  0  0  0  0
   23.7257  -20.7068  -17.6714 N   0  0  0  0  0  0  0  0  0  0  0  0
   23.4325  -19.4514  -17.2992 C   0  0  0  0  0  0  0  0  0  0  0  0
   22.3162  -19.5100  -16.5582 N   0  0  0  0  0  0  0  0  0  0  0  0
   19.6458  -21.0679  -13.4290 C   0  0  0  0  0  0  0  0  0  0  0  0
   18.5412  -20.5628  -13.8342 O   0  0  0  0  0  0  0  0  0  0  0  0
   19.5992  -21.7771  -12.2544 O   0  0  0  0  0  0  0  0  0  0  0  0
  2  3  1  0
  2  1  1  0
  3 10  1  0
  4  3  2  0
  6  8  1  0
  6  5  1  0
  7  6  2  0
  9  8  1  1
 10  9  1  0
 11  9  1  0
 12 11  2  0
 13 11  1  0
 14 15  1  6
 14 13  1  0
 15 16  1  0
 16 17  2  0
 18 17  1  0
 19 18  1  0
 20 19  2  0
 20 16  1  0
 21 14  1  0
 21 23  1  0
 22 21  2  0
M  END
$$$$
