GNH.pdb
     RDKit          3D

 23 23  0  0  1  0  0  0  0  0999 V2000
   18.3867  -14.5033  -15.3268 N   0  0  0  0  0  0  0  0  0  0  0  0
   17.1604  -13.7862  -15.0548 C   0  0  0  0  0  0  0  0  0  0  0  0
   17.3039  -12.3867  -15.5303 C   0  0  0  0  0  0  0  0  0  0  0  0
   18.0572  -12.1177  -16.4927 O   0  0  0  0  0  0  0  0  0  0  0  0
   15.2011   -7.4789  -17.1373 N   0  0  0  0  0  0  0  0  0  0  0  0
   15.5539   -7.8182  -15.8159 C   0  0  0  0  0  0  0  0  0  0  0  0
   15.9674   -6.9218  -15.0564 O   0  0  0  0  0  0  0  0  0  0  0  0
   15.4382   -9.1885  -15.3450 C   0  0  0  0  0  0  0  0  0  0  0  0
   16.7423   -9.9522  -15.3630 C   0  0  2  0  0  0  0  0  0  0  0  0
   16.5997  -11.3035  -14.9202 N   0  0  0  0  0  0  0  0  0  0  0  0
   17.8030   -9.2285  -14.5953 C   0  0  0  0  0  0  0  0  0  0  0  0
   18.0574   -9.6408  -13.4521 O   0  0  0  0  0  0  0  0  0  0  0  0
   18.5032   -8.1262  -15.1113 N   0  0  0  0  0  0  0  0  0  0  0  0
   19.6166   -7.4380  -14.5121 C   0  0  1  0  0  0  0  0  0  0  0  0
   20.6756   -8.3530  -14.0221 C   0  0  0  0  0  0  0  0  0  0  0  0
   21.5135   -8.8429  -15.1342 C   0  0  0  0  0  0  0  0  0  0  0  0
   21.4700   -8.5850  -16.4669 C   0  0  0  0  0  0  0  0  0  0  0  0
   22.4242   -9.2972  -17.0801 N   0  0  0  0  0  0  0  0  0  0  0  0
   23.0865  -10.0145  -16.1597 C   0  0  0  0  0  0  0  0  0  0  0  0
   22.5318   -9.7387  -14.9702 N   0  0  0  0  0  0  0  0  0  0  0  0
   20.0972   -6.2699  -15.2742 C   0  0  0  0  0  0  0  0  0  0  0  0
   21.0116   -5.5478  -14.7432 O   0  0  0  0  0  0  0  0  0  0  0  0
   19.6537   -5.8805  -16.5137 O   0  0  0  0  0  0  0  0  0  0  0  0
  2  3  1  0
  2  1  1  0
  3 10  1  0
  4  3  2  0
  6  8  1  0
  6  5  1  0
  7  6  2  0
  9  8  1  1
 10  9  1  0
 11  9  1  0
 12 11  2  0
 13 11  1  0
 14 15  1  6
 14 13  1  0
 15 16  1  0
 16 17  2  0
 18 17  1  0
 19 18  1  0
 20 19  2  0
 20 16  1  0
 21 14  1  0
 21 23  1  0
 22 21  2  0
M  END
$$$$
