GNH.pdb
     RDKit          3D

 23 23  0  0  1  0  0  0  0  0999 V2000
   30.9156  -28.6278  -19.4858 N   0  0  0  0  0  0  0  0  0  0  0  0
   29.4957  -28.3647  -19.4036 C   0  0  0  0  0  0  0  0  0  0  0  0
   29.1315  -28.1198  -17.9849 C   0  0  0  0  0  0  0  0  0  0  0  0
   30.0141  -28.0968  -17.0981 O   0  0  0  0  0  0  0  0  0  0  0  0
   28.2319  -24.4678  -17.9492 N   0  0  0  0  0  0  0  0  0  0  0  0
   27.4845  -24.9811  -16.8705 C   0  0  0  0  0  0  0  0  0  0  0  0
   26.3464  -24.5225  -16.6572 O   0  0  0  0  0  0  0  0  0  0  0  0
   28.0293  -26.0270  -16.0207 C   0  0  0  0  0  0  0  0  0  0  0  0
   27.4427  -27.3948  -16.2841 C   0  0  2  0  0  0  0  0  0  0  0  0
   27.7795  -27.9030  -17.5767 N   0  0  0  0  0  0  0  0  0  0  0  0
   25.9643  -27.4018  -16.0559 C   0  0  0  0  0  0  0  0  0  0  0  0
   25.5423  -26.8072  -15.0509 O   0  0  0  0  0  0  0  0  0  0  0  0
   25.0602  -28.0423  -16.9185 N   0  0  0  0  0  0  0  0  0  0  0  0
   23.6265  -27.9130  -16.9366 C   0  0  1  0  0  0  0  0  0  0  0  0
   23.1619  -26.5175  -16.7486 C   0  0  0  0  0  0  0  0  0  0  0  0
   22.4420  -26.3630  -15.4693 C   0  0  0  0  0  0  0  0  0  0  0  0
   22.2034  -27.2463  -14.4656 C   0  0  0  0  0  0  0  0  0  0  0  0
   21.4717  -26.6438  -13.5194 N   0  0  0  0  0  0  0  0  0  0  0  0
   21.2330  -25.3789  -13.8981 C   0  0  0  0  0  0  0  0  0  0  0  0
   21.8247  -25.2051  -15.0890 N   0  0  0  0  0  0  0  0  0  0  0  0
   22.9575  -28.6587  -18.0195 C   0  0  0  0  0  0  0  0  0  0  0  0
   23.5703  -28.7606  -19.1391 O   0  0  0  0  0  0  0  0  0  0  0  0
   21.7272  -29.2626  -17.9388 O   0  0  0  0  0  0  0  0  0  0  0  0
  2  3  1  0
  2  1  1  0
  3 10  1  0
  4  3  2  0
  6  8  1  0
  6  5  1  0
  7  6  2  0
  9  8  1  6
 10  9  1  0
 11  9  1  0
 12 11  2  0
 13 11  1  0
 14 15  1  6
 14 13  1  0
 15 16  1  0
 16 17  2  0
 18 17  1  0
 19 18  1  0
 20 19  2  0
 20 16  1  0
 21 14  1  0
 21 23  1  0
 22 21  2  0
M  END
$$$$
