GNH.pdb
     RDKit          3D

 23 23  0  0  1  0  0  0  0  0999 V2000
   27.4171  -22.0769  -16.7816 N   0  0  0  0  0  0  0  0  0  0  0  0
   27.6685  -21.1567  -15.6943 C   0  0  0  0  0  0  0  0  0  0  0  0
   26.6939  -21.4186  -14.6049 C   0  0  0  0  0  0  0  0  0  0  0  0
   25.7741  -22.2521  -14.7634 O   0  0  0  0  0  0  0  0  0  0  0  0
   25.6430  -20.4836   -8.5644 N   0  0  0  0  0  0  0  0  0  0  0  0
   25.4992  -21.0689   -9.8381 C   0  0  0  0  0  0  0  0  0  0  0  0
   24.5924  -21.9040  -10.0156 O   0  0  0  0  0  0  0  0  0  0  0  0
   26.3913  -20.7064  -10.9269 C   0  0  0  0  0  0  0  0  0  0  0  0
   25.8207  -20.9781  -12.2998 C   0  0  2  0  0  0  0  0  0  0  0  0
   26.7624  -20.7418  -13.3485 N   0  0  0  0  0  0  0  0  0  0  0  0
   24.5502  -20.2187  -12.5169 C   0  0  0  0  0  0  0  0  0  0  0  0
   24.5738  -18.9974  -12.2944 O   0  0  0  0  0  0  0  0  0  0  0  0
   23.3614  -20.8254  -12.9531 N   0  0  0  0  0  0  0  0  0  0  0  0
   22.1775  -20.1743  -13.4499 C   0  0  1  0  0  0  0  0  0  0  0  0
   22.4687  -19.0817  -14.4092 C   0  0  0  0  0  0  0  0  0  0  0  0
   21.2368  -18.3621  -14.7877 C   0  0  0  0  0  0  0  0  0  0  0  0
   20.2439  -17.8295  -14.0293 C   0  0  0  0  0  0  0  0  0  0  0  0
   19.3137  -17.3029  -14.8363 N   0  0  0  0  0  0  0  0  0  0  0  0
   19.6923  -17.4879  -16.1102 C   0  0  0  0  0  0  0  0  0  0  0  0
   20.8668  -18.1348  -16.0829 N   0  0  0  0  0  0  0  0  0  0  0  0
   21.0954  -21.0930  -13.8518 C   0  0  0  0  0  0  0  0  0  0  0  0
   19.9416  -20.5886  -14.0836 O   0  0  0  0  0  0  0  0  0  0  0  0
   21.2103  -22.4525  -14.0048 O   0  0  0  0  0  0  0  0  0  0  0  0
  2  3  1  0
  2  1  1  0
  3 10  1  0
  4  3  2  0
  6  8  1  0
  6  5  1  0
  7  6  2  0
  9  8  1  1
 10  9  1  0
 11  9  1  0
 12 11  2  0
 13 11  1  0
 14 15  1  6
 14 13  1  0
 15 16  1  0
 16 17  2  0
 18 17  1  0
 19 18  1  0
 20 19  2  0
 20 16  1  0
 21 14  1  0
 21 23  1  0
 22 21  2  0
M  END
$$$$
