GNH.pdb
     RDKit          3D

 23 23  0  0  1  0  0  0  0  0999 V2000
   42.8031  -10.2241   -5.3764 N   0  0  0  0  0  0  0  0  0  0  0  0
   42.0840  -10.2843   -6.6299 C   0  0  0  0  0  0  0  0  0  0  0  0
   41.9305   -8.9076   -7.1651 C   0  0  0  0  0  0  0  0  0  0  0  0
   41.4886   -7.9899   -6.4381 O   0  0  0  0  0  0  0  0  0  0  0  0
   45.2431   -7.3915  -10.7797 N   0  0  0  0  0  0  0  0  0  0  0  0
   44.2514   -6.8338   -9.9484 C   0  0  0  0  0  0  0  0  0  0  0  0
   44.6036   -6.2171   -8.9253 O   0  0  0  0  0  0  0  0  0  0  0  0
   42.8424   -6.9739  -10.2766 C   0  0  0  0  0  0  0  0  0  0  0  0
   41.9689   -7.3044   -9.0883 C   0  0  2  0  0  0  0  0  0  0  0  0
   42.2751   -8.5756   -8.5114 N   0  0  0  0  0  0  0  0  0  0  0  0
   40.5183   -7.1906   -9.4357 C   0  0  0  0  0  0  0  0  0  0  0  0
   40.0774   -7.9713  -10.2947 O   0  0  0  0  0  0  0  0  0  0  0  0
   39.6597   -6.2541   -8.8379 N   0  0  0  0  0  0  0  0  0  0  0  0
   38.2643   -6.0408   -9.1202 C   0  0  1  0  0  0  0  0  0  0  0  0
   37.4131   -6.0494   -7.9060 C   0  0  0  0  0  0  0  0  0  0  0  0
   37.3582   -7.3955   -7.3029 C   0  0  0  0  0  0  0  0  0  0  0  0
   37.9135   -8.5725   -7.6917 C   0  0  0  0  0  0  0  0  0  0  0  0
   37.5485   -9.5319   -6.8315 N   0  0  0  0  0  0  0  0  0  0  0  0
   36.7623   -8.9903   -5.8886 C   0  0  0  0  0  0  0  0  0  0  0  0
   36.6447   -7.6853   -6.1746 N   0  0  0  0  0  0  0  0  0  0  0  0
   37.9916   -4.9474  -10.0723 C   0  0  0  0  0  0  0  0  0  0  0  0
   38.9241   -4.0958  -10.2839 O   0  0  0  0  0  0  0  0  0  0  0  0
   36.8204   -4.7556  -10.7625 O   0  0  0  0  0  0  0  0  0  0  0  0
  2  3  1  0
  2  1  1  0
  3 10  1  0
  4  3  2  0
  6  8  1  0
  6  5  1  0
  7  6  2  0
  9  8  1  6
 10  9  1  0
 11  9  1  0
 12 11  2  0
 13 11  1  0
 14 15  1  1
 14 13  1  0
 15 16  1  0
 16 17  2  0
 18 17  1  0
 19 18  1  0
 20 19  2  0
 20 16  1  0
 21 14  1  0
 21 23  1  0
 22 21  2  0
M  END
$$$$
