PII.pdb
     RDKit          3D

 24 24  0  0  1  0  0  0  0  0999 V2000
   28.2690  -21.7932  -16.4615 N   0  0  0  0  0  0  0  0  0  0  0  0
   28.9949  -21.1339  -17.5092 C   0  0  0  0  0  0  0  0  0  0  0  0
   28.2968  -19.8233  -17.6972 C   0  0  0  0  0  0  0  0  0  0  0  0
   27.3929  -19.6266  -16.4842 C   0  0  0  0  0  0  0  0  0  0  0  0
   27.8723  -20.7244  -15.5735 C   0  0  1  0  0  0  0  0  0  0  0  0
   26.8509  -21.1806  -14.6154 C   0  0  0  0  0  0  0  0  0  0  0  0
   26.0924  -22.1200  -14.9571 O   0  0  0  0  0  0  0  0  0  0  0  0
   25.3016  -20.9801   -8.6387 C   0  0  0  0  0  0  0  0  0  0  0  0
   24.9984  -21.2688  -10.0660 C   0  0  0  0  0  0  0  0  0  0  0  0
   26.0717  -20.8406  -11.0274 C   0  0  2  0  0  0  0  0  0  0  0  0
   26.4837  -19.4446  -10.6926 C   0  0  0  0  0  0  0  0  0  0  0  0
   25.6084  -21.0426  -12.4190 C   0  0  2  0  0  0  0  0  0  0  0  0
   26.6659  -20.6251  -13.3230 N   0  0  0  0  0  0  0  0  0  0  0  0
   24.3532  -20.3008  -12.7349 C   0  0  0  0  0  0  0  0  0  0  0  0
   24.3087  -19.0459  -12.7979 O   0  0  0  0  0  0  0  0  0  0  0  0
   20.9028  -22.4516  -16.3555 C   0  0  0  0  0  0  0  0  0  0  0  0
   21.2065  -22.1013  -14.9000 C   0  0  0  0  0  0  0  0  0  0  0  0
   21.5093  -20.6329  -14.7562 C   0  0  2  0  0  0  0  0  0  0  0  0
   22.5003  -20.2120  -15.8180 C   0  0  0  0  0  0  0  0  0  0  0  0
   21.9076  -20.3195  -13.3636 C   0  0  2  0  0  0  0  0  0  0  0  0
   23.1466  -20.9991  -12.9791 N   0  0  0  0  0  0  0  0  0  0  0  0
   20.8601  -20.7466  -12.4182 C   0  0  0  0  0  0  0  0  0  0  0  0
   20.9319  -21.7094  -11.6184 O   0  0  0  0  0  0  0  0  0  0  0  0
   19.6320  -20.0460  -12.3567 O   0  0  0  0  0  0  0  0  0  0  0  0
  1  5  1  0
  2  1  1  0
  2  3  1  0
  3  4  1  0
  5  4  1  0
  5  6  1  1
  7  6  2  0
  9  8  1  0
  9 10  1  0
 10 12  1  0
 10 11  1  6
 12 13  1  6
 13  6  1  0
 14 12  1  0
 14 15  2  0
 16 17  1  0
 17 18  1  0
 18 19  1  6
 18 20  1  0
 20 21  1  1
 20 22  1  0
 21 14  1  0
 22 24  1  0
 23 22  2  0
M  END
$$$$
