PII.pdb
     RDKit          3D

 24 24  0  0  1  0  0  0  0  0999 V2000
   22.9693  -19.6417  -12.3440 N   0  0  0  0  0  0  0  0  0  0  0  0
   22.0155  -19.4990  -13.4067 C   0  0  0  0  0  0  0  0  0  0  0  0
   22.1882  -20.7249  -14.2480 C   0  0  0  0  0  0  0  0  0  0  0  0
   23.0067  -21.7139  -13.4242 C   0  0  0  0  0  0  0  0  0  0  0  0
   22.9891  -21.0602  -12.0689 C   0  0  1  0  0  0  0  0  0  0  0  0
   24.1420  -21.4226  -11.2271 C   0  0  0  0  0  0  0  0  0  0  0  0
   24.2095  -22.5945  -10.7835 O   0  0  0  0  0  0  0  0  0  0  0  0
   29.9703  -21.4525  -11.3015 C   0  0  0  0  0  0  0  0  0  0  0  0
   28.7229  -21.5617  -10.4986 C   0  0  0  0  0  0  0  0  0  0  0  0
   27.5384  -20.8519  -11.0926 C   0  0  2  0  0  0  0  0  0  0  0  0
   27.9494  -19.4646  -11.4633 C   0  0  0  0  0  0  0  0  0  0  0  0
   26.3853  -20.9400  -10.1680 C   0  0  2  0  0  0  0  0  0  0  0  0
   25.1887  -20.5292  -10.8817 N   0  0  0  0  0  0  0  0  0  0  0  0
   26.5504  -20.1085   -8.9405 C   0  0  0  0  0  0  0  0  0  0  0  0
   26.1037  -18.9365   -8.8543 O   0  0  0  0  0  0  0  0  0  0  0  0
   28.8754  -20.6004   -3.1582 C   0  0  0  0  0  0  0  0  0  0  0  0
   27.9738  -19.9147   -4.1832 C   0  0  0  0  0  0  0  0  0  0  0  0
   27.9491  -20.6887   -5.4750 C   0  0  2  0  0  0  0  0  0  0  0  0
   29.3291  -21.2333   -5.7676 C   0  0  0  0  0  0  0  0  0  0  0  0
   27.3521  -19.8716   -6.5578 C   0  0  2  0  0  0  0  0  0  0  0  0
   27.2291  -20.6217   -7.8095 N   0  0  0  0  0  0  0  0  0  0  0  0
   28.1885  -18.6894   -6.8338 C   0  0  0  0  0  0  0  0  0  0  0  0
   29.0231  -18.5729   -7.7621 O   0  0  0  0  0  0  0  0  0  0  0  0
   28.0890  -17.5425   -6.0106 O   0  0  0  0  0  0  0  0  0  0  0  0
  1  5  1  0
  2  1  1  0
  2  3  1  0
  3  4  1  0
  5  4  1  0
  5  6  1  1
  7  6  2  0
  9  8  1  0
  9 10  1  0
 10 12  1  0
 10 11  1  1
 12 13  1  6
 13  6  1  0
 14 12  1  0
 14 15  2  0
 16 17  1  0
 17 18  1  0
 18 19  1  6
 18 20  1  0
 20 21  1  6
 20 22  1  0
 21 14  1  0
 22 24  1  0
 23 22  2  0
M  END
$$$$
