PII.pdb
     RDKit          3D

 24 24  0  0  1  0  0  0  0  0999 V2000
   22.1241  -13.4132  -19.1517 N   0  0  0  0  0  0  0  0  0  0  0  0
   21.6602  -14.6180  -19.7782 C   0  0  0  0  0  0  0  0  0  0  0  0
   21.2935  -15.5257  -18.6460 C   0  0  0  0  0  0  0  0  0  0  0  0
   21.2277  -14.6614  -17.3908 C   0  0  0  0  0  0  0  0  0  0  0  0
   21.2926  -13.2772  -17.9776 C   0  0  1  0  0  0  0  0  0  0  0  0
   21.8407  -12.2718  -17.0513 C   0  0  0  0  0  0  0  0  0  0  0  0
   21.1860  -11.9970  -16.0167 O   0  0  0  0  0  0  0  0  0  0  0  0
   27.0058  -12.0512  -16.0538 C   0  0  0  0  0  0  0  0  0  0  0  0
   25.5313  -11.8855  -15.9503 C   0  0  0  0  0  0  0  0  0  0  0  0
   25.0254  -10.5407  -16.3922 C   0  0  2  0  0  0  0  0  0  0  0  0
   25.6745   -9.4876  -15.5552 C   0  0  0  0  0  0  0  0  0  0  0  0
   23.5449  -10.5318  -16.3769 C   0  0  2  0  0  0  0  0  0  0  0  0
   23.0678  -11.5884  -17.2520 N   0  0  0  0  0  0  0  0  0  0  0  0
   22.9598   -9.2259  -16.7982 C   0  0  0  0  0  0  0  0  0  0  0  0
   23.2671   -8.6668  -17.8816 O   0  0  0  0  0  0  0  0  0  0  0  0
   17.9872   -6.3676  -17.8027 C   0  0  0  0  0  0  0  0  0  0  0  0
   19.3848   -6.1681  -17.2190 C   0  0  0  0  0  0  0  0  0  0  0  0
   20.0170   -7.4931  -16.8828 C   0  0  2  0  0  0  0  0  0  0  0  0
   19.0961   -8.2808  -15.9783 C   0  0  0  0  0  0  0  0  0  0  0  0
   21.3911   -7.2952  -16.3641 C   0  0  2  0  0  0  0  0  0  0  0  0
   22.0203   -8.5594  -15.9757 N   0  0  0  0  0  0  0  0  0  0  0  0
   21.3733   -6.4283  -15.1718 C   0  0  0  0  0  0  0  0  0  0  0  0
   21.1419   -5.1962  -15.1551 O   0  0  0  0  0  0  0  0  0  0  0  0
   21.6339   -6.9757  -13.8930 O   0  0  0  0  0  0  0  0  0  0  0  0
  1  5  1  0
  2  1  1  0
  2  3  1  0
  3  4  1  0
  5  4  1  0
  5  6  1  1
  7  6  2  0
  9  8  1  0
  9 10  1  0
 10 12  1  0
 10 11  1  1
 12 13  1  6
 13  6  1  0
 14 12  1  0
 14 15  2  0
 16 17  1  0
 17 18  1  0
 18 19  1  1
 18 20  1  0
 20 21  1  1
 20 22  1  0
 21 14  1  0
 22 24  1  0
 23 22  2  0
M  END
$$$$
