PII.pdb
     RDKit          3D

 24 24  0  0  1  0  0  0  0  0999 V2000
   27.0059  -19.6831  -14.8976 N   0  0  0  0  0  0  0  0  0  0  0  0
   27.8645  -20.1918  -15.9289 C   0  0  0  0  0  0  0  0  0  0  0  0
   29.0212  -20.8032  -15.2019 C   0  0  0  0  0  0  0  0  0  0  0  0
   28.6036  -20.9369  -13.7409 C   0  0  0  0  0  0  0  0  0  0  0  0
   27.1303  -20.6416  -13.8233 C   0  0  1  0  0  0  0  0  0  0  0  0
   26.5666  -20.1116  -12.5700 C   0  0  0  0  0  0  0  0  0  0  0  0
   26.5329  -18.8672  -12.4125 O   0  0  0  0  0  0  0  0  0  0  0  0
   21.9259  -20.3457  -11.5137 C   0  0  0  0  0  0  0  0  0  0  0  0
   23.3849  -20.0674  -11.4337 C   0  0  0  0  0  0  0  0  0  0  0  0
   24.0667  -20.6693  -10.2368 C   0  0  2  0  0  0  0  0  0  0  0  0
   23.3673  -20.2010   -9.0030 C   0  0  0  0  0  0  0  0  0  0  0  0
   25.5174  -20.3773  -10.2863 C   0  0  2  0  0  0  0  0  0  0  0  0
   26.0557  -20.9196  -11.5216 N   0  0  0  0  0  0  0  0  0  0  0  0
   26.2692  -20.9311   -9.1229 C   0  0  0  0  0  0  0  0  0  0  0  0
   26.5390  -22.1543   -9.0143 O   0  0  0  0  0  0  0  0  0  0  0  0
   29.9205  -18.9557   -4.4991 C   0  0  0  0  0  0  0  0  0  0  0  0
   29.1190  -20.0638   -5.1798 C   0  0  0  0  0  0  0  0  0  0  0  0
   28.3463  -19.5203   -6.3529 C   0  0  2  0  0  0  0  0  0  0  0  0
   27.6285  -18.2533   -5.9456 C   0  0  0  0  0  0  0  0  0  0  0  0
   27.4826  -20.5732   -6.9376 C   0  0  2  0  0  0  0  0  0  0  0  0
   26.7127  -20.0809   -8.0819 N   0  0  0  0  0  0  0  0  0  0  0  0
   26.5179  -21.0645   -5.9369 C   0  0  0  0  0  0  0  0  0  0  0  0
   25.2906  -20.8101   -5.9038 O   0  0  0  0  0  0  0  0  0  0  0  0
   26.9528  -21.9077   -4.8869 O   0  0  0  0  0  0  0  0  0  0  0  0
  1  5  1  0
  2  1  1  0
  2  3  1  0
  3  4  1  0
  5  4  1  0
  5  6  1  1
  7  6  2  0
  9  8  1  0
  9 10  1  0
 10 12  1  0
 10 11  1  1
 12 13  1  6
 13  6  1  0
 14 12  1  0
 14 15  2  0
 16 17  1  0
 17 18  1  0
 18 19  1  1
 18 20  1  0
 20 21  1  6
 20 22  1  0
 21 14  1  0
 22 24  1  0
 23 22  2  0
M  END
$$$$
