PII.pdb
     RDKit          3D

 24 24  0  0  1  0  0  0  0  0999 V2000
   29.7994  -21.7160  -17.3723 N   0  0  0  0  0  0  0  0  0  0  0  0
   30.4437  -22.7967  -18.0624 C   0  0  0  0  0  0  0  0  0  0  0  0
   30.9438  -23.7023  -16.9807 C   0  0  0  0  0  0  0  0  0  0  0  0
   30.2463  -23.2779  -15.6921 C   0  0  0  0  0  0  0  0  0  0  0  0
   29.1941  -22.3390  -16.2174 C   0  0  1  0  0  0  0  0  0  0  0  0
   28.7630  -21.3309  -15.2341 C   0  0  0  0  0  0  0  0  0  0  0  0
   29.5772  -20.4344  -14.9054 O   0  0  0  0  0  0  0  0  0  0  0  0
   26.3309  -17.6627  -16.3736 C   0  0  0  0  0  0  0  0  0  0  0  0
   27.0739  -18.6192  -15.5101 C   0  0  0  0  0  0  0  0  0  0  0  0
   26.2346  -19.2832  -14.4544 C   0  0  2  0  0  0  0  0  0  0  0  0
   25.5951  -18.2248  -13.6169 C   0  0  0  0  0  0  0  0  0  0  0  0
   27.0524  -20.2665  -13.7084 C   0  0  2  0  0  0  0  0  0  0  0  0
   27.4797  -21.3052  -14.6294 N   0  0  0  0  0  0  0  0  0  0  0  0
   26.3294  -20.8803  -12.5569 C   0  0  0  0  0  0  0  0  0  0  0  0
   25.5546  -21.8611  -12.6919 O   0  0  0  0  0  0  0  0  0  0  0  0
   28.3056  -19.9767   -7.4339 C   0  0  0  0  0  0  0  0  0  0  0  0
   27.6963  -20.7475   -8.6036 C   0  0  0  0  0  0  0  0  0  0  0  0
   26.2594  -20.3487   -8.8152 C   0  0  2  0  0  0  0  0  0  0  0  0
   25.4447  -20.7176   -7.5960 C   0  0  0  0  0  0  0  0  0  0  0  0
   25.7540  -20.8920  -10.0982 C   0  0  2  0  0  0  0  0  0  0  0  0
   26.4950  -20.3684  -11.2477 N   0  0  0  0  0  0  0  0  0  0  0  0
   24.3367  -20.5337  -10.2882 C   0  0  0  0  0  0  0  0  0  0  0  0
   23.9022  -19.4660  -10.7812 O   0  0  0  0  0  0  0  0  0  0  0  0
   23.3187  -21.4361   -9.8983 O   0  0  0  0  0  0  0  0  0  0  0  0
  1  5  1  0
  2  1  1  0
  2  3  1  0
  3  4  1  0
  5  4  1  0
  5  6  1  1
  7  6  2  0
  9  8  1  0
  9 10  1  0
 10 12  1  0
 10 11  1  1
 12 13  1  6
 13  6  1  0
 14 12  1  0
 14 15  2  0
 16 17  1  0
 17 18  1  0
 18 19  1  1
 18 20  1  0
 20 21  1  6
 20 22  1  0
 21 14  1  0
 22 24  1  0
 23 22  2  0
M  END
$$$$
