PII.pdb
     RDKit          3D

 24 24  0  0  1  0  0  0  0  0999 V2000
   30.2178  -20.1917  -11.5460 N   0  0  0  0  0  0  0  0  0  0  0  0
   31.6289  -20.3787  -11.7285 C   0  0  0  0  0  0  0  0  0  0  0  0
   31.8826  -21.8032  -11.3456 C   0  0  0  0  0  0  0  0  0  0  0  0
   30.5240  -22.4949  -11.2934 C   0  0  0  0  0  0  0  0  0  0  0  0
   29.6366  -21.4584  -11.9280 C   0  0  1  0  0  0  0  0  0  0  0  0
   28.2300  -21.5485  -11.5007 C   0  0  0  0  0  0  0  0  0  0  0  0
   27.5536  -22.5331  -11.8849 O   0  0  0  0  0  0  0  0  0  0  0  0
   27.3792  -19.7139   -6.7505 C   0  0  0  0  0  0  0  0  0  0  0  0
   27.2425  -20.5040   -8.0034 C   0  0  0  0  0  0  0  0  0  0  0  0
   26.1033  -20.0759   -8.8857 C   0  0  2  0  0  0  0  0  0  0  0  0
   24.8200  -20.3237   -8.1628 C   0  0  0  0  0  0  0  0  0  0  0  0
   26.2175  -20.7340  -10.2071 C   0  0  2  0  0  0  0  0  0  0  0  0
   27.5840  -20.5898  -10.6782 N   0  0  0  0  0  0  0  0  0  0  0  0
   25.2737  -20.1831  -11.2225 C   0  0  0  0  0  0  0  0  0  0  0  0
   25.2551  -18.9657  -11.5362 O   0  0  0  0  0  0  0  0  0  0  0  0
   25.3502  -21.5334  -15.9759 C   0  0  0  0  0  0  0  0  0  0  0  0
   25.0357  -20.8008  -14.6729 C   0  0  0  0  0  0  0  0  0  0  0  0
   23.6331  -21.1037  -14.2153 C   0  0  2  0  0  0  0  0  0  0  0  0
   22.6479  -20.6781  -15.2805 C   0  0  0  0  0  0  0  0  0  0  0  0
   23.3917  -20.5316  -12.8696 C   0  0  2  0  0  0  0  0  0  0  0  0
   24.3492  -21.0296  -11.8798 N   0  0  0  0  0  0  0  0  0  0  0  0
   22.0422  -20.8849  -12.3926 C   0  0  0  0  0  0  0  0  0  0  0  0
   21.7456  -21.8631  -11.6667 O   0  0  0  0  0  0  0  0  0  0  0  0
   20.9312  -20.0853  -12.7519 O   0  0  0  0  0  0  0  0  0  0  0  0
  1  5  1  0
  2  1  1  0
  2  3  1  0
  3  4  1  0
  5  4  1  0
  5  6  1  1
  7  6  2  0
  9  8  1  0
  9 10  1  0
 10 12  1  0
 10 11  1  1
 12 13  1  6
 13  6  1  0
 14 12  1  0
 14 15  2  0
 16 17  1  0
 17 18  1  0
 18 19  1  6
 18 20  1  0
 20 21  1  1
 20 22  1  0
 21 14  1  0
 22 24  1  0
 23 22  2  0
M  END
$$$$
