PII.pdb
     RDKit          3D

 24 24  0  0  1  0  0  0  0  0999 V2000
   28.5110  -20.6656  -15.7071 N   0  0  0  0  0  0  0  0  0  0  0  0
   29.1292  -19.7419  -16.6148 C   0  0  0  0  0  0  0  0  0  0  0  0
   28.1942  -18.5745  -16.6743 C   0  0  0  0  0  0  0  0  0  0  0  0
   27.2278  -18.7229  -15.5035 C   0  0  0  0  0  0  0  0  0  0  0  0
   27.8815  -19.8250  -14.7145 C   0  0  1  0  0  0  0  0  0  0  0  0
   26.9369  -20.5950  -13.8873 C   0  0  0  0  0  0  0  0  0  0  0  0
   26.4503  -21.6484  -14.3647 O   0  0  0  0  0  0  0  0  0  0  0  0
   27.1483  -20.4927   -8.5379 C   0  0  0  0  0  0  0  0  0  0  0  0
   26.8483  -20.9475   -9.9220 C   0  0  0  0  0  0  0  0  0  0  0  0
   25.5126  -20.4998  -10.4465 C   0  0  2  0  0  0  0  0  0  0  0  0
   24.4410  -21.0860   -9.5869 C   0  0  0  0  0  0  0  0  0  0  0  0
   25.4071  -20.8197  -11.8883 C   0  0  2  0  0  0  0  0  0  0  0  0
   26.5377  -20.2227  -12.5777 N   0  0  0  0  0  0  0  0  0  0  0  0
   24.1338  -20.3459  -12.5046 C   0  0  0  0  0  0  0  0  0  0  0  0
   23.8543  -19.1259  -12.6228 O   0  0  0  0  0  0  0  0  0  0  0  0
   20.8447  -21.4134  -17.3357 C   0  0  0  0  0  0  0  0  0  0  0  0
   20.7914  -20.9392  -15.8846 C   0  0  0  0  0  0  0  0  0  0  0  0
   22.0007  -21.4143  -15.1228 C   0  0  2  0  0  0  0  0  0  0  0  0
   22.0968  -22.9208  -15.2100 C   0  0  0  0  0  0  0  0  0  0  0  0
   21.9972  -20.8621  -13.7475 C   0  0  2  0  0  0  0  0  0  0  0  0
   23.1789  -21.2729  -12.9863 N   0  0  0  0  0  0  0  0  0  0  0  0
   20.8119  -21.3299  -13.0062 C   0  0  0  0  0  0  0  0  0  0  0  0
   19.6551  -20.8520  -13.0809 O   0  0  0  0  0  0  0  0  0  0  0  0
   20.9210  -22.4181  -12.1081 O   0  0  0  0  0  0  0  0  0  0  0  0
  1  5  1  0
  2  1  1  0
  2  3  1  0
  3  4  1  0
  5  4  1  0
  5  6  1  6
  7  6  2  0
  9  8  1  0
  9 10  1  0
 10 12  1  0
 10 11  1  1
 12 13  1  6
 13  6  1  0
 14 12  1  0
 14 15  2  0
 16 17  1  0
 17 18  1  0
 18 19  1  1
 18 20  1  0
 20 21  1  1
 20 22  1  0
 21 14  1  0
 22 24  1  0
 23 22  2  0
M  END
$$$$
