PII.pdb
     RDKit          3D

 24 24  0  0  1  0  0  0  0  0999 V2000
   28.1591  -21.4859  -15.1196 N   0  0  0  0  0  0  0  0  0  0  0  0
   28.8508  -21.5631  -16.3746 C   0  0  0  0  0  0  0  0  0  0  0  0
   28.6597  -20.2187  -17.0043 C   0  0  0  0  0  0  0  0  0  0  0  0
   28.1533  -19.2860  -15.9087 C   0  0  0  0  0  0  0  0  0  0  0  0
   28.3683  -20.1257  -14.6787 C   0  0  1  0  0  0  0  0  0  0  0  0
   27.4646  -19.7819  -13.5676 C   0  0  0  0  0  0  0  0  0  0  0  0
   27.5264  -18.6244  -13.0871 O   0  0  0  0  0  0  0  0  0  0  0  0
   22.6223  -20.1112  -14.4128 C   0  0  0  0  0  0  0  0  0  0  0  0
   23.9570  -19.8652  -13.8042 C   0  0  0  0  0  0  0  0  0  0  0  0
   24.1935  -20.5948  -12.5113 C   0  0  2  0  0  0  0  0  0  0  0  0
   23.0733  -20.2819  -11.5743 C   0  0  0  0  0  0  0  0  0  0  0  0
   25.5471  -20.2822  -11.9992 C   0  0  2  0  0  0  0  0  0  0  0  0
   26.5223  -20.6782  -13.0003 N   0  0  0  0  0  0  0  0  0  0  0  0
   25.8552  -20.9526  -10.7027 C   0  0  0  0  0  0  0  0  0  0  0  0
   26.0389  -22.1930  -10.6113 O   0  0  0  0  0  0  0  0  0  0  0  0
   28.7235  -18.4434   -6.7584 C   0  0  0  0  0  0  0  0  0  0  0  0
   28.1399  -19.5275   -7.6627 C   0  0  0  0  0  0  0  0  0  0  0  0
   26.7511  -19.9036   -7.2175 C   0  0  2  0  0  0  0  0  0  0  0  0
   26.7937  -20.4106   -5.7935 C   0  0  0  0  0  0  0  0  0  0  0  0
   26.1247  -20.8245   -8.1952 C   0  0  2  0  0  0  0  0  0  0  0  0
   25.9529  -20.1994   -9.5084 N   0  0  0  0  0  0  0  0  0  0  0  0
   24.7901  -21.2427   -7.7291 C   0  0  0  0  0  0  0  0  0  0  0  0
   24.5406  -22.2010   -6.9602 O   0  0  0  0  0  0  0  0  0  0  0  0
   23.6381  -20.5380   -8.1524 O   0  0  0  0  0  0  0  0  0  0  0  0
  1  5  1  0
  2  1  1  0
  2  3  1  0
  3  4  1  0
  5  4  1  0
  5  6  1  1
  7  6  2  0
  9  8  1  0
  9 10  1  0
 10 12  1  0
 10 11  1  1
 12 13  1  6
 13  6  1  0
 14 12  1  0
 14 15  2  0
 16 17  1  0
 17 18  1  0
 18 19  1  1
 18 20  1  0
 20 21  1  6
 20 22  1  0
 21 14  1  0
 22 24  1  0
 23 22  2  0
M  END
$$$$
