PII.pdb
     RDKit          3D

 24 24  0  0  1  0  0  0  0  0999 V2000
   18.6673  -15.4373  -16.9836 N   0  0  0  0  0  0  0  0  0  0  0  0
   17.7845  -15.9355  -17.9994 C   0  0  0  0  0  0  0  0  0  0  0  0
   17.2890  -14.7164  -18.7125 C   0  0  0  0  0  0  0  0  0  0  0  0
   18.1972  -13.5630  -18.2982 C   0  0  0  0  0  0  0  0  0  0  0  0
   19.3079  -14.2952  -17.5948 C   0  0  1  0  0  0  0  0  0  0  0  0
   20.0069  -13.4765  -16.5897 C   0  0  0  0  0  0  0  0  0  0  0  0
   19.3985  -13.1869  -15.5311 O   0  0  0  0  0  0  0  0  0  0  0  0
   25.0058  -14.2430  -15.3342 C   0  0  0  0  0  0  0  0  0  0  0  0
   23.5939  -13.7774  -15.2869 C   0  0  0  0  0  0  0  0  0  0  0  0
   23.3940  -12.3559  -15.7331 C   0  0  2  0  0  0  0  0  0  0  0  0
   24.1793  -11.4581  -14.8341 C   0  0  0  0  0  0  0  0  0  0  0  0
   21.9467  -12.0543  -15.8141 C   0  0  2  0  0  0  0  0  0  0  0  0
   21.3312  -12.9899  -16.7392 N   0  0  0  0  0  0  0  0  0  0  0  0
   21.6602  -10.6557  -16.2467 C   0  0  0  0  0  0  0  0  0  0  0  0
   22.0514  -10.1971  -17.3500 O   0  0  0  0  0  0  0  0  0  0  0  0
   17.1920   -8.6016  -17.2653 C   0  0  0  0  0  0  0  0  0  0  0  0
   18.7032   -8.7933  -17.1510 C   0  0  0  0  0  0  0  0  0  0  0  0
   19.2402   -8.0877  -15.9335 C   0  0  2  0  0  0  0  0  0  0  0  0
   18.8844   -6.6195  -15.9987 C   0  0  0  0  0  0  0  0  0  0  0  0
   20.6830   -8.3788  -15.7598 C   0  0  2  0  0  0  0  0  0  0  0  0
   20.9238   -9.7809  -15.4126 N   0  0  0  0  0  0  0  0  0  0  0  0
   21.2495   -7.5540  -14.6771 C   0  0  0  0  0  0  0  0  0  0  0  0
   21.3854   -7.8963  -13.4787 O   0  0  0  0  0  0  0  0  0  0  0  0
   21.7023   -6.2410  -14.9487 O   0  0  0  0  0  0  0  0  0  0  0  0
  1  5  1  0
  2  1  1  0
  2  3  1  0
  3  4  1  0
  5  4  1  0
  5  6  1  1
  7  6  2  0
  9  8  1  0
  9 10  1  0
 10 12  1  0
 10 11  1  1
 12 13  1  6
 13  6  1  0
 14 12  1  0
 14 15  2  0
 16 17  1  0
 17 18  1  0
 18 19  1  6
 18 20  1  0
 20 21  1  1
 20 22  1  0
 21 14  1  0
 22 24  1  0
 23 22  2  0
M  END
$$$$
