PII.pdb
     RDKit          3D

 24 24  0  0  1  0  0  0  0  0999 V2000
   28.0629  -32.5926  -14.1868 N   0  0  0  0  0  0  0  0  0  0  0  0
   28.2058  -32.6458  -15.6138 C   0  0  0  0  0  0  0  0  0  0  0  0
   27.8738  -34.0579  -15.9828 C   0  0  0  0  0  0  0  0  0  0  0  0
   27.1973  -34.6844  -14.7677 C   0  0  0  0  0  0  0  0  0  0  0  0
   26.9542  -33.4756  -13.9049 C   0  0  1  0  0  0  0  0  0  0  0  0
   26.8742  -33.7866  -12.4675 C   0  0  0  0  0  0  0  0  0  0  0  0
   27.9339  -33.7705  -11.7957 O   0  0  0  0  0  0  0  0  0  0  0  0
   25.6423  -31.6415   -8.6879 C   0  0  0  0  0  0  0  0  0  0  0  0
   24.8785  -32.1859   -9.8423 C   0  0  0  0  0  0  0  0  0  0  0  0
   24.5515  -33.6493   -9.7353 C   0  0  2  0  0  0  0  0  0  0  0  0
   24.2880  -33.9763   -8.3020 C   0  0  0  0  0  0  0  0  0  0  0  0
   25.6191  -34.4500  -10.3768 C   0  0  2  0  0  0  0  0  0  0  0  0
   25.6709  -34.1052  -11.7868 N   0  0  0  0  0  0  0  0  0  0  0  0
   25.4234  -35.9211  -10.2245 C   0  0  0  0  0  0  0  0  0  0  0  0
   24.5504  -36.5560  -10.8691 O   0  0  0  0  0  0  0  0  0  0  0  0
   29.6325  -39.3527   -9.7194 C   0  0  0  0  0  0  0  0  0  0  0  0
   28.3269  -38.6087   -9.9942 C   0  0  0  0  0  0  0  0  0  0  0  0
   27.3660  -38.7747   -8.8463 C   0  0  2  0  0  0  0  0  0  0  0  0
   27.2643  -40.2372   -8.4761 C   0  0  0  0  0  0  0  0  0  0  0  0
   26.0762  -38.1107   -9.1496 C   0  0  2  0  0  0  0  0  0  0  0  0
   26.2302  -36.6658   -9.3315 N   0  0  0  0  0  0  0  0  0  0  0  0
   25.1182  -38.3158   -8.0480 C   0  0  0  0  0  0  0  0  0  0  0  0
   24.9898  -37.5907   -7.0333 O   0  0  0  0  0  0  0  0  0  0  0  0
   24.2299  -39.4171   -8.0765 O   0  0  0  0  0  0  0  0  0  0  0  0
  1  5  1  0
  2  1  1  0
  2  3  1  0
  3  4  1  0
  5  4  1  0
  5  6  1  1
  7  6  2  0
  9  8  1  0
  9 10  1  0
 10 12  1  0
 10 11  1  1
 12 13  1  6
 13  6  1  0
 14 12  1  0
 14 15  2  0
 16 17  1  0
 17 18  1  0
 18 19  1  6
 18 20  1  0
 20 21  1  1
 20 22  1  0
 21 14  1  0
 22 24  1  0
 23 22  2  0
M  END
$$$$
