RNY.pdb
     RDKit          3D

 32 32  0  0  1  0  0  0  0  0999 V2000
   32.5506  -25.7091  -16.0005 N   0  0  0  0  0  0  0  0  0  0  0  0
   32.8668  -25.7131  -17.3793 C   0  0  0  0  0  0  0  0  0  0  0  0
   33.6247  -26.6373  -17.9033 N   0  0  0  0  0  0  0  0  0  0  0  0
   32.3464  -24.6921  -18.2107 N   0  0  0  0  0  0  0  0  0  0  0  0
   31.2033  -23.8922  -17.8816 C   0  0  0  0  0  0  0  0  0  0  0  0
   31.3449  -23.2366  -16.5571 C   0  0  0  0  0  0  0  0  0  0  0  0
   30.3013  -22.2204  -16.2814 C   0  0  0  0  0  0  0  0  0  0  0  0
   29.2175  -22.7946  -15.3509 C   0  0  2  0  0  0  0  0  0  0  0  0
   28.2923  -23.6461  -16.0424 N   0  0  0  0  0  0  0  0  0  0  0  0
   28.5099  -21.6304  -14.7820 C   0  0  0  0  0  0  0  0  0  0  0  0
   29.1774  -20.6041  -14.4165 O   0  0  0  0  0  0  0  0  0  0  0  0
   33.8626  -26.6544  -18.9131 N   0  0  0  0  0  0  0  0  0  0  0  0
   27.2370  -18.2828  -16.0615 C   0  0  0  0  0  0  0  0  0  0  0  0
   26.2854  -19.2831  -16.3637 O   0  0  0  0  0  0  0  0  0  0  0  0
   26.0816  -19.5730  -17.5668 C   0  0  0  0  0  0  0  0  0  0  0  0
   25.5447  -19.9761  -15.2983 C   0  0  2  0  0  0  0  0  0  0  0  0
   26.4394  -20.4280  -14.1321 N   0  0  0  0  0  0  0  0  0  0  0  0
   27.1049  -21.6488  -14.6439 C   0  0  0  0  0  0  0  0  0  0  0  0
   25.5806  -20.7981  -13.0047 O   0  0  0  0  0  0  0  0  0  0  0  0
   25.0509  -21.9566  -13.0203 O   0  0  0  0  0  0  0  0  0  0  0  0
   29.4247  -20.9154   -7.1709 C   0  0  0  0  0  0  0  0  0  0  0  0
   28.2088  -20.6007   -7.7688 C   0  0  0  0  0  0  0  0  0  0  0  0
   27.7304  -19.3065   -7.8086 C   0  0  0  0  0  0  0  0  0  0  0  0
   26.5200  -18.9792   -8.4024 C   0  0  0  0  0  0  0  0  0  0  0  0
   25.7299  -19.9641   -8.9902 C   0  0  0  0  0  0  0  0  0  0  0  0
   24.4265  -19.6412   -9.6088 C   0  0  2  0  0  0  0  0  0  0  0  0
   24.2914  -20.4614  -10.8803 N   0  0  0  0  0  0  0  0  0  0  0  0
   25.2681  -19.9996  -11.8728 C   0  0  0  0  0  0  0  0  0  0  0  0
   22.9147  -20.4255  -11.3933 O   0  0  0  0  0  0  0  0  0  0  0  0
   22.6517  -19.8848  -12.5224 C   0  0  0  0  0  0  0  0  0  0  0  0
   26.2095  -21.2518   -8.9477 C   0  0  0  0  0  0  0  0  0  0  0  0
   27.4182  -21.5739   -8.3547 O   0  0  0  0  0  0  0  0  0  0  0  0
  2  1  1  0
  3  2  2  0
  4  2  1  0
  5  4  1  0
  6  5  1  0
  7  6  1  0
  8 10  1  0
  8  9  1  6
  8  7  1  0
 10 11  2  0
 12 13  1  0
 13 14  2  0
 15 13  1  0
 16 15  1  6
 16 18  1  0
 17 16  1  0
 17 10  1  0
 18 19  2  0
 18 27  1  0
 20 21  1  0
 21 22  2  0
 21 31  1  0
 22 23  1  0
 23 24  2  0
 24 25  1  0
 26 25  1  1
 26 28  1  0
 27 26  1  0
 28 29  2  0
 28 32  1  0
 30 24  1  0
 31 30  2  0
M  END
$$$$
