RNY.pdb
     RDKit          3D

 32 32  0  0  1  0  0  0  0  0999 V2000
   22.6721  -14.9158  -17.5862 N   0  0  0  0  0  0  0  0  0  0  0  0
   23.2797  -15.1516  -18.8418 C   0  0  0  0  0  0  0  0  0  0  0  0
   23.5101  -16.3618  -19.2723 N   0  0  0  0  0  0  0  0  0  0  0  0
   23.6434  -14.0486  -19.6515 N   0  0  0  0  0  0  0  0  0  0  0  0
   24.3753  -12.9107  -19.1782 C   0  0  0  0  0  0  0  0  0  0  0  0
   25.6422  -12.7126  -19.9266 C   0  0  0  0  0  0  0  0  0  0  0  0
   26.3796  -11.4876  -19.5350 C   0  0  0  0  0  0  0  0  0  0  0  0
   26.3377  -10.4444  -20.6664 C   0  0  2  0  0  0  0  0  0  0  0  0
   25.9780  -11.0178  -21.9316 N   0  0  0  0  0  0  0  0  0  0  0  0
   27.6940   -9.8654  -20.7375 C   0  0  0  0  0  0  0  0  0  0  0  0
   28.6634  -10.5813  -21.1620 O   0  0  0  0  0  0  0  0  0  0  0  0
   23.9574  -16.5496  -20.1895 N   0  0  0  0  0  0  0  0  0  0  0  0
   30.1417   -4.3181  -21.1794 C   0  0  0  0  0  0  0  0  0  0  0  0
   30.0741   -5.7001  -21.4671 O   0  0  0  0  0  0  0  0  0  0  0  0
   31.0490   -6.2416  -22.0409 C   0  0  0  0  0  0  0  0  0  0  0  0
   28.8911   -6.4962  -21.1052 C   0  0  2  0  0  0  0  0  0  0  0  0
   29.2362   -7.9239  -20.6501 N   0  0  0  0  0  0  0  0  0  0  0  0
   27.9196   -8.5292  -20.3413 C   0  0  0  0  0  0  0  0  0  0  0  0
   30.0172   -7.8409  -19.4137 O   0  0  0  0  0  0  0  0  0  0  0  0
   29.3969   -7.5438  -18.3413 O   0  0  0  0  0  0  0  0  0  0  0  0
   36.1400   -6.5355  -13.2986 C   0  0  0  0  0  0  0  0  0  0  0  0
   35.5040   -6.9659  -14.4584 C   0  0  0  0  0  0  0  0  0  0  0  0
   35.5949   -6.2621  -15.6425 C   0  0  0  0  0  0  0  0  0  0  0  0
   34.9663   -6.6809  -16.8062 C   0  0  0  0  0  0  0  0  0  0  0  0
   34.2068   -7.8483  -16.8208 C   0  0  0  0  0  0  0  0  0  0  0  0
   33.5104   -8.3012  -18.0437 C   0  0  1  0  0  0  0  0  0  0  0  0
   32.0878   -7.7703  -18.0007 N   0  0  0  0  0  0  0  0  0  0  0  0
   31.4126   -8.0620  -19.2701 C   0  0  0  0  0  0  0  0  0  0  0  0
   32.0636   -6.3382  -17.6718 O   0  0  0  0  0  0  0  0  0  0  0  0
   32.2845   -5.4569  -18.5723 C   0  0  0  0  0  0  0  0  0  0  0  0
   34.1183   -8.5457  -15.6393 C   0  0  0  0  0  0  0  0  0  0  0  0
   34.7476   -8.1246  -14.4805 O   0  0  0  0  0  0  0  0  0  0  0  0
  2  1  1  0
  3  2  2  0
  4  2  1  0
  5  4  1  0
  6  5  1  0
  7  6  1  0
  8 10  1  0
  8  9  1  6
  8  7  1  0
 10 11  2  0
 12 13  1  0
 13 14  2  0
 15 13  1  0
 16 15  1  6
 16 18  1  0
 17 16  1  0
 17 10  1  0
 18 19  2  0
 18 27  1  0
 20 21  1  0
 21 22  2  0
 21 31  1  0
 22 23  1  0
 23 24  2  0
 24 25  1  0
 26 25  1  1
 26 28  1  0
 27 26  1  0
 28 29  2  0
 28 32  1  0
 30 24  1  0
 31 30  2  0
M  END
$$$$
