RNY.pdb
     RDKit          3D

 32 32  0  0  1  0  0  0  0  0999 V2000
   29.5993  -21.6109  -10.1123 N   0  0  0  0  0  0  0  0  0  0  0  0
   30.5143  -21.4186  -11.1738 C   0  0  0  0  0  0  0  0  0  0  0  0
   31.6345  -22.0850  -11.2388 N   0  0  0  0  0  0  0  0  0  0  0  0
   30.2061  -20.4835  -12.1912 N   0  0  0  0  0  0  0  0  0  0  0  0
   28.9804  -19.7433  -12.2580 C   0  0  0  0  0  0  0  0  0  0  0  0
   28.2835  -19.9358  -13.5547 C   0  0  0  0  0  0  0  0  0  0  0  0
   26.8291  -20.1883  -13.4171 C   0  0  0  0  0  0  0  0  0  0  0  0
   26.5766  -21.5313  -12.7080 C   0  0  2  0  0  0  0  0  0  0  0  0
   26.9799  -22.6573  -13.5008 N   0  0  0  0  0  0  0  0  0  0  0  0
   25.1247  -21.5874  -12.4461 C   0  0  0  0  0  0  0  0  0  0  0  0
   24.3583  -22.1906  -13.2715 O   0  0  0  0  0  0  0  0  0  0  0  0
   32.3559  -21.8905  -11.9588 N   0  0  0  0  0  0  0  0  0  0  0  0
   21.1606  -21.8544   -8.3237 C   0  0  0  0  0  0  0  0  0  0  0  0
   21.5580  -20.7607   -9.1258 O   0  0  0  0  0  0  0  0  0  0  0  0
   20.7024  -19.8936   -9.4239 C   0  0  0  0  0  0  0  0  0  0  0  0
   22.9426  -20.6320   -9.6058 C   0  0  1  0  0  0  0  0  0  0  0  0
   23.1264  -21.0957  -11.0604 N   0  0  0  0  0  0  0  0  0  0  0  0
   24.5855  -20.9807  -11.2910 C   0  0  0  0  0  0  0  0  0  0  0  0
   22.4354  -20.1499  -11.9398 O   0  0  0  0  0  0  0  0  0  0  0  0
   22.9236  -18.9781  -12.0481 O   0  0  0  0  0  0  0  0  0  0  0  0
   21.7284  -23.6948  -18.1005 C   0  0  0  0  0  0  0  0  0  0  0  0
   21.7037  -22.5737  -17.2774 C   0  0  0  0  0  0  0  0  0  0  0  0
   20.7204  -21.6110  -17.3877 C   0  0  0  0  0  0  0  0  0  0  0  0
   20.6838  -20.4890  -16.5726 C   0  0  0  0  0  0  0  0  0  0  0  0
   21.6566  -20.2906  -15.5958 C   0  0  0  0  0  0  0  0  0  0  0  0
   21.6496  -19.0914  -14.7314 C   0  0  1  0  0  0  0  0  0  0  0  0
   20.7053  -19.3519  -13.5703 N   0  0  0  0  0  0  0  0  0  0  0  0
   21.2636  -20.3955  -12.7034 C   0  0  0  0  0  0  0  0  0  0  0  0
   19.3553  -19.6848  -14.0462 O   0  0  0  0  0  0  0  0  0  0  0  0
   18.6887  -18.8542  -14.7548 C   0  0  0  0  0  0  0  0  0  0  0  0
   22.6344  -21.2512  -15.4898 C   0  0  0  0  0  0  0  0  0  0  0  0
   22.6669  -22.3697  -16.3049 O   0  0  0  0  0  0  0  0  0  0  0  0
  2  1  1  0
  3  2  2  0
  4  2  1  0
  5  4  1  0
  6  5  1  0
  7  6  1  0
  8 10  1  0
  8  9  1  6
  8  7  1  0
 10 11  2  0
 12 13  1  0
 13 14  2  0
 15 13  1  0
 16 15  1  1
 16 18  1  0
 17 16  1  0
 17 10  1  0
 18 19  2  0
 18 27  1  0
 20 21  1  0
 21 22  2  0
 21 31  1  0
 22 23  1  0
 23 24  2  0
 24 25  1  0
 26 25  1  1
 26 28  1  0
 27 26  1  0
 28 29  2  0
 28 32  1  0
 30 24  1  0
 31 30  2  0
M  END
$$$$
