RNY.pdb
     RDKit          3D

 32 32  0  0  1  0  0  0  0  0999 V2000
   21.2701  -13.5259  -16.1962 N   0  0  0  0  0  0  0  0  0  0  0  0
   21.6704  -14.3765  -17.2533 C   0  0  0  0  0  0  0  0  0  0  0  0
   21.0788  -14.3454  -18.4161 N   0  0  0  0  0  0  0  0  0  0  0  0
   22.7400  -15.2806  -17.0456 N   0  0  0  0  0  0  0  0  0  0  0  0
   23.3359  -15.5409  -15.7683 C   0  0  0  0  0  0  0  0  0  0  0  0
   24.4627  -14.6178  -15.4807 C   0  0  0  0  0  0  0  0  0  0  0  0
   25.7361  -15.3111  -15.1715 C   0  0  0  0  0  0  0  0  0  0  0  0
   26.6404  -15.3651  -16.4162 C   0  0  2  0  0  0  0  0  0  0  0  0
   26.2011  -14.4783  -17.4553 N   0  0  0  0  0  0  0  0  0  0  0  0
   26.5997  -16.7630  -16.8895 C   0  0  0  0  0  0  0  0  0  0  0  0
   25.7992  -17.0864  -17.8313 O   0  0  0  0  0  0  0  0  0  0  0  0
   21.3836  -14.9389  -19.2107 N   0  0  0  0  0  0  0  0  0  0  0  0
   27.8087  -21.7528  -17.7116 C   0  0  0  0  0  0  0  0  0  0  0  0
   28.6533  -20.7225  -18.1834 O   0  0  0  0  0  0  0  0  0  0  0  0
   29.5102  -21.0018  -19.0555 C   0  0  0  0  0  0  0  0  0  0  0  0
   28.5381  -19.3487  -17.6701 C   0  0  2  0  0  0  0  0  0  0  0  0
   27.3086  -19.1376  -16.7712 N   0  0  0  0  0  0  0  0  0  0  0  0
   27.4405  -17.7366  -16.3076 C   0  0  0  0  0  0  0  0  0  0  0  0
   27.4213  -20.0284  -15.6139 O   0  0  0  0  0  0  0  0  0  0  0  0
   28.3249  -19.7692  -14.7539 O   0  0  0  0  0  0  0  0  0  0  0  0
   24.4907  -21.4727   -7.8648 C   0  0  0  0  0  0  0  0  0  0  0  0
   24.8072  -21.1499   -9.1803 C   0  0  0  0  0  0  0  0  0  0  0  0
   23.8405  -21.0658  -10.1621 C   0  0  0  0  0  0  0  0  0  0  0  0
   24.1428  -20.7439  -11.4773 C   0  0  0  0  0  0  0  0  0  0  0  0
   25.4575  -20.4897  -11.8605 C   0  0  0  0  0  0  0  0  0  0  0  0
   25.8050  -20.1668  -13.2607 C   0  0  2  0  0  0  0  0  0  0  0  0
   26.1917  -21.4582  -13.9609 N   0  0  0  0  0  0  0  0  0  0  0  0
   26.6209  -21.1673  -15.3333 C   0  0  0  0  0  0  0  0  0  0  0  0
   25.0972  -22.4378  -13.9140 O   0  0  0  0  0  0  0  0  0  0  0  0
   24.1159  -22.3611  -14.7310 C   0  0  0  0  0  0  0  0  0  0  0  0
   26.4172  -20.5753  -10.8798 C   0  0  0  0  0  0  0  0  0  0  0  0
   26.1111  -20.8962   -9.5685 O   0  0  0  0  0  0  0  0  0  0  0  0
  2  1  1  0
  3  2  2  0
  4  2  1  0
  5  4  1  0
  6  5  1  0
  7  6  1  0
  8 10  1  0
  8  9  1  6
  8  7  1  0
 10 11  2  0
 12 13  1  0
 13 14  2  0
 15 13  1  0
 16 15  1  6
 16 18  1  0
 17 16  1  0
 17 10  1  0
 18 19  2  0
 18 27  1  0
 20 21  1  0
 21 22  2  0
 21 31  1  0
 22 23  1  0
 23 24  2  0
 24 25  1  0
 26 25  1  1
 26 28  1  0
 27 26  1  0
 28 29  2  0
 28 32  1  0
 30 24  1  0
 31 30  2  0
M  END
$$$$
