RNY.pdb
     RDKit          3D

 32 32  0  0  1  0  0  0  0  0999 V2000
   24.6903  -24.3906  -13.4439 N   0  0  0  0  0  0  0  0  0  0  0  0
   23.5007  -23.7078  -13.0978 C   0  0  0  0  0  0  0  0  0  0  0  0
   22.3272  -24.2544  -13.2623 N   0  0  0  0  0  0  0  0  0  0  0  0
   23.5856  -22.4020  -12.5572 N   0  0  0  0  0  0  0  0  0  0  0  0
   24.8162  -21.6981  -12.3457 C   0  0  0  0  0  0  0  0  0  0  0  0
   24.9039  -21.1281  -10.9776 C   0  0  0  0  0  0  0  0  0  0  0  0
   26.0876  -20.2602  -10.7691 C   0  0  0  0  0  0  0  0  0  0  0  0
   27.2430  -20.6879  -11.6922 C   0  0  2  0  0  0  0  0  0  0  0  0
   28.5022  -20.7494  -11.0067 N   0  0  0  0  0  0  0  0  0  0  0  0
   27.2989  -19.6798  -12.7694 C   0  0  0  0  0  0  0  0  0  0  0  0
   27.5875  -18.4682  -12.4842 O   0  0  0  0  0  0  0  0  0  0  0  0
   21.4466  -23.7659  -13.0122 N   0  0  0  0  0  0  0  0  0  0  0  0
   27.7975  -17.5151  -17.4596 C   0  0  0  0  0  0  0  0  0  0  0  0
   28.2492  -18.8538  -17.4243 O   0  0  0  0  0  0  0  0  0  0  0  0
   28.9142  -19.2882  -18.3948 C   0  0  0  0  0  0  0  0  0  0  0  0
   27.9520  -19.7276  -16.2787 C   0  0  2  0  0  0  0  0  0  0  0  0
   27.1784  -19.0154  -15.1567 N   0  0  0  0  0  0  0  0  0  0  0  0
   27.0374  -20.0507  -14.1062 C   0  0  0  0  0  0  0  0  0  0  0  0
   25.8462  -18.6701  -15.6584 O   0  0  0  0  0  0  0  0  0  0  0  0
   25.0806  -19.6258  -16.0098 O   0  0  0  0  0  0  0  0  0  0  0  0
   18.1043  -15.2728  -17.9562 C   0  0  0  0  0  0  0  0  0  0  0  0
   19.3980  -15.4127  -17.4646 C   0  0  0  0  0  0  0  0  0  0  0  0
   19.6651  -16.1180  -16.3083 C   0  0  0  0  0  0  0  0  0  0  0  0
   20.9505  -16.2657  -15.8079 C   0  0  0  0  0  0  0  0  0  0  0  0
   22.0374  -15.6965  -16.4671 C   0  0  0  0  0  0  0  0  0  0  0  0
   23.4128  -15.8226  -15.9397 C   0  0  2  0  0  0  0  0  0  0  0  0
   23.9568  -17.1775  -16.3591 N   0  0  0  0  0  0  0  0  0  0  0  0
   25.2985  -17.3672  -15.7966 C   0  0  0  0  0  0  0  0  0  0  0  0
   23.9375  -17.3299  -17.8206 O   0  0  0  0  0  0  0  0  0  0  0  0
   23.0661  -18.0743  -18.3887 C   0  0  0  0  0  0  0  0  0  0  0  0
   21.7670  -14.9944  -17.6177 C   0  0  0  0  0  0  0  0  0  0  0  0
   20.4828  -14.8499  -18.1139 O   0  0  0  0  0  0  0  0  0  0  0  0
  2  1  1  0
  3  2  2  0
  4  2  1  0
  5  4  1  0
  6  5  1  0
  7  6  1  0
  8 10  1  0
  8  9  1  1
  8  7  1  0
 10 11  2  0
 12 13  1  0
 13 14  2  0
 15 13  1  0
 16 15  1  1
 16 18  1  0
 17 16  1  0
 17 10  1  0
 18 19  2  0
 18 27  1  0
 20 21  1  0
 21 22  2  0
 21 31  1  0
 22 23  1  0
 23 24  2  0
 24 25  1  0
 26 25  1  1
 26 28  1  0
 27 26  1  0
 28 29  2  0
 28 32  1  0
 30 24  1  0
 31 30  2  0
M  END
$$$$
