RNY.pdb
     RDKit          3D

 32 32  0  0  1  0  0  0  0  0999 V2000
   29.9703  -28.4531  -19.6630 N   0  0  0  0  0  0  0  0  0  0  0  0
   30.0280  -29.6852  -18.9705 C   0  0  0  0  0  0  0  0  0  0  0  0
   30.9707  -30.5566  -19.2047 N   0  0  0  0  0  0  0  0  0  0  0  0
   29.0415  -29.9784  -17.9981 N   0  0  0  0  0  0  0  0  0  0  0  0
   27.9524  -29.1062  -17.6698 C   0  0  0  0  0  0  0  0  0  0  0  0
   28.2299  -28.3022  -16.4529 C   0  0  0  0  0  0  0  0  0  0  0  0
   27.0181  -27.6979  -15.8496 C   0  0  0  0  0  0  0  0  0  0  0  0
   26.5907  -26.4431  -16.6325 C   0  0  2  0  0  0  0  0  0  0  0  0
   27.6719  -25.5200  -16.8269 N   0  0  0  0  0  0  0  0  0  0  0  0
   25.5193  -25.8114  -15.8369 C   0  0  0  0  0  0  0  0  0  0  0  0
   25.7868  -25.3442  -14.6782 O   0  0  0  0  0  0  0  0  0  0  0  0
   30.9845  -31.4937  -18.7594 N   0  0  0  0  0  0  0  0  0  0  0  0
   21.3559  -22.5050  -14.9605 C   0  0  0  0  0  0  0  0  0  0  0  0
   21.1919  -23.5861  -15.8559 O   0  0  0  0  0  0  0  0  0  0  0  0
   20.0297  -23.9830  -16.1104 C   0  0  0  0  0  0  0  0  0  0  0  0
   22.3520  -24.2388  -16.4820 C   0  0  1  0  0  0  0  0  0  0  0  0
   23.1664  -25.0996  -15.5020 N   0  0  0  0  0  0  0  0  0  0  0  0
   24.2080  -25.7217  -16.3524 C   0  0  0  0  0  0  0  0  0  0  0  0
   22.2961  -26.1545  -14.9771 O   0  0  0  0  0  0  0  0  0  0  0  0
   21.5631  -26.7840  -15.8075 O   0  0  0  0  0  0  0  0  0  0  0  0
   16.1676  -24.3637   -9.2137 C   0  0  0  0  0  0  0  0  0  0  0  0
   17.3243  -24.4941   -9.9752 C   0  0  0  0  0  0  0  0  0  0  0  0
   17.5228  -23.7626  -11.1289 C   0  0  0  0  0  0  0  0  0  0  0  0
   18.6720  -23.8826  -11.8967 C   0  0  0  0  0  0  0  0  0  0  0  0
   19.6852  -24.7623  -11.5233 C   0  0  0  0  0  0  0  0  0  0  0  0
   20.9081  -24.9224  -12.3384 C   0  0  2  0  0  0  0  0  0  0  0  0
   20.9309  -26.3407  -12.8818 N   0  0  0  0  0  0  0  0  0  0  0  0
   22.1765  -26.5662  -13.6234 C   0  0  0  0  0  0  0  0  0  0  0  0
   19.7389  -26.6185  -13.6953 O   0  0  0  0  0  0  0  0  0  0  0  0
   19.5941  -27.7478  -14.2784 C   0  0  0  0  0  0  0  0  0  0  0  0
   19.4832  -25.4894  -10.3741 C   0  0  0  0  0  0  0  0  0  0  0  0
   18.3351  -25.3662   -9.6106 O   0  0  0  0  0  0  0  0  0  0  0  0
  2  1  1  0
  3  2  2  0
  4  2  1  0
  5  4  1  0
  6  5  1  0
  7  6  1  0
  8 10  1  0
  8  9  1  1
  8  7  1  0
 10 11  2  0
 12 13  1  0
 13 14  2  0
 15 13  1  0
 16 15  1  1
 16 18  1  0
 17 16  1  0
 17 10  1  0
 18 19  2  0
 18 27  1  0
 20 21  1  0
 21 22  2  0
 21 31  1  0
 22 23  1  0
 23 24  2  0
 24 25  1  0
 26 25  1  1
 26 28  1  0
 27 26  1  0
 28 29  2  0
 28 32  1  0
 30 24  1  0
 31 30  2  0
M  END
$$$$
