ADT.pdb
     RDKit          3D

 21 20  0  0  1  0  0  0  0  0999 V2000
    7.7655  -12.1249   20.1052 C   0  0  0  0  0  0  0  0  0  0  0  0
    7.9547  -13.5256   19.6327 C   0  0  2  0  0  0  0  0  0  0  0  0
    6.8844  -13.9128   18.7411 N   0  0  0  0  0  0  0  0  0  0  0  0
    8.0601  -14.4662   20.7804 C   0  0  0  0  0  0  0  0  0  0  0  0
    7.0208  -15.0435   21.1737 O   0  0  0  0  0  0  0  0  0  0  0  0
    9.2823  -14.7161   21.4234 N   0  0  0  0  0  0  0  0  0  0  0  0
    9.4553  -15.6867   22.4818 C   0  0  1  0  0  0  0  0  0  0  0  0
   10.6108  -16.6040   22.2277 C   0  0  0  0  0  0  0  0  0  0  0  0
   10.8239  -17.6402   23.2171 C   0  0  0  0  0  0  0  0  0  0  0  0
    9.9036  -18.0643   23.9379 O   0  0  0  0  0  0  0  0  0  0  0  0
    9.4918  -15.0042   23.7681 C   0  0  0  0  0  0  0  0  0  0  0  0
   10.4171  -14.2387   24.1538 O   0  0  0  0  0  0  0  0  0  0  0  0
   12.0808  -18.1975   23.3904 O   0  0  0  0  0  0  0  0  0  0  0  0
    6.8620  -12.7505   25.1462 C   0  0  0  0  0  0  0  0  0  0  0  0
    6.9736  -13.9026   26.1007 C   0  0  1  0  0  0  0  0  0  0  0  0
    5.9652  -14.8099   25.7930 O   0  0  0  0  0  0  0  0  0  0  0  0
    8.3169  -14.5416   25.9565 C   0  0  2  0  0  0  0  0  0  0  0  0
    8.4147  -15.2007   24.6750 N   0  0  0  0  0  0  0  0  0  0  0  0
    8.6207  -15.4699   27.0769 C   0  0  0  0  0  0  0  0  0  0  0  0
    8.7883  -16.6882   26.8481 O   0  0  0  0  0  0  0  0  0  0  0  0
    8.7146  -14.9799   28.3574 O   0  0  0  0  0  0  0  0  0  0  0  0
  2  1  1  1
  2  4  1  0
  3  2  1  0
  4  5  2  0
  6  7  1  0
  6  4  1  0
  7 11  1  0
  8  9  1  0
  7  8  1  6
  9 10  2  0
 11 18  1  0
 11 12  2  0
 13  9  1  0
 15 14  1  6
 15 17  1  0
 16 15  1  0
 17 19  1  0
 17 18  1  6
 19 20  2  0
 19 21  1  0
M  END
$$$$
