ADT.pdb
     RDKit          3D

 21 20  0  0  1  0  0  0  0  0999 V2000
    7.2404  -12.9669   18.6425 C   0  0  0  0  0  0  0  0  0  0  0  0
    8.4026  -13.0370   19.5727 C   0  0  2  0  0  0  0  0  0  0  0  0
    9.6222  -13.3120   18.8464 N   0  0  0  0  0  0  0  0  0  0  0  0
    8.1744  -14.0518   20.6363 C   0  0  0  0  0  0  0  0  0  0  0  0
    7.0891  -14.0257   21.2603 O   0  0  0  0  0  0  0  0  0  0  0  0
    9.1367  -15.0235   20.9515 N   0  0  0  0  0  0  0  0  0  0  0  0
    8.9419  -16.0642   21.9371 C   0  0  1  0  0  0  0  0  0  0  0  0
    9.6714  -17.3232   21.5851 C   0  0  0  0  0  0  0  0  0  0  0  0
    9.6149  -18.3825   22.5715 C   0  0  0  0  0  0  0  0  0  0  0  0
    8.5470  -18.7333   23.1034 O   0  0  0  0  0  0  0  0  0  0  0  0
    9.2373  -15.5406   23.2639 C   0  0  0  0  0  0  0  0  0  0  0  0
   10.3596  -15.0987   23.6328 O   0  0  0  0  0  0  0  0  0  0  0  0
   10.7692  -19.0460   22.9559 O   0  0  0  0  0  0  0  0  0  0  0  0
    7.1006  -12.9516   25.2342 C   0  0  0  0  0  0  0  0  0  0  0  0
    7.1572  -14.2447   25.9928 C   0  0  1  0  0  0  0  0  0  0  0  0
    6.0005  -14.9603   25.7017 O   0  0  0  0  0  0  0  0  0  0  0  0
    8.3692  -15.0141   25.5775 C   0  0  2  0  0  0  0  0  0  0  0  0
    8.1983  -15.5164   24.2341 N   0  0  0  0  0  0  0  0  0  0  0  0
    8.6985  -16.1032   26.5340 C   0  0  0  0  0  0  0  0  0  0  0  0
    8.7013  -17.2925   26.1465 O   0  0  0  0  0  0  0  0  0  0  0  0
    8.9973  -15.7926   27.8389 O   0  0  0  0  0  0  0  0  0  0  0  0
  2  1  1  6
  2  4  1  0
  3  2  1  0
  4  5  2  0
  6  7  1  0
  6  4  1  0
  7 11  1  0
  8  9  1  0
  7  8  1  6
  9 10  2  0
 11 18  1  0
 11 12  2  0
 13  9  1  0
 15 14  1  6
 15 17  1  0
 16 15  1  0
 17 19  1  0
 17 18  1  6
 19 20  2  0
 19 21  1  0
M  END
$$$$
