ADT.pdb
     RDKit          3D

 21 20  0  0  1  0  0  0  0  0999 V2000
    8.1764  -12.6528   19.2848 C   0  0  0  0  0  0  0  0  0  0  0  0
    8.5241  -13.9504   18.6396 C   0  0  2  0  0  0  0  0  0  0  0  0
    7.4805  -14.3634   17.7281 N   0  0  0  0  0  0  0  0  0  0  0  0
    8.7876  -15.0001   19.6603 C   0  0  0  0  0  0  0  0  0  0  0  0
    7.8090  -15.5821   20.1814 O   0  0  0  0  0  0  0  0  0  0  0  0
   10.0915  -15.3464   20.0469 N   0  0  0  0  0  0  0  0  0  0  0  0
   10.4008  -16.3681   21.0231 C   0  0  1  0  0  0  0  0  0  0  0  0
   11.6765  -17.0857   20.7090 C   0  0  0  0  0  0  0  0  0  0  0  0
   11.6540  -17.9269   19.5301 C   0  0  0  0  0  0  0  0  0  0  0  0
   10.8934  -18.9058   19.4316 O   0  0  0  0  0  0  0  0  0  0  0  0
   10.3371  -15.7983   22.3621 C   0  0  0  0  0  0  0  0  0  0  0  0
   11.1244  -14.9219   22.8126 O   0  0  0  0  0  0  0  0  0  0  0  0
   12.4937  -17.6593   18.4605 O   0  0  0  0  0  0  0  0  0  0  0  0
    7.7057  -13.9383   24.0851 C   0  0  0  0  0  0  0  0  0  0  0  0
    7.8351  -15.2268   24.8426 C   0  0  1  0  0  0  0  0  0  0  0  0
    6.8517  -16.0943   24.3786 O   0  0  0  0  0  0  0  0  0  0  0  0
    9.1946  -15.8045   24.6156 C   0  0  2  0  0  0  0  0  0  0  0  0
    9.3196  -16.2489   23.2470 N   0  0  0  0  0  0  0  0  0  0  0  0
    9.5107  -16.8923   25.5779 C   0  0  0  0  0  0  0  0  0  0  0  0
    9.7668  -18.0418   25.1563 O   0  0  0  0  0  0  0  0  0  0  0  0
    9.5186  -16.6245   26.9258 O   0  0  0  0  0  0  0  0  0  0  0  0
  2  1  1  1
  2  4  1  0
  3  2  1  0
  4  5  2  0
  6  7  1  0
  6  4  1  0
  7 11  1  0
  8  9  1  0
  7  8  1  6
  9 10  2  0
 11 18  1  0
 11 12  2  0
 13  9  1  0
 15 14  1  6
 15 17  1  0
 16 15  1  0
 17 19  1  0
 17 18  1  6
 19 20  2  0
 19 21  1  0
M  END
$$$$
