ADT.pdb
     RDKit          3D

 21 20  0  0  1  0  0  0  0  0999 V2000
    8.2413  -12.9658   18.1398 C   0  0  0  0  0  0  0  0  0  0  0  0
    8.7251  -14.2224   17.5012 C   0  0  2  0  0  0  0  0  0  0  0  0
    7.7533  -14.7210   16.5539 N   0  0  0  0  0  0  0  0  0  0  0  0
    9.0484  -15.2514   18.5259 C   0  0  0  0  0  0  0  0  0  0  0  0
    8.1124  -15.9383   18.9950 O   0  0  0  0  0  0  0  0  0  0  0  0
   10.3616  -15.4649   18.9724 N   0  0  0  0  0  0  0  0  0  0  0  0
   10.7210  -16.4156   20.0017 C   0  0  1  0  0  0  0  0  0  0  0  0
   12.0062  -17.1212   19.6992 C   0  0  0  0  0  0  0  0  0  0  0  0
   11.9083  -18.2549   18.8030 C   0  0  0  0  0  0  0  0  0  0  0  0
   10.9648  -18.3852   18.0035 O   0  0  0  0  0  0  0  0  0  0  0  0
   10.6763  -15.7645   21.3039 C   0  0  0  0  0  0  0  0  0  0  0  0
   11.5932  -15.0426   21.7825 O   0  0  0  0  0  0  0  0  0  0  0  0
   12.8804  -19.2425   18.8116 O   0  0  0  0  0  0  0  0  0  0  0  0
    7.6642  -13.7751   22.7448 C   0  0  0  0  0  0  0  0  0  0  0  0
    7.9680  -14.9318   23.6508 C   0  0  1  0  0  0  0  0  0  0  0  0
    7.0805  -15.9578   23.3438 O   0  0  0  0  0  0  0  0  0  0  0  0
    9.3787  -15.3760   23.4368 C   0  0  2  0  0  0  0  0  0  0  0  0
    9.5227  -15.9419   22.1157 N   0  0  0  0  0  0  0  0  0  0  0  0
    9.8375  -16.3177   24.4913 C   0  0  0  0  0  0  0  0  0  0  0  0
   10.1881  -17.4775   24.1807 O   0  0  0  0  0  0  0  0  0  0  0  0
    9.8720  -15.9044   25.8015 O   0  0  0  0  0  0  0  0  0  0  0  0
  2  1  1  1
  2  4  1  0
  3  2  1  0
  4  5  2  0
  6  7  1  0
  6  4  1  0
  7 11  1  0
  8  9  1  0
  7  8  1  6
  9 10  2  0
 11 18  1  0
 11 12  2  0
 13  9  1  0
 15 14  1  6
 15 17  1  0
 16 15  1  0
 17 19  1  0
 17 18  1  6
 19 20  2  0
 19 21  1  0
M  END
$$$$
