ADT.pdb
     RDKit          3D

 21 20  0  0  1  0  0  0  0  0999 V2000
    7.9250  -12.3620   19.9327 C   0  0  0  0  0  0  0  0  0  0  0  0
    8.1678  -13.8139   19.7005 C   0  0  2  0  0  0  0  0  0  0  0  0
    7.1632  -14.3652   18.8188 N   0  0  0  0  0  0  0  0  0  0  0  0
    8.2158  -14.5593   20.9871 C   0  0  0  0  0  0  0  0  0  0  0  0
    7.1364  -14.8087   21.5707 O   0  0  0  0  0  0  0  0  0  0  0  0
    9.4284  -14.9822   21.5531 N   0  0  0  0  0  0  0  0  0  0  0  0
    9.5247  -15.7677   22.7640 C   0  0  1  0  0  0  0  0  0  0  0  0
   10.6909  -16.7061   22.7406 C   0  0  0  0  0  0  0  0  0  0  0  0
   10.7892  -17.5622   21.5763 C   0  0  0  0  0  0  0  0  0  0  0  0
    9.9898  -18.4924   21.3712 O   0  0  0  0  0  0  0  0  0  0  0  0
    9.4766  -14.8859   23.9223 C   0  0  0  0  0  0  0  0  0  0  0  0
   10.2830  -13.9421   24.1458 O   0  0  0  0  0  0  0  0  0  0  0  0
   11.7939  -17.3647   20.6425 O   0  0  0  0  0  0  0  0  0  0  0  0
    6.8595  -12.6415   25.3729 C   0  0  0  0  0  0  0  0  0  0  0  0
    7.0381  -13.7797   26.3339 C   0  0  1  0  0  0  0  0  0  0  0  0
    6.0464  -14.7189   26.0707 O   0  0  0  0  0  0  0  0  0  0  0  0
    8.3935  -14.3811   26.1485 C   0  0  2  0  0  0  0  0  0  0  0  0
    8.4528  -15.0849   24.8885 N   0  0  0  0  0  0  0  0  0  0  0  0
    8.7803  -15.2564   27.2859 C   0  0  0  0  0  0  0  0  0  0  0  0
    8.9780  -16.4764   27.0936 O   0  0  0  0  0  0  0  0  0  0  0  0
    8.9173  -14.7157   28.5419 O   0  0  0  0  0  0  0  0  0  0  0  0
  2  1  1  1
  2  4  1  0
  3  2  1  0
  4  5  2  0
  6  7  1  0
  6  4  1  0
  7 11  1  0
  8  9  1  0
  7  8  1  6
  9 10  2  0
 11 18  1  0
 11 12  2  0
 13  9  1  0
 15 14  1  6
 15 17  1  0
 16 15  1  0
 17 19  1  0
 17 18  1  6
 19 20  2  0
 19 21  1  0
M  END
$$$$
