ADT.pdb
     RDKit          3D

 21 20  0  0  1  0  0  0  0  0999 V2000
    7.9538  -11.9889   20.1231 C   0  0  0  0  0  0  0  0  0  0  0  0
    8.0184  -13.3468   19.5125 C   0  0  2  0  0  0  0  0  0  0  0  0
    6.9636  -13.5197   18.5388 N   0  0  0  0  0  0  0  0  0  0  0  0
    7.9596  -14.4048   20.5567 C   0  0  0  0  0  0  0  0  0  0  0  0
    6.8518  -14.9318   20.8078 O   0  0  0  0  0  0  0  0  0  0  0  0
    9.1032  -14.8182   21.2573 N   0  0  0  0  0  0  0  0  0  0  0  0
    9.0967  -15.8329   22.2883 C   0  0  1  0  0  0  0  0  0  0  0  0
   10.0661  -16.9376   22.0036 C   0  0  0  0  0  0  0  0  0  0  0  0
   10.1116  -18.0053   22.9813 C   0  0  0  0  0  0  0  0  0  0  0  0
    9.2288  -18.1474   23.8455 O   0  0  0  0  0  0  0  0  0  0  0  0
    9.2569  -15.2040   23.5923 C   0  0  0  0  0  0  0  0  0  0  0  0
   10.3221  -14.6765   24.0141 O   0  0  0  0  0  0  0  0  0  0  0  0
   11.1578  -18.9141   22.9803 O   0  0  0  0  0  0  0  0  0  0  0  0
    6.6467  -12.7189   25.1186 C   0  0  0  0  0  0  0  0  0  0  0  0
    6.8396  -13.8874   26.0397 C   0  0  1  0  0  0  0  0  0  0  0  0
    5.8058  -14.7884   25.8069 O   0  0  0  0  0  0  0  0  0  0  0  0
    8.1633  -14.5248   25.7664 C   0  0  2  0  0  0  0  0  0  0  0  0
    8.1425  -15.1707   24.4746 N   0  0  0  0  0  0  0  0  0  0  0  0
    8.5677  -15.4647   26.8446 C   0  0  0  0  0  0  0  0  0  0  0  0
    8.7317  -16.6772   26.5846 O   0  0  0  0  0  0  0  0  0  0  0  0
    8.7580  -14.9916   28.1207 O   0  0  0  0  0  0  0  0  0  0  0  0
  2  1  1  1
  2  4  1  0
  3  2  1  0
  4  5  2  0
  6  7  1  0
  6  4  1  0
  7 11  1  0
  8  9  1  0
  7  8  1  6
  9 10  2  0
 11 18  1  0
 11 12  2  0
 13  9  1  0
 15 14  1  6
 15 17  1  0
 16 15  1  0
 17 19  1  0
 17 18  1  6
 19 20  2  0
 19 21  1  0
M  END
$$$$
