ADT.pdb
     RDKit          3D

 21 20  0  0  1  0  0  0  0  0999 V2000
    8.3591  -12.3534   18.5352 C   0  0  0  0  0  0  0  0  0  0  0  0
    8.9815  -13.4297   17.7136 C   0  0  2  0  0  0  0  0  0  0  0  0
    7.9803  -14.1167   16.9287 N   0  0  0  0  0  0  0  0  0  0  0  0
    9.7371  -14.3843   18.5685 C   0  0  0  0  0  0  0  0  0  0  0  0
    9.1294  -15.3748   19.0348 O   0  0  0  0  0  0  0  0  0  0  0  0
   11.0975  -14.2002   18.8603 N   0  0  0  0  0  0  0  0  0  0  0  0
   11.9036  -15.1532   19.5914 C   0  0  1  0  0  0  0  0  0  0  0  0
   13.3572  -15.0477   19.2493 C   0  0  0  0  0  0  0  0  0  0  0  0
   13.7153  -15.4141   17.8945 C   0  0  0  0  0  0  0  0  0  0  0  0
   14.3563  -14.6504   17.1513 O   0  0  0  0  0  0  0  0  0  0  0  0
   11.6046  -15.0552   21.0135 C   0  0  0  0  0  0  0  0  0  0  0  0
   12.2577  -14.3652   21.8432 O   0  0  0  0  0  0  0  0  0  0  0  0
   13.3475  -16.6472   17.3802 O   0  0  0  0  0  0  0  0  0  0  0  0
    8.2674  -14.1982   22.5265 C   0  0  0  0  0  0  0  0  0  0  0  0
    8.6273  -15.5656   23.0281 C   0  0  1  0  0  0  0  0  0  0  0  0
    7.9499  -16.4972   22.2483 O   0  0  0  0  0  0  0  0  0  0  0  0
   10.1045  -15.7641   22.9190 C   0  0  2  0  0  0  0  0  0  0  0  0
   10.4982  -15.7840   21.5294 N   0  0  0  0  0  0  0  0  0  0  0  0
   10.5623  -16.9820   23.6376 C   0  0  0  0  0  0  0  0  0  0  0  0
   11.0828  -17.9232   22.9990 O   0  0  0  0  0  0  0  0  0  0  0  0
   10.4090  -17.0630   25.0009 O   0  0  0  0  0  0  0  0  0  0  0  0
  2  1  1  1
  2  4  1  0
  3  2  1  0
  4  5  2  0
  6  7  1  0
  6  4  1  0
  7 11  1  0
  8  9  1  0
  7  8  1  1
  9 10  2  0
 11 18  1  0
 11 12  2  0
 13  9  1  0
 15 14  1  6
 15 17  1  0
 16 15  1  0
 17 19  1  0
 17 18  1  6
 19 20  2  0
 19 21  1  0
M  END
$$$$
