ADT.pdb
     RDKit          3D

 21 20  0  0  1  0  0  0  0  0999 V2000
    8.6869  -20.1790   11.5044 C   0  0  0  0  0  0  0  0  0  0  0  0
    9.6283  -21.2662   11.8951 C   0  0  2  0  0  0  0  0  0  0  0  0
    8.9152  -22.5043   12.1165 N   0  0  0  0  0  0  0  0  0  0  0  0
   10.4176  -20.8826   13.0964 C   0  0  0  0  0  0  0  0  0  0  0  0
   11.1770  -19.8902   13.0172 O   0  0  0  0  0  0  0  0  0  0  0  0
   10.3309  -21.6001   14.2995 N   0  0  0  0  0  0  0  0  0  0  0  0
   11.0094  -21.2187   15.5187 C   0  0  1  0  0  0  0  0  0  0  0  0
   10.0851  -21.1843   16.6959 C   0  0  0  0  0  0  0  0  0  0  0  0
   10.6489  -20.6688   17.9265 C   0  0  0  0  0  0  0  0  0  0  0  0
   11.3180  -19.6211   17.9585 O   0  0  0  0  0  0  0  0  0  0  0  0
   12.1927  -22.0489   15.6985 C   0  0  0  0  0  0  0  0  0  0  0  0
   12.1906  -23.3093   15.7448 O   0  0  0  0  0  0  0  0  0  0  0  0
   10.4545  -21.3403   19.1231 O   0  0  0  0  0  0  0  0  0  0  0  0
   16.0264  -20.0897   16.2214 C   0  0  0  0  0  0  0  0  0  0  0  0
   15.8211  -21.3224   15.3911 C   0  0  1  0  0  0  0  0  0  0  0  0
   17.0076  -22.0482   15.4058 O   0  0  0  0  0  0  0  0  0  0  0  0
   14.7037  -22.1309   15.9664 C   0  0  2  0  0  0  0  0  0  0  0  0
   13.4571  -21.4133   15.8351 N   0  0  0  0  0  0  0  0  0  0  0  0
   14.9642  -22.5273   17.3751 C   0  0  0  0  0  0  0  0  0  0  0  0
   15.6986  -23.5098   17.6199 O   0  0  0  0  0  0  0  0  0  0  0  0
   14.3939  -21.8089   18.3984 O   0  0  0  0  0  0  0  0  0  0  0  0
  2  1  1  1
  2  4  1  0
  3  2  1  0
  4  5  2  0
  6  7  1  0
  6  4  1  0
  7 11  1  0
  8  9  1  0
  7  8  1  1
  9 10  2  0
 11 18  1  0
 11 12  2  0
 13  9  1  0
 15 14  1  1
 15 17  1  0
 16 15  1  0
 17 19  1  0
 17 18  1  1
 19 20  2  0
 19 21  1  0
M  END
$$$$
