ADT.pdb
     RDKit          3D

 21 20  0  0  1  0  0  0  0  0999 V2000
    7.7543  -12.1322   20.1278 C   0  0  0  0  0  0  0  0  0  0  0  0
    8.0045  -13.5320   19.6818 C   0  0  2  0  0  0  0  0  0  0  0  0
    7.0762  -13.9097   18.6396 N   0  0  0  0  0  0  0  0  0  0  0  0
    7.9341  -14.4779   20.8278 C   0  0  0  0  0  0  0  0  0  0  0  0
    6.8634  -15.0972   21.0231 O   0  0  0  0  0  0  0  0  0  0  0  0
    9.0266  -14.6873   21.6835 N   0  0  0  0  0  0  0  0  0  0  0  0
    9.0044  -15.5839   22.8184 C   0  0  1  0  0  0  0  0  0  0  0  0
    9.8896  -16.7746   22.6186 C   0  0  0  0  0  0  0  0  0  0  0  0
   10.0213  -17.6614   23.7563 C   0  0  0  0  0  0  0  0  0  0  0  0
    9.0320  -18.1201   24.3541 O   0  0  0  0  0  0  0  0  0  0  0  0
    9.2623  -14.8321   24.0389 C   0  0  0  0  0  0  0  0  0  0  0  0
   10.3484  -14.2532   24.3150 O   0  0  0  0  0  0  0  0  0  0  0  0
   11.2750  -18.0299   24.2176 O   0  0  0  0  0  0  0  0  0  0  0  0
    6.8939  -12.1144   25.4961 C   0  0  0  0  0  0  0  0  0  0  0  0
    7.0554  -13.2319   26.4841 C   0  0  1  0  0  0  0  0  0  0  0  0
    5.9733  -14.0928   26.3341 O   0  0  0  0  0  0  0  0  0  0  0  0
    8.3388  -13.9503   26.2192 C   0  0  2  0  0  0  0  0  0  0  0  0
    8.2271  -14.7294   25.0081 N   0  0  0  0  0  0  0  0  0  0  0  0
    8.7639  -14.7854   27.3729 C   0  0  0  0  0  0  0  0  0  0  0  0
    8.8512  -16.0266   27.2446 O   0  0  0  0  0  0  0  0  0  0  0  0
    9.0576  -14.1846   28.5735 O   0  0  0  0  0  0  0  0  0  0  0  0
  2  1  1  1
  2  4  1  0
  3  2  1  0
  4  5  2  0
  6  7  1  0
  6  4  1  0
  7 11  1  0
  8  9  1  0
  7  8  1  6
  9 10  2  0
 11 18  1  0
 11 12  2  0
 13  9  1  0
 15 14  1  6
 15 17  1  0
 16 15  1  0
 17 19  1  0
 17 18  1  6
 19 20  2  0
 19 21  1  0
M  END
$$$$
