ADT.pdb
     RDKit          3D

 21 20  0  0  1  0  0  0  0  0999 V2000
    6.9816  -17.9847   15.0065 C   0  0  0  0  0  0  0  0  0  0  0  0
    7.9740  -16.9733   15.4682 C   0  0  2  0  0  0  0  0  0  0  0  0
    9.1797  -17.0409   14.6732 N   0  0  0  0  0  0  0  0  0  0  0  0
    8.2778  -17.1452   16.9143 C   0  0  0  0  0  0  0  0  0  0  0  0
    7.3235  -17.1612   17.7249 O   0  0  0  0  0  0  0  0  0  0  0  0
    9.5930  -17.2869   17.3830 N   0  0  0  0  0  0  0  0  0  0  0  0
    9.9361  -17.5319   18.7667 C   0  0  1  0  0  0  0  0  0  0  0  0
   11.1917  -18.3352   18.9066 C   0  0  0  0  0  0  0  0  0  0  0  0
   11.5558  -18.7073   20.2583 C   0  0  0  0  0  0  0  0  0  0  0  0
   11.9990  -17.8802   21.0743 O   0  0  0  0  0  0  0  0  0  0  0  0
    9.9343  -16.2733   19.4998 C   0  0  0  0  0  0  0  0  0  0  0  0
   10.7998  -15.3641   19.3764 O   0  0  0  0  0  0  0  0  0  0  0  0
   11.4176  -20.0179   20.6870 O   0  0  0  0  0  0  0  0  0  0  0  0
    7.5044  -13.4994   19.7130 C   0  0  0  0  0  0  0  0  0  0  0  0
    7.5151  -14.1549   21.0625 C   0  0  1  0  0  0  0  0  0  0  0  0
    6.4633  -15.0641   21.1027 O   0  0  0  0  0  0  0  0  0  0  0  0
    8.8206  -14.8527   21.2677 C   0  0  2  0  0  0  0  0  0  0  0  0
    8.8885  -16.0283   20.4313 N   0  0  0  0  0  0  0  0  0  0  0  0
    9.0642  -15.1801   22.6970 C   0  0  0  0  0  0  0  0  0  0  0  0
    9.2316  -16.3703   23.0435 O   0  0  0  0  0  0  0  0  0  0  0  0
    9.1031  -14.1694   23.6273 O   0  0  0  0  0  0  0  0  0  0  0  0
  2  1  1  6
  2  4  1  0
  3  2  1  0
  4  5  2  0
  6  7  1  0
  6  4  1  0
  7 11  1  0
  8  9  1  0
  7  8  1  6
  9 10  2  0
 11 18  1  0
 11 12  2  0
 13  9  1  0
 15 14  1  6
 15 17  1  0
 16 15  1  0
 17 19  1  0
 17 18  1  6
 19 20  2  0
 19 21  1  0
M  END
$$$$
