ADT.pdb
     RDKit          3D

 21 20  0  0  1  0  0  0  0  0999 V2000
    7.9449  -12.2506   19.8821 C   0  0  0  0  0  0  0  0  0  0  0  0
    8.1570  -13.5657   19.2138 C   0  0  2  0  0  0  0  0  0  0  0  0
    7.0745  -13.8547   18.2999 N   0  0  0  0  0  0  0  0  0  0  0  0
    8.3149  -14.6541   20.2156 C   0  0  0  0  0  0  0  0  0  0  0  0
    7.3166  -15.3578   20.4916 O   0  0  0  0  0  0  0  0  0  0  0  0
    9.5415  -14.9047   20.8498 N   0  0  0  0  0  0  0  0  0  0  0  0
    9.7742  -16.0120   21.7510 C   0  0  1  0  0  0  0  0  0  0  0  0
   10.9987  -16.7926   21.3870 C   0  0  0  0  0  0  0  0  0  0  0  0
   11.2418  -17.9870   22.1695 C   0  0  0  0  0  0  0  0  0  0  0  0
   12.1303  -18.8037   21.8693 O   0  0  0  0  0  0  0  0  0  0  0  0
    9.7432  -15.5355   23.1271 C   0  0  0  0  0  0  0  0  0  0  0  0
   10.6410  -14.8349   23.6694 O   0  0  0  0  0  0  0  0  0  0  0  0
   10.4782  -18.2572   23.2939 O   0  0  0  0  0  0  0  0  0  0  0  0
    7.0126  -13.5819   24.8225 C   0  0  0  0  0  0  0  0  0  0  0  0
    7.1302  -14.8896   25.5484 C   0  0  1  0  0  0  0  0  0  0  0  0
    6.1481  -15.7412   25.0536 O   0  0  0  0  0  0  0  0  0  0  0  0
    8.4897  -15.4666   25.3197 C   0  0  2  0  0  0  0  0  0  0  0  0
    8.6273  -15.8734   23.9407 N   0  0  0  0  0  0  0  0  0  0  0  0
    8.7913  -16.5820   26.2547 C   0  0  0  0  0  0  0  0  0  0  0  0
    9.0213  -17.7264   25.8052 O   0  0  0  0  0  0  0  0  0  0  0  0
    8.8144  -16.3451   27.6082 O   0  0  0  0  0  0  0  0  0  0  0  0
  2  1  1  1
  2  4  1  0
  3  2  1  0
  4  5  2  0
  6  7  1  0
  6  4  1  0
  7 11  1  0
  8  9  1  0
  7  8  1  6
  9 10  2  0
 11 18  1  0
 11 12  2  0
 13  9  1  0
 15 14  1  6
 15 17  1  0
 16 15  1  0
 17 19  1  0
 17 18  1  6
 19 20  2  0
 19 21  1  0
M  END
$$$$
