ADT.pdb
     RDKit          3D

 21 20  0  0  1  0  0  0  0  0999 V2000
    7.0951  -13.4538   18.4365 C   0  0  0  0  0  0  0  0  0  0  0  0
    8.4384  -13.4304   19.0814 C   0  0  2  0  0  0  0  0  0  0  0  0
    9.4818  -13.5966   18.0944 N   0  0  0  0  0  0  0  0  0  0  0  0
    8.5384  -14.4672   20.1436 C   0  0  0  0  0  0  0  0  0  0  0  0
    7.5843  -14.5919   20.9449 O   0  0  0  0  0  0  0  0  0  0  0  0
    9.6642  -15.2963   20.2656 N   0  0  0  0  0  0  0  0  0  0  0  0
    9.7946  -16.3418   21.2566 C   0  0  1  0  0  0  0  0  0  0  0  0
   10.8919  -17.3047   20.9250 C   0  0  0  0  0  0  0  0  0  0  0  0
   10.7262  -18.0517   19.6951 C   0  0  0  0  0  0  0  0  0  0  0  0
   10.9987  -17.5637   18.5842 O   0  0  0  0  0  0  0  0  0  0  0  0
    9.8871  -15.7475   22.5832 C   0  0  0  0  0  0  0  0  0  0  0  0
   10.7738  -14.9276   22.9473 O   0  0  0  0  0  0  0  0  0  0  0  0
   10.2517  -19.3534   19.7228 O   0  0  0  0  0  0  0  0  0  0  0  0
    7.3841  -13.7369   24.4140 C   0  0  0  0  0  0  0  0  0  0  0  0
    7.5733  -14.9898   25.2173 C   0  0  1  0  0  0  0  0  0  0  0  0
    6.5538  -15.8725   24.8761 O   0  0  0  0  0  0  0  0  0  0  0  0
    8.9087  -15.5846   24.9070 C   0  0  2  0  0  0  0  0  0  0  0  0
    8.9164  -16.1035   23.5590 N   0  0  0  0  0  0  0  0  0  0  0  0
    9.3066  -16.6195   25.8968 C   0  0  0  0  0  0  0  0  0  0  0  0
    9.5295  -17.7906   25.5179 O   0  0  0  0  0  0  0  0  0  0  0  0
    9.4261  -16.2794   27.2230 O   0  0  0  0  0  0  0  0  0  0  0  0
  2  1  1  6
  2  4  1  0
  3  2  1  0
  4  5  2  0
  6  7  1  0
  6  4  1  0
  7 11  1  0
  8  9  1  0
  7  8  1  6
  9 10  2  0
 11 18  1  0
 11 12  2  0
 13  9  1  0
 15 14  1  6
 15 17  1  0
 16 15  1  0
 17 19  1  0
 17 18  1  6
 19 20  2  0
 19 21  1  0
M  END
$$$$
