AEL.pdb
     RDKit          3D

 23 22  0  0  1  0  0  0  0  0999 V2000
   31.1679  -22.3113  -17.7256 C   0  0  0  0  0  0  0  0  0  0  0  0
   29.6636  -22.3320  -17.9243 C   0  0  2  0  0  0  0  0  0  0  0  0
   29.0634  -21.0842  -17.5593 N   0  0  0  0  0  0  0  0  0  0  0  0
   29.1194  -23.4748  -17.1358 C   0  0  0  0  0  0  0  0  0  0  0  0
   29.3860  -23.5853  -15.9114 O   0  0  0  0  0  0  0  0  0  0  0  0
   28.2895  -24.4795  -17.7065 N   0  0  0  0  0  0  0  0  0  0  0  0
   27.5012  -25.4024  -16.9221 C   0  0  1  0  0  0  0  0  0  0  0  0
   26.0473  -25.0114  -16.8525 C   0  0  0  0  0  0  0  0  0  0  0  0
   25.2100  -25.9749  -16.0754 C   0  0  0  0  0  0  0  0  0  0  0  0
   23.8074  -25.4826  -16.0994 C   0  0  0  0  0  0  0  0  0  0  0  0
   23.3084  -24.8207  -15.1411 O   0  0  0  0  0  0  0  0  0  0  0  0
   27.6434  -26.7471  -17.5381 C   0  0  0  0  0  0  0  0  0  0  0  0
   27.5917  -26.9276  -18.7917 O   0  0  0  0  0  0  0  0  0  0  0  0
   22.9501  -25.7181  -17.1799 O   0  0  0  0  0  0  0  0  0  0  0  0
   29.9461  -31.7908  -17.6159 C   0  0  0  0  0  0  0  0  0  0  0  0
   28.6364  -31.6353  -16.8958 C   0  0  1  0  0  0  0  0  0  0  0  0
   28.5862  -32.7038  -15.8123 C   0  0  0  0  0  0  0  0  0  0  0  0
   28.4565  -30.2730  -16.3575 C   0  0  0  0  0  0  0  0  0  0  0  0
   28.0306  -29.2213  -17.3046 C   0  0  2  0  0  0  0  0  0  0  0  0
   27.8492  -27.9232  -16.7260 N   0  0  0  0  0  0  0  0  0  0  0  0
   26.7221  -29.5868  -17.9649 C   0  0  0  0  0  0  0  0  0  0  0  0
   26.7041  -30.1900  -19.1978 O   0  0  0  0  0  0  0  0  0  0  0  0
   25.6436  -29.3392  -17.3860 O   0  0  0  0  0  0  0  0  0  0  0  0
  2  3  1  0
  2  1  1  1
  4  2  1  0
  4  5  2  0
  6  4  1  0
  7  6  1  0
  7 12  1  0
  7  8  1  6
  9 10  1  0
  9  8  1  0
 10 11  2  0
 12 13  2  0
 12 20  1  0
 14 10  1  0
 16 15  1  1
 16 17  1  0
 18 16  1  0
 19 18  1  1
 20 19  1  0
 21 19  1  0
 21 22  1  0
 23 21  2  0
M  END
$$$$
