AEL.pdb
     RDKit          3D

 23 22  0  0  1  0  0  0  0  0999 V2000
   28.3999  -19.5798  -16.4581 C   0  0  0  0  0  0  0  0  0  0  0  0
   28.6470  -20.4092  -15.2115 C   0  0  2  0  0  0  0  0  0  0  0  0
   28.4732  -21.8082  -15.4625 N   0  0  0  0  0  0  0  0  0  0  0  0
   27.7327  -19.9066  -14.1460 C   0  0  0  0  0  0  0  0  0  0  0  0
   27.7408  -18.6906  -13.8242 O   0  0  0  0  0  0  0  0  0  0  0  0
   26.8226  -20.7500  -13.4500 N   0  0  0  0  0  0  0  0  0  0  0  0
   25.7482  -20.2516  -12.6219 C   0  0  1  0  0  0  0  0  0  0  0  0
   24.3898  -20.4764  -13.2350 C   0  0  0  0  0  0  0  0  0  0  0  0
   23.2674  -19.9502  -12.4003 C   0  0  0  0  0  0  0  0  0  0  0  0
   21.9958  -20.2281  -13.1187 C   0  0  0  0  0  0  0  0  0  0  0  0
   21.1661  -21.0945  -12.7108 O   0  0  0  0  0  0  0  0  0  0  0  0
   25.8402  -20.9402  -11.3084 C   0  0  0  0  0  0  0  0  0  0  0  0
   25.9478  -22.1993  -11.2089 O   0  0  0  0  0  0  0  0  0  0  0  0
   21.6346  -19.5518  -14.2892 O   0  0  0  0  0  0  0  0  0  0  0  0
   28.1452  -18.6371   -6.7460 C   0  0  0  0  0  0  0  0  0  0  0  0
   27.7744  -19.6792   -7.7631 C   0  0  1  0  0  0  0  0  0  0  0  0
   28.7049  -20.8661   -7.5546 C   0  0  0  0  0  0  0  0  0  0  0  0
   26.3494  -20.0543   -7.6804 C   0  0  0  0  0  0  0  0  0  0  0  0
   25.7922  -20.8484   -8.7954 C   0  0  2  0  0  0  0  0  0  0  0  0
   25.8106  -20.1965  -10.0711 N   0  0  0  0  0  0  0  0  0  0  0  0
   24.3551  -21.2264   -8.5240 C   0  0  0  0  0  0  0  0  0  0  0  0
   24.0335  -22.0480   -7.4725 O   0  0  0  0  0  0  0  0  0  0  0  0
   23.4476  -20.7887   -9.2617 O   0  0  0  0  0  0  0  0  0  0  0  0
  2  3  1  0
  2  1  1  6
  4  2  1  0
  4  5  2  0
  6  4  1  0
  7  6  1  0
  7 12  1  0
  7  8  1  6
  9 10  1  0
  9  8  1  0
 10 11  2  0
 12 13  2  0
 12 20  1  0
 14 10  1  0
 16 15  1  1
 16 17  1  0
 18 16  1  0
 19 18  1  1
 20 19  1  0
 21 19  1  0
 21 22  1  0
 23 21  2  0
M  END
$$$$
