AEL.pdb
     RDKit          3D

 23 22  0  0  1  0  0  0  0  0999 V2000
   27.1958  -15.3614  -15.8071 C   0  0  0  0  0  0  0  0  0  0  0  0
   26.0248  -16.1009  -16.4272 C   0  0  2  0  0  0  0  0  0  0  0  0
   25.2005  -15.2286  -17.2083 N   0  0  0  0  0  0  0  0  0  0  0  0
   25.2681  -16.7566  -15.3220 C   0  0  0  0  0  0  0  0  0  0  0  0
   24.5275  -16.0746  -14.5679 O   0  0  0  0  0  0  0  0  0  0  0  0
   25.3377  -18.1537  -15.0628 N   0  0  0  0  0  0  0  0  0  0  0  0
   24.5067  -18.8263  -14.0904 C   0  0  1  0  0  0  0  0  0  0  0  0
   23.3587  -19.5706  -14.7225 C   0  0  0  0  0  0  0  0  0  0  0  0
   22.5236  -20.3217  -13.7367 C   0  0  0  0  0  0  0  0  0  0  0  0
   21.4585  -21.0341  -14.4907 C   0  0  0  0  0  0  0  0  0  0  0  0
   21.3827  -20.9906  -15.7548 O   0  0  0  0  0  0  0  0  0  0  0  0
   25.3749  -19.7657  -13.3343 C   0  0  0  0  0  0  0  0  0  0  0  0
   26.1925  -20.5453  -13.9091 O   0  0  0  0  0  0  0  0  0  0  0  0
   20.4735  -21.7969  -13.8538 O   0  0  0  0  0  0  0  0  0  0  0  0
   27.2360  -19.2701   -7.7600 C   0  0  0  0  0  0  0  0  0  0  0  0
   27.3587  -19.6021   -9.2204 C   0  0  1  0  0  0  0  0  0  0  0  0
   28.7130  -20.2684   -9.4206 C   0  0  0  0  0  0  0  0  0  0  0  0
   26.2394  -20.4381   -9.6962 C   0  0  0  0  0  0  0  0  0  0  0  0
   26.1708  -20.7166  -11.1461 C   0  0  2  0  0  0  0  0  0  0  0  0
   25.3253  -19.8333  -11.8928 N   0  0  0  0  0  0  0  0  0  0  0  0
   25.6672  -22.1173  -11.4037 C   0  0  0  0  0  0  0  0  0  0  0  0
   26.5448  -23.1655  -11.5278 O   0  0  0  0  0  0  0  0  0  0  0  0
   24.4404  -22.3276  -11.5053 O   0  0  0  0  0  0  0  0  0  0  0  0
  2  3  1  0
  2  1  1  1
  4  2  1  0
  4  5  2  0
  6  4  1  0
  7  6  1  0
  7 12  1  0
  7  8  1  6
  9 10  1  0
  9  8  1  0
 10 11  2  0
 12 13  2  0
 12 20  1  0
 14 10  1  0
 16 15  1  1
 16 17  1  0
 18 16  1  0
 19 18  1  1
 20 19  1  0
 21 19  1  0
 21 22  1  0
 23 21  2  0
M  END
$$$$
