AEL.pdb
     RDKit          3D

 23 22  0  0  1  0  0  0  0  0999 V2000
   16.6357  -13.4369  -15.0341 C   0  0  0  0  0  0  0  0  0  0  0  0
   15.8144  -12.5259  -15.9275 C   0  0  2  0  0  0  0  0  0  0  0  0
   15.4536  -13.1708  -17.1541 N   0  0  0  0  0  0  0  0  0  0  0  0
   16.6049  -11.2815  -16.1527 C   0  0  0  0  0  0  0  0  0  0  0  0
   17.5974  -11.2911  -16.9254 O   0  0  0  0  0  0  0  0  0  0  0  0
   16.2913  -10.0445  -15.5239 N   0  0  0  0  0  0  0  0  0  0  0  0
   17.0070   -8.8157  -15.7814 C   0  0  1  0  0  0  0  0  0  0  0  0
   16.2064   -7.5905  -15.4212 C   0  0  0  0  0  0  0  0  0  0  0  0
   15.0793   -7.3195  -16.3643 C   0  0  0  0  0  0  0  0  0  0  0  0
   14.3486   -6.1229  -15.8697 C   0  0  0  0  0  0  0  0  0  0  0  0
   14.6175   -4.9531  -16.2755 O   0  0  0  0  0  0  0  0  0  0  0  0
   18.2656   -8.8580  -14.9927 C   0  0  0  0  0  0  0  0  0  0  0  0
   18.3350   -9.4140  -13.8557 O   0  0  0  0  0  0  0  0  0  0  0  0
   13.3192   -6.2119  -14.9262 O   0  0  0  0  0  0  0  0  0  0  0  0
   22.6812  -10.2469  -13.0161 C   0  0  0  0  0  0  0  0  0  0  0  0
   22.8062   -9.7582  -14.4316 C   0  0  1  0  0  0  0  0  0  0  0  0
   23.7183  -10.7305  -15.1671 C   0  0  0  0  0  0  0  0  0  0  0  0
   21.4918   -9.6082  -15.0859 C   0  0  0  0  0  0  0  0  0  0  0  0
   20.7265   -8.3780  -14.7941 C   0  0  2  0  0  0  0  0  0  0  0  0
   19.4811   -8.2600  -15.4926 N   0  0  0  0  0  0  0  0  0  0  0  0
   21.5321   -7.1468  -15.1363 C   0  0  0  0  0  0  0  0  0  0  0  0
   22.3932   -6.5962  -14.2200 O   0  0  0  0  0  0  0  0  0  0  0  0
   21.4161   -6.6219  -16.2634 O   0  0  0  0  0  0  0  0  0  0  0  0
  2  3  1  0
  2  1  1  1
  4  2  1  0
  4  5  2  0
  6  4  1  0
  7  6  1  0
  7 12  1  0
  7  8  1  1
  9 10  1  0
  9  8  1  0
 10 11  2  0
 12 13  2  0
 12 20  1  0
 14 10  1  0
 16 15  1  1
 16 17  1  0
 18 16  1  0
 19 18  1  6
 20 19  1  0
 21 19  1  0
 21 22  1  0
 23 21  2  0
M  END
$$$$
