AEL.pdb
     RDKit          3D

 23 22  0  0  1  0  0  0  0  0999 V2000
   15.4692  -12.3658  -15.9130 C   0  0  0  0  0  0  0  0  0  0  0  0
   15.1204  -10.8949  -15.7803 C   0  0  2  0  0  0  0  0  0  0  0  0
   13.8417  -10.5994  -16.3532 N   0  0  0  0  0  0  0  0  0  0  0  0
   16.2199  -10.1109  -16.4132 C   0  0  0  0  0  0  0  0  0  0  0  0
   16.4552  -10.2267  -17.6434 O   0  0  0  0  0  0  0  0  0  0  0  0
   17.0444   -9.2108  -15.6826 N   0  0  0  0  0  0  0  0  0  0  0  0
   17.9963   -8.3186  -16.3043 C   0  0  1  0  0  0  0  0  0  0  0  0
   17.3405   -7.1164  -16.9339 C   0  0  0  0  0  0  0  0  0  0  0  0
   16.5331   -6.3081  -15.9706 C   0  0  0  0  0  0  0  0  0  0  0  0
   16.0342   -5.1064  -16.6899 C   0  0  0  0  0  0  0  0  0  0  0  0
   16.7762   -4.1078  -16.9303 O   0  0  0  0  0  0  0  0  0  0  0  0
   18.9577   -7.8899  -15.2556 C   0  0  0  0  0  0  0  0  0  0  0  0
   18.6046   -7.6820  -14.0560 O   0  0  0  0  0  0  0  0  0  0  0  0
   14.7158   -5.0015  -17.1466 O   0  0  0  0  0  0  0  0  0  0  0  0
   23.8569  -10.3126  -14.8037 C   0  0  0  0  0  0  0  0  0  0  0  0
   22.5266   -9.6622  -14.5481 C   0  0  1  0  0  0  0  0  0  0  0  0
   22.0653  -10.1035  -13.1660 C   0  0  0  0  0  0  0  0  0  0  0  0
   22.5910   -8.1938  -14.6825 C   0  0  0  0  0  0  0  0  0  0  0  0
   21.3259   -7.4441  -14.5352 C   0  0  2  0  0  0  0  0  0  0  0  0
   20.3547   -7.6884  -15.5599 N   0  0  0  0  0  0  0  0  0  0  0  0
   21.5787   -5.9548  -14.5257 C   0  0  0  0  0  0  0  0  0  0  0  0
   22.2360   -5.3625  -13.4763 O   0  0  0  0  0  0  0  0  0  0  0  0
   21.1870   -5.2521  -15.4809 O   0  0  0  0  0  0  0  0  0  0  0  0
  2  3  1  0
  2  1  1  6
  4  2  1  0
  4  5  2  0
  6  4  1  0
  7  6  1  0
  7 12  1  0
  7  8  1  1
  9 10  1  0
  9  8  1  0
 10 11  2  0
 12 13  2  0
 12 20  1  0
 14 10  1  0
 16 15  1  1
 16 17  1  0
 18 16  1  0
 19 18  1  6
 20 19  1  0
 21 19  1  0
 21 22  1  0
 23 21  2  0
M  END
$$$$
