AEL.pdb
     RDKit          3D

 23 22  0  0  1  0  0  0  0  0999 V2000
   25.5159  -20.1256   -7.2534 C   0  0  0  0  0  0  0  0  0  0  0  0
   24.2320  -20.5886   -7.9168 C   0  0  2  0  0  0  0  0  0  0  0  0
   23.6115  -21.6525   -7.1862 N   0  0  0  0  0  0  0  0  0  0  0  0
   24.5628  -20.9803   -9.3172 C   0  0  0  0  0  0  0  0  0  0  0  0
   25.2036  -22.0383   -9.5458 O   0  0  0  0  0  0  0  0  0  0  0  0
   24.1835  -20.2016  -10.4457 N   0  0  0  0  0  0  0  0  0  0  0  0
   24.4481  -20.5951  -11.8108 C   0  0  1  0  0  0  0  0  0  0  0  0
   23.3335  -20.2150  -12.7516 C   0  0  0  0  0  0  0  0  0  0  0  0
   22.1469  -21.1191  -12.6620 C   0  0  0  0  0  0  0  0  0  0  0  0
   21.1212  -20.6210  -13.6161 C   0  0  0  0  0  0  0  0  0  0  0  0
   20.0037  -21.1988  -13.7674 O   0  0  0  0  0  0  0  0  0  0  0  0
   25.7168  -19.9425  -12.2261 C   0  0  0  0  0  0  0  0  0  0  0  0
   26.2309  -18.9840  -11.5753 O   0  0  0  0  0  0  0  0  0  0  0  0
   21.3240  -19.4845  -14.4066 O   0  0  0  0  0  0  0  0  0  0  0  0
   30.8162  -21.7333  -11.7303 C   0  0  0  0  0  0  0  0  0  0  0  0
   30.1169  -20.6826  -12.5459 C   0  0  1  0  0  0  0  0  0  0  0  0
   30.6044  -20.8252  -13.9812 C   0  0  0  0  0  0  0  0  0  0  0  0
   28.6484  -20.7781  -12.4337 C   0  0  0  0  0  0  0  0  0  0  0  0
   27.8464  -20.2097  -13.5373 C   0  0  2  0  0  0  0  0  0  0  0  0
   26.4296  -20.3767  -13.4043 N   0  0  0  0  0  0  0  0  0  0  0  0
   28.2322  -20.8290  -14.8600 C   0  0  0  0  0  0  0  0  0  0  0  0
   28.9293  -20.1056  -15.7954 O   0  0  0  0  0  0  0  0  0  0  0  0
   27.9155  -22.0111  -15.1084 O   0  0  0  0  0  0  0  0  0  0  0  0
  2  3  1  0
  2  1  1  1
  4  2  1  0
  4  5  2  0
  6  4  1  0
  7  6  1  0
  7 12  1  0
  7  8  1  6
  9 10  1  0
  9  8  1  0
 10 11  2  0
 12 13  2  0
 12 20  1  0
 14 10  1  0
 16 15  1  1
 16 17  1  0
 18 16  1  0
 19 18  1  1
 20 19  1  0
 21 19  1  0
 21 22  1  0
 23 21  2  0
M  END
$$$$
