AEL.pdb
     RDKit          3D

 23 22  0  0  1  0  0  0  0  0999 V2000
   28.5138  -20.1459  -16.5031 C   0  0  0  0  0  0  0  0  0  0  0  0
   27.6444  -21.0467  -15.6455 C   0  0  2  0  0  0  0  0  0  0  0  0
   26.6645  -21.7385  -16.4276 N   0  0  0  0  0  0  0  0  0  0  0  0
   27.0278  -20.2012  -14.5831 C   0  0  0  0  0  0  0  0  0  0  0  0
   26.7526  -18.9952  -14.8116 O   0  0  0  0  0  0  0  0  0  0  0  0
   26.7231  -20.6954  -13.2843 N   0  0  0  0  0  0  0  0  0  0  0  0
   25.8294  -20.0266  -12.3665 C   0  0  1  0  0  0  0  0  0  0  0  0
   24.4068  -19.9900  -12.8632 C   0  0  0  0  0  0  0  0  0  0  0  0
   23.8799  -21.3328  -13.2541 C   0  0  0  0  0  0  0  0  0  0  0  0
   22.4909  -21.1502  -13.7518 C   0  0  0  0  0  0  0  0  0  0  0  0
   21.9176  -20.0202  -13.7520 O   0  0  0  0  0  0  0  0  0  0  0  0
   25.9026  -20.7452  -11.0680 C   0  0  0  0  0  0  0  0  0  0  0  0
   25.8693  -22.0100  -10.9901 O   0  0  0  0  0  0  0  0  0  0  0  0
   21.7293  -22.2125  -14.2509 O   0  0  0  0  0  0  0  0  0  0  0  0
   28.4769  -18.5871   -6.5349 C   0  0  0  0  0  0  0  0  0  0  0  0
   28.0360  -19.5469   -7.6038 C   0  0  1  0  0  0  0  0  0  0  0  0
   28.9879  -20.7345   -7.5660 C   0  0  0  0  0  0  0  0  0  0  0  0
   26.6242  -19.9462   -7.4441 C   0  0  0  0  0  0  0  0  0  0  0  0
   26.0028  -20.6969   -8.5553 C   0  0  2  0  0  0  0  0  0  0  0  0
   26.0163  -20.0259   -9.8212 N   0  0  0  0  0  0  0  0  0  0  0  0
   24.5581  -21.0156   -8.2504 C   0  0  0  0  0  0  0  0  0  0  0  0
   24.2295  -21.8594   -7.2189 O   0  0  0  0  0  0  0  0  0  0  0  0
   23.6506  -20.5078   -8.9419 O   0  0  0  0  0  0  0  0  0  0  0  0
  2  3  1  0
  2  1  1  6
  4  2  1  0
  4  5  2  0
  6  4  1  0
  7  6  1  0
  7 12  1  0
  7  8  1  6
  9 10  1  0
  9  8  1  0
 10 11  2  0
 12 13  2  0
 12 20  1  0
 14 10  1  0
 16 15  1  1
 16 17  1  0
 18 16  1  0
 19 18  1  1
 20 19  1  0
 21 19  1  0
 21 22  1  0
 23 21  2  0
M  END
$$$$
