AEL.pdb
     RDKit          3D

 23 22  0  0  1  0  0  0  0  0999 V2000
   17.8724  -12.6616  -15.3886 C   0  0  0  0  0  0  0  0  0  0  0  0
   17.0002  -11.5659  -15.9730 C   0  0  2  0  0  0  0  0  0  0  0  0
   17.3485  -11.2791  -17.3320 N   0  0  0  0  0  0  0  0  0  0  0  0
   17.1259  -10.3699  -15.0911 C   0  0  0  0  0  0  0  0  0  0  0  0
   16.7993  -10.4383  -13.8783 O   0  0  0  0  0  0  0  0  0  0  0  0
   17.6093   -9.1157  -15.5572 N   0  0  0  0  0  0  0  0  0  0  0  0
   17.9009   -8.0003  -14.6858 C   0  0  1  0  0  0  0  0  0  0  0  0
   19.3773   -7.8289  -14.4354 C   0  0  0  0  0  0  0  0  0  0  0  0
   20.2070   -7.9485  -15.6726 C   0  0  0  0  0  0  0  0  0  0  0  0
   21.6127   -7.6261  -15.3117 C   0  0  0  0  0  0  0  0  0  0  0  0
   22.5222   -8.5080  -15.2878 O   0  0  0  0  0  0  0  0  0  0  0  0
   17.3417   -6.7789  -15.3210 C   0  0  0  0  0  0  0  0  0  0  0  0
   17.2389   -6.6549  -16.5783 O   0  0  0  0  0  0  0  0  0  0  0  0
   22.0207   -6.3304  -14.9760 O   0  0  0  0  0  0  0  0  0  0  0  0
   12.8761   -3.8975  -13.8427 C   0  0  0  0  0  0  0  0  0  0  0  0
   13.9505   -4.4457  -14.7389 C   0  0  1  0  0  0  0  0  0  0  0  0
   13.4847   -4.2506  -16.1752 C   0  0  0  0  0  0  0  0  0  0  0  0
   15.2628   -3.8225  -14.4787 C   0  0  0  0  0  0  0  0  0  0  0  0
   16.4439   -4.4382  -15.1193 C   0  0  2  0  0  0  0  0  0  0  0  0
   16.8847   -5.6647  -14.5244 N   0  0  0  0  0  0  0  0  0  0  0  0
   17.6247   -3.4964  -15.0933 C   0  0  0  0  0  0  0  0  0  0  0  0
   17.5887   -2.3087  -15.7805 O   0  0  0  0  0  0  0  0  0  0  0  0
   18.6459   -3.7983  -14.4409 O   0  0  0  0  0  0  0  0  0  0  0  0
  2  3  1  0
  2  1  1  1
  4  2  1  0
  4  5  2  0
  6  4  1  0
  7  6  1  0
  7 12  1  0
  7  8  1  6
  9 10  1  0
  9  8  1  0
 10 11  2  0
 12 13  2  0
 12 20  1  0
 14 10  1  0
 16 15  1  1
 16 17  1  0
 18 16  1  0
 19 18  1  1
 20 19  1  0
 21 19  1  0
 21 22  1  0
 23 21  2  0
M  END
$$$$
