AEL.pdb
     RDKit          3D

 23 22  0  0  1  0  0  0  0  0999 V2000
   16.6324  -11.8155  -14.8890 C   0  0  0  0  0  0  0  0  0  0  0  0
   15.8598  -10.5112  -14.9580 C   0  0  2  0  0  0  0  0  0  0  0  0
   14.7460  -10.6014  -15.8535 N   0  0  0  0  0  0  0  0  0  0  0  0
   16.8182   -9.4387  -15.3518 C   0  0  0  0  0  0  0  0  0  0  0  0
   17.5320   -9.5711  -16.3791 O   0  0  0  0  0  0  0  0  0  0  0  0
   16.9771   -8.2358  -14.6091 N   0  0  0  0  0  0  0  0  0  0  0  0
   17.7880   -7.1255  -15.0542 C   0  0  1  0  0  0  0  0  0  0  0  0
   17.0589   -5.8082  -14.9832 C   0  0  0  0  0  0  0  0  0  0  0  0
   16.0354   -5.6375  -16.0587 C   0  0  0  0  0  0  0  0  0  0  0  0
   15.0480   -4.6287  -15.5924 C   0  0  0  0  0  0  0  0  0  0  0  0
   15.2549   -3.9026  -14.5747 O   0  0  0  0  0  0  0  0  0  0  0  0
   19.0025   -7.0880  -14.1990 C   0  0  0  0  0  0  0  0  0  0  0  0
   18.9531   -7.2553  -12.9435 O   0  0  0  0  0  0  0  0  0  0  0  0
   13.8292   -4.4168  -16.2462 O   0  0  0  0  0  0  0  0  0  0  0  0
   23.5695   -9.7942  -15.1643 C   0  0  0  0  0  0  0  0  0  0  0  0
   22.4340   -9.0918  -14.4750 C   0  0  1  0  0  0  0  0  0  0  0  0
   22.3129   -9.6889  -13.0797 C   0  0  0  0  0  0  0  0  0  0  0  0
   22.6186   -7.6277  -14.4512 C   0  0  0  0  0  0  0  0  0  0  0  0
   21.4905   -6.8106  -13.9571 C   0  0  2  0  0  0  0  0  0  0  0  0
   20.3096   -6.8564  -14.7670 N   0  0  0  0  0  0  0  0  0  0  0  0
   21.8839   -5.3562  -13.8484 C   0  0  0  0  0  0  0  0  0  0  0  0
   22.7342   -4.9327  -12.8575 O   0  0  0  0  0  0  0  0  0  0  0  0
   21.4329   -4.5278  -14.6668 O   0  0  0  0  0  0  0  0  0  0  0  0
  2  3  1  0
  2  1  1  6
  4  2  1  0
  4  5  2  0
  6  4  1  0
  7  6  1  0
  7 12  1  0
  7  8  1  1
  9 10  1  0
  9  8  1  0
 10 11  2  0
 12 13  2  0
 12 20  1  0
 14 10  1  0
 16 15  1  1
 16 17  1  0
 18 16  1  0
 19 18  1  6
 20 19  1  0
 21 19  1  0
 21 22  1  0
 23 21  2  0
M  END
$$$$
