AEL.pdb
     RDKit          3D

 23 22  0  0  1  0  0  0  0  0999 V2000
   25.7932  -15.2516  -15.2293 C   0  0  0  0  0  0  0  0  0  0  0  0
   25.4435  -16.5542  -15.9251 C   0  0  2  0  0  0  0  0  0  0  0  0
   24.3830  -16.3815  -16.8716 N   0  0  0  0  0  0  0  0  0  0  0  0
   25.1050  -17.5529  -14.8706 C   0  0  0  0  0  0  0  0  0  0  0  0
   24.1745  -17.3247  -14.0554 O   0  0  0  0  0  0  0  0  0  0  0  0
   25.7957  -18.7884  -14.7286 N   0  0  0  0  0  0  0  0  0  0  0  0
   25.3961  -19.8230  -13.8021 C   0  0  1  0  0  0  0  0  0  0  0  0
   25.3174  -21.1827  -14.4478 C   0  0  0  0  0  0  0  0  0  0  0  0
   24.9784  -22.2768  -13.4880 C   0  0  0  0  0  0  0  0  0  0  0  0
   24.9627  -23.5573  -14.2434 C   0  0  0  0  0  0  0  0  0  0  0  0
   24.6567  -24.6589  -13.6972 O   0  0  0  0  0  0  0  0  0  0  0  0
   26.3854  -19.8364  -12.6935 C   0  0  0  0  0  0  0  0  0  0  0  0
   27.6297  -19.7000  -12.8933 O   0  0  0  0  0  0  0  0  0  0  0  0
   25.2844  -23.6277  -15.6033 O   0  0  0  0  0  0  0  0  0  0  0  0
   26.9144  -19.2015   -6.6724 C   0  0  0  0  0  0  0  0  0  0  0  0
   27.6211  -19.1988   -7.9986 C   0  0  1  0  0  0  0  0  0  0  0  0
   28.5204  -20.4267   -8.0345 C   0  0  0  0  0  0  0  0  0  0  0  0
   26.6764  -19.1544   -9.1316 C   0  0  0  0  0  0  0  0  0  0  0  0
   26.9127  -20.0939  -10.2478 C   0  0  2  0  0  0  0  0  0  0  0  0
   25.9683  -20.0077  -11.3218 N   0  0  0  0  0  0  0  0  0  0  0  0
   26.8875  -21.5247   -9.7639 C   0  0  0  0  0  0  0  0  0  0  0  0
   28.0325  -22.2816   -9.7557 O   0  0  0  0  0  0  0  0  0  0  0  0
   25.8156  -22.0273   -9.3666 O   0  0  0  0  0  0  0  0  0  0  0  0
  2  3  1  0
  2  1  1  1
  4  2  1  0
  4  5  2  0
  6  4  1  0
  7  6  1  0
  7 12  1  0
  7  8  1  6
  9 10  1  0
  9  8  1  0
 10 11  2  0
 12 13  2  0
 12 20  1  0
 14 10  1  0
 16 15  1  1
 16 17  1  0
 18 16  1  0
 19 18  1  1
 20 19  1  0
 21 19  1  0
 21 22  1  0
 23 21  2  0
M  END
$$$$
