AEL.pdb
     RDKit          3D

 23 22  0  0  1  0  0  0  0  0999 V2000
   17.3504  -14.9157  -17.6777 C   0  0  0  0  0  0  0  0  0  0  0  0
   17.2230  -14.0309  -16.4514 C   0  0  2  0  0  0  0  0  0  0  0  0
   15.8892  -14.0359  -15.9303 N   0  0  0  0  0  0  0  0  0  0  0  0
   17.6776  -12.6627  -16.8323 C   0  0  0  0  0  0  0  0  0  0  0  0
   18.2746  -12.4729  -17.9232 O   0  0  0  0  0  0  0  0  0  0  0  0
   17.4684  -11.5230  -16.0069 N   0  0  0  0  0  0  0  0  0  0  0  0
   17.7961  -10.1749  -16.4116 C   0  0  1  0  0  0  0  0  0  0  0  0
   16.5951   -9.2644  -16.4262 C   0  0  0  0  0  0  0  0  0  0  0  0
   15.5913   -9.6227  -17.4737 C   0  0  0  0  0  0  0  0  0  0  0  0
   14.2627   -9.1358  -17.0175 C   0  0  0  0  0  0  0  0  0  0  0  0
   13.5398   -9.7997  -16.2162 O   0  0  0  0  0  0  0  0  0  0  0  0
   18.8200   -9.6608  -15.4653 C   0  0  0  0  0  0  0  0  0  0  0  0
   18.7547   -9.8691  -14.2167 O   0  0  0  0  0  0  0  0  0  0  0  0
   13.7265   -7.9155  -17.4431 O   0  0  0  0  0  0  0  0  0  0  0  0
   24.0399  -10.7219  -15.3285 C   0  0  0  0  0  0  0  0  0  0  0  0
   22.6502  -10.3160  -14.9260 C   0  0  1  0  0  0  0  0  0  0  0  0
   22.5394  -10.5132  -13.4204 C   0  0  0  0  0  0  0  0  0  0  0  0
   22.3317   -8.9363  -15.3422 C   0  0  0  0  0  0  0  0  0  0  0  0
   20.9745   -8.4343  -15.0415 C   0  0  2  0  0  0  0  0  0  0  0  0
   19.9492   -8.8912  -15.9318 N   0  0  0  0  0  0  0  0  0  0  0  0
   20.9368   -6.9246  -15.0775 C   0  0  0  0  0  0  0  0  0  0  0  0
   21.5206   -6.1854  -14.0790 O   0  0  0  0  0  0  0  0  0  0  0  0
   20.3695   -6.3397  -16.0238 O   0  0  0  0  0  0  0  0  0  0  0  0
  2  3  1  0
  2  1  1  6
  4  2  1  0
  4  5  2  0
  6  4  1  0
  7  6  1  0
  7 12  1  0
  7  8  1  1
  9 10  1  0
  9  8  1  0
 10 11  2  0
 12 13  2  0
 12 20  1  0
 14 10  1  0
 16 15  1  1
 16 17  1  0
 18 16  1  0
 19 18  1  6
 20 19  1  0
 21 19  1  0
 21 22  1  0
 23 21  2  0
M  END
$$$$
