HFD.pdb
     RDKit          3D

 30 31  0  0  1  0  0  0  0  0999 V2000
   10.5143  -14.9803   18.9744 N   0  0  0  0  0  0  0  0  0  0  0  0
    9.1972  -14.7545   19.5241 C   0  0  1  0  0  0  0  0  0  0  0  0
    8.2006  -15.7284   18.9687 C   0  0  0  0  0  0  0  0  0  0  0  0
    8.0998  -15.5691   17.4902 C   0  0  0  0  0  0  0  0  0  0  0  0
    7.7661  -14.3809   16.8396 C   0  0  0  0  0  0  0  0  0  0  0  0
    7.7655  -14.5952   15.5148 N   0  0  0  0  0  0  0  0  0  0  0  0
    8.0908  -15.8874   15.3301 C   0  0  0  0  0  0  0  0  0  0  0  0
    8.2937  -16.4795   16.5206 N   0  0  0  0  0  0  0  0  0  0  0  0
    9.1839  -14.8608   21.0188 C   0  0  0  0  0  0  0  0  0  0  0  0
   10.0697  -15.5828   21.5330 O   0  0  0  0  0  0  0  0  0  0  0  0
    8.2110  -14.1733   21.7938 N   0  0  0  0  0  0  0  0  0  0  0  0
    8.3323  -14.0533   23.2280 C   0  0  1  0  0  0  0  0  0  0  0  0
    7.2119  -13.2144   23.7370 C   0  0  0  0  0  0  0  0  0  0  0  0
    7.1445  -13.0275   25.1759 C   0  0  0  0  0  0  0  0  0  0  0  0
    6.1225  -13.4412   25.9880 C   0  0  0  0  0  0  0  0  0  0  0  0
    6.1252  -13.2191   27.3402 C   0  0  0  0  0  0  0  0  0  0  0  0
    7.1886  -12.5554   27.9234 C   0  0  0  0  0  0  0  0  0  0  0  0
    8.2243  -12.1314   27.1294 C   0  0  0  0  0  0  0  0  0  0  0  0
    8.2041  -12.3618   25.7838 C   0  0  0  0  0  0  0  0  0  0  0  0
    8.3417  -15.4184   23.8201 C   0  0  0  0  0  0  0  0  0  0  0  0
    7.4099  -16.2212   23.5717 O   0  0  0  0  0  0  0  0  0  0  0  0
    9.3849  -15.8629   24.6763 N   0  0  0  0  0  0  0  0  0  0  0  0
    9.4725  -17.1753   25.2767 C   0  0  1  0  0  0  0  0  0  0  0  0
   10.8499  -17.7862   25.1377 C   0  0  0  0  0  0  0  0  0  0  0  0
   10.9533  -19.1049   25.7603 C   0  0  0  0  0  0  0  0  0  0  0  0
   11.1389  -19.1960   26.9960 O   0  0  0  0  0  0  0  0  0  0  0  0
    9.0180  -17.1840   26.6786 C   0  0  0  0  0  0  0  0  0  0  0  0
    9.5384  -16.2906   27.5797 O   0  0  0  0  0  0  0  0  0  0  0  0
   10.8523  -20.2751   25.0292 O   0  0  0  0  0  0  0  0  0  0  0  0
    8.1576  -18.0070   27.0455 O   0  0  0  0  0  0  0  0  0  0  0  0
  2  1  1  6
  3  4  1  0
  3  2  1  0
  4  8  1  0
  5  4  2  0
  5  6  1  0
  6  7  1  0
  8  7  2  0
  9  2  1  0
 10  9  2  0
 11  9  1  0
 12 11  1  0
 12 13  1  1
 13 14  1  0
 14 15  2  0
 15 16  1  0
 17 16  2  0
 18 17  1  0
 19 14  1  0
 19 18  2  0
 20 12  1  0
 21 20  2  0
 22 20  1  0
 23 27  1  0
 23 22  1  0
 23 24  1  1
 25 29  1  0
 25 24  1  0
 26 25  2  0
 27 28  1  0
 30 27  2  0
M  END
$$$$
