HFD.pdb
     RDKit          3D

 30 31  0  0  1  0  0  0  0  0999 V2000
    7.8118  -15.6455   18.5778 N   0  0  0  0  0  0  0  0  0  0  0  0
    8.2885  -16.5178   19.6264 C   0  0  1  0  0  0  0  0  0  0  0  0
    9.4828  -17.3070   19.1780 C   0  0  0  0  0  0  0  0  0  0  0  0
    9.1264  -18.1483   18.0003 C   0  0  0  0  0  0  0  0  0  0  0  0
    7.9636  -18.9114   17.8912 C   0  0  0  0  0  0  0  0  0  0  0  0
    7.9662  -19.5420   16.7067 N   0  0  0  0  0  0  0  0  0  0  0  0
    9.1027  -19.1875   16.0802 C   0  0  0  0  0  0  0  0  0  0  0  0
    9.8065  -18.3457   16.8580 N   0  0  0  0  0  0  0  0  0  0  0  0
    8.6570  -15.7607   20.8661 C   0  0  0  0  0  0  0  0  0  0  0  0
    9.7698  -15.1847   20.8558 O   0  0  0  0  0  0  0  0  0  0  0  0
    7.7791  -15.7110   21.9826 N   0  0  0  0  0  0  0  0  0  0  0  0
    8.1080  -14.9597   23.1715 C   0  0  1  0  0  0  0  0  0  0  0  0
    6.8979  -14.2173   23.6216 C   0  0  0  0  0  0  0  0  0  0  0  0
    6.9998  -13.5229   24.8933 C   0  0  0  0  0  0  0  0  0  0  0  0
    6.4205  -13.9200   26.0689 C   0  0  0  0  0  0  0  0  0  0  0  0
    6.5538  -13.2046   27.2299 C   0  0  0  0  0  0  0  0  0  0  0  0
    7.2955  -12.0378   27.2345 C   0  0  0  0  0  0  0  0  0  0  0  0
    7.8854  -11.6200   26.0681 C   0  0  0  0  0  0  0  0  0  0  0  0
    7.7415  -12.3461   24.9209 C   0  0  0  0  0  0  0  0  0  0  0  0
    8.6195  -15.9022   24.2031 C   0  0  0  0  0  0  0  0  0  0  0  0
    7.8860  -16.8235   24.6363 O   0  0  0  0  0  0  0  0  0  0  0  0
    9.9342  -15.8015   24.7325 N   0  0  0  0  0  0  0  0  0  0  0  0
   10.5271  -16.7183   25.6803 C   0  0  1  0  0  0  0  0  0  0  0  0
   12.0370  -16.6248   25.7116 C   0  0  0  0  0  0  0  0  0  0  0  0
   12.6308  -16.5519   24.3777 C   0  0  0  0  0  0  0  0  0  0  0  0
   13.5338  -15.7153   24.1442 O   0  0  0  0  0  0  0  0  0  0  0  0
    9.9507  -16.5829   27.0299 C   0  0  0  0  0  0  0  0  0  0  0  0
   10.2855  -17.4740   28.0173 O   0  0  0  0  0  0  0  0  0  0  0  0
   12.2308  -17.3827   23.3464 O   0  0  0  0  0  0  0  0  0  0  0  0
    9.1559  -15.6549   27.2737 O   0  0  0  0  0  0  0  0  0  0  0  0
  2  1  1  6
  3  4  1  0
  3  2  1  0
  4  8  1  0
  5  4  2  0
  5  6  1  0
  6  7  1  0
  8  7  2  0
  9  2  1  0
 10  9  2  0
 11  9  1  0
 12 11  1  0
 12 13  1  1
 13 14  1  0
 14 15  2  0
 15 16  1  0
 17 16  2  0
 18 17  1  0
 19 14  1  0
 19 18  2  0
 20 12  1  0
 21 20  2  0
 22 20  1  0
 23 27  1  0
 23 22  1  0
 23 24  1  1
 25 29  1  0
 25 24  1  0
 26 25  2  0
 27 28  1  0
 30 27  2  0
M  END
$$$$
