HFD.pdb
     RDKit          3D

 30 31  0  0  1  0  0  0  0  0999 V2000
    8.1305  -12.8975   20.6918 N   0  0  0  0  0  0  0  0  0  0  0  0
    8.0936  -14.2948   21.0578 C   0  0  1  0  0  0  0  0  0  0  0  0
    8.7932  -15.1439   20.0381 C   0  0  0  0  0  0  0  0  0  0  0  0
    8.2643  -14.8471   18.6765 C   0  0  0  0  0  0  0  0  0  0  0  0
    6.9202  -14.9259   18.3112 C   0  0  0  0  0  0  0  0  0  0  0  0
    6.8010  -14.5958   17.0160 N   0  0  0  0  0  0  0  0  0  0  0  0
    8.0390  -14.3147   16.5711 C   0  0  0  0  0  0  0  0  0  0  0  0
    8.9261  -14.4652   17.5708 N   0  0  0  0  0  0  0  0  0  0  0  0
    8.7211  -14.5443   22.3956 C   0  0  0  0  0  0  0  0  0  0  0  0
    9.8757  -14.0866   22.5625 O   0  0  0  0  0  0  0  0  0  0  0  0
    8.0288  -15.2636   23.4071 N   0  0  0  0  0  0  0  0  0  0  0  0
    8.5757  -15.4187   24.7349 C   0  0  1  0  0  0  0  0  0  0  0  0
    7.4800  -15.2488   25.7293 C   0  0  0  0  0  0  0  0  0  0  0  0
    7.1526  -13.8846   26.1056 C   0  0  0  0  0  0  0  0  0  0  0  0
    5.9335  -13.2822   25.9440 C   0  0  0  0  0  0  0  0  0  0  0  0
    5.7027  -11.9836   26.3156 C   0  0  0  0  0  0  0  0  0  0  0  0
    6.7245  -11.2392   26.8752 C   0  0  0  0  0  0  0  0  0  0  0  0
    7.9551  -11.8217   27.0468 C   0  0  0  0  0  0  0  0  0  0  0  0
    8.1662  -13.1170   26.6704 C   0  0  0  0  0  0  0  0  0  0  0  0
    9.2316  -16.7512   24.8262 C   0  0  0  0  0  0  0  0  0  0  0  0
    8.6055  -17.7875   24.4969 O   0  0  0  0  0  0  0  0  0  0  0  0
   10.5686  -16.9050   25.2820 N   0  0  0  0  0  0  0  0  0  0  0  0
   11.2337  -18.1678   25.5132 C   0  0  1  0  0  0  0  0  0  0  0  0
   12.7400  -18.0554   25.4230 C   0  0  0  0  0  0  0  0  0  0  0  0
   13.1927  -17.4662   24.1640 C   0  0  0  0  0  0  0  0  0  0  0  0
   12.7078  -17.8668   23.0804 O   0  0  0  0  0  0  0  0  0  0  0  0
   10.8152  -18.8010   26.7765 C   0  0  0  0  0  0  0  0  0  0  0  0
   11.2789  -20.0473   27.1120 O   0  0  0  0  0  0  0  0  0  0  0  0
   14.1493  -16.4678   24.1194 O   0  0  0  0  0  0  0  0  0  0  0  0
   10.0368  -18.2006   27.5421 O   0  0  0  0  0  0  0  0  0  0  0  0
  2  1  1  6
  3  4  1  0
  3  2  1  0
  4  8  1  0
  5  4  2  0
  5  6  1  0
  6  7  1  0
  8  7  2  0
  9  2  1  0
 10  9  2  0
 11  9  1  0
 12 11  1  0
 12 13  1  1
 13 14  1  0
 14 15  2  0
 15 16  1  0
 17 16  2  0
 18 17  1  0
 19 14  1  0
 19 18  2  0
 20 12  1  0
 21 20  2  0
 22 20  1  0
 23 27  1  0
 23 22  1  0
 23 24  1  1
 25 29  1  0
 25 24  1  0
 26 25  2  0
 27 28  1  0
 30 27  2  0
M  END
$$$$
