HFD.pdb
     RDKit          3D

 30 31  0  0  1  0  0  0  0  0999 V2000
   10.1284  -16.4543   19.1044 N   0  0  0  0  0  0  0  0  0  0  0  0
    8.9085  -16.3379   19.8698 C   0  0  1  0  0  0  0  0  0  0  0  0
    8.2045  -17.6582   19.9774 C   0  0  0  0  0  0  0  0  0  0  0  0
    7.5725  -18.0078   18.6735 C   0  0  0  0  0  0  0  0  0  0  0  0
    7.6687  -17.2406   17.5123 C   0  0  0  0  0  0  0  0  0  0  0  0
    6.9809  -17.8462   16.5321 N   0  0  0  0  0  0  0  0  0  0  0  0
    6.4613  -18.9697   17.0588 C   0  0  0  0  0  0  0  0  0  0  0  0
    6.8161  -19.0714   18.3522 N   0  0  0  0  0  0  0  0  0  0  0  0
    9.1578  -15.8179   21.2530 C   0  0  0  0  0  0  0  0  0  0  0  0
   10.3025  -16.0146   21.7232 O   0  0  0  0  0  0  0  0  0  0  0  0
    8.1384  -15.1416   21.9764 N   0  0  0  0  0  0  0  0  0  0  0  0
    8.3652  -14.6353   23.3100 C   0  0  1  0  0  0  0  0  0  0  0  0
    7.2069  -13.7869   23.7059 C   0  0  0  0  0  0  0  0  0  0  0  0
    7.2204  -13.2638   25.0609 C   0  0  0  0  0  0  0  0  0  0  0  0
    7.9923  -12.2249   25.5083 C   0  0  0  0  0  0  0  0  0  0  0  0
    7.9574  -11.7929   26.8082 C   0  0  0  0  0  0  0  0  0  0  0  0
    7.1195  -12.4153   27.7149 C   0  0  0  0  0  0  0  0  0  0  0  0
    6.3365  -13.4587   27.2893 C   0  0  0  0  0  0  0  0  0  0  0  0
    6.3849  -13.8754   25.9900 C   0  0  0  0  0  0  0  0  0  0  0  0
    8.5720  -15.7883   24.2275 C   0  0  0  0  0  0  0  0  0  0  0  0
    7.6955  -16.6805   24.3284 O   0  0  0  0  0  0  0  0  0  0  0  0
    9.7471  -15.9259   25.0143 N   0  0  0  0  0  0  0  0  0  0  0  0
   10.0199  -17.0130   25.9276 C   0  0  1  0  0  0  0  0  0  0  0  0
   11.3628  -17.6621   25.6727 C   0  0  0  0  0  0  0  0  0  0  0  0
   11.4439  -18.3076   24.3635 C   0  0  0  0  0  0  0  0  0  0  0  0
   10.4198  -18.8266   23.8619 O   0  0  0  0  0  0  0  0  0  0  0  0
    9.8742  -16.6125   27.3384 C   0  0  0  0  0  0  0  0  0  0  0  0
    9.8680  -15.2850   27.6832 O   0  0  0  0  0  0  0  0  0  0  0  0
   12.6238  -18.3691   23.6438 O   0  0  0  0  0  0  0  0  0  0  0  0
    9.7563  -17.4843   28.2207 O   0  0  0  0  0  0  0  0  0  0  0  0
  2  1  1  1
  3  4  1  0
  3  2  1  0
  4  8  1  0
  5  4  2  0
  5  6  1  0
  6  7  1  0
  8  7  2  0
  9  2  1  0
 10  9  2  0
 11  9  1  0
 12 11  1  0
 12 13  1  1
 13 14  1  0
 14 15  2  0
 15 16  1  0
 17 16  2  0
 18 17  1  0
 19 14  1  0
 19 18  2  0
 20 12  1  0
 21 20  2  0
 22 20  1  0
 23 27  1  0
 23 22  1  0
 23 24  1  1
 25 29  1  0
 25 24  1  0
 26 25  2  0
 27 28  1  0
 30 27  2  0
M  END
$$$$
