HFD.pdb
     RDKit          3D

 30 31  0  0  1  0  0  0  0  0999 V2000
    9.9433  -16.5707   18.8987 N   0  0  0  0  0  0  0  0  0  0  0  0
    9.0437  -16.9537   19.9625 C   0  0  1  0  0  0  0  0  0  0  0  0
    9.1514  -18.4187   20.2665 C   0  0  0  0  0  0  0  0  0  0  0  0
    8.5740  -19.2164   19.1476 C   0  0  0  0  0  0  0  0  0  0  0  0
    8.9132  -19.0617   17.8032 C   0  0  0  0  0  0  0  0  0  0  0  0
    8.2048  -19.9359   17.0720 N   0  0  0  0  0  0  0  0  0  0  0  0
    7.4353  -20.6278   17.9316 C   0  0  0  0  0  0  0  0  0  0  0  0
    7.6551  -20.1965   19.1865 N   0  0  0  0  0  0  0  0  0  0  0  0
    9.3020  -16.1861   21.2235 C   0  0  0  0  0  0  0  0  0  0  0  0
   10.5025  -15.9522   21.4961 O   0  0  0  0  0  0  0  0  0  0  0  0
    8.2305  -15.7563   22.0522 N   0  0  0  0  0  0  0  0  0  0  0  0
    8.4638  -14.9945   23.2570 C   0  0  1  0  0  0  0  0  0  0  0  0
    7.2377  -14.2115   23.5761 C   0  0  0  0  0  0  0  0  0  0  0  0
    7.2704  -13.4259   24.7974 C   0  0  0  0  0  0  0  0  0  0  0  0
    7.9956  -12.2806   24.9911 C   0  0  0  0  0  0  0  0  0  0  0  0
    7.9834  -11.5977   26.1790 C   0  0  0  0  0  0  0  0  0  0  0  0
    7.2179  -12.0659   27.2308 C   0  0  0  0  0  0  0  0  0  0  0  0
    6.4827  -13.2119   27.0598 C   0  0  0  0  0  0  0  0  0  0  0  0
    6.5074  -13.8790   25.8689 C   0  0  0  0  0  0  0  0  0  0  0  0
    8.8446  -15.9333   24.3468 C   0  0  0  0  0  0  0  0  0  0  0  0
    8.1634  -16.9656   24.5582 O   0  0  0  0  0  0  0  0  0  0  0  0
    9.9733  -15.7057   25.1794 N   0  0  0  0  0  0  0  0  0  0  0  0
   10.4625  -16.6139   26.1924 C   0  0  1  0  0  0  0  0  0  0  0  0
   11.9702  -16.7419   26.1778 C   0  0  0  0  0  0  0  0  0  0  0  0
   12.5041  -17.0340   24.8486 C   0  0  0  0  0  0  0  0  0  0  0  0
   12.0510  -18.0028   24.1959 O   0  0  0  0  0  0  0  0  0  0  0  0
    9.9632  -16.2780   27.5377 C   0  0  0  0  0  0  0  0  0  0  0  0
   10.2102  -17.1149   28.5958 O   0  0  0  0  0  0  0  0  0  0  0  0
   13.5046  -16.2719   24.2723 O   0  0  0  0  0  0  0  0  0  0  0  0
    9.3138  -15.2293   27.7132 O   0  0  0  0  0  0  0  0  0  0  0  0
  2  1  1  6
  3  4  1  0
  3  2  1  0
  4  8  1  0
  5  4  2  0
  5  6  1  0
  6  7  1  0
  8  7  2  0
  9  2  1  0
 10  9  2  0
 11  9  1  0
 12 11  1  0
 12 13  1  1
 13 14  1  0
 14 15  2  0
 15 16  1  0
 17 16  2  0
 18 17  1  0
 19 14  1  0
 19 18  2  0
 20 12  1  0
 21 20  2  0
 22 20  1  0
 23 27  1  0
 23 22  1  0
 23 24  1  1
 25 29  1  0
 25 24  1  0
 26 25  2  0
 27 28  1  0
 30 27  2  0
M  END
$$$$
