HFD.pdb
     RDKit          3D

 30 31  0  0  1  0  0  0  0  0999 V2000
   10.8337  -14.7802   21.0238 N   0  0  0  0  0  0  0  0  0  0  0  0
    9.5536  -14.6468   21.6805 C   0  0  1  0  0  0  0  0  0  0  0  0
    8.4674  -15.3263   20.9002 C   0  0  0  0  0  0  0  0  0  0  0  0
    8.0849  -14.4933   19.7249 C   0  0  0  0  0  0  0  0  0  0  0  0
    8.7061  -13.2981   19.3617 C   0  0  0  0  0  0  0  0  0  0  0  0
    8.1099  -12.8145   18.2610 N   0  0  0  0  0  0  0  0  0  0  0  0
    7.1347  -13.6817   17.9344 C   0  0  0  0  0  0  0  0  0  0  0  0
    7.1160  -14.6973   18.8160 N   0  0  0  0  0  0  0  0  0  0  0  0
    9.5691  -15.2142   23.0673 C   0  0  0  0  0  0  0  0  0  0  0  0
   10.6959  -15.4791   23.5473 O   0  0  0  0  0  0  0  0  0  0  0  0
    8.3610  -15.4335   23.7830 N   0  0  0  0  0  0  0  0  0  0  0  0
    8.3545  -15.6388   25.2127 C   0  0  1  0  0  0  0  0  0  0  0  0
    7.0618  -15.1454   25.7637 C   0  0  0  0  0  0  0  0  0  0  0  0
    6.9761  -13.7217   26.0386 C   0  0  0  0  0  0  0  0  0  0  0  0
    5.8675  -12.9386   25.8571 C   0  0  0  0  0  0  0  0  0  0  0  0
    5.8662  -11.5958   26.1304 C   0  0  0  0  0  0  0  0  0  0  0  0
    7.0153  -10.9924   26.6069 C   0  0  0  0  0  0  0  0  0  0  0  0
    8.1387  -11.7573   26.7966 C   0  0  0  0  0  0  0  0  0  0  0  0
    8.1210  -13.0939   26.5187 C   0  0  0  0  0  0  0  0  0  0  0  0
    8.5806  -17.0839   25.4864 C   0  0  0  0  0  0  0  0  0  0  0  0
    8.2322  -17.5809   26.5846 O   0  0  0  0  0  0  0  0  0  0  0  0
    9.1894  -17.9463   24.5354 N   0  0  0  0  0  0  0  0  0  0  0  0
   10.3159  -18.8150   24.7943 C   0  0  1  0  0  0  0  0  0  0  0  0
   11.5724  -18.3636   24.0823 C   0  0  0  0  0  0  0  0  0  0  0  0
   12.7046  -19.2625   24.3004 C   0  0  0  0  0  0  0  0  0  0  0  0
   12.5709  -20.2611   25.0451 O   0  0  0  0  0  0  0  0  0  0  0  0
   10.5543  -19.0126   26.2352 C   0  0  0  0  0  0  0  0  0  0  0  0
   11.0057  -17.9749   27.0100 O   0  0  0  0  0  0  0  0  0  0  0  0
   13.9370  -19.0527   23.7080 O   0  0  0  0  0  0  0  0  0  0  0  0
   10.3449  -20.1276   26.7503 O   0  0  0  0  0  0  0  0  0  0  0  0
  2  1  1  6
  3  4  1  0
  3  2  1  0
  4  8  1  0
  5  4  2  0
  5  6  1  0
  6  7  1  0
  8  7  2  0
  9  2  1  0
 10  9  2  0
 11  9  1  0
 12 11  1  0
 12 13  1  6
 13 14  1  0
 14 15  2  0
 15 16  1  0
 17 16  2  0
 18 17  1  0
 19 14  1  0
 19 18  2  0
 20 12  1  0
 21 20  2  0
 22 20  1  0
 23 27  1  0
 23 22  1  0
 23 24  1  1
 25 29  1  0
 25 24  1  0
 26 25  2  0
 27 28  1  0
 30 27  2  0
M  END
$$$$
