HFD.pdb
     RDKit          3D

 30 31  0  0  1  0  0  0  0  0999 V2000
    8.0117  -16.1522   19.0824 N   0  0  0  0  0  0  0  0  0  0  0  0
    8.6692  -14.8712   19.2035 C   0  0  1  0  0  0  0  0  0  0  0  0
    7.9040  -13.7964   18.4897 C   0  0  0  0  0  0  0  0  0  0  0  0
    7.8054  -14.1178   17.0376 C   0  0  0  0  0  0  0  0  0  0  0  0
    8.5201  -13.4700   16.0297 C   0  0  0  0  0  0  0  0  0  0  0  0
    8.1881  -14.0079   14.8459 N   0  0  0  0  0  0  0  0  0  0  0  0
    7.2851  -14.9729   15.0971 C   0  0  0  0  0  0  0  0  0  0  0  0
    7.0510  -15.0428   16.4197 N   0  0  0  0  0  0  0  0  0  0  0  0
    8.8447  -14.4601   20.6338 C   0  0  0  0  0  0  0  0  0  0  0  0
    9.6321  -13.5088   20.8464 O   0  0  0  0  0  0  0  0  0  0  0  0
    8.1480  -15.1258   21.6784 N   0  0  0  0  0  0  0  0  0  0  0  0
    8.3195  -14.7499   23.0624 C   0  0  1  0  0  0  0  0  0  0  0  0
    7.0261  -14.2253   23.5822 C   0  0  0  0  0  0  0  0  0  0  0  0
    7.0401  -13.6896   24.9323 C   0  0  0  0  0  0  0  0  0  0  0  0
    6.3639  -14.2080   26.0043 C   0  0  0  0  0  0  0  0  0  0  0  0
    6.4183  -13.6391   27.2497 C   0  0  0  0  0  0  0  0  0  0  0  0
    7.1773  -12.5012   27.4507 C   0  0  0  0  0  0  0  0  0  0  0  0
    7.8637  -11.9637   26.3910 C   0  0  0  0  0  0  0  0  0  0  0  0
    7.7975  -12.5445   25.1572 C   0  0  0  0  0  0  0  0  0  0  0  0
    8.8040  -15.9351   23.8204 C   0  0  0  0  0  0  0  0  0  0  0  0
    8.1847  -17.0243   23.7534 O   0  0  0  0  0  0  0  0  0  0  0  0
    9.9653  -15.8856   24.6376 N   0  0  0  0  0  0  0  0  0  0  0  0
   10.5121  -16.9976   25.3827 C   0  0  1  0  0  0  0  0  0  0  0  0
   12.0247  -16.9836   25.4197 C   0  0  0  0  0  0  0  0  0  0  0  0
   12.5901  -18.1768   26.0474 C   0  0  0  0  0  0  0  0  0  0  0  0
   12.9248  -18.1448   27.2543 O   0  0  0  0  0  0  0  0  0  0  0  0
    9.9408  -17.1024   26.7372 C   0  0  0  0  0  0  0  0  0  0  0  0
    9.4898  -18.3098   27.2058 O   0  0  0  0  0  0  0  0  0  0  0  0
   12.7727  -19.3589   25.3524 O   0  0  0  0  0  0  0  0  0  0  0  0
    9.8676  -16.0891   27.4585 O   0  0  0  0  0  0  0  0  0  0  0  0
  2  1  1  1
  3  4  1  0
  3  2  1  0
  4  8  1  0
  5  4  2  0
  5  6  1  0
  6  7  1  0
  8  7  2  0
  9  2  1  0
 10  9  2  0
 11  9  1  0
 12 11  1  0
 12 13  1  1
 13 14  1  0
 14 15  2  0
 15 16  1  0
 17 16  2  0
 18 17  1  0
 19 14  1  0
 19 18  2  0
 20 12  1  0
 21 20  2  0
 22 20  1  0
 23 27  1  0
 23 22  1  0
 23 24  1  1
 25 29  1  0
 25 24  1  0
 26 25  2  0
 27 28  1  0
 30 27  2  0
M  END
$$$$
