HFD.pdb
     RDKit          3D

 30 31  0  0  1  0  0  0  0  0999 V2000
    9.8342  -16.7091   19.1763 N   0  0  0  0  0  0  0  0  0  0  0  0
    8.9584  -17.0322   20.2793 C   0  0  1  0  0  0  0  0  0  0  0  0
    9.0528  -18.4845   20.6428 C   0  0  0  0  0  0  0  0  0  0  0  0
    8.5797  -19.3270   19.5079 C   0  0  0  0  0  0  0  0  0  0  0  0
    7.2649  -19.3690   19.0431 C   0  0  0  0  0  0  0  0  0  0  0  0
    7.1932  -20.2307   18.0169 N   0  0  0  0  0  0  0  0  0  0  0  0
    8.4319  -20.7229   17.8355 C   0  0  0  0  0  0  0  0  0  0  0  0
    9.2727  -20.1798   18.7339 N   0  0  0  0  0  0  0  0  0  0  0  0
    9.2624  -16.2160   21.4988 C   0  0  0  0  0  0  0  0  0  0  0  0
   10.4729  -16.0942   21.7990 O   0  0  0  0  0  0  0  0  0  0  0  0
    8.2207  -15.6211   22.2608 N   0  0  0  0  0  0  0  0  0  0  0  0
    8.4923  -14.9059   23.4859 C   0  0  1  0  0  0  0  0  0  0  0  0
    7.3112  -14.0639   23.8235 C   0  0  0  0  0  0  0  0  0  0  0  0
    7.3776  -13.3260   25.0728 C   0  0  0  0  0  0  0  0  0  0  0  0
    8.2990  -12.3615   25.3827 C   0  0  0  0  0  0  0  0  0  0  0  0
    8.3040  -11.7139   26.5903 C   0  0  0  0  0  0  0  0  0  0  0  0
    7.3531  -12.0318   27.5423 C   0  0  0  0  0  0  0  0  0  0  0  0
    6.4195  -12.9952   27.2540 C   0  0  0  0  0  0  0  0  0  0  0  0
    6.4302  -13.6299   26.0452 C   0  0  0  0  0  0  0  0  0  0  0  0
    8.8162  -15.8933   24.5509 C   0  0  0  0  0  0  0  0  0  0  0  0
    7.9995  -16.8009   24.8406 O   0  0  0  0  0  0  0  0  0  0  0  0
   10.0395  -15.8517   25.2725 N   0  0  0  0  0  0  0  0  0  0  0  0
   10.4509  -16.8062   26.2775 C   0  0  1  0  0  0  0  0  0  0  0  0
   11.9249  -17.1378   26.1941 C   0  0  0  0  0  0  0  0  0  0  0  0
   12.3565  -17.4773   24.8392 C   0  0  0  0  0  0  0  0  0  0  0  0
   11.7488  -18.3655   24.1976 O   0  0  0  0  0  0  0  0  0  0  0  0
   10.0683  -16.3901   27.6386 C   0  0  0  0  0  0  0  0  0  0  0  0
    9.5314  -15.1470   27.8563 O   0  0  0  0  0  0  0  0  0  0  0  0
   13.4249  -16.8473   24.2264 O   0  0  0  0  0  0  0  0  0  0  0  0
   10.2340  -17.1717   28.5947 O   0  0  0  0  0  0  0  0  0  0  0  0
  2  1  1  6
  3  4  1  0
  3  2  1  0
  4  8  1  0
  5  4  2  0
  5  6  1  0
  6  7  1  0
  8  7  2  0
  9  2  1  0
 10  9  2  0
 11  9  1  0
 12 11  1  0
 12 13  1  1
 13 14  1  0
 14 15  2  0
 15 16  1  0
 17 16  2  0
 18 17  1  0
 19 14  1  0
 19 18  2  0
 20 12  1  0
 21 20  2  0
 22 20  1  0
 23 27  1  0
 23 22  1  0
 23 24  1  1
 25 29  1  0
 25 24  1  0
 26 25  2  0
 27 28  1  0
 30 27  2  0
M  END
$$$$
