HFD.pdb
     RDKit          3D

 30 31  0  0  1  0  0  0  0  0999 V2000
   10.2372  -16.2464   18.9131 N   0  0  0  0  0  0  0  0  0  0  0  0
    9.2024  -16.6315   19.8452 C   0  0  1  0  0  0  0  0  0  0  0  0
    9.1188  -18.1231   19.9808 C   0  0  0  0  0  0  0  0  0  0  0  0
    8.7787  -18.7374   18.6661 C   0  0  0  0  0  0  0  0  0  0  0  0
    7.4812  -18.9376   18.1941 C   0  0  0  0  0  0  0  0  0  0  0  0
    7.5423  -19.5128   16.9832 N   0  0  0  0  0  0  0  0  0  0  0  0
    8.8464  -19.6734   16.6946 C   0  0  0  0  0  0  0  0  0  0  0  0
    9.5969  -19.2063   17.7084 N   0  0  0  0  0  0  0  0  0  0  0  0
    9.4204  -16.0418   21.2055 C   0  0  0  0  0  0  0  0  0  0  0  0
   10.5698  -16.1678   21.6886 O   0  0  0  0  0  0  0  0  0  0  0  0
    8.3683  -15.3801   21.8945 N   0  0  0  0  0  0  0  0  0  0  0  0
    8.5780  -14.7624   23.1832 C   0  0  1  0  0  0  0  0  0  0  0  0
    7.3832  -13.9409   23.5232 C   0  0  0  0  0  0  0  0  0  0  0  0
    7.3693  -13.3326   24.8421 C   0  0  0  0  0  0  0  0  0  0  0  0
    8.1544  -12.2864   25.2474 C   0  0  0  0  0  0  0  0  0  0  0  0
    8.0914  -11.7713   26.5157 C   0  0  0  0  0  0  0  0  0  0  0  0
    7.2103  -12.3138   27.4326 C   0  0  0  0  0  0  0  0  0  0  0  0
    6.4134  -13.3631   27.0490 C   0  0  0  0  0  0  0  0  0  0  0  0
    6.4901  -13.8630   25.7808 C   0  0  0  0  0  0  0  0  0  0  0  0
    8.8436  -15.8305   24.1847 C   0  0  0  0  0  0  0  0  0  0  0  0
    8.0933  -16.8340   24.2521 O   0  0  0  0  0  0  0  0  0  0  0  0
    9.9360  -15.7614   25.0907 N   0  0  0  0  0  0  0  0  0  0  0  0
   10.4046  -16.8485   25.9207 C   0  0  1  0  0  0  0  0  0  0  0  0
   11.8861  -17.1080   25.7553 C   0  0  0  0  0  0  0  0  0  0  0  0
   12.3660  -18.2149   26.5810 C   0  0  0  0  0  0  0  0  0  0  0  0
   11.7522  -19.3071   26.5741 O   0  0  0  0  0  0  0  0  0  0  0  0
   10.0438  -16.6696   27.3385 C   0  0  0  0  0  0  0  0  0  0  0  0
    9.4067  -15.5273   27.7510 O   0  0  0  0  0  0  0  0  0  0  0  0
   13.4887  -18.1043   27.3818 O   0  0  0  0  0  0  0  0  0  0  0  0
   10.3195  -17.5604   28.1648 O   0  0  0  0  0  0  0  0  0  0  0  0
  2  1  1  6
  3  4  1  0
  3  2  1  0
  4  8  1  0
  5  4  2  0
  5  6  1  0
  6  7  1  0
  8  7  2  0
  9  2  1  0
 10  9  2  0
 11  9  1  0
 12 11  1  0
 12 13  1  1
 13 14  1  0
 14 15  2  0
 15 16  1  0
 17 16  2  0
 18 17  1  0
 19 14  1  0
 19 18  2  0
 20 12  1  0
 21 20  2  0
 22 20  1  0
 23 27  1  0
 23 22  1  0
 23 24  1  1
 25 29  1  0
 25 24  1  0
 26 25  2  0
 27 28  1  0
 30 27  2  0
M  END
$$$$
