WLG.pdb
     RDKit          3D

 27 28  0  0  1  0  0  0  0  0999 V2000
   10.5637  -16.4285   22.1819 N   0  0  0  0  0  0  0  0  0  0  0  0
   10.0182  -15.8739   23.4011 C   0  0  1  0  0  0  0  0  0  0  0  0
    8.5407  -16.2889   23.4474 C   0  0  0  0  0  0  0  0  0  0  0  0
    7.7207  -15.0565   23.2794 C   0  0  0  0  0  0  0  0  0  0  0  0
    7.3624  -14.4550   22.0992 C   0  0  0  0  0  0  0  0  0  0  0  0
    6.6247  -13.3677   22.4492 N   0  0  0  0  0  0  0  0  0  0  0  0
    6.5164  -13.2778   23.7778 C   0  0  0  0  0  0  0  0  0  0  0  0
    5.9060  -12.4108   24.6449 C   0  0  0  0  0  0  0  0  0  0  0  0
    5.9823  -12.6003   25.9972 C   0  0  0  0  0  0  0  0  0  0  0  0
    6.6642  -13.6543   26.5685 C   0  0  0  0  0  0  0  0  0  0  0  0
    7.2831  -14.5337   25.6996 C   0  0  0  0  0  0  0  0  0  0  0  0
    7.2059  -14.3422   24.3369 C   0  0  0  0  0  0  0  0  0  0  0  0
   10.6666  -16.4273   24.6083 C   0  0  0  0  0  0  0  0  0  0  0  0
   11.7759  -16.9962   24.4883 O   0  0  0  0  0  0  0  0  0  0  0  0
   11.4212  -13.7855   28.3403 C   0  0  0  0  0  0  0  0  0  0  0  0
   10.0391  -14.3166   28.1209 C   0  0  2  0  0  0  0  0  0  0  0  0
    9.1125  -13.7191   29.1945 C   0  0  0  0  0  0  0  0  0  0  0  0
    9.9982  -15.7864   28.1257 C   0  0  0  0  0  0  0  0  0  0  0  0
   10.7430  -16.5995   27.1465 C   0  0  2  0  0  0  0  0  0  0  0  0
   10.0276  -16.3022   25.8527 N   0  0  0  0  0  0  0  0  0  0  0  0
   10.7450  -18.0546   27.2315 C   0  0  0  0  0  0  0  0  0  0  0  0
   11.2581  -18.6580   28.2492 O   0  0  0  0  0  0  0  0  0  0  0  0
   10.2047  -18.9684   26.2730 N   0  0  0  0  0  0  0  0  0  0  0  0
   10.2161  -20.3868   26.4005 C   0  0  0  0  0  0  0  0  0  0  0  0
   11.5316  -21.0390   26.4205 C   0  0  0  0  0  0  0  0  0  0  0  0
   11.8066  -21.9071   27.2664 O   0  0  0  0  0  0  0  0  0  0  0  0
   12.4953  -20.6946   25.4888 O   0  0  0  0  0  0  0  0  0  0  0  0
  2  1  1  6
  2 13  1  0
  2  3  1  0
  3  4  1  0
  4  5  2  0
  6  5  1  0
  7  6  1  0
  8  7  2  0
  9  8  1  0
 10  9  2  0
 10 11  1  0
 11 12  2  0
 12  7  1  0
 12  4  1  0
 13 20  1  0
 14 13  2  0
 16 18  1  0
 16 15  1  1
 17 16  1  0
 19 18  1  1
 20 19  1  0
 21 22  2  0
 21 19  1  0
 23 21  1  0
 24 25  1  0
 24 23  1  0
 25 27  1  0
 26 25  2  0
M  END
$$$$
