WLG.pdb
     RDKit          3D

 27 28  0  0  1  0  0  0  0  0999 V2000
    8.5146  -17.2347   25.2812 N   0  0  0  0  0  0  0  0  0  0  0  0
    7.2545  -17.3064   24.5752 C   0  0  1  0  0  0  0  0  0  0  0  0
    6.2938  -16.3506   25.2969 C   0  0  0  0  0  0  0  0  0  0  0  0
    7.1113  -15.4691   26.1769 C   0  0  0  0  0  0  0  0  0  0  0  0
    8.1190  -15.8521   27.0260 C   0  0  0  0  0  0  0  0  0  0  0  0
    8.5601  -14.7078   27.6133 N   0  0  0  0  0  0  0  0  0  0  0  0
    7.8744  -13.6521   27.1661 C   0  0  0  0  0  0  0  0  0  0  0  0
    7.9001  -12.3045   27.4098 C   0  0  0  0  0  0  0  0  0  0  0  0
    7.0385  -11.4583   26.7679 C   0  0  0  0  0  0  0  0  0  0  0  0
    6.1048  -11.8941   25.8510 C   0  0  0  0  0  0  0  0  0  0  0  0
    6.0728  -13.2531   25.5997 C   0  0  0  0  0  0  0  0  0  0  0  0
    6.9413  -14.1054   26.2469 C   0  0  0  0  0  0  0  0  0  0  0  0
    7.3677  -16.8406   23.1772 C   0  0  0  0  0  0  0  0  0  0  0  0
    6.3737  -16.9518   22.4235 O   0  0  0  0  0  0  0  0  0  0  0  0
    6.7820  -13.7497   20.0077 C   0  0  0  0  0  0  0  0  0  0  0  0
    7.3748  -13.5500   21.3677 C   0  0  2  0  0  0  0  0  0  0  0  0
    7.5601  -12.0401   21.6003 C   0  0  0  0  0  0  0  0  0  0  0  0
    8.6367  -14.2846   21.5403 C   0  0  0  0  0  0  0  0  0  0  0  0
    8.7361  -15.7414   21.3341 C   0  0  2  0  0  0  0  0  0  0  0  0
    8.5791  -16.2877   22.7309 N   0  0  0  0  0  0  0  0  0  0  0  0
    9.9707  -16.3444   20.8475 C   0  0  0  0  0  0  0  0  0  0  0  0
   10.3804  -16.1347   19.6427 O   0  0  0  0  0  0  0  0  0  0  0  0
   10.8586  -17.1895   21.5844 N   0  0  0  0  0  0  0  0  0  0  0  0
   12.0366  -17.7924   21.0582 C   0  0  0  0  0  0  0  0  0  0  0  0
   12.8224  -18.6241   21.9787 C   0  0  0  0  0  0  0  0  0  0  0  0
   14.0188  -18.3769   22.2073 O   0  0  0  0  0  0  0  0  0  0  0  0
   12.2378  -19.7065   22.6127 O   0  0  0  0  0  0  0  0  0  0  0  0
  2  1  1  1
  2 13  1  0
  2  3  1  0
  3  4  1  0
  4  5  2  0
  6  5  1  0
  7  6  1  0
  8  7  2  0
  9  8  1  0
 10  9  2  0
 10 11  1  0
 11 12  2  0
 12  7  1  0
 12  4  1  0
 13 20  1  0
 14 13  2  0
 16 18  1  0
 16 15  1  6
 17 16  1  0
 19 18  1  1
 20 19  1  0
 21 22  2  0
 21 19  1  0
 23 21  1  0
 24 25  1  0
 24 23  1  0
 25 27  1  0
 26 25  2  0
M  END
$$$$
