WLG.pdb
     RDKit          3D

 27 28  0  0  1  0  0  0  0  0999 V2000
    6.3132  -17.8337   24.2733 N   0  0  0  0  0  0  0  0  0  0  0  0
    6.9636  -16.5892   23.9274 C   0  0  1  0  0  0  0  0  0  0  0  0
    7.7668  -16.1574   25.1626 C   0  0  0  0  0  0  0  0  0  0  0  0
    6.9430  -15.1687   25.9132 C   0  0  0  0  0  0  0  0  0  0  0  0
    5.7085  -15.3765   26.4751 C   0  0  0  0  0  0  0  0  0  0  0  0
    5.3589  -14.1919   27.0439 N   0  0  0  0  0  0  0  0  0  0  0  0
    6.3149  -13.2775   26.8571 C   0  0  0  0  0  0  0  0  0  0  0  0
    6.4818  -11.9635   27.2057 C   0  0  0  0  0  0  0  0  0  0  0  0
    7.6139  -11.2818   26.8532 C   0  0  0  0  0  0  0  0  0  0  0  0
    8.6429  -11.8581   26.1380 C   0  0  0  0  0  0  0  0  0  0  0  0
    8.4816  -13.1843   25.7825 C   0  0  0  0  0  0  0  0  0  0  0  0
    7.3405  -13.8706   26.1380 C   0  0  0  0  0  0  0  0  0  0  0  0
    7.9230  -16.7482   22.8146 C   0  0  0  0  0  0  0  0  0  0  0  0
    8.1107  -17.8921   22.3406 O   0  0  0  0  0  0  0  0  0  0  0  0
    7.0050  -14.5122   19.2078 C   0  0  0  0  0  0  0  0  0  0  0  0
    7.7656  -13.7738   20.2647 C   0  0  2  0  0  0  0  0  0  0  0  0
    7.7987  -12.2822   19.8875 C   0  0  0  0  0  0  0  0  0  0  0  0
    9.1191  -14.3145   20.4594 C   0  0  0  0  0  0  0  0  0  0  0  0
    9.3591  -15.6579   21.0182 C   0  0  2  0  0  0  0  0  0  0  0  0
    8.5963  -15.6198   22.3185 N   0  0  0  0  0  0  0  0  0  0  0  0
   10.7013  -16.0793   21.3996 C   0  0  0  0  0  0  0  0  0  0  0  0
   11.5917  -16.3443   20.5050 O   0  0  0  0  0  0  0  0  0  0  0  0
   11.2025  -16.2389   22.7296 N   0  0  0  0  0  0  0  0  0  0  0  0
   12.1671  -17.2080   23.1278 C   0  0  0  0  0  0  0  0  0  0  0  0
   13.5762  -16.8828   22.8731 C   0  0  0  0  0  0  0  0  0  0  0  0
   13.8990  -15.8374   22.2833 O   0  0  0  0  0  0  0  0  0  0  0  0
   14.5771  -17.7430   23.2899 O   0  0  0  0  0  0  0  0  0  0  0  0
  2  1  1  1
  2 13  1  0
  2  3  1  0
  3  4  1  0
  4  5  2  0
  6  5  1  0
  7  6  1  0
  8  7  2  0
  9  8  1  0
 10  9  2  0
 10 11  1  0
 11 12  2  0
 12  7  1  0
 12  4  1  0
 13 20  1  0
 14 13  2  0
 16 18  1  0
 16 15  1  6
 17 16  1  0
 19 18  1  1
 20 19  1  0
 21 22  2  0
 21 19  1  0
 23 21  1  0
 24 25  1  0
 24 23  1  0
 25 27  1  0
 26 25  2  0
M  END
$$$$
