WLG.pdb
     RDKit          3D

 27 28  0  0  1  0  0  0  0  0999 V2000
    6.0745  -17.8738   24.1757 N   0  0  0  0  0  0  0  0  0  0  0  0
    6.7735  -16.6335   23.9208 C   0  0  1  0  0  0  0  0  0  0  0  0
    7.6134  -16.3399   25.1721 C   0  0  0  0  0  0  0  0  0  0  0  0
    6.8788  -15.3270   25.9808 C   0  0  0  0  0  0  0  0  0  0  0  0
    5.6657  -15.4854   26.6023 C   0  0  0  0  0  0  0  0  0  0  0  0
    5.4045  -14.2964   27.2082 N   0  0  0  0  0  0  0  0  0  0  0  0
    6.3938  -13.4260   26.9875 C   0  0  0  0  0  0  0  0  0  0  0  0
    6.6430  -12.1286   27.3489 C   0  0  0  0  0  0  0  0  0  0  0  0
    7.7880  -11.4960   26.9496 C   0  0  0  0  0  0  0  0  0  0  0  0
    8.7495  -12.1077   26.1726 C   0  0  0  0  0  0  0  0  0  0  0  0
    8.5049  -13.4174   25.8038 C   0  0  0  0  0  0  0  0  0  0  0  0
    7.3509  -14.0543   26.2064 C   0  0  0  0  0  0  0  0  0  0  0  0
    7.7081  -16.7405   22.7811 C   0  0  0  0  0  0  0  0  0  0  0  0
    8.0076  -17.8788   22.3533 O   0  0  0  0  0  0  0  0  0  0  0  0
    7.1547  -14.2815   18.7810 C   0  0  0  0  0  0  0  0  0  0  0  0
    7.6819  -13.6583   20.0356 C   0  0  2  0  0  0  0  0  0  0  0  0
    7.7830  -12.1381   19.8181 C   0  0  0  0  0  0  0  0  0  0  0  0
    8.9708  -14.2345   20.4466 C   0  0  0  0  0  0  0  0  0  0  0  0
    9.0901  -15.6088   20.9679 C   0  0  2  0  0  0  0  0  0  0  0  0
    8.2339  -15.5706   22.2087 N   0  0  0  0  0  0  0  0  0  0  0  0
   10.3730  -16.1234   21.4306 C   0  0  0  0  0  0  0  0  0  0  0  0
   11.0004  -15.5587   22.4056 O   0  0  0  0  0  0  0  0  0  0  0  0
   11.0741  -17.2598   20.9181 N   0  0  0  0  0  0  0  0  0  0  0  0
   12.3631  -17.6860   21.3483 C   0  0  0  0  0  0  0  0  0  0  0  0
   13.5189  -17.0038   20.7523 C   0  0  0  0  0  0  0  0  0  0  0  0
   13.3719  -16.1366   19.8742 O   0  0  0  0  0  0  0  0  0  0  0  0
   14.8026  -17.3183   21.1630 O   0  0  0  0  0  0  0  0  0  0  0  0
  2  1  1  1
  2 13  1  0
  2  3  1  0
  3  4  1  0
  4  5  2  0
  6  5  1  0
  7  6  1  0
  8  7  2  0
  9  8  1  0
 10  9  2  0
 10 11  1  0
 11 12  2  0
 12  7  1  0
 12  4  1  0
 13 20  1  0
 14 13  2  0
 16 18  1  0
 16 15  1  6
 17 16  1  0
 19 18  1  1
 20 19  1  0
 21 22  2  0
 21 19  1  0
 23 21  1  0
 24 25  1  0
 24 23  1  0
 25 27  1  0
 26 25  2  0
M  END
$$$$
