WLG.pdb
     RDKit          3D

 27 28  0  0  1  0  0  0  0  0999 V2000
   10.4487  -16.8865   22.3876 N   0  0  0  0  0  0  0  0  0  0  0  0
    9.7582  -16.2307   23.4761 C   0  0  1  0  0  0  0  0  0  0  0  0
    8.2629  -16.5212   23.2835 C   0  0  0  0  0  0  0  0  0  0  0  0
    7.5712  -15.2160   23.0899 C   0  0  0  0  0  0  0  0  0  0  0  0
    7.2855  -14.5993   21.8978 C   0  0  0  0  0  0  0  0  0  0  0  0
    6.6564  -13.4390   22.2252 N   0  0  0  0  0  0  0  0  0  0  0  0
    6.5454  -13.3193   23.5512 C   0  0  0  0  0  0  0  0  0  0  0  0
    6.0163  -12.3834   24.3997 C   0  0  0  0  0  0  0  0  0  0  0  0
    6.0608  -12.5597   25.7553 C   0  0  0  0  0  0  0  0  0  0  0  0
    6.6292  -13.6678   26.3481 C   0  0  0  0  0  0  0  0  0  0  0  0
    7.1655  -14.6169   25.4979 C   0  0  0  0  0  0  0  0  0  0  0  0
    7.1203  -14.4387   24.1321 C   0  0  0  0  0  0  0  0  0  0  0  0
   10.1441  -16.7757   24.7944 C   0  0  0  0  0  0  0  0  0  0  0  0
   11.0390  -17.6502   24.8455 O   0  0  0  0  0  0  0  0  0  0  0  0
   11.6167  -14.3980   28.7005 C   0  0  0  0  0  0  0  0  0  0  0  0
   10.2122  -14.2594   28.2016 C   0  0  2  0  0  0  0  0  0  0  0  0
    9.4785  -13.2406   29.0917 C   0  0  0  0  0  0  0  0  0  0  0  0
    9.5059  -15.5482   28.1562 C   0  0  0  0  0  0  0  0  0  0  0  0
    9.9764  -16.6770   27.3322 C   0  0  2  0  0  0  0  0  0  0  0  0
    9.5023  -16.3022   25.9506 N   0  0  0  0  0  0  0  0  0  0  0  0
    9.4546  -18.0220   27.5401 C   0  0  0  0  0  0  0  0  0  0  0  0
    9.8486  -18.7386   28.5374 O   0  0  0  0  0  0  0  0  0  0  0  0
    8.4855  -18.6979   26.7342 N   0  0  0  0  0  0  0  0  0  0  0  0
    7.8445  -19.9212   27.0819 C   0  0  0  0  0  0  0  0  0  0  0  0
    8.7137  -21.0826   27.3093 C   0  0  0  0  0  0  0  0  0  0  0  0
    9.9420  -21.0114   27.1334 O   0  0  0  0  0  0  0  0  0  0  0  0
    8.1742  -22.2866   27.7273 O   0  0  0  0  0  0  0  0  0  0  0  0
  2  1  1  6
  2 13  1  0
  2  3  1  0
  3  4  1  0
  4  5  2  0
  6  5  1  0
  7  6  1  0
  8  7  2  0
  9  8  1  0
 10  9  2  0
 10 11  1  0
 11 12  2  0
 12  7  1  0
 12  4  1  0
 13 20  1  0
 14 13  2  0
 16 18  1  0
 16 15  1  1
 17 16  1  0
 19 18  1  1
 20 19  1  0
 21 22  2  0
 21 19  1  0
 23 21  1  0
 24 25  1  0
 24 23  1  0
 25 27  1  0
 26 25  2  0
M  END
$$$$
