WLG.pdb
     RDKit          3D

 27 28  0  0  1  0  0  0  0  0999 V2000
    7.8771  -17.4185   22.9117 N   0  0  0  0  0  0  0  0  0  0  0  0
    8.2304  -16.0249   22.7544 C   0  0  1  0  0  0  0  0  0  0  0  0
    6.9602  -15.3022   22.2838 C   0  0  0  0  0  0  0  0  0  0  0  0
    7.0267  -15.1942   20.7994 C   0  0  0  0  0  0  0  0  0  0  0  0
    6.6189  -16.1298   19.8821 C   0  0  0  0  0  0  0  0  0  0  0  0
    6.8807  -15.5881   18.6626 N   0  0  0  0  0  0  0  0  0  0  0  0
    7.4249  -14.3748   18.7913 C   0  0  0  0  0  0  0  0  0  0  0  0
    7.8695  -13.4139   17.9223 C   0  0  0  0  0  0  0  0  0  0  0  0
    8.3916  -12.2371   18.3839 C   0  0  0  0  0  0  0  0  0  0  0  0
    8.5040  -11.9434   19.7268 C   0  0  0  0  0  0  0  0  0  0  0  0
    8.0574  -12.9085   20.6101 C   0  0  0  0  0  0  0  0  0  0  0  0
    7.5313  -14.0942   20.1444 C   0  0  0  0  0  0  0  0  0  0  0  0
    8.6408  -15.4030   24.0307 C   0  0  0  0  0  0  0  0  0  0  0  0
    9.2363  -14.3018   23.9994 O   0  0  0  0  0  0  0  0  0  0  0  0
    8.4730  -12.2847   26.4529 C   0  0  0  0  0  0  0  0  0  0  0  0
    7.5963  -13.4822   26.2581 C   0  0  2  0  0  0  0  0  0  0  0  0
    6.1474  -13.0830   26.5890 C   0  0  0  0  0  0  0  0  0  0  0  0
    8.0381  -14.6339   27.0583 C   0  0  0  0  0  0  0  0  0  0  0  0
    8.9888  -15.6357   26.5413 C   0  0  2  0  0  0  0  0  0  0  0  0
    8.3543  -16.0575   25.2399 N   0  0  0  0  0  0  0  0  0  0  0  0
    9.2167  -16.8867   27.2537 C   0  0  0  0  0  0  0  0  0  0  0  0
    8.5022  -17.2045   28.2793 O   0  0  0  0  0  0  0  0  0  0  0  0
   10.1895  -17.8864   26.9378 N   0  0  0  0  0  0  0  0  0  0  0  0
   11.3986  -18.1053   27.6578 C   0  0  0  0  0  0  0  0  0  0  0  0
   12.6429  -18.1039   26.8780 C   0  0  0  0  0  0  0  0  0  0  0  0
   12.6288  -17.9565   25.6440 O   0  0  0  0  0  0  0  0  0  0  0  0
   13.8628  -18.2682   27.5106 O   0  0  0  0  0  0  0  0  0  0  0  0
  2  1  1  1
  2 13  1  0
  2  3  1  0
  3  4  1  0
  4  5  2  0
  6  5  1  0
  7  6  1  0
  8  7  2  0
  9  8  1  0
 10  9  2  0
 10 11  1  0
 11 12  2  0
 12  7  1  0
 12  4  1  0
 13 20  1  0
 14 13  2  0
 16 18  1  0
 16 15  1  1
 17 16  1  0
 19 18  1  1
 20 19  1  0
 21 22  2  0
 21 19  1  0
 23 21  1  0
 24 25  1  0
 24 23  1  0
 25 27  1  0
 26 25  2  0
M  END
$$$$
