WLG.pdb
     RDKit          3D

 27 28  0  0  1  0  0  0  0  0999 V2000
    6.3647  -18.2006   24.5827 N   0  0  0  0  0  0  0  0  0  0  0  0
    6.8039  -16.8679   24.2323 C   0  0  1  0  0  0  0  0  0  0  0  0
    7.6920  -16.3825   25.3869 C   0  0  0  0  0  0  0  0  0  0  0  0
    6.9873  -15.2514   26.0529 C   0  0  0  0  0  0  0  0  0  0  0  0
    5.7372  -15.2728   26.6184 C   0  0  0  0  0  0  0  0  0  0  0  0
    5.5260  -14.0158   27.0923 N   0  0  0  0  0  0  0  0  0  0  0  0
    6.5806  -13.2339   26.8445 C   0  0  0  0  0  0  0  0  0  0  0  0
    6.8973  -11.9247   27.0934 C   0  0  0  0  0  0  0  0  0  0  0  0
    8.1001  -11.4062   26.6996 C   0  0  0  0  0  0  0  0  0  0  0  0
    9.0559  -12.1496   26.0393 C   0  0  0  0  0  0  0  0  0  0  0  0
    8.7434  -13.4720   25.7845 C   0  0  0  0  0  0  0  0  0  0  0  0
    7.5312  -13.9939   26.1815 C   0  0  0  0  0  0  0  0  0  0  0  0
    7.6312  -16.8541   23.0077 C   0  0  0  0  0  0  0  0  0  0  0  0
    7.8212  -17.9311   22.3977 O   0  0  0  0  0  0  0  0  0  0  0  0
    7.2454  -14.0940   19.0550 C   0  0  0  0  0  0  0  0  0  0  0  0
    7.6117  -13.5294   20.3920 C   0  0  2  0  0  0  0  0  0  0  0  0
    7.7215  -12.0000   20.2604 C   0  0  0  0  0  0  0  0  0  0  0  0
    8.8482  -14.1182   20.9272 C   0  0  0  0  0  0  0  0  0  0  0  0
    8.9566  -15.5481   21.2711 C   0  0  2  0  0  0  0  0  0  0  0  0
    8.1802  -15.6411   22.5605 N   0  0  0  0  0  0  0  0  0  0  0  0
   10.2489  -16.1451   21.5842 C   0  0  0  0  0  0  0  0  0  0  0  0
   11.1197  -16.3632   20.6583 O   0  0  0  0  0  0  0  0  0  0  0  0
   10.7186  -16.5395   22.8763 N   0  0  0  0  0  0  0  0  0  0  0  0
   11.9746  -17.1594   23.1342 C   0  0  0  0  0  0  0  0  0  0  0  0
   13.1324  -16.2696   23.2892 C   0  0  0  0  0  0  0  0  0  0  0  0
   13.3945  -15.4006   22.4401 O   0  0  0  0  0  0  0  0  0  0  0  0
   13.9583  -16.3853   24.3937 O   0  0  0  0  0  0  0  0  0  0  0  0
  2  1  1  1
  2 13  1  0
  2  3  1  0
  3  4  1  0
  4  5  2  0
  6  5  1  0
  7  6  1  0
  8  7  2  0
  9  8  1  0
 10  9  2  0
 10 11  1  0
 11 12  2  0
 12  7  1  0
 12  4  1  0
 13 20  1  0
 14 13  2  0
 16 18  1  0
 16 15  1  6
 17 16  1  0
 19 18  1  1
 20 19  1  0
 21 22  2  0
 21 19  1  0
 23 21  1  0
 24 25  1  0
 24 23  1  0
 25 27  1  0
 26 25  2  0
M  END
$$$$
