WLG.pdb
     RDKit          3D

 27 28  0  0  1  0  0  0  0  0999 V2000
    7.0527  -18.8129   26.3938 N   0  0  0  0  0  0  0  0  0  0  0  0
    7.7127  -17.5268   26.4399 C   0  0  1  0  0  0  0  0  0  0  0  0
    9.2213  -17.8074   26.3860 C   0  0  0  0  0  0  0  0  0  0  0  0
    9.7965  -17.4354   27.7090 C   0  0  0  0  0  0  0  0  0  0  0  0
   10.1242  -18.2831   28.7371 C   0  0  0  0  0  0  0  0  0  0  0  0
   10.6058  -17.4885   29.7300 N   0  0  0  0  0  0  0  0  0  0  0  0
   10.5877  -16.2052   29.3591 C   0  0  0  0  0  0  0  0  0  0  0  0
   10.9463  -15.0207   29.9460 C   0  0  0  0  0  0  0  0  0  0  0  0
   10.8003  -13.8348   29.2805 C   0  0  0  0  0  0  0  0  0  0  0  0
   10.2929  -13.7518   28.0006 C   0  0  0  0  0  0  0  0  0  0  0  0
    9.9287  -14.9434   27.4017 C   0  0  0  0  0  0  0  0  0  0  0  0
   10.0761  -16.1381   28.0728 C   0  0  0  0  0  0  0  0  0  0  0  0
    7.3818  -16.6845   25.2715 C   0  0  0  0  0  0  0  0  0  0  0  0
    6.7066  -17.1832   24.3421 O   0  0  0  0  0  0  0  0  0  0  0  0
    5.1346  -13.0459   25.7368 C   0  0  0  0  0  0  0  0  0  0  0  0
    6.5975  -12.8532   25.9889 C   0  0  2  0  0  0  0  0  0  0  0  0
    6.8137  -11.4301   26.5331 C   0  0  0  0  0  0  0  0  0  0  0  0
    7.4089  -13.1044   24.7887 C   0  0  0  0  0  0  0  0  0  0  0  0
    7.4387  -14.4169   24.1170 C   0  0  2  0  0  0  0  0  0  0  0  0
    7.8293  -15.3538   25.2323 N   0  0  0  0  0  0  0  0  0  0  0  0
    8.4031  -14.6930   23.0595 C   0  0  0  0  0  0  0  0  0  0  0  0
    8.2568  -14.1890   21.8815 O   0  0  0  0  0  0  0  0  0  0  0  0
    9.5811  -15.4973   23.1645 N   0  0  0  0  0  0  0  0  0  0  0  0
   10.5467  -15.6696   22.1319 C   0  0  0  0  0  0  0  0  0  0  0  0
   11.6955  -16.5317   22.4372 C   0  0  0  0  0  0  0  0  0  0  0  0
   12.0839  -16.6963   23.6063 O   0  0  0  0  0  0  0  0  0  0  0  0
   12.3706  -17.1811   21.4184 O   0  0  0  0  0  0  0  0  0  0  0  0
  2  1  1  6
  2 13  1  0
  2  3  1  0
  3  4  1  0
  4  5  2  0
  6  5  1  0
  7  6  1  0
  8  7  2  0
  9  8  1  0
 10  9  2  0
 10 11  1  0
 11 12  2  0
 12  7  1  0
 12  4  1  0
 13 20  1  0
 14 13  2  0
 16 18  1  0
 16 15  1  6
 17 16  1  0
 19 18  1  1
 20 19  1  0
 21 22  2  0
 21 19  1  0
 23 21  1  0
 24 25  1  0
 24 23  1  0
 25 27  1  0
 26 25  2  0
M  END
$$$$
