ATA.pdb
     RDKit          3D

 18 17  0  0  1  0  0  0  0  0999 V2000
    8.4786  -17.8364   16.1646 C   0  0  0  0  0  0  0  0  0  0  0  0
    8.4738  -16.3282   16.1639 C   0  0  2  0  0  0  0  0  0  0  0  0
    9.1242  -15.8638   14.9775 N   0  0  0  0  0  0  0  0  0  0  0  0
    9.0747  -15.7700   17.4042 C   0  0  0  0  0  0  0  0  0  0  0  0
   10.3138  -15.5573   17.4508 O   0  0  0  0  0  0  0  0  0  0  0  0
    7.4814  -12.8043   19.5629 C   0  0  0  0  0  0  0  0  0  0  0  0
    7.8811  -13.9659   20.4473 C   0  0  1  0  0  0  0  0  0  0  0  0
    6.7545  -14.7194   20.7847 O   0  0  0  0  0  0  0  0  0  0  0  0
    8.9104  -14.8503   19.7311 C   0  0  2  0  0  0  0  0  0  0  0  0
    8.3226  -15.4577   18.5569 N   0  0  0  0  0  0  0  0  0  0  0  0
    9.3539  -15.8675   20.7110 C   0  0  0  0  0  0  0  0  0  0  0  0
    8.7626  -16.9670   20.6993 O   0  0  0  0  0  0  0  0  0  0  0  0
   12.1820  -16.3869   23.1758 C   0  0  0  0  0  0  0  0  0  0  0  0
   10.7908  -16.6268   22.6397 C   0  0  2  0  0  0  0  0  0  0  0  0
   10.3972  -15.6683   21.6496 N   0  0  0  0  0  0  0  0  0  0  0  0
    9.8533  -16.4769   23.8007 C   0  0  0  0  0  0  0  0  0  0  0  0
    9.1386  -15.4626   23.8178 O   0  0  0  0  0  0  0  0  0  0  0  0
    9.7787  -17.4222   24.8162 O   0  0  0  0  0  0  0  0  0  0  0  0
  2  1  1  1
  3  2  1  0
  4 10  1  0
  4  2  1  0
  5  4  2  0
  7  6  1  6
  7  9  1  0
  7  8  1  0
  9 11  1  0
  9 10  1  6
 11 12  2  0
 14 13  1  1
 14 16  1  0
 15 14  1  0
 15 11  1  0
 16 18  1  0
 17 16  2  0
M  END
$$$$
