ATA.pdb
     RDKit          3D

 18 17  0  0  1  0  0  0  0  0999 V2000
    8.6532  -17.3669   15.5470 C   0  0  0  0  0  0  0  0  0  0  0  0
    8.6510  -15.8675   15.7091 C   0  0  2  0  0  0  0  0  0  0  0  0
    9.2428  -15.2757   14.5490 N   0  0  0  0  0  0  0  0  0  0  0  0
    9.3134  -15.4440   16.9712 C   0  0  0  0  0  0  0  0  0  0  0  0
   10.5433  -15.1792   16.9667 O   0  0  0  0  0  0  0  0  0  0  0  0
    7.8691  -12.7032   19.4052 C   0  0  0  0  0  0  0  0  0  0  0  0
    8.2552  -13.9399   20.1881 C   0  0  1  0  0  0  0  0  0  0  0  0
    7.1174  -14.6958   20.4790 O   0  0  0  0  0  0  0  0  0  0  0  0
    9.2575  -14.7838   19.3894 C   0  0  2  0  0  0  0  0  0  0  0  0
    8.6309  -15.3184   18.2001 N   0  0  0  0  0  0  0  0  0  0  0  0
    9.7254  -15.8588   20.2934 C   0  0  0  0  0  0  0  0  0  0  0  0
    9.1417  -16.9600   20.2203 O   0  0  0  0  0  0  0  0  0  0  0  0
   12.7417  -16.7730   22.2605 C   0  0  0  0  0  0  0  0  0  0  0  0
   11.2400  -16.7493   22.1028 C   0  0  2  0  0  0  0  0  0  0  0  0
   10.7837  -15.7125   21.2248 N   0  0  0  0  0  0  0  0  0  0  0  0
   10.6718  -16.4636   23.4610 C   0  0  0  0  0  0  0  0  0  0  0  0
   10.0293  -15.4099   23.5905 O   0  0  0  0  0  0  0  0  0  0  0  0
   10.8492  -17.3299   24.5326 O   0  0  0  0  0  0  0  0  0  0  0  0
  2  1  1  6
  3  2  1  0
  4 10  1  0
  4  2  1  0
  5  4  2  0
  7  6  1  6
  7  9  1  0
  7  8  1  0
  9 11  1  0
  9 10  1  6
 11 12  2  0
 14 13  1  1
 14 16  1  0
 15 14  1  0
 15 11  1  0
 16 18  1  0
 17 16  2  0
M  END
$$$$
