ATA.pdb
     RDKit          3D

 18 17  0  0  1  0  0  0  0  0999 V2000
    9.6302  -17.9240   15.9025 C   0  0  0  0  0  0  0  0  0  0  0  0
    9.4494  -16.4339   15.7554 C   0  0  2  0  0  0  0  0  0  0  0  0
   10.2308  -15.9801   14.6465 N   0  0  0  0  0  0  0  0  0  0  0  0
    9.7643  -15.7089   17.0149 C   0  0  0  0  0  0  0  0  0  0  0  0
   10.9511  -15.3646   17.2513 O   0  0  0  0  0  0  0  0  0  0  0  0
    7.7249  -12.7407   18.9911 C   0  0  0  0  0  0  0  0  0  0  0  0
    7.9436  -13.9921   19.8143 C   0  0  1  0  0  0  0  0  0  0  0  0
    6.7894  -14.7785   19.8041 O   0  0  0  0  0  0  0  0  0  0  0  0
    9.1303  -14.7922   19.2609 C   0  0  2  0  0  0  0  0  0  0  0  0
    8.7913  -15.3766   17.9817 N   0  0  0  0  0  0  0  0  0  0  0  0
    9.4534  -15.8275   20.2686 C   0  0  0  0  0  0  0  0  0  0  0  0
    8.9854  -16.9699   20.0830 O   0  0  0  0  0  0  0  0  0  0  0  0
   11.5388  -16.1497   23.4355 C   0  0  0  0  0  0  0  0  0  0  0  0
   10.4532  -16.5545   22.4670 C   0  0  2  0  0  0  0  0  0  0  0  0
   10.2528  -15.6001   21.4168 N   0  0  0  0  0  0  0  0  0  0  0  0
    9.1794  -16.6211   23.2558 C   0  0  0  0  0  0  0  0  0  0  0  0
    8.3433  -15.7279   23.0486 O   0  0  0  0  0  0  0  0  0  0  0  0
    8.9345  -17.6304   24.1786 O   0  0  0  0  0  0  0  0  0  0  0  0
  2  1  1  1
  3  2  1  0
  4 10  1  0
  4  2  1  0
  5  4  2  0
  7  6  1  6
  7  9  1  0
  7  8  1  0
  9 11  1  0
  9 10  1  6
 11 12  2  0
 14 13  1  1
 14 16  1  0
 15 14  1  0
 15 11  1  0
 16 18  1  0
 17 16  2  0
M  END
$$$$
