ATA.pdb
     RDKit          3D

 18 17  0  0  1  0  0  0  0  0999 V2000
    8.4320  -12.4332   20.1094 C   0  0  0  0  0  0  0  0  0  0  0  0
    8.3272  -13.9366   20.1673 C   0  0  2  0  0  0  0  0  0  0  0  0
    7.4181  -14.3766   19.1543 N   0  0  0  0  0  0  0  0  0  0  0  0
    7.9510  -14.4156   21.5239 C   0  0  0  0  0  0  0  0  0  0  0  0
    6.7483  -14.3600   21.8890 O   0  0  0  0  0  0  0  0  0  0  0  0
    7.6333  -17.6412   22.8006 C   0  0  0  0  0  0  0  0  0  0  0  0
    8.6430  -17.0083   23.7341 C   0  0  1  0  0  0  0  0  0  0  0  0
    9.9379  -17.3600   23.3467 O   0  0  0  0  0  0  0  0  0  0  0  0
    8.4886  -15.4816   23.7287 C   0  0  2  0  0  0  0  0  0  0  0  0
    8.8817  -14.9399   22.4462 N   0  0  0  0  0  0  0  0  0  0  0  0
    9.3365  -14.9634   24.8261 C   0  0  0  0  0  0  0  0  0  0  0  0
   10.5584  -14.8492   24.5977 O   0  0  0  0  0  0  0  0  0  0  0  0
    8.9269  -13.1870   28.1155 C   0  0  0  0  0  0  0  0  0  0  0  0
    9.6666  -14.1096   27.1762 C   0  0  2  0  0  0  0  0  0  0  0  0
    8.8479  -14.5943   26.1045 N   0  0  0  0  0  0  0  0  0  0  0  0
   10.0866  -15.2989   27.9875 C   0  0  0  0  0  0  0  0  0  0  0  0
    9.5337  -16.3791   27.7281 O   0  0  0  0  0  0  0  0  0  0  0  0
   11.0486  -15.2090   28.9859 O   0  0  0  0  0  0  0  0  0  0  0  0
  2  1  1  1
  3  2  1  0
  4 10  1  0
  4  2  1  0
  5  4  2  0
  7  6  1  6
  7  9  1  0
  7  8  1  0
  9 11  1  0
  9 10  1  6
 11 12  2  0
 14 13  1  1
 14 16  1  0
 15 14  1  0
 15 11  1  0
 16 18  1  0
 17 16  2  0
M  END
$$$$
