ATA.pdb
     RDKit          3D

 18 17  0  0  1  0  0  0  0  0999 V2000
   13.9174  -17.4558   21.9646 C   0  0  0  0  0  0  0  0  0  0  0  0
   12.4753  -17.3747   21.5306 C   0  0  2  0  0  0  0  0  0  0  0  0
   12.4232  -16.8887   20.1862 N   0  0  0  0  0  0  0  0  0  0  0  0
   11.6578  -16.5598   22.4680 C   0  0  0  0  0  0  0  0  0  0  0  0
   11.5530  -15.3200   22.2814 O   0  0  0  0  0  0  0  0  0  0  0  0
    7.9195  -17.2471   23.3423 C   0  0  0  0  0  0  0  0  0  0  0  0
    8.7554  -17.1787   24.6024 C   0  0  1  0  0  0  0  0  0  0  0  0
    9.1010  -18.4668   25.0171 O   0  0  0  0  0  0  0  0  0  0  0  0
   10.0218  -16.3478   24.3562 C   0  0  2  0  0  0  0  0  0  0  0  0
   10.9779  -17.1050   23.5781 N   0  0  0  0  0  0  0  0  0  0  0  0
   10.5606  -15.9873   25.6872 C   0  0  0  0  0  0  0  0  0  0  0  0
   11.5231  -16.6582   26.1139 O   0  0  0  0  0  0  0  0  0  0  0  0
    9.9754  -13.3471   28.3636 C   0  0  0  0  0  0  0  0  0  0  0  0
   10.4832  -14.6673   27.8349 C   0  0  2  0  0  0  0  0  0  0  0  0
   10.0539  -14.9383   26.4947 N   0  0  0  0  0  0  0  0  0  0  0  0
    9.8982  -15.7331   28.7130 C   0  0  0  0  0  0  0  0  0  0  0  0
    8.9629  -16.3984   28.2414 O   0  0  0  0  0  0  0  0  0  0  0  0
   10.3721  -15.9745   29.9965 O   0  0  0  0  0  0  0  0  0  0  0  0
  2  1  1  1
  3  2  1  0
  4 10  1  0
  4  2  1  0
  5  4  2  0
  7  6  1  6
  7  9  1  0
  7  8  1  0
  9 11  1  0
  9 10  1  1
 11 12  2  0
 14 13  1  1
 14 16  1  0
 15 14  1  0
 15 11  1  0
 16 18  1  0
 17 16  2  0
M  END
$$$$
