ATA.pdb
     RDKit          3D

 18 17  0  0  1  0  0  0  0  0999 V2000
    7.7551  -17.4692   15.5445 C   0  0  0  0  0  0  0  0  0  0  0  0
    8.2854  -16.0716   15.3441 C   0  0  2  0  0  0  0  0  0  0  0  0
    9.1346  -16.0594   14.1931 N   0  0  0  0  0  0  0  0  0  0  0  0
    8.9622  -15.5539   16.5627 C   0  0  0  0  0  0  0  0  0  0  0  0
   10.2127  -15.6478   16.6640 O   0  0  0  0  0  0  0  0  0  0  0  0
    6.8576  -13.9236   20.0613 C   0  0  0  0  0  0  0  0  0  0  0  0
    8.0642  -13.2795   19.4127 C   0  0  1  0  0  0  0  0  0  0  0  0
    8.7948  -12.5658   20.3653 O   0  0  0  0  0  0  0  0  0  0  0  0
    8.9519  -14.3483   18.7612 C   0  0  2  0  0  0  0  0  0  0  0  0
    8.2715  -14.9507   17.6355 N   0  0  0  0  0  0  0  0  0  0  0  0
    9.2611  -15.3442   19.8121 C   0  0  0  0  0  0  0  0  0  0  0  0
    8.4466  -16.2768   19.9717 O   0  0  0  0  0  0  0  0  0  0  0  0
   12.1938  -16.3054   21.9974 C   0  0  0  0  0  0  0  0  0  0  0  0
   10.7261  -16.2719   21.6435 C   0  0  2  0  0  0  0  0  0  0  0  0
   10.4130  -15.3010   20.6369 N   0  0  0  0  0  0  0  0  0  0  0  0
    9.9946  -15.8715   22.8900 C   0  0  0  0  0  0  0  0  0  0  0  0
    9.3907  -14.7878   22.8630 O   0  0  0  0  0  0  0  0  0  0  0  0
    9.9856  -16.6676   24.0286 O   0  0  0  0  0  0  0  0  0  0  0  0
  2  1  1  1
  3  2  1  0
  4 10  1  0
  4  2  1  0
  5  4  2  0
  7  6  1  1
  7  9  1  0
  7  8  1  0
  9 11  1  0
  9 10  1  6
 11 12  2  0
 14 13  1  1
 14 16  1  0
 15 14  1  0
 15 11  1  0
 16 18  1  0
 17 16  2  0
M  END
$$$$
