ATA.pdb
     RDKit          3D

 18 17  0  0  1  0  0  0  0  0999 V2000
   -1.8563  -20.7697   24.4037 C   0  0  0  0  0  0  0  0  0  0  0  0
   -1.5956  -22.2083   24.7739 C   0  0  2  0  0  0  0  0  0  0  0  0
   -0.9253  -22.8520   23.6864 N   0  0  0  0  0  0  0  0  0  0  0  0
   -2.8411  -22.9125   25.1785 C   0  0  0  0  0  0  0  0  0  0  0  0
   -3.7500  -23.1007   24.3292 O   0  0  0  0  0  0  0  0  0  0  0  0
   -3.1389  -25.3120   28.7255 C   0  0  0  0  0  0  0  0  0  0  0  0
   -3.9317  -25.4734   27.4461 C   0  0  1  0  0  0  0  0  0  0  0  0
   -5.1013  -26.1944   27.6965 O   0  0  0  0  0  0  0  0  0  0  0  0
   -4.2768  -24.0991   26.8572 C   0  0  2  0  0  0  0  0  0  0  0  0
   -3.0700  -23.3928   26.4857 N   0  0  0  0  0  0  0  0  0  0  0  0
   -5.0414  -23.3704   27.8945 C   0  0  0  0  0  0  0  0  0  0  0  0
   -4.3852  -22.7603   28.7638 O   0  0  0  0  0  0  0  0  0  0  0  0
   -8.6850  -22.5520   28.6407 C   0  0  0  0  0  0  0  0  0  0  0  0
   -7.2020  -22.5759   28.9248 C   0  0  2  0  0  0  0  0  0  0  0  0
   -6.4567  -23.3259   27.9573 N   0  0  0  0  0  0  0  0  0  0  0  0
   -7.0309  -23.2625   30.2471 C   0  0  0  0  0  0  0  0  0  0  0  0
   -6.6553  -24.4450   30.2213 O   0  0  0  0  0  0  0  0  0  0  0  0
   -7.2779  -22.6163   31.4519 O   0  0  0  0  0  0  0  0  0  0  0  0
  2  1  1  6
  3  2  1  0
  4 10  1  0
  4  2  1  0
  5  4  2  0
  7  6  1  1
  7  9  1  0
  7  8  1  0
  9 11  1  0
  9 10  1  1
 11 12  2  0
 14 13  1  6
 14 16  1  0
 15 14  1  0
 15 11  1  0
 16 18  1  0
 17 16  2  0
M  END
$$$$
