ATA.pdb
     RDKit          3D

 18 17  0  0  1  0  0  0  0  0999 V2000
    8.5184  -12.3795   19.8432 C   0  0  0  0  0  0  0  0  0  0  0  0
    8.4859  -13.8840   19.9431 C   0  0  2  0  0  0  0  0  0  0  0  0
    7.6616  -14.3998   18.8940 N   0  0  0  0  0  0  0  0  0  0  0  0
    8.0548  -14.3423   21.2904 C   0  0  0  0  0  0  0  0  0  0  0  0
    6.8449  -14.2428   21.6207 O   0  0  0  0  0  0  0  0  0  0  0  0
    7.8558  -17.6768   22.6462 C   0  0  0  0  0  0  0  0  0  0  0  0
    8.7645  -16.9258   23.5957 C   0  0  1  0  0  0  0  0  0  0  0  0
   10.1009  -17.1880   23.2859 O   0  0  0  0  0  0  0  0  0  0  0  0
    8.4913  -15.4181   23.5128 C   0  0  2  0  0  0  0  0  0  0  0  0
    8.9399  -14.8940   22.2412 N   0  0  0  0  0  0  0  0  0  0  0  0
    9.2071  -14.7920   24.6474 C   0  0  0  0  0  0  0  0  0  0  0  0
   10.4270  -14.5713   24.5004 O   0  0  0  0  0  0  0  0  0  0  0  0
    8.4341  -13.0789   27.9170 C   0  0  0  0  0  0  0  0  0  0  0  0
    9.3013  -13.9218   27.0127 C   0  0  2  0  0  0  0  0  0  0  0  0
    8.5958  -14.4333   25.8749 N   0  0  0  0  0  0  0  0  0  0  0  0
    9.7480  -15.1004   27.8255 C   0  0  0  0  0  0  0  0  0  0  0  0
    9.2972  -16.2099   27.5003 O   0  0  0  0  0  0  0  0  0  0  0  0
   10.6250  -14.9698   28.8950 O   0  0  0  0  0  0  0  0  0  0  0  0
  2  1  1  1
  3  2  1  0
  4 10  1  0
  4  2  1  0
  5  4  2  0
  7  6  1  6
  7  9  1  0
  7  8  1  0
  9 11  1  0
  9 10  1  6
 11 12  2  0
 14 13  1  1
 14 16  1  0
 15 14  1  0
 15 11  1  0
 16 18  1  0
 17 16  2  0
M  END
$$$$
