ATA.pdb
     RDKit          3D

 18 17  0  0  1  0  0  0  0  0999 V2000
   13.4148  -14.7422   20.8825 C   0  0  0  0  0  0  0  0  0  0  0  0
   12.0955  -15.4032   20.5709 C   0  0  2  0  0  0  0  0  0  0  0  0
   11.6410  -14.9495   19.2927 N   0  0  0  0  0  0  0  0  0  0  0  0
   11.0947  -15.1816   21.6481 C   0  0  0  0  0  0  0  0  0  0  0  0
   10.3485  -14.1697   21.6017 O   0  0  0  0  0  0  0  0  0  0  0  0
    8.2054  -17.4201   22.6133 C   0  0  0  0  0  0  0  0  0  0  0  0
    9.0657  -17.2064   23.8403 C   0  0  1  0  0  0  0  0  0  0  0  0
    9.9366  -18.2855   24.0072 O   0  0  0  0  0  0  0  0  0  0  0  0
    9.8633  -15.9019   23.7101 C   0  0  2  0  0  0  0  0  0  0  0  0
   10.9278  -16.0567   22.7427 N   0  0  0  0  0  0  0  0  0  0  0  0
   10.3885  -15.5869   25.0579 C   0  0  0  0  0  0  0  0  0  0  0  0
   11.5276  -16.0128   25.3402 O   0  0  0  0  0  0  0  0  0  0  0  0
    9.3970  -13.3772   27.9859 C   0  0  0  0  0  0  0  0  0  0  0  0
   10.2303  -14.4287   27.2928 C   0  0  2  0  0  0  0  0  0  0  0  0
    9.6825  -14.8398   26.0338 N   0  0  0  0  0  0  0  0  0  0  0  0
   10.2343  -15.6308   28.1895 C   0  0  0  0  0  0  0  0  0  0  0  0
    9.5657  -16.6088   27.8203 O   0  0  0  0  0  0  0  0  0  0  0  0
   10.9491  -15.6610   29.3805 O   0  0  0  0  0  0  0  0  0  0  0  0
  2  1  1  1
  3  2  1  0
  4 10  1  0
  4  2  1  0
  5  4  2  0
  7  6  1  6
  7  9  1  0
  7  8  1  0
  9 11  1  0
  9 10  1  6
 11 12  2  0
 14 13  1  1
 14 16  1  0
 15 14  1  0
 15 11  1  0
 16 18  1  0
 17 16  2  0
M  END
$$$$
