ATA.pdb
     RDKit          3D

 18 17  0  0  1  0  0  0  0  0999 V2000
    9.8866  -18.0696   16.6154 C   0  0  0  0  0  0  0  0  0  0  0  0
    9.6176  -16.5937   16.4614 C   0  0  2  0  0  0  0  0  0  0  0  0
   10.3792  -16.0970   15.3571 N   0  0  0  0  0  0  0  0  0  0  0  0
    9.8779  -15.8469   17.7207 C   0  0  0  0  0  0  0  0  0  0  0  0
   11.0476  -15.4663   17.9846 O   0  0  0  0  0  0  0  0  0  0  0  0
    7.6241  -12.9302   19.4571 C   0  0  0  0  0  0  0  0  0  0  0  0
    7.9132  -14.0887   20.3875 C   0  0  1  0  0  0  0  0  0  0  0  0
    6.8089  -14.9418   20.4456 O   0  0  0  0  0  0  0  0  0  0  0  0
    9.1497  -14.8605   19.9079 C   0  0  2  0  0  0  0  0  0  0  0  0
    8.8703  -15.5328   18.6577 N   0  0  0  0  0  0  0  0  0  0  0  0
    9.4963  -15.8197   20.9809 C   0  0  0  0  0  0  0  0  0  0  0  0
    9.0780  -16.9895   20.8575 O   0  0  0  0  0  0  0  0  0  0  0  0
   11.6587  -15.8850   24.1091 C   0  0  0  0  0  0  0  0  0  0  0  0
   10.6060  -16.4165   23.1657 C   0  0  2  0  0  0  0  0  0  0  0  0
   10.2654  -15.4915   22.1254 N   0  0  0  0  0  0  0  0  0  0  0  0
    9.3699  -16.6383   23.9855 C   0  0  0  0  0  0  0  0  0  0  0  0
    8.4204  -15.8634   23.7906 O   0  0  0  0  0  0  0  0  0  0  0  0
    9.2790  -17.6598   24.9227 O   0  0  0  0  0  0  0  0  0  0  0  0
  2  1  1  1
  3  2  1  0
  4 10  1  0
  4  2  1  0
  5  4  2  0
  7  6  1  6
  7  9  1  0
  7  8  1  0
  9 11  1  0
  9 10  1  6
 11 12  2  0
 14 13  1  1
 14 16  1  0
 15 14  1  0
 15 11  1  0
 16 18  1  0
 17 16  2  0
M  END
$$$$
