ATA.pdb
     RDKit          3D

 18 17  0  0  1  0  0  0  0  0999 V2000
   -1.0615  -27.2359   30.8929 C   0  0  0  0  0  0  0  0  0  0  0  0
   -2.5090  -27.1453   31.3062 C   0  0  2  0  0  0  0  0  0  0  0  0
   -3.1696  -28.3626   30.9485 N   0  0  0  0  0  0  0  0  0  0  0  0
   -3.1747  -25.9426   30.7391 C   0  0  0  0  0  0  0  0  0  0  0  0
   -2.6913  -24.8031   30.9642 O   0  0  0  0  0  0  0  0  0  0  0  0
   -4.3530  -25.3881   26.9429 C   0  0  0  0  0  0  0  0  0  0  0  0
   -5.4803  -25.1979   27.9352 C   0  0  1  0  0  0  0  0  0  0  0  0
   -6.2444  -26.3639   28.0195 O   0  0  0  0  0  0  0  0  0  0  0  0
   -4.9179  -24.8363   29.3164 C   0  0  2  0  0  0  0  0  0  0  0  0
   -4.3410  -26.0037   29.9467 N   0  0  0  0  0  0  0  0  0  0  0  0
   -6.0442  -24.2874   30.1049 C   0  0  0  0  0  0  0  0  0  0  0  0
   -6.6712  -25.0832   30.8344 O   0  0  0  0  0  0  0  0  0  0  0  0
   -7.6565  -20.8935   30.7330 C   0  0  0  0  0  0  0  0  0  0  0  0
   -7.5547  -22.3978   30.8182 C   0  0  2  0  0  0  0  0  0  0  0  0
   -6.4467  -22.9285   30.0802 N   0  0  0  0  0  0  0  0  0  0  0  0
   -8.8052  -22.9469   30.1987 C   0  0  0  0  0  0  0  0  0  0  0  0
   -8.7034  -23.4258   29.0584 O   0  0  0  0  0  0  0  0  0  0  0  0
  -10.0270  -22.9265   30.8598 O   0  0  0  0  0  0  0  0  0  0  0  0
  2  1  1  6
  3  2  1  0
  4 10  1  0
  4  2  1  0
  5  4  2  0
  7  6  1  6
  7  9  1  0
  7  8  1  0
  9 11  1  0
  9 10  1  1
 11 12  2  0
 14 13  1  6
 14 16  1  0
 15 14  1  0
 15 11  1  0
 16 18  1  0
 17 16  2  0
M  END
$$$$
