ATA.pdb
     RDKit          3D

 18 17  0  0  1  0  0  0  0  0999 V2000
   10.3817  -17.7271   15.9789 C   0  0  0  0  0  0  0  0  0  0  0  0
   10.1492  -16.2377   15.9332 C   0  0  2  0  0  0  0  0  0  0  0  0
   11.0375  -15.6598   14.9723 N   0  0  0  0  0  0  0  0  0  0  0  0
   10.2729  -15.6143   17.2775 C   0  0  0  0  0  0  0  0  0  0  0  0
   11.4035  -15.2442   17.6870 O   0  0  0  0  0  0  0  0  0  0  0  0
    7.7415  -12.8740   19.0038 C   0  0  0  0  0  0  0  0  0  0  0  0
    7.9867  -14.1103   19.8421 C   0  0  1  0  0  0  0  0  0  0  0  0
    6.9295  -15.0099   19.6875 O   0  0  0  0  0  0  0  0  0  0  0  0
    9.3078  -14.7760   19.4345 C   0  0  2  0  0  0  0  0  0  0  0  0
    9.1750  -15.4084   18.1401 N   0  0  0  0  0  0  0  0  0  0  0  0
    9.6352  -15.7575   20.4934 C   0  0  0  0  0  0  0  0  0  0  0  0
    9.3613  -16.9541   20.2666 O   0  0  0  0  0  0  0  0  0  0  0  0
   11.1232  -15.7194   24.0033 C   0  0  0  0  0  0  0  0  0  0  0  0
   10.4639  -16.3509   22.8004 C   0  0  2  0  0  0  0  0  0  0  0  0
   10.2337  -15.4218   21.7337 N   0  0  0  0  0  0  0  0  0  0  0  0
    9.1233  -16.8441   23.2572 C   0  0  0  0  0  0  0  0  0  0  0  0
    9.1160  -17.8103   24.0359 O   0  0  0  0  0  0  0  0  0  0  0  0
    7.9374  -16.2557   22.8357 O   0  0  0  0  0  0  0  0  0  0  0  0
  2  1  1  1
  3  2  1  0
  4 10  1  0
  4  2  1  0
  5  4  2  0
  7  6  1  6
  7  9  1  0
  7  8  1  0
  9 11  1  0
  9 10  1  6
 11 12  2  0
 14 13  1  1
 14 16  1  0
 15 14  1  0
 15 11  1  0
 16 18  1  0
 17 16  2  0
M  END
$$$$
