ATA.pdb
     RDKit          3D

 18 17  0  0  1  0  0  0  0  0999 V2000
    9.3352  -19.0350   18.5629 C   0  0  0  0  0  0  0  0  0  0  0  0
    9.4368  -17.6461   17.9839 C   0  0  2  0  0  0  0  0  0  0  0  0
   10.5410  -17.6029   17.0756 N   0  0  0  0  0  0  0  0  0  0  0  0
    9.5242  -16.6071   19.0441 C   0  0  0  0  0  0  0  0  0  0  0  0
   10.6530  -16.2483   19.4682 O   0  0  0  0  0  0  0  0  0  0  0  0
    7.2346  -13.2045   19.6375 C   0  0  0  0  0  0  0  0  0  0  0  0
    7.2411  -14.1775   20.7971 C   0  0  1  0  0  0  0  0  0  0  0  0
    6.0856  -14.9615   20.7695 O   0  0  0  0  0  0  0  0  0  0  0  0
    8.4859  -15.0726   20.7335 C   0  0  2  0  0  0  0  0  0  0  0  0
    8.3930  -15.9859   19.6153 N   0  0  0  0  0  0  0  0  0  0  0  0
    8.5598  -15.7925   22.0250 C   0  0  0  0  0  0  0  0  0  0  0  0
    8.1366  -16.9667   22.0487 O   0  0  0  0  0  0  0  0  0  0  0  0
    9.8541  -15.1280   25.5477 C   0  0  0  0  0  0  0  0  0  0  0  0
    9.1695  -15.9323   24.4683 C   0  0  2  0  0  0  0  0  0  0  0  0
    9.0764  -15.2333   23.2206 N   0  0  0  0  0  0  0  0  0  0  0  0
    7.7691  -16.1813   24.9437 C   0  0  0  0  0  0  0  0  0  0  0  0
    6.8734  -15.4844   24.4416 O   0  0  0  0  0  0  0  0  0  0  0  0
    7.4747  -17.1442   25.9010 O   0  0  0  0  0  0  0  0  0  0  0  0
  2  1  1  1
  3  2  1  0
  4 10  1  0
  4  2  1  0
  5  4  2  0
  7  6  1  6
  7  9  1  0
  7  8  1  0
  9 11  1  0
  9 10  1  6
 11 12  2  0
 14 13  1  1
 14 16  1  0
 15 14  1  0
 15 11  1  0
 16 18  1  0
 17 16  2  0
M  END
$$$$
