LWS.pdb
     RDKit          3D

 29 30  0  0  1  0  0  0  0  0999 V2000
   19.1118  -18.2446  -19.5283 C   0  0  0  0  0  0  0  0  0  0  0  0
   19.9839  -18.7636  -18.3767 C   0  0  2  0  0  0  0  0  0  0  0  0
   19.1466  -19.7484  -17.6118 C   0  0  0  0  0  0  0  0  0  0  0  0
   20.4145  -17.5857  -17.5851 C   0  0  0  0  0  0  0  0  0  0  0  0
   21.1518  -16.5331  -18.3562 C   0  0  2  0  0  0  0  0  0  0  0  0
   22.2736  -17.1787  -19.0177 N   0  0  0  0  0  0  0  0  0  0  0  0
   21.6146  -15.3905  -17.5334 C   0  0  0  0  0  0  0  0  0  0  0  0
   20.8353  -14.7464  -16.7906 O   0  0  0  0  0  0  0  0  0  0  0  0
   22.9865  -14.9521  -17.5398 N   0  0  0  0  0  0  0  0  0  0  0  0
   23.3921  -13.7918  -16.7873 C   0  0  1  0  0  0  0  0  0  0  0  0
   24.8659  -13.6953  -16.6307 C   0  0  0  0  0  0  0  0  0  0  0  0
   25.3673  -12.4774  -15.9732 C   0  0  0  0  0  0  0  0  0  0  0  0
   25.0979  -12.0910  -14.6445 C   0  0  0  0  0  0  0  0  0  0  0  0
   25.7485  -10.9486  -14.3943 N   0  0  0  0  0  0  0  0  0  0  0  0
   26.4377  -10.5438  -15.4738 C   0  0  0  0  0  0  0  0  0  0  0  0
   27.2303   -9.4384  -15.6827 C   0  0  0  0  0  0  0  0  0  0  0  0
   27.8065   -9.2748  -16.9173 C   0  0  0  0  0  0  0  0  0  0  0  0
   27.5896  -10.1963  -17.9082 C   0  0  0  0  0  0  0  0  0  0  0  0
   26.7948  -11.2943  -17.6799 C   0  0  0  0  0  0  0  0  0  0  0  0
   26.1990  -11.5011  -16.4640 C   0  0  0  0  0  0  0  0  0  0  0  0
   22.9235  -12.5538  -17.5113 C   0  0  0  0  0  0  0  0  0  0  0  0
   23.0167  -12.5001  -18.7674 O   0  0  0  0  0  0  0  0  0  0  0  0
   19.9826   -8.9247  -17.7084 O   0  0  0  0  0  0  0  0  0  0  0  0
   20.5499  -10.1713  -17.9434 C   0  0  0  0  0  0  0  0  0  0  0  0
   21.9728  -10.2295  -17.5224 C   0  0  2  0  0  0  0  0  0  0  0  0
   22.3768  -11.4308  -16.8593 N   0  0  0  0  0  0  0  0  0  0  0  0
   22.1857   -9.0901  -16.5581 C   0  0  0  0  0  0  0  0  0  0  0  0
   22.0556   -7.9355  -16.9944 O   0  0  0  0  0  0  0  0  0  0  0  0
   22.5132   -9.2927  -15.2364 O   0  0  0  0  0  0  0  0  0  0  0  0
  2  1  1  6
  2  3  1  0
  4  2  1  0
  5  4  1  0
  5  6  1  1
  7  8  2  0
  7  5  1  0
  9  7  1  0
 10  9  1  0
 10 11  1  6
 11 12  1  0
 12 20  1  0
 12 13  2  0
 13 14  1  0
 15 14  1  0
 15 16  2  0
 17 16  1  0
 18 17  2  0
 19 20  2  0
 19 18  1  0
 20 15  1  0
 21 22  2  0
 21 10  1  0
 24 23  1  0
 25 24  1  1
 25 26  1  0
 26 21  1  0
 27 25  1  0
 28 27  2  0
 29 27  1  0
M  END
$$$$
