LWS.pdb
     RDKit          3D

 29 30  0  0  1  0  0  0  0  0999 V2000
   27.3119  -20.7506  -19.2035 C   0  0  0  0  0  0  0  0  0  0  0  0
   27.2464  -22.2711  -19.4035 C   0  0  2  0  0  0  0  0  0  0  0  0
   26.5155  -22.5049  -20.6947 C   0  0  0  0  0  0  0  0  0  0  0  0
   26.5755  -22.8434  -18.2113 C   0  0  0  0  0  0  0  0  0  0  0  0
   27.2836  -22.6171  -16.9098 C   0  0  2  0  0  0  0  0  0  0  0  0
   28.3668  -23.5826  -16.8260 N   0  0  0  0  0  0  0  0  0  0  0  0
   26.4068  -22.7072  -15.7183 C   0  0  0  0  0  0  0  0  0  0  0  0
   26.0445  -23.8092  -15.2404 O   0  0  0  0  0  0  0  0  0  0  0  0
   25.9182  -21.5343  -15.0402 N   0  0  0  0  0  0  0  0  0  0  0  0
   25.0834  -21.6536  -13.8715 C   0  0  1  0  0  0  0  0  0  0  0  0
   25.2062  -20.4899  -12.9567 C   0  0  0  0  0  0  0  0  0  0  0  0
   24.5097  -20.6072  -11.6653 C   0  0  0  0  0  0  0  0  0  0  0  0
   25.0149  -21.2462  -10.5146 C   0  0  0  0  0  0  0  0  0  0  0  0
   24.1157  -21.1228   -9.5311 N   0  0  0  0  0  0  0  0  0  0  0  0
   23.0375  -20.4406   -9.9509 C   0  0  0  0  0  0  0  0  0  0  0  0
   21.8771  -20.0874   -9.3010 C   0  0  0  0  0  0  0  0  0  0  0  0
   20.9254  -19.3899  -10.0014 C   0  0  0  0  0  0  0  0  0  0  0  0
   21.1379  -19.0599  -11.3144 C   0  0  0  0  0  0  0  0  0  0  0  0
   22.3039  -19.4215  -11.9462 C   0  0  0  0  0  0  0  0  0  0  0  0
   23.2833  -20.1175  -11.2885 C   0  0  0  0  0  0  0  0  0  0  0  0
   23.6426  -21.7453  -14.3099 C   0  0  0  0  0  0  0  0  0  0  0  0
   23.2156  -20.9586  -15.1977 O   0  0  0  0  0  0  0  0  0  0  0  0
   21.5286  -24.8126  -15.4388 O   0  0  0  0  0  0  0  0  0  0  0  0
   20.8603  -24.1667  -14.4058 C   0  0  0  0  0  0  0  0  0  0  0  0
   21.3597  -22.7847  -14.1908 C   0  0  2  0  0  0  0  0  0  0  0  0
   22.7251  -22.6735  -13.7793 N   0  0  0  0  0  0  0  0  0  0  0  0
   20.5106  -22.1827  -13.0998 C   0  0  0  0  0  0  0  0  0  0  0  0
   21.0820  -21.8246  -12.0580 O   0  0  0  0  0  0  0  0  0  0  0  0
   19.1490  -22.0239  -13.2266 O   0  0  0  0  0  0  0  0  0  0  0  0
  2  1  1  1
  2  3  1  0
  4  2  1  0
  5  4  1  0
  5  6  1  1
  7  8  2  0
  7  5  1  0
  9  7  1  0
 10  9  1  0
 10 11  1  1
 11 12  1  0
 12 20  1  0
 12 13  2  0
 13 14  1  0
 15 14  1  0
 15 16  2  0
 17 16  1  0
 18 17  2  0
 19 20  2  0
 19 18  1  0
 20 15  1  0
 21 22  2  0
 21 10  1  0
 24 23  1  0
 25 24  1  1
 25 26  1  0
 26 21  1  0
 27 25  1  0
 28 27  2  0
 29 27  1  0
M  END
$$$$
