LWS.pdb
     RDKit          3D

 29 30  0  0  1  0  0  0  0  0999 V2000
   23.7764  -14.0820  -14.9870 C   0  0  0  0  0  0  0  0  0  0  0  0
   24.1500  -13.5997  -16.3955 C   0  0  2  0  0  0  0  0  0  0  0  0
   25.5325  -14.1158  -16.6753 C   0  0  0  0  0  0  0  0  0  0  0  0
   24.0395  -12.1208  -16.3981 C   0  0  0  0  0  0  0  0  0  0  0  0
   22.6988  -11.5798  -16.0030 C   0  0  2  0  0  0  0  0  0  0  0  0
   21.6997  -12.2373  -16.8290 N   0  0  0  0  0  0  0  0  0  0  0  0
   22.5829  -10.1063  -16.1121 C   0  0  0  0  0  0  0  0  0  0  0  0
   23.3351   -9.3305  -15.4748 O   0  0  0  0  0  0  0  0  0  0  0  0
   21.5983   -9.4790  -16.9555 N   0  0  0  0  0  0  0  0  0  0  0  0
   21.6064   -8.0526  -17.1613 C   0  0  1  0  0  0  0  0  0  0  0  0
   21.0634   -7.6605  -18.4870 C   0  0  0  0  0  0  0  0  0  0  0  0
   21.9199   -7.9524  -19.6480 C   0  0  0  0  0  0  0  0  0  0  0  0
   23.3222   -8.0949  -19.6190 C   0  0  0  0  0  0  0  0  0  0  0  0
   23.7448   -8.3873  -20.8547 N   0  0  0  0  0  0  0  0  0  0  0  0
   22.7125   -8.4493  -21.7117 C   0  0  0  0  0  0  0  0  0  0  0  0
   22.6689   -8.7040  -23.0634 C   0  0  0  0  0  0  0  0  0  0  0  0
   21.4481   -8.6868  -23.6897 C   0  0  0  0  0  0  0  0  0  0  0  0
   20.3091   -8.4212  -22.9754 C   0  0  0  0  0  0  0  0  0  0  0  0
   20.3732   -8.1694  -21.6256 C   0  0  0  0  0  0  0  0  0  0  0  0
   21.5683   -8.1764  -20.9564 C   0  0  0  0  0  0  0  0  0  0  0  0
   20.7503   -7.4031  -16.1021 C   0  0  0  0  0  0  0  0  0  0  0  0
   19.5595   -7.7875  -15.9487 O   0  0  0  0  0  0  0  0  0  0  0  0
   21.6893   -6.4860  -12.3627 O   0  0  0  0  0  0  0  0  0  0  0  0
   20.4165   -6.4215  -12.9166 C   0  0  0  0  0  0  0  0  0  0  0  0
   20.4136   -5.7506  -14.2415 C   0  0  2  0  0  0  0  0  0  0  0  0
   21.2068   -6.3732  -15.2560 N   0  0  0  0  0  0  0  0  0  0  0  0
   20.9664   -4.3645  -14.0257 C   0  0  0  0  0  0  0  0  0  0  0  0
   21.9804   -4.0438  -14.6654 O   0  0  0  0  0  0  0  0  0  0  0  0
   20.3887   -3.4660  -13.1572 O   0  0  0  0  0  0  0  0  0  0  0  0
  2  1  1  1
  2  3  1  0
  4  2  1  0
  5  4  1  0
  5  6  1  6
  7  8  2  0
  7  5  1  0
  9  7  1  0
 10  9  1  0
 10 11  1  6
 11 12  1  0
 12 20  1  0
 12 13  2  0
 13 14  1  0
 15 14  1  0
 15 16  2  0
 17 16  1  0
 18 17  2  0
 19 20  2  0
 19 18  1  0
 20 15  1  0
 21 22  2  0
 21 10  1  0
 24 23  1  0
 25 24  1  1
 25 26  1  0
 26 21  1  0
 27 25  1  0
 28 27  2  0
 29 27  1  0
M  END
$$$$
