LWS.pdb
     RDKit          3D

 29 30  0  0  1  0  0  0  0  0999 V2000
   27.8097  -32.7192  -17.8247 C   0  0  0  0  0  0  0  0  0  0  0  0
   28.0849  -31.9337  -16.5350 C   0  0  2  0  0  0  0  0  0  0  0  0
   27.7329  -32.8434  -15.3928 C   0  0  0  0  0  0  0  0  0  0  0  0
   27.2777  -30.6912  -16.5954 C   0  0  0  0  0  0  0  0  0  0  0  0
   27.6202  -29.7612  -17.7197 C   0  0  2  0  0  0  0  0  0  0  0  0
   28.9852  -29.3067  -17.5128 N   0  0  0  0  0  0  0  0  0  0  0  0
   26.6983  -28.6087  -17.8561 C   0  0  0  0  0  0  0  0  0  0  0  0
   26.4929  -27.8056  -16.9144 O   0  0  0  0  0  0  0  0  0  0  0  0
   25.9833  -28.3442  -19.0780 N   0  0  0  0  0  0  0  0  0  0  0  0
   25.0732  -27.2308  -19.1724 C   0  0  1  0  0  0  0  0  0  0  0  0
   24.9191  -26.7311  -20.5625 C   0  0  0  0  0  0  0  0  0  0  0  0
   24.0513  -25.5544  -20.7335 C   0  0  0  0  0  0  0  0  0  0  0  0
   24.0457  -24.4112  -19.9086 C   0  0  0  0  0  0  0  0  0  0  0  0
   23.1498  -23.5428  -20.3926 N   0  0  0  0  0  0  0  0  0  0  0  0
   22.5532  -24.0330  -21.4917 C   0  0  0  0  0  0  0  0  0  0  0  0
   21.5764  -23.5065  -22.3056 C   0  0  0  0  0  0  0  0  0  0  0  0
   21.1418  -24.2565  -23.3693 C   0  0  0  0  0  0  0  0  0  0  0  0
   21.6755  -25.4968  -23.6037 C   0  0  0  0  0  0  0  0  0  0  0  0
   22.6508  -26.0053  -22.7793 C   0  0  0  0  0  0  0  0  0  0  0  0
   23.1172  -25.2939  -21.7057 C   0  0  0  0  0  0  0  0  0  0  0  0
   23.7139  -27.6707  -18.6873 C   0  0  0  0  0  0  0  0  0  0  0  0
   23.2747  -28.8035  -19.0237 O   0  0  0  0  0  0  0  0  0  0  0  0
   21.4607  -25.4817  -15.8081 O   0  0  0  0  0  0  0  0  0  0  0  0
   21.3179  -26.8557  -15.9583 C   0  0  0  0  0  0  0  0  0  0  0  0
   21.6268  -27.3051  -17.3396 C   0  0  2  0  0  0  0  0  0  0  0  0
   22.8873  -26.8797  -17.8652 N   0  0  0  0  0  0  0  0  0  0  0  0
   20.5524  -26.7347  -18.2306 C   0  0  0  0  0  0  0  0  0  0  0  0
   20.8801  -25.8407  -19.0266 O   0  0  0  0  0  0  0  0  0  0  0  0
   19.2470  -27.1697  -18.1847 O   0  0  0  0  0  0  0  0  0  0  0  0
  2  1  1  6
  2  3  1  0
  4  2  1  0
  5  4  1  0
  5  6  1  1
  7  8  2  0
  7  5  1  0
  9  7  1  0
 10  9  1  0
 10 11  1  6
 11 12  1  0
 12 20  1  0
 12 13  2  0
 13 14  1  0
 15 14  1  0
 15 16  2  0
 17 16  1  0
 18 17  2  0
 19 20  2  0
 19 18  1  0
 20 15  1  0
 21 22  2  0
 21 10  1  0
 24 23  1  0
 25 24  1  1
 25 26  1  0
 26 21  1  0
 27 25  1  0
 28 27  2  0
 29 27  1  0
M  END
$$$$
