LWS.pdb
     RDKit          3D

 29 30  0  0  1  0  0  0  0  0999 V2000
   28.6144  -22.5571  -18.4402 C   0  0  0  0  0  0  0  0  0  0  0  0
   29.4445  -22.5382  -17.1493 C   0  0  2  0  0  0  0  0  0  0  0  0
   30.4874  -23.6097  -17.2917 C   0  0  0  0  0  0  0  0  0  0  0  0
   28.5067  -22.7469  -16.0197 C   0  0  0  0  0  0  0  0  0  0  0  0
   27.4337  -21.7098  -15.8805 C   0  0  2  0  0  0  0  0  0  0  0  0
   28.0837  -20.4109  -15.8243 N   0  0  0  0  0  0  0  0  0  0  0  0
   26.5494  -21.9052  -14.7073 C   0  0  0  0  0  0  0  0  0  0  0  0
   25.9711  -22.9959  -14.4841 O   0  0  0  0  0  0  0  0  0  0  0  0
   26.3013  -20.8532  -13.7554 N   0  0  0  0  0  0  0  0  0  0  0  0
   25.4739  -21.0869  -12.5987 C   0  0  1  0  0  0  0  0  0  0  0  0
   25.8198  -20.2023  -11.4569 C   0  0  0  0  0  0  0  0  0  0  0  0
   27.0798  -20.5092  -10.7605 C   0  0  0  0  0  0  0  0  0  0  0  0
   28.2331  -21.0612  -11.3543 C   0  0  0  0  0  0  0  0  0  0  0  0
   29.1835  -21.1671  -10.4180 N   0  0  0  0  0  0  0  0  0  0  0  0
   28.7389  -20.7205   -9.2318 C   0  0  0  0  0  0  0  0  0  0  0  0
   29.3515  -20.6476   -8.0018 C   0  0  0  0  0  0  0  0  0  0  0  0
   28.6319  -20.1496   -6.9449 C   0  0  0  0  0  0  0  0  0  0  0  0
   27.3368  -19.7388   -7.1237 C   0  0  0  0  0  0  0  0  0  0  0  0
   26.7423  -19.8193   -8.3604 C   0  0  0  0  0  0  0  0  0  0  0  0
   27.4203  -20.3085   -9.4454 C   0  0  0  0  0  0  0  0  0  0  0  0
   24.0351  -20.8219  -12.9678 C   0  0  0  0  0  0  0  0  0  0  0  0
   23.6741  -19.6454  -13.2412 O   0  0  0  0  0  0  0  0  0  0  0  0
   20.9935  -23.8147  -12.9134 O   0  0  0  0  0  0  0  0  0  0  0  0
   20.9968  -22.8648  -13.9275 C   0  0  0  0  0  0  0  0  0  0  0  0
   21.7280  -21.6316  -13.5400 C   0  0  2  0  0  0  0  0  0  0  0  0
   23.0492  -21.8265  -13.0278 N   0  0  0  0  0  0  0  0  0  0  0  0
   20.9172  -20.9714  -12.4535 C   0  0  0  0  0  0  0  0  0  0  0  0
   19.7605  -20.6188  -12.7328 O   0  0  0  0  0  0  0  0  0  0  0  0
   21.4156  -20.7544  -11.1887 O   0  0  0  0  0  0  0  0  0  0  0  0
  2  1  1  6
  2  3  1  0
  4  2  1  0
  5  4  1  0
  5  6  1  1
  7  8  2  0
  7  5  1  0
  9  7  1  0
 10  9  1  0
 10 11  1  1
 11 12  1  0
 12 20  1  0
 12 13  2  0
 13 14  1  0
 15 14  1  0
 15 16  2  0
 17 16  1  0
 18 17  2  0
 19 20  2  0
 19 18  1  0
 20 15  1  0
 21 22  2  0
 21 10  1  0
 24 23  1  0
 25 24  1  1
 25 26  1  0
 26 21  1  0
 27 25  1  0
 28 27  2  0
 29 27  1  0
M  END
$$$$
