LWS.pdb
     RDKit          3D

 29 30  0  0  1  0  0  0  0  0999 V2000
   29.1864  -17.7890  -15.0689 C   0  0  0  0  0  0  0  0  0  0  0  0
   28.2125  -18.5429  -15.9850 C   0  0  2  0  0  0  0  0  0  0  0  0
   27.5934  -17.5184  -16.8923 C   0  0  0  0  0  0  0  0  0  0  0  0
   27.2435  -19.2485  -15.1118 C   0  0  0  0  0  0  0  0  0  0  0  0
   27.8432  -20.2466  -14.1682 C   0  0  2  0  0  0  0  0  0  0  0  0
   28.4948  -21.2703  -14.9683 N   0  0  0  0  0  0  0  0  0  0  0  0
   26.8708  -20.8543  -13.2292 C   0  0  0  0  0  0  0  0  0  0  0  0
   26.2748  -21.9271  -13.4901 O   0  0  0  0  0  0  0  0  0  0  0  0
   26.5522  -20.2477  -11.9624 N   0  0  0  0  0  0  0  0  0  0  0  0
   25.5478  -20.8217  -11.1030 C   0  0  1  0  0  0  0  0  0  0  0  0
   25.6812  -20.3825   -9.6905 C   0  0  0  0  0  0  0  0  0  0  0  0
   26.9705  -20.6738   -9.0425 C   0  0  0  0  0  0  0  0  0  0  0  0
   28.0212  -21.4264   -9.6055 C   0  0  0  0  0  0  0  0  0  0  0  0
   29.0395  -21.4495   -8.7374 N   0  0  0  0  0  0  0  0  0  0  0  0
   28.7368  -20.7589   -7.6258 C   0  0  0  0  0  0  0  0  0  0  0  0
   29.4593  -20.5234   -6.4785 C   0  0  0  0  0  0  0  0  0  0  0  0
   28.8760  -19.7805   -5.4832 C   0  0  0  0  0  0  0  0  0  0  0  0
   27.6054  -19.2916   -5.6407 C   0  0  0  0  0  0  0  0  0  0  0  0
   26.8998  -19.5374   -6.7944 C   0  0  0  0  0  0  0  0  0  0  0  0
   27.4400  -20.2729   -7.8159 C   0  0  0  0  0  0  0  0  0  0  0  0
   24.1862  -20.3934  -11.5921 C   0  0  0  0  0  0  0  0  0  0  0  0
   24.0523  -19.2643  -12.1368 O   0  0  0  0  0  0  0  0  0  0  0  0
   21.7989  -23.0233  -13.4210 O   0  0  0  0  0  0  0  0  0  0  0  0
   21.7287  -21.6396  -13.5268 C   0  0  0  0  0  0  0  0  0  0  0  0
   21.8200  -20.9695  -12.2046 C   0  0  2  0  0  0  0  0  0  0  0  0
   23.0311  -21.1917  -11.4767 N   0  0  0  0  0  0  0  0  0  0  0  0
   20.6870  -21.5077  -11.3678 C   0  0  0  0  0  0  0  0  0  0  0  0
   19.5294  -21.2878  -11.7575 O   0  0  0  0  0  0  0  0  0  0  0  0
   20.8986  -22.2202  -10.2090 O   0  0  0  0  0  0  0  0  0  0  0  0
  2  1  1  1
  2  3  1  0
  4  2  1  0
  5  4  1  0
  5  6  1  6
  7  8  2  0
  7  5  1  0
  9  7  1  0
 10  9  1  0
 10 11  1  1
 11 12  1  0
 12 20  1  0
 12 13  2  0
 13 14  1  0
 15 14  1  0
 15 16  2  0
 17 16  1  0
 18 17  2  0
 19 20  2  0
 19 18  1  0
 20 15  1  0
 21 22  2  0
 21 10  1  0
 24 23  1  0
 25 24  1  6
 25 26  1  0
 26 21  1  0
 27 25  1  0
 28 27  2  0
 29 27  1  0
M  END
$$$$
