LWS.pdb
     RDKit          3D

 29 30  0  0  1  0  0  0  0  0999 V2000
   20.8020  -23.2134  -14.3136 C   0  0  0  0  0  0  0  0  0  0  0  0
   20.1468  -21.8363  -14.1389 C   0  0  2  0  0  0  0  0  0  0  0  0
   19.5450  -21.4737  -15.4664 C   0  0  0  0  0  0  0  0  0  0  0  0
   21.2009  -20.9033  -13.6725 C   0  0  0  0  0  0  0  0  0  0  0  0
   21.9628  -21.3536  -12.4630 C   0  0  2  0  0  0  0  0  0  0  0  0
   21.1538  -21.0462  -11.2952 N   0  0  0  0  0  0  0  0  0  0  0  0
   23.3129  -20.7548  -12.3385 C   0  0  0  0  0  0  0  0  0  0  0  0
   23.4841  -19.5172  -12.2243 O   0  0  0  0  0  0  0  0  0  0  0  0
   24.5075  -21.5592  -12.3428 N   0  0  0  0  0  0  0  0  0  0  0  0
   25.8100  -20.9430  -12.3718 C   0  0  1  0  0  0  0  0  0  0  0  0
   26.7413  -21.5210  -11.3696 C   0  0  0  0  0  0  0  0  0  0  0  0
   26.7553  -20.8697  -10.0496 C   0  0  0  0  0  0  0  0  0  0  0  0
   25.6505  -20.2564   -9.4245 C   0  0  0  0  0  0  0  0  0  0  0  0
   26.0376  -19.8048   -8.2257 N   0  0  0  0  0  0  0  0  0  0  0  0
   27.3348  -20.0767   -8.0077 C   0  0  0  0  0  0  0  0  0  0  0  0
   28.1534  -19.7974   -6.9374 C   0  0  0  0  0  0  0  0  0  0  0  0
   29.4661  -20.1919   -7.0017 C   0  0  0  0  0  0  0  0  0  0  0  0
   29.9369  -20.8467   -8.1097 C   0  0  0  0  0  0  0  0  0  0  0  0
   29.1034  -21.1169   -9.1688 C   0  0  0  0  0  0  0  0  0  0  0  0
   27.7856  -20.7437   -9.1505 C   0  0  0  0  0  0  0  0  0  0  0  0
   26.4162  -21.1503  -13.7378 C   0  0  0  0  0  0  0  0  0  0  0  0
   26.4612  -22.3126  -14.2239 O   0  0  0  0  0  0  0  0  0  0  0  0
   28.1463  -18.0036  -15.6066 O   0  0  0  0  0  0  0  0  0  0  0  0
   27.9190  -19.0272  -16.5184 C   0  0  0  0  0  0  0  0  0  0  0  0
   27.4134  -20.2607  -15.8639 C   0  0  2  0  0  0  0  0  0  0  0  0
   26.9460  -20.1058  -14.5210 N   0  0  0  0  0  0  0  0  0  0  0  0
   28.5637  -21.2351  -15.8303 C   0  0  0  0  0  0  0  0  0  0  0  0
   28.9990  -21.5727  -14.7181 O   0  0  0  0  0  0  0  0  0  0  0  0
   29.1307  -21.7480  -16.9751 O   0  0  0  0  0  0  0  0  0  0  0  0
  2  1  1  6
  2  3  1  0
  4  2  1  0
  5  4  1  0
  5  6  1  1
  7  8  2  0
  7  5  1  0
  9  7  1  0
 10  9  1  0
 10 11  1  1
 11 12  1  0
 12 20  1  0
 12 13  2  0
 13 14  1  0
 15 14  1  0
 15 16  2  0
 17 16  1  0
 18 17  2  0
 19 20  2  0
 19 18  1  0
 20 15  1  0
 21 22  2  0
 21 10  1  0
 24 23  1  0
 25 24  1  1
 25 26  1  0
 26 21  1  0
 27 25  1  0
 28 27  2  0
 29 27  1  0
M  END
$$$$
