LWS.pdb
     RDKit          3D

 29 30  0  0  1  0  0  0  0  0999 V2000
   28.4098  -15.0304  -16.5940 C   0  0  0  0  0  0  0  0  0  0  0  0
   28.7772  -13.8373  -17.4870 C   0  0  2  0  0  0  0  0  0  0  0  0
   30.2694  -13.8678  -17.6548 C   0  0  0  0  0  0  0  0  0  0  0  0
   28.2637  -12.6152  -16.8221 C   0  0  0  0  0  0  0  0  0  0  0  0
   26.7768  -12.5632  -16.6416 C   0  0  2  0  0  0  0  0  0  0  0  0
   26.1685  -13.0434  -17.8713 N   0  0  0  0  0  0  0  0  0  0  0  0
   26.2551  -11.2220  -16.2870 C   0  0  0  0  0  0  0  0  0  0  0  0
   26.6104  -10.6244  -15.2427 O   0  0  0  0  0  0  0  0  0  0  0  0
   25.3082  -10.5270  -17.1205 N   0  0  0  0  0  0  0  0  0  0  0  0
   24.7628   -9.2565  -16.7137 C   0  0  1  0  0  0  0  0  0  0  0  0
   24.7373   -8.2627  -17.8171 C   0  0  0  0  0  0  0  0  0  0  0  0
   25.1944   -6.9059  -17.4751 C   0  0  0  0  0  0  0  0  0  0  0  0
   26.4632   -6.3676  -17.7715 C   0  0  0  0  0  0  0  0  0  0  0  0
   26.5003   -5.1029  -17.3352 N   0  0  0  0  0  0  0  0  0  0  0  0
   25.3344   -4.7592  -16.7636 C   0  0  0  0  0  0  0  0  0  0  0  0
   24.9235   -3.5853  -16.1747 C   0  0  0  0  0  0  0  0  0  0  0  0
   23.6561   -3.5285  -15.6518 C   0  0  0  0  0  0  0  0  0  0  0  0
   22.8309   -4.6204  -15.7212 C   0  0  0  0  0  0  0  0  0  0  0  0
   23.2596   -5.7841  -16.3139 C   0  0  0  0  0  0  0  0  0  0  0  0
   24.5156   -5.8888  -16.8505 C   0  0  0  0  0  0  0  0  0  0  0  0
   23.3430   -9.4634  -16.2468 C   0  0  0  0  0  0  0  0  0  0  0  0
   22.5798  -10.2198  -16.9060 O   0  0  0  0  0  0  0  0  0  0  0  0
   21.7217   -7.5655  -12.7749 O   0  0  0  0  0  0  0  0  0  0  0  0
   21.2148   -8.7846  -13.2085 C   0  0  0  0  0  0  0  0  0  0  0  0
   21.4530   -9.0091  -14.6570 C   0  0  2  0  0  0  0  0  0  0  0  0
   22.8050   -8.8524  -15.0969 N   0  0  0  0  0  0  0  0  0  0  0  0
   20.6192   -7.9925  -15.3952 C   0  0  0  0  0  0  0  0  0  0  0  0
   21.2155   -7.1570  -16.0928 O   0  0  0  0  0  0  0  0  0  0  0  0
   19.2449   -7.9677  -15.3170 O   0  0  0  0  0  0  0  0  0  0  0  0
  2  1  1  1
  2  3  1  0
  4  2  1  0
  5  4  1  0
  5  6  1  6
  7  8  2  0
  7  5  1  0
  9  7  1  0
 10  9  1  0
 10 11  1  6
 11 12  1  0
 12 20  1  0
 12 13  2  0
 13 14  1  0
 15 14  1  0
 15 16  2  0
 17 16  1  0
 18 17  2  0
 19 20  2  0
 19 18  1  0
 20 15  1  0
 21 22  2  0
 21 10  1  0
 24 23  1  0
 25 24  1  1
 25 26  1  0
 26 21  1  0
 27 25  1  0
 28 27  2  0
 29 27  1  0
M  END
$$$$
