LWS.pdb
     RDKit          3D

 29 30  0  0  1  0  0  0  0  0999 V2000
   28.5082  -17.9860  -17.5249 C   0  0  0  0  0  0  0  0  0  0  0  0
   28.8376  -17.7042  -16.0524 C   0  0  2  0  0  0  0  0  0  0  0  0
   30.3004  -17.3686  -15.9945 C   0  0  0  0  0  0  0  0  0  0  0  0
   28.4581  -18.9105  -15.2778 C   0  0  0  0  0  0  0  0  0  0  0  0
   27.0402  -19.3631  -15.4545 C   0  0  2  0  0  0  0  0  0  0  0  0
   26.1844  -18.2004  -15.2855 N   0  0  0  0  0  0  0  0  0  0  0  0
   26.6322  -20.4530  -14.5368 C   0  0  0  0  0  0  0  0  0  0  0  0
   27.2918  -21.5148  -14.4297 O   0  0  0  0  0  0  0  0  0  0  0  0
   25.4533  -20.3570  -13.7150 N   0  0  0  0  0  0  0  0  0  0  0  0
   25.0398  -21.4629  -12.8887 C   0  0  1  0  0  0  0  0  0  0  0  0
   24.5095  -21.0286  -11.5710 C   0  0  0  0  0  0  0  0  0  0  0  0
   25.3934  -20.1641  -10.7722 C   0  0  0  0  0  0  0  0  0  0  0  0
   26.0441  -19.0025  -11.2357 C   0  0  0  0  0  0  0  0  0  0  0  0
   26.7321  -18.4674  -10.2201 N   0  0  0  0  0  0  0  0  0  0  0  0
   26.5837  -19.1987   -9.1033 C   0  0  0  0  0  0  0  0  0  0  0  0
   27.1049  -19.0414   -7.8394 C   0  0  0  0  0  0  0  0  0  0  0  0
   26.7849  -19.9721   -6.8832 C   0  0  0  0  0  0  0  0  0  0  0  0
   25.9660  -21.0266   -7.1925 C   0  0  0  0  0  0  0  0  0  0  0  0
   25.4550  -21.1662   -8.4608 C   0  0  0  0  0  0  0  0  0  0  0  0
   25.7452  -20.2626   -9.4485 C   0  0  0  0  0  0  0  0  0  0  0  0
   23.9446  -22.2189  -13.5998 C   0  0  0  0  0  0  0  0  0  0  0  0
   23.0227  -21.5777  -14.1726 O   0  0  0  0  0  0  0  0  0  0  0  0
   24.3376  -26.1124  -15.1466 O   0  0  0  0  0  0  0  0  0  0  0  0
   23.1359  -25.8204  -14.5130 C   0  0  0  0  0  0  0  0  0  0  0  0
   22.9011  -24.3584  -14.3997 C   0  0  2  0  0  0  0  0  0  0  0  0
   23.8858  -23.6250  -13.6657 N   0  0  0  0  0  0  0  0  0  0  0  0
   21.5854  -24.1858  -13.6837 C   0  0  0  0  0  0  0  0  0  0  0  0
   21.5898  -23.5500  -12.6178 O   0  0  0  0  0  0  0  0  0  0  0  0
   20.4063  -24.7035  -14.1704 O   0  0  0  0  0  0  0  0  0  0  0  0
  2  1  1  6
  2  3  1  0
  4  2  1  0
  5  4  1  0
  5  6  1  1
  7  8  2  0
  7  5  1  0
  9  7  1  0
 10  9  1  0
 10 11  1  1
 11 12  1  0
 12 20  1  0
 12 13  2  0
 13 14  1  0
 15 14  1  0
 15 16  2  0
 17 16  1  0
 18 17  2  0
 19 20  2  0
 19 18  1  0
 20 15  1  0
 21 22  2  0
 21 10  1  0
 24 23  1  0
 25 24  1  1
 25 26  1  0
 26 21  1  0
 27 25  1  0
 28 27  2  0
 29 27  1  0
M  END
$$$$
