LWS.pdb
     RDKit          3D

 29 30  0  0  1  0  0  0  0  0999 V2000
   24.2161  -35.0651   -8.7336 C   0  0  0  0  0  0  0  0  0  0  0  0
   25.6118  -34.5573   -8.3462 C   0  0  2  0  0  0  0  0  0  0  0  0
   26.4539  -35.7721   -8.0797 C   0  0  0  0  0  0  0  0  0  0  0  0
   25.4454  -33.6624   -7.1754 C   0  0  0  0  0  0  0  0  0  0  0  0
   24.5707  -32.4672   -7.4043 C   0  0  2  0  0  0  0  0  0  0  0  0
   25.1874  -31.6657   -8.4484 N   0  0  0  0  0  0  0  0  0  0  0  0
   24.3280  -31.6514   -6.1909 C   0  0  0  0  0  0  0  0  0  0  0  0
   25.2129  -30.9105   -5.6991 O   0  0  0  0  0  0  0  0  0  0  0  0
   23.0618  -31.6631   -5.5047 N   0  0  0  0  0  0  0  0  0  0  0  0
   22.8407  -30.8250   -4.3533 C   0  0  1  0  0  0  0  0  0  0  0  0
   21.4436  -30.3289   -4.2638 C   0  0  0  0  0  0  0  0  0  0  0  0
   21.1712  -29.3546   -3.1944 C   0  0  0  0  0  0  0  0  0  0  0  0
   21.9030  -28.1741   -2.9530 C   0  0  0  0  0  0  0  0  0  0  0  0
   21.3428  -27.5307   -1.9219 N   0  0  0  0  0  0  0  0  0  0  0  0
   20.2800  -28.2071   -1.4558 C   0  0  0  0  0  0  0  0  0  0  0  0
   19.4172  -27.9389   -0.4178 C   0  0  0  0  0  0  0  0  0  0  0  0
   18.4119  -28.8361   -0.1589 C   0  0  0  0  0  0  0  0  0  0  0  0
   18.2818  -29.9668   -0.9224 C   0  0  0  0  0  0  0  0  0  0  0  0
   19.1536  -30.2169   -1.9553 C   0  0  0  0  0  0  0  0  0  0  0  0
   20.1721  -29.3507   -2.2525 C   0  0  0  0  0  0  0  0  0  0  0  0
   23.1263  -31.6254   -3.1065 C   0  0  0  0  0  0  0  0  0  0  0  0
   22.8628  -32.8580   -3.0898 O   0  0  0  0  0  0  0  0  0  0  0  0
   25.2121  -31.9985    1.2806 O   0  0  0  0  0  0  0  0  0  0  0  0
   24.9128  -31.1751    0.2021 C   0  0  0  0  0  0  0  0  0  0  0  0
   23.9676  -31.8148   -0.7481 C   0  0  2  0  0  0  0  0  0  0  0  0
   23.6805  -31.0712   -1.9358 N   0  0  0  0  0  0  0  0  0  0  0  0
   22.6674  -31.9986   -0.0071 C   0  0  0  0  0  0  0  0  0  0  0  0
   21.7152  -31.2697   -0.3271 O   0  0  0  0  0  0  0  0  0  0  0  0
   22.5127  -32.9324    0.9925 O   0  0  0  0  0  0  0  0  0  0  0  0
  2  1  1  1
  2  3  1  0
  4  2  1  0
  5  4  1  0
  5  6  1  6
  7  8  2  0
  7  5  1  0
  9  7  1  0
 10  9  1  0
 10 11  1  1
 11 12  1  0
 12 20  1  0
 12 13  2  0
 13 14  1  0
 15 14  1  0
 15 16  2  0
 17 16  1  0
 18 17  2  0
 19 20  2  0
 19 18  1  0
 20 15  1  0
 21 22  2  0
 21 10  1  0
 24 23  1  0
 25 24  1  1
 25 26  1  0
 26 21  1  0
 27 25  1  0
 28 27  2  0
 29 27  1  0
M  END
$$$$
