LWS.pdb
     RDKit          3D

 29 30  0  0  1  0  0  0  0  0999 V2000
   28.0616  -20.2667  -15.2782 C   0  0  0  0  0  0  0  0  0  0  0  0
   28.6779  -19.7509  -13.9704 C   0  0  2  0  0  0  0  0  0  0  0  0
   30.1656  -19.7264  -14.1753 C   0  0  0  0  0  0  0  0  0  0  0  0
   28.2272  -20.6550  -12.8847 C   0  0  0  0  0  0  0  0  0  0  0  0
   26.7442  -20.7114  -12.6751 C   0  0  2  0  0  0  0  0  0  0  0  0
   26.2052  -19.4008  -12.9982 N   0  0  0  0  0  0  0  0  0  0  0  0
   26.3395  -21.1233  -11.3101 C   0  0  0  0  0  0  0  0  0  0  0  0
   26.7284  -22.2001  -10.7970 O   0  0  0  0  0  0  0  0  0  0  0  0
   25.4747  -20.3115  -10.4933 N   0  0  0  0  0  0  0  0  0  0  0  0
   25.0889  -20.7438   -9.1737 C   0  0  1  0  0  0  0  0  0  0  0  0
   25.1914  -19.6615   -8.1618 C   0  0  0  0  0  0  0  0  0  0  0  0
   26.5293  -19.4349   -7.5914 C   0  0  0  0  0  0  0  0  0  0  0  0
   27.5731  -18.7139   -8.2064 C   0  0  0  0  0  0  0  0  0  0  0  0
   28.6224  -18.6944   -7.3759 N   0  0  0  0  0  0  0  0  0  0  0  0
   28.3474  -19.3586   -6.2413 C   0  0  0  0  0  0  0  0  0  0  0  0
   29.1140  -19.6055   -5.1255 C   0  0  0  0  0  0  0  0  0  0  0  0
   28.5622  -20.3403   -4.1064 C   0  0  0  0  0  0  0  0  0  0  0  0
   27.2791  -20.8103   -4.2102 C   0  0  0  0  0  0  0  0  0  0  0  0
   26.5290  -20.5528   -5.3329 C   0  0  0  0  0  0  0  0  0  0  0  0
   27.0360  -19.8234   -6.3757 C   0  0  0  0  0  0  0  0  0  0  0  0
   23.6525  -21.2039   -9.2127 C   0  0  0  0  0  0  0  0  0  0  0  0
   22.9426  -20.9283  -10.2174 O   0  0  0  0  0  0  0  0  0  0  0  0
   21.5181  -22.4842   -5.7986 O   0  0  0  0  0  0  0  0  0  0  0  0
   21.2313  -23.1311   -6.9945 C   0  0  0  0  0  0  0  0  0  0  0  0
   21.6714  -22.3478   -8.1769 C   0  0  2  0  0  0  0  0  0  0  0  0
   23.0416  -21.9372   -8.1764 N   0  0  0  0  0  0  0  0  0  0  0  0
   20.8276  -21.0985   -8.2066 C   0  0  0  0  0  0  0  0  0  0  0  0
   21.4098  -20.0084   -8.0927 O   0  0  0  0  0  0  0  0  0  0  0  0
   19.4592  -21.1350   -8.3534 O   0  0  0  0  0  0  0  0  0  0  0  0
  2  1  1  6
  2  3  1  0
  4  2  1  0
  5  4  1  0
  5  6  1  1
  7  8  2  0
  7  5  1  0
  9  7  1  0
 10  9  1  0
 10 11  1  1
 11 12  1  0
 12 20  1  0
 12 13  2  0
 13 14  1  0
 15 14  1  0
 15 16  2  0
 17 16  1  0
 18 17  2  0
 19 20  2  0
 19 18  1  0
 20 15  1  0
 21 22  2  0
 21 10  1  0
 24 23  1  0
 25 24  1  1
 25 26  1  0
 26 21  1  0
 27 25  1  0
 28 27  2  0
 29 27  1  0
M  END
$$$$
