QLP.pdb
     RDKit          3D

 25 25  0  0  1  0  0  0  0  0999 V2000
    8.0157  -20.0639   22.7916 N   0  0  0  0  0  0  0  0  0  0  0  0
    8.1517  -19.8665   21.3861 C   0  0  0  0  0  0  0  0  0  0  0  0
    7.7701  -20.7891   20.6039 O   0  0  0  0  0  0  0  0  0  0  0  0
    8.7361  -18.5864   20.8787 C   0  0  0  0  0  0  0  0  0  0  0  0
    8.9795  -17.7052   22.0591 C   0  0  0  0  0  0  0  0  0  0  0  0
    8.5922  -16.2731   21.8401 C   0  0  2  0  0  0  0  0  0  0  0  0
    9.0426  -15.8153   20.5633 N   0  0  0  0  0  0  0  0  0  0  0  0
    9.0245  -15.3787   22.9224 C   0  0  0  0  0  0  0  0  0  0  0  0
   10.1505  -14.8288   22.9807 O   0  0  0  0  0  0  0  0  0  0  0  0
    5.4234  -12.3663   25.8702 C   0  0  0  0  0  0  0  0  0  0  0  0
    6.6832  -12.8787   25.2567 C   0  0  1  0  0  0  0  0  0  0  0  0
    7.6767  -11.7163   25.1754 C   0  0  0  0  0  0  0  0  0  0  0  0
    7.3085  -14.0599   25.9237 C   0  0  0  0  0  0  0  0  0  0  0  0
    8.5669  -14.5729   25.2757 C   0  0  2  0  0  0  0  0  0  0  0  0
    8.1218  -15.1085   23.9783 N   0  0  0  0  0  0  0  0  0  0  0  0
    9.3337  -15.5463   26.0353 C   0  0  0  0  0  0  0  0  0  0  0  0
    9.5945  -16.6508   25.4215 O   0  0  0  0  0  0  0  0  0  0  0  0
    9.8217  -15.4143   27.3590 N   0  0  0  0  0  0  0  0  0  0  0  0
    9.2780  -14.4889   28.3581 C   0  0  0  0  0  0  0  0  0  0  0  0
   10.5075  -14.0260   29.0784 C   0  0  0  0  0  0  0  0  0  0  0  0
   11.6333  -14.9597   28.7022 C   0  0  0  0  0  0  0  0  0  0  0  0
   10.8792  -16.1146   28.0328 C   0  0  1  0  0  0  0  0  0  0  0  0
   10.3599  -17.0495   29.0791 C   0  0  0  0  0  0  0  0  0  0  0  0
   11.1300  -17.7367   29.7829 O   0  0  0  0  0  0  0  0  0  0  0  0
    9.0014  -17.1537   29.2681 O   0  0  0  0  0  0  0  0  0  0  0  0
  2  4  1  0
  2  1  1  0
  3  2  2  0
  5  4  1  0
  6  5  1  0
  6  7  1  6
  8  6  1  0
  9  8  2  0
 11 10  1  1
 11 12  1  0
 14 13  1  1
 13 11  1  0
 14 15  1  0
 15  8  1  0
 16 14  1  0
 17 16  2  0
 18 19  1  0
 18 16  1  0
 20 19  1  0
 21 20  1  0
 21 22  1  0
 22 18  1  0
 23 25  1  0
 22 23  1  1
 24 23  2  0
M  END
$$$$
