QLP.pdb
     RDKit          3D

 25 25  0  0  1  0  0  0  0  0999 V2000
    6.3131  -21.2755   27.5266 N   0  0  0  0  0  0  0  0  0  0  0  0
    6.3353  -22.0912   26.3573 C   0  0  0  0  0  0  0  0  0  0  0  0
    6.3185  -23.3517   26.4963 O   0  0  0  0  0  0  0  0  0  0  0  0
    6.3773  -21.4413   25.0107 C   0  0  0  0  0  0  0  0  0  0  0  0
    6.5356  -19.9724   25.2261 C   0  0  0  0  0  0  0  0  0  0  0  0
    5.6089  -19.1324   24.3987 C   0  0  2  0  0  0  0  0  0  0  0  0
    5.0925  -19.8816   23.2967 N   0  0  0  0  0  0  0  0  0  0  0  0
    6.2044  -17.8624   23.9619 C   0  0  0  0  0  0  0  0  0  0  0  0
    6.7195  -17.6716   22.8341 O   0  0  0  0  0  0  0  0  0  0  0  0
    7.2261  -12.3024   24.8380 C   0  0  0  0  0  0  0  0  0  0  0  0
    7.4617  -13.3839   25.8385 C   0  0  1  0  0  0  0  0  0  0  0  0
    7.3057  -12.7778   27.2360 C   0  0  0  0  0  0  0  0  0  0  0  0
    6.6168  -14.6077   25.6981 C   0  0  0  0  0  0  0  0  0  0  0  0
    7.1182  -15.6253   24.7083 C   0  0  2  0  0  0  0  0  0  0  0  0
    6.2051  -16.7703   24.8620 N   0  0  0  0  0  0  0  0  0  0  0  0
    8.5122  -16.0165   24.8347 C   0  0  0  0  0  0  0  0  0  0  0  0
    8.7822  -16.8034   25.8209 O   0  0  0  0  0  0  0  0  0  0  0  0
    9.5926  -15.6343   24.0013 N   0  0  0  0  0  0  0  0  0  0  0  0
    9.6064  -14.4389   23.1523 C   0  0  0  0  0  0  0  0  0  0  0  0
   10.3245  -14.9162   21.9270 C   0  0  0  0  0  0  0  0  0  0  0  0
   10.9879  -16.2285   22.2712 C   0  0  0  0  0  0  0  0  0  0  0  0
   10.8735  -16.2520   23.7999 C   0  0  1  0  0  0  0  0  0  0  0  0
   11.9864  -15.4519   24.3999 C   0  0  0  0  0  0  0  0  0  0  0  0
   13.1809  -15.7949   24.2733 O   0  0  0  0  0  0  0  0  0  0  0  0
   11.6842  -14.3120   25.1081 O   0  0  0  0  0  0  0  0  0  0  0  0
  2  4  1  0
  2  1  1  0
  3  2  2  0
  5  4  1  0
  6  5  1  0
  6  7  1  6
  8  6  1  0
  9  8  2  0
 11 10  1  6
 11 12  1  0
 14 13  1  1
 13 11  1  0
 14 15  1  0
 15  8  1  0
 16 14  1  0
 17 16  2  0
 18 19  1  0
 18 16  1  0
 20 19  1  0
 21 20  1  0
 21 22  1  0
 22 18  1  0
 23 25  1  0
 22 23  1  1
 24 23  2  0
M  END
$$$$
