QLP.pdb
     RDKit          3D

 25 25  0  0  1  0  0  0  0  0999 V2000
    9.4398  -14.6380   17.2302 N   0  0  0  0  0  0  0  0  0  0  0  0
    8.1989  -14.1848   17.7666 C   0  0  0  0  0  0  0  0  0  0  0  0
    7.3250  -13.7258   16.9702 O   0  0  0  0  0  0  0  0  0  0  0  0
    7.9655  -14.2634   19.2421 C   0  0  0  0  0  0  0  0  0  0  0  0
    9.2079  -14.8096   19.8644 C   0  0  0  0  0  0  0  0  0  0  0  0
    8.9574  -15.6919   21.0508 C   0  0  2  0  0  0  0  0  0  0  0  0
    7.6233  -16.2037   21.0299 N   0  0  0  0  0  0  0  0  0  0  0  0
    9.2739  -15.0500   22.3338 C   0  0  0  0  0  0  0  0  0  0  0  0
   10.3915  -14.5605   22.6251 O   0  0  0  0  0  0  0  0  0  0  0  0
    7.6758  -11.6459   26.2888 C   0  0  0  0  0  0  0  0  0  0  0  0
    7.2517  -13.0734   26.3801 C   0  0  1  0  0  0  0  0  0  0  0  0
    5.8881  -13.1183   27.0755 C   0  0  0  0  0  0  0  0  0  0  0  0
    7.2123  -13.8332   25.0947 C   0  0  0  0  0  0  0  0  0  0  0  0
    8.5189  -14.4502   24.6720 C   0  0  2  0  0  0  0  0  0  0  0  0
    8.2607  -14.9699   23.3186 N   0  0  0  0  0  0  0  0  0  0  0  0
    9.0675  -15.4676   25.5532 C   0  0  0  0  0  0  0  0  0  0  0  0
    8.9836  -16.6809   25.1225 O   0  0  0  0  0  0  0  0  0  0  0  0
    9.6789  -15.2734   26.8167 N   0  0  0  0  0  0  0  0  0  0  0  0
    9.4149  -14.1355   27.7030 C   0  0  0  0  0  0  0  0  0  0  0  0
   10.7669  -13.8523   28.2831 C   0  0  0  0  0  0  0  0  0  0  0  0
   11.6487  -15.0409   27.9823 C   0  0  0  0  0  0  0  0  0  0  0  0
   10.6266  -16.0880   27.5244 C   0  0  1  0  0  0  0  0  0  0  0  0
   10.0184  -16.7529   28.7188 C   0  0  0  0  0  0  0  0  0  0  0  0
    8.8350  -16.5371   29.0560 O   0  0  0  0  0  0  0  0  0  0  0  0
   10.7831  -17.6215   29.4624 O   0  0  0  0  0  0  0  0  0  0  0  0
  2  4  1  0
  2  1  1  0
  3  2  2  0
  5  4  1  0
  6  5  1  0
  6  7  1  1
  8  6  1  0
  9  8  2  0
 11 10  1  6
 11 12  1  0
 14 13  1  1
 13 11  1  0
 14 15  1  0
 15  8  1  0
 16 14  1  0
 17 16  2  0
 18 19  1  0
 18 16  1  0
 20 19  1  0
 21 20  1  0
 21 22  1  0
 22 18  1  0
 23 25  1  0
 22 23  1  1
 24 23  2  0
M  END
$$$$
