QLP.pdb
     RDKit          3D

 25 25  0  0  1  0  0  0  0  0999 V2000
   10.3978  -18.0094   18.8725 N   0  0  0  0  0  0  0  0  0  0  0  0
   11.2128  -17.4094   19.8769 C   0  0  0  0  0  0  0  0  0  0  0  0
   12.2015  -18.0639   20.3272 O   0  0  0  0  0  0  0  0  0  0  0  0
   10.8805  -16.0356   20.3668 C   0  0  0  0  0  0  0  0  0  0  0  0
    9.3932  -15.9382   20.4548 C   0  0  0  0  0  0  0  0  0  0  0  0
    8.8263  -16.4335   21.7518 C   0  0  2  0  0  0  0  0  0  0  0  0
    7.4046  -16.5539   21.6711 N   0  0  0  0  0  0  0  0  0  0  0  0
    9.2397  -15.6346   22.9133 C   0  0  0  0  0  0  0  0  0  0  0  0
   10.3471  -15.0545   23.0170 O   0  0  0  0  0  0  0  0  0  0  0  0
    5.3980  -12.8891   25.7204 C   0  0  0  0  0  0  0  0  0  0  0  0
    6.7096  -13.3142   25.1503 C   0  0  1  0  0  0  0  0  0  0  0  0
    7.6036  -12.0754   25.0453 C   0  0  0  0  0  0  0  0  0  0  0  0
    7.4170  -14.4142   25.8719 C   0  0  0  0  0  0  0  0  0  0  0  0
    8.7226  -14.8487   25.2610 C   0  0  2  0  0  0  0  0  0  0  0  0
    8.3397  -15.5002   23.9972 N   0  0  0  0  0  0  0  0  0  0  0  0
    9.5675  -15.7004   26.0814 C   0  0  0  0  0  0  0  0  0  0  0  0
   10.0047  -16.7698   25.5070 O   0  0  0  0  0  0  0  0  0  0  0  0
    9.9602  -15.4850   27.4258 N   0  0  0  0  0  0  0  0  0  0  0  0
    9.2901  -14.5663   28.3516 C   0  0  0  0  0  0  0  0  0  0  0  0
   10.4356  -13.9886   29.1254 C   0  0  0  0  0  0  0  0  0  0  0  0
   11.6463  -14.8504   28.8565 C   0  0  0  0  0  0  0  0  0  0  0  0
   11.0199  -16.0810   28.1903 C   0  0  1  0  0  0  0  0  0  0  0  0
   10.5030  -17.0128   29.2406 C   0  0  0  0  0  0  0  0  0  0  0  0
    9.2784  -17.1609   29.4386 O   0  0  0  0  0  0  0  0  0  0  0  0
   11.3997  -17.7218   30.0057 O   0  0  0  0  0  0  0  0  0  0  0  0
  2  4  1  0
  2  1  1  0
  3  2  2  0
  5  4  1  0
  6  5  1  0
  6  7  1  6
  8  6  1  0
  9  8  2  0
 11 10  1  1
 11 12  1  0
 14 13  1  1
 13 11  1  0
 14 15  1  0
 15  8  1  0
 16 14  1  0
 17 16  2  0
 18 19  1  0
 18 16  1  0
 20 19  1  0
 21 20  1  0
 21 22  1  0
 22 18  1  0
 23 25  1  0
 22 23  1  1
 24 23  2  0
M  END
$$$$
