QLP.pdb
     RDKit          3D

 25 25  0  0  1  0  0  0  0  0999 V2000
   12.3427  -17.1438   18.8103 N   0  0  0  0  0  0  0  0  0  0  0  0
   11.0788  -17.6780   18.4230 C   0  0  0  0  0  0  0  0  0  0  0  0
   11.0127  -18.3747   17.3652 O   0  0  0  0  0  0  0  0  0  0  0  0
    9.8762  -17.4035   19.2693 C   0  0  0  0  0  0  0  0  0  0  0  0
   10.3336  -16.6286   20.4608 C   0  0  0  0  0  0  0  0  0  0  0  0
    9.5639  -16.9265   21.7129 C   0  0  2  0  0  0  0  0  0  0  0  0
    8.1880  -17.1736   21.4161 N   0  0  0  0  0  0  0  0  0  0  0  0
    9.7206  -15.9010   22.7531 C   0  0  0  0  0  0  0  0  0  0  0  0
   10.8204  -15.4128   23.1077 O   0  0  0  0  0  0  0  0  0  0  0  0
    7.5920  -11.7344   25.8529 C   0  0  0  0  0  0  0  0  0  0  0  0
    7.1447  -13.1476   26.0224 C   0  0  1  0  0  0  0  0  0  0  0  0
    5.6906  -13.1294   26.5019 C   0  0  0  0  0  0  0  0  0  0  0  0
    7.2947  -14.0343   24.8297 C   0  0  0  0  0  0  0  0  0  0  0  0
    8.6244  -14.7299   24.7086 C   0  0  2  0  0  0  0  0  0  0  0  0
    8.5625  -15.4203   23.4094 N   0  0  0  0  0  0  0  0  0  0  0  0
    8.9823  -15.6316   25.7908 C   0  0  0  0  0  0  0  0  0  0  0  0
    8.7368  -16.8804   25.5788 O   0  0  0  0  0  0  0  0  0  0  0  0
    9.5664  -15.2925   27.0364 N   0  0  0  0  0  0  0  0  0  0  0  0
    9.2008  -14.1183   27.8350 C   0  0  0  0  0  0  0  0  0  0  0  0
   10.5199  -13.6785   28.3928 C   0  0  0  0  0  0  0  0  0  0  0  0
   11.5014  -14.8068   28.1822 C   0  0  0  0  0  0  0  0  0  0  0  0
   10.5751  -15.9684   27.8035 C   0  0  1  0  0  0  0  0  0  0  0  0
   10.0174  -16.5917   29.0441 C   0  0  0  0  0  0  0  0  0  0  0  0
   10.7389  -17.2387   29.8325 O   0  0  0  0  0  0  0  0  0  0  0  0
    8.6776  -16.4483   29.3205 O   0  0  0  0  0  0  0  0  0  0  0  0
  2  4  1  0
  2  1  1  0
  3  2  2  0
  5  4  1  0
  6  5  1  0
  6  7  1  6
  8  6  1  0
  9  8  2  0
 11 10  1  6
 11 12  1  0
 14 13  1  1
 13 11  1  0
 14 15  1  0
 15  8  1  0
 16 14  1  0
 17 16  2  0
 18 19  1  0
 18 16  1  0
 20 19  1  0
 21 20  1  0
 21 22  1  0
 22 18  1  0
 23 25  1  0
 22 23  1  1
 24 23  2  0
M  END
$$$$
