QLP.pdb
     RDKit          3D

 25 25  0  0  1  0  0  0  0  0999 V2000
    9.0835  -20.3388   28.4484 N   0  0  0  0  0  0  0  0  0  0  0  0
    9.5149  -20.1768   27.0991 C   0  0  0  0  0  0  0  0  0  0  0  0
   10.7385  -20.3685   26.8259 O   0  0  0  0  0  0  0  0  0  0  0  0
    8.5191  -19.7884   26.0526 C   0  0  0  0  0  0  0  0  0  0  0  0
    7.2050  -19.5936   26.7340 C   0  0  0  0  0  0  0  0  0  0  0  0
    6.0785  -19.2628   25.8010 C   0  0  2  0  0  0  0  0  0  0  0  0
    5.7925  -20.3666   24.9394 N   0  0  0  0  0  0  0  0  0  0  0  0
    6.2921  -18.0223   25.0435 C   0  0  0  0  0  0  0  0  0  0  0  0
    6.5171  -17.9743   23.8104 O   0  0  0  0  0  0  0  0  0  0  0  0
    5.9742  -12.0320   26.2015 C   0  0  0  0  0  0  0  0  0  0  0  0
    6.9382  -13.1119   25.8403 C   0  0  1  0  0  0  0  0  0  0  0  0
    8.2970  -12.7565   26.4504 C   0  0  0  0  0  0  0  0  0  0  0  0
    6.5410  -14.5026   26.2139 C   0  0  0  0  0  0  0  0  0  0  0  0
    6.6281  -15.5163   25.1042 C   0  0  2  0  0  0  0  0  0  0  0  0
    6.2439  -16.7894   25.7366 N   0  0  0  0  0  0  0  0  0  0  0  0
    7.9042  -15.6110   24.4150 C   0  0  0  0  0  0  0  0  0  0  0  0
    8.7563  -16.4304   24.9318 O   0  0  0  0  0  0  0  0  0  0  0  0
    8.3077  -14.9119   23.2504 N   0  0  0  0  0  0  0  0  0  0  0  0
    7.8246  -13.5809   22.8694 C   0  0  0  0  0  0  0  0  0  0  0  0
    7.7113  -13.6882   21.3794 C   0  0  0  0  0  0  0  0  0  0  0  0
    8.4593  -14.9296   20.9549 C   0  0  0  0  0  0  0  0  0  0  0  0
    9.2439  -15.2787   22.2249 C   0  0  1  0  0  0  0  0  0  0  0  0
   10.4950  -14.4602   22.2840 C   0  0  0  0  0  0  0  0  0  0  0  0
   10.6168  -13.5081   23.0836 O   0  0  0  0  0  0  0  0  0  0  0  0
   11.5343  -14.7650   21.4360 O   0  0  0  0  0  0  0  0  0  0  0  0
  2  4  1  0
  2  1  1  0
  3  2  2  0
  5  4  1  0
  6  5  1  0
  6  7  1  6
  8  6  1  0
  9  8  2  0
 11 10  1  1
 11 12  1  0
 14 13  1  1
 13 11  1  0
 14 15  1  0
 15  8  1  0
 16 14  1  0
 17 16  2  0
 18 19  1  0
 18 16  1  0
 20 19  1  0
 21 20  1  0
 21 22  1  0
 22 18  1  0
 23 25  1  0
 22 23  1  1
 24 23  2  0
M  END
$$$$
