QLP.pdb
     RDKit          3D

 25 25  0  0  1  0  0  0  0  0999 V2000
    7.1168  -19.5279   23.2676 N   0  0  0  0  0  0  0  0  0  0  0  0
    8.4464  -19.4153   22.7651 C   0  0  0  0  0  0  0  0  0  0  0  0
    9.2790  -20.3314   23.0410 O   0  0  0  0  0  0  0  0  0  0  0  0
    8.8178  -18.2289   21.9332 C   0  0  0  0  0  0  0  0  0  0  0  0
    7.6469  -17.3026   21.9246 C   0  0  0  0  0  0  0  0  0  0  0  0
    8.0166  -15.8550   21.7952 C   0  0  2  0  0  0  0  0  0  0  0  0
    8.8458  -15.6435   20.6506 N   0  0  0  0  0  0  0  0  0  0  0  0
    8.6168  -15.2940   23.0131 C   0  0  0  0  0  0  0  0  0  0  0  0
    9.8474  -15.1178   23.1808 O   0  0  0  0  0  0  0  0  0  0  0  0
    5.4101  -12.0422   26.2901 C   0  0  0  0  0  0  0  0  0  0  0  0
    6.5777  -12.6362   25.5760 C   0  0  1  0  0  0  0  0  0  0  0  0
    7.6977  -11.5923   25.5505 C   0  0  0  0  0  0  0  0  0  0  0  0
    7.0831  -13.9376   26.1071 C   0  0  0  0  0  0  0  0  0  0  0  0
    8.2814  -14.5025   25.3917 C   0  0  2  0  0  0  0  0  0  0  0  0
    7.7631  -14.9218   24.0787 N   0  0  0  0  0  0  0  0  0  0  0  0
    8.9904  -15.5758   26.0681 C   0  0  0  0  0  0  0  0  0  0  0  0
    8.8882  -16.7406   25.5228 O   0  0  0  0  0  0  0  0  0  0  0  0
    9.7740  -15.4822   27.2450 N   0  0  0  0  0  0  0  0  0  0  0  0
    9.6329  -14.4309   28.2574 C   0  0  0  0  0  0  0  0  0  0  0  0
   11.0522  -14.1759   28.6641 C   0  0  0  0  0  0  0  0  0  0  0  0
   11.8881  -15.3181   28.1374 C   0  0  0  0  0  0  0  0  0  0  0  0
   10.8166  -16.3388   27.7368 C   0  0  1  0  0  0  0  0  0  0  0  0
   10.3873  -17.1161   28.9410 C   0  0  0  0  0  0  0  0  0  0  0  0
   11.1581  -17.9163   29.5123 O   0  0  0  0  0  0  0  0  0  0  0  0
    9.1125  -16.9444   29.4284 O   0  0  0  0  0  0  0  0  0  0  0  0
  2  4  1  0
  2  1  1  0
  3  2  2  0
  5  4  1  0
  6  5  1  0
  6  7  1  6
  8  6  1  0
  9  8  2  0
 11 10  1  1
 11 12  1  0
 14 13  1  1
 13 11  1  0
 14 15  1  0
 15  8  1  0
 16 14  1  0
 17 16  2  0
 18 19  1  0
 18 16  1  0
 20 19  1  0
 21 20  1  0
 21 22  1  0
 22 18  1  0
 23 25  1  0
 22 23  1  1
 24 23  2  0
M  END
$$$$
