QLP.pdb
     RDKit          3D

 25 25  0  0  1  0  0  0  0  0999 V2000
    8.5943  -12.8574   18.2935 N   0  0  0  0  0  0  0  0  0  0  0  0
    8.2662  -14.2420   18.2032 C   0  0  0  0  0  0  0  0  0  0  0  0
    7.1210  -14.5671   17.7659 O   0  0  0  0  0  0  0  0  0  0  0  0
    9.2749  -15.2634   18.6239 C   0  0  0  0  0  0  0  0  0  0  0  0
    9.8380  -14.8244   19.9352 C   0  0  0  0  0  0  0  0  0  0  0  0
    9.4496  -15.7006   21.0886 C   0  0  2  0  0  0  0  0  0  0  0  0
    8.1187  -16.1949   20.9247 N   0  0  0  0  0  0  0  0  0  0  0  0
    9.6348  -15.0599   22.3975 C   0  0  0  0  0  0  0  0  0  0  0  0
   10.7203  -14.5820   22.8059 O   0  0  0  0  0  0  0  0  0  0  0  0
    7.5462  -11.6763   26.3760 C   0  0  0  0  0  0  0  0  0  0  0  0
    7.1888  -13.1182   26.2382 C   0  0  1  0  0  0  0  0  0  0  0  0
    5.7541  -13.3003   26.7414 C   0  0  0  0  0  0  0  0  0  0  0  0
    7.3478  -13.7097   24.8758 C   0  0  0  0  0  0  0  0  0  0  0  0
    8.6410  -14.4437   24.6402 C   0  0  2  0  0  0  0  0  0  0  0  0
    8.5235  -14.9672   23.2689 N   0  0  0  0  0  0  0  0  0  0  0  0
    8.9756  -15.4855   25.5967 C   0  0  0  0  0  0  0  0  0  0  0  0
    8.7166  -16.6918   25.2191 O   0  0  0  0  0  0  0  0  0  0  0  0
    9.5503  -15.3223   26.8816 N   0  0  0  0  0  0  0  0  0  0  0  0
    9.1868  -14.2625   27.8275 C   0  0  0  0  0  0  0  0  0  0  0  0
   10.5040  -13.9143   28.4506 C   0  0  0  0  0  0  0  0  0  0  0  0
   11.4781  -15.0135   28.0986 C   0  0  0  0  0  0  0  0  0  0  0  0
   10.5458  -16.1047   27.5595 C   0  0  1  0  0  0  0  0  0  0  0  0
    9.9709  -16.8837   28.7003 C   0  0  0  0  0  0  0  0  0  0  0  0
   10.6914  -17.5811   29.4453 O   0  0  0  0  0  0  0  0  0  0  0  0
    8.6161  -16.8295   28.9316 O   0  0  0  0  0  0  0  0  0  0  0  0
  2  4  1  0
  2  1  1  0
  3  2  2  0
  5  4  1  0
  6  5  1  0
  6  7  1  6
  8  6  1  0
  9  8  2  0
 11 10  1  6
 11 12  1  0
 14 13  1  1
 13 11  1  0
 14 15  1  0
 15  8  1  0
 16 14  1  0
 17 16  2  0
 18 19  1  0
 18 16  1  0
 20 19  1  0
 21 20  1  0
 21 22  1  0
 22 18  1  0
 23 25  1  0
 22 23  1  1
 24 23  2  0
M  END
$$$$
