QLP.pdb
     RDKit          3D

 25 25  0  0  1  0  0  0  0  0999 V2000
    8.8620  -13.0824   18.2094 N   0  0  0  0  0  0  0  0  0  0  0  0
    7.7792  -14.0100   18.2223 C   0  0  0  0  0  0  0  0  0  0  0  0
    6.9715  -14.0136   17.2444 O   0  0  0  0  0  0  0  0  0  0  0  0
    7.6285  -14.9452   19.3801 C   0  0  0  0  0  0  0  0  0  0  0  0
    8.7759  -14.7034   20.3044 C   0  0  0  0  0  0  0  0  0  0  0  0
    8.7816  -15.5911   21.5130 C   0  0  2  0  0  0  0  0  0  0  0  0
    7.5732  -16.3501   21.5908 N   0  0  0  0  0  0  0  0  0  0  0  0
    9.0543  -14.8723   22.7649 C   0  0  0  0  0  0  0  0  0  0  0  0
   10.0193  -14.0896   22.9373 O   0  0  0  0  0  0  0  0  0  0  0  0
    5.2121  -12.7611   26.0881 C   0  0  0  0  0  0  0  0  0  0  0  0
    6.5198  -13.0714   25.4402 C   0  0  1  0  0  0  0  0  0  0  0  0
    7.4514  -11.8759   25.6583 C   0  0  0  0  0  0  0  0  0  0  0  0
    7.1827  -14.3401   25.8671 C   0  0  0  0  0  0  0  0  0  0  0  0
    8.5146  -14.6183   25.2227 C   0  0  2  0  0  0  0  0  0  0  0  0
    8.1790  -15.0646   23.8602 N   0  0  0  0  0  0  0  0  0  0  0  0
    9.3798  -15.5624   25.9100 C   0  0  0  0  0  0  0  0  0  0  0  0
    9.7516  -16.5841   25.2154 O   0  0  0  0  0  0  0  0  0  0  0  0
    9.8551  -15.4820   27.2425 N   0  0  0  0  0  0  0  0  0  0  0  0
    9.3051  -14.5924   28.2702 C   0  0  0  0  0  0  0  0  0  0  0  0
   10.5291  -14.1618   29.0192 C   0  0  0  0  0  0  0  0  0  0  0  0
   11.6550  -15.0856   28.6195 C   0  0  0  0  0  0  0  0  0  0  0  0
   10.9032  -16.2114   27.8999 C   0  0  1  0  0  0  0  0  0  0  0  0
   10.3699  -17.1827   28.9054 C   0  0  0  0  0  0  0  0  0  0  0  0
    9.1497  -17.2532   29.1638 O   0  0  0  0  0  0  0  0  0  0  0  0
   11.2464  -18.0163   29.5603 O   0  0  0  0  0  0  0  0  0  0  0  0
  2  4  1  0
  2  1  1  0
  3  2  2  0
  5  4  1  0
  6  5  1  0
  6  7  1  1
  8  6  1  0
  9  8  2  0
 11 10  1  1
 11 12  1  0
 14 13  1  1
 13 11  1  0
 14 15  1  0
 15  8  1  0
 16 14  1  0
 17 16  2  0
 18 19  1  0
 18 16  1  0
 20 19  1  0
 21 20  1  0
 21 22  1  0
 22 18  1  0
 23 25  1  0
 22 23  1  1
 24 23  2  0
M  END
$$$$
