QLP.pdb
     RDKit          3D

 25 25  0  0  1  0  0  0  0  0999 V2000
    9.2571  -20.8944   21.0576 N   0  0  0  0  0  0  0  0  0  0  0  0
    9.8321  -20.1069   22.0979 C   0  0  0  0  0  0  0  0  0  0  0  0
    9.9080  -20.6025   23.2629 O   0  0  0  0  0  0  0  0  0  0  0  0
   10.3256  -18.7294   21.7873 C   0  0  0  0  0  0  0  0  0  0  0  0
    9.1297  -17.8498   21.6278 C   0  0  0  0  0  0  0  0  0  0  0  0
    9.4626  -16.4097   21.3744 C   0  0  2  0  0  0  0  0  0  0  0  0
   10.5704  -16.2949   20.4790 N   0  0  0  0  0  0  0  0  0  0  0  0
    9.6739  -15.6337   22.6039 C   0  0  0  0  0  0  0  0  0  0  0  0
   10.7990  -15.2992   23.0466 O   0  0  0  0  0  0  0  0  0  0  0  0
    7.6420  -11.6750   26.0431 C   0  0  0  0  0  0  0  0  0  0  0  0
    7.2105  -13.1007   26.1287 C   0  0  1  0  0  0  0  0  0  0  0  0
    5.7716  -13.1290   26.6516 C   0  0  0  0  0  0  0  0  0  0  0  0
    7.3306  -13.9025   24.8741 C   0  0  0  0  0  0  0  0  0  0  0  0
    8.6613  -14.5752   24.6656 C   0  0  2  0  0  0  0  0  0  0  0  0
    8.5426  -15.2280   23.3511 N   0  0  0  0  0  0  0  0  0  0  0  0
    9.0848  -15.5032   25.7009 C   0  0  0  0  0  0  0  0  0  0  0  0
    8.9431  -16.7542   25.4189 O   0  0  0  0  0  0  0  0  0  0  0  0
    9.6318  -15.1869   26.9693 N   0  0  0  0  0  0  0  0  0  0  0  0
    9.2874  -13.9946   27.7503 C   0  0  0  0  0  0  0  0  0  0  0  0
   10.6011  -13.6135   28.3617 C   0  0  0  0  0  0  0  0  0  0  0  0
   11.5379  -14.7860   28.1935 C   0  0  0  0  0  0  0  0  0  0  0  0
   10.5760  -15.9054   27.7784 C   0  0  1  0  0  0  0  0  0  0  0  0
    9.9397  -16.4987   28.9957 C   0  0  0  0  0  0  0  0  0  0  0  0
    8.7315  -16.3176   29.2566 O   0  0  0  0  0  0  0  0  0  0  0  0
   10.7060  -17.2606   29.8469 O   0  0  0  0  0  0  0  0  0  0  0  0
  2  4  1  0
  2  1  1  0
  3  2  2  0
  5  4  1  0
  6  5  1  0
  6  7  1  6
  8  6  1  0
  9  8  2  0
 11 10  1  6
 11 12  1  0
 14 13  1  1
 13 11  1  0
 14 15  1  0
 15  8  1  0
 16 14  1  0
 17 16  2  0
 18 19  1  0
 18 16  1  0
 20 19  1  0
 21 20  1  0
 21 22  1  0
 22 18  1  0
 23 25  1  0
 22 23  1  1
 24 23  2  0
M  END
$$$$
