QLP.pdb
     RDKit          3D

 25 25  0  0  1  0  0  0  0  0999 V2000
    8.1661  -19.7844   21.7811 N   0  0  0  0  0  0  0  0  0  0  0  0
    9.4593  -19.2287   21.5539 C   0  0  0  0  0  0  0  0  0  0  0  0
   10.4475  -20.0162   21.4442 O   0  0  0  0  0  0  0  0  0  0  0  0
    9.6120  -17.7442   21.4521 C   0  0  0  0  0  0  0  0  0  0  0  0
    8.2604  -17.1398   21.6453 C   0  0  0  0  0  0  0  0  0  0  0  0
    8.2550  -15.6404   21.6226 C   0  0  2  0  0  0  0  0  0  0  0  0
    8.9309  -15.1480   20.4637 N   0  0  0  0  0  0  0  0  0  0  0  0
    8.7773  -15.0354   22.8553 C   0  0  0  0  0  0  0  0  0  0  0  0
    9.9568  -14.6352   23.0042 O   0  0  0  0  0  0  0  0  0  0  0  0
    5.1950  -12.3712   26.0923 C   0  0  0  0  0  0  0  0  0  0  0  0
    6.4451  -12.8163   25.4103 C   0  0  1  0  0  0  0  0  0  0  0  0
    7.3988  -11.6202   25.3429 C   0  0  0  0  0  0  0  0  0  0  0  0
    7.1315  -14.0042   26.0010 C   0  0  0  0  0  0  0  0  0  0  0  0
    8.3775  -14.4500   25.2831 C   0  0  2  0  0  0  0  0  0  0  0  0
    7.9039  -14.8865   23.9589 N   0  0  0  0  0  0  0  0  0  0  0  0
    9.1727  -15.4715   25.9437 C   0  0  0  0  0  0  0  0  0  0  0  0
    9.3217  -16.5721   25.2869 O   0  0  0  0  0  0  0  0  0  0  0  0
    9.7962  -15.3899   27.2135 N   0  0  0  0  0  0  0  0  0  0  0  0
    9.3981  -14.4636   28.2782 C   0  0  0  0  0  0  0  0  0  0  0  0
   10.7133  -14.0707   28.8786 C   0  0  0  0  0  0  0  0  0  0  0  0
   11.7519  -15.0444   28.3747 C   0  0  0  0  0  0  0  0  0  0  0  0
   10.8826  -16.1503   27.7650 C   0  0  1  0  0  0  0  0  0  0  0  0
   10.4283  -17.0842   28.8421 C   0  0  0  0  0  0  0  0  0  0  0  0
    9.2389  -17.1145   29.2230 O   0  0  0  0  0  0  0  0  0  0  0  0
   11.3444  -17.9280   29.4259 O   0  0  0  0  0  0  0  0  0  0  0  0
  2  4  1  0
  2  1  1  0
  3  2  2  0
  5  4  1  0
  6  5  1  0
  6  7  1  6
  8  6  1  0
  9  8  2  0
 11 10  1  1
 11 12  1  0
 14 13  1  1
 13 11  1  0
 14 15  1  0
 15  8  1  0
 16 14  1  0
 17 16  2  0
 18 19  1  0
 18 16  1  0
 20 19  1  0
 21 20  1  0
 21 22  1  0
 22 18  1  0
 23 25  1  0
 22 23  1  1
 24 23  2  0
M  END
$$$$
