QLP.pdb
     RDKit          3D

 25 25  0  0  1  0  0  0  0  0999 V2000
   10.4767  -20.4091   22.7005 N   0  0  0  0  0  0  0  0  0  0  0  0
   10.5458  -20.1740   21.2959 C   0  0  0  0  0  0  0  0  0  0  0  0
   10.8685  -21.1358   20.5347 O   0  0  0  0  0  0  0  0  0  0  0  0
   10.2380  -18.8099   20.7648 C   0  0  0  0  0  0  0  0  0  0  0  0
    9.7930  -17.9700   21.9163 C   0  0  0  0  0  0  0  0  0  0  0  0
    9.3556  -16.5888   21.5292 C   0  0  2  0  0  0  0  0  0  0  0  0
    9.9831  -16.1802   20.3120 N   0  0  0  0  0  0  0  0  0  0  0  0
    9.5407  -15.5965   22.5967 C   0  0  0  0  0  0  0  0  0  0  0  0
   10.6295  -15.0310   22.8580 O   0  0  0  0  0  0  0  0  0  0  0  0
    7.5801  -11.7368   25.9899 C   0  0  0  0  0  0  0  0  0  0  0  0
    7.1326  -13.1442   26.2017 C   0  0  1  0  0  0  0  0  0  0  0  0
    5.7092  -13.1084   26.7649 C   0  0  0  0  0  0  0  0  0  0  0  0
    7.2058  -14.0455   25.0128 C   0  0  0  0  0  0  0  0  0  0  0  0
    8.5718  -14.6018   24.7105 C   0  0  2  0  0  0  0  0  0  0  0  0
    8.4255  -15.2434   23.3932 N   0  0  0  0  0  0  0  0  0  0  0  0
    9.1341  -15.5058   25.6999 C   0  0  0  0  0  0  0  0  0  0  0  0
    9.1513  -16.7526   25.3684 O   0  0  0  0  0  0  0  0  0  0  0  0
    9.6611  -15.1702   26.9717 N   0  0  0  0  0  0  0  0  0  0  0  0
    9.2516  -14.0043   27.7610 C   0  0  0  0  0  0  0  0  0  0  0  0
   10.5417  -13.5576   28.3780 C   0  0  0  0  0  0  0  0  0  0  0  0
   11.5407  -14.6765   28.2029 C   0  0  0  0  0  0  0  0  0  0  0  0
   10.6414  -15.8430   27.7774 C   0  0  1  0  0  0  0  0  0  0  0  0
   10.0360  -16.4790   28.9888 C   0  0  0  0  0  0  0  0  0  0  0  0
   10.7372  -17.0700   29.8371 O   0  0  0  0  0  0  0  0  0  0  0  0
    8.6741  -16.4108   29.1700 O   0  0  0  0  0  0  0  0  0  0  0  0
  2  4  1  0
  2  1  1  0
  3  2  2  0
  5  4  1  0
  6  5  1  0
  6  7  1  6
  8  6  1  0
  9  8  2  0
 11 10  1  6
 11 12  1  0
 14 13  1  1
 13 11  1  0
 14 15  1  0
 15  8  1  0
 16 14  1  0
 17 16  2  0
 18 19  1  0
 18 16  1  0
 20 19  1  0
 21 20  1  0
 21 22  1  0
 22 18  1  0
 23 25  1  0
 22 23  1  1
 24 23  2  0
M  END
$$$$
