RHY.pdb
     RDKit          3D

 34 35  0  0  1  0  0  0  0  0999 V2000
   27.3694  -18.3808  -21.0640 N   0  0  0  0  0  0  0  0  0  0  0  0
   28.0697  -19.6007  -21.2346 C   0  0  0  0  0  0  0  0  0  0  0  0
   29.3129  -19.5391  -21.6017 N   0  0  0  0  0  0  0  0  0  0  0  0
   27.4667  -20.8656  -21.0280 N   0  0  0  0  0  0  0  0  0  0  0  0
   26.1507  -21.0439  -20.4751 C   0  0  0  0  0  0  0  0  0  0  0  0
   25.7524  -20.0656  -19.4353 C   0  0  0  0  0  0  0  0  0  0  0  0
   25.1781  -20.5411  -18.1687 C   0  0  0  0  0  0  0  0  0  0  0  0
   26.0603  -21.3035  -17.2486 C   0  0  2  0  0  0  0  0  0  0  0  0
   26.6502  -22.4994  -17.6975 N   0  0  0  0  0  0  0  0  0  0  0  0
   25.3712  -21.5860  -15.9368 C   0  0  0  0  0  0  0  0  0  0  0  0
   24.5128  -22.4901  -15.8595 O   0  0  0  0  0  0  0  0  0  0  0  0
   29.8302  -20.3868  -21.8613 N   0  0  0  0  0  0  0  0  0  0  0  0
   25.7052  -20.8195  -14.8045 C   0  0  1  0  0  0  0  0  0  0  0  0
   25.0448  -21.1171  -13.4964 C   0  0  0  0  0  0  0  0  0  0  0  0
   25.9360  -20.6450  -12.4026 C   0  0  0  0  0  0  0  0  0  0  0  0
   25.4250  -20.8206  -11.0446 C   0  0  0  0  0  0  0  0  0  0  0  0
   24.2169  -21.3957  -10.7121 N   0  0  0  0  0  0  0  0  0  0  0  0
   24.1018  -21.3844   -9.3809 C   0  0  0  0  0  0  0  0  0  0  0  0
   25.1955  -20.8228   -8.8767 N   0  0  0  0  0  0  0  0  0  0  0  0
   26.0156  -20.4727   -9.8952 C   0  0  0  0  0  0  0  0  0  0  0  0
   23.7617  -20.4162  -13.5006 O   0  0  0  0  0  0  0  0  0  0  0  0
   23.7058  -19.1557  -13.7425 O   0  0  0  0  0  0  0  0  0  0  0  0
   22.1743  -17.0411  -18.6745 C   0  0  0  0  0  0  0  0  0  0  0  0
   21.7690  -17.8502  -17.6503 C   0  0  0  0  0  0  0  0  0  0  0  0
   22.3012  -19.1280  -17.5233 C   0  0  0  0  0  0  0  0  0  0  0  0
   21.9059  -19.9618  -16.4959 C   0  0  0  0  0  0  0  0  0  0  0  0
   20.9599  -19.5379  -15.5595 C   0  0  0  0  0  0  0  0  0  0  0  0
   20.5098  -20.4145  -14.4472 C   0  0  2  0  0  0  0  0  0  0  0  0
   21.2933  -20.1712  -13.1616 N   0  0  0  0  0  0  0  0  0  0  0  0
   22.4921  -21.0109  -13.2608 C   0  0  0  0  0  0  0  0  0  0  0  0
   20.4954  -20.5516  -12.0075 O   0  0  0  0  0  0  0  0  0  0  0  0
   19.3746  -19.8321  -11.6418 C   0  0  0  0  0  0  0  0  0  0  0  0
   20.4388  -18.2748  -15.6906 C   0  0  0  0  0  0  0  0  0  0  0  0
   20.8486  -17.4684  -16.7190 O   0  0  0  0  0  0  0  0  0  0  0  0
  1  2  1  0
  2  3  2  0
  4  2  1  0
  4  5  1  0
  6  7  1  0
  6  5  1  0
  8  9  1  6
  8  7  1  0
 10  8  1  0
 11 10  2  0
 12 10  1  0
 13 12  1  0
 13 14  1  1
 15 14  1  0
 16 15  2  0
 17 16  1  0
 18 17  1  0
 18 19  2  0
 19 15  1  0
 20 13  1  0
 20 29  1  0
 21 20  2  0
 22 23  1  0
 23 33  2  0
 24 25  2  0
 24 23  1  0
 25 26  1  0
 26 27  1  0
 26 32  2  0
 28 27  1  6
 28 30  1  0
 28 29  1  0
 30 31  1  0
 33 32  1  0
 34 30  2  0
M  END
$$$$
