RHY.pdb
     RDKit          3D

 34 35  0  0  1  0  0  0  0  0999 V2000
   28.9222  -27.9617  -16.1976 N   0  0  0  0  0  0  0  0  0  0  0  0
   27.7310  -27.9027  -16.9626 C   0  0  0  0  0  0  0  0  0  0  0  0
   27.5364  -28.8268  -17.8527 N   0  0  0  0  0  0  0  0  0  0  0  0
   26.7636  -26.8815  -16.7965 N   0  0  0  0  0  0  0  0  0  0  0  0
   27.0741  -25.5507  -16.3472 C   0  0  0  0  0  0  0  0  0  0  0  0
   28.1423  -24.8510  -17.0999 C   0  0  0  0  0  0  0  0  0  0  0  0
   28.5902  -23.5211  -16.6634 C   0  0  0  0  0  0  0  0  0  0  0  0
   27.8494  -22.3374  -17.1697 C   0  0  2  0  0  0  0  0  0  0  0  0
   28.5378  -21.3665  -17.9200 N   0  0  0  0  0  0  0  0  0  0  0  0
   27.1145  -21.6332  -16.0564 C   0  0  0  0  0  0  0  0  0  0  0  0
   26.6983  -22.2782  -15.0711 O   0  0  0  0  0  0  0  0  0  0  0  0
   26.6946  -28.8265  -18.4399 N   0  0  0  0  0  0  0  0  0  0  0  0
   26.9025  -20.2443  -16.1421 C   0  0  1  0  0  0  0  0  0  0  0  0
   26.1404  -19.5504  -15.0588 C   0  0  0  0  0  0  0  0  0  0  0  0
   26.8436  -18.2814  -14.7291 C   0  0  0  0  0  0  0  0  0  0  0  0
   27.5479  -17.6377  -15.8363 C   0  0  0  0  0  0  0  0  0  0  0  0
   27.7295  -18.1781  -17.0916 N   0  0  0  0  0  0  0  0  0  0  0  0
   28.4118  -17.2979  -17.8299 C   0  0  0  0  0  0  0  0  0  0  0  0
   28.6595  -16.2314  -17.0769 N   0  0  0  0  0  0  0  0  0  0  0  0
   28.1305  -16.4329  -15.8473 C   0  0  0  0  0  0  0  0  0  0  0  0
   24.7927  -19.3138  -15.5738 O   0  0  0  0  0  0  0  0  0  0  0  0
   24.5922  -19.1553  -16.8329 O   0  0  0  0  0  0  0  0  0  0  0  0
   20.8264  -24.9266  -13.7025 C   0  0  0  0  0  0  0  0  0  0  0  0
   21.1200  -23.7618  -14.3544 C   0  0  0  0  0  0  0  0  0  0  0  0
   22.4129  -23.5276  -14.8082 C   0  0  0  0  0  0  0  0  0  0  0  0
   22.7312  -22.3576  -15.4692 C   0  0  0  0  0  0  0  0  0  0  0  0
   21.7581  -21.3815  -15.6965 C   0  0  0  0  0  0  0  0  0  0  0  0
   22.0717  -20.1100  -16.3988 C   0  0  1  0  0  0  0  0  0  0  0  0
   22.3188  -18.9572  -15.4314 N   0  0  0  0  0  0  0  0  0  0  0  0
   23.6073  -19.2436  -14.7911 C   0  0  0  0  0  0  0  0  0  0  0  0
   21.2567  -18.8964  -14.4406 O   0  0  0  0  0  0  0  0  0  0  0  0
   21.5169  -19.0869  -13.0976 C   0  0  0  0  0  0  0  0  0  0  0  0
   20.4835  -21.6194  -15.2461 C   0  0  0  0  0  0  0  0  0  0  0  0
   20.1950  -22.7884  -14.5935 O   0  0  0  0  0  0  0  0  0  0  0  0
  1  2  1  0
  2  3  2  0
  4  2  1  0
  4  5  1  0
  6  7  1  0
  6  5  1  0
  8  9  1  1
  8  7  1  0
 10  8  1  0
 11 10  2  0
 12 10  1  0
 13 12  1  0
 13 14  1  1
 15 14  1  0
 16 15  2  0
 17 16  1  0
 18 17  1  0
 18 19  2  0
 19 15  1  0
 20 13  1  0
 20 29  1  0
 21 20  2  0
 22 23  1  0
 23 33  2  0
 24 25  2  0
 24 23  1  0
 25 26  1  0
 26 27  1  0
 26 32  2  0
 28 27  1  6
 28 30  1  0
 28 29  1  0
 30 31  1  0
 33 32  1  0
 34 30  2  0
M  END
$$$$
