RHY.pdb
     RDKit          3D

 34 35  0  0  1  0  0  0  0  0999 V2000
   40.7057   -9.7599  -12.1338 N   0  0  0  0  0  0  0  0  0  0  0  0
   40.8011  -11.1239  -11.7623 C   0  0  0  0  0  0  0  0  0  0  0  0
   40.0089  -11.9682  -12.3485 N   0  0  0  0  0  0  0  0  0  0  0  0
   41.7127  -11.5893  -10.7831 N   0  0  0  0  0  0  0  0  0  0  0  0
   42.6930  -10.7546  -10.1416 C   0  0  0  0  0  0  0  0  0  0  0  0
   43.6765  -11.4598   -9.2857 C   0  0  0  0  0  0  0  0  0  0  0  0
   44.6341  -10.6845   -8.4847 C   0  0  0  0  0  0  0  0  0  0  0  0
   44.5878  -10.8357   -7.0078 C   0  0  2  0  0  0  0  0  0  0  0  0
   44.4650  -12.1230   -6.4535 N   0  0  0  0  0  0  0  0  0  0  0  0
   43.5193   -9.9614   -6.4002 C   0  0  0  0  0  0  0  0  0  0  0  0
   42.5289  -10.4764   -5.8399 O   0  0  0  0  0  0  0  0  0  0  0  0
   39.9360  -12.9388  -12.0228 N   0  0  0  0  0  0  0  0  0  0  0  0
   43.6506   -8.5619   -6.4738 C   0  0  2  0  0  0  0  0  0  0  0  0
   42.7269   -7.6956   -5.6787 C   0  0  0  0  0  0  0  0  0  0  0  0
   43.5039   -6.5423   -5.1498 C   0  0  0  0  0  0  0  0  0  0  0  0
   42.7685   -5.6226   -4.2842 C   0  0  0  0  0  0  0  0  0  0  0  0
   41.4566   -5.7729   -3.8875 N   0  0  0  0  0  0  0  0  0  0  0  0
   41.1381   -4.7414   -3.1002 C   0  0  0  0  0  0  0  0  0  0  0  0
   42.2057   -3.9572   -2.9949 N   0  0  0  0  0  0  0  0  0  0  0  0
   43.2143   -4.4932   -3.7214 C   0  0  0  0  0  0  0  0  0  0  0  0
   41.6606   -7.2706   -6.5842 O   0  0  0  0  0  0  0  0  0  0  0  0
   41.8785   -7.1614   -7.8456 O   0  0  0  0  0  0  0  0  0  0  0  0
   38.4212  -12.7755   -8.4594 C   0  0  0  0  0  0  0  0  0  0  0  0
   38.3367  -11.4671   -8.0737 C   0  0  0  0  0  0  0  0  0  0  0  0
   38.2782  -10.4632   -9.0333 C   0  0  0  0  0  0  0  0  0  0  0  0
   38.1923   -9.1348   -8.6655 C   0  0  0  0  0  0  0  0  0  0  0  0
   38.1625   -8.7705   -7.3173 C   0  0  0  0  0  0  0  0  0  0  0  0
   38.0773   -7.3495   -6.8906 C   0  0  2  0  0  0  0  0  0  0  0  0
   39.3438   -6.5665   -7.2202 N   0  0  0  0  0  0  0  0  0  0  0  0
   40.3275   -6.9536   -6.2030 C   0  0  0  0  0  0  0  0  0  0  0  0
   39.0808   -5.1379   -7.1611 O   0  0  0  0  0  0  0  0  0  0  0  0
   38.3231   -4.5076   -8.1286 C   0  0  0  0  0  0  0  0  0  0  0  0
   38.2202   -9.7668   -6.3749 C   0  0  0  0  0  0  0  0  0  0  0  0
   38.3049  -11.0762   -6.7673 O   0  0  0  0  0  0  0  0  0  0  0  0
  1  2  1  0
  2  3  2  0
  4  2  1  0
  4  5  1  0
  6  7  1  0
  6  5  1  0
  8  9  1  6
  8  7  1  0
 10  8  1  0
 11 10  2  0
 12 10  1  0
 13 12  1  0
 13 14  1  6
 15 14  1  0
 16 15  2  0
 17 16  1  0
 18 17  1  0
 18 19  2  0
 19 15  1  0
 20 13  1  0
 20 29  1  0
 21 20  2  0
 22 23  1  0
 23 33  2  0
 24 25  2  0
 24 23  1  0
 25 26  1  0
 26 27  1  0
 26 32  2  0
 28 27  1  6
 28 30  1  0
 28 29  1  0
 30 31  1  0
 33 32  1  0
 34 30  2  0
M  END
$$$$
