RHY.pdb
     RDKit          3D

 34 35  0  0  1  0  0  0  0  0999 V2000
   19.1514  -17.6062  -17.8980 N   0  0  0  0  0  0  0  0  0  0  0  0
   19.3644  -18.9837  -17.6434 C   0  0  0  0  0  0  0  0  0  0  0  0
   18.3243  -19.7254  -17.4151 N   0  0  0  0  0  0  0  0  0  0  0  0
   20.6543  -19.5685  -17.6229 N   0  0  0  0  0  0  0  0  0  0  0  0
   21.8221  -18.9505  -18.1917 C   0  0  0  0  0  0  0  0  0  0  0  0
   22.0138  -19.1559  -19.6470 C   0  0  0  0  0  0  0  0  0  0  0  0
   23.2128  -18.6206  -20.3072 C   0  0  0  0  0  0  0  0  0  0  0  0
   24.5250  -19.2241  -19.9604 C   0  0  2  0  0  0  0  0  0  0  0  0
   24.5782  -20.2364  -18.9847 N   0  0  0  0  0  0  0  0  0  0  0  0
   25.5349  -18.1660  -19.5916 C   0  0  0  0  0  0  0  0  0  0  0  0
   25.6612  -17.8047  -18.4027 O   0  0  0  0  0  0  0  0  0  0  0  0
   18.4243  -20.7221  -17.1918 N   0  0  0  0  0  0  0  0  0  0  0  0
   26.3298  -17.5913  -20.6011 C   0  0  1  0  0  0  0  0  0  0  0  0
   27.2613  -16.4742  -20.2544 C   0  0  0  0  0  0  0  0  0  0  0  0
   28.5881  -16.7638  -20.8622 C   0  0  0  0  0  0  0  0  0  0  0  0
   29.6314  -15.7702  -20.6163 C   0  0  0  0  0  0  0  0  0  0  0  0
   29.4832  -14.6228  -19.8664 N   0  0  0  0  0  0  0  0  0  0  0  0
   30.6501  -13.9718  -19.8650 C   0  0  0  0  0  0  0  0  0  0  0  0
   31.5160  -14.6749  -20.5874 N   0  0  0  0  0  0  0  0  0  0  0  0
   30.8961  -15.7842  -21.0536 C   0  0  0  0  0  0  0  0  0  0  0  0
   26.6690  -15.2481  -20.7867 O   0  0  0  0  0  0  0  0  0  0  0  0
   26.1485  -15.2296  -21.9611 O   0  0  0  0  0  0  0  0  0  0  0  0
   19.7125  -14.4930  -20.0615 C   0  0  0  0  0  0  0  0  0  0  0  0
   20.9748  -13.9814  -19.9487 C   0  0  0  0  0  0  0  0  0  0  0  0
   21.3359  -12.8572  -20.6821 C   0  0  0  0  0  0  0  0  0  0  0  0
   22.6059  -12.3239  -20.5829 C   0  0  0  0  0  0  0  0  0  0  0  0
   23.5577  -12.9044  -19.7412 C   0  0  0  0  0  0  0  0  0  0  0  0
   24.9339  -12.3574  -19.6184 C   0  0  2  0  0  0  0  0  0  0  0  0
   25.8659  -12.8783  -20.7075 N   0  0  0  0  0  0  0  0  0  0  0  0
   26.5927  -14.0017  -20.1060 C   0  0  0  0  0  0  0  0  0  0  0  0
   26.7885  -11.8337  -21.1210 O   0  0  0  0  0  0  0  0  0  0  0  0
   26.4098  -10.8577  -22.0218 C   0  0  0  0  0  0  0  0  0  0  0  0
   23.1943  -14.0140  -19.0195 C   0  0  0  0  0  0  0  0  0  0  0  0
   21.9279  -14.5223  -19.1366 O   0  0  0  0  0  0  0  0  0  0  0  0
  1  2  1  0
  2  3  2  0
  4  2  1  0
  4  5  1  0
  6  7  1  0
  6  5  1  0
  8  9  1  1
  8  7  1  0
 10  8  1  0
 11 10  2  0
 12 10  1  0
 13 12  1  0
 13 14  1  1
 15 14  1  0
 16 15  2  0
 17 16  1  0
 18 17  1  0
 18 19  2  0
 19 15  1  0
 20 13  1  0
 20 29  1  0
 21 20  2  0
 22 23  1  0
 23 33  2  0
 24 25  2  0
 24 23  1  0
 25 26  1  0
 26 27  1  0
 26 32  2  0
 28 27  1  6
 28 30  1  0
 28 29  1  0
 30 31  1  0
 33 32  1  0
 34 30  2  0
M  END
$$$$
