RHY.pdb
     RDKit          3D

 34 35  0  0  1  0  0  0  0  0999 V2000
   19.6959  -15.6940  -23.2048 N   0  0  0  0  0  0  0  0  0  0  0  0
   20.7364  -14.7594  -23.4319 C   0  0  0  0  0  0  0  0  0  0  0  0
   21.8479  -15.2010  -23.9353 N   0  0  0  0  0  0  0  0  0  0  0  0
   20.6092  -13.3822  -23.1264 N   0  0  0  0  0  0  0  0  0  0  0  0
   19.4620  -12.8098  -22.4741 C   0  0  0  0  0  0  0  0  0  0  0  0
   19.5842  -12.6188  -21.0093 C   0  0  0  0  0  0  0  0  0  0  0  0
   19.5532  -11.2617  -20.4460 C   0  0  0  0  0  0  0  0  0  0  0  0
   20.6172  -10.8857  -19.4802 C   0  0  2  0  0  0  0  0  0  0  0  0
   21.3584  -11.9000  -18.8468 N   0  0  0  0  0  0  0  0  0  0  0  0
   20.0876   -9.9589  -18.4143 C   0  0  0  0  0  0  0  0  0  0  0  0
   19.1999   -9.1249  -18.6908 O   0  0  0  0  0  0  0  0  0  0  0  0
   22.6596  -14.5831  -24.0482 N   0  0  0  0  0  0  0  0  0  0  0  0
   20.6058  -10.0441  -17.1084 C   0  0  1  0  0  0  0  0  0  0  0  0
   20.0087   -9.2029  -16.0260 C   0  0  0  0  0  0  0  0  0  0  0  0
   19.9230  -10.0230  -14.7875 C   0  0  0  0  0  0  0  0  0  0  0  0
   18.8522  -11.0172  -14.7553 C   0  0  0  0  0  0  0  0  0  0  0  0
   17.5169  -10.7488  -14.5417 N   0  0  0  0  0  0  0  0  0  0  0  0
   16.8465  -11.9037  -14.5882 C   0  0  0  0  0  0  0  0  0  0  0  0
   17.7189  -12.8783  -14.8230 N   0  0  0  0  0  0  0  0  0  0  0  0
   18.9566  -12.3403  -14.9272 C   0  0  0  0  0  0  0  0  0  0  0  0
   20.8846   -8.0444  -15.8581 O   0  0  0  0  0  0  0  0  0  0  0  0
   22.0540   -8.1778  -15.3431 O   0  0  0  0  0  0  0  0  0  0  0  0
   24.3679    0.0919  -16.1468 C   0  0  0  0  0  0  0  0  0  0  0  0
   23.5507   -0.9956  -16.2790 C   0  0  0  0  0  0  0  0  0  0  0  0
   22.2255   -0.9220  -15.8659 C   0  0  0  0  0  0  0  0  0  0  0  0
   21.3826   -2.0088  -15.9906 C   0  0  0  0  0  0  0  0  0  0  0  0
   21.8449   -3.2088  -16.5361 C   0  0  0  0  0  0  0  0  0  0  0  0
   20.9638   -4.3972  -16.6770 C   0  0  2  0  0  0  0  0  0  0  0  0
   21.5361   -5.6305  -15.9860 N   0  0  0  0  0  0  0  0  0  0  0  0
   20.5712   -6.7081  -16.2310 C   0  0  0  0  0  0  0  0  0  0  0  0
   21.6800   -5.3860  -14.5602 O   0  0  0  0  0  0  0  0  0  0  0  0
   20.6034   -5.4938  -13.7018 C   0  0  0  0  0  0  0  0  0  0  0  0
   23.1543   -3.2745  -16.9424 C   0  0  0  0  0  0  0  0  0  0  0  0
   23.9686   -2.1816  -16.8073 O   0  0  0  0  0  0  0  0  0  0  0  0
  1  2  1  0
  2  3  2  0
  4  2  1  0
  4  5  1  0
  6  7  1  0
  6  5  1  0
  8  9  1  1
  8  7  1  0
 10  8  1  0
 11 10  2  0
 12 10  1  0
 13 12  1  0
 13 14  1  6
 15 14  1  0
 16 15  2  0
 17 16  1  0
 18 17  1  0
 18 19  2  0
 19 15  1  0
 20 13  1  0
 20 29  1  0
 21 20  2  0
 22 23  1  0
 23 33  2  0
 24 25  2  0
 24 23  1  0
 25 26  1  0
 26 27  1  0
 26 32  2  0
 28 27  1  6
 28 30  1  0
 28 29  1  0
 30 31  1  0
 33 32  1  0
 34 30  2  0
M  END
$$$$
