RHY.pdb
     RDKit          3D

 34 35  0  0  1  0  0  0  0  0999 V2000
   17.4129  -16.4056  -14.6110 N   0  0  0  0  0  0  0  0  0  0  0  0
   18.2430  -15.6836  -15.5039 C   0  0  0  0  0  0  0  0  0  0  0  0
   18.1631  -14.3884  -15.4920 N   0  0  0  0  0  0  0  0  0  0  0  0
   19.1383  -16.3176  -16.3999 N   0  0  0  0  0  0  0  0  0  0  0  0
   19.1771  -17.7385  -16.6206 C   0  0  0  0  0  0  0  0  0  0  0  0
   19.4592  -18.5673  -15.4246 C   0  0  0  0  0  0  0  0  0  0  0  0
   20.7136  -19.3289  -15.3447 C   0  0  0  0  0  0  0  0  0  0  0  0
   20.8929  -20.4723  -16.2757 C   0  0  2  0  0  0  0  0  0  0  0  0
   20.5744  -21.7706  -15.8369 N   0  0  0  0  0  0  0  0  0  0  0  0
   22.2889  -20.5012  -16.8463 C   0  0  0  0  0  0  0  0  0  0  0  0
   23.2523  -20.8532  -16.1336 O   0  0  0  0  0  0  0  0  0  0  0  0
   18.7296  -13.8178  -16.1299 N   0  0  0  0  0  0  0  0  0  0  0  0
   22.4923  -20.1260  -18.1877 C   0  0  2  0  0  0  0  0  0  0  0  0
   23.8634  -20.2221  -18.7764 C   0  0  0  0  0  0  0  0  0  0  0  0
   23.7456  -20.1346  -20.2570 C   0  0  0  0  0  0  0  0  0  0  0  0
   25.0060  -20.1358  -20.9969 C   0  0  0  0  0  0  0  0  0  0  0  0
   26.2554  -20.3360  -20.4495 N   0  0  0  0  0  0  0  0  0  0  0  0
   27.1572  -20.2718  -21.4335 C   0  0  0  0  0  0  0  0  0  0  0  0
   26.5111  -20.0388  -22.5711 N   0  0  0  0  0  0  0  0  0  0  0  0
   25.1855  -19.9537  -22.3106 C   0  0  0  0  0  0  0  0  0  0  0  0
   24.6414  -19.1159  -18.2208 O   0  0  0  0  0  0  0  0  0  0  0  0
   24.0728  -18.0052  -17.9152 O   0  0  0  0  0  0  0  0  0  0  0  0
   28.5908  -22.2331  -12.8713 C   0  0  0  0  0  0  0  0  0  0  0  0
   28.0099  -21.2225  -13.5849 C   0  0  0  0  0  0  0  0  0  0  0  0
   26.6453  -21.2542  -13.8477 C   0  0  0  0  0  0  0  0  0  0  0  0
   26.0382  -20.2434  -14.5667 C   0  0  0  0  0  0  0  0  0  0  0  0
   26.7844  -19.1645  -15.0467 C   0  0  0  0  0  0  0  0  0  0  0  0
   26.1607  -18.0655  -15.8288 C   0  0  1  0  0  0  0  0  0  0  0  0
   26.6733  -18.0098  -17.2640 N   0  0  0  0  0  0  0  0  0  0  0  0
   26.0389  -19.1362  -17.9576 C   0  0  0  0  0  0  0  0  0  0  0  0
   28.1206  -18.1442  -17.2860 O   0  0  0  0  0  0  0  0  0  0  0  0
   28.9445  -17.0803  -16.9745 C   0  0  0  0  0  0  0  0  0  0  0  0
   28.1312  -19.1393  -14.7831 C   0  0  0  0  0  0  0  0  0  0  0  0
   28.7079  -20.1547  -14.0676 O   0  0  0  0  0  0  0  0  0  0  0  0
  1  2  1  0
  2  3  2  0
  4  2  1  0
  4  5  1  0
  6  7  1  0
  6  5  1  0
  8  9  1  1
  8  7  1  0
 10  8  1  0
 11 10  2  0
 12 10  1  0
 13 12  1  0
 13 14  1  6
 15 14  1  0
 16 15  2  0
 17 16  1  0
 18 17  1  0
 18 19  2  0
 19 15  1  0
 20 13  1  0
 20 29  1  0
 21 20  2  0
 22 23  1  0
 23 33  2  0
 24 25  2  0
 24 23  1  0
 25 26  1  0
 26 27  1  0
 26 32  2  0
 28 27  1  6
 28 30  1  0
 28 29  1  0
 30 31  1  0
 33 32  1  0
 34 30  2  0
M  END
$$$$
