RHY.pdb
     RDKit          3D

 34 35  0  0  1  0  0  0  0  0999 V2000
   46.4884  -11.9066   -4.9189 N   0  0  0  0  0  0  0  0  0  0  0  0
   46.3298  -12.5057   -6.1931 C   0  0  0  0  0  0  0  0  0  0  0  0
   47.1734  -13.4298   -6.5372 N   0  0  0  0  0  0  0  0  0  0  0  0
   45.3019  -12.1314   -7.0929 N   0  0  0  0  0  0  0  0  0  0  0  0
   44.3764  -11.0577   -6.8487 C   0  0  0  0  0  0  0  0  0  0  0  0
   43.3735  -10.8188   -7.9136 C   0  0  0  0  0  0  0  0  0  0  0  0
   42.3924   -9.7351   -7.7614 C   0  0  0  0  0  0  0  0  0  0  0  0
   41.5739   -9.7077   -6.5223 C   0  0  2  0  0  0  0  0  0  0  0  0
   40.5435  -10.6519   -6.3597 N   0  0  0  0  0  0  0  0  0  0  0  0
   40.9942   -8.3367   -6.2782 C   0  0  0  0  0  0  0  0  0  0  0  0
   39.9904   -7.9557   -6.9165 O   0  0  0  0  0  0  0  0  0  0  0  0
   47.0784  -13.9265   -7.4303 N   0  0  0  0  0  0  0  0  0  0  0  0
   41.5977   -7.4935   -5.3263 C   0  0  2  0  0  0  0  0  0  0  0  0
   40.9684   -6.1742   -5.0113 C   0  0  0  0  0  0  0  0  0  0  0  0
   41.4453   -5.7345   -3.6723 C   0  0  0  0  0  0  0  0  0  0  0  0
   40.9398   -4.4439   -3.2088 C   0  0  0  0  0  0  0  0  0  0  0  0
   40.1116   -3.6050   -3.9238 N   0  0  0  0  0  0  0  0  0  0  0  0
   39.8612   -2.5276   -3.1742 C   0  0  0  0  0  0  0  0  0  0  0  0
   40.5047   -2.6690   -2.0201 N   0  0  0  0  0  0  0  0  0  0  0  0
   41.1715   -3.8469   -2.0337 C   0  0  0  0  0  0  0  0  0  0  0  0
   41.3720   -5.2492   -6.0692 O   0  0  0  0  0  0  0  0  0  0  0  0
   42.5513   -5.3087   -6.5752 O   0  0  0  0  0  0  0  0  0  0  0  0
   36.3926   -4.8843  -11.7858 C   0  0  0  0  0  0  0  0  0  0  0  0
   37.5619   -4.7395  -11.0931 C   0  0  0  0  0  0  0  0  0  0  0  0
   38.0893   -3.4712  -10.8796 C   0  0  0  0  0  0  0  0  0  0  0  0
   39.2692   -3.3022  -10.1822 C   0  0  0  0  0  0  0  0  0  0  0  0
   39.9602   -4.4053   -9.6751 C   0  0  0  0  0  0  0  0  0  0  0  0
   41.2353   -4.2558   -8.9267 C   0  0  1  0  0  0  0  0  0  0  0  0
   41.0863   -3.3677   -7.6959 N   0  0  0  0  0  0  0  0  0  0  0  0
   40.5533   -4.2360   -6.6403 C   0  0  0  0  0  0  0  0  0  0  0  0
   40.1681   -2.2752   -7.9729 O   0  0  0  0  0  0  0  0  0  0  0  0
   40.4758   -1.2968   -8.8978 C   0  0  0  0  0  0  0  0  0  0  0  0
   39.4336   -5.6547   -9.8892 C   0  0  0  0  0  0  0  0  0  0  0  0
   38.2616   -5.7938  -10.5841 O   0  0  0  0  0  0  0  0  0  0  0  0
  1  2  1  0
  2  3  2  0
  4  2  1  0
  4  5  1  0
  6  7  1  0
  6  5  1  0
  8  9  1  6
  8  7  1  0
 10  8  1  0
 11 10  2  0
 12 10  1  0
 13 12  1  0
 13 14  1  1
 15 14  1  0
 16 15  2  0
 17 16  1  0
 18 17  1  0
 18 19  2  0
 19 15  1  0
 20 13  1  0
 20 29  1  0
 21 20  2  0
 22 23  1  0
 23 33  2  0
 24 25  2  0
 24 23  1  0
 25 26  1  0
 26 27  1  0
 26 32  2  0
 28 27  1  1
 28 30  1  0
 28 29  1  0
 30 31  1  0
 33 32  1  0
 34 30  2  0
M  END
$$$$
