RHY.pdb
     RDKit          3D

 34 35  0  0  1  0  0  0  0  0999 V2000
   18.2843  -13.3957  -16.5316 N   0  0  0  0  0  0  0  0  0  0  0  0
   18.6539  -14.3561  -17.5057 C   0  0  0  0  0  0  0  0  0  0  0  0
   17.8083  -15.3032  -17.7738 N   0  0  0  0  0  0  0  0  0  0  0  0
   19.8984  -14.3222  -18.1812 N   0  0  0  0  0  0  0  0  0  0  0  0
   20.8510  -13.2523  -18.0503 C   0  0  0  0  0  0  0  0  0  0  0  0
   22.1003  -13.5890  -17.3271 C   0  0  0  0  0  0  0  0  0  0  0  0
   23.1522  -12.5736  -17.1773 C   0  0  0  0  0  0  0  0  0  0  0  0
   24.3554  -12.6867  -18.0410 C   0  0  2  0  0  0  0  0  0  0  0  0
   25.2796  -13.7193  -17.7980 N   0  0  0  0  0  0  0  0  0  0  0  0
   25.1141  -11.3842  -18.0977 C   0  0  0  0  0  0  0  0  0  0  0  0
   25.9102  -11.0800  -17.1846 O   0  0  0  0  0  0  0  0  0  0  0  0
   18.0400  -16.0446  -18.4447 N   0  0  0  0  0  0  0  0  0  0  0  0
   24.9132  -10.5173  -19.1884 C   0  0  2  0  0  0  0  0  0  0  0  0
   25.5891   -9.1836  -19.1995 C   0  0  0  0  0  0  0  0  0  0  0  0
   25.9287   -8.8413  -20.6070 C   0  0  0  0  0  0  0  0  0  0  0  0
   27.0070   -9.6224  -21.2098 C   0  0  0  0  0  0  0  0  0  0  0  0
   28.1192  -10.0961  -20.5470 N   0  0  0  0  0  0  0  0  0  0  0  0
   28.8731  -10.7662  -21.4233 C   0  0  0  0  0  0  0  0  0  0  0  0
   28.2677  -10.7246  -22.6055 N   0  0  0  0  0  0  0  0  0  0  0  0
   27.1175  -10.0217  -22.4823 C   0  0  0  0  0  0  0  0  0  0  0  0
   24.6507   -8.2283  -18.6128 O   0  0  0  0  0  0  0  0  0  0  0  0
   23.4060   -8.2554  -18.9299 O   0  0  0  0  0  0  0  0  0  0  0  0
   20.8954   -1.9470  -13.6344 C   0  0  0  0  0  0  0  0  0  0  0  0
   21.7399   -2.8834  -14.1615 C   0  0  0  0  0  0  0  0  0  0  0  0
   22.8097   -2.4848  -14.9545 C   0  0  0  0  0  0  0  0  0  0  0  0
   23.6752   -3.4144  -15.4968 C   0  0  0  0  0  0  0  0  0  0  0  0
   23.4936   -4.7789  -15.2596 C   0  0  0  0  0  0  0  0  0  0  0  0
   24.4040   -5.8030  -15.8347 C   0  0  1  0  0  0  0  0  0  0  0  0
   23.9535   -6.2726  -17.2139 N   0  0  0  0  0  0  0  0  0  0  0  0
   24.9798   -7.2175  -17.6680 C   0  0  0  0  0  0  0  0  0  0  0  0
   23.8594   -5.1424  -18.1234 O   0  0  0  0  0  0  0  0  0  0  0  0
   22.6682   -4.4686  -18.3093 C   0  0  0  0  0  0  0  0  0  0  0  0
   22.4355   -5.1655  -14.4753 C   0  0  0  0  0  0  0  0  0  0  0  0
   21.5924   -4.2227  -13.9498 O   0  0  0  0  0  0  0  0  0  0  0  0
  1  2  1  0
  2  3  2  0
  4  2  1  0
  4  5  1  0
  6  7  1  0
  6  5  1  0
  8  9  1  1
  8  7  1  0
 10  8  1  0
 11 10  2  0
 12 10  1  0
 13 12  1  0
 13 14  1  1
 15 14  1  0
 16 15  2  0
 17 16  1  0
 18 17  1  0
 18 19  2  0
 19 15  1  0
 20 13  1  0
 20 29  1  0
 21 20  2  0
 22 23  1  0
 23 33  2  0
 24 25  2  0
 24 23  1  0
 25 26  1  0
 26 27  1  0
 26 32  2  0
 28 27  1  1
 28 30  1  0
 28 29  1  0
 30 31  1  0
 33 32  1  0
 34 30  2  0
M  END
$$$$
