RHY.pdb
     RDKit          3D

 34 35  0  0  1  0  0  0  0  0999 V2000
   33.6878  -25.8997  -15.0430 N   0  0  0  0  0  0  0  0  0  0  0  0
   33.4821  -26.3173  -16.3813 C   0  0  0  0  0  0  0  0  0  0  0  0
   33.9056  -27.4963  -16.7198 N   0  0  0  0  0  0  0  0  0  0  0  0
   32.8463  -25.5017  -17.3492 N   0  0  0  0  0  0  0  0  0  0  0  0
   32.2192  -24.2427  -17.0473 C   0  0  0  0  0  0  0  0  0  0  0  0
   31.6619  -23.5077  -18.2075 C   0  0  0  0  0  0  0  0  0  0  0  0
   30.5540  -22.5629  -18.0081 C   0  0  0  0  0  0  0  0  0  0  0  0
   29.3811  -23.0233  -17.2217 C   0  0  2  0  0  0  0  0  0  0  0  0
   28.7248  -24.2092  -17.5990 N   0  0  0  0  0  0  0  0  0  0  0  0
   28.3440  -21.9351  -17.0957 C   0  0  0  0  0  0  0  0  0  0  0  0
   28.6900  -20.7643  -16.8320 O   0  0  0  0  0  0  0  0  0  0  0  0
   33.9011  -27.7983  -17.7007 N   0  0  0  0  0  0  0  0  0  0  0  0
   26.9852  -22.2548  -17.2766 C   0  0  1  0  0  0  0  0  0  0  0  0
   25.9493  -21.1957  -17.0740 C   0  0  0  0  0  0  0  0  0  0  0  0
   24.9941  -21.2494  -18.2135 C   0  0  0  0  0  0  0  0  0  0  0  0
   23.8433  -20.3531  -18.1222 C   0  0  0  0  0  0  0  0  0  0  0  0
   23.6353  -19.4156  -17.1329 N   0  0  0  0  0  0  0  0  0  0  0  0
   22.4839  -18.7876  -17.3886 C   0  0  0  0  0  0  0  0  0  0  0  0
   21.9710  -19.3025  -18.5011 N   0  0  0  0  0  0  0  0  0  0  0  0
   22.8025  -20.2675  -18.9591 C   0  0  0  0  0  0  0  0  0  0  0  0
   25.2972  -21.4799  -15.7967 O   0  0  0  0  0  0  0  0  0  0  0  0
   24.7766  -22.6324  -15.5703 O   0  0  0  0  0  0  0  0  0  0  0  0
   22.2977  -20.9686   -7.4745 C   0  0  0  0  0  0  0  0  0  0  0  0
   22.9168  -20.7247   -8.6683 C   0  0  0  0  0  0  0  0  0  0  0  0
   22.2104  -20.1302   -9.7074 C   0  0  0  0  0  0  0  0  0  0  0  0
   22.8165  -19.8747  -10.9217 C   0  0  0  0  0  0  0  0  0  0  0  0
   24.1563  -20.2092  -11.1325 C   0  0  0  0  0  0  0  0  0  0  0  0
   24.8339  -19.9529  -12.4300 C   0  0  1  0  0  0  0  0  0  0  0  0
   24.4419  -20.9656  -13.5007 N   0  0  0  0  0  0  0  0  0  0  0  0
   25.1747  -20.5717  -14.7090 C   0  0  0  0  0  0  0  0  0  0  0  0
   23.0076  -20.9203  -13.7338 O   0  0  0  0  0  0  0  0  0  0  0  0
   22.1680  -21.8942  -13.2298 C   0  0  0  0  0  0  0  0  0  0  0  0
   24.8480  -20.7956  -10.1021 C   0  0  0  0  0  0  0  0  0  0  0  0
   24.2225  -21.0377   -8.9080 O   0  0  0  0  0  0  0  0  0  0  0  0
  1  2  1  0
  2  3  2  0
  4  2  1  0
  4  5  1  0
  6  7  1  0
  6  5  1  0
  8  9  1  6
  8  7  1  0
 10  8  1  0
 11 10  2  0
 12 10  1  0
 13 12  1  0
 13 14  1  6
 15 14  1  0
 16 15  2  0
 17 16  1  0
 18 17  1  0
 18 19  2  0
 19 15  1  0
 20 13  1  0
 20 29  1  0
 21 20  2  0
 22 23  1  0
 23 33  2  0
 24 25  2  0
 24 23  1  0
 25 26  1  0
 26 27  1  0
 26 32  2  0
 28 27  1  1
 28 30  1  0
 28 29  1  0
 30 31  1  0
 33 32  1  0
 34 30  2  0
M  END
$$$$
