RHY.pdb
     RDKit          3D

 34 35  0  0  1  0  0  0  0  0999 V2000
   41.9325   -9.6879   -2.1809 N   0  0  0  0  0  0  0  0  0  0  0  0
   43.1437   -9.0034   -1.9124 C   0  0  0  0  0  0  0  0  0  0  0  0
   43.3761   -8.6410   -0.6882 N   0  0  0  0  0  0  0  0  0  0  0  0
   44.0917   -8.6998   -2.9201 N   0  0  0  0  0  0  0  0  0  0  0  0
   43.9705   -9.1284   -4.2879 C   0  0  0  0  0  0  0  0  0  0  0  0
   44.5185  -10.4717   -4.5915 C   0  0  0  0  0  0  0  0  0  0  0  0
   44.1819  -11.1258   -5.8639 C   0  0  0  0  0  0  0  0  0  0  0  0
   45.1597  -11.0245   -6.9774 C   0  0  2  0  0  0  0  0  0  0  0  0
   46.5129  -11.3208   -6.7312 N   0  0  0  0  0  0  0  0  0  0  0  0
   45.0911   -9.6742   -7.6462 C   0  0  0  0  0  0  0  0  0  0  0  0
   46.0018   -8.8379   -7.4691 O   0  0  0  0  0  0  0  0  0  0  0  0
   44.2348   -8.1367   -0.4400 N   0  0  0  0  0  0  0  0  0  0  0  0
   43.9906   -9.3683   -8.4687 C   0  0  2  0  0  0  0  0  0  0  0  0
   43.8817   -8.0041   -9.0710 C   0  0  0  0  0  0  0  0  0  0  0  0
   43.3791   -8.1449  -10.4643 C   0  0  0  0  0  0  0  0  0  0  0  0
   43.0884   -6.8959  -11.1654 C   0  0  0  0  0  0  0  0  0  0  0  0
   43.2562   -5.6294  -10.6473 N   0  0  0  0  0  0  0  0  0  0  0  0
   42.8918   -4.7452  -11.5805 C   0  0  0  0  0  0  0  0  0  0  0  0
   42.5040   -5.4187  -12.6584 N   0  0  0  0  0  0  0  0  0  0  0  0
   42.6221   -6.7443  -12.4107 C   0  0  0  0  0  0  0  0  0  0  0  0
   42.9608   -7.2418   -8.2293 O   0  0  0  0  0  0  0  0  0  0  0  0
   41.8424   -7.7515   -7.8553 O   0  0  0  0  0  0  0  0  0  0  0  0
   46.5976   -1.6413   -4.1558 C   0  0  0  0  0  0  0  0  0  0  0  0
   45.6125   -2.5304   -4.4828 C   0  0  0  0  0  0  0  0  0  0  0  0
   45.9395   -3.8456   -4.7920 C   0  0  0  0  0  0  0  0  0  0  0  0
   44.9599   -4.7602   -5.1249 C   0  0  0  0  0  0  0  0  0  0  0  0
   43.6155   -4.3823   -5.1583 C   0  0  0  0  0  0  0  0  0  0  0  0
   42.5397   -5.3420   -5.5193 C   0  0  1  0  0  0  0  0  0  0  0  0
   42.1319   -5.2338   -6.9849 N   0  0  0  0  0  0  0  0  0  0  0  0
   43.1817   -5.9238   -7.7425 C   0  0  0  0  0  0  0  0  0  0  0  0
   42.0476   -3.8377   -7.3811 O   0  0  0  0  0  0  0  0  0  0  0  0
   41.0476   -3.0149   -6.9008 C   0  0  0  0  0  0  0  0  0  0  0  0
   43.2996   -3.0823   -4.8515 C   0  0  0  0  0  0  0  0  0  0  0  0
   44.2909   -2.1957   -4.5246 O   0  0  0  0  0  0  0  0  0  0  0  0
  1  2  1  0
  2  3  2  0
  4  2  1  0
  4  5  1  0
  6  7  1  0
  6  5  1  0
  8  9  1  1
  8  7  1  0
 10  8  1  0
 11 10  2  0
 12 10  1  0
 13 12  1  0
 13 14  1  1
 15 14  1  0
 16 15  2  0
 17 16  1  0
 18 17  1  0
 18 19  2  0
 19 15  1  0
 20 13  1  0
 20 29  1  0
 21 20  2  0
 22 23  1  0
 23 33  2  0
 24 25  2  0
 24 23  1  0
 25 26  1  0
 26 27  1  0
 26 32  2  0
 28 27  1  1
 28 30  1  0
 28 29  1  0
 30 31  1  0
 33 32  1  0
 34 30  2  0
M  END
$$$$
