RHY.pdb
     RDKit          3D

 34 35  0  0  1  0  0  0  0  0999 V2000
   27.8472  -26.9717  -16.9615 N   0  0  0  0  0  0  0  0  0  0  0  0
   27.0224  -28.0478  -16.5501 C   0  0  0  0  0  0  0  0  0  0  0  0
   27.5831  -29.2027  -16.3607 N   0  0  0  0  0  0  0  0  0  0  0  0
   25.6272  -27.9099  -16.3482 N   0  0  0  0  0  0  0  0  0  0  0  0
   24.8922  -26.7070  -16.6350 C   0  0  0  0  0  0  0  0  0  0  0  0
   25.1568  -25.5615  -15.7323 C   0  0  0  0  0  0  0  0  0  0  0  0
   24.0465  -24.9437  -14.9937 C   0  0  0  0  0  0  0  0  0  0  0  0
   22.9495  -24.3227  -15.7793 C   0  0  2  0  0  0  0  0  0  0  0  0
   23.2710  -23.4583  -16.8418 N   0  0  0  0  0  0  0  0  0  0  0  0
   21.9654  -23.6144  -14.8820 C   0  0  0  0  0  0  0  0  0  0  0  0
   22.3253  -23.1937  -13.7624 O   0  0  0  0  0  0  0  0  0  0  0  0
   27.0429  -30.0015  -16.0095 N   0  0  0  0  0  0  0  0  0  0  0  0
   20.6397  -23.4353  -15.3199 C   0  0  2  0  0  0  0  0  0  0  0  0
   19.6832  -22.6650  -14.4670 C   0  0  0  0  0  0  0  0  0  0  0  0
   18.5680  -22.1859  -15.3275 C   0  0  0  0  0  0  0  0  0  0  0  0
   17.5231  -21.4220  -14.6486 C   0  0  0  0  0  0  0  0  0  0  0  0
   17.7109  -20.6091  -13.5510 N   0  0  0  0  0  0  0  0  0  0  0  0
   16.5307  -20.0778  -13.2187 C   0  0  0  0  0  0  0  0  0  0  0  0
   15.6184  -20.5325  -14.0712 N   0  0  0  0  0  0  0  0  0  0  0  0
   16.2218  -21.3612  -14.9552 C   0  0  0  0  0  0  0  0  0  0  0  0
   19.2185  -23.5765  -13.4225 O   0  0  0  0  0  0  0  0  0  0  0  0
   18.9911  -24.8128  -13.6872 O   0  0  0  0  0  0  0  0  0  0  0  0
   17.2623  -27.3298   -5.6705 C   0  0  0  0  0  0  0  0  0  0  0  0
   17.7393  -26.5364   -6.6759 C   0  0  0  0  0  0  0  0  0  0  0  0
   17.3644  -25.1995   -6.7418 C   0  0  0  0  0  0  0  0  0  0  0  0
   17.8347  -24.3801   -7.7491 C   0  0  0  0  0  0  0  0  0  0  0  0
   18.6997  -24.8786   -8.7262 C   0  0  0  0  0  0  0  0  0  0  0  0
   19.2170  -24.0234   -9.8259 C   0  0  1  0  0  0  0  0  0  0  0  0
   18.4523  -24.2269  -11.1296 N   0  0  0  0  0  0  0  0  0  0  0  0
   18.9842  -23.2284  -12.0635 C   0  0  0  0  0  0  0  0  0  0  0  0
   17.0294  -24.0207  -10.9148 O   0  0  0  0  0  0  0  0  0  0  0  0
   16.1810  -25.0810  -10.6627 C   0  0  0  0  0  0  0  0  0  0  0  0
   19.0661  -26.1995   -8.6549 C   0  0  0  0  0  0  0  0  0  0  0  0
   18.5850  -26.9899   -7.6452 O   0  0  0  0  0  0  0  0  0  0  0  0
  1  2  1  0
  2  3  2  0
  4  2  1  0
  4  5  1  0
  6  7  1  0
  6  5  1  0
  8  9  1  6
  8  7  1  0
 10  8  1  0
 11 10  2  0
 12 10  1  0
 13 12  1  0
 13 14  1  6
 15 14  1  0
 16 15  2  0
 17 16  1  0
 18 17  1  0
 18 19  2  0
 19 15  1  0
 20 13  1  0
 20 29  1  0
 21 20  2  0
 22 23  1  0
 23 33  2  0
 24 25  2  0
 24 23  1  0
 25 26  1  0
 26 27  1  0
 26 32  2  0
 28 27  1  6
 28 30  1  0
 28 29  1  0
 30 31  1  0
 33 32  1  0
 34 30  2  0
M  END
$$$$
