RHY.pdb
     RDKit          3D

 34 35  0  0  1  0  0  0  0  0999 V2000
   26.4779  -31.8093  -17.0201 N   0  0  0  0  0  0  0  0  0  0  0  0
   26.9941  -31.3307  -15.7904 C   0  0  0  0  0  0  0  0  0  0  0  0
   26.3750  -31.6685  -14.7011 N   0  0  0  0  0  0  0  0  0  0  0  0
   28.1410  -30.5032  -15.7112 N   0  0  0  0  0  0  0  0  0  0  0  0
   28.8857  -30.0559  -16.8577 C   0  0  0  0  0  0  0  0  0  0  0  0
   28.3619  -28.8440  -17.5315 C   0  0  0  0  0  0  0  0  0  0  0  0
   28.8204  -27.5154  -17.1020 C   0  0  0  0  0  0  0  0  0  0  0  0
   30.2046  -27.1098  -17.4564 C   0  0  2  0  0  0  0  0  0  0  0  0
   31.2880  -27.7180  -16.7964 N   0  0  0  0  0  0  0  0  0  0  0  0
   30.3792  -25.6145  -17.3612 C   0  0  0  0  0  0  0  0  0  0  0  0
   30.7108  -25.0879  -16.2783 O   0  0  0  0  0  0  0  0  0  0  0  0
   26.6829  -31.3173  -13.7872 N   0  0  0  0  0  0  0  0  0  0  0  0
   30.1629  -24.8219  -18.5042 C   0  0  2  0  0  0  0  0  0  0  0  0
   30.4188  -23.3503  -18.4354 C   0  0  0  0  0  0  0  0  0  0  0  0
   31.2399  -22.9611  -19.6136 C   0  0  0  0  0  0  0  0  0  0  0  0
   31.4952  -21.5302  -19.7668 C   0  0  0  0  0  0  0  0  0  0  0  0
   32.5850  -20.8531  -19.2623 N   0  0  0  0  0  0  0  0  0  0  0  0
   32.4743  -19.5674  -19.6090 C   0  0  0  0  0  0  0  0  0  0  0  0
   31.3548  -19.4237  -20.3103 N   0  0  0  0  0  0  0  0  0  0  0  0
   30.7458  -20.6284  -20.4119 C   0  0  0  0  0  0  0  0  0  0  0  0
   29.1129  -22.6929  -18.4347 O   0  0  0  0  0  0  0  0  0  0  0  0
   28.1108  -23.2285  -19.0343 O   0  0  0  0  0  0  0  0  0  0  0  0
   25.4979  -14.9889  -19.5035 C   0  0  0  0  0  0  0  0  0  0  0  0
   25.9752  -16.1186  -18.9002 C   0  0  0  0  0  0  0  0  0  0  0  0
   25.0923  -17.0169  -18.3121 C   0  0  0  0  0  0  0  0  0  0  0  0
   25.5532  -18.1645  -17.6974 C   0  0  0  0  0  0  0  0  0  0  0  0
   26.9203  -18.4480  -17.6533 C   0  0  0  0  0  0  0  0  0  0  0  0
   27.4468  -19.6711  -16.9935 C   0  0  1  0  0  0  0  0  0  0  0  0
   27.4682  -20.8739  -17.9308 N   0  0  0  0  0  0  0  0  0  0  0  0
   28.8078  -21.4574  -17.7995 C   0  0  0  0  0  0  0  0  0  0  0  0
   27.2267  -20.4483  -19.2998 O   0  0  0  0  0  0  0  0  0  0  0  0
   25.9571  -20.4668  -19.8431 C   0  0  0  0  0  0  0  0  0  0  0  0
   27.7864  -17.5570  -18.2364 C   0  0  0  0  0  0  0  0  0  0  0  0
   27.3025  -16.4266  -18.8394 O   0  0  0  0  0  0  0  0  0  0  0  0
  1  2  1  0
  2  3  2  0
  4  2  1  0
  4  5  1  0
  6  7  1  0
  6  5  1  0
  8  9  1  1
  8  7  1  0
 10  8  1  0
 11 10  2  0
 12 10  1  0
 13 12  1  0
 13 14  1  6
 15 14  1  0
 16 15  2  0
 17 16  1  0
 18 17  1  0
 18 19  2  0
 19 15  1  0
 20 13  1  0
 20 29  1  0
 21 20  2  0
 22 23  1  0
 23 33  2  0
 24 25  2  0
 24 23  1  0
 25 26  1  0
 26 27  1  0
 26 32  2  0
 28 27  1  1
 28 30  1  0
 28 29  1  0
 30 31  1  0
 33 32  1  0
 34 30  2  0
M  END
$$$$
