RHY.pdb
     RDKit          3D

 34 35  0  0  1  0  0  0  0  0999 V2000
   27.7844  -20.5542  -21.9341 N   0  0  0  0  0  0  0  0  0  0  0  0
   27.7774  -20.8199  -23.3259 C   0  0  0  0  0  0  0  0  0  0  0  0
   28.7824  -21.4734  -23.8228 N   0  0  0  0  0  0  0  0  0  0  0  0
   26.7305  -20.3971  -24.1812 N   0  0  0  0  0  0  0  0  0  0  0  0
   25.3687  -20.2212  -23.7526 C   0  0  0  0  0  0  0  0  0  0  0  0
   24.9743  -20.9754  -22.5390 C   0  0  0  0  0  0  0  0  0  0  0  0
   23.5983  -20.8741  -22.0329 C   0  0  0  0  0  0  0  0  0  0  0  0
   23.3544  -20.0079  -20.8512 C   0  0  2  0  0  0  0  0  0  0  0  0
   24.2378  -18.9455  -20.5854 N   0  0  0  0  0  0  0  0  0  0  0  0
   23.2144  -20.8256  -19.5914 C   0  0  0  0  0  0  0  0  0  0  0  0
   22.7203  -21.9718  -19.6375 O   0  0  0  0  0  0  0  0  0  0  0  0
   28.8463  -21.6590  -24.8302 N   0  0  0  0  0  0  0  0  0  0  0  0
   23.6445  -20.2820  -18.3664 C   0  0  1  0  0  0  0  0  0  0  0  0
   23.4932  -21.0849  -17.1141 C   0  0  0  0  0  0  0  0  0  0  0  0
   24.8247  -21.1865  -16.4579 C   0  0  0  0  0  0  0  0  0  0  0  0
   25.7305  -22.1927  -17.0083 C   0  0  0  0  0  0  0  0  0  0  0  0
   25.4538  -23.0209  -18.0753 N   0  0  0  0  0  0  0  0  0  0  0  0
   26.5201  -23.7974  -18.2882 C   0  0  0  0  0  0  0  0  0  0  0  0
   27.4477  -23.4801  -17.3911 N   0  0  0  0  0  0  0  0  0  0  0  0
   26.9690  -22.4923  -16.5990 C   0  0  0  0  0  0  0  0  0  0  0  0
   22.5202  -20.3849  -16.2770 O   0  0  0  0  0  0  0  0  0  0  0  0
   22.7771  -19.2138  -15.8156 O   0  0  0  0  0  0  0  0  0  0  0  0
   20.6311  -14.8628  -18.7738 C   0  0  0  0  0  0  0  0  0  0  0  0
   20.2961  -16.0091  -18.1091 C   0  0  0  0  0  0  0  0  0  0  0  0
   19.5758  -15.9377  -16.9224 C   0  0  0  0  0  0  0  0  0  0  0  0
   19.2268  -17.0835  -16.2349 C   0  0  0  0  0  0  0  0  0  0  0  0
   19.5914  -18.3423  -16.7185 C   0  0  0  0  0  0  0  0  0  0  0  0
   19.2363  -19.5924  -15.9977 C   0  0  2  0  0  0  0  0  0  0  0  0
   20.3505  -20.0650  -15.0697 N   0  0  0  0  0  0  0  0  0  0  0  0
   21.2417  -20.8817  -15.9010 C   0  0  0  0  0  0  0  0  0  0  0  0
   19.7971  -20.8553  -13.9823 O   0  0  0  0  0  0  0  0  0  0  0  0
   19.0192  -20.2766  -12.9987 C   0  0  0  0  0  0  0  0  0  0  0  0
   20.3022  -18.4055  -17.8910 C   0  0  0  0  0  0  0  0  0  0  0  0
   20.6351  -17.2535  -18.5527 O   0  0  0  0  0  0  0  0  0  0  0  0
  1  2  1  0
  2  3  2  0
  4  2  1  0
  4  5  1  0
  6  7  1  0
  6  5  1  0
  8  9  1  1
  8  7  1  0
 10  8  1  0
 11 10  2  0
 12 10  1  0
 13 12  1  0
 13 14  1  6
 15 14  1  0
 16 15  2  0
 17 16  1  0
 18 17  1  0
 18 19  2  0
 19 15  1  0
 20 13  1  0
 20 29  1  0
 21 20  2  0
 22 23  1  0
 23 33  2  0
 24 25  2  0
 24 23  1  0
 25 26  1  0
 26 27  1  0
 26 32  2  0
 28 27  1  6
 28 30  1  0
 28 29  1  0
 30 31  1  0
 33 32  1  0
 34 30  2  0
M  END
$$$$
