RHY.pdb
     RDKit          3D

 34 35  0  0  1  0  0  0  0  0999 V2000
   26.1900  -25.4784  -15.5660 N   0  0  0  0  0  0  0  0  0  0  0  0
   25.8875  -25.4625  -16.9501 C   0  0  0  0  0  0  0  0  0  0  0  0
   26.2872  -26.4662  -17.6690 N   0  0  0  0  0  0  0  0  0  0  0  0
   25.1807  -24.4017  -17.5676 N   0  0  0  0  0  0  0  0  0  0  0  0
   24.9717  -23.1165  -16.9561 C   0  0  0  0  0  0  0  0  0  0  0  0
   25.3360  -23.0200  -15.5226 C   0  0  0  0  0  0  0  0  0  0  0  0
   25.0504  -21.7847  -14.7794 C   0  0  0  0  0  0  0  0  0  0  0  0
   24.2133  -20.7524  -15.4426 C   0  0  2  0  0  0  0  0  0  0  0  0
   24.8256  -19.5854  -15.9353 N   0  0  0  0  0  0  0  0  0  0  0  0
   23.0562  -20.3393  -14.5674 C   0  0  0  0  0  0  0  0  0  0  0  0
   23.2419  -19.5688  -13.6021 O   0  0  0  0  0  0  0  0  0  0  0  0
   26.1293  -26.4865  -18.6830 N   0  0  0  0  0  0  0  0  0  0  0  0
   21.7686  -20.8327  -14.8502 C   0  0  2  0  0  0  0  0  0  0  0  0
   20.6098  -20.3744  -14.0239 C   0  0  0  0  0  0  0  0  0  0  0  0
   19.7213  -19.5441  -14.8812 C   0  0  0  0  0  0  0  0  0  0  0  0
   20.1624  -18.1700  -15.1121 C   0  0  0  0  0  0  0  0  0  0  0  0
   21.2870  -17.5879  -14.5669 N   0  0  0  0  0  0  0  0  0  0  0  0
   21.3624  -16.3298  -15.0105 C   0  0  0  0  0  0  0  0  0  0  0  0
   20.3246  -16.1114  -15.8112 N   0  0  0  0  0  0  0  0  0  0  0  0
   19.5806  -17.2402  -15.8790 C   0  0  0  0  0  0  0  0  0  0  0  0
   19.9356  -21.5766  -13.5363 O   0  0  0  0  0  0  0  0  0  0  0  0
   19.6461  -22.5358  -14.3404 O   0  0  0  0  0  0  0  0  0  0  0  0
   16.4275  -27.8445   -8.3393 C   0  0  0  0  0  0  0  0  0  0  0  0
   17.0635  -26.7363   -8.8243 C   0  0  0  0  0  0  0  0  0  0  0  0
   18.2433  -26.8738   -9.5464 C   0  0  0  0  0  0  0  0  0  0  0  0
   18.9020  -25.7674  -10.0456 C   0  0  0  0  0  0  0  0  0  0  0  0
   18.3955  -24.4827   -9.8350 C   0  0  0  0  0  0  0  0  0  0  0  0
   19.0851  -23.2729  -10.3539 C   0  0  1  0  0  0  0  0  0  0  0  0
   18.8327  -23.0531  -11.8418 N   0  0  0  0  0  0  0  0  0  0  0  0
   19.5489  -21.8209  -12.1895 C   0  0  0  0  0  0  0  0  0  0  0  0
   17.4084  -22.9061  -12.0934 O   0  0  0  0  0  0  0  0  0  0  0  0
   16.7484  -21.7260  -11.8117 C   0  0  0  0  0  0  0  0  0  0  0  0
   17.2299  -24.3542   -9.1216 C   0  0  0  0  0  0  0  0  0  0  0  0
   16.5969  -25.4682   -8.6379 O   0  0  0  0  0  0  0  0  0  0  0  0
  1  2  1  0
  2  3  2  0
  4  2  1  0
  4  5  1  0
  6  7  1  0
  6  5  1  0
  8  9  1  1
  8  7  1  0
 10  8  1  0
 11 10  2  0
 12 10  1  0
 13 12  1  0
 13 14  1  1
 15 14  1  0
 16 15  2  0
 17 16  1  0
 18 17  1  0
 18 19  2  0
 19 15  1  0
 20 13  1  0
 20 29  1  0
 21 20  2  0
 22 23  1  0
 23 33  2  0
 24 25  2  0
 24 23  1  0
 25 26  1  0
 26 27  1  0
 26 32  2  0
 28 27  1  6
 28 30  1  0
 28 29  1  0
 30 31  1  0
 33 32  1  0
 34 30  2  0
M  END
$$$$
