RHY.pdb
     RDKit          3D

 34 35  0  0  1  0  0  0  0  0999 V2000
   33.0829  -29.0212  -18.7934 N   0  0  0  0  0  0  0  0  0  0  0  0
   34.3089  -28.3921  -18.4635 C   0  0  0  0  0  0  0  0  0  0  0  0
   35.3621  -29.1413  -18.3472 N   0  0  0  0  0  0  0  0  0  0  0  0
   34.4211  -26.9960  -18.2527 N   0  0  0  0  0  0  0  0  0  0  0  0
   33.3555  -26.0614  -18.4985 C   0  0  0  0  0  0  0  0  0  0  0  0
   33.7711  -24.7307  -19.0019 C   0  0  0  0  0  0  0  0  0  0  0  0
   32.7547  -23.7056  -19.2779 C   0  0  0  0  0  0  0  0  0  0  0  0
   33.1947  -22.4515  -19.9412 C   0  0  2  0  0  0  0  0  0  0  0  0
   34.5637  -22.1275  -19.9567 N   0  0  0  0  0  0  0  0  0  0  0  0
   32.4379  -21.2578  -19.4142 C   0  0  0  0  0  0  0  0  0  0  0  0
   32.9965  -20.4497  -18.6429 O   0  0  0  0  0  0  0  0  0  0  0  0
   36.2768  -28.7359  -18.1186 N   0  0  0  0  0  0  0  0  0  0  0  0
   31.0976  -21.0673  -19.7998 C   0  0  1  0  0  0  0  0  0  0  0  0
   30.3445  -19.8865  -19.2760 C   0  0  0  0  0  0  0  0  0  0  0  0
   30.2846  -18.8553  -20.3469 C   0  0  0  0  0  0  0  0  0  0  0  0
   31.1711  -17.7062  -20.1743 C   0  0  0  0  0  0  0  0  0  0  0  0
   32.0239  -17.5060  -19.1097 N   0  0  0  0  0  0  0  0  0  0  0  0
   32.6717  -16.3537  -19.3051 C   0  0  0  0  0  0  0  0  0  0  0  0
   32.2505  -15.8328  -20.4528 N   0  0  0  0  0  0  0  0  0  0  0  0
   31.3260  -16.6600  -20.9944 C   0  0  0  0  0  0  0  0  0  0  0  0
   29.0153  -20.3651  -18.8994 O   0  0  0  0  0  0  0  0  0  0  0  0
   28.3405  -21.1149  -19.6949 O   0  0  0  0  0  0  0  0  0  0  0  0
   29.4423  -26.5479  -16.5690 C   0  0  0  0  0  0  0  0  0  0  0  0
   28.9039  -25.2982  -16.4417 C   0  0  0  0  0  0  0  0  0  0  0  0
   27.5238  -25.1388  -16.3956 C   0  0  0  0  0  0  0  0  0  0  0  0
   26.9588  -23.8852  -16.2671 C   0  0  0  0  0  0  0  0  0  0  0  0
   27.7643  -22.7472  -16.1805 C   0  0  0  0  0  0  0  0  0  0  0  0
   27.1857  -21.3848  -16.0484 C   0  0  2  0  0  0  0  0  0  0  0  0
   27.0402  -20.6820  -17.3940 N   0  0  0  0  0  0  0  0  0  0  0  0
   28.3499  -20.0833  -17.6744 C   0  0  0  0  0  0  0  0  0  0  0  0
   26.0138  -19.6554  -17.3161 O   0  0  0  0  0  0  0  0  0  0  0  0
   26.3430  -18.3159  -17.2459 C   0  0  0  0  0  0  0  0  0  0  0  0
   29.1262  -22.9119  -16.2262 C   0  0  0  0  0  0  0  0  0  0  0  0
   29.6603  -24.1666  -16.3540 O   0  0  0  0  0  0  0  0  0  0  0  0
  1  2  1  0
  2  3  2  0
  4  2  1  0
  4  5  1  0
  6  7  1  0
  6  5  1  0
  8  9  1  1
  8  7  1  0
 10  8  1  0
 11 10  2  0
 12 10  1  0
 13 12  1  0
 13 14  1  1
 15 14  1  0
 16 15  2  0
 17 16  1  0
 18 17  1  0
 18 19  2  0
 19 15  1  0
 20 13  1  0
 20 29  1  0
 21 20  2  0
 22 23  1  0
 23 33  2  0
 24 25  2  0
 24 23  1  0
 25 26  1  0
 26 27  1  0
 26 32  2  0
 28 27  1  6
 28 30  1  0
 28 29  1  0
 30 31  1  0
 33 32  1  0
 34 30  2  0
M  END
$$$$
