RHY.pdb
     RDKit          3D

 34 35  0  0  1  0  0  0  0  0999 V2000
   28.5429  -27.6538  -16.2420 N   0  0  0  0  0  0  0  0  0  0  0  0
   27.1511  -27.8005  -16.4635 C   0  0  0  0  0  0  0  0  0  0  0  0
   26.6939  -28.9966  -16.6736 N   0  0  0  0  0  0  0  0  0  0  0  0
   26.2565  -26.7023  -16.4702 N   0  0  0  0  0  0  0  0  0  0  0  0
   26.6288  -25.3647  -16.0939 C   0  0  0  0  0  0  0  0  0  0  0  0
   27.2819  -24.5576  -17.1519 C   0  0  0  0  0  0  0  0  0  0  0  0
   26.8178  -23.1882  -17.4151 C   0  0  0  0  0  0  0  0  0  0  0  0
   27.6451  -22.0643  -16.9066 C   0  0  2  0  0  0  0  0  0  0  0  0
   28.8589  -22.3466  -16.2535 N   0  0  0  0  0  0  0  0  0  0  0  0
   26.8394  -21.1477  -16.0199 C   0  0  0  0  0  0  0  0  0  0  0  0
   27.2267  -20.8951  -14.8596 O   0  0  0  0  0  0  0  0  0  0  0  0
   25.7102  -29.1506  -16.9226 N   0  0  0  0  0  0  0  0  0  0  0  0
   25.6483  -20.5836  -16.5140 C   0  0  2  0  0  0  0  0  0  0  0  0
   24.9476  -19.5323  -15.7143 C   0  0  0  0  0  0  0  0  0  0  0  0
   24.5338  -18.4397  -16.6355 C   0  0  0  0  0  0  0  0  0  0  0  0
   25.0511  -17.1100  -16.3189 C   0  0  0  0  0  0  0  0  0  0  0  0
   25.8482  -16.7976  -15.2382 N   0  0  0  0  0  0  0  0  0  0  0  0
   26.1223  -15.4907  -15.2859 C   0  0  0  0  0  0  0  0  0  0  0  0
   25.5235  -14.9821  -16.3576 N   0  0  0  0  0  0  0  0  0  0  0  0
   24.8615  -15.9732  -16.9992 C   0  0  0  0  0  0  0  0  0  0  0  0
   23.8007  -20.1783  -15.0780 O   0  0  0  0  0  0  0  0  0  0  0  0
   23.1368  -21.0882  -15.6959 O   0  0  0  0  0  0  0  0  0  0  0  0
   27.4518  -22.1981   -9.7914 C   0  0  0  0  0  0  0  0  0  0  0  0
   26.2261  -21.8084  -10.2537 C   0  0  0  0  0  0  0  0  0  0  0  0
   25.5721  -20.7328   -9.6641 C   0  0  0  0  0  0  0  0  0  0  0  0
   24.3332  -20.3224  -10.1157 C   0  0  0  0  0  0  0  0  0  0  0  0
   23.7089  -20.9812  -11.1776 C   0  0  0  0  0  0  0  0  0  0  0  0
   22.3736  -20.5670  -11.6813 C   0  0  2  0  0  0  0  0  0  0  0  0
   22.2473  -20.7261  -13.1927 N   0  0  0  0  0  0  0  0  0  0  0  0
   23.3140  -19.9013  -13.7706 C   0  0  0  0  0  0  0  0  0  0  0  0
   20.9433  -20.2637  -13.6393 O   0  0  0  0  0  0  0  0  0  0  0  0
   20.8082  -19.1072  -14.3821 C   0  0  0  0  0  0  0  0  0  0  0  0
   24.3605  -22.0421  -11.7554 C   0  0  0  0  0  0  0  0  0  0  0  0
   25.5885  -22.4282  -11.2880 O   0  0  0  0  0  0  0  0  0  0  0  0
  1  2  1  0
  2  3  2  0
  4  2  1  0
  4  5  1  0
  6  7  1  0
  6  5  1  0
  8  9  1  1
  8  7  1  0
 10  8  1  0
 11 10  2  0
 12 10  1  0
 13 12  1  0
 13 14  1  6
 15 14  1  0
 16 15  2  0
 17 16  1  0
 18 17  1  0
 18 19  2  0
 19 15  1  0
 20 13  1  0
 20 29  1  0
 21 20  2  0
 22 23  1  0
 23 33  2  0
 24 25  2  0
 24 23  1  0
 25 26  1  0
 26 27  1  0
 26 32  2  0
 28 27  1  1
 28 30  1  0
 28 29  1  0
 30 31  1  0
 33 32  1  0
 34 30  2  0
M  END
$$$$
