RHY.pdb
     RDKit          3D

 34 35  0  0  1  0  0  0  0  0999 V2000
   22.0437  -15.5264  -20.2491 N   0  0  0  0  0  0  0  0  0  0  0  0
   23.0268  -16.5371  -20.1091 C   0  0  0  0  0  0  0  0  0  0  0  0
   23.5774  -17.0001  -21.1891 N   0  0  0  0  0  0  0  0  0  0  0  0
   23.4180  -17.0563  -18.8507 N   0  0  0  0  0  0  0  0  0  0  0  0
   24.4827  -18.0071  -18.6733 C   0  0  0  0  0  0  0  0  0  0  0  0
   24.1082  -19.4309  -18.8454 C   0  0  0  0  0  0  0  0  0  0  0  0
   23.4148  -20.1387  -17.7600 C   0  0  0  0  0  0  0  0  0  0  0  0
   24.0671  -20.1751  -16.4261 C   0  0  2  0  0  0  0  0  0  0  0  0
   25.3441  -20.7527  -16.3024 N   0  0  0  0  0  0  0  0  0  0  0  0
   23.1670  -20.8053  -15.3925 C   0  0  0  0  0  0  0  0  0  0  0  0
   22.7603  -21.9766  -15.5434 O   0  0  0  0  0  0  0  0  0  0  0  0
   23.2836  -16.6705  -22.1156 N   0  0  0  0  0  0  0  0  0  0  0  0
   22.7909  -20.0588  -14.2601 C   0  0  2  0  0  0  0  0  0  0  0  0
   21.8844  -20.6752  -13.2432 C   0  0  0  0  0  0  0  0  0  0  0  0
   22.3805  -20.3094  -11.8890 C   0  0  0  0  0  0  0  0  0  0  0  0
   23.6638  -20.8922  -11.5023 C   0  0  0  0  0  0  0  0  0  0  0  0
   24.4391  -21.7155  -12.2909 N   0  0  0  0  0  0  0  0  0  0  0  0
   25.5362  -22.0415  -11.6013 C   0  0  0  0  0  0  0  0  0  0  0  0
   25.4683  -21.4496  -10.4135 N   0  0  0  0  0  0  0  0  0  0  0  0
   24.3178  -20.7398  -10.3447 C   0  0  0  0  0  0  0  0  0  0  0  0
   20.5437  -20.1503  -13.4973 O   0  0  0  0  0  0  0  0  0  0  0  0
   20.3851  -18.9971  -14.0408 O   0  0  0  0  0  0  0  0  0  0  0  0
   14.9903  -19.2341  -19.4455 C   0  0  0  0  0  0  0  0  0  0  0  0
   15.8632  -19.6641  -18.4858 C   0  0  0  0  0  0  0  0  0  0  0  0
   15.4755  -20.6516  -17.5876 C   0  0  0  0  0  0  0  0  0  0  0  0
   16.3418  -21.1007  -16.6103 C   0  0  0  0  0  0  0  0  0  0  0  0
   17.6298  -20.5707  -16.5031 C   0  0  0  0  0  0  0  0  0  0  0  0
   18.5819  -21.0288  -15.4581 C   0  0  2  0  0  0  0  0  0  0  0  0
   18.1481  -20.6165  -14.0553 N   0  0  0  0  0  0  0  0  0  0  0  0
   19.3230  -20.8169  -13.2000 C   0  0  0  0  0  0  0  0  0  0  0  0
   17.0412  -21.4459  -13.6078 O   0  0  0  0  0  0  0  0  0  0  0  0
   15.7300  -21.0612  -13.8084 C   0  0  0  0  0  0  0  0  0  0  0  0
   18.0062  -19.5962  -17.3934 C   0  0  0  0  0  0  0  0  0  0  0  0
   17.1272  -19.1692  -18.3530 O   0  0  0  0  0  0  0  0  0  0  0  0
  1  2  1  0
  2  3  2  0
  4  2  1  0
  4  5  1  0
  6  7  1  0
  6  5  1  0
  8  9  1  6
  8  7  1  0
 10  8  1  0
 11 10  2  0
 12 10  1  0
 13 12  1  0
 13 14  1  6
 15 14  1  0
 16 15  2  0
 17 16  1  0
 18 17  1  0
 18 19  2  0
 19 15  1  0
 20 13  1  0
 20 29  1  0
 21 20  2  0
 22 23  1  0
 23 33  2  0
 24 25  2  0
 24 23  1  0
 25 26  1  0
 26 27  1  0
 26 32  2  0
 28 27  1  6
 28 30  1  0
 28 29  1  0
 30 31  1  0
 33 32  1  0
 34 30  2  0
M  END
$$$$
