RHY.pdb
     RDKit          3D

 34 35  0  0  1  0  0  0  0  0999 V2000
   26.4747  -27.7717  -17.9574 N   0  0  0  0  0  0  0  0  0  0  0  0
   27.8015  -27.9429  -17.4906 C   0  0  0  0  0  0  0  0  0  0  0  0
   28.2957  -29.1428  -17.4969 N   0  0  0  0  0  0  0  0  0  0  0  0
   28.5923  -26.8668  -17.0183 N   0  0  0  0  0  0  0  0  0  0  0  0
   28.0920  -25.5327  -16.8206 C   0  0  0  0  0  0  0  0  0  0  0  0
   29.0909  -24.5306  -16.3790 C   0  0  0  0  0  0  0  0  0  0  0  0
   28.6601  -23.1607  -16.0662 C   0  0  0  0  0  0  0  0  0  0  0  0
   28.2317  -22.2926  -17.1927 C   0  0  2  0  0  0  0  0  0  0  0  0
   29.2099  -21.6907  -18.0054 N   0  0  0  0  0  0  0  0  0  0  0  0
   27.2849  -21.2153  -16.7255 C   0  0  0  0  0  0  0  0  0  0  0  0
   27.5028  -20.6070  -15.6566 O   0  0  0  0  0  0  0  0  0  0  0  0
   29.2572  -29.3203  -17.1847 N   0  0  0  0  0  0  0  0  0  0  0  0
   26.1549  -20.9060  -17.5058 C   0  0  2  0  0  0  0  0  0  0  0  0
   25.2250  -19.8258  -17.0540 C   0  0  0  0  0  0  0  0  0  0  0  0
   24.7696  -19.0677  -18.2505 C   0  0  0  0  0  0  0  0  0  0  0  0
   25.6723  -18.0191  -18.7213 C   0  0  0  0  0  0  0  0  0  0  0  0
   26.8312  -17.6182  -18.0911 N   0  0  0  0  0  0  0  0  0  0  0  0
   27.3868  -16.6452  -18.8191 C   0  0  0  0  0  0  0  0  0  0  0  0
   26.6135  -16.4288  -19.8779 N   0  0  0  0  0  0  0  0  0  0  0  0
   25.5552  -17.2712  -19.8249 C   0  0  0  0  0  0  0  0  0  0  0  0
   24.1154  -20.4829  -16.3650 O   0  0  0  0  0  0  0  0  0  0  0  0
   23.6585  -21.6074  -16.7857 O   0  0  0  0  0  0  0  0  0  0  0  0
   17.5973  -22.3206  -10.6141 C   0  0  0  0  0  0  0  0  0  0  0  0
   18.6750  -21.7782  -11.2562 C   0  0  0  0  0  0  0  0  0  0  0  0
   19.8890  -22.4552  -11.2674 C   0  0  0  0  0  0  0  0  0  0  0  0
   20.9903  -21.9253  -11.9104 C   0  0  0  0  0  0  0  0  0  0  0  0
   20.9078  -20.6940  -12.5650 C   0  0  0  0  0  0  0  0  0  0  0  0
   22.0772  -20.0952  -13.2597 C   0  0  1  0  0  0  0  0  0  0  0  0
   22.3607  -20.7625  -14.6014 N   0  0  0  0  0  0  0  0  0  0  0  0
   23.4514  -19.9910  -15.2074 C   0  0  0  0  0  0  0  0  0  0  0  0
   21.1758  -20.7225  -15.4427 O   0  0  0  0  0  0  0  0  0  0  0  0
   20.8430  -19.5897  -16.1593 C   0  0  0  0  0  0  0  0  0  0  0  0
   19.7061  -20.0311  -12.5504 C   0  0  0  0  0  0  0  0  0  0  0  0
   18.6295  -20.5795  -11.9053 O   0  0  0  0  0  0  0  0  0  0  0  0
  1  2  1  0
  2  3  2  0
  4  2  1  0
  4  5  1  0
  6  7  1  0
  6  5  1  0
  8  9  1  1
  8  7  1  0
 10  8  1  0
 11 10  2  0
 12 10  1  0
 13 12  1  0
 13 14  1  1
 15 14  1  0
 16 15  2  0
 17 16  1  0
 18 17  1  0
 18 19  2  0
 19 15  1  0
 20 13  1  0
 20 29  1  0
 21 20  2  0
 22 23  1  0
 23 33  2  0
 24 25  2  0
 24 23  1  0
 25 26  1  0
 26 27  1  0
 26 32  2  0
 28 27  1  1
 28 30  1  0
 28 29  1  0
 30 31  1  0
 33 32  1  0
 34 30  2  0
M  END
$$$$
