DQA.pdb
     RDKit          3D

 23 22  0  0  1  0  0  0  0  0999 V2000
   15.0249  -13.1292  -16.1830 N   0  0  0  0  0  0  0  0  0  0  0  0
   15.0802  -11.7402  -15.8232 C   0  0  1  0  0  0  0  0  0  0  0  0
   14.7282  -11.5911  -14.3739 C   0  0  0  0  0  0  0  0  0  0  0  0
   13.2630  -11.7515  -14.2066 C   0  0  0  0  0  0  0  0  0  0  0  0
   12.4485  -11.1599  -14.9813 O   0  0  0  0  0  0  0  0  0  0  0  0
   16.4527  -11.1932  -16.0538 C   0  0  0  0  0  0  0  0  0  0  0  0
   17.4466  -11.8087  -15.5913 O   0  0  0  0  0  0  0  0  0  0  0  0
   12.7013  -12.5438  -13.2111 O   0  0  0  0  0  0  0  0  0  0  0  0
   18.1294   -7.1916  -20.6489 N   0  0  0  0  0  0  0  0  0  0  0  0
   19.3467   -7.3245  -19.9434 C   0  0  0  0  0  0  0  0  0  0  0  0
   20.3487   -6.7317  -20.4172 O   0  0  0  0  0  0  0  0  0  0  0  0
   19.3439   -8.1412  -18.7185 C   0  0  0  0  0  0  0  0  0  0  0  0
   18.0277   -8.6802  -18.3070 C   0  0  0  0  0  0  0  0  0  0  0  0
   18.0039   -9.4753  -17.0441 C   0  0  2  0  0  0  0  0  0  0  0  0
   16.6845  -10.0094  -16.7721 N   0  0  0  0  0  0  0  0  0  0  0  0
   18.5224   -8.6928  -15.8938 C   0  0  0  0  0  0  0  0  0  0  0  0
   17.7699   -7.8870  -15.2946 O   0  0  0  0  0  0  0  0  0  0  0  0
   21.7080   -8.7528  -13.9068 C   0  0  0  0  0  0  0  0  0  0  0  0
   20.4284   -8.0664  -14.3893 C   0  0  2  0  0  0  0  0  0  0  0  0
   19.8788   -8.8509  -15.4616 N   0  0  0  0  0  0  0  0  0  0  0  0
   20.8167   -6.7029  -14.8293 C   0  0  0  0  0  0  0  0  0  0  0  0
   21.2576   -5.9166  -13.9526 O   0  0  0  0  0  0  0  0  0  0  0  0
   20.7252   -6.2499  -16.1237 O   0  0  0  0  0  0  0  0  0  0  0  0
  2  1  1  1
  3  2  1  0
  4  3  1  0
  5  4  2  0
  6  7  2  0
  6  2  1  0
  8  4  1  0
  9 10  1  0
 10 12  1  0
 11 10  2  0
 12 13  1  0
 14 13  1  6
 14 16  1  0
 14 15  1  0
 15  6  1  0
 16 17  2  0
 19 18  1  6
 20 19  1  0
 20 16  1  0
 21 19  1  0
 22 21  2  0
 23 21  1  0
M  END
$$$$
