DQA.pdb
     RDKit          3D

 23 22  0  0  1  0  0  0  0  0999 V2000
   16.0595  -10.9922  -16.4188 N   0  0  0  0  0  0  0  0  0  0  0  0
   16.2721   -9.5738  -16.4895 C   0  0  1  0  0  0  0  0  0  0  0  0
   15.2536   -8.8786  -15.6376 C   0  0  0  0  0  0  0  0  0  0  0  0
   13.9048   -9.0857  -16.2193 C   0  0  0  0  0  0  0  0  0  0  0  0
   12.9034   -9.3282  -15.4764 O   0  0  0  0  0  0  0  0  0  0  0  0
   17.6416   -9.2242  -16.0013 C   0  0  0  0  0  0  0  0  0  0  0  0
   17.9836   -9.5551  -14.8376 O   0  0  0  0  0  0  0  0  0  0  0  0
   13.6578   -9.0283  -17.5868 O   0  0  0  0  0  0  0  0  0  0  0  0
   22.3047  -10.7207  -16.2802 N   0  0  0  0  0  0  0  0  0  0  0  0
   23.0168   -9.5090  -16.4279 C   0  0  0  0  0  0  0  0  0  0  0  0
   24.1785   -9.4678  -15.9495 O   0  0  0  0  0  0  0  0  0  0  0  0
   22.3457   -8.3996  -17.1251 C   0  0  0  0  0  0  0  0  0  0  0  0
   20.9169   -8.6132  -17.4495 C   0  0  0  0  0  0  0  0  0  0  0  0
   19.9360   -8.2602  -16.3814 C   0  0  2  0  0  0  0  0  0  0  0  0
   18.5739   -8.5349  -16.7930 N   0  0  0  0  0  0  0  0  0  0  0  0
   20.0963   -6.8540  -15.9330 C   0  0  0  0  0  0  0  0  0  0  0  0
   19.5373   -5.9268  -16.5674 O   0  0  0  0  0  0  0  0  0  0  0  0
   21.9585   -5.2287  -13.0793 C   0  0  0  0  0  0  0  0  0  0  0  0
   21.0908   -5.1928  -14.3391 C   0  0  2  0  0  0  0  0  0  0  0  0
   20.8863   -6.5465  -14.7784 N   0  0  0  0  0  0  0  0  0  0  0  0
   21.8266   -4.3799  -15.3397 C   0  0  0  0  0  0  0  0  0  0  0  0
   22.5767   -4.9918  -16.1424 O   0  0  0  0  0  0  0  0  0  0  0  0
   21.7401   -3.0121  -15.4430 O   0  0  0  0  0  0  0  0  0  0  0  0
  2  1  1  1
  3  2  1  0
  4  3  1  0
  5  4  2  0
  6  7  2  0
  6  2  1  0
  8  4  1  0
  9 10  1  0
 10 12  1  0
 11 10  2  0
 12 13  1  0
 14 13  1  6
 14 16  1  0
 14 15  1  0
 15  6  1  0
 16 17  2  0
 19 18  1  1
 20 19  1  0
 20 16  1  0
 21 19  1  0
 22 21  2  0
 23 21  1  0
M  END
$$$$
