DQA.pdb
     RDKit          3D

 23 22  0  0  1  0  0  0  0  0999 V2000
   25.5325  -10.9859  -17.9738 N   0  0  0  0  0  0  0  0  0  0  0  0
   24.9978  -10.4120  -16.7710 C   0  0  1  0  0  0  0  0  0  0  0  0
   25.9951   -9.4524  -16.1959 C   0  0  0  0  0  0  0  0  0  0  0  0
   27.2011  -10.1998  -15.7631 C   0  0  0  0  0  0  0  0  0  0  0  0
   28.1757   -9.6027  -15.2090 O   0  0  0  0  0  0  0  0  0  0  0  0
   23.7245   -9.6828  -17.0593 C   0  0  0  0  0  0  0  0  0  0  0  0
   23.5813   -9.1086  -18.1685 O   0  0  0  0  0  0  0  0  0  0  0  0
   27.3369  -11.5734  -15.9337 O   0  0  0  0  0  0  0  0  0  0  0  0
   18.1536  -11.2966  -14.7976 N   0  0  0  0  0  0  0  0  0  0  0  0
   17.7999  -10.2008  -15.6170 C   0  0  0  0  0  0  0  0  0  0  0  0
   16.5729   -9.9895  -15.7891 O   0  0  0  0  0  0  0  0  0  0  0  0
   18.8894   -9.4000  -16.1994 C   0  0  0  0  0  0  0  0  0  0  0  0
   20.2622   -9.8219  -15.8392 C   0  0  0  0  0  0  0  0  0  0  0  0
   21.3762   -9.0259  -16.4332 C   0  0  2  0  0  0  0  0  0  0  0  0
   22.6691   -9.6095  -16.1364 N   0  0  0  0  0  0  0  0  0  0  0  0
   21.3137   -7.6015  -16.0190 C   0  0  0  0  0  0  0  0  0  0  0  0
   21.7124   -7.2630  -14.8784 O   0  0  0  0  0  0  0  0  0  0  0  0
   20.4822   -4.4037  -17.8158 C   0  0  0  0  0  0  0  0  0  0  0  0
   20.7320   -5.2197  -16.5457 C   0  0  2  0  0  0  0  0  0  0  0  0
   20.8002   -6.6079  -16.9138 N   0  0  0  0  0  0  0  0  0  0  0  0
   19.6013   -4.9344  -15.6273 C   0  0  0  0  0  0  0  0  0  0  0  0
   18.7062   -5.8113  -15.5230 O   0  0  0  0  0  0  0  0  0  0  0  0
   19.4727   -3.7816  -14.8899 O   0  0  0  0  0  0  0  0  0  0  0  0
  2  1  1  6
  3  2  1  0
  4  3  1  0
  5  4  2  0
  6  7  2  0
  6  2  1  0
  8  4  1  0
  9 10  1  0
 10 12  1  0
 11 10  2  0
 12 13  1  0
 14 13  1  1
 14 16  1  0
 14 15  1  0
 15  6  1  0
 16 17  2  0
 19 18  1  6
 20 19  1  0
 20 16  1  0
 21 19  1  0
 22 21  2  0
 23 21  1  0
M  END
$$$$
