DQA.pdb
     RDKit          3D

 23 22  0  0  1  0  0  0  0  0999 V2000
   17.4671   -9.8771  -13.7923 N   0  0  0  0  0  0  0  0  0  0  0  0
   17.8246   -8.7954  -12.9183 C   0  0  1  0  0  0  0  0  0  0  0  0
   18.6645   -7.8087  -13.6715 C   0  0  0  0  0  0  0  0  0  0  0  0
   19.9523   -8.4444  -14.0431 C   0  0  0  0  0  0  0  0  0  0  0  0
   20.1888   -8.7882  -15.2429 O   0  0  0  0  0  0  0  0  0  0  0  0
   16.5991   -8.1077  -12.4071 C   0  0  0  0  0  0  0  0  0  0  0  0
   15.6894   -7.7897  -13.2146 O   0  0  0  0  0  0  0  0  0  0  0  0
   20.9605   -8.6985  -13.1195 O   0  0  0  0  0  0  0  0  0  0  0  0
   12.7621   -9.3653   -7.9662 N   0  0  0  0  0  0  0  0  0  0  0  0
   12.9058   -9.8364   -9.2909 C   0  0  0  0  0  0  0  0  0  0  0  0
   12.2575  -10.8668   -9.6037 O   0  0  0  0  0  0  0  0  0  0  0  0
   13.7975   -9.0880  -10.1921 C   0  0  0  0  0  0  0  0  0  0  0  0
   14.4613   -7.9029   -9.6030 C   0  0  0  0  0  0  0  0  0  0  0  0
   15.2743   -7.0681  -10.5357 C   0  0  2  0  0  0  0  0  0  0  0  0
   16.4161   -7.7973  -11.0502 N   0  0  0  0  0  0  0  0  0  0  0  0
   15.6842   -5.7864   -9.9085 C   0  0  0  0  0  0  0  0  0  0  0  0
   16.5776   -5.7780   -9.0274 O   0  0  0  0  0  0  0  0  0  0  0  0
   14.8048   -2.1831  -10.5756 C   0  0  0  0  0  0  0  0  0  0  0  0
   15.4977   -3.2891   -9.7769 C   0  0  2  0  0  0  0  0  0  0  0  0
   15.0661   -4.5559  -10.3025 N   0  0  0  0  0  0  0  0  0  0  0  0
   15.1017   -3.1020   -8.3587 C   0  0  0  0  0  0  0  0  0  0  0  0
   14.2517   -3.8992   -7.8861 O   0  0  0  0  0  0  0  0  0  0  0  0
   15.6016   -2.1204   -7.5366 O   0  0  0  0  0  0  0  0  0  0  0  0
  2  1  1  6
  3  2  1  0
  4  3  1  0
  5  4  2  0
  6  7  2  0
  6  2  1  0
  8  4  1  0
  9 10  1  0
 10 12  1  0
 11 10  2  0
 12 13  1  0
 14 13  1  1
 14 16  1  0
 14 15  1  0
 15  6  1  0
 16 17  2  0
 19 18  1  6
 20 19  1  0
 20 16  1  0
 21 19  1  0
 22 21  2  0
 23 21  1  0
M  END
$$$$
