DQA.pdb
     RDKit          3D

 23 22  0  0  1  0  0  0  0  0999 V2000
   14.5290  -10.2277  -13.8065 N   0  0  0  0  0  0  0  0  0  0  0  0
   15.8563  -10.3707  -13.2778 C   0  0  1  0  0  0  0  0  0  0  0  0
   16.6874  -11.1668  -14.2379 C   0  0  0  0  0  0  0  0  0  0  0  0
   16.1971  -12.5665  -14.2665 C   0  0  0  0  0  0  0  0  0  0  0  0
   15.9819  -13.1608  -15.3683 O   0  0  0  0  0  0  0  0  0  0  0  0
   16.4876   -9.0301  -13.0765 C   0  0  0  0  0  0  0  0  0  0  0  0
   16.3237   -8.1357  -13.9446 O   0  0  0  0  0  0  0  0  0  0  0  0
   15.9476  -13.3004  -13.1118 O   0  0  0  0  0  0  0  0  0  0  0  0
   14.6505   -5.8083   -8.1841 N   0  0  0  0  0  0  0  0  0  0  0  0
   15.9233   -6.3265   -8.5141 C   0  0  0  0  0  0  0  0  0  0  0  0
   16.7660   -6.4048   -7.5848 O   0  0  0  0  0  0  0  0  0  0  0  0
   16.1587   -6.7299   -9.9102 C   0  0  0  0  0  0  0  0  0  0  0  0
   17.5712   -6.9751  -10.2802 C   0  0  0  0  0  0  0  0  0  0  0  0
   17.8210   -7.4093  -11.6861 C   0  0  2  0  0  0  0  0  0  0  0  0
   17.2644   -8.7214  -11.9485 N   0  0  0  0  0  0  0  0  0  0  0  0
   19.2643   -7.3515  -12.0295 C   0  0  0  0  0  0  0  0  0  0  0  0
   19.9778   -8.3769  -11.9108 O   0  0  0  0  0  0  0  0  0  0  0  0
   21.5073   -7.0237  -13.9898 C   0  0  0  0  0  0  0  0  0  0  0  0
   21.2425   -6.0436  -12.8449 C   0  0  2  0  0  0  0  0  0  0  0  0
   19.8503   -6.1308  -12.4964 N   0  0  0  0  0  0  0  0  0  0  0  0
   21.6163   -4.6962  -13.3429 C   0  0  0  0  0  0  0  0  0  0  0  0
   20.6890   -3.9569  -13.7609 O   0  0  0  0  0  0  0  0  0  0  0  0
   22.9016   -4.2102  -13.3755 O   0  0  0  0  0  0  0  0  0  0  0  0
  2  1  1  6
  3  2  1  0
  4  3  1  0
  5  4  2  0
  6  7  2  0
  6  2  1  0
  8  4  1  0
  9 10  1  0
 10 12  1  0
 11 10  2  0
 12 13  1  0
 14 13  1  1
 14 16  1  0
 14 15  1  0
 15  6  1  0
 16 17  2  0
 19 18  1  6
 20 19  1  0
 20 16  1  0
 21 19  1  0
 22 21  2  0
 23 21  1  0
M  END
$$$$
