DQA.pdb
     RDKit          3D

 23 22  0  0  1  0  0  0  0  0999 V2000
   17.7286  -12.8150  -16.8376 N   0  0  0  0  0  0  0  0  0  0  0  0
   17.2886  -11.8261  -15.8940 C   0  0  1  0  0  0  0  0  0  0  0  0
   17.5197  -12.3337  -14.5028 C   0  0  0  0  0  0  0  0  0  0  0  0
   16.6261  -13.4902  -14.2485 C   0  0  0  0  0  0  0  0  0  0  0  0
   15.3686  -13.3889  -14.3966 O   0  0  0  0  0  0  0  0  0  0  0  0
   18.0437  -10.5492  -16.0824 C   0  0  0  0  0  0  0  0  0  0  0  0
   19.2425  -10.5925  -16.4589 O   0  0  0  0  0  0  0  0  0  0  0  0
   17.1002  -14.7323  -13.8402 O   0  0  0  0  0  0  0  0  0  0  0  0
   15.5154   -4.7179  -16.4370 N   0  0  0  0  0  0  0  0  0  0  0  0
   16.8953   -4.4386  -16.5599 C   0  0  0  0  0  0  0  0  0  0  0  0
   17.2193   -3.2414  -16.7643 O   0  0  0  0  0  0  0  0  0  0  0  0
   17.8363   -5.5643  -16.4399 C   0  0  0  0  0  0  0  0  0  0  0  0
   17.2263   -6.8893  -16.1860 C   0  0  0  0  0  0  0  0  0  0  0  0
   18.1710   -8.0353  -16.0380 C   0  0  2  0  0  0  0  0  0  0  0  0
   17.4677   -9.2892  -15.8553 N   0  0  0  0  0  0  0  0  0  0  0  0
   19.1538   -7.7987  -14.9507 C   0  0  0  0  0  0  0  0  0  0  0  0
   18.7810   -7.8256  -13.7528 O   0  0  0  0  0  0  0  0  0  0  0  0
   22.8541   -7.8920  -14.7702 C   0  0  0  0  0  0  0  0  0  0  0  0
   21.5184   -7.3776  -14.2293 C   0  0  2  0  0  0  0  0  0  0  0  0
   20.5283   -7.5391  -15.2592 N   0  0  0  0  0  0  0  0  0  0  0  0
   21.7266   -5.9538  -13.8650 C   0  0  0  0  0  0  0  0  0  0  0  0
   22.5025   -5.7103  -12.9059 O   0  0  0  0  0  0  0  0  0  0  0  0
   21.1295   -4.8939  -14.5049 O   0  0  0  0  0  0  0  0  0  0  0  0
  2  1  1  6
  3  2  1  0
  4  3  1  0
  5  4  2  0
  6  7  2  0
  6  2  1  0
  8  4  1  0
  9 10  1  0
 10 12  1  0
 11 10  2  0
 12 13  1  0
 14 13  1  1
 14 16  1  0
 14 15  1  0
 15  6  1  0
 16 17  2  0
 19 18  1  6
 20 19  1  0
 20 16  1  0
 21 19  1  0
 22 21  2  0
 23 21  1  0
M  END
$$$$
