DQA.pdb
     RDKit          3D

 23 22  0  0  1  0  0  0  0  0999 V2000
   14.3651  -12.2606  -13.1692 N   0  0  0  0  0  0  0  0  0  0  0  0
   15.5589  -11.4682  -13.0749 C   0  0  1  0  0  0  0  0  0  0  0  0
   16.3628  -11.6352  -14.3288 C   0  0  0  0  0  0  0  0  0  0  0  0
   16.8345  -13.0383  -14.4252 C   0  0  0  0  0  0  0  0  0  0  0  0
   17.6482  -13.3929  -15.3338 O   0  0  0  0  0  0  0  0  0  0  0  0
   15.2164  -10.0231  -12.9001 C   0  0  0  0  0  0  0  0  0  0  0  0
   14.1965   -9.5587  -13.4699 O   0  0  0  0  0  0  0  0  0  0  0  0
   16.4231  -14.0329  -13.5444 O   0  0  0  0  0  0  0  0  0  0  0  0
   15.2996   -6.4504   -7.9312 N   0  0  0  0  0  0  0  0  0  0  0  0
   14.2487   -7.2381   -8.4530 C   0  0  0  0  0  0  0  0  0  0  0  0
   13.2765   -7.4701   -7.6906 O   0  0  0  0  0  0  0  0  0  0  0  0
   14.3758   -7.7209   -9.8379 C   0  0  0  0  0  0  0  0  0  0  0  0
   15.6183   -7.3331  -10.5436 C   0  0  0  0  0  0  0  0  0  0  0  0
   15.7177   -7.7350  -11.9775 C   0  0  2  0  0  0  0  0  0  0  0  0
   15.9915   -9.1511  -12.1192 N   0  0  0  0  0  0  0  0  0  0  0  0
   16.7131   -6.9120  -12.7097 C   0  0  0  0  0  0  0  0  0  0  0  0
   17.9389   -7.0756  -12.4970 O   0  0  0  0  0  0  0  0  0  0  0  0
   16.4693   -4.5785  -15.6379 C   0  0  0  0  0  0  0  0  0  0  0  0
   17.2220   -5.1775  -14.4479 C   0  0  2  0  0  0  0  0  0  0  0  0
   16.2838   -5.9299  -13.6599 N   0  0  0  0  0  0  0  0  0  0  0  0
   17.8050   -4.0383  -13.6958 C   0  0  0  0  0  0  0  0  0  0  0  0
   17.1976   -3.6564  -12.6632 O   0  0  0  0  0  0  0  0  0  0  0  0
   18.9574   -3.3805  -14.0544 O   0  0  0  0  0  0  0  0  0  0  0  0
  2  1  1  6
  3  2  1  0
  4  3  1  0
  5  4  2  0
  6  7  2  0
  6  2  1  0
  8  4  1  0
  9 10  1  0
 10 12  1  0
 11 10  2  0
 12 13  1  0
 14 13  1  1
 14 16  1  0
 14 15  1  0
 15  6  1  0
 16 17  2  0
 19 18  1  6
 20 19  1  0
 20 16  1  0
 21 19  1  0
 22 21  2  0
 23 21  1  0
M  END
$$$$
