DQA.pdb
     RDKit          3D

 23 22  0  0  1  0  0  0  0  0999 V2000
   15.1132  -10.7683  -14.5990 N   0  0  0  0  0  0  0  0  0  0  0  0
   15.4781   -9.4528  -15.0441 C   0  0  1  0  0  0  0  0  0  0  0  0
   14.6477   -8.4377  -14.3185 C   0  0  0  0  0  0  0  0  0  0  0  0
   13.2318   -8.5713  -14.7401 C   0  0  0  0  0  0  0  0  0  0  0  0
   12.2852   -8.2147  -13.9718 O   0  0  0  0  0  0  0  0  0  0  0  0
   16.9246   -9.1895  -14.7711 C   0  0  0  0  0  0  0  0  0  0  0  0
   17.4232   -9.5635  -13.6793 O   0  0  0  0  0  0  0  0  0  0  0  0
   12.8602   -9.0849  -15.9780 O   0  0  0  0  0  0  0  0  0  0  0  0
   21.6227   -9.4559  -18.7452 N   0  0  0  0  0  0  0  0  0  0  0  0
   22.2874   -8.9225  -17.6178 C   0  0  0  0  0  0  0  0  0  0  0  0
   23.5334   -8.7814  -17.7038 O   0  0  0  0  0  0  0  0  0  0  0  0
   21.4729   -8.5775  -16.4410 C   0  0  0  0  0  0  0  0  0  0  0  0
   20.0074   -8.6976  -16.6145 C   0  0  0  0  0  0  0  0  0  0  0  0
   19.1671   -8.2731  -15.4563 C   0  0  2  0  0  0  0  0  0  0  0  0
   17.7611   -8.5359  -15.6898 N   0  0  0  0  0  0  0  0  0  0  0  0
   19.4035   -6.8515  -15.0994 C   0  0  0  0  0  0  0  0  0  0  0  0
   18.7200   -5.9483  -15.6394 O   0  0  0  0  0  0  0  0  0  0  0  0
   21.7145   -5.1279  -12.6643 C   0  0  0  0  0  0  0  0  0  0  0  0
   20.6756   -5.1340  -13.7877 C   0  0  2  0  0  0  0  0  0  0  0  0
   20.4086   -6.5020  -14.1407 N   0  0  0  0  0  0  0  0  0  0  0  0
   21.2617   -4.3647  -14.9137 C   0  0  0  0  0  0  0  0  0  0  0  0
   21.8076   -5.0192  -15.8384 O   0  0  0  0  0  0  0  0  0  0  0  0
   21.2452   -2.9936  -15.0083 O   0  0  0  0  0  0  0  0  0  0  0  0
  2  1  1  1
  3  2  1  0
  4  3  1  0
  5  4  2  0
  6  7  2  0
  6  2  1  0
  8  4  1  0
  9 10  1  0
 10 12  1  0
 11 10  2  0
 12 13  1  0
 14 13  1  6
 14 16  1  0
 14 15  1  0
 15  6  1  0
 16 17  2  0
 19 18  1  1
 20 19  1  0
 20 16  1  0
 21 19  1  0
 22 21  2  0
 23 21  1  0
M  END
$$$$
