DQA.pdb
     RDKit          3D

 23 22  0  0  1  0  0  0  0  0999 V2000
   17.8426  -11.4734  -14.6892 N   0  0  0  0  0  0  0  0  0  0  0  0
   17.2242  -10.3869  -15.3957 C   0  0  1  0  0  0  0  0  0  0  0  0
   15.7392  -10.4557  -15.2055 C   0  0  0  0  0  0  0  0  0  0  0  0
   15.2351  -11.7419  -15.7458 C   0  0  0  0  0  0  0  0  0  0  0  0
   15.4291  -12.0613  -16.9598 O   0  0  0  0  0  0  0  0  0  0  0  0
   17.7248   -9.0749  -14.8816 C   0  0  0  0  0  0  0  0  0  0  0  0
   17.7052   -8.8502  -13.6448 O   0  0  0  0  0  0  0  0  0  0  0  0
   14.5326  -12.6597  -14.9722 O   0  0  0  0  0  0  0  0  0  0  0  0
   22.1111   -8.8826  -16.5929 N   0  0  0  0  0  0  0  0  0  0  0  0
   22.1025   -8.7763  -15.1837 C   0  0  0  0  0  0  0  0  0  0  0  0
   22.8894   -9.5243  -14.5502 O   0  0  0  0  0  0  0  0  0  0  0  0
   21.1790   -7.8050  -14.5747 C   0  0  0  0  0  0  0  0  0  0  0  0
   20.3907   -6.9845  -15.5221 C   0  0  0  0  0  0  0  0  0  0  0  0
   18.9246   -6.8938  -15.2576 C   0  0  2  0  0  0  0  0  0  0  0  0
   18.2217   -8.0708  -15.7277 N   0  0  0  0  0  0  0  0  0  0  0  0
   18.3418   -5.6501  -15.8211 C   0  0  0  0  0  0  0  0  0  0  0  0
   18.1650   -5.5464  -17.0591 O   0  0  0  0  0  0  0  0  0  0  0  0
   16.2254   -2.9445  -14.6862 C   0  0  0  0  0  0  0  0  0  0  0  0
   17.4786   -3.3205  -15.4796 C   0  0  2  0  0  0  0  0  0  0  0  0
   17.9787   -4.5644  -14.9602 N   0  0  0  0  0  0  0  0  0  0  0  0
   18.4439   -2.2067  -15.3036 C   0  0  0  0  0  0  0  0  0  0  0  0
   19.5083   -2.4573  -14.6826 O   0  0  0  0  0  0  0  0  0  0  0  0
   18.2489   -0.9296  -15.7729 O   0  0  0  0  0  0  0  0  0  0  0  0
  2  1  1  1
  3  2  1  0
  4  3  1  0
  5  4  2  0
  6  7  2  0
  6  2  1  0
  8  4  1  0
  9 10  1  0
 10 12  1  0
 11 10  2  0
 12 13  1  0
 14 13  1  6
 14 16  1  0
 14 15  1  0
 15  6  1  0
 16 17  2  0
 19 18  1  1
 20 19  1  0
 20 16  1  0
 21 19  1  0
 22 21  2  0
 23 21  1  0
M  END
$$$$
