DQA.pdb
     RDKit          3D

 23 22  0  0  1  0  0  0  0  0999 V2000
   19.8495  -11.7696  -16.9599 N   0  0  0  0  0  0  0  0  0  0  0  0
   20.2141  -10.6113  -16.1935 C   0  0  1  0  0  0  0  0  0  0  0  0
   21.2135   -9.8034  -16.9647 C   0  0  0  0  0  0  0  0  0  0  0  0
   22.4645  -10.5862  -17.1159 C   0  0  0  0  0  0  0  0  0  0  0  0
   22.5514  -11.7715  -16.6676 O   0  0  0  0  0  0  0  0  0  0  0  0
   19.0114   -9.7677  -15.9142 C   0  0  0  0  0  0  0  0  0  0  0  0
   18.0961   -9.6968  -16.7731 O   0  0  0  0  0  0  0  0  0  0  0  0
   23.5972  -10.0810  -17.7453 O   0  0  0  0  0  0  0  0  0  0  0  0
   16.2228   -9.2142  -10.4694 N   0  0  0  0  0  0  0  0  0  0  0  0
   15.4243   -8.3438  -11.2454 C   0  0  0  0  0  0  0  0  0  0  0  0
   14.3725   -7.9076  -10.7132 O   0  0  0  0  0  0  0  0  0  0  0  0
   15.8850   -8.0202  -12.6056 C   0  0  0  0  0  0  0  0  0  0  0  0
   17.1382   -8.6814  -13.0355 C   0  0  0  0  0  0  0  0  0  0  0  0
   17.6610   -8.2980  -14.3798 C   0  0  2  0  0  0  0  0  0  0  0  0
   18.8562   -9.0427  -14.7220 N   0  0  0  0  0  0  0  0  0  0  0  0
   17.8830   -6.8338  -14.4845 C   0  0  0  0  0  0  0  0  0  0  0  0
   18.7807   -6.2860  -13.7998 O   0  0  0  0  0  0  0  0  0  0  0  0
   16.4493   -4.1537  -16.7134 C   0  0  0  0  0  0  0  0  0  0  0  0
   17.3244   -4.6356  -15.5544 C   0  0  2  0  0  0  0  0  0  0  0  0
   17.0783   -6.0393  -15.3636 N   0  0  0  0  0  0  0  0  0  0  0  0
   16.9420   -3.8293  -14.3683 C   0  0  0  0  0  0  0  0  0  0  0  0
   16.1177   -4.3370  -13.5658 O   0  0  0  0  0  0  0  0  0  0  0  0
   17.4283   -2.5732  -14.0945 O   0  0  0  0  0  0  0  0  0  0  0  0
  2  1  1  6
  3  2  1  0
  4  3  1  0
  5  4  2  0
  6  7  2  0
  6  2  1  0
  8  4  1  0
  9 10  1  0
 10 12  1  0
 11 10  2  0
 12 13  1  0
 14 13  1  1
 14 16  1  0
 14 15  1  0
 15  6  1  0
 16 17  2  0
 19 18  1  6
 20 19  1  0
 20 16  1  0
 21 19  1  0
 22 21  2  0
 23 21  1  0
M  END
$$$$
