DQA.pdb
     RDKit          3D

 23 22  0  0  1  0  0  0  0  0999 V2000
   19.8191  -12.6727  -18.4270 N   0  0  0  0  0  0  0  0  0  0  0  0
   20.7580  -12.0579  -17.5313 C   0  0  1  0  0  0  0  0  0  0  0  0
   22.1311  -12.1328  -18.1274 C   0  0  0  0  0  0  0  0  0  0  0  0
   22.6197  -13.5318  -18.0580 C   0  0  0  0  0  0  0  0  0  0  0  0
   21.8514  -14.4745  -17.6914 O   0  0  0  0  0  0  0  0  0  0  0  0
   20.4006  -10.6244  -17.3004 C   0  0  0  0  0  0  0  0  0  0  0  0
   20.1438   -9.8873  -18.2859 O   0  0  0  0  0  0  0  0  0  0  0  0
   23.9234  -13.8908  -18.3833 O   0  0  0  0  0  0  0  0  0  0  0  0
   16.3070   -9.1453  -13.3986 N   0  0  0  0  0  0  0  0  0  0  0  0
   16.1580   -9.3172  -14.7934 C   0  0  0  0  0  0  0  0  0  0  0  0
   15.0025   -9.5734  -15.2167 O   0  0  0  0  0  0  0  0  0  0  0  0
   17.3597   -9.1836  -15.6333 C   0  0  0  0  0  0  0  0  0  0  0  0
   18.5911   -8.7551  -14.9318 C   0  0  0  0  0  0  0  0  0  0  0  0
   19.8404   -8.7234  -15.7478 C   0  0  2  0  0  0  0  0  0  0  0  0
   20.3380  -10.0575  -16.0175 N   0  0  0  0  0  0  0  0  0  0  0  0
   20.8820   -7.8697  -15.1228 C   0  0  0  0  0  0  0  0  0  0  0  0
   21.5092   -8.2821  -14.1172 O   0  0  0  0  0  0  0  0  0  0  0  0
   22.3603   -4.5113  -15.9972 C   0  0  0  0  0  0  0  0  0  0  0  0
   22.1925   -5.7319  -15.0899 C   0  0  2  0  0  0  0  0  0  0  0  0
   21.1773   -6.5753  -15.6603 N   0  0  0  0  0  0  0  0  0  0  0  0
   21.8119   -5.2177  -13.7504 C   0  0  0  0  0  0  0  0  0  0  0  0
   22.6966   -4.6160  -13.0898 O   0  0  0  0  0  0  0  0  0  0  0  0
   20.5638   -5.3569  -13.1919 O   0  0  0  0  0  0  0  0  0  0  0  0
  2  1  1  6
  3  2  1  0
  4  3  1  0
  5  4  2  0
  6  7  2  0
  6  2  1  0
  8  4  1  0
  9 10  1  0
 10 12  1  0
 11 10  2  0
 12 13  1  0
 14 13  1  1
 14 16  1  0
 14 15  1  0
 15  6  1  0
 16 17  2  0
 19 18  1  6
 20 19  1  0
 20 16  1  0
 21 19  1  0
 22 21  2  0
 23 21  1  0
M  END
$$$$
