DQA.pdb
     RDKit          3D

 23 22  0  0  1  0  0  0  0  0999 V2000
   15.9348  -12.6734  -14.4303 N   0  0  0  0  0  0  0  0  0  0  0  0
   15.5073  -11.3027  -14.4398 C   0  0  1  0  0  0  0  0  0  0  0  0
   14.0097  -11.2521  -14.4088 C   0  0  0  0  0  0  0  0  0  0  0  0
   13.4842  -11.4505  -15.7818 C   0  0  0  0  0  0  0  0  0  0  0  0
   14.1076  -10.9974  -16.7915 O   0  0  0  0  0  0  0  0  0  0  0  0
   16.0479  -10.5768  -13.2494 C   0  0  0  0  0  0  0  0  0  0  0  0
   16.0536  -11.1486  -12.1298 O   0  0  0  0  0  0  0  0  0  0  0  0
   12.3000  -12.1311  -16.0435 O   0  0  0  0  0  0  0  0  0  0  0  0
   20.7694   -6.7450  -13.7816 N   0  0  0  0  0  0  0  0  0  0  0  0
   20.8807   -8.1110  -13.4365 C   0  0  0  0  0  0  0  0  0  0  0  0
   22.0039   -8.6511  -13.5997 O   0  0  0  0  0  0  0  0  0  0  0  0
   19.6807   -8.7873  -12.9172 C   0  0  0  0  0  0  0  0  0  0  0  0
   18.4923   -7.9269  -12.7174 C   0  0  0  0  0  0  0  0  0  0  0  0
   17.2535   -8.6099  -12.2415 C   0  0  2  0  0  0  0  0  0  0  0  0
   16.5553   -9.2700  -13.3264 N   0  0  0  0  0  0  0  0  0  0  0  0
   16.3614   -7.6779  -11.5069 C   0  0  0  0  0  0  0  0  0  0  0  0
   15.6639   -6.8489  -12.1402 O   0  0  0  0  0  0  0  0  0  0  0  0
   15.4427   -7.2599   -7.8757 C   0  0  0  0  0  0  0  0  0  0  0  0
   15.4774   -6.7942   -9.3329 C   0  0  2  0  0  0  0  0  0  0  0  0
   16.2903   -7.7177  -10.0769 N   0  0  0  0  0  0  0  0  0  0  0  0
   16.0429   -5.4218   -9.3279 C   0  0  0  0  0  0  0  0  0  0  0  0
   17.2063   -5.2746   -9.7819 O   0  0  0  0  0  0  0  0  0  0  0  0
   15.3802   -4.3113   -8.8621 O   0  0  0  0  0  0  0  0  0  0  0  0
  2  1  1  1
  3  2  1  0
  4  3  1  0
  5  4  2  0
  6  7  2  0
  6  2  1  0
  8  4  1  0
  9 10  1  0
 10 12  1  0
 11 10  2  0
 12 13  1  0
 14 13  1  6
 14 16  1  0
 14 15  1  0
 15  6  1  0
 16 17  2  0
 19 18  1  1
 20 19  1  0
 20 16  1  0
 21 19  1  0
 22 21  2  0
 23 21  1  0
M  END
$$$$
