CIH.pdb
     RDKit          3D

 25 25  0  0  1  0  0  0  0  0999 V2000
   19.1789  -14.9768  -17.2179 N   0  0  0  0  0  0  0  0  0  0  0  0
   19.7588  -13.7807  -17.7371 C   0  0  1  0  0  0  0  0  0  0  0  0
   18.8855  -13.1940  -18.8264 C   0  0  0  0  0  0  0  0  0  0  0  0
   18.8831  -14.2345  -20.3059 S   0  0  0  0  0  0  0  0  0  0  0  0
   19.9614  -12.7371  -16.6988 C   0  0  0  0  0  0  0  0  0  0  0  0
   19.1027  -12.5819  -15.7940 O   0  0  0  0  0  0  0  0  0  0  0  0
   24.3366  -12.1510  -13.8339 C   0  0  0  0  0  0  0  0  0  0  0  0
   22.8932  -12.2147  -14.3374 C   0  0  0  0  0  0  0  0  0  0  0  0
   22.5889  -10.9030  -14.9715 C   0  0  2  0  0  0  0  0  0  0  0  0
   22.6804   -9.8096  -13.9521 C   0  0  0  0  0  0  0  0  0  0  0  0
   21.2714  -10.8406  -15.6766 C   0  0  2  0  0  0  0  0  0  0  0  0
   21.0915  -11.8751  -16.6542 N   0  0  0  0  0  0  0  0  0  0  0  0
   20.9562   -9.4898  -16.2203 C   0  0  0  0  0  0  0  0  0  0  0  0
   21.6675   -9.0446  -17.1535 O   0  0  0  0  0  0  0  0  0  0  0  0
   19.8907   -8.6988  -15.7237 N   0  0  0  0  0  0  0  0  0  0  0  0
   19.5417   -7.3778  -16.2814 C   0  0  1  0  0  0  0  0  0  0  0  0
   18.1135   -7.0579  -16.0420 C   0  0  0  0  0  0  0  0  0  0  0  0
   17.7401   -5.7101  -16.5052 C   0  0  0  0  0  0  0  0  0  0  0  0
   18.3551   -4.8316  -17.3659 C   0  0  0  0  0  0  0  0  0  0  0  0
   17.5848   -3.7260  -17.5504 N   0  0  0  0  0  0  0  0  0  0  0  0
   16.5019   -3.9233  -16.8094 C   0  0  0  0  0  0  0  0  0  0  0  0
   16.5551   -5.0947  -16.1706 N   0  0  0  0  0  0  0  0  0  0  0  0
   20.4491   -6.3804  -15.5784 C   0  0  0  0  0  0  0  0  0  0  0  0
   20.6931   -6.5229  -14.3313 O   0  0  0  0  0  0  0  0  0  0  0  0
   21.0458   -5.3099  -16.1678 O   0  0  0  0  0  0  0  0  0  0  0  0
  2  3  1  0
  2  1  1  1
  3  4  1  0
  5  2  1  0
  6  5  2  0
  7  8  1  0
  8  9  1  0
  9 11  1  0
  9 10  1  1
 11 12  1  6
 12  5  1  0
 13 11  1  0
 13 15  1  0
 14 13  2  0
 16 15  1  0
 16 23  1  0
 16 17  1  1
 18 17  1  0
 18 19  2  0
 20 19  1  0
 21 22  2  0
 21 20  1  0
 22 18  1  0
 23 25  1  0
 24 23  2  0
M  END
$$$$
