CIH.pdb
     RDKit          3D

 25 25  0  0  1  0  0  0  0  0999 V2000
   25.4548   -8.3607  -19.0261 N   0  0  0  0  0  0  0  0  0  0  0  0
   25.0737   -7.4442  -18.0008 C   0  0  1  0  0  0  0  0  0  0  0  0
   24.9591   -6.0401  -18.5565 C   0  0  0  0  0  0  0  0  0  0  0  0
   24.6027   -4.8386  -17.2523 S   0  0  0  0  0  0  0  0  0  0  0  0
   23.7772   -7.7935  -17.3642 C   0  0  0  0  0  0  0  0  0  0  0  0
   22.8073   -8.1517  -18.0792 O   0  0  0  0  0  0  0  0  0  0  0  0
   23.1794  -11.1440  -13.2746 C   0  0  0  0  0  0  0  0  0  0  0  0
   23.0311  -10.3420  -14.5691 C   0  0  0  0  0  0  0  0  0  0  0  0
   22.4092   -9.0380  -14.2113 C   0  0  2  0  0  0  0  0  0  0  0  0
   21.0666   -9.2664  -13.5882 C   0  0  0  0  0  0  0  0  0  0  0  0
   22.2926   -8.0694  -15.3449 C   0  0  2  0  0  0  0  0  0  0  0  0
   23.5481   -7.7502  -15.9614 N   0  0  0  0  0  0  0  0  0  0  0  0
   21.5067   -6.8510  -15.0020 C   0  0  0  0  0  0  0  0  0  0  0  0
   21.9210   -6.1202  -14.0696 O   0  0  0  0  0  0  0  0  0  0  0  0
   20.3189   -6.4935  -15.6866 N   0  0  0  0  0  0  0  0  0  0  0  0
   19.5461   -5.2756  -15.3747 C   0  0  1  0  0  0  0  0  0  0  0  0
   19.7978   -4.2124  -16.3775 C   0  0  0  0  0  0  0  0  0  0  0  0
   20.4858   -3.0388  -15.8119 C   0  0  0  0  0  0  0  0  0  0  0  0
   20.9849   -2.7836  -14.5562 C   0  0  0  0  0  0  0  0  0  0  0  0
   21.6136   -1.5780  -14.5285 N   0  0  0  0  0  0  0  0  0  0  0  0
   21.5038   -1.0948  -15.7594 C   0  0  0  0  0  0  0  0  0  0  0  0
   20.8386   -1.9354  -16.5555 N   0  0  0  0  0  0  0  0  0  0  0  0
   18.0859   -5.6997  -15.3846 C   0  0  0  0  0  0  0  0  0  0  0  0
   17.7500   -6.7836  -15.9742 O   0  0  0  0  0  0  0  0  0  0  0  0
   17.0639   -5.0115  -14.8091 O   0  0  0  0  0  0  0  0  0  0  0  0
  2  3  1  0
  2  1  1  6
  3  4  1  0
  5  2  1  0
  6  5  2  0
  7  8  1  0
  8  9  1  0
  9 11  1  0
  9 10  1  6
 11 12  1  1
 12  5  1  0
 13 11  1  0
 13 15  1  0
 14 13  2  0
 16 15  1  0
 16 23  1  0
 16 17  1  6
 18 17  1  0
 18 19  2  0
 20 19  1  0
 21 22  2  0
 21 20  1  0
 22 18  1  0
 23 25  1  0
 24 23  2  0
M  END
$$$$
