CIH.pdb
     RDKit          3D

 25 25  0  0  1  0  0  0  0  0999 V2000
   42.6487   -9.0108   -5.7191 N   0  0  0  0  0  0  0  0  0  0  0  0
   41.2706   -8.6415   -5.6841 C   0  0  1  0  0  0  0  0  0  0  0  0
   41.1241   -7.1465   -5.4920 C   0  0  0  0  0  0  0  0  0  0  0  0
   41.8330   -6.6083   -3.9175 S   0  0  0  0  0  0  0  0  0  0  0  0
   40.5380   -9.0198   -6.9204 C   0  0  0  0  0  0  0  0  0  0  0  0
   41.1065   -8.9225   -8.0373 O   0  0  0  0  0  0  0  0  0  0  0  0
   36.6987  -12.9750   -7.0326 C   0  0  0  0  0  0  0  0  0  0  0  0
   37.9191  -12.0972   -7.3175 C   0  0  0  0  0  0  0  0  0  0  0  0
   37.4240  -10.8469   -7.9553 C   0  0  2  0  0  0  0  0  0  0  0  0
   36.7868  -11.1636   -9.2731 C   0  0  0  0  0  0  0  0  0  0  0  0
   38.4587   -9.7808   -8.1268 C   0  0  2  0  0  0  0  0  0  0  0  0
   39.1991   -9.4987   -6.9307 N   0  0  0  0  0  0  0  0  0  0  0  0
   37.9315   -8.5440   -8.7687 C   0  0  0  0  0  0  0  0  0  0  0  0
   37.3006   -7.7273   -8.0546 O   0  0  0  0  0  0  0  0  0  0  0  0
   38.1168   -8.2620  -10.1447 N   0  0  0  0  0  0  0  0  0  0  0  0
   38.0463   -6.8977  -10.7030 C   0  0  1  0  0  0  0  0  0  0  0  0
   38.9888   -5.9875  -10.0082 C   0  0  0  0  0  0  0  0  0  0  0  0
   38.6757   -4.5636  -10.2201 C   0  0  0  0  0  0  0  0  0  0  0  0
   37.6124   -3.9375  -10.8271 C   0  0  0  0  0  0  0  0  0  0  0  0
   37.7225   -2.5871  -10.7085 N   0  0  0  0  0  0  0  0  0  0  0  0
   38.8454   -2.3832  -10.0316 C   0  0  0  0  0  0  0  0  0  0  0  0
   39.4436   -3.5359   -9.7211 N   0  0  0  0  0  0  0  0  0  0  0  0
   38.4055   -7.0349  -12.1742 C   0  0  0  0  0  0  0  0  0  0  0  0
   39.3338   -7.8426  -12.5221 O   0  0  0  0  0  0  0  0  0  0  0  0
   37.8160   -6.3546  -13.1936 O   0  0  0  0  0  0  0  0  0  0  0  0
  2  3  1  0
  2  1  1  6
  3  4  1  0
  5  2  1  0
  6  5  2  0
  7  8  1  0
  8  9  1  0
  9 11  1  0
  9 10  1  6
 11 12  1  1
 12  5  1  0
 13 11  1  0
 13 15  1  0
 14 13  2  0
 16 15  1  0
 16 23  1  0
 16 17  1  1
 18 17  1  0
 18 19  2  0
 20 19  1  0
 21 22  2  0
 21 20  1  0
 22 18  1  0
 23 25  1  0
 24 23  2  0
M  END
$$$$
