CIH.pdb
     RDKit          3D

 25 25  0  0  1  0  0  0  0  0999 V2000
   28.0724  -21.3370  -15.8025 N   0  0  0  0  0  0  0  0  0  0  0  0
   27.4153  -20.3228  -15.0433 C   0  0  1  0  0  0  0  0  0  0  0  0
   26.9263  -19.2117  -15.9487 C   0  0  0  0  0  0  0  0  0  0  0  0
   28.2681  -18.0857  -16.3996 S   0  0  0  0  0  0  0  0  0  0  0  0
   26.2507  -20.8364  -14.2763 C   0  0  0  0  0  0  0  0  0  0  0  0
   25.5364  -21.7492  -14.7629 O   0  0  0  0  0  0  0  0  0  0  0  0
   26.1734  -21.0313   -8.7777 C   0  0  0  0  0  0  0  0  0  0  0  0
   26.0512  -21.4215  -10.2521 C   0  0  0  0  0  0  0  0  0  0  0  0
   24.8515  -20.7272  -10.7941 C   0  0  2  0  0  0  0  0  0  0  0  0
   23.6148  -21.2537  -10.1335 C   0  0  0  0  0  0  0  0  0  0  0  0
   24.7092  -20.7947  -12.2813 C   0  0  2  0  0  0  0  0  0  0  0  0
   25.8750  -20.3545  -12.9922 N   0  0  0  0  0  0  0  0  0  0  0  0
   23.4643  -20.1498  -12.7853 C   0  0  0  0  0  0  0  0  0  0  0  0
   23.4208  -18.8963  -12.8287 O   0  0  0  0  0  0  0  0  0  0  0  0
   22.3390  -20.8971  -13.2129 N   0  0  0  0  0  0  0  0  0  0  0  0
   21.1070  -20.2710  -13.7306 C   0  0  1  0  0  0  0  0  0  0  0  0
   21.3829  -19.4845  -14.9572 C   0  0  0  0  0  0  0  0  0  0  0  0
   21.9287  -20.3021  -16.0546 C   0  0  0  0  0  0  0  0  0  0  0  0
   22.1175  -21.6581  -16.1834 C   0  0  0  0  0  0  0  0  0  0  0  0
   22.5840  -21.9592  -17.4250 N   0  0  0  0  0  0  0  0  0  0  0  0
   22.6800  -20.7965  -18.0570 C   0  0  0  0  0  0  0  0  0  0  0  0
   22.2985  -19.7836  -17.2750 N   0  0  0  0  0  0  0  0  0  0  0  0
   20.1523  -21.4181  -14.0217 C   0  0  0  0  0  0  0  0  0  0  0  0
   20.5458  -22.6226  -13.8498 O   0  0  0  0  0  0  0  0  0  0  0  0
   18.8743  -21.2831  -14.4668 O   0  0  0  0  0  0  0  0  0  0  0  0
  2  3  1  0
  2  1  1  6
  3  4  1  0
  5  2  1  0
  6  5  2  0
  7  8  1  0
  8  9  1  0
  9 11  1  0
  9 10  1  1
 11 12  1  6
 12  5  1  0
 13 11  1  0
 13 15  1  0
 14 13  2  0
 16 15  1  0
 16 23  1  0
 16 17  1  6
 18 17  1  0
 18 19  2  0
 20 19  1  0
 21 22  2  0
 21 20  1  0
 22 18  1  0
 23 25  1  0
 24 23  2  0
M  END
$$$$
