CIH.pdb
     RDKit          3D

 25 25  0  0  1  0  0  0  0  0999 V2000
   30.1777  -29.6784  -19.1498 N   0  0  0  0  0  0  0  0  0  0  0  0
   29.0866  -29.1307  -18.4106 C   0  0  1  0  0  0  0  0  0  0  0  0
   28.4081  -28.0297  -19.1985 C   0  0  0  0  0  0  0  0  0  0  0  0
   29.5018  -26.6072  -19.4258 S   0  0  0  0  0  0  0  0  0  0  0  0
   28.0586  -30.1444  -18.0588 C   0  0  0  0  0  0  0  0  0  0  0  0
   27.8448  -31.1113  -18.8331 O   0  0  0  0  0  0  0  0  0  0  0  0
   28.3096  -33.5810  -14.4595 C   0  0  0  0  0  0  0  0  0  0  0  0
   28.0343  -32.6845  -15.6684 C   0  0  0  0  0  0  0  0  0  0  0  0
   26.7341  -32.0024  -15.4248 C   0  0  2  0  0  0  0  0  0  0  0  0
   25.6692  -33.0178  -15.1457 C   0  0  0  0  0  0  0  0  0  0  0  0
   26.2953  -31.0843  -16.5208 C   0  0  2  0  0  0  0  0  0  0  0  0
   27.2754  -30.0975  -16.8728 N   0  0  0  0  0  0  0  0  0  0  0  0
   24.9511  -30.4858  -16.2870 C   0  0  0  0  0  0  0  0  0  0  0  0
   24.8562  -29.5424  -15.4648 O   0  0  0  0  0  0  0  0  0  0  0  0
   23.7879  -30.9418  -16.9552 N   0  0  0  0  0  0  0  0  0  0  0  0
   22.4539  -30.3468  -16.7449 C   0  0  1  0  0  0  0  0  0  0  0  0
   21.9205  -29.7739  -18.0045 C   0  0  0  0  0  0  0  0  0  0  0  0
   22.6013  -28.5302  -18.4048 C   0  0  0  0  0  0  0  0  0  0  0  0
   22.8999  -27.3819  -17.7096 C   0  0  0  0  0  0  0  0  0  0  0  0
   23.6168  -26.5263  -18.4867 N   0  0  0  0  0  0  0  0  0  0  0  0
   23.7600  -27.1445  -19.6520 C   0  0  0  0  0  0  0  0  0  0  0  0
   23.1695  -28.3420  -19.6445 N   0  0  0  0  0  0  0  0  0  0  0  0
   21.5713  -31.4794  -16.2443 C   0  0  0  0  0  0  0  0  0  0  0  0
   21.8604  -32.6858  -16.5545 O   0  0  0  0  0  0  0  0  0  0  0  0
   20.4613  -31.3285  -15.4732 O   0  0  0  0  0  0  0  0  0  0  0  0
  2  3  1  0
  2  1  1  6
  3  4  1  0
  5  2  1  0
  6  5  2  0
  7  8  1  0
  8  9  1  0
  9 11  1  0
  9 10  1  6
 11 12  1  1
 12  5  1  0
 13 11  1  0
 13 15  1  0
 14 13  2  0
 16 15  1  0
 16 23  1  0
 16 17  1  6
 18 17  1  0
 18 19  2  0
 20 19  1  0
 21 22  2  0
 21 20  1  0
 22 18  1  0
 23 25  1  0
 24 23  2  0
M  END
$$$$
