CIH.pdb
     RDKit          3D

 25 25  0  0  1  0  0  0  0  0999 V2000
   18.3665  -14.7155  -15.5419 N   0  0  0  0  0  0  0  0  0  0  0  0
   18.7043  -13.6381  -16.4147 C   0  0  1  0  0  0  0  0  0  0  0  0
   17.4666  -13.1015  -17.1030 C   0  0  0  0  0  0  0  0  0  0  0  0
   16.6929  -14.3582  -18.1488 S   0  0  0  0  0  0  0  0  0  0  0  0
   19.3650  -12.5081  -15.7113 C   0  0  0  0  0  0  0  0  0  0  0  0
   18.9288  -12.1267  -14.5956 O   0  0  0  0  0  0  0  0  0  0  0  0
   24.6085  -12.0163  -14.8173 C   0  0  0  0  0  0  0  0  0  0  0  0
   23.0792  -12.0465  -14.7829 C   0  0  0  0  0  0  0  0  0  0  0  0
   22.5982  -10.8120  -15.4611 C   0  0  2  0  0  0  0  0  0  0  0  0
   23.1650   -9.6030  -14.7829 C   0  0  0  0  0  0  0  0  0  0  0  0
   21.1108  -10.6947  -15.5638 C   0  0  2  0  0  0  0  0  0  0  0  0
   20.4896  -11.8058  -16.2255 N   0  0  0  0  0  0  0  0  0  0  0  0
   20.6583   -9.3861  -16.1136 C   0  0  0  0  0  0  0  0  0  0  0  0
   20.9675   -9.1000  -17.2959 O   0  0  0  0  0  0  0  0  0  0  0  0
   19.8982   -8.4628  -15.3538 N   0  0  0  0  0  0  0  0  0  0  0  0
   19.4664   -7.1525  -15.8778 C   0  0  1  0  0  0  0  0  0  0  0  0
   18.2485   -6.6738  -15.1800 C   0  0  0  0  0  0  0  0  0  0  0  0
   17.8408   -5.3207  -15.5965 C   0  0  0  0  0  0  0  0  0  0  0  0
   17.6665   -4.7553  -16.8378 C   0  0  0  0  0  0  0  0  0  0  0  0
   17.1997   -3.4832  -16.7216 N   0  0  0  0  0  0  0  0  0  0  0  0
   17.0857   -3.2674  -15.4174 C   0  0  0  0  0  0  0  0  0  0  0  0
   17.4575   -4.3383  -14.7117 N   0  0  0  0  0  0  0  0  0  0  0  0
   20.6355   -6.2089  -15.6435 C   0  0  0  0  0  0  0  0  0  0  0  0
   20.7084   -5.1204  -16.3107 O   0  0  0  0  0  0  0  0  0  0  0  0
   21.6506   -6.4191  -14.7632 O   0  0  0  0  0  0  0  0  0  0  0  0
  2  3  1  0
  2  1  1  1
  3  4  1  0
  5  2  1  0
  6  5  2  0
  7  8  1  0
  8  9  1  0
  9 11  1  0
  9 10  1  1
 11 12  1  6
 12  5  1  0
 13 11  1  0
 13 15  1  0
 14 13  2  0
 16 15  1  0
 16 23  1  0
 16 17  1  1
 18 17  1  0
 18 19  2  0
 20 19  1  0
 21 22  2  0
 21 20  1  0
 22 18  1  0
 23 25  1  0
 24 23  2  0
M  END
$$$$
