CIH.pdb
     RDKit          3D

 25 25  0  0  1  0  0  0  0  0999 V2000
   20.0743  -16.2327  -16.6884 N   0  0  0  0  0  0  0  0  0  0  0  0
   20.2837  -15.2326  -15.6921 C   0  0  1  0  0  0  0  0  0  0  0  0
   21.6442  -15.3984  -15.0479 C   0  0  0  0  0  0  0  0  0  0  0  0
   21.7259  -16.9052  -14.0509 S   0  0  0  0  0  0  0  0  0  0  0  0
   20.1960  -13.8506  -16.2312 C   0  0  0  0  0  0  0  0  0  0  0  0
   20.5855  -13.6116  -17.4023 O   0  0  0  0  0  0  0  0  0  0  0  0
   16.0380  -11.4036  -17.5235 C   0  0  0  0  0  0  0  0  0  0  0  0
   17.4949  -11.8584  -17.4156 C   0  0  0  0  0  0  0  0  0  0  0  0
   18.1313  -11.0485  -16.3413 C   0  0  2  0  0  0  0  0  0  0  0  0
   18.0458   -9.5923  -16.6809 C   0  0  0  0  0  0  0  0  0  0  0  0
   19.5459  -11.4226  -16.0316 C   0  0  2  0  0  0  0  0  0  0  0  0
   19.6876  -12.7454  -15.4947 N   0  0  0  0  0  0  0  0  0  0  0  0
   20.2610  -10.4026  -15.2144 C   0  0  0  0  0  0  0  0  0  0  0  0
   19.9568  -10.2938  -14.0017 O   0  0  0  0  0  0  0  0  0  0  0  0
   21.2631   -9.5596  -15.7554 N   0  0  0  0  0  0  0  0  0  0  0  0
   22.0236   -8.5902  -14.9431 C   0  0  1  0  0  0  0  0  0  0  0  0
   23.3696   -8.3519  -15.5182 C   0  0  0  0  0  0  0  0  0  0  0  0
   24.2337   -9.5444  -15.4742 C   0  0  0  0  0  0  0  0  0  0  0  0
   24.0288  -10.8091  -14.9746 C   0  0  0  0  0  0  0  0  0  0  0  0
   25.0998  -11.6053  -15.2371 N   0  0  0  0  0  0  0  0  0  0  0  0
   25.9576  -10.8363  -15.8954 C   0  0  0  0  0  0  0  0  0  0  0  0
   25.4791   -9.6003  -16.0579 N   0  0  0  0  0  0  0  0  0  0  0  0
   21.1970   -7.3138  -14.9430 C   0  0  0  0  0  0  0  0  0  0  0  0
   20.4923   -7.0211  -15.9692 O   0  0  0  0  0  0  0  0  0  0  0  0
   21.1344   -6.4183  -13.9215 O   0  0  0  0  0  0  0  0  0  0  0  0
  2  3  1  0
  2  1  1  6
  3  4  1  0
  5  2  1  0
  6  5  2  0
  7  8  1  0
  8  9  1  0
  9 11  1  0
  9 10  1  6
 11 12  1  1
 12  5  1  0
 13 11  1  0
 13 15  1  0
 14 13  2  0
 16 15  1  0
 16 23  1  0
 16 17  1  6
 18 17  1  0
 18 19  2  0
 20 19  1  0
 21 22  2  0
 21 20  1  0
 22 18  1  0
 23 25  1  0
 24 23  2  0
M  END
$$$$
