CIH.pdb
     RDKit          3D

 25 25  0  0  1  0  0  0  0  0999 V2000
   16.7899  -11.7782  -14.6884 N   0  0  0  0  0  0  0  0  0  0  0  0
   17.7600  -11.3352  -15.6368 C   0  0  1  0  0  0  0  0  0  0  0  0
   17.1380  -10.3702  -16.6245 C   0  0  0  0  0  0  0  0  0  0  0  0
   15.5868  -11.0158  -17.2941 S   0  0  0  0  0  0  0  0  0  0  0  0
   18.9221  -10.6592  -15.0039 C   0  0  0  0  0  0  0  0  0  0  0  0
   18.7855  -10.0973  -13.8877 O   0  0  0  0  0  0  0  0  0  0  0  0
   23.8771  -12.7735  -14.6097 C   0  0  0  0  0  0  0  0  0  0  0  0
   22.5342  -12.0780  -14.3772 C   0  0  0  0  0  0  0  0  0  0  0  0
   22.6046  -10.7490  -15.0436 C   0  0  2  0  0  0  0  0  0  0  0  0
   23.7449   -9.9564  -14.4828 C   0  0  0  0  0  0  0  0  0  0  0  0
   21.3418   -9.9503  -14.9794 C   0  0  2  0  0  0  0  0  0  0  0  0
   20.2172  -10.6005  -15.5883 N   0  0  0  0  0  0  0  0  0  0  0  0
   21.5060   -8.5470  -15.4524 C   0  0  0  0  0  0  0  0  0  0  0  0
   22.3150   -7.8060  -14.8429 O   0  0  0  0  0  0  0  0  0  0  0  0
   20.7864   -8.0264  -16.5562 N   0  0  0  0  0  0  0  0  0  0  0  0
   20.8729   -6.6154  -16.9797 C   0  0  1  0  0  0  0  0  0  0  0  0
   20.9071   -6.5030  -18.4580 C   0  0  0  0  0  0  0  0  0  0  0  0
   20.9706   -5.1081  -18.9280 C   0  0  0  0  0  0  0  0  0  0  0  0
   20.1227   -4.0400  -18.7514 C   0  0  0  0  0  0  0  0  0  0  0  0
   20.6457   -2.9174  -19.3135 N   0  0  0  0  0  0  0  0  0  0  0  0
   21.8087   -3.2916  -19.8312 C   0  0  0  0  0  0  0  0  0  0  0  0
   22.0400   -4.5900  -19.6227 N   0  0  0  0  0  0  0  0  0  0  0  0
   19.6369   -5.9371  -16.4098 C   0  0  0  0  0  0  0  0  0  0  0  0
   19.4787   -4.6787  -16.5730 O   0  0  0  0  0  0  0  0  0  0  0  0
   18.6483   -6.5610  -15.7148 O   0  0  0  0  0  0  0  0  0  0  0  0
  2  3  1  0
  2  1  1  1
  3  4  1  0
  5  2  1  0
  6  5  2  0
  7  8  1  0
  8  9  1  0
  9 11  1  0
  9 10  1  1
 11 12  1  6
 12  5  1  0
 13 11  1  0
 13 15  1  0
 14 13  2  0
 16 15  1  0
 16 23  1  0
 16 17  1  6
 18 17  1  0
 18 19  2  0
 20 19  1  0
 21 22  2  0
 21 20  1  0
 22 18  1  0
 23 25  1  0
 24 23  2  0
M  END
$$$$
