IVT.pdb
     RDKit          3D

 23 22  0  0  1  0  0  0  0  0999 V2000
    6.8735  -17.8346   19.4542 C   0  0  0  0  0  0  0  0  0  0  0  0
    6.7610  -16.3758   19.7751 C   0  0  0  0  0  0  0  0  0  0  0  0
    7.3138  -16.1320   21.1595 C   0  0  2  0  0  0  0  0  0  0  0  0
    6.6494  -16.9692   22.2146 C   0  0  0  0  0  0  0  0  0  0  0  0
    7.1048  -14.6436   21.4667 C   0  0  2  0  0  0  0  0  0  0  0  0
    7.8124  -13.8776   20.4621 N   0  0  0  0  0  0  0  0  0  0  0  0
    7.7248  -14.3851   22.7780 C   0  0  0  0  0  0  0  0  0  0  0  0
    8.9783  -14.3519   22.8799 O   0  0  0  0  0  0  0  0  0  0  0  0
    7.4472  -12.8078   27.4659 C   0  0  0  0  0  0  0  0  0  0  0  0
    6.8801  -13.0336   26.1021 C   0  0  1  0  0  0  0  0  0  0  0  0
    6.5352  -11.7223   25.4623 C   0  0  0  0  0  0  0  0  0  0  0  0
    7.7041  -13.9669   25.2395 C   0  0  2  0  0  0  0  0  0  0  0  0
    6.9891  -14.1653   23.9636 N   0  0  0  0  0  0  0  0  0  0  0  0
    7.9782  -15.2777   25.8687 C   0  0  0  0  0  0  0  0  0  0  0  0
    7.0308  -16.0509   26.2216 O   0  0  0  0  0  0  0  0  0  0  0  0
    9.6988  -18.0388   24.3703 C   0  0  0  0  0  0  0  0  0  0  0  0
   10.3852  -17.8082   25.6741 C   0  0  1  0  0  0  0  0  0  0  0  0
   11.6123  -17.1634   25.4342 O   0  0  0  0  0  0  0  0  0  0  0  0
    9.5559  -17.0598   26.6708 C   0  0  2  0  0  0  0  0  0  0  0  0
    9.2731  -15.7440   26.1093 N   0  0  0  0  0  0  0  0  0  0  0  0
   10.1689  -16.9587   28.0055 C   0  0  0  0  0  0  0  0  0  0  0  0
   10.5938  -15.8555   28.4902 O   0  0  0  0  0  0  0  0  0  0  0  0
   10.3227  -18.0676   28.8241 O   0  0  0  0  0  0  0  0  0  0  0  0
  2  1  1  0
  2  3  1  0
  3  4  1  1
  3  5  1  0
  5  7  1  0
  5  6  1  6
  7  8  2  0
  7 13  1  0
 10  9  1  1
 10 11  1  0
 12 14  1  0
 12 10  1  0
 12 13  1  6
 14 20  1  0
 15 14  2  0
 17 16  1  6
 17 18  1  0
 19 17  1  0
 19 21  1  0
 19 20  1  6
 21 22  2  0
 21 23  1  0
M  END
$$$$
