IVT.pdb
     RDKit          3D

 23 22  0  0  1  0  0  0  0  0999 V2000
    8.0053  -20.9050   16.0614 C   0  0  0  0  0  0  0  0  0  0  0  0
    7.6720  -19.4534   15.9026 C   0  0  0  0  0  0  0  0  0  0  0  0
    8.2338  -18.6876   17.0771 C   0  0  2  0  0  0  0  0  0  0  0  0
    7.7100  -19.1701   18.3994 C   0  0  0  0  0  0  0  0  0  0  0  0
    7.8544  -17.2156   16.8716 C   0  0  2  0  0  0  0  0  0  0  0  0
    8.4518  -16.7705   15.6299 N   0  0  0  0  0  0  0  0  0  0  0  0
    8.4582  -16.4579   17.9817 C   0  0  0  0  0  0  0  0  0  0  0  0
    9.7103  -16.3898   18.0824 O   0  0  0  0  0  0  0  0  0  0  0  0
    7.9511  -13.2725   21.7735 C   0  0  0  0  0  0  0  0  0  0  0  0
    7.5242  -13.9058   20.4893 C   0  0  1  0  0  0  0  0  0  0  0  0
    7.2857  -12.8534   19.4484 C   0  0  0  0  0  0  0  0  0  0  0  0
    8.4075  -15.0533   20.0453 C   0  0  2  0  0  0  0  0  0  0  0  0
    7.7078  -15.7828   18.9698 N   0  0  0  0  0  0  0  0  0  0  0  0
    8.7653  -15.9891   21.1342 C   0  0  0  0  0  0  0  0  0  0  0  0
    7.8828  -16.7111   21.6999 O   0  0  0  0  0  0  0  0  0  0  0  0
   12.1961  -18.7566   23.2354 C   0  0  0  0  0  0  0  0  0  0  0  0
   11.6272  -17.8469   22.1996 C   0  0  1  0  0  0  0  0  0  0  0  0
   11.3318  -18.5980   21.0474 O   0  0  0  0  0  0  0  0  0  0  0  0
   10.4385  -17.0658   22.6669 C   0  0  2  0  0  0  0  0  0  0  0  0
   10.0734  -16.1395   21.6015 N   0  0  0  0  0  0  0  0  0  0  0  0
   10.6458  -16.3661   23.9455 C   0  0  0  0  0  0  0  0  0  0  0  0
   11.1548  -15.1965   24.0198 O   0  0  0  0  0  0  0  0  0  0  0  0
   10.2967  -16.9420   25.1579 O   0  0  0  0  0  0  0  0  0  0  0  0
  2  1  1  0
  2  3  1  0
  3  4  1  1
  3  5  1  0
  5  7  1  0
  5  6  1  6
  7  8  2  0
  7 13  1  0
 10  9  1  1
 10 11  1  0
 12 14  1  0
 12 10  1  0
 12 13  1  6
 14 20  1  0
 15 14  2  0
 17 16  1  1
 17 18  1  0
 19 17  1  0
 19 21  1  0
 19 20  1  6
 21 22  2  0
 21 23  1  0
M  END
$$$$
