IVT.pdb
     RDKit          3D

 23 22  0  0  1  0  0  0  0  0999 V2000
    5.9501  -22.1886   24.5853 C   0  0  0  0  0  0  0  0  0  0  0  0
    5.1948  -20.9177   24.3446 C   0  0  0  0  0  0  0  0  0  0  0  0
    6.1782  -19.7809   24.1958 C   0  0  2  0  0  0  0  0  0  0  0  0
    7.1445  -19.6845   25.3416 C   0  0  0  0  0  0  0  0  0  0  0  0
    5.3552  -18.4901   24.0979 C   0  0  2  0  0  0  0  0  0  0  0  0
    4.6057  -18.5322   22.8596 N   0  0  0  0  0  0  0  0  0  0  0  0
    6.3144  -17.3739   24.0288 C   0  0  0  0  0  0  0  0  0  0  0  0
    6.8995  -17.1200   22.9444 O   0  0  0  0  0  0  0  0  0  0  0  0
    8.4145  -13.3560   26.0855 C   0  0  0  0  0  0  0  0  0  0  0  0
    7.3320  -14.3771   25.9514 C   0  0  1  0  0  0  0  0  0  0  0  0
    6.0104  -13.7036   25.7340 C   0  0  0  0  0  0  0  0  0  0  0  0
    7.6508  -15.4872   24.9716 C   0  0  2  0  0  0  0  0  0  0  0  0
    6.6326  -16.5443   25.1270 N   0  0  0  0  0  0  0  0  0  0  0  0
    9.0024  -16.0653   25.1411 C   0  0  0  0  0  0  0  0  0  0  0  0
    9.3530  -16.6127   26.2353 O   0  0  0  0  0  0  0  0  0  0  0  0
   10.6133  -17.8692   22.0067 C   0  0  0  0  0  0  0  0  0  0  0  0
   11.6298  -17.1106   22.7912 C   0  0  1  0  0  0  0  0  0  0  0  0
   11.9663  -15.9398   22.0876 O   0  0  0  0  0  0  0  0  0  0  0  0
   11.2076  -16.8067   24.1951 C   0  0  2  0  0  0  0  0  0  0  0  0
    9.9631  -16.0497   24.1268 N   0  0  0  0  0  0  0  0  0  0  0  0
   12.2277  -16.1015   24.9885 C   0  0  0  0  0  0  0  0  0  0  0  0
   12.0818  -14.8973   25.3899 O   0  0  0  0  0  0  0  0  0  0  0  0
   13.4202  -16.7098   25.3507 O   0  0  0  0  0  0  0  0  0  0  0  0
  2  1  1  0
  2  3  1  0
  3  4  1  1
  3  5  1  0
  5  7  1  0
  5  6  1  6
  7  8  2  0
  7 13  1  0
 10  9  1  6
 10 11  1  0
 12 14  1  0
 12 10  1  0
 12 13  1  1
 14 20  1  0
 15 14  2  0
 17 16  1  6
 17 18  1  0
 19 17  1  0
 19 21  1  0
 19 20  1  6
 21 22  2  0
 21 23  1  0
M  END
$$$$
