IVT.pdb
     RDKit          3D

 23 22  0  0  1  0  0  0  0  0999 V2000
    6.9292  -11.6118   27.7827 C   0  0  0  0  0  0  0  0  0  0  0  0
    6.1010  -12.5489   26.9586 C   0  0  0  0  0  0  0  0  0  0  0  0
    7.0169  -13.4954   26.2192 C   0  0  2  0  0  0  0  0  0  0  0  0
    8.0542  -12.7876   25.3953 C   0  0  0  0  0  0  0  0  0  0  0  0
    6.1290  -14.3566   25.3119 C   0  0  2  0  0  0  0  0  0  0  0  0
    5.3193  -15.2076   26.1585 N   0  0  0  0  0  0  0  0  0  0  0  0
    7.0288  -15.2074   24.5135 C   0  0  0  0  0  0  0  0  0  0  0  0
    7.3965  -16.3226   24.9648 O   0  0  0  0  0  0  0  0  0  0  0  0
    9.3107  -16.1890   20.1870 C   0  0  0  0  0  0  0  0  0  0  0  0
    8.3913  -15.3792   21.0423 C   0  0  1  0  0  0  0  0  0  0  0  0
    7.0364  -15.2926   20.4064 C   0  0  0  0  0  0  0  0  0  0  0  0
    8.3865  -15.7889   22.5004 C   0  0  2  0  0  0  0  0  0  0  0  0
    7.5221  -14.8483   23.2396 N   0  0  0  0  0  0  0  0  0  0  0  0
    9.7312  -15.8232   23.1169 C   0  0  0  0  0  0  0  0  0  0  0  0
   10.3276  -14.7519   23.4583 O   0  0  0  0  0  0  0  0  0  0  0  0
   13.1056  -18.5132   25.4983 C   0  0  0  0  0  0  0  0  0  0  0  0
   11.7725  -18.2617   24.8787 C   0  0  1  0  0  0  0  0  0  0  0  0
   10.8060  -18.1779   25.8975 O   0  0  0  0  0  0  0  0  0  0  0  0
   11.7367  -17.0602   23.9863 C   0  0  2  0  0  0  0  0  0  0  0  0
   10.4195  -17.0140   23.3622 N   0  0  0  0  0  0  0  0  0  0  0  0
   12.8131  -17.0267   22.9824 C   0  0  0  0  0  0  0  0  0  0  0  0
   12.7342  -17.6364   21.8624 O   0  0  0  0  0  0  0  0  0  0  0  0
   13.9891  -16.3233   23.1962 O   0  0  0  0  0  0  0  0  0  0  0  0
  2  1  1  0
  2  3  1  0
  3  4  1  6
  3  5  1  0
  5  7  1  0
  5  6  1  1
  7  8  2  0
  7 13  1  0
 10  9  1  6
 10 11  1  0
 12 14  1  0
 12 10  1  0
 12 13  1  1
 14 20  1  0
 15 14  2  0
 17 16  1  1
 17 18  1  0
 19 17  1  0
 19 21  1  0
 19 20  1  6
 21 22  2  0
 21 23  1  0
M  END
$$$$
