IVT.pdb
     RDKit          3D

 23 22  0  0  1  0  0  0  0  0999 V2000
    7.1171  -11.1964   27.8017 C   0  0  0  0  0  0  0  0  0  0  0  0
    6.2419  -12.1787   27.0856 C   0  0  0  0  0  0  0  0  0  0  0  0
    7.1128  -13.1775   26.3609 C   0  0  2  0  0  0  0  0  0  0  0  0
    8.1167  -12.5312   25.4496 C   0  0  0  0  0  0  0  0  0  0  0  0
    6.1749  -14.0788   25.5477 C   0  0  2  0  0  0  0  0  0  0  0  0
    5.4480  -14.9187   26.4766 N   0  0  0  0  0  0  0  0  0  0  0  0
    7.0273  -14.9368   24.7063 C   0  0  0  0  0  0  0  0  0  0  0  0
    7.4441  -16.0353   25.1560 O   0  0  0  0  0  0  0  0  0  0  0  0
    8.8643  -16.0315   20.1990 C   0  0  0  0  0  0  0  0  0  0  0  0
    8.0657  -15.1766   21.1285 C   0  0  1  0  0  0  0  0  0  0  0  0
    6.6652  -15.0245   20.6159 C   0  0  0  0  0  0  0  0  0  0  0  0
    8.1716  -15.5838   22.5836 C   0  0  2  0  0  0  0  0  0  0  0  0
    7.4209  -14.6030   23.3915 N   0  0  0  0  0  0  0  0  0  0  0  0
    9.5628  -15.6799   23.0785 C   0  0  0  0  0  0  0  0  0  0  0  0
   10.2786  -14.6400   23.2398 O   0  0  0  0  0  0  0  0  0  0  0  0
   10.9117  -17.6198   26.2611 C   0  0  0  0  0  0  0  0  0  0  0  0
   11.5296  -18.0568   24.9760 C   0  0  1  0  0  0  0  0  0  0  0  0
   10.8888  -19.2305   24.5392 O   0  0  0  0  0  0  0  0  0  0  0  0
   11.5283  -17.0015   23.9140 C   0  0  2  0  0  0  0  0  0  0  0  0
   10.1685  -16.8978   23.3975 N   0  0  0  0  0  0  0  0  0  0  0  0
   12.5013  -17.2362   22.8344 C   0  0  0  0  0  0  0  0  0  0  0  0
   12.1778  -17.7526   21.7114 O   0  0  0  0  0  0  0  0  0  0  0  0
   13.8411  -16.9069   22.9748 O   0  0  0  0  0  0  0  0  0  0  0  0
  2  1  1  0
  2  3  1  0
  3  4  1  6
  3  5  1  0
  5  7  1  0
  5  6  1  1
  7  8  2  0
  7 13  1  0
 10  9  1  6
 10 11  1  0
 12 14  1  0
 12 10  1  0
 12 13  1  1
 14 20  1  0
 15 14  2  0
 17 16  1  1
 17 18  1  0
 19 17  1  0
 19 21  1  0
 19 20  1  6
 21 22  2  0
 21 23  1  0
M  END
$$$$
