IVT.pdb
     RDKit          3D

 23 22  0  0  1  0  0  0  0  0999 V2000
    9.0882  -20.3524   29.0920 C   0  0  0  0  0  0  0  0  0  0  0  0
    7.7784  -19.6896   28.7939 C   0  0  0  0  0  0  0  0  0  0  0  0
    7.9217  -18.8561   27.5425 C   0  0  2  0  0  0  0  0  0  0  0  0
    9.0689  -17.8889   27.6074 C   0  0  0  0  0  0  0  0  0  0  0  0
    6.6041  -18.0910   27.3637 C   0  0  2  0  0  0  0  0  0  0  0  0
    5.5820  -19.0454   26.9882 N   0  0  0  0  0  0  0  0  0  0  0  0
    6.8022  -17.1507   26.2468 C   0  0  0  0  0  0  0  0  0  0  0  0
    6.6239  -17.5404   25.0640 O   0  0  0  0  0  0  0  0  0  0  0  0
    7.6758  -12.5262   24.6021 C   0  0  0  0  0  0  0  0  0  0  0  0
    7.2320  -13.5107   25.6348 C   0  0  1  0  0  0  0  0  0  0  0  0
    5.8543  -13.1683   26.1168 C   0  0  0  0  0  0  0  0  0  0  0  0
    7.4245  -14.9573   25.2291 C   0  0  2  0  0  0  0  0  0  0  0  0
    7.1895  -15.8029   26.4158 N   0  0  0  0  0  0  0  0  0  0  0  0
    8.7610  -15.2477   24.6643 C   0  0  0  0  0  0  0  0  0  0  0  0
    9.8043  -15.2239   25.3929 O   0  0  0  0  0  0  0  0  0  0  0  0
   11.0544  -17.3453   20.7727 C   0  0  0  0  0  0  0  0  0  0  0  0
    9.9021  -16.6505   21.4158 C   0  0  1  0  0  0  0  0  0  0  0  0
    8.7721  -17.4857   21.3482 O   0  0  0  0  0  0  0  0  0  0  0  0
   10.1718  -16.2022   22.8186 C   0  0  2  0  0  0  0  0  0  0  0  0
    8.9594  -15.5639   23.3179 N   0  0  0  0  0  0  0  0  0  0  0  0
   11.3425  -15.3196   22.9513 C   0  0  0  0  0  0  0  0  0  0  0  0
   11.3170  -14.0830   22.6307 O   0  0  0  0  0  0  0  0  0  0  0  0
   12.5555  -15.7840   23.4376 O   0  0  0  0  0  0  0  0  0  0  0  0
  2  1  1  0
  2  3  1  0
  3  4  1  1
  3  5  1  0
  5  7  1  0
  5  6  1  6
  7  8  2  0
  7 13  1  0
 10  9  1  6
 10 11  1  0
 12 14  1  0
 12 10  1  0
 12 13  1  1
 14 20  1  0
 15 14  2  0
 17 16  1  1
 17 18  1  0
 19 17  1  0
 19 21  1  0
 19 20  1  6
 21 22  2  0
 21 23  1  0
M  END
$$$$
