IVT.pdb
     RDKit          3D

 23 22  0  0  1  0  0  0  0  0999 V2000
    7.7096  -12.0912   18.5561 C   0  0  0  0  0  0  0  0  0  0  0  0
    7.8837  -13.5739   18.6786 C   0  0  0  0  0  0  0  0  0  0  0  0
    7.6201  -13.9844   20.1080 C   0  0  2  0  0  0  0  0  0  0  0  0
    8.4262  -13.2007   21.1039 C   0  0  0  0  0  0  0  0  0  0  0  0
    7.9664  -15.4750   20.2144 C   0  0  2  0  0  0  0  0  0  0  0  0
    6.9492  -16.2208   19.5032 N   0  0  0  0  0  0  0  0  0  0  0  0
    7.8976  -15.8306   21.6426 C   0  0  0  0  0  0  0  0  0  0  0  0
    6.7777  -15.9996   22.1903 O   0  0  0  0  0  0  0  0  0  0  0  0
    9.8971  -17.9076   25.6132 C   0  0  0  0  0  0  0  0  0  0  0  0
    9.8488  -17.5100   24.1736 C   0  0  1  0  0  0  0  0  0  0  0  0
    9.7153  -18.7254   23.3061 C   0  0  0  0  0  0  0  0  0  0  0  0
    8.8615  -16.4011   23.8741 C   0  0  2  0  0  0  0  0  0  0  0  0
    9.0340  -16.0002   22.4641 N   0  0  0  0  0  0  0  0  0  0  0  0
    9.0052  -15.2185   24.7518 C   0  0  0  0  0  0  0  0  0  0  0  0
   10.0214  -14.4564   24.6705 O   0  0  0  0  0  0  0  0  0  0  0  0
    6.6685  -12.2260   25.2237 C   0  0  0  0  0  0  0  0  0  0  0  0
    6.8850  -12.9471   26.5111 C   0  0  1  0  0  0  0  0  0  0  0  0
    5.7839  -13.7890   26.7515 O   0  0  0  0  0  0  0  0  0  0  0  0
    8.1774  -13.7002   26.5732 C   0  0  2  0  0  0  0  0  0  0  0  0
    8.0493  -14.8673   25.7083 N   0  0  0  0  0  0  0  0  0  0  0  0
    8.5861  -14.0785   27.9360 C   0  0  0  0  0  0  0  0  0  0  0  0
    8.8492  -13.2184   28.8436 O   0  0  0  0  0  0  0  0  0  0  0  0
    8.7108  -15.4056   28.3189 O   0  0  0  0  0  0  0  0  0  0  0  0
  2  1  1  0
  2  3  1  0
  3  4  1  1
  3  5  1  0
  5  7  1  0
  5  6  1  6
  7  8  2  0
  7 13  1  0
 10  9  1  1
 10 11  1  0
 12 14  1  0
 12 10  1  0
 12 13  1  6
 14 20  1  0
 15 14  2  0
 17 16  1  6
 17 18  1  0
 19 17  1  0
 19 21  1  0
 19 20  1  6
 21 22  2  0
 21 23  1  0
M  END
$$$$
