IVT.pdb
     RDKit          3D

 23 22  0  0  1  0  0  0  0  0999 V2000
    7.9146  -21.5858   17.8391 C   0  0  0  0  0  0  0  0  0  0  0  0
    7.5683  -20.1371   17.6814 C   0  0  0  0  0  0  0  0  0  0  0  0
    8.2473  -19.3465   18.7746 C   0  0  2  0  0  0  0  0  0  0  0  0
    7.8933  -19.8245   20.1537 C   0  0  0  0  0  0  0  0  0  0  0  0
    7.8141  -17.8850   18.6021 C   0  0  2  0  0  0  0  0  0  0  0  0
    8.2770  -17.4329   17.3068 N   0  0  0  0  0  0  0  0  0  0  0  0
    8.5043  -17.1069   19.6457 C   0  0  0  0  0  0  0  0  0  0  0  0
    9.7484  -16.9342   19.5751 O   0  0  0  0  0  0  0  0  0  0  0  0
    8.3882  -13.9253   23.4424 C   0  0  0  0  0  0  0  0  0  0  0  0
    7.8009  -14.6330   22.2647 C   0  0  1  0  0  0  0  0  0  0  0  0
    7.4046  -13.6423   21.2115 C   0  0  0  0  0  0  0  0  0  0  0  0
    8.6349  -15.7948   21.7659 C   0  0  2  0  0  0  0  0  0  0  0  0
    7.8480  -16.5241   20.7523 N   0  0  0  0  0  0  0  0  0  0  0  0
    9.0624  -16.7263   22.8331 C   0  0  0  0  0  0  0  0  0  0  0  0
    8.2130  -17.2950   23.5914 O   0  0  0  0  0  0  0  0  0  0  0  0
   10.8959  -19.7969   22.3244 C   0  0  0  0  0  0  0  0  0  0  0  0
   11.6459  -19.0507   23.3755 C   0  0  1  0  0  0  0  0  0  0  0  0
   12.8081  -18.5028   22.8025 O   0  0  0  0  0  0  0  0  0  0  0  0
   10.8318  -18.0062   24.0738 C   0  0  2  0  0  0  0  0  0  0  0  0
   10.4035  -17.0380   23.0709 N   0  0  0  0  0  0  0  0  0  0  0  0
   11.5284  -17.3530   25.1943 C   0  0  0  0  0  0  0  0  0  0  0  0
   11.8386  -17.9690   26.2699 O   0  0  0  0  0  0  0  0  0  0  0  0
   11.8927  -16.0157   25.1474 O   0  0  0  0  0  0  0  0  0  0  0  0
  2  1  1  0
  2  3  1  0
  3  4  1  1
  3  5  1  0
  5  7  1  0
  5  6  1  6
  7  8  2  0
  7 13  1  0
 10  9  1  1
 10 11  1  0
 12 14  1  0
 12 10  1  0
 12 13  1  6
 14 20  1  0
 15 14  2  0
 17 16  1  6
 17 18  1  0
 19 17  1  0
 19 21  1  0
 19 20  1  6
 21 22  2  0
 21 23  1  0
M  END
$$$$
