IVT.pdb
     RDKit          3D

 23 22  0  0  1  0  0  0  0  0999 V2000
    6.9295  -11.4244   27.9716 C   0  0  0  0  0  0  0  0  0  0  0  0
    6.0924  -12.2991   27.0898 C   0  0  0  0  0  0  0  0  0  0  0  0
    6.9832  -13.3157   26.4156 C   0  0  2  0  0  0  0  0  0  0  0  0
    8.1505  -12.6949   25.7030 C   0  0  0  0  0  0  0  0  0  0  0  0
    6.1080  -14.0806   25.4147 C   0  0  2  0  0  0  0  0  0  0  0  0
    5.1373  -14.8479   26.1669 N   0  0  0  0  0  0  0  0  0  0  0  0
    6.9928  -15.0157   24.6981 C   0  0  0  0  0  0  0  0  0  0  0  0
    7.2233  -16.1531   25.1838 O   0  0  0  0  0  0  0  0  0  0  0  0
    9.2282  -16.3687   20.4671 C   0  0  0  0  0  0  0  0  0  0  0  0
    8.4527  -15.3997   21.2992 C   0  0  1  0  0  0  0  0  0  0  0  0
    7.1251  -15.1184   20.6621 C   0  0  0  0  0  0  0  0  0  0  0  0
    8.3910  -15.7616   22.7687 C   0  0  2  0  0  0  0  0  0  0  0  0
    7.6189  -14.7160   23.4679 N   0  0  0  0  0  0  0  0  0  0  0  0
    9.7188  -15.9126   23.4041 C   0  0  0  0  0  0  0  0  0  0  0  0
   10.4659  -14.9047   23.6182 O   0  0  0  0  0  0  0  0  0  0  0  0
   12.8809  -18.8563   25.8248 C   0  0  0  0  0  0  0  0  0  0  0  0
   11.5423  -18.4807   25.2850 C   0  0  1  0  0  0  0  0  0  0  0  0
   10.6696  -18.2384   26.3615 O   0  0  0  0  0  0  0  0  0  0  0  0
   11.5757  -17.3257   24.3331 C   0  0  2  0  0  0  0  0  0  0  0  0
   10.2276  -17.1504   23.8055 N   0  0  0  0  0  0  0  0  0  0  0  0
   12.5659  -17.4676   23.2529 C   0  0  0  0  0  0  0  0  0  0  0  0
   12.3429  -18.1477   22.1945 O   0  0  0  0  0  0  0  0  0  0  0  0
   13.8128  -16.8644   23.3217 O   0  0  0  0  0  0  0  0  0  0  0  0
  2  1  1  0
  2  3  1  0
  3  4  1  6
  3  5  1  0
  5  7  1  0
  5  6  1  1
  7  8  2  0
  7 13  1  0
 10  9  1  6
 10 11  1  0
 12 14  1  0
 12 10  1  0
 12 13  1  1
 14 20  1  0
 15 14  2  0
 17 16  1  1
 17 18  1  0
 19 17  1  0
 19 21  1  0
 19 20  1  6
 21 22  2  0
 21 23  1  0
M  END
$$$$
