IVT.pdb
     RDKit          3D

 23 22  0  0  1  0  0  0  0  0999 V2000
    7.0870  -11.2676   27.9369 C   0  0  0  0  0  0  0  0  0  0  0  0
    6.1845  -12.1511   27.1317 C   0  0  0  0  0  0  0  0  0  0  0  0
    7.0161  -13.2056   26.4403 C   0  0  2  0  0  0  0  0  0  0  0  0
    8.1404  -12.6296   25.6280 C   0  0  0  0  0  0  0  0  0  0  0  0
    6.0668  -13.9956   25.5304 C   0  0  2  0  0  0  0  0  0  0  0  0
    5.2035  -14.7953   26.3740 N   0  0  0  0  0  0  0  0  0  0  0  0
    6.9021  -14.9001   24.7211 C   0  0  0  0  0  0  0  0  0  0  0  0
    7.2207  -16.0290   25.1757 O   0  0  0  0  0  0  0  0  0  0  0  0
    8.8510  -16.1096   20.2979 C   0  0  0  0  0  0  0  0  0  0  0  0
    8.0706  -15.2059   21.1962 C   0  0  1  0  0  0  0  0  0  0  0  0
    6.6887  -15.0031   20.6512 C   0  0  0  0  0  0  0  0  0  0  0  0
    8.1287  -15.5925   22.6595 C   0  0  2  0  0  0  0  0  0  0  0  0
    7.3844  -14.5794   23.4328 N   0  0  0  0  0  0  0  0  0  0  0  0
    9.5038  -15.7175   23.1914 C   0  0  0  0  0  0  0  0  0  0  0  0
   10.2405  -14.6937   23.3620 O   0  0  0  0  0  0  0  0  0  0  0  0
   10.6812  -17.7601   26.3835 C   0  0  0  0  0  0  0  0  0  0  0  0
   11.3748  -18.1580   25.1246 C   0  0  1  0  0  0  0  0  0  0  0  0
   10.7771  -19.3303   24.6271 O   0  0  0  0  0  0  0  0  0  0  0  0
   11.4148  -17.0783   24.0882 C   0  0  2  0  0  0  0  0  0  0  0  0
   10.0711  -16.9466   23.5371 N   0  0  0  0  0  0  0  0  0  0  0  0
   12.4147  -17.2993   23.0305 C   0  0  0  0  0  0  0  0  0  0  0  0
   12.1020  -17.6757   21.8502 O   0  0  0  0  0  0  0  0  0  0  0  0
   13.7699  -17.1098   23.2559 O   0  0  0  0  0  0  0  0  0  0  0  0
  2  1  1  0
  2  3  1  0
  3  4  1  6
  3  5  1  0
  5  7  1  0
  5  6  1  1
  7  8  2  0
  7 13  1  0
 10  9  1  6
 10 11  1  0
 12 14  1  0
 12 10  1  0
 12 13  1  1
 14 20  1  0
 15 14  2  0
 17 16  1  1
 17 18  1  0
 19 17  1  0
 19 21  1  0
 19 20  1  6
 21 22  2  0
 21 23  1  0
M  END
$$$$
