IVT.pdb
     RDKit          3D

 23 22  0  0  1  0  0  0  0  0999 V2000
    6.9804  -18.3937   20.0258 C   0  0  0  0  0  0  0  0  0  0  0  0
    6.8894  -16.9087   20.1992 C   0  0  0  0  0  0  0  0  0  0  0  0
    7.4204  -16.5386   21.5639 C   0  0  2  0  0  0  0  0  0  0  0  0
    6.7604  -17.2989   22.6785 C   0  0  0  0  0  0  0  0  0  0  0  0
    7.1776  -15.0346   21.7435 C   0  0  2  0  0  0  0  0  0  0  0  0
    7.8604  -14.3418   20.6708 N   0  0  0  0  0  0  0  0  0  0  0  0
    7.7995  -14.6493   23.0224 C   0  0  0  0  0  0  0  0  0  0  0  0
    9.0499  -14.5346   23.0988 O   0  0  0  0  0  0  0  0  0  0  0  0
    7.5380  -12.8566   27.6281 C   0  0  0  0  0  0  0  0  0  0  0  0
    6.9972  -13.1130   26.2589 C   0  0  1  0  0  0  0  0  0  0  0  0
    6.7473  -11.8155   25.5508 C   0  0  0  0  0  0  0  0  0  0  0  0
    7.7895  -14.1307   25.4648 C   0  0  2  0  0  0  0  0  0  0  0  0
    7.0688  -14.3921   24.2036 N   0  0  0  0  0  0  0  0  0  0  0  0
    8.0187  -15.4038   26.1834 C   0  0  0  0  0  0  0  0  0  0  0  0
    7.0464  -16.0953   26.6265 O   0  0  0  0  0  0  0  0  0  0  0  0
    9.3950  -18.3999   24.9215 C   0  0  0  0  0  0  0  0  0  0  0  0
   10.2043  -18.1085   26.1399 C   0  0  1  0  0  0  0  0  0  0  0  0
   11.4620  -17.6182   25.7440 O   0  0  0  0  0  0  0  0  0  0  0  0
    9.5322  -17.1831   27.1060 C   0  0  2  0  0  0  0  0  0  0  0  0
    9.2958  -15.9208   26.4152 N   0  0  0  0  0  0  0  0  0  0  0  0
   10.2759  -16.9829   28.3607 C   0  0  0  0  0  0  0  0  0  0  0  0
   10.8049  -15.8647   28.6808 O   0  0  0  0  0  0  0  0  0  0  0  0
   10.4479  -18.0079   29.2789 O   0  0  0  0  0  0  0  0  0  0  0  0
  2  1  1  0
  2  3  1  0
  3  4  1  1
  3  5  1  0
  5  7  1  0
  5  6  1  6
  7  8  2  0
  7 13  1  0
 10  9  1  1
 10 11  1  0
 12 14  1  0
 12 10  1  0
 12 13  1  6
 14 20  1  0
 15 14  2  0
 17 16  1  6
 17 18  1  0
 19 17  1  0
 19 21  1  0
 19 20  1  6
 21 22  2  0
 21 23  1  0
M  END
$$$$
