IVT.pdb
     RDKit          3D

 23 22  0  0  1  0  0  0  0  0999 V2000
    6.6527  -11.5326   27.8908 C   0  0  0  0  0  0  0  0  0  0  0  0
    5.8890  -12.5803   27.1408 C   0  0  0  0  0  0  0  0  0  0  0  0
    6.8383  -13.3273   26.2340 C   0  0  2  0  0  0  0  0  0  0  0  0
    7.5789  -12.4270   25.2870 C   0  0  0  0  0  0  0  0  0  0  0  0
    5.9968  -14.3370   25.4430 C   0  0  2  0  0  0  0  0  0  0  0  0
    5.5091  -15.3351   26.3717 N   0  0  0  0  0  0  0  0  0  0  0  0
    6.9027  -14.9914   24.4827 C   0  0  0  0  0  0  0  0  0  0  0  0
    7.5047  -16.0459   24.8118 O   0  0  0  0  0  0  0  0  0  0  0  0
    8.1866  -13.2426   20.8283 C   0  0  0  0  0  0  0  0  0  0  0  0
    7.8128  -14.6890   20.8583 C   0  0  1  0  0  0  0  0  0  0  0  0
    8.5180  -15.4278   19.7608 C   0  0  0  0  0  0  0  0  0  0  0  0
    7.9231  -15.3249   22.2285 C   0  0  2  0  0  0  0  0  0  0  0  0
    7.1498  -14.5037   23.1803 N   0  0  0  0  0  0  0  0  0  0  0  0
    9.3146  -15.4720   22.7098 C   0  0  0  0  0  0  0  0  0  0  0  0
    9.9136  -14.5154   23.2980 O   0  0  0  0  0  0  0  0  0  0  0  0
   12.7414  -18.6503   24.2097 C   0  0  0  0  0  0  0  0  0  0  0  0
   11.3896  -18.2147   23.7549 C   0  0  1  0  0  0  0  0  0  0  0  0
   10.4952  -18.3033   24.8371 O   0  0  0  0  0  0  0  0  0  0  0  0
   11.3695  -16.8522   23.1346 C   0  0  2  0  0  0  0  0  0  0  0  0
   10.0468  -16.6518   22.5543 N   0  0  0  0  0  0  0  0  0  0  0  0
   12.4352  -16.6287   22.1438 C   0  0  0  0  0  0  0  0  0  0  0  0
   13.5299  -16.0338   22.4270 O   0  0  0  0  0  0  0  0  0  0  0  0
   12.3118  -17.0557   20.8301 O   0  0  0  0  0  0  0  0  0  0  0  0
  2  1  1  0
  2  3  1  0
  3  4  1  6
  3  5  1  0
  5  7  1  0
  5  6  1  1
  7  8  2  0
  7 13  1  0
 10  9  1  1
 10 11  1  0
 12 14  1  0
 12 10  1  0
 12 13  1  1
 14 20  1  0
 15 14  2  0
 17 16  1  1
 17 18  1  0
 19 17  1  0
 19 21  1  0
 19 20  1  6
 21 22  2  0
 21 23  1  0
M  END
$$$$
