IVT.pdb
     RDKit          3D

 23 22  0  0  1  0  0  0  0  0999 V2000
    8.8258  -12.2624   28.5210 C   0  0  0  0  0  0  0  0  0  0  0  0
    7.6643  -12.5791   27.6299 C   0  0  0  0  0  0  0  0  0  0  0  0
    8.0006  -13.7916   26.7944 C   0  0  2  0  0  0  0  0  0  0  0  0
    9.2989  -13.6534   26.0520 C   0  0  0  0  0  0  0  0  0  0  0  0
    6.8485  -13.9804   25.7994 C   0  0  2  0  0  0  0  0  0  0  0  0
    5.7362  -14.5728   26.5126 N   0  0  0  0  0  0  0  0  0  0  0  0
    7.3148  -14.9356   24.7792 C   0  0  0  0  0  0  0  0  0  0  0  0
    7.1442  -16.1695   24.9553 O   0  0  0  0  0  0  0  0  0  0  0  0
    8.4273  -15.8370   20.0543 C   0  0  0  0  0  0  0  0  0  0  0  0
    8.0581  -14.9441   21.1941 C   0  0  1  0  0  0  0  0  0  0  0  0
    6.6993  -14.3525   20.9678 C   0  0  0  0  0  0  0  0  0  0  0  0
    8.2617  -15.5708   22.5579 C   0  0  2  0  0  0  0  0  0  0  0  0
    7.9590  -14.5520   23.5820 N   0  0  0  0  0  0  0  0  0  0  0  0
    9.6240  -16.1071   22.7727 C   0  0  0  0  0  0  0  0  0  0  0  0
   10.6126  -15.3327   22.9795 O   0  0  0  0  0  0  0  0  0  0  0  0
   10.3345  -20.2666   22.4495 C   0  0  0  0  0  0  0  0  0  0  0  0
   10.9922  -19.4608   23.5183 C   0  0  1  0  0  0  0  0  0  0  0  0
   12.2010  -20.0837   23.8787 O   0  0  0  0  0  0  0  0  0  0  0  0
   11.2014  -18.0245   23.1513 C   0  0  2  0  0  0  0  0  0  0  0  0
    9.9069  -17.4753   22.7652 N   0  0  0  0  0  0  0  0  0  0  0  0
   12.2132  -17.8149   22.1025 C   0  0  0  0  0  0  0  0  0  0  0  0
   11.9174  -17.7318   20.8623 O   0  0  0  0  0  0  0  0  0  0  0  0
   13.5617  -17.6942   22.4028 O   0  0  0  0  0  0  0  0  0  0  0  0
  2  1  1  0
  2  3  1  0
  3  4  1  6
  3  5  1  0
  5  7  1  0
  5  6  1  1
  7  8  2  0
  7 13  1  0
 10  9  1  6
 10 11  1  0
 12 14  1  0
 12 10  1  0
 12 13  1  1
 14 20  1  0
 15 14  2  0
 17 16  1  6
 17 18  1  0
 19 17  1  0
 19 21  1  0
 19 20  1  6
 21 22  2  0
 21 23  1  0
M  END
$$$$
