CHI.pdb
     RDKit          3D

 25 25  0  0  1  0  0  0  0  0999 V2000
    6.2867  -19.7668   21.9113 N   0  0  0  0  0  0  0  0  0  0  0  0
    6.3919  -18.6464   22.8228 C   0  0  1  0  0  0  0  0  0  0  0  0
    5.6932  -19.0369   24.1020 C   0  0  0  0  0  0  0  0  0  0  0  0
    5.7427  -17.6085   25.2207 S   0  0  0  0  0  0  0  0  0  0  0  0
    7.7960  -18.2947   23.0077 C   0  0  0  0  0  0  0  0  0  0  0  0
    8.6121  -19.1789   23.3826 O   0  0  0  0  0  0  0  0  0  0  0  0
    8.2365  -16.9739   22.7684 N   0  0  0  0  0  0  0  0  0  0  0  0
    9.6038  -16.6083   22.9933 C   0  0  1  0  0  0  0  0  0  0  0  0
   10.1663  -15.8608   21.7741 C   0  0  0  0  0  0  0  0  0  0  0  0
   10.0734  -16.6355   20.5505 C   0  0  0  0  0  0  0  0  0  0  0  0
   11.0369  -17.4655   20.0287 C   0  0  0  0  0  0  0  0  0  0  0  0
   10.5844  -18.0170   18.8708 N   0  0  0  0  0  0  0  0  0  0  0  0
    9.3406  -17.5301   18.6732 C   0  0  0  0  0  0  0  0  0  0  0  0
    9.0349  -16.6866   19.7035 N   0  0  0  0  0  0  0  0  0  0  0  0
    9.7451  -15.6334   24.1145 C   0  0  0  0  0  0  0  0  0  0  0  0
   10.5958  -14.7188   23.9900 O   0  0  0  0  0  0  0  0  0  0  0  0
    5.9047  -12.8795   26.0887 C   0  0  0  0  0  0  0  0  0  0  0  0
    7.2279  -13.4564   25.6110 C   0  0  0  0  0  0  0  0  0  0  0  0
    7.9072  -14.0618   26.8022 C   0  0  2  0  0  0  0  0  0  0  0  0
    8.1845  -13.0249   27.8368 C   0  0  0  0  0  0  0  0  0  0  0  0
    9.1576  -14.8267   26.4347 C   0  0  2  0  0  0  0  0  0  0  0  0
    8.9879  -15.6730   25.2998 N   0  0  0  0  0  0  0  0  0  0  0  0
    9.5931  -15.6451   27.5824 C   0  0  0  0  0  0  0  0  0  0  0  0
    9.3185  -16.8636   27.6087 O   0  0  0  0  0  0  0  0  0  0  0  0
   10.3027  -15.1249   28.6509 O   0  0  0  0  0  0  0  0  0  0  0  0
  2  1  1  6
  3  2  1  0
  3  4  1  0
  5  6  2  0
  5  2  1  0
  7  5  1  0
  8  7  1  0
  8  9  1  6
 10  9  1  0
 11 10  2  0
 12 11  1  0
 13 12  1  0
 13 14  2  0
 14 10  1  0
 15 22  1  0
 15  8  1  0
 16 15  2  0
 18 17  1  0
 19 21  1  0
 19 18  1  0
 19 20  1  1
 21 23  1  0
 21 22  1  6
 23 25  1  0
 24 23  2  0
M  END
$$$$
