CHI.pdb
     RDKit          3D

 25 25  0  0  1  0  0  0  0  0999 V2000
    7.6090  -15.3605   18.2090 N   0  0  0  0  0  0  0  0  0  0  0  0
    8.2407  -14.6252   19.2850 C   0  0  1  0  0  0  0  0  0  0  0  0
    7.5671  -13.2774   19.3680 C   0  0  0  0  0  0  0  0  0  0  0  0
    8.4190  -12.1588   18.2205 S   0  0  0  0  0  0  0  0  0  0  0  0
    8.1586  -15.3968   20.5208 C   0  0  0  0  0  0  0  0  0  0  0  0
    7.0474  -15.8668   20.8850 O   0  0  0  0  0  0  0  0  0  0  0  0
    9.3152  -15.6149   21.3021 N   0  0  0  0  0  0  0  0  0  0  0  0
    9.2217  -16.2506   22.5830 C   0  0  1  0  0  0  0  0  0  0  0  0
   10.3852  -17.2353   22.7790 C   0  0  0  0  0  0  0  0  0  0  0  0
   10.1393  -18.5234   22.1576 C   0  0  0  0  0  0  0  0  0  0  0  0
    8.9976  -18.9128   21.4985 C   0  0  0  0  0  0  0  0  0  0  0  0
    9.1418  -20.1901   21.0538 N   0  0  0  0  0  0  0  0  0  0  0  0
   10.3720  -20.5940   21.4363 C   0  0  0  0  0  0  0  0  0  0  0  0
   10.9759  -19.5705   22.1104 N   0  0  0  0  0  0  0  0  0  0  0  0
    9.3767  -15.2769   23.7034 C   0  0  0  0  0  0  0  0  0  0  0  0
   10.3505  -14.4859   23.6598 O   0  0  0  0  0  0  0  0  0  0  0  0
    6.4117  -11.3367   26.9281 C   0  0  0  0  0  0  0  0  0  0  0  0
    7.5826  -12.2984   27.0545 C   0  0  0  0  0  0  0  0  0  0  0  0
    7.3980  -13.3655   26.0182 C   0  0  2  0  0  0  0  0  0  0  0  0
    6.1579  -14.1499   26.2817 C   0  0  0  0  0  0  0  0  0  0  0  0
    8.6052  -14.2648   25.8850 C   0  0  2  0  0  0  0  0  0  0  0  0
    8.5038  -15.1883   24.8033 N   0  0  0  0  0  0  0  0  0  0  0  0
    8.8046  -15.0155   27.1394 C   0  0  0  0  0  0  0  0  0  0  0  0
    9.0973  -14.3987   28.1857 O   0  0  0  0  0  0  0  0  0  0  0  0
    8.6824  -16.3918   27.2198 O   0  0  0  0  0  0  0  0  0  0  0  0
  2  1  1  6
  3  2  1  0
  3  4  1  0
  5  6  2  0
  5  2  1  0
  7  5  1  0
  8  7  1  0
  8  9  1  6
 10  9  1  0
 11 10  2  0
 12 11  1  0
 13 12  1  0
 13 14  2  0
 14 10  1  0
 15 22  1  0
 15  8  1  0
 16 15  2  0
 18 17  1  0
 19 21  1  0
 19 18  1  0
 19 20  1  1
 21 23  1  0
 21 22  1  6
 23 25  1  0
 24 23  2  0
M  END
$$$$
