CHI.pdb
     RDKit          3D

 25 25  0  0  1  0  0  0  0  0999 V2000
    7.6347  -16.2392   18.2042 N   0  0  0  0  0  0  0  0  0  0  0  0
    8.1974  -15.3130   19.1648 C   0  0  1  0  0  0  0  0  0  0  0  0
    7.9279  -13.9171   18.6587 C   0  0  0  0  0  0  0  0  0  0  0  0
    8.5661  -12.7466   19.8901 S   0  0  0  0  0  0  0  0  0  0  0  0
    7.6351  -15.5745   20.4857 C   0  0  0  0  0  0  0  0  0  0  0  0
    6.3836  -15.6054   20.6313 O   0  0  0  0  0  0  0  0  0  0  0  0
    8.4867  -15.7910   21.5919 N   0  0  0  0  0  0  0  0  0  0  0  0
    7.9429  -16.0420   22.8938 C   0  0  1  0  0  0  0  0  0  0  0  0
    8.2540  -17.4804   23.3364 C   0  0  0  0  0  0  0  0  0  0  0  0
    7.4682  -18.4688   22.6211 C   0  0  0  0  0  0  0  0  0  0  0  0
    6.1033  -18.4715   22.4579 C   0  0  0  0  0  0  0  0  0  0  0  0
    5.7340  -19.5590   21.7294 N   0  0  0  0  0  0  0  0  0  0  0  0
    6.8685  -20.2315   21.4402 C   0  0  0  0  0  0  0  0  0  0  0  0
    7.9243  -19.5596   21.9882 N   0  0  0  0  0  0  0  0  0  0  0  0
    8.5833  -15.1928   23.9408 C   0  0  0  0  0  0  0  0  0  0  0  0
    9.8286  -15.0433   23.8909 O   0  0  0  0  0  0  0  0  0  0  0  0
    5.4983  -11.6198   27.1589 C   0  0  0  0  0  0  0  0  0  0  0  0
    6.2226  -12.9043   26.7883 C   0  0  0  0  0  0  0  0  0  0  0  0
    7.6002  -12.5253   26.3351 C   0  0  2  0  0  0  0  0  0  0  0  0
    7.5372  -11.5576   25.2028 C   0  0  0  0  0  0  0  0  0  0  0  0
    8.4525  -13.7253   25.9922 C   0  0  2  0  0  0  0  0  0  0  0  0
    7.8829  -14.5503   24.9782 N   0  0  0  0  0  0  0  0  0  0  0  0
    8.6740  -14.5381   27.2034 C   0  0  0  0  0  0  0  0  0  0  0  0
    9.2646  -14.0349   28.1826 O   0  0  0  0  0  0  0  0  0  0  0  0
    8.2545  -15.8525   27.3142 O   0  0  0  0  0  0  0  0  0  0  0  0
  2  1  1  6
  3  2  1  0
  3  4  1  0
  5  6  2  0
  5  2  1  0
  7  5  1  0
  8  7  1  0
  8  9  1  1
 10  9  1  0
 11 10  2  0
 12 11  1  0
 13 12  1  0
 13 14  2  0
 14 10  1  0
 15 22  1  0
 15  8  1  0
 16 15  2  0
 18 17  1  0
 19 21  1  0
 19 18  1  0
 19 20  1  6
 21 23  1  0
 21 22  1  6
 23 25  1  0
 24 23  2  0
M  END
$$$$
