CHI.pdb
     RDKit          3D

 25 25  0  0  1  0  0  0  0  0999 V2000
    7.6839  -15.0792   17.8874 N   0  0  0  0  0  0  0  0  0  0  0  0
    8.3645  -14.4681   19.0102 C   0  0  1  0  0  0  0  0  0  0  0  0
    8.1253  -12.9803   18.9288 C   0  0  0  0  0  0  0  0  0  0  0  0
    8.8591  -12.2180   20.4033 S   0  0  0  0  0  0  0  0  0  0  0  0
    7.8946  -15.0684   20.2545 C   0  0  0  0  0  0  0  0  0  0  0  0
    6.6561  -15.1832   20.4580 O   0  0  0  0  0  0  0  0  0  0  0  0
    8.8204  -15.5169   21.2226 N   0  0  0  0  0  0  0  0  0  0  0  0
    8.3675  -16.0832   22.4587 C   0  0  1  0  0  0  0  0  0  0  0  0
    8.9094  -17.5117   22.6242 C   0  0  0  0  0  0  0  0  0  0  0  0
    8.2952  -18.4534   21.7067 C   0  0  0  0  0  0  0  0  0  0  0  0
    6.9550  -18.7391   21.5980 C   0  0  0  0  0  0  0  0  0  0  0  0
    6.7657  -19.6725   20.6269 N   0  0  0  0  0  0  0  0  0  0  0  0
    7.9873  -19.9665   20.1327 C   0  0  0  0  0  0  0  0  0  0  0  0
    8.9171  -19.2179   20.7971 N   0  0  0  0  0  0  0  0  0  0  0  0
    8.9076  -15.3501   23.6411 C   0  0  0  0  0  0  0  0  0  0  0  0
   10.1311  -15.0693   23.6458 O   0  0  0  0  0  0  0  0  0  0  0  0
    5.7473  -11.7445   26.1561 C   0  0  0  0  0  0  0  0  0  0  0  0
    6.8971  -12.4594   25.4643 C   0  0  0  0  0  0  0  0  0  0  0  0
    7.5695  -13.3207   26.4904 C   0  0  2  0  0  0  0  0  0  0  0  0
    8.1446  -12.4881   27.5852 C   0  0  0  0  0  0  0  0  0  0  0  0
    8.6070  -14.2413   25.8904 C   0  0  2  0  0  0  0  0  0  0  0  0
    8.1357  -14.9540   24.7488 N   0  0  0  0  0  0  0  0  0  0  0  0
    9.0579  -15.2097   26.9080 C   0  0  0  0  0  0  0  0  0  0  0  0
    8.5009  -16.3254   26.9851 O   0  0  0  0  0  0  0  0  0  0  0  0
   10.0840  -14.9429   27.7977 O   0  0  0  0  0  0  0  0  0  0  0  0
  2  1  1  6
  3  2  1  0
  3  4  1  0
  5  6  2  0
  5  2  1  0
  7  5  1  0
  8  7  1  0
  8  9  1  1
 10  9  1  0
 11 10  2  0
 12 11  1  0
 13 12  1  0
 13 14  2  0
 14 10  1  0
 15 22  1  0
 15  8  1  0
 16 15  2  0
 18 17  1  0
 19 21  1  0
 19 18  1  0
 19 20  1  1
 21 23  1  0
 21 22  1  6
 23 25  1  0
 24 23  2  0
M  END
$$$$
