CHI.pdb
     RDKit          3D

 25 25  0  0  1  0  0  0  0  0999 V2000
    7.3885  -16.7189   17.9478 N   0  0  0  0  0  0  0  0  0  0  0  0
    7.9934  -15.8410   18.9279 C   0  0  1  0  0  0  0  0  0  0  0  0
    7.7313  -14.4218   18.4867 C   0  0  0  0  0  0  0  0  0  0  0  0
    8.4131  -13.3121   19.7507 S   0  0  0  0  0  0  0  0  0  0  0  0
    7.4657  -16.1479   20.2533 C   0  0  0  0  0  0  0  0  0  0  0  0
    6.2297  -16.3474   20.3971 O   0  0  0  0  0  0  0  0  0  0  0  0
    8.3335  -16.2206   21.3657 N   0  0  0  0  0  0  0  0  0  0  0  0
    7.8336  -16.5828   22.6590 C   0  0  1  0  0  0  0  0  0  0  0  0
    8.2160  -18.0330   22.9946 C   0  0  0  0  0  0  0  0  0  0  0  0
    7.7851  -18.4329   24.3214 C   0  0  0  0  0  0  0  0  0  0  0  0
    8.5921  -18.6925   25.4035 C   0  0  0  0  0  0  0  0  0  0  0  0
    7.8243  -19.0387   26.4714 N   0  0  0  0  0  0  0  0  0  0  0  0
    6.5413  -18.9942   26.0532 C   0  0  0  0  0  0  0  0  0  0  0  0
    6.5248  -18.6234   24.7384 N   0  0  0  0  0  0  0  0  0  0  0  0
    8.4639  -15.7794   23.7475 C   0  0  0  0  0  0  0  0  0  0  0  0
    9.7046  -15.5962   23.6951 O   0  0  0  0  0  0  0  0  0  0  0  0
    5.4898  -11.8663   26.3248 C   0  0  0  0  0  0  0  0  0  0  0  0
    6.5693  -12.6043   25.5492 C   0  0  0  0  0  0  0  0  0  0  0  0
    7.2796  -13.5022   26.5167 C   0  0  2  0  0  0  0  0  0  0  0  0
    7.8787  -12.7120   27.6299 C   0  0  0  0  0  0  0  0  0  0  0  0
    8.3076  -14.3846   25.8473 C   0  0  2  0  0  0  0  0  0  0  0  0
    7.7588  -15.2152   24.8264 N   0  0  0  0  0  0  0  0  0  0  0  0
    8.9629  -15.2366   26.8580 C   0  0  0  0  0  0  0  0  0  0  0  0
    8.4054  -16.2916   27.2284 O   0  0  0  0  0  0  0  0  0  0  0  0
   10.1847  -14.9233   27.4279 O   0  0  0  0  0  0  0  0  0  0  0  0
  2  1  1  6
  3  2  1  0
  3  4  1  0
  5  6  2  0
  5  2  1  0
  7  5  1  0
  8  7  1  0
  8  9  1  1
 10  9  1  0
 11 10  2  0
 12 11  1  0
 13 12  1  0
 13 14  2  0
 14 10  1  0
 15 22  1  0
 15  8  1  0
 16 15  2  0
 18 17  1  0
 19 21  1  0
 19 18  1  0
 19 20  1  1
 21 23  1  0
 21 22  1  6
 23 25  1  0
 24 23  2  0
M  END
$$$$
