CHI.pdb
     RDKit          3D

 25 25  0  0  1  0  0  0  0  0999 V2000
    7.6545  -16.2355   18.1768 N   0  0  0  0  0  0  0  0  0  0  0  0
    8.5242  -15.8301   19.2615 C   0  0  1  0  0  0  0  0  0  0  0  0
    9.0492  -14.4546   18.9303 C   0  0  0  0  0  0  0  0  0  0  0  0
    7.9058  -13.2373   19.6407 S   0  0  0  0  0  0  0  0  0  0  0  0
    7.7941  -15.8886   20.5236 C   0  0  0  0  0  0  0  0  0  0  0  0
    6.5460  -15.7142   20.5261 O   0  0  0  0  0  0  0  0  0  0  0  0
    8.4810  -16.1388   21.7325 N   0  0  0  0  0  0  0  0  0  0  0  0
    7.7659  -16.2463   22.9697 C   0  0  1  0  0  0  0  0  0  0  0  0
    8.0445  -17.6040   23.6336 C   0  0  0  0  0  0  0  0  0  0  0  0
    7.1522  -18.6490   23.1672 C   0  0  0  0  0  0  0  0  0  0  0  0
    6.1692  -18.5248   22.2144 C   0  0  0  0  0  0  0  0  0  0  0  0
    5.5436  -19.7209   22.0470 N   0  0  0  0  0  0  0  0  0  0  0  0
    6.1375  -20.5875   22.8951 C   0  0  0  0  0  0  0  0  0  0  0  0
    7.1195  -19.9257   23.5764 N   0  0  0  0  0  0  0  0  0  0  0  0
    8.2338  -15.2472   23.9749 C   0  0  0  0  0  0  0  0  0  0  0  0
    9.4657  -15.0145   24.0380 O   0  0  0  0  0  0  0  0  0  0  0  0
    7.5841  -10.5034   26.4544 C   0  0  0  0  0  0  0  0  0  0  0  0
    7.0941  -11.6751   27.2902 C   0  0  0  0  0  0  0  0  0  0  0  0
    6.6438  -12.7438   26.3406 C   0  0  2  0  0  0  0  0  0  0  0  0
    5.5807  -13.5869   26.9582 C   0  0  0  0  0  0  0  0  0  0  0  0
    7.7879  -13.5849   25.8235 C   0  0  2  0  0  0  0  0  0  0  0  0
    7.3851  -14.5505   24.8547 N   0  0  0  0  0  0  0  0  0  0  0  0
    8.4410  -14.2792   26.9496 C   0  0  0  0  0  0  0  0  0  0  0  0
    8.0438  -15.4150   27.2860 O   0  0  0  0  0  0  0  0  0  0  0  0
    9.4894  -13.7287   27.6663 O   0  0  0  0  0  0  0  0  0  0  0  0
  2  1  1  6
  3  2  1  0
  3  4  1  0
  5  6  2  0
  5  2  1  0
  7  5  1  0
  8  7  1  0
  8  9  1  1
 10  9  1  0
 11 10  2  0
 12 11  1  0
 13 12  1  0
 13 14  2  0
 14 10  1  0
 15 22  1  0
 15  8  1  0
 16 15  2  0
 18 17  1  0
 19 21  1  0
 19 18  1  0
 19 20  1  1
 21 23  1  0
 21 22  1  6
 23 25  1  0
 24 23  2  0
M  END
$$$$
