CHI.pdb
     RDKit          3D

 25 25  0  0  1  0  0  0  0  0999 V2000
    7.5692  -15.9390   18.0045 N   0  0  0  0  0  0  0  0  0  0  0  0
    8.2215  -15.1703   19.0441 C   0  0  1  0  0  0  0  0  0  0  0  0
    8.0457  -13.7104   18.7049 C   0  0  0  0  0  0  0  0  0  0  0  0
    8.8186  -12.7358   20.0266 S   0  0  0  0  0  0  0  0  0  0  0  0
    7.6716  -15.5384   20.3447 C   0  0  0  0  0  0  0  0  0  0  0  0
    6.4410  -15.3787   20.5647 O   0  0  0  0  0  0  0  0  0  0  0  0
    8.5120  -16.0695   21.3484 N   0  0  0  0  0  0  0  0  0  0  0  0
    7.9904  -16.3857   22.6452 C   0  0  1  0  0  0  0  0  0  0  0  0
    8.3631  -17.8243   23.0366 C   0  0  0  0  0  0  0  0  0  0  0  0
    7.8889  -18.1853   24.3598 C   0  0  0  0  0  0  0  0  0  0  0  0
    7.0521  -17.4468   25.1622 C   0  0  0  0  0  0  0  0  0  0  0  0
    6.8340  -18.1129   26.3279 N   0  0  0  0  0  0  0  0  0  0  0  0
    7.5348  -19.2643   26.2498 C   0  0  0  0  0  0  0  0  0  0  0  0
    8.1770  -19.3019   25.0445 N   0  0  0  0  0  0  0  0  0  0  0  0
    8.6055  -15.5467   23.7154 C   0  0  0  0  0  0  0  0  0  0  0  0
    9.8541  -15.4176   23.7116 O   0  0  0  0  0  0  0  0  0  0  0  0
    5.5842  -11.9892   27.2158 C   0  0  0  0  0  0  0  0  0  0  0  0
    6.2176  -13.2442   26.6366 C   0  0  0  0  0  0  0  0  0  0  0  0
    7.5293  -12.8440   26.0317 C   0  0  2  0  0  0  0  0  0  0  0  0
    7.3183  -11.9921   24.8265 C   0  0  0  0  0  0  0  0  0  0  0  0
    8.4162  -14.0285   25.7250 C   0  0  2  0  0  0  0  0  0  0  0  0
    7.8779  -14.8924   24.7264 N   0  0  0  0  0  0  0  0  0  0  0  0
    8.6482  -14.8060   26.9572 C   0  0  0  0  0  0  0  0  0  0  0  0
    8.1176  -15.9298   27.0849 O   0  0  0  0  0  0  0  0  0  0  0  0
    9.4371  -14.3479   27.9982 O   0  0  0  0  0  0  0  0  0  0  0  0
  2  1  1  6
  3  2  1  0
  3  4  1  0
  5  6  2  0
  5  2  1  0
  7  5  1  0
  8  7  1  0
  8  9  1  1
 10  9  1  0
 11 10  2  0
 12 11  1  0
 13 12  1  0
 13 14  2  0
 14 10  1  0
 15 22  1  0
 15  8  1  0
 16 15  2  0
 18 17  1  0
 19 21  1  0
 19 18  1  0
 19 20  1  6
 21 23  1  0
 21 22  1  6
 23 25  1  0
 24 23  2  0
M  END
$$$$
