CHI.pdb
     RDKit          3D

 25 25  0  0  1  0  0  0  0  0999 V2000
   12.9124  -17.1195   20.4603 N   0  0  0  0  0  0  0  0  0  0  0  0
   11.8506  -17.5444   21.3488 C   0  0  1  0  0  0  0  0  0  0  0  0
   12.4829  -18.3539   22.4544 C   0  0  0  0  0  0  0  0  0  0  0  0
   11.1470  -19.0589   23.4605 S   0  0  0  0  0  0  0  0  0  0  0  0
   11.1142  -16.3785   21.8258 C   0  0  0  0  0  0  0  0  0  0  0  0
   11.7482  -15.3877   22.2780 O   0  0  0  0  0  0  0  0  0  0  0  0
    9.7023  -16.3610   21.7809 N   0  0  0  0  0  0  0  0  0  0  0  0
    8.9699  -15.2353   22.2810 C   0  0  1  0  0  0  0  0  0  0  0  0
    7.6418  -15.0805   21.5235 C   0  0  0  0  0  0  0  0  0  0  0  0
    7.8042  -14.4327   20.2352 C   0  0  0  0  0  0  0  0  0  0  0  0
    8.9803  -13.9805   19.6857 C   0  0  0  0  0  0  0  0  0  0  0  0
    8.7317  -13.4313   18.4665 N   0  0  0  0  0  0  0  0  0  0  0  0
    7.4022  -13.5421   18.2586 C   0  0  0  0  0  0  0  0  0  0  0  0
    6.8418  -14.1550   19.3434 N   0  0  0  0  0  0  0  0  0  0  0  0
    8.5577  -15.4231   23.7031 C   0  0  0  0  0  0  0  0  0  0  0  0
    8.8023  -16.5306   24.2411 O   0  0  0  0  0  0  0  0  0  0  0  0
    6.8190  -10.9504   26.7184 C   0  0  0  0  0  0  0  0  0  0  0  0
    7.6904  -12.1626   26.4304 C   0  0  0  0  0  0  0  0  0  0  0  0
    6.7875  -13.3575   26.3699 C   0  0  2  0  0  0  0  0  0  0  0  0
    6.1676  -13.6201   27.7001 C   0  0  0  0  0  0  0  0  0  0  0  0
    7.4812  -14.5864   25.8291 C   0  0  2  0  0  0  0  0  0  0  0  0
    7.9138  -14.4412   24.4782 N   0  0  0  0  0  0  0  0  0  0  0  0
    6.5753  -15.7473   25.9205 C   0  0  0  0  0  0  0  0  0  0  0  0
    5.7126  -15.9258   25.0346 O   0  0  0  0  0  0  0  0  0  0  0  0
    6.6318  -16.6658   26.9544 O   0  0  0  0  0  0  0  0  0  0  0  0
  2  1  1  6
  3  2  1  0
  3  4  1  0
  5  6  2  0
  5  2  1  0
  7  5  1  0
  8  7  1  0
  8  9  1  6
 10  9  1  0
 11 10  2  0
 12 11  1  0
 13 12  1  0
 13 14  2  0
 14 10  1  0
 15 22  1  0
 15  8  1  0
 16 15  2  0
 18 17  1  0
 19 21  1  0
 19 18  1  0
 19 20  1  1
 21 23  1  0
 21 22  1  6
 23 25  1  0
 24 23  2  0
M  END
$$$$
