CHI.pdb
     RDKit          3D

 25 25  0  0  1  0  0  0  0  0999 V2000
    7.3935  -14.7615   18.2126 N   0  0  0  0  0  0  0  0  0  0  0  0
    8.6172  -14.7729   18.9870 C   0  0  1  0  0  0  0  0  0  0  0  0
    9.1601  -13.3649   18.9956 C   0  0  0  0  0  0  0  0  0  0  0  0
    8.0520  -12.3483   20.0118 S   0  0  0  0  0  0  0  0  0  0  0  0
    8.3495  -15.3042   20.3195 C   0  0  0  0  0  0  0  0  0  0  0  0
    7.1770  -15.2616   20.7794 O   0  0  0  0  0  0  0  0  0  0  0  0
    9.3963  -15.8617   21.0871 N   0  0  0  0  0  0  0  0  0  0  0  0
    9.1353  -16.4207   22.3806 C   0  0  1  0  0  0  0  0  0  0  0  0
   10.1484  -17.5315   22.6988 C   0  0  0  0  0  0  0  0  0  0  0  0
    9.7951  -18.8019   22.0930 C   0  0  0  0  0  0  0  0  0  0  0  0
    8.6287  -19.0992   21.4292 C   0  0  0  0  0  0  0  0  0  0  0  0
    8.6635  -20.3904   21.0033 N   0  0  0  0  0  0  0  0  0  0  0  0
    9.8507  -20.8950   21.4021 C   0  0  0  0  0  0  0  0  0  0  0  0
   10.5370  -19.9189   22.0674 N   0  0  0  0  0  0  0  0  0  0  0  0
    9.3352  -15.4226   23.4720 C   0  0  0  0  0  0  0  0  0  0  0  0
   10.3610  -14.7007   23.4232 O   0  0  0  0  0  0  0  0  0  0  0  0
    6.2878  -11.4002   26.6488 C   0  0  0  0  0  0  0  0  0  0  0  0
    7.5487  -12.2493   26.6755 C   0  0  0  0  0  0  0  0  0  0  0  0
    7.3485  -13.3769   25.7084 C   0  0  2  0  0  0  0  0  0  0  0  0
    6.1371  -14.1699   26.0638 C   0  0  0  0  0  0  0  0  0  0  0  0
    8.5694  -14.2579   25.5783 C   0  0  2  0  0  0  0  0  0  0  0  0
    8.4500  -15.2387   24.5501 N   0  0  0  0  0  0  0  0  0  0  0  0
    8.8290  -14.9377   26.8617 C   0  0  0  0  0  0  0  0  0  0  0  0
    8.5802  -16.1569   26.9737 O   0  0  0  0  0  0  0  0  0  0  0  0
    9.3431  -14.2843   27.9684 O   0  0  0  0  0  0  0  0  0  0  0  0
  2  1  1  6
  3  2  1  0
  3  4  1  0
  5  6  2  0
  5  2  1  0
  7  5  1  0
  8  7  1  0
  8  9  1  1
 10  9  1  0
 11 10  2  0
 12 11  1  0
 13 12  1  0
 13 14  2  0
 14 10  1  0
 15 22  1  0
 15  8  1  0
 16 15  2  0
 18 17  1  0
 19 21  1  0
 19 18  1  0
 19 20  1  1
 21 23  1  0
 21 22  1  6
 23 25  1  0
 24 23  2  0
M  END
$$$$
