CHI.pdb
     RDKit          3D

 25 25  0  0  1  0  0  0  0  0999 V2000
    7.9509  -14.5317   17.7816 N   0  0  0  0  0  0  0  0  0  0  0  0
    9.0047  -14.4894   18.7741 C   0  0  1  0  0  0  0  0  0  0  0  0
    9.4119  -13.0458   18.9400 C   0  0  0  0  0  0  0  0  0  0  0  0
    8.0446  -12.1728   19.7537 S   0  0  0  0  0  0  0  0  0  0  0  0
    8.5402  -15.1114   20.0096 C   0  0  0  0  0  0  0  0  0  0  0  0
    7.3029  -15.2424   20.2102 O   0  0  0  0  0  0  0  0  0  0  0  0
    9.4700  -15.5628   20.9727 N   0  0  0  0  0  0  0  0  0  0  0  0
    9.0227  -16.1856   22.1834 C   0  0  1  0  0  0  0  0  0  0  0  0
    9.8504  -17.4473   22.4746 C   0  0  0  0  0  0  0  0  0  0  0  0
    9.4054  -18.5977   21.7100 C   0  0  0  0  0  0  0  0  0  0  0  0
    8.2957  -18.6674   20.9019 C   0  0  0  0  0  0  0  0  0  0  0  0
    8.2090  -19.9091   20.3536 N   0  0  0  0  0  0  0  0  0  0  0  0
    9.2640  -20.6103   20.8207 C   0  0  0  0  0  0  0  0  0  0  0  0
    9.9908  -19.8028   21.6490 N   0  0  0  0  0  0  0  0  0  0  0  0
    9.2507  -15.3179   23.3761 C   0  0  0  0  0  0  0  0  0  0  0  0
   10.3386  -14.6957   23.4469 O   0  0  0  0  0  0  0  0  0  0  0  0
    6.2173  -11.5763   26.9983 C   0  0  0  0  0  0  0  0  0  0  0  0
    7.4718  -12.4301   26.9035 C   0  0  0  0  0  0  0  0  0  0  0  0
    7.2779  -13.3838   25.7635 C   0  0  2  0  0  0  0  0  0  0  0  0
    6.0256  -14.1731   25.9411 C   0  0  0  0  0  0  0  0  0  0  0  0
    8.4731  -14.2823   25.5445 C   0  0  2  0  0  0  0  0  0  0  0  0
    8.3269  -15.1523   24.4243 N   0  0  0  0  0  0  0  0  0  0  0  0
    8.7116  -15.0932   26.7537 C   0  0  0  0  0  0  0  0  0  0  0  0
    8.4164  -16.3072   26.7486 O   0  0  0  0  0  0  0  0  0  0  0  0
    9.2550  -14.5708   27.9146 O   0  0  0  0  0  0  0  0  0  0  0  0
  2  1  1  6
  3  2  1  0
  3  4  1  0
  5  6  2  0
  5  2  1  0
  7  5  1  0
  8  7  1  0
  8  9  1  1
 10  9  1  0
 11 10  2  0
 12 11  1  0
 13 12  1  0
 13 14  2  0
 14 10  1  0
 15 22  1  0
 15  8  1  0
 16 15  2  0
 18 17  1  0
 19 21  1  0
 19 18  1  0
 19 20  1  1
 21 23  1  0
 21 22  1  6
 23 25  1  0
 24 23  2  0
M  END
$$$$
