QYR.pdb
     RDKit          3D

 33 33  0  0  1  0  0  0  0  0999 V2000
   24.4294  -16.3844  -14.5244 N   0  0  0  0  0  0  0  0  0  0  0  0
   25.5649  -15.7952  -15.1104 C   0  0  0  0  0  0  0  0  0  0  0  0
   25.6326  -14.5543  -15.2406 O   0  0  0  0  0  0  0  0  0  0  0  0
   26.6761  -16.6426  -15.5714 C   0  0  0  0  0  0  0  0  0  0  0  0
   26.4116  -18.0800  -15.1748 C   0  0  0  0  0  0  0  0  0  0  0  0
   27.3537  -18.3972  -14.0252 C   0  0  2  0  0  0  0  0  0  0  0  0
   28.7392  -18.2110  -14.3937 N   0  0  0  0  0  0  0  0  0  0  0  0
   27.1057  -19.7504  -13.4672 C   0  0  0  0  0  0  0  0  0  0  0  0
   27.7231  -20.7348  -13.9064 O   0  0  0  0  0  0  0  0  0  0  0  0
   29.6697  -19.7354   -6.8986 O   0  0  0  0  0  0  0  0  0  0  0  0
   28.6520  -20.0858   -7.7708 C   0  0  0  0  0  0  0  0  0  0  0  0
   27.3798  -19.6115   -7.5652 C   0  0  0  0  0  0  0  0  0  0  0  0
   26.3556  -19.9472   -8.4189 C   0  0  0  0  0  0  0  0  0  0  0  0
   26.5371  -20.7580   -9.5052 C   0  0  0  0  0  0  0  0  0  0  0  0
   25.4790  -21.1299  -10.4539 C   0  0  0  0  0  0  0  0  0  0  0  0
   25.9533  -21.2929  -11.8587 C   0  0  2  0  0  0  0  0  0  0  0  0
   26.1555  -19.9130  -12.4252 N   0  0  0  0  0  0  0  0  0  0  0  0
   24.9057  -21.8686  -12.7173 C   0  0  0  0  0  0  0  0  0  0  0  0
   24.4966  -23.0527  -12.4239 O   0  0  0  0  0  0  0  0  0  0  0  0
   27.8402  -21.2458   -9.7180 C   0  0  0  0  0  0  0  0  0  0  0  0
   28.8478  -20.9060   -8.8639 C   0  0  0  0  0  0  0  0  0  0  0  0
   17.0968  -22.1683  -11.9598 N   0  0  0  0  0  0  0  0  0  0  0  0
   17.7122  -20.9439  -11.6547 C   0  0  0  0  0  0  0  0  0  0  0  0
   17.0369  -20.0521  -11.0266 N   0  0  0  0  0  0  0  0  0  0  0  0
   19.0593  -20.6344  -12.0079 N   0  0  0  0  0  0  0  0  0  0  0  0
   19.6431  -21.2431  -13.1705 C   0  0  0  0  0  0  0  0  0  0  0  0
   21.0666  -20.7006  -13.3795 C   0  0  0  0  0  0  0  0  0  0  0  0
   22.0543  -21.8041  -13.2084 C   0  0  0  0  0  0  0  0  0  0  0  0
   23.0685  -21.8542  -14.3630 C   0  0  2  0  0  0  0  0  0  0  0  0
   24.2904  -21.2525  -13.8314 N   0  0  0  0  0  0  0  0  0  0  0  0
   22.5904  -21.0806  -15.5162 C   0  0  0  0  0  0  0  0  0  0  0  0
   22.8390  -19.8323  -15.6251 O   0  0  0  0  0  0  0  0  0  0  0  0
   21.8566  -21.6513  -16.5346 O   0  0  0  0  0  0  0  0  0  0  0  0
  2  1  1  0
  3  2  2  0
  4  2  1  0
  5  4  1  0
  6  8  1  0
  6  5  1  0
  6  7  1  6
  8  9  2  0
 10 11  1  0
 11 12  2  0
 11 21  1  0
 12 13  1  0
 13 14  2  0
 14 15  1  0
 16 15  1  1
 17 16  1  0
 17  8  1  0
 18 19  2  0
 18 16  1  0
 20 14  1  0
 21 20  2  0
 22 23  1  0
 23 25  1  0
 24 23  2  0
 25 26  1  0
 26 27  1  0
 28 27  1  0
 29 28  1  1
 29 30  1  0
 30 18  1  0
 31 33  1  0
 31 29  1  0
 32 31  2  0
M  END
$$$$
