QYR.pdb
     RDKit          3D

 33 33  0  0  1  0  0  0  0  0999 V2000
   27.7243  -20.2264  -18.7371 N   0  0  0  0  0  0  0  0  0  0  0  0
   28.2240  -21.3700  -19.3872 C   0  0  0  0  0  0  0  0  0  0  0  0
   28.9878  -21.2515  -20.3690 O   0  0  0  0  0  0  0  0  0  0  0  0
   27.8462  -22.7096  -18.9096 C   0  0  0  0  0  0  0  0  0  0  0  0
   26.9242  -22.5771  -17.7155 C   0  0  0  0  0  0  0  0  0  0  0  0
   27.8069  -22.3003  -16.5097 C   0  0  2  0  0  0  0  0  0  0  0  0
   28.8271  -23.3108  -16.3424 N   0  0  0  0  0  0  0  0  0  0  0  0
   27.0069  -22.1103  -15.2735 C   0  0  0  0  0  0  0  0  0  0  0  0
   26.2196  -22.9922  -14.8920 O   0  0  0  0  0  0  0  0  0  0  0  0
   28.9986  -21.6716   -7.5254 O   0  0  0  0  0  0  0  0  0  0  0  0
   28.4969  -21.1846   -8.7214 C   0  0  0  0  0  0  0  0  0  0  0  0
   29.2906  -21.1698   -9.8419 C   0  0  0  0  0  0  0  0  0  0  0  0
   28.8122  -20.6907  -11.0386 C   0  0  0  0  0  0  0  0  0  0  0  0
   27.5405  -20.2090  -11.1844 C   0  0  0  0  0  0  0  0  0  0  0  0
   26.9799  -19.7037  -12.4447 C   0  0  0  0  0  0  0  0  0  0  0  0
   26.3223  -20.7507  -13.2793 C   0  0  2  0  0  0  0  0  0  0  0  0
   27.1478  -20.9107  -14.5278 N   0  0  0  0  0  0  0  0  0  0  0  0
   25.0170  -20.2954  -13.7843 C   0  0  0  0  0  0  0  0  0  0  0  0
   25.0015  -19.7442  -14.9468 O   0  0  0  0  0  0  0  0  0  0  0  0
   26.7249  -20.2228  -10.0372 C   0  0  0  0  0  0  0  0  0  0  0  0
   27.2111  -20.7003   -8.8557 C   0  0  0  0  0  0  0  0  0  0  0  0
   20.9046  -20.8419  -19.8356 N   0  0  0  0  0  0  0  0  0  0  0  0
   22.1559  -21.0786  -19.2446 C   0  0  0  0  0  0  0  0  0  0  0  0
   23.2081  -21.0067  -19.9751 N   0  0  0  0  0  0  0  0  0  0  0  0
   22.3230  -21.3975  -17.8642 N   0  0  0  0  0  0  0  0  0  0  0  0
   21.1646  -21.6202  -17.0448 C   0  0  0  0  0  0  0  0  0  0  0  0
   21.2036  -20.6821  -15.8270 C   0  0  0  0  0  0  0  0  0  0  0  0
   22.4684  -20.8978  -15.0678 C   0  0  0  0  0  0  0  0  0  0  0  0
   22.5727  -19.9701  -13.8461 C   0  0  2  0  0  0  0  0  0  0  0  0
   23.7692  -20.4077  -13.1286 N   0  0  0  0  0  0  0  0  0  0  0  0
   21.3933  -20.1052  -12.9815 C   0  0  0  0  0  0  0  0  0  0  0  0
   21.3991  -20.8869  -11.9711 O   0  0  0  0  0  0  0  0  0  0  0  0
   20.2281  -19.4035  -13.2079 O   0  0  0  0  0  0  0  0  0  0  0  0
  2  1  1  0
  3  2  2  0
  4  2  1  0
  5  4  1  0
  6  8  1  0
  6  5  1  0
  6  7  1  1
  8  9  2  0
 10 11  1  0
 11 12  2  0
 11 21  1  0
 12 13  1  0
 13 14  2  0
 14 15  1  0
 16 15  1  1
 17 16  1  0
 17  8  1  0
 18 19  2  0
 18 16  1  0
 20 14  1  0
 21 20  2  0
 22 23  1  0
 23 25  1  0
 24 23  2  0
 25 26  1  0
 26 27  1  0
 28 27  1  0
 29 28  1  6
 29 30  1  0
 30 18  1  0
 31 33  1  0
 31 29  1  0
 32 31  2  0
M  END
$$$$
