QYR.pdb
     RDKit          3D

 33 33  0  0  1  0  0  0  0  0999 V2000
   25.9064  -16.9406  -17.8016 N   0  0  0  0  0  0  0  0  0  0  0  0
   25.5497  -17.4184  -19.0761 C   0  0  0  0  0  0  0  0  0  0  0  0
   25.6839  -16.6883  -20.0813 O   0  0  0  0  0  0  0  0  0  0  0  0
   25.0168  -18.7818  -19.2261 C   0  0  0  0  0  0  0  0  0  0  0  0
   25.0309  -19.4788  -17.8817 C   0  0  0  0  0  0  0  0  0  0  0  0
   26.4510  -19.9726  -17.6596 C   0  0  2  0  0  0  0  0  0  0  0  0
   26.8926  -20.8466  -18.7231 N   0  0  0  0  0  0  0  0  0  0  0  0
   26.6137  -20.5992  -16.3236 C   0  0  0  0  0  0  0  0  0  0  0  0
   26.2115  -21.7565  -16.1184 O   0  0  0  0  0  0  0  0  0  0  0  0
   28.0363  -20.8881   -7.5506 O   0  0  0  0  0  0  0  0  0  0  0  0
   28.0789  -20.5825   -8.9012 C   0  0  0  0  0  0  0  0  0  0  0  0
   28.9089  -21.2880   -9.7374 C   0  0  0  0  0  0  0  0  0  0  0  0
   28.9663  -21.0007  -11.0808 C   0  0  0  0  0  0  0  0  0  0  0  0
   28.2143  -20.0141  -11.6564 C   0  0  0  0  0  0  0  0  0  0  0  0
   28.2286  -19.6826  -13.0875 C   0  0  0  0  0  0  0  0  0  0  0  0
   27.2677  -20.4790  -13.9045 C   0  0  2  0  0  0  0  0  0  0  0  0
   27.2336  -19.8653  -15.2786 N   0  0  0  0  0  0  0  0  0  0  0  0
   25.8872  -20.3185  -13.4202 C   0  0  0  0  0  0  0  0  0  0  0  0
   25.3048  -19.2007  -13.6789 O   0  0  0  0  0  0  0  0  0  0  0  0
   27.3628  -19.2892  -10.8014 C   0  0  0  0  0  0  0  0  0  0  0  0
   27.3151  -19.5834   -9.4705 C   0  0  0  0  0  0  0  0  0  0  0  0
   18.0739  -21.2411  -14.5100 N   0  0  0  0  0  0  0  0  0  0  0  0
   19.2606  -21.4973  -15.2150 C   0  0  0  0  0  0  0  0  0  0  0  0
   19.2796  -21.3060  -16.4835 N   0  0  0  0  0  0  0  0  0  0  0  0
   20.4570  -21.9628  -14.5929 N   0  0  0  0  0  0  0  0  0  0  0  0
   20.4228  -22.3817  -13.2195 C   0  0  0  0  0  0  0  0  0  0  0  0
   21.4131  -21.5408  -12.3969 C   0  0  0  0  0  0  0  0  0  0  0  0
   22.7950  -21.7392  -12.9198 C   0  0  0  0  0  0  0  0  0  0  0  0
   23.8206  -20.8588  -12.1868 C   0  0  2  0  0  0  0  0  0  0  0  0
   25.1245  -21.2703  -12.7048 N   0  0  0  0  0  0  0  0  0  0  0  0
   23.7648  -21.0835  -10.7366 C   0  0  0  0  0  0  0  0  0  0  0  0
   22.9954  -20.3905   -9.9884 O   0  0  0  0  0  0  0  0  0  0  0  0
   24.5290  -22.0442  -10.1087 O   0  0  0  0  0  0  0  0  0  0  0  0
  2  1  1  0
  3  2  2  0
  4  2  1  0
  5  4  1  0
  6  8  1  0
  6  5  1  0
  6  7  1  6
  8  9  2  0
 10 11  1  0
 11 12  2  0
 11 21  1  0
 12 13  1  0
 13 14  2  0
 14 15  1  0
 16 15  1  1
 17 16  1  0
 17  8  1  0
 18 19  2  0
 18 16  1  0
 20 14  1  0
 21 20  2  0
 22 23  1  0
 23 25  1  0
 24 23  2  0
 25 26  1  0
 26 27  1  0
 28 27  1  0
 29 28  1  6
 29 30  1  0
 30 18  1  0
 31 33  1  0
 31 29  1  0
 32 31  2  0
M  END
$$$$
