QYR.pdb
     RDKit          3D

 33 33  0  0  1  0  0  0  0  0999 V2000
   30.5728  -21.6539  -17.0046 N   0  0  0  0  0  0  0  0  0  0  0  0
   29.7388  -21.8510  -18.1207 C   0  0  0  0  0  0  0  0  0  0  0  0
   30.2054  -21.7660  -19.2767 O   0  0  0  0  0  0  0  0  0  0  0  0
   28.3129  -22.1580  -17.9262 C   0  0  0  0  0  0  0  0  0  0  0  0
   28.0049  -22.2033  -16.4442 C   0  0  0  0  0  0  0  0  0  0  0  0
   26.8151  -21.2854  -16.2162 C   0  0  2  0  0  0  0  0  0  0  0  0
   27.1665  -19.8928  -16.3811 N   0  0  0  0  0  0  0  0  0  0  0  0
   26.1647  -21.5417  -14.9065 C   0  0  0  0  0  0  0  0  0  0  0  0
   25.7744  -22.6833  -14.6108 O   0  0  0  0  0  0  0  0  0  0  0  0
   31.4808  -22.0274  -10.8021 O   0  0  0  0  0  0  0  0  0  0  0  0
   30.2008  -21.5341  -10.9952 C   0  0  0  0  0  0  0  0  0  0  0  0
   29.9522  -20.6568  -12.0221 C   0  0  0  0  0  0  0  0  0  0  0  0
   28.6891  -20.1555  -12.2311 C   0  0  0  0  0  0  0  0  0  0  0  0
   27.6225  -20.4934  -11.4447 C   0  0  0  0  0  0  0  0  0  0  0  0
   26.2533  -19.9979  -11.6393 C   0  0  0  0  0  0  0  0  0  0  0  0
   25.4556  -20.7886  -12.6209 C   0  0  2  0  0  0  0  0  0  0  0  0
   25.9910  -20.4706  -13.9913 N   0  0  0  0  0  0  0  0  0  0  0  0
   24.0602  -20.3243  -12.6790 C   0  0  0  0  0  0  0  0  0  0  0  0
   23.8417  -19.2077  -13.2800 O   0  0  0  0  0  0  0  0  0  0  0  0
   27.8746  -21.3922  -10.3911 C   0  0  0  0  0  0  0  0  0  0  0  0
   29.1320  -21.8824  -10.1938 C   0  0  0  0  0  0  0  0  0  0  0  0
   20.9981  -25.5541  -14.7556 N   0  0  0  0  0  0  0  0  0  0  0  0
   20.5713  -24.7125  -15.7950 C   0  0  0  0  0  0  0  0  0  0  0  0
   19.6711  -25.1374  -16.6043 N   0  0  0  0  0  0  0  0  0  0  0  0
   21.0881  -23.3991  -16.0024 N   0  0  0  0  0  0  0  0  0  0  0  0
   21.9730  -22.8254  -15.0274 C   0  0  0  0  0  0  0  0  0  0  0  0
   21.1679  -22.3830  -13.7943 C   0  0  0  0  0  0  0  0  0  0  0  0
   21.1351  -20.8942  -13.7242 C   0  0  0  0  0  0  0  0  0  0  0  0
   21.6147  -20.3705  -12.3605 C   0  0  2  0  0  0  0  0  0  0  0  0
   22.9259  -20.9823  -12.1501 N   0  0  0  0  0  0  0  0  0  0  0  0
   20.6956  -20.7759  -11.2891 C   0  0  0  0  0  0  0  0  0  0  0  0
   21.0548  -21.6067  -10.3877 O   0  0  0  0  0  0  0  0  0  0  0  0
   19.4095  -20.2876  -11.1962 O   0  0  0  0  0  0  0  0  0  0  0  0
  2  1  1  0
  3  2  2  0
  4  2  1  0
  5  4  1  0
  6  8  1  0
  6  5  1  0
  6  7  1  1
  8  9  2  0
 10 11  1  0
 11 12  2  0
 11 21  1  0
 12 13  1  0
 13 14  2  0
 14 15  1  0
 16 15  1  1
 17 16  1  0
 17  8  1  0
 18 19  2  0
 18 16  1  0
 20 14  1  0
 21 20  2  0
 22 23  1  0
 23 25  1  0
 24 23  2  0
 25 26  1  0
 26 27  1  0
 28 27  1  0
 29 28  1  6
 29 30  1  0
 30 18  1  0
 31 33  1  0
 31 29  1  0
 32 31  2  0
M  END
$$$$
