QYR.pdb
     RDKit          3D

 33 33  0  0  1  0  0  0  0  0999 V2000
   25.9275  -13.5308  -20.4733 N   0  0  0  0  0  0  0  0  0  0  0  0
   24.8940  -14.1115  -21.2314 C   0  0  0  0  0  0  0  0  0  0  0  0
   24.5779  -13.6263  -22.3386 O   0  0  0  0  0  0  0  0  0  0  0  0
   24.1832  -15.2936  -20.7190 C   0  0  0  0  0  0  0  0  0  0  0  0
   24.7758  -15.6991  -19.3856 C   0  0  0  0  0  0  0  0  0  0  0  0
   24.1787  -17.0519  -19.0345 C   0  0  2  0  0  0  0  0  0  0  0  0
   23.0029  -17.3455  -19.8227 N   0  0  0  0  0  0  0  0  0  0  0  0
   23.9156  -17.1767  -17.5788 C   0  0  0  0  0  0  0  0  0  0  0  0
   24.2430  -16.2660  -16.8000 O   0  0  0  0  0  0  0  0  0  0  0  0
   20.1859  -19.9830  -10.0528 O   0  0  0  0  0  0  0  0  0  0  0  0
   20.5538  -19.7881  -11.3740 C   0  0  0  0  0  0  0  0  0  0  0  0
   20.2002  -18.6289  -12.0199 C   0  0  0  0  0  0  0  0  0  0  0  0
   20.5553  -18.4156  -13.3309 C   0  0  0  0  0  0  0  0  0  0  0  0
   21.2695  -19.3270  -14.0588 C   0  0  0  0  0  0  0  0  0  0  0  0
   21.6864  -19.1365  -15.4545 C   0  0  0  0  0  0  0  0  0  0  0  0
   22.9848  -18.4183  -15.6074 C   0  0  2  0  0  0  0  0  0  0  0  0
   23.2854  -18.3471  -17.0806 N   0  0  0  0  0  0  0  0  0  0  0  0
   24.1030  -19.2063  -15.0645 C   0  0  0  0  0  0  0  0  0  0  0  0
   24.0598  -19.4932  -13.8109 O   0  0  0  0  0  0  0  0  0  0  0  0
   21.6329  -20.5163  -13.3993 C   0  0  0  0  0  0  0  0  0  0  0  0
   21.2744  -20.7163  -12.0986 C   0  0  0  0  0  0  0  0  0  0  0  0
   26.7838  -19.5679   -8.4130 N   0  0  0  0  0  0  0  0  0  0  0  0
   25.7258  -20.4008   -8.8105 C   0  0  0  0  0  0  0  0  0  0  0  0
   24.9726  -20.9163   -7.9089 N   0  0  0  0  0  0  0  0  0  0  0  0
   25.4399  -20.7081  -10.1739 N   0  0  0  0  0  0  0  0  0  0  0  0
   26.2340  -20.1156  -11.2136 C   0  0  0  0  0  0  0  0  0  0  0  0
   25.7339  -20.5975  -12.5856 C   0  0  0  0  0  0  0  0  0  0  0  0
   26.3173  -19.7447  -13.6602 C   0  0  0  0  0  0  0  0  0  0  0  0
   26.2475  -20.4247  -15.0375 C   0  0  2  0  0  0  0  0  0  0  0  0
   25.2220  -19.6927  -15.7792 N   0  0  0  0  0  0  0  0  0  0  0  0
   25.8603  -21.8354  -14.9080 C   0  0  0  0  0  0  0  0  0  0  0  0
   24.7143  -22.2458  -15.2956 O   0  0  0  0  0  0  0  0  0  0  0  0
   26.7021  -22.7851  -14.3687 O   0  0  0  0  0  0  0  0  0  0  0  0
  2  1  1  0
  3  2  2  0
  4  2  1  0
  5  4  1  0
  6  8  1  0
  6  5  1  0
  6  7  1  6
  8  9  2  0
 10 11  1  0
 11 12  2  0
 11 21  1  0
 12 13  1  0
 13 14  2  0
 14 15  1  0
 16 15  1  6
 17 16  1  0
 17  8  1  0
 18 19  2  0
 18 16  1  0
 20 14  1  0
 21 20  2  0
 22 23  1  0
 23 25  1  0
 24 23  2  0
 25 26  1  0
 26 27  1  0
 28 27  1  0
 29 28  1  1
 29 30  1  0
 30 18  1  0
 31 33  1  0
 31 29  1  0
 32 31  2  0
M  END
$$$$
