QYR.pdb
     RDKit          3D

 33 33  0  0  1  0  0  0  0  0999 V2000
   34.1174  -25.5892  -14.9655 N   0  0  0  0  0  0  0  0  0  0  0  0
   33.6943  -26.4838  -15.9659 C   0  0  0  0  0  0  0  0  0  0  0  0
   34.1455  -27.6486  -15.9991 O   0  0  0  0  0  0  0  0  0  0  0  0
   32.7178  -26.0466  -16.9760 C   0  0  0  0  0  0  0  0  0  0  0  0
   32.2984  -24.6204  -16.6872 C   0  0  0  0  0  0  0  0  0  0  0  0
   30.7820  -24.5825  -16.7814 C   0  0  2  0  0  0  0  0  0  0  0  0
   30.3019  -25.1591  -18.0170 N   0  0  0  0  0  0  0  0  0  0  0  0
   30.2508  -23.2131  -16.5655 C   0  0  0  0  0  0  0  0  0  0  0  0
   30.5107  -22.5952  -15.5196 O   0  0  0  0  0  0  0  0  0  0  0  0
   26.3836  -15.4248  -18.4813 O   0  0  0  0  0  0  0  0  0  0  0  0
   27.0055  -16.6624  -18.5076 C   0  0  0  0  0  0  0  0  0  0  0  0
   26.2559  -17.8029  -18.6596 C   0  0  0  0  0  0  0  0  0  0  0  0
   26.8534  -19.0409  -18.6882 C   0  0  0  0  0  0  0  0  0  0  0  0
   28.2053  -19.2098  -18.5700 C   0  0  0  0  0  0  0  0  0  0  0  0
   28.8899  -20.5089  -18.6121 C   0  0  0  0  0  0  0  0  0  0  0  0
   28.9047  -21.2297  -17.3062 C   0  0  2  0  0  0  0  0  0  0  0  0
   29.4414  -22.6121  -17.5648 N   0  0  0  0  0  0  0  0  0  0  0  0
   27.5405  -21.4758  -16.8117 C   0  0  0  0  0  0  0  0  0  0  0  0
   26.8755  -22.4195  -17.3800 O   0  0  0  0  0  0  0  0  0  0  0  0
   28.9761  -18.0424  -18.4137 C   0  0  0  0  0  0  0  0  0  0  0  0
   28.3717  -16.8201  -18.3865 C   0  0  0  0  0  0  0  0  0  0  0  0
   23.0868  -21.3703   -9.0436 N   0  0  0  0  0  0  0  0  0  0  0  0
   24.3880  -21.2118   -9.5465 C   0  0  0  0  0  0  0  0  0  0  0  0
   25.3090  -20.7934   -8.7575 N   0  0  0  0  0  0  0  0  0  0  0  0
   24.7452  -21.4930  -10.8987 N   0  0  0  0  0  0  0  0  0  0  0  0
   25.6532  -20.6183  -11.5865 C   0  0  0  0  0  0  0  0  0  0  0  0
   25.1803  -20.4165  -13.0357 C   0  0  0  0  0  0  0  0  0  0  0  0
   25.6426  -21.5566  -13.8777 C   0  0  0  0  0  0  0  0  0  0  0  0
   25.5462  -21.2405  -15.3794 C   0  0  2  0  0  0  0  0  0  0  0  0
   26.8816  -20.7882  -15.7664 N   0  0  0  0  0  0  0  0  0  0  0  0
   24.5653  -20.1768  -15.6305 C   0  0  0  0  0  0  0  0  0  0  0  0
   24.9054  -18.9455  -15.6161 O   0  0  0  0  0  0  0  0  0  0  0  0
   23.2385  -20.4438  -15.8943 O   0  0  0  0  0  0  0  0  0  0  0  0
  2  1  1  0
  3  2  2  0
  4  2  1  0
  5  4  1  0
  6  8  1  0
  6  5  1  0
  6  7  1  6
  8  9  2  0
 10 11  1  0
 11 12  2  0
 11 21  1  0
 12 13  1  0
 13 14  2  0
 14 15  1  0
 16 15  1  6
 17 16  1  0
 17  8  1  0
 18 19  2  0
 18 16  1  0
 20 14  1  0
 21 20  2  0
 22 23  1  0
 23 25  1  0
 24 23  2  0
 25 26  1  0
 26 27  1  0
 28 27  1  0
 29 28  1  1
 29 30  1  0
 30 18  1  0
 31 33  1  0
 31 29  1  0
 32 31  2  0
M  END
$$$$
