QYR.pdb
     RDKit          3D

 33 33  0  0  1  0  0  0  0  0999 V2000
   23.7498  -16.3014  -22.0470 N   0  0  0  0  0  0  0  0  0  0  0  0
   24.5820  -15.4178  -21.3353 C   0  0  0  0  0  0  0  0  0  0  0  0
   24.4760  -14.1838  -21.5008 O   0  0  0  0  0  0  0  0  0  0  0  0
   25.5803  -15.9481  -20.3932 C   0  0  0  0  0  0  0  0  0  0  0  0
   25.4958  -17.4599  -20.3680 C   0  0  0  0  0  0  0  0  0  0  0  0
   26.5013  -17.9372  -19.3331 C   0  0  2  0  0  0  0  0  0  0  0  0
   26.7737  -19.3517  -19.4553 N   0  0  0  0  0  0  0  0  0  0  0  0
   26.0902  -17.5689  -17.9549 C   0  0  0  0  0  0  0  0  0  0  0  0
   26.3125  -16.4283  -17.5158 O   0  0  0  0  0  0  0  0  0  0  0  0
   19.9277  -14.6381  -17.7196 O   0  0  0  0  0  0  0  0  0  0  0  0
   20.8150  -15.5795  -17.2242 C   0  0  0  0  0  0  0  0  0  0  0  0
   21.2225  -15.5145  -15.9144 C   0  0  0  0  0  0  0  0  0  0  0  0
   22.1025  -16.4389  -15.4030 C   0  0  0  0  0  0  0  0  0  0  0  0
   22.6160  -17.4611  -16.1524 C   0  0  0  0  0  0  0  0  0  0  0  0
   23.5440  -18.4813  -15.6462 C   0  0  0  0  0  0  0  0  0  0  0  0
   24.9828  -18.1074  -15.7690 C   0  0  2  0  0  0  0  0  0  0  0  0
   25.4394  -18.5313  -17.1393 N   0  0  0  0  0  0  0  0  0  0  0  0
   25.8253  -18.9039  -14.8625 C   0  0  0  0  0  0  0  0  0  0  0  0
   25.8014  -20.1812  -15.0158 O   0  0  0  0  0  0  0  0  0  0  0  0
   22.2002  -17.5299  -17.4955 C   0  0  0  0  0  0  0  0  0  0  0  0
   21.3271  -16.6068  -17.9913 C   0  0  0  0  0  0  0  0  0  0  0  0
   23.5373  -21.3700   -8.1113 N   0  0  0  0  0  0  0  0  0  0  0  0
   23.4747  -20.8416   -9.4104 C   0  0  0  0  0  0  0  0  0  0  0  0
   22.3242  -20.6177   -9.9320 N   0  0  0  0  0  0  0  0  0  0  0  0
   24.6306  -20.5373  -10.1893 N   0  0  0  0  0  0  0  0  0  0  0  0
   25.7749  -21.4026  -10.1241 C   0  0  0  0  0  0  0  0  0  0  0  0
   26.8988  -20.8428  -11.0119 C   0  0  0  0  0  0  0  0  0  0  0  0
   26.3397  -19.8256  -11.9473 C   0  0  0  0  0  0  0  0  0  0  0  0
   27.3695  -19.3823  -12.9995 C   0  0  2  0  0  0  0  0  0  0  0  0
   26.6704  -18.4122  -13.8409 N   0  0  0  0  0  0  0  0  0  0  0  0
   27.8136  -20.5217  -13.8127 C   0  0  0  0  0  0  0  0  0  0  0  0
   26.9788  -21.2333  -14.4674 O   0  0  0  0  0  0  0  0  0  0  0  0
   29.1405  -20.8825  -13.9152 O   0  0  0  0  0  0  0  0  0  0  0  0
  2  1  1  0
  3  2  2  0
  4  2  1  0
  5  4  1  0
  6  8  1  0
  6  5  1  0
  6  7  1  1
  8  9  2  0
 10 11  1  0
 11 12  2  0
 11 21  1  0
 12 13  1  0
 13 14  2  0
 14 15  1  0
 16 15  1  6
 17 16  1  0
 17  8  1  0
 18 19  2  0
 18 16  1  0
 20 14  1  0
 21 20  2  0
 22 23  1  0
 23 25  1  0
 24 23  2  0
 25 26  1  0
 26 27  1  0
 28 27  1  0
 29 28  1  1
 29 30  1  0
 30 18  1  0
 31 33  1  0
 31 29  1  0
 32 31  2  0
M  END
$$$$
