QYR.pdb
     RDKit          3D

 33 33  0  0  1  0  0  0  0  0999 V2000
   44.0683   -4.0110  -16.3768 N   0  0  0  0  0  0  0  0  0  0  0  0
   43.8210   -5.3020  -16.8791 C   0  0  0  0  0  0  0  0  0  0  0  0
   44.5572   -5.7825  -17.7671 O   0  0  0  0  0  0  0  0  0  0  0  0
   42.6922   -6.0887  -16.3574 C   0  0  0  0  0  0  0  0  0  0  0  0
   42.1679   -5.4403  -15.0932 C   0  0  0  0  0  0  0  0  0  0  0  0
   42.3276   -6.4614  -13.9789 C   0  0  2  0  0  0  0  0  0  0  0  0
   41.9570   -7.7917  -14.4067 N   0  0  0  0  0  0  0  0  0  0  0  0
   41.6033   -6.0526  -12.7492 C   0  0  0  0  0  0  0  0  0  0  0  0
   41.7913   -4.9297  -12.2523 O   0  0  0  0  0  0  0  0  0  0  0  0
   36.1415   -6.7400   -5.7512 O   0  0  0  0  0  0  0  0  0  0  0  0
   36.7875   -6.9073   -6.9652 C   0  0  0  0  0  0  0  0  0  0  0  0
   36.6418   -5.9659   -7.9543 C   0  0  0  0  0  0  0  0  0  0  0  0
   37.2742   -6.1128   -9.1663 C   0  0  0  0  0  0  0  0  0  0  0  0
   38.0726   -7.1847   -9.4560 C   0  0  0  0  0  0  0  0  0  0  0  0
   38.7818   -7.3762  -10.7282 C   0  0  0  0  0  0  0  0  0  0  0  0
   39.9927   -6.5191  -10.8829 C   0  0  2  0  0  0  0  0  0  0  0  0
   40.6914   -6.9558  -12.1427 N   0  0  0  0  0  0  0  0  0  0  0  0
   40.9823   -6.7897   -9.8276 C   0  0  0  0  0  0  0  0  0  0  0  0
   40.7547   -6.2773   -8.6695 O   0  0  0  0  0  0  0  0  0  0  0  0
   38.2234   -8.1514   -8.4440 C   0  0  0  0  0  0  0  0  0  0  0  0
   37.5907   -7.9945   -7.2460 C   0  0  0  0  0  0  0  0  0  0  0  0
   46.0986  -13.5811   -7.5949 N   0  0  0  0  0  0  0  0  0  0  0  0
   46.2422  -12.6187   -6.5829 C   0  0  0  0  0  0  0  0  0  0  0  0
   46.9596  -12.9020   -5.5577 N   0  0  0  0  0  0  0  0  0  0  0  0
   45.6287  -11.3317   -6.6323 N   0  0  0  0  0  0  0  0  0  0  0  0
   44.7083  -11.0276   -7.6921 C   0  0  0  0  0  0  0  0  0  0  0  0
   44.3097   -9.5441   -7.6220 C   0  0  0  0  0  0  0  0  0  0  0  0
   43.3732   -9.2230   -8.7367 C   0  0  0  0  0  0  0  0  0  0  0  0
   42.9976   -7.7322   -8.7626 C   0  0  2  0  0  0  0  0  0  0  0  0
   42.1588   -7.5649   -9.9484 N   0  0  0  0  0  0  0  0  0  0  0  0
   44.1957   -6.8903   -8.8744 C   0  0  0  0  0  0  0  0  0  0  0  0
   44.7344   -6.6524  -10.0080 O   0  0  0  0  0  0  0  0  0  0  0  0
   44.7985   -6.3151   -7.7757 O   0  0  0  0  0  0  0  0  0  0  0  0
  2  1  1  0
  3  2  2  0
  4  2  1  0
  5  4  1  0
  6  8  1  0
  6  5  1  0
  6  7  1  6
  8  9  2  0
 10 11  1  0
 11 12  2  0
 11 21  1  0
 12 13  1  0
 13 14  2  0
 14 15  1  0
 16 15  1  1
 17 16  1  0
 17  8  1  0
 18 19  2  0
 18 16  1  0
 20 14  1  0
 21 20  2  0
 22 23  1  0
 23 25  1  0
 24 23  2  0
 25 26  1  0
 26 27  1  0
 28 27  1  0
 29 28  1  6
 29 30  1  0
 30 18  1  0
 31 33  1  0
 31 29  1  0
 32 31  2  0
M  END
$$$$
