QYR.pdb
     RDKit          3D

 33 33  0  0  1  0  0  0  0  0999 V2000
   30.1917  -23.8796  -19.3423 N   0  0  0  0  0  0  0  0  0  0  0  0
   30.5154  -22.5928  -19.8107 C   0  0  0  0  0  0  0  0  0  0  0  0
   30.9613  -22.4389  -20.9677 O   0  0  0  0  0  0  0  0  0  0  0  0
   30.3282  -21.4247  -18.9356 C   0  0  0  0  0  0  0  0  0  0  0  0
   29.8309  -21.8846  -17.5811 C   0  0  0  0  0  0  0  0  0  0  0  0
   28.3468  -21.5617  -17.5271 C   0  0  2  0  0  0  0  0  0  0  0  0
   28.0733  -20.2027  -17.9373 N   0  0  0  0  0  0  0  0  0  0  0  0
   27.7648  -21.8666  -16.1958 C   0  0  0  0  0  0  0  0  0  0  0  0
   27.8629  -23.0068  -15.7126 O   0  0  0  0  0  0  0  0  0  0  0  0
   24.4545  -20.7905   -8.0805 O   0  0  0  0  0  0  0  0  0  0  0  0
   25.0117  -20.6089   -9.3358 C   0  0  0  0  0  0  0  0  0  0  0  0
   26.2907  -21.0413   -9.5868 C   0  0  0  0  0  0  0  0  0  0  0  0
   26.8623  -20.8708  -10.8257 C   0  0  0  0  0  0  0  0  0  0  0  0
   26.2049  -20.2722  -11.8648 C   0  0  0  0  0  0  0  0  0  0  0  0
   26.7670  -20.0837  -13.2089 C   0  0  0  0  0  0  0  0  0  0  0  0
   26.4702  -21.1998  -14.1528 C   0  0  2  0  0  0  0  0  0  0  0  0
   27.0933  -20.8438  -15.4760 N   0  0  0  0  0  0  0  0  0  0  0  0
   25.0326  -21.2788  -14.4583 C   0  0  0  0  0  0  0  0  0  0  0  0
   24.5181  -20.2907  -15.1022 O   0  0  0  0  0  0  0  0  0  0  0  0
   24.8937  -19.8278  -11.6101 C   0  0  0  0  0  0  0  0  0  0  0  0
   24.3378  -20.0024  -10.3769 C   0  0  0  0  0  0  0  0  0  0  0  0
   19.0044  -27.4484  -15.4191 N   0  0  0  0  0  0  0  0  0  0  0  0
   18.3803  -26.5191  -14.5718 C   0  0  0  0  0  0  0  0  0  0  0  0
   17.1885  -26.7591  -14.1620 N   0  0  0  0  0  0  0  0  0  0  0  0
   19.0042  -25.3118  -14.1376 N   0  0  0  0  0  0  0  0  0  0  0  0
   20.1852  -24.8454  -14.8088 C   0  0  0  0  0  0  0  0  0  0  0  0
   20.5967  -23.4766  -14.2417 C   0  0  0  0  0  0  0  0  0  0  0  0
   22.0607  -23.4697  -13.9603 C   0  0  0  0  0  0  0  0  0  0  0  0
   22.7361  -22.1789  -14.4521 C   0  0  2  0  0  0  0  0  0  0  0  0
   24.1528  -22.3347  -14.1259 N   0  0  0  0  0  0  0  0  0  0  0  0
   22.1898  -21.0038  -13.7611 C   0  0  0  0  0  0  0  0  0  0  0  0
   21.4680  -20.1492  -14.3779 O   0  0  0  0  0  0  0  0  0  0  0  0
   22.4211  -20.7605  -12.4237 O   0  0  0  0  0  0  0  0  0  0  0  0
  2  1  1  0
  3  2  2  0
  4  2  1  0
  5  4  1  0
  6  8  1  0
  6  5  1  0
  6  7  1  1
  8  9  2  0
 10 11  1  0
 11 12  2  0
 11 21  1  0
 12 13  1  0
 13 14  2  0
 14 15  1  0
 16 15  1  1
 17 16  1  0
 17  8  1  0
 18 19  2  0
 18 16  1  0
 20 14  1  0
 21 20  2  0
 22 23  1  0
 23 25  1  0
 24 23  2  0
 25 26  1  0
 26 27  1  0
 28 27  1  0
 29 28  1  1
 29 30  1  0
 30 18  1  0
 31 33  1  0
 31 29  1  0
 32 31  2  0
M  END
$$$$
