QYR.pdb
     RDKit          3D

 33 33  0  0  1  0  0  0  0  0999 V2000
   21.5893  -33.5693   -6.3023 N   0  0  0  0  0  0  0  0  0  0  0  0
   22.6300  -34.5003   -6.1287 C   0  0  0  0  0  0  0  0  0  0  0  0
   22.4442  -35.5306   -5.4464 O   0  0  0  0  0  0  0  0  0  0  0  0
   23.9410  -34.2603   -6.7522 C   0  0  0  0  0  0  0  0  0  0  0  0
   23.9048  -32.9515   -7.5133 C   0  0  0  0  0  0  0  0  0  0  0  0
   24.0975  -33.2937   -8.9815 C   0  0  2  0  0  0  0  0  0  0  0  0
   25.3829  -33.9067   -9.2302 N   0  0  0  0  0  0  0  0  0  0  0  0
   23.8662  -32.1167   -9.8563 C   0  0  0  0  0  0  0  0  0  0  0  0
   24.8255  -31.5085  -10.3593 O   0  0  0  0  0  0  0  0  0  0  0  0
   21.7481  -28.0361  -17.0431 O   0  0  0  0  0  0  0  0  0  0  0  0
   21.9838  -28.8252  -15.9292 C   0  0  0  0  0  0  0  0  0  0  0  0
   20.9355  -29.4434  -15.2931 C   0  0  0  0  0  0  0  0  0  0  0  0
   21.1478  -30.2307  -14.1861 C   0  0  0  0  0  0  0  0  0  0  0  0
   22.3923  -30.4433  -13.6604 C   0  0  0  0  0  0  0  0  0  0  0  0
   22.6701  -31.2888  -12.4916 C   0  0  0  0  0  0  0  0  0  0  0  0
   22.3217  -30.6546  -11.1872 C   0  0  2  0  0  0  0  0  0  0  0  0
   22.5376  -31.6892  -10.1154 N   0  0  0  0  0  0  0  0  0  0  0  0
   20.8823  -30.3609  -11.0988 C   0  0  0  0  0  0  0  0  0  0  0  0
   20.0811  -31.3676  -11.0913 O   0  0  0  0  0  0  0  0  0  0  0  0
   23.4686  -29.8104  -14.3103 C   0  0  0  0  0  0  0  0  0  0  0  0
   23.2452  -29.0317  -15.4074 C   0  0  0  0  0  0  0  0  0  0  0  0
   17.9558  -24.6878   -5.8254 N   0  0  0  0  0  0  0  0  0  0  0  0
   18.3943  -25.9715   -5.4635 C   0  0  0  0  0  0  0  0  0  0  0  0
   18.6181  -26.2221   -4.2253 N   0  0  0  0  0  0  0  0  0  0  0  0
   18.6065  -27.0217   -6.4054 N   0  0  0  0  0  0  0  0  0  0  0  0
   18.3763  -26.7763   -7.8017 C   0  0  0  0  0  0  0  0  0  0  0  0
   18.6631  -28.0549   -8.6063 C   0  0  0  0  0  0  0  0  0  0  0  0
   18.5296  -27.7711  -10.0638 C   0  0  0  0  0  0  0  0  0  0  0  0
   18.8247  -29.0121  -10.9222 C   0  0  2  0  0  0  0  0  0  0  0  0
   20.2823  -29.0834  -11.0114 N   0  0  0  0  0  0  0  0  0  0  0  0
   18.2474  -28.8714  -12.2652 C   0  0  0  0  0  0  0  0  0  0  0  0
   16.9997  -29.0518  -12.4718 O   0  0  0  0  0  0  0  0  0  0  0  0
   19.0098  -28.5394  -13.3651 O   0  0  0  0  0  0  0  0  0  0  0  0
  2  1  1  0
  3  2  2  0
  4  2  1  0
  5  4  1  0
  6  8  1  0
  6  5  1  0
  6  7  1  1
  8  9  2  0
 10 11  1  0
 11 12  2  0
 11 21  1  0
 12 13  1  0
 13 14  2  0
 14 15  1  0
 16 15  1  6
 17 16  1  0
 17  8  1  0
 18 19  2  0
 18 16  1  0
 20 14  1  0
 21 20  2  0
 22 23  1  0
 23 25  1  0
 24 23  2  0
 25 26  1  0
 26 27  1  0
 28 27  1  0
 29 28  1  1
 29 30  1  0
 30 18  1  0
 31 33  1  0
 31 29  1  0
 32 31  2  0
M  END
$$$$
