QYR.pdb
     RDKit          3D

 33 33  0  0  1  0  0  0  0  0999 V2000
   30.7874  -23.7563  -19.3269 N   0  0  0  0  0  0  0  0  0  0  0  0
   30.8202  -22.3711  -19.5722 C   0  0  0  0  0  0  0  0  0  0  0  0
   31.4506  -21.9212  -20.5527 O   0  0  0  0  0  0  0  0  0  0  0  0
   30.1101  -21.4493  -18.6714 C   0  0  0  0  0  0  0  0  0  0  0  0
   29.4895  -22.2342  -17.5346 C   0  0  0  0  0  0  0  0  0  0  0  0
   28.0309  -21.8143  -17.4580 C   0  0  2  0  0  0  0  0  0  0  0  0
   27.8431  -20.4357  -17.8508 N   0  0  0  0  0  0  0  0  0  0  0  0
   27.4464  -22.0946  -16.1224 C   0  0  0  0  0  0  0  0  0  0  0  0
   27.5975  -23.2071  -15.5906 O   0  0  0  0  0  0  0  0  0  0  0  0
   23.1587  -20.6913   -8.4510 O   0  0  0  0  0  0  0  0  0  0  0  0
   23.8870  -20.5903   -9.6250 C   0  0  0  0  0  0  0  0  0  0  0  0
   23.2914  -20.0996  -10.7609 C   0  0  0  0  0  0  0  0  0  0  0  0
   23.9964  -19.9912  -11.9363 C   0  0  0  0  0  0  0  0  0  0  0  0
   25.3095  -20.3577  -12.0447 C   0  0  0  0  0  0  0  0  0  0  0  0
   26.1080  -20.2442  -13.2726 C   0  0  0  0  0  0  0  0  0  0  0  0
   26.0220  -21.4366  -14.1648 C   0  0  2  0  0  0  0  0  0  0  0  0
   26.7114  -21.0803  -15.4546 N   0  0  0  0  0  0  0  0  0  0  0  0
   24.6341  -21.7017  -14.5768 C   0  0  0  0  0  0  0  0  0  0  0  0
   24.1038  -20.8735  -15.4064 O   0  0  0  0  0  0  0  0  0  0  0  0
   25.9225  -20.8613  -10.8819 C   0  0  0  0  0  0  0  0  0  0  0  0
   25.2124  -20.9643   -9.7220 C   0  0  0  0  0  0  0  0  0  0  0  0
   19.3010  -28.4808  -13.5208 N   0  0  0  0  0  0  0  0  0  0  0  0
   19.9916  -28.0572  -14.6674 C   0  0  0  0  0  0  0  0  0  0  0  0
   20.3449  -28.9335  -15.5353 N   0  0  0  0  0  0  0  0  0  0  0  0
   20.3249  -26.6938  -14.9227 N   0  0  0  0  0  0  0  0  0  0  0  0
   19.9254  -25.6810  -13.9859 C   0  0  0  0  0  0  0  0  0  0  0  0
   20.4223  -24.3071  -14.4654 C   0  0  0  0  0  0  0  0  0  0  0  0
   21.8696  -24.1558  -14.1411 C   0  0  0  0  0  0  0  0  0  0  0  0
   22.4247  -22.7980  -14.6020 C   0  0  2  0  0  0  0  0  0  0  0  0
   23.8193  -22.7808  -14.1631 N   0  0  0  0  0  0  0  0  0  0  0  0
   21.6898  -21.6905  -13.9773 C   0  0  0  0  0  0  0  0  0  0  0  0
   21.0704  -20.8251  -14.6839 O   0  0  0  0  0  0  0  0  0  0  0  0
   21.6265  -21.5253  -12.6099 O   0  0  0  0  0  0  0  0  0  0  0  0
  2  1  1  0
  3  2  2  0
  4  2  1  0
  5  4  1  0
  6  8  1  0
  6  5  1  0
  6  7  1  1
  8  9  2  0
 10 11  1  0
 11 12  2  0
 11 21  1  0
 12 13  1  0
 13 14  2  0
 14 15  1  0
 16 15  1  1
 17 16  1  0
 17  8  1  0
 18 19  2  0
 18 16  1  0
 20 14  1  0
 21 20  2  0
 22 23  1  0
 23 25  1  0
 24 23  2  0
 25 26  1  0
 26 27  1  0
 28 27  1  0
 29 28  1  1
 29 30  1  0
 30 18  1  0
 31 33  1  0
 31 29  1  0
 32 31  2  0
M  END
$$$$
