QWR.pdb
     RDKit          3D

 35 36  0  0  1  0  0  0  0  0999 V2000
   27.1408  -18.3550  -18.0586 N   0  0  0  0  0  0  0  0  0  0  0  0
   28.3037  -18.0715  -17.3107 C   0  0  0  0  0  0  0  0  0  0  0  0
   29.4549  -18.1916  -17.7645 O   0  0  0  0  0  0  0  0  0  0  0  0
   28.1385  -17.6042  -15.9064 C   0  0  0  0  0  0  0  0  0  0  0  0
   27.3345  -18.6158  -15.1238 C   0  0  0  0  0  0  0  0  0  0  0  0
   28.3060  -19.5699  -14.4541 C   0  0  2  0  0  0  0  0  0  0  0  0
   28.7461  -20.5238  -15.4463 N   0  0  0  0  0  0  0  0  0  0  0  0
   27.6299  -20.2650  -13.3060 C   0  0  0  0  0  0  0  0  0  0  0  0
   26.8360  -21.2282  -13.5247 O   0  0  0  0  0  0  0  0  0  0  0  0
   27.8626  -19.8620  -11.9660 N   0  0  0  0  0  0  0  0  0  0  0  0
   27.1257  -20.5141  -10.8515 C   0  0  1  0  0  0  0  0  0  0  0  0
   27.7573  -20.1815   -9.5764 C   0  0  0  0  0  0  0  0  0  0  0  0
   27.0540  -20.3403   -8.3276 C   0  0  0  0  0  0  0  0  0  0  0  0
   25.7982  -20.8531   -8.1147 C   0  0  0  0  0  0  0  0  0  0  0  0
   25.5077  -20.8018   -6.8108 N   0  0  0  0  0  0  0  0  0  0  0  0
   26.5448  -20.2656   -6.1465 C   0  0  0  0  0  0  0  0  0  0  0  0
   26.7192  -20.0314   -4.7813 C   0  0  0  0  0  0  0  0  0  0  0  0
   27.8966  -19.4881   -4.3158 C   0  0  0  0  0  0  0  0  0  0  0  0
   28.8778  -19.1896   -5.2323 C   0  0  0  0  0  0  0  0  0  0  0  0
   28.6966  -19.4244   -6.5902 C   0  0  0  0  0  0  0  0  0  0  0  0
   27.5164  -19.9696   -7.0584 C   0  0  0  0  0  0  0  0  0  0  0  0
   25.7197  -20.4085  -11.0869 C   0  0  0  0  0  0  0  0  0  0  0  0
   25.1411  -19.3029  -11.2910 O   0  0  0  0  0  0  0  0  0  0  0  0
   20.7964  -26.3730  -13.7310 N   0  0  0  0  0  0  0  0  0  0  0  0
   20.0179  -25.2452  -14.0918 C   0  0  0  0  0  0  0  0  0  0  0  0
   18.7246  -25.3958  -14.2331 N   0  0  0  0  0  0  0  0  0  0  0  0
   20.6439  -23.9881  -14.2928 N   0  0  0  0  0  0  0  0  0  0  0  0
   22.0368  -23.8046  -14.0229 C   0  0  0  0  0  0  0  0  0  0  0  0
   22.3595  -22.4841  -13.3731 C   0  0  0  0  0  0  0  0  0  0  0  0
   23.0380  -22.7260  -12.0654 C   0  0  0  0  0  0  0  0  0  0  0  0
   23.4526  -21.4168  -11.3895 C   0  0  2  0  0  0  0  0  0  0  0  0
   24.8766  -21.5573  -11.1177 N   0  0  0  0  0  0  0  0  0  0  0  0
   22.6186  -21.1026  -10.2455 C   0  0  0  0  0  0  0  0  0  0  0  0
   21.4262  -20.4035  -10.2577 O   0  0  0  0  0  0  0  0  0  0  0  0
   22.9687  -21.4829   -9.0728 O   0  0  0  0  0  0  0  0  0  0  0  0
  2  1  1  0
  2  3  2  0
  4  5  1  0
  4  2  1  0
  5  6  1  0
  6  8  1  0
  6  7  1  6
  8 10  1  0
  8  9  2  0
 10 11  1  0
 11 22  1  0
 11 12  1  1
 13 14  2  0
 13 12  1  0
 15 14  1  0
 16 21  2  0
 16 15  1  0
 17 16  1  0
 18 19  1  0
 18 17  2  0
 19 20  2  0
 20 21  1  0
 21 13  1  0
 22 23  2  0
 22 32  1  0
 24 25  1  0
 25 27  1  0
 26 25  2  0
 27 28  1  0
 28 29  1  0
 31 30  1  1
 30 29  1  0
 31 33  1  0
 32 31  1  0
 33 34  1  0
 35 33  2  0
M  END
$$$$
