QWR.pdb
     RDKit          3D

 35 36  0  0  1  0  0  0  0  0999 V2000
   27.7578  -22.6266  -17.3113 N   0  0  0  0  0  0  0  0  0  0  0  0
   28.9793  -21.9637  -17.5580 C   0  0  0  0  0  0  0  0  0  0  0  0
   29.4196  -21.7437  -18.6995 O   0  0  0  0  0  0  0  0  0  0  0  0
   29.7781  -21.5058  -16.3876 C   0  0  0  0  0  0  0  0  0  0  0  0
   29.0860  -21.9118  -15.1076 C   0  0  0  0  0  0  0  0  0  0  0  0
   28.1873  -20.7674  -14.6773 C   0  0  2  0  0  0  0  0  0  0  0  0
   29.0235  -19.6149  -14.4311 N   0  0  0  0  0  0  0  0  0  0  0  0
   27.4277  -21.1521  -13.4389 C   0  0  0  0  0  0  0  0  0  0  0  0
   26.4567  -21.9628  -13.5150 O   0  0  0  0  0  0  0  0  0  0  0  0
   27.7771  -20.6214  -12.1707 N   0  0  0  0  0  0  0  0  0  0  0  0
   26.9444  -20.9281  -10.9779 C   0  0  1  0  0  0  0  0  0  0  0  0
   27.7295  -20.7339   -9.7607 C   0  0  0  0  0  0  0  0  0  0  0  0
   27.0932  -20.5162   -8.4851 C   0  0  0  0  0  0  0  0  0  0  0  0
   25.7548  -20.5579   -8.1810 C   0  0  0  0  0  0  0  0  0  0  0  0
   25.5798  -20.2743   -6.8864 N   0  0  0  0  0  0  0  0  0  0  0  0
   26.7749  -20.0443   -6.3176 C   0  0  0  0  0  0  0  0  0  0  0  0
   27.1019  -19.7367   -4.9957 C   0  0  0  0  0  0  0  0  0  0  0  0
   28.4190  -19.5680   -4.6285 C   0  0  0  0  0  0  0  0  0  0  0  0
   29.3841  -19.7113   -5.5980 C   0  0  0  0  0  0  0  0  0  0  0  0
   29.0508  -20.0165   -6.9125 C   0  0  0  0  0  0  0  0  0  0  0  0
   27.7303  -20.1864   -7.2821 C   0  0  0  0  0  0  0  0  0  0  0  0
   25.6326  -20.3919  -11.1646 C   0  0  0  0  0  0  0  0  0  0  0  0
   25.4192  -19.1641  -11.3784 O   0  0  0  0  0  0  0  0  0  0  0  0
   20.7088  -20.1435  -16.4706 N   0  0  0  0  0  0  0  0  0  0  0  0
   19.5754  -20.8061  -15.9374 C   0  0  0  0  0  0  0  0  0  0  0  0
   18.3884  -20.4694  -16.3768 N   0  0  0  0  0  0  0  0  0  0  0  0
   19.7424  -21.8092  -14.9483 N   0  0  0  0  0  0  0  0  0  0  0  0
   21.0295  -22.0904  -14.3907 C   0  0  0  0  0  0  0  0  0  0  0  0
   21.4150  -21.1706  -13.2613 C   0  0  0  0  0  0  0  0  0  0  0  0
   22.7712  -21.5411  -12.7591 C   0  0  0  0  0  0  0  0  0  0  0  0
   23.1818  -20.6930  -11.5528 C   0  0  2  0  0  0  0  0  0  0  0  0
   24.4730  -21.2200  -11.1325 N   0  0  0  0  0  0  0  0  0  0  0  0
   22.1517  -20.6561  -10.5328 C   0  0  0  0  0  0  0  0  0  0  0  0
   20.9792  -19.9246  -10.5667 O   0  0  0  0  0  0  0  0  0  0  0  0
   22.2827  -21.3500   -9.4634 O   0  0  0  0  0  0  0  0  0  0  0  0
  2  1  1  0
  2  3  2  0
  4  5  1  0
  4  2  1  0
  5  6  1  0
  6  8  1  0
  6  7  1  1
  8 10  1  0
  8  9  2  0
 10 11  1  0
 11 22  1  0
 11 12  1  1
 13 14  2  0
 13 12  1  0
 15 14  1  0
 16 21  2  0
 16 15  1  0
 17 16  1  0
 18 19  1  0
 18 17  2  0
 19 20  2  0
 20 21  1  0
 21 13  1  0
 22 23  2  0
 22 32  1  0
 24 25  1  0
 25 27  1  0
 26 25  2  0
 27 28  1  0
 28 29  1  0
 31 30  1  6
 30 29  1  0
 31 33  1  0
 32 31  1  0
 33 34  1  0
 35 33  2  0
M  END
$$$$
