QWR.pdb
     RDKit          3D

 35 36  0  0  1  0  0  0  0  0999 V2000
   27.2675  -22.5660  -17.3701 N   0  0  0  0  0  0  0  0  0  0  0  0
   28.6113  -22.1499  -17.4852 C   0  0  0  0  0  0  0  0  0  0  0  0
   29.1393  -21.8344  -18.5655 O   0  0  0  0  0  0  0  0  0  0  0  0
   29.4350  -22.0865  -16.2461 C   0  0  0  0  0  0  0  0  0  0  0  0
   28.6008  -22.5032  -15.0575 C   0  0  0  0  0  0  0  0  0  0  0  0
   28.0483  -21.2473  -14.4093 C   0  0  2  0  0  0  0  0  0  0  0  0
   29.1506  -20.3385  -14.1920 N   0  0  0  0  0  0  0  0  0  0  0  0
   27.3775  -21.5956  -13.1103 C   0  0  0  0  0  0  0  0  0  0  0  0
   26.3654  -22.3581  -13.1021 O   0  0  0  0  0  0  0  0  0  0  0  0
   27.8573  -21.0833  -11.8777 N   0  0  0  0  0  0  0  0  0  0  0  0
   27.0150  -21.1682  -10.6555 C   0  0  1  0  0  0  0  0  0  0  0  0
   27.8526  -21.0390   -9.4649 C   0  0  0  0  0  0  0  0  0  0  0  0
   27.2900  -20.6719   -8.1890 C   0  0  0  0  0  0  0  0  0  0  0  0
   25.9667  -20.5773   -7.8353 C   0  0  0  0  0  0  0  0  0  0  0  0
   25.8697  -20.1821   -6.5619 N   0  0  0  0  0  0  0  0  0  0  0  0
   27.1022  -20.0111   -6.0558 C   0  0  0  0  0  0  0  0  0  0  0  0
   27.5082  -19.6323   -4.7749 C   0  0  0  0  0  0  0  0  0  0  0  0
   28.8489  -19.5478   -4.4692 C   0  0  0  0  0  0  0  0  0  0  0  0
   29.7577  -19.8455   -5.4578 C   0  0  0  0  0  0  0  0  0  0  0  0
   29.3460  -20.2207   -6.7312 C   0  0  0  0  0  0  0  0  0  0  0  0
   28.0017  -20.3063   -7.0392 C   0  0  0  0  0  0  0  0  0  0  0  0
   25.8105  -20.4254  -10.8571 C   0  0  0  0  0  0  0  0  0  0  0  0
   25.7939  -19.1662  -10.9709 O   0  0  0  0  0  0  0  0  0  0  0  0
   23.2805  -21.2997  -17.2594 N   0  0  0  0  0  0  0  0  0  0  0  0
   21.9914  -20.7490  -17.0522 C   0  0  0  0  0  0  0  0  0  0  0  0
   21.0159  -21.1228  -17.8421 N   0  0  0  0  0  0  0  0  0  0  0  0
   21.7814  -19.8128  -16.0072 N   0  0  0  0  0  0  0  0  0  0  0  0
   22.8550  -19.4034  -15.1548 C   0  0  0  0  0  0  0  0  0  0  0  0
   22.5380  -19.5121  -13.6859 C   0  0  0  0  0  0  0  0  0  0  0  0
   23.6357  -20.2500  -12.9936 C   0  0  0  0  0  0  0  0  0  0  0  0
   23.3924  -20.3466  -11.4855 C   0  0  2  0  0  0  0  0  0  0  0  0
   24.5417  -21.0673  -10.9550 N   0  0  0  0  0  0  0  0  0  0  0  0
   22.0935  -20.9116  -11.1749 C   0  0  0  0  0  0  0  0  0  0  0  0
   20.8802  -20.2493  -11.1805 O   0  0  0  0  0  0  0  0  0  0  0  0
   21.9922  -22.1478  -10.8525 O   0  0  0  0  0  0  0  0  0  0  0  0
  2  1  1  0
  2  3  2  0
  4  5  1  0
  4  2  1  0
  5  6  1  0
  6  8  1  0
  6  7  1  1
  8 10  1  0
  8  9  2  0
 10 11  1  0
 11 22  1  0
 11 12  1  1
 13 14  2  0
 13 12  1  0
 15 14  1  0
 16 21  2  0
 16 15  1  0
 17 16  1  0
 18 19  1  0
 18 17  2  0
 19 20  2  0
 20 21  1  0
 21 13  1  0
 22 23  2  0
 22 32  1  0
 24 25  1  0
 25 27  1  0
 26 25  2  0
 27 28  1  0
 28 29  1  0
 31 30  1  6
 30 29  1  0
 31 33  1  0
 32 31  1  0
 33 34  1  0
 35 33  2  0
M  END
$$$$
