QWR.pdb
     RDKit          3D

 35 36  0  0  1  0  0  0  0  0999 V2000
   28.8402  -26.4032  -16.5540 N   0  0  0  0  0  0  0  0  0  0  0  0
   29.3007  -25.4816  -17.5187 C   0  0  0  0  0  0  0  0  0  0  0  0
   29.9843  -25.8077  -18.5045 O   0  0  0  0  0  0  0  0  0  0  0  0
   28.9468  -24.0458  -17.3429 C   0  0  0  0  0  0  0  0  0  0  0  0
   28.0317  -23.8885  -16.1511 C   0  0  0  0  0  0  0  0  0  0  0  0
   27.8731  -22.4050  -15.8746 C   0  0  2  0  0  0  0  0  0  0  0  0
   29.1735  -21.8759  -15.5325 N   0  0  0  0  0  0  0  0  0  0  0  0
   26.8976  -22.1964  -14.7505 C   0  0  0  0  0  0  0  0  0  0  0  0
   26.4169  -23.1930  -14.1328 O   0  0  0  0  0  0  0  0  0  0  0  0
   26.4970  -20.8927  -14.3607 N   0  0  0  0  0  0  0  0  0  0  0  0
   25.4979  -20.7120  -13.2747 C   0  0  1  0  0  0  0  0  0  0  0  0
   26.0938  -19.9623  -12.1709 C   0  0  0  0  0  0  0  0  0  0  0  0
   27.3263  -20.3878  -11.5551 C   0  0  0  0  0  0  0  0  0  0  0  0
   28.5196  -20.6982  -12.1595 C   0  0  0  0  0  0  0  0  0  0  0  0
   29.4080  -21.0718  -11.2330 N   0  0  0  0  0  0  0  0  0  0  0  0
   28.8331  -21.0168  -10.0202 C   0  0  0  0  0  0  0  0  0  0  0  0
   29.3619  -21.2881   -8.7569 C   0  0  0  0  0  0  0  0  0  0  0  0
   28.5823  -21.1346   -7.6314 C   0  0  0  0  0  0  0  0  0  0  0  0
   27.2841  -20.7110   -7.7968 C   0  0  0  0  0  0  0  0  0  0  0  0
   26.7643  -20.4440   -9.0579 C   0  0  0  0  0  0  0  0  0  0  0  0
   27.5451  -20.5973  -10.1875 C   0  0  0  0  0  0  0  0  0  0  0  0
   24.2268  -20.3964  -13.8474 C   0  0  0  0  0  0  0  0  0  0  0  0
   24.0956  -19.6191  -14.8361 O   0  0  0  0  0  0  0  0  0  0  0  0
   18.5962  -26.2286  -14.2522 N   0  0  0  0  0  0  0  0  0  0  0  0
   19.9704  -26.0557  -13.9528 C   0  0  0  0  0  0  0  0  0  0  0  0
   20.7719  -27.0847  -14.0711 N   0  0  0  0  0  0  0  0  0  0  0  0
   20.4493  -24.7877  -13.5339 N   0  0  0  0  0  0  0  0  0  0  0  0
   19.5619  -23.6760  -13.3815 C   0  0  0  0  0  0  0  0  0  0  0  0
   20.2588  -22.3883  -13.0261 C   0  0  0  0  0  0  0  0  0  0  0  0
   21.0139  -21.8876  -14.2127 C   0  0  0  0  0  0  0  0  0  0  0  0
   21.7341  -20.5705  -13.9136 C   0  0  2  0  0  0  0  0  0  0  0  0
   23.0171  -20.9542  -13.3405 N   0  0  0  0  0  0  0  0  0  0  0  0
   20.9257  -19.6738  -13.1104 C   0  0  0  0  0  0  0  0  0  0  0  0
   19.8639  -18.9031  -13.5455 O   0  0  0  0  0  0  0  0  0  0  0  0
   21.1709  -19.5353  -11.8602 O   0  0  0  0  0  0  0  0  0  0  0  0
  2  1  1  0
  2  3  2  0
  4  5  1  0
  4  2  1  0
  5  6  1  0
  6  8  1  0
  6  7  1  1
  8 10  1  0
  8  9  2  0
 10 11  1  0
 11 22  1  0
 11 12  1  1
 13 14  2  0
 13 12  1  0
 15 14  1  0
 16 21  2  0
 16 15  1  0
 17 16  1  0
 18 19  1  0
 18 17  2  0
 19 20  2  0
 20 21  1  0
 21 13  1  0
 22 23  2  0
 22 32  1  0
 24 25  1  0
 25 27  1  0
 26 25  2  0
 27 28  1  0
 28 29  1  0
 31 30  1  1
 30 29  1  0
 31 33  1  0
 32 31  1  0
 33 34  1  0
 35 33  2  0
M  END
$$$$
