QWR.pdb
     RDKit          3D

 35 36  0  0  1  0  0  0  0  0999 V2000
   27.7511  -20.2279  -17.5994 N   0  0  0  0  0  0  0  0  0  0  0  0
   29.0589  -19.7255  -17.4275 C   0  0  0  0  0  0  0  0  0  0  0  0
   29.8075  -19.4289  -18.3746 O   0  0  0  0  0  0  0  0  0  0  0  0
   29.5635  -19.5426  -16.0384 C   0  0  0  0  0  0  0  0  0  0  0  0
   28.4468  -19.7953  -15.0529 C   0  0  0  0  0  0  0  0  0  0  0  0
   28.8836  -20.9149  -14.1265 C   0  0  2  0  0  0  0  0  0  0  0  0
   29.0460  -22.1106  -14.9214 N   0  0  0  0  0  0  0  0  0  0  0  0
   27.8523  -21.1214  -13.0530 C   0  0  0  0  0  0  0  0  0  0  0  0
   26.6596  -21.4142  -13.3654 O   0  0  0  0  0  0  0  0  0  0  0  0
   28.1877  -20.9940  -11.6806 N   0  0  0  0  0  0  0  0  0  0  0  0
   27.1413  -21.1605  -10.6378 C   0  0  1  0  0  0  0  0  0  0  0  0
   27.7568  -21.1634   -9.3124 C   0  0  0  0  0  0  0  0  0  0  0  0
   27.0128  -20.7753   -8.1396 C   0  0  0  0  0  0  0  0  0  0  0  0
   25.6630  -20.5542   -8.0198 C   0  0  0  0  0  0  0  0  0  0  0  0
   25.3780  -20.1862   -6.7666 N   0  0  0  0  0  0  0  0  0  0  0  0
   26.5106  -20.1575   -6.0448 C   0  0  0  0  0  0  0  0  0  0  0  0
   26.7151  -19.8580   -4.6967 C   0  0  0  0  0  0  0  0  0  0  0  0
   27.9811  -19.9209   -4.1568 C   0  0  0  0  0  0  0  0  0  0  0  0
   29.0192  -20.2837   -4.9830 C   0  0  0  0  0  0  0  0  0  0  0  0
   28.8080  -20.5792   -6.3247 C   0  0  0  0  0  0  0  0  0  0  0  0
   27.5389  -20.5169   -6.8674 C   0  0  0  0  0  0  0  0  0  0  0  0
   26.0028  -20.3656  -10.9772 C   0  0  0  0  0  0  0  0  0  0  0  0
   26.0928  -19.1508  -11.3166 O   0  0  0  0  0  0  0  0  0  0  0  0
   21.9374  -21.0420  -17.1753 N   0  0  0  0  0  0  0  0  0  0  0  0
   20.9622  -20.1307  -16.6995 C   0  0  0  0  0  0  0  0  0  0  0  0
   19.7930  -20.0997  -17.2888 N   0  0  0  0  0  0  0  0  0  0  0  0
   21.2646  -19.2768  -15.6077 N   0  0  0  0  0  0  0  0  0  0  0  0
   22.5511  -19.3039  -14.9824 C   0  0  0  0  0  0  0  0  0  0  0  0
   22.4957  -19.2327  -13.4785 C   0  0  0  0  0  0  0  0  0  0  0  0
   23.6180  -20.0301  -12.9012 C   0  0  0  0  0  0  0  0  0  0  0  0
   23.5510  -20.0821  -11.3729 C   0  0  2  0  0  0  0  0  0  0  0  0
   24.6828  -20.9032  -10.9651 N   0  0  0  0  0  0  0  0  0  0  0  0
   22.2518  -20.5144  -10.8956 C   0  0  0  0  0  0  0  0  0  0  0  0
   21.1308  -19.7253  -10.7179 O   0  0  0  0  0  0  0  0  0  0  0  0
   22.0578  -21.7432  -10.5879 O   0  0  0  0  0  0  0  0  0  0  0  0
  2  1  1  0
  2  3  2  0
  4  5  1  0
  4  2  1  0
  5  6  1  0
  6  8  1  0
  6  7  1  6
  8 10  1  0
  8  9  2  0
 10 11  1  0
 11 22  1  0
 11 12  1  1
 13 14  2  0
 13 12  1  0
 15 14  1  0
 16 21  2  0
 16 15  1  0
 17 16  1  0
 18 19  1  0
 18 17  2  0
 19 20  2  0
 20 21  1  0
 21 13  1  0
 22 23  2  0
 22 32  1  0
 24 25  1  0
 25 27  1  0
 26 25  2  0
 27 28  1  0
 28 29  1  0
 31 30  1  6
 30 29  1  0
 31 33  1  0
 32 31  1  0
 33 34  1  0
 35 33  2  0
M  END
$$$$
