QWR.pdb
     RDKit          3D

 35 36  0  0  1  0  0  0  0  0999 V2000
   28.0389  -18.3821  -17.3817 N   0  0  0  0  0  0  0  0  0  0  0  0
   28.7477  -19.2848  -18.2032 C   0  0  0  0  0  0  0  0  0  0  0  0
   29.5428  -18.9243  -19.0884 O   0  0  0  0  0  0  0  0  0  0  0  0
   28.5292  -20.7431  -17.9952 C   0  0  0  0  0  0  0  0  0  0  0  0
   27.5796  -20.9566  -16.8397 C   0  0  0  0  0  0  0  0  0  0  0  0
   28.3495  -21.6294  -15.7185 C   0  0  2  0  0  0  0  0  0  0  0  0
   28.6601  -22.9764  -16.1397 N   0  0  0  0  0  0  0  0  0  0  0  0
   27.5219  -21.6381  -14.4641 C   0  0  0  0  0  0  0  0  0  0  0  0
   26.8677  -22.6744  -14.1414 O   0  0  0  0  0  0  0  0  0  0  0  0
   27.4552  -20.4982  -13.6226 N   0  0  0  0  0  0  0  0  0  0  0  0
   26.5806  -20.5078  -12.4204 C   0  0  1  0  0  0  0  0  0  0  0  0
   27.2051  -19.7396  -11.3455 C   0  0  0  0  0  0  0  0  0  0  0  0
   28.1983  -20.3292  -10.4822 C   0  0  0  0  0  0  0  0  0  0  0  0
   29.3349  -21.0152  -10.8329 C   0  0  0  0  0  0  0  0  0  0  0  0
   29.9736  -21.4189   -9.7301 N   0  0  0  0  0  0  0  0  0  0  0  0
   29.2874  -21.0157   -8.6479 C   0  0  0  0  0  0  0  0  0  0  0  0
   29.5668  -21.1768   -7.2896 C   0  0  0  0  0  0  0  0  0  0  0  0
   28.7210  -20.6465   -6.3401 C   0  0  0  0  0  0  0  0  0  0  0  0
   27.6087  -19.9636   -6.7741 C   0  0  0  0  0  0  0  0  0  0  0  0
   27.3364  -19.8083   -8.1282 C   0  0  0  0  0  0  0  0  0  0  0  0
   28.1840  -20.3393   -9.0816 C   0  0  0  0  0  0  0  0  0  0  0  0
   25.2194  -20.3391  -12.8228 C   0  0  0  0  0  0  0  0  0  0  0  0
   24.8917  -19.8117  -13.9243 O   0  0  0  0  0  0  0  0  0  0  0  0
   22.6961  -26.4479  -15.3152 N   0  0  0  0  0  0  0  0  0  0  0  0
   21.3459  -26.1323  -15.0230 C   0  0  0  0  0  0  0  0  0  0  0  0
   20.4960  -27.1138  -14.8507 N   0  0  0  0  0  0  0  0  0  0  0  0
   20.9416  -24.7761  -14.9245 N   0  0  0  0  0  0  0  0  0  0  0  0
   21.9039  -23.7178  -14.9002 C   0  0  0  0  0  0  0  0  0  0  0  0
   21.8542  -22.8818  -13.6477 C   0  0  0  0  0  0  0  0  0  0  0  0
   22.8728  -21.7939  -13.7351 C   0  0  0  0  0  0  0  0  0  0  0  0
   22.7858  -20.8367  -12.5438 C   0  0  2  0  0  0  0  0  0  0  0  0
   24.1364  -20.7707  -12.0028 N   0  0  0  0  0  0  0  0  0  0  0  0
   21.7475  -21.2206  -11.6071 C   0  0  0  0  0  0  0  0  0  0  0  0
   20.3823  -21.1098  -11.7937 O   0  0  0  0  0  0  0  0  0  0  0  0
   22.0625  -21.7191  -10.4693 O   0  0  0  0  0  0  0  0  0  0  0  0
  2  1  1  0
  2  3  2  0
  4  5  1  0
  4  2  1  0
  5  6  1  0
  6  8  1  0
  6  7  1  6
  8 10  1  0
  8  9  2  0
 10 11  1  0
 11 22  1  0
 11 12  1  1
 13 14  2  0
 13 12  1  0
 15 14  1  0
 16 21  2  0
 16 15  1  0
 17 16  1  0
 18 19  1  0
 18 17  2  0
 19 20  2  0
 20 21  1  0
 21 13  1  0
 22 23  2  0
 22 32  1  0
 24 25  1  0
 25 27  1  0
 26 25  2  0
 27 28  1  0
 28 29  1  0
 31 30  1  6
 30 29  1  0
 31 33  1  0
 32 31  1  0
 33 34  1  0
 35 33  2  0
M  END
$$$$
