QWR.pdb
     RDKit          3D

 35 36  0  0  1  0  0  0  0  0999 V2000
   26.5858  -22.2975  -17.8690 N   0  0  0  0  0  0  0  0  0  0  0  0
   27.4571  -22.7975  -16.8776 C   0  0  0  0  0  0  0  0  0  0  0  0
   27.6057  -24.0099  -16.6460 O   0  0  0  0  0  0  0  0  0  0  0  0
   28.2370  -21.8189  -16.0703 C   0  0  0  0  0  0  0  0  0  0  0  0
   27.8809  -21.9646  -14.6093 C   0  0  0  0  0  0  0  0  0  0  0  0
   26.6418  -21.1299  -14.3435 C   0  0  2  0  0  0  0  0  0  0  0  0
   26.9933  -19.7411  -14.5332 N   0  0  0  0  0  0  0  0  0  0  0  0
   26.1536  -21.3721  -12.9429 C   0  0  0  0  0  0  0  0  0  0  0  0
   26.1697  -22.5426  -12.4576 O   0  0  0  0  0  0  0  0  0  0  0  0
   25.6685  -20.3068  -12.1417 N   0  0  0  0  0  0  0  0  0  0  0  0
   25.1689  -20.5739  -10.7672 C   0  0  1  0  0  0  0  0  0  0  0  0
   25.9191  -19.7736   -9.8016 C   0  0  0  0  0  0  0  0  0  0  0  0
   27.2109  -20.1965   -9.3203 C   0  0  0  0  0  0  0  0  0  0  0  0
   28.1338  -20.9984   -9.9453 C   0  0  0  0  0  0  0  0  0  0  0  0
   29.1934  -21.1687   -9.1482 N   0  0  0  0  0  0  0  0  0  0  0  0
   28.9983  -20.4958   -8.0020 C   0  0  0  0  0  0  0  0  0  0  0  0
   29.8247  -20.3545   -6.8857 C   0  0  0  0  0  0  0  0  0  0  0  0
   29.4227  -19.5807   -5.8190 C   0  0  0  0  0  0  0  0  0  0  0  0
   28.1961  -18.9630   -5.8941 C   0  0  0  0  0  0  0  0  0  0  0  0
   27.3783  -19.1092   -7.0084 C   0  0  0  0  0  0  0  0  0  0  0  0
   27.7802  -19.8847   -8.0791 C   0  0  0  0  0  0  0  0  0  0  0  0
   23.7418  -20.6517  -10.7880 C   0  0  0  0  0  0  0  0  0  0  0  0
   23.0336  -20.0131  -11.6184 O   0  0  0  0  0  0  0  0  0  0  0  0
   18.3164  -25.3874   -5.5752 N   0  0  0  0  0  0  0  0  0  0  0  0
   17.5094  -25.0092   -6.6769 C   0  0  0  0  0  0  0  0  0  0  0  0
   16.3354  -25.5728   -6.8164 N   0  0  0  0  0  0  0  0  0  0  0  0
   17.9804  -24.0400   -7.5995 N   0  0  0  0  0  0  0  0  0  0  0  0
   19.3679  -23.6979   -7.6682 C   0  0  0  0  0  0  0  0  0  0  0  0
   19.6904  -22.6856   -8.7365 C   0  0  0  0  0  0  0  0  0  0  0  0
   21.1590  -22.4169   -8.7398 C   0  0  0  0  0  0  0  0  0  0  0  0
   21.5664  -21.5000   -9.8957 C   0  0  2  0  0  0  0  0  0  0  0  0
   23.0225  -21.4724   -9.8712 N   0  0  0  0  0  0  0  0  0  0  0  0
   20.9084  -20.2094   -9.8297 C   0  0  0  0  0  0  0  0  0  0  0  0
   21.3214  -19.1059   -9.1068 O   0  0  0  0  0  0  0  0  0  0  0  0
   19.8262  -20.0069  -10.4854 O   0  0  0  0  0  0  0  0  0  0  0  0
  2  1  1  0
  2  3  2  0
  4  5  1  0
  4  2  1  0
  5  6  1  0
  6  8  1  0
  6  7  1  1
  8 10  1  0
  8  9  2  0
 10 11  1  0
 11 22  1  0
 11 12  1  1
 13 14  2  0
 13 12  1  0
 15 14  1  0
 16 21  2  0
 16 15  1  0
 17 16  1  0
 18 19  1  0
 18 17  2  0
 19 20  2  0
 20 21  1  0
 21 13  1  0
 22 23  2  0
 22 32  1  0
 24 25  1  0
 25 27  1  0
 26 25  2  0
 27 28  1  0
 28 29  1  0
 31 30  1  1
 30 29  1  0
 31 33  1  0
 32 31  1  0
 33 34  1  0
 35 33  2  0
M  END
$$$$
