QWR.pdb
     RDKit          3D

 35 36  0  0  1  0  0  0  0  0999 V2000
   27.5003  -16.6302  -14.6995 N   0  0  0  0  0  0  0  0  0  0  0  0
   28.2134  -17.0808  -15.8312 C   0  0  0  0  0  0  0  0  0  0  0  0
   28.9095  -16.3357  -16.5422 O   0  0  0  0  0  0  0  0  0  0  0  0
   28.1248  -18.5240  -16.1878 C   0  0  0  0  0  0  0  0  0  0  0  0
   27.3183  -19.2587  -15.1427 C   0  0  0  0  0  0  0  0  0  0  0  0
   28.2184  -20.2987  -14.5017 C   0  0  2  0  0  0  0  0  0  0  0  0
   28.4518  -21.3428  -15.4731 N   0  0  0  0  0  0  0  0  0  0  0  0
   27.5620  -20.8520  -13.2682 C   0  0  0  0  0  0  0  0  0  0  0  0
   26.5846  -21.6518  -13.3726 O   0  0  0  0  0  0  0  0  0  0  0  0
   28.0170  -20.4943  -11.9731 N   0  0  0  0  0  0  0  0  0  0  0  0
   27.2080  -20.8419  -10.7752 C   0  0  1  0  0  0  0  0  0  0  0  0
   28.0092  -20.6640   -9.5660 C   0  0  0  0  0  0  0  0  0  0  0  0
   27.3944  -20.5908   -8.2637 C   0  0  0  0  0  0  0  0  0  0  0  0
   26.0853  -20.8274   -7.9234 C   0  0  0  0  0  0  0  0  0  0  0  0
   25.9192  -20.6270   -6.6122 N   0  0  0  0  0  0  0  0  0  0  0  0
   27.0917  -20.2616   -6.0677 C   0  0  0  0  0  0  0  0  0  0  0  0
   27.4204  -19.9703   -4.7426 C   0  0  0  0  0  0  0  0  0  0  0  0
   28.7149  -19.6401   -4.4058 C   0  0  0  0  0  0  0  0  0  0  0  0
   29.6559  -19.6085   -5.4085 C   0  0  0  0  0  0  0  0  0  0  0  0
   29.3209  -19.8985   -6.7259 C   0  0  0  0  0  0  0  0  0  0  0  0
   28.0231  -20.2301   -7.0650 C   0  0  0  0  0  0  0  0  0  0  0  0
   25.8855  -20.3219  -10.9290 C   0  0  0  0  0  0  0  0  0  0  0  0
   25.6554  -19.1231  -11.2589 O   0  0  0  0  0  0  0  0  0  0  0  0
   19.3360  -23.4486  -12.0855 N   0  0  0  0  0  0  0  0  0  0  0  0
   18.9285  -22.8462  -13.3017 C   0  0  0  0  0  0  0  0  0  0  0  0
   17.6485  -22.7833  -13.5718 N   0  0  0  0  0  0  0  0  0  0  0  0
   19.9008  -22.3291  -14.1959 N   0  0  0  0  0  0  0  0  0  0  0  0
   21.2870  -22.2985  -13.8435 C   0  0  0  0  0  0  0  0  0  0  0  0
   21.5831  -21.4717  -12.6193 C   0  0  0  0  0  0  0  0  0  0  0  0
   23.0574  -21.4381  -12.3865 C   0  0  0  0  0  0  0  0  0  0  0  0
   23.4154  -20.6532  -11.1221 C   0  0  2  0  0  0  0  0  0  0  0  0
   24.7323  -21.1354  -10.7289 N   0  0  0  0  0  0  0  0  0  0  0  0
   22.3810  -20.7431  -10.1099 C   0  0  0  0  0  0  0  0  0  0  0  0
   21.1427  -20.1292  -10.1352 O   0  0  0  0  0  0  0  0  0  0  0  0
   22.5734  -21.4478   -9.0570 O   0  0  0  0  0  0  0  0  0  0  0  0
  2  1  1  0
  2  3  2  0
  4  5  1  0
  4  2  1  0
  5  6  1  0
  6  8  1  0
  6  7  1  6
  8 10  1  0
  8  9  2  0
 10 11  1  0
 11 22  1  0
 11 12  1  1
 13 14  2  0
 13 12  1  0
 15 14  1  0
 16 21  2  0
 16 15  1  0
 17 16  1  0
 18 19  1  0
 18 17  2  0
 19 20  2  0
 20 21  1  0
 21 13  1  0
 22 23  2  0
 22 32  1  0
 24 25  1  0
 25 27  1  0
 26 25  2  0
 27 28  1  0
 28 29  1  0
 31 30  1  6
 30 29  1  0
 31 33  1  0
 32 31  1  0
 33 34  1  0
 35 33  2  0
M  END
$$$$
