QWR.pdb
     RDKit          3D

 35 36  0  0  1  0  0  0  0  0999 V2000
   29.8192  -23.1606  -16.8664 N   0  0  0  0  0  0  0  0  0  0  0  0
   29.6820  -21.8164  -17.2744 C   0  0  0  0  0  0  0  0  0  0  0  0
   30.4517  -21.2640  -18.0793 O   0  0  0  0  0  0  0  0  0  0  0  0
   28.5555  -21.0230  -16.7095 C   0  0  0  0  0  0  0  0  0  0  0  0
   27.7894  -21.8624  -15.7141 C   0  0  0  0  0  0  0  0  0  0  0  0
   26.5308  -21.1053  -15.3329 C   0  0  2  0  0  0  0  0  0  0  0  0
   26.9195  -19.7737  -14.9282 N   0  0  0  0  0  0  0  0  0  0  0  0
   25.8238  -21.8195  -14.2154 C   0  0  0  0  0  0  0  0  0  0  0  0
   25.4615  -23.0252  -14.3604 O   0  0  0  0  0  0  0  0  0  0  0  0
   25.5487  -21.1663  -12.9867 N   0  0  0  0  0  0  0  0  0  0  0  0
   24.9257  -21.9174  -11.8651 C   0  0  1  0  0  0  0  0  0  0  0  0
   25.8187  -21.9140  -10.7083 C   0  0  0  0  0  0  0  0  0  0  0  0
   25.9562  -20.7482   -9.8709 C   0  0  0  0  0  0  0  0  0  0  0  0
   25.2302  -19.5831   -9.9042 C   0  0  0  0  0  0  0  0  0  0  0  0
   25.6906  -18.7408   -8.9739 N   0  0  0  0  0  0  0  0  0  0  0  0
   26.7100  -19.3194   -8.3177 C   0  0  0  0  0  0  0  0  0  0  0  0
   27.4866  -18.8467   -7.2582 C   0  0  0  0  0  0  0  0  0  0  0  0
   28.4761  -19.6379   -6.7169 C   0  0  0  0  0  0  0  0  0  0  0  0
   28.6671  -20.8908   -7.2514 C   0  0  0  0  0  0  0  0  0  0  0  0
   27.8908  -21.3541   -8.3071 C   0  0  0  0  0  0  0  0  0  0  0  0
   26.8979  -20.5618   -8.8508 C   0  0  0  0  0  0  0  0  0  0  0  0
   23.5360  -21.5911  -11.7899 C   0  0  0  0  0  0  0  0  0  0  0  0
   23.0715  -20.4813  -12.1792 O   0  0  0  0  0  0  0  0  0  0  0  0
   18.0412  -24.7589   -6.1913 N   0  0  0  0  0  0  0  0  0  0  0  0
   18.2079  -25.5344   -7.3655 C   0  0  0  0  0  0  0  0  0  0  0  0
   18.0528  -26.8325   -7.2865 N   0  0  0  0  0  0  0  0  0  0  0  0
   18.5371  -24.9007   -8.5913 N   0  0  0  0  0  0  0  0  0  0  0  0
   18.7030  -23.4818   -8.6686 C   0  0  0  0  0  0  0  0  0  0  0  0
   19.0963  -22.9912  -10.0378 C   0  0  0  0  0  0  0  0  0  0  0  0
   20.5560  -23.2223  -10.2485 C   0  0  0  0  0  0  0  0  0  0  0  0
   21.2001  -22.0912  -11.0540 C   0  0  2  0  0  0  0  0  0  0  0  0
   22.5767  -22.5119  -11.2767 N   0  0  0  0  0  0  0  0  0  0  0  0
   21.0288  -20.7992  -10.4182 C   0  0  0  0  0  0  0  0  0  0  0  0
   20.1383  -19.8077  -10.7853 O   0  0  0  0  0  0  0  0  0  0  0  0
   21.7487  -20.4817   -9.4066 O   0  0  0  0  0  0  0  0  0  0  0  0
  2  1  1  0
  2  3  2  0
  4  5  1  0
  4  2  1  0
  5  6  1  0
  6  8  1  0
  6  7  1  1
  8 10  1  0
  8  9  2  0
 10 11  1  0
 11 22  1  0
 11 12  1  1
 13 14  2  0
 13 12  1  0
 15 14  1  0
 16 21  2  0
 16 15  1  0
 17 16  1  0
 18 19  1  0
 18 17  2  0
 19 20  2  0
 20 21  1  0
 21 13  1  0
 22 23  2  0
 22 32  1  0
 24 25  1  0
 25 27  1  0
 26 25  2  0
 27 28  1  0
 28 29  1  0
 31 30  1  1
 30 29  1  0
 31 33  1  0
 32 31  1  0
 33 34  1  0
 35 33  2  0
M  END
$$$$
