QWR.pdb
     RDKit          3D

 35 36  0  0  1  0  0  0  0  0999 V2000
   26.9140  -21.2153  -18.4571 N   0  0  0  0  0  0  0  0  0  0  0  0
   28.2838  -20.9826  -18.7054 C   0  0  0  0  0  0  0  0  0  0  0  0
   28.7003  -20.3072  -19.6625 O   0  0  0  0  0  0  0  0  0  0  0  0
   29.2778  -21.5783  -17.7701 C   0  0  0  0  0  0  0  0  0  0  0  0
   28.5612  -22.3669  -16.6992 C   0  0  0  0  0  0  0  0  0  0  0  0
   28.1611  -21.4042  -15.5966 C   0  0  2  0  0  0  0  0  0  0  0  0
   29.3212  -21.1737  -14.7664 N   0  0  0  0  0  0  0  0  0  0  0  0
   27.0344  -21.9886  -14.7920 C   0  0  0  0  0  0  0  0  0  0  0  0
   26.7868  -23.2299  -14.8531 O   0  0  0  0  0  0  0  0  0  0  0  0
   26.2311  -21.1720  -13.9554 N   0  0  0  0  0  0  0  0  0  0  0  0
   25.2255  -21.7902  -13.0516 C   0  0  1  0  0  0  0  0  0  0  0  0
   25.7414  -21.8261  -11.6848 C   0  0  0  0  0  0  0  0  0  0  0  0
   26.1785  -20.6252  -11.0169 C   0  0  0  0  0  0  0  0  0  0  0  0
   26.4084  -19.3838  -11.5570 C   0  0  0  0  0  0  0  0  0  0  0  0
   26.8273  -18.5490  -10.6006 N   0  0  0  0  0  0  0  0  0  0  0  0
   26.8815  -19.2069   -9.4306 C   0  0  0  0  0  0  0  0  0  0  0  0
   27.2342  -18.7571   -8.1570 C   0  0  0  0  0  0  0  0  0  0  0  0
   27.1892  -19.6164   -7.0810 C   0  0  0  0  0  0  0  0  0  0  0  0
   26.7904  -20.9135   -7.3056 C   0  0  0  0  0  0  0  0  0  0  0  0
   26.4418  -21.3545   -8.5768 C   0  0  0  0  0  0  0  0  0  0  0  0
   26.4862  -20.4937   -9.6568 C   0  0  0  0  0  0  0  0  0  0  0  0
   23.9232  -21.3084  -13.3910 C   0  0  0  0  0  0  0  0  0  0  0  0
   23.6886  -20.0926  -13.6472 O   0  0  0  0  0  0  0  0  0  0  0  0
   16.4778  -22.0630  -12.3709 N   0  0  0  0  0  0  0  0  0  0  0  0
   16.0310  -22.6186  -13.5956 C   0  0  0  0  0  0  0  0  0  0  0  0
   14.8105  -22.3590  -13.9932 N   0  0  0  0  0  0  0  0  0  0  0  0
   16.9012  -23.4373  -14.3605 N   0  0  0  0  0  0  0  0  0  0  0  0
   18.2426  -23.6918  -13.9329 C   0  0  0  0  0  0  0  0  0  0  0  0
   19.1037  -22.4570  -13.8712 C   0  0  0  0  0  0  0  0  0  0  0  0
   20.5320  -22.8551  -13.6972 C   0  0  0  0  0  0  0  0  0  0  0  0
   21.4551  -21.6371  -13.6115 C   0  0  2  0  0  0  0  0  0  0  0  0
   22.7993  -22.1810  -13.4738 N   0  0  0  0  0  0  0  0  0  0  0  0
   21.0407  -20.7069  -12.5792 C   0  0  0  0  0  0  0  0  0  0  0  0
   21.2865  -20.8123  -11.2229 O   0  0  0  0  0  0  0  0  0  0  0  0
   20.3723  -19.6589  -12.8909 O   0  0  0  0  0  0  0  0  0  0  0  0
  2  1  1  0
  2  3  2  0
  4  5  1  0
  4  2  1  0
  5  6  1  0
  6  8  1  0
  6  7  1  1
  8 10  1  0
  8  9  2  0
 10 11  1  0
 11 22  1  0
 11 12  1  1
 13 14  2  0
 13 12  1  0
 15 14  1  0
 16 21  2  0
 16 15  1  0
 17 16  1  0
 18 19  1  0
 18 17  2  0
 19 20  2  0
 20 21  1  0
 21 13  1  0
 22 23  2  0
 22 32  1  0
 24 25  1  0
 25 27  1  0
 26 25  2  0
 27 28  1  0
 28 29  1  0
 31 30  1  1
 30 29  1  0
 31 33  1  0
 32 31  1  0
 33 34  1  0
 35 33  2  0
M  END
$$$$
