QWR.pdb
     RDKit          3D

 35 36  0  0  1  0  0  0  0  0999 V2000
   26.5489  -20.2095  -19.4653 N   0  0  0  0  0  0  0  0  0  0  0  0
   27.9538  -20.1349  -19.5783 C   0  0  0  0  0  0  0  0  0  0  0  0
   28.5354  -19.6142  -20.5458 O   0  0  0  0  0  0  0  0  0  0  0  0
   28.7778  -20.7103  -18.4793 C   0  0  0  0  0  0  0  0  0  0  0  0
   27.8815  -21.1415  -17.3422 C   0  0  0  0  0  0  0  0  0  0  0  0
   28.7596  -21.7093  -16.2427 C   0  0  2  0  0  0  0  0  0  0  0  0
   29.3441  -22.9372  -16.7312 N   0  0  0  0  0  0  0  0  0  0  0  0
   27.9368  -21.9610  -15.0105 C   0  0  0  0  0  0  0  0  0  0  0  0
   27.1894  -22.9822  -14.9430 O   0  0  0  0  0  0  0  0  0  0  0  0
   27.9778  -21.0700  -13.9076 N   0  0  0  0  0  0  0  0  0  0  0  0
   27.1399  -21.3290  -12.7071 C   0  0  1  0  0  0  0  0  0  0  0  0
   27.8338  -20.8653  -11.5075 C   0  0  0  0  0  0  0  0  0  0  0  0
   27.1346  -20.6869  -10.2590 C   0  0  0  0  0  0  0  0  0  0  0  0
   25.7876  -20.5195  -10.0515 C   0  0  0  0  0  0  0  0  0  0  0  0
   25.5508  -20.3631   -8.7452 N   0  0  0  0  0  0  0  0  0  0  0  0
   26.7128  -20.4234   -8.0738 C   0  0  0  0  0  0  0  0  0  0  0  0
   26.9701  -20.3384   -6.7043 C   0  0  0  0  0  0  0  0  0  0  0  0
   28.2591  -20.4569   -6.2324 C   0  0  0  0  0  0  0  0  0  0  0  0
   29.2665  -20.6586   -7.1468 C   0  0  0  0  0  0  0  0  0  0  0  0
   29.0028  -20.7411   -8.5090 C   0  0  0  0  0  0  0  0  0  0  0  0
   27.7105  -20.6227   -8.9837 C   0  0  0  0  0  0  0  0  0  0  0  0
   25.7776  -21.0127  -13.0025 C   0  0  0  0  0  0  0  0  0  0  0  0
   25.4200  -19.8916  -13.4650 O   0  0  0  0  0  0  0  0  0  0  0  0
   18.5480  -23.5922  -11.5650 N   0  0  0  0  0  0  0  0  0  0  0  0
   18.1190  -23.7182  -12.9097 C   0  0  0  0  0  0  0  0  0  0  0  0
   16.8400  -23.6146  -13.1719 N   0  0  0  0  0  0  0  0  0  0  0  0
   19.0693  -23.9529  -13.9366 N   0  0  0  0  0  0  0  0  0  0  0  0
   20.4661  -24.0500  -13.6429 C   0  0  0  0  0  0  0  0  0  0  0  0
   21.1373  -22.7163  -13.4413 C   0  0  0  0  0  0  0  0  0  0  0  0
   22.6012  -22.9227  -13.2335 C   0  0  0  0  0  0  0  0  0  0  0  0
   23.3482  -21.5941  -13.0924 C   0  0  2  0  0  0  0  0  0  0  0  0
   24.7287  -21.9568  -12.8023 N   0  0  0  0  0  0  0  0  0  0  0  0
   22.7133  -20.7073  -12.1368 C   0  0  0  0  0  0  0  0  0  0  0  0
   21.8279  -19.6839  -12.4188 O   0  0  0  0  0  0  0  0  0  0  0  0
   22.9580  -20.8321  -10.8851 O   0  0  0  0  0  0  0  0  0  0  0  0
  2  1  1  0
  2  3  2  0
  4  5  1  0
  4  2  1  0
  5  6  1  0
  6  8  1  0
  6  7  1  6
  8 10  1  0
  8  9  2  0
 10 11  1  0
 11 22  1  0
 11 12  1  1
 13 14  2  0
 13 12  1  0
 15 14  1  0
 16 21  2  0
 16 15  1  0
 17 16  1  0
 18 19  1  0
 18 17  2  0
 19 20  2  0
 20 21  1  0
 21 13  1  0
 22 23  2  0
 22 32  1  0
 24 25  1  0
 25 27  1  0
 26 25  2  0
 27 28  1  0
 28 29  1  0
 31 30  1  1
 30 29  1  0
 31 33  1  0
 32 31  1  0
 33 34  1  0
 35 33  2  0
M  END
$$$$
