QWR.pdb
     RDKit          3D

 35 36  0  0  1  0  0  0  0  0999 V2000
   20.7280  -23.5722  -13.3170 N   0  0  0  0  0  0  0  0  0  0  0  0
   19.5137  -22.9257  -13.6327 C   0  0  0  0  0  0  0  0  0  0  0  0
   18.4159  -23.5084  -13.6608 O   0  0  0  0  0  0  0  0  0  0  0  0
   19.5542  -21.4707  -13.9471 C   0  0  0  0  0  0  0  0  0  0  0  0
   20.9690  -20.9588  -13.8103 C   0  0  0  0  0  0  0  0  0  0  0  0
   21.2726  -20.8100  -12.3311 C   0  0  2  0  0  0  0  0  0  0  0  0
   20.4068  -19.7813  -11.8017 N   0  0  0  0  0  0  0  0  0  0  0  0
   22.7177  -20.4439  -12.1404 C   0  0  0  0  0  0  0  0  0  0  0  0
   23.1475  -19.3217  -12.5425 O   0  0  0  0  0  0  0  0  0  0  0  0
   23.6232  -21.3376  -11.5132 N   0  0  0  0  0  0  0  0  0  0  0  0
   25.0478  -20.9524  -11.3325 C   0  0  1  0  0  0  0  0  0  0  0  0
   25.5266  -21.4158  -10.0319 C   0  0  0  0  0  0  0  0  0  0  0  0
   26.9283  -21.3848   -9.6948 C   0  0  0  0  0  0  0  0  0  0  0  0
   27.9958  -21.8157  -10.4433 C   0  0  0  0  0  0  0  0  0  0  0  0
   29.1284  -21.6312   -9.7575 N   0  0  0  0  0  0  0  0  0  0  0  0
   28.8401  -21.0845   -8.5648 C   0  0  0  0  0  0  0  0  0  0  0  0
   29.6833  -20.6914   -7.5239 C   0  0  0  0  0  0  0  0  0  0  0  0
   29.1593  -20.1183   -6.3858 C   0  0  0  0  0  0  0  0  0  0  0  0
   27.7959  -19.9511   -6.3150 C   0  0  0  0  0  0  0  0  0  0  0  0
   26.9625  -20.3460   -7.3549 C   0  0  0  0  0  0  0  0  0  0  0  0
   27.4867  -20.9206   -8.4970 C   0  0  0  0  0  0  0  0  0  0  0  0
   25.7557  -21.1661  -12.5558 C   0  0  0  0  0  0  0  0  0  0  0  0
   25.6418  -22.2256  -13.2363 O   0  0  0  0  0  0  0  0  0  0  0  0
   24.9170  -16.2424  -16.9640 N   0  0  0  0  0  0  0  0  0  0  0  0
   25.7811  -16.4175  -18.0733 C   0  0  0  0  0  0  0  0  0  0  0  0
   25.3445  -16.0945  -19.2650 N   0  0  0  0  0  0  0  0  0  0  0  0
   27.0877  -16.9344  -17.8778 N   0  0  0  0  0  0  0  0  0  0  0  0
   27.5460  -17.3124  -16.5763 C   0  0  0  0  0  0  0  0  0  0  0  0
   27.1370  -18.7045  -16.1702 C   0  0  0  0  0  0  0  0  0  0  0  0
   27.7531  -19.0392  -14.8522 C   0  0  0  0  0  0  0  0  0  0  0  0
   27.3204  -20.4215  -14.3573 C   0  0  2  0  0  0  0  0  0  0  0  0
   26.6341  -20.1817  -13.0951 N   0  0  0  0  0  0  0  0  0  0  0  0
   28.4273  -21.3570  -14.3072 C   0  0  0  0  0  0  0  0  0  0  0  0
   28.7267  -22.3354  -15.2367 O   0  0  0  0  0  0  0  0  0  0  0  0
   29.2489  -21.3265  -13.3242 O   0  0  0  0  0  0  0  0  0  0  0  0
  2  1  1  0
  2  3  2  0
  4  5  1  0
  4  2  1  0
  5  6  1  0
  6  8  1  0
  6  7  1  6
  8 10  1  0
  8  9  2  0
 10 11  1  0
 11 22  1  0
 11 12  1  1
 13 14  2  0
 13 12  1  0
 15 14  1  0
 16 21  2  0
 16 15  1  0
 17 16  1  0
 18 19  1  0
 18 17  2  0
 19 20  2  0
 20 21  1  0
 21 13  1  0
 22 23  2  0
 22 32  1  0
 24 25  1  0
 25 27  1  0
 26 25  2  0
 27 28  1  0
 28 29  1  0
 31 30  1  1
 30 29  1  0
 31 33  1  0
 32 31  1  0
 33 34  1  0
 35 33  2  0
M  END
$$$$
