QWR.pdb
     RDKit          3D

 35 36  0  0  1  0  0  0  0  0999 V2000
   25.5546  -18.7158  -17.6902 N   0  0  0  0  0  0  0  0  0  0  0  0
   26.9634  -18.6319  -17.6774 C   0  0  0  0  0  0  0  0  0  0  0  0
   27.6233  -18.0722  -18.5700 O   0  0  0  0  0  0  0  0  0  0  0  0
   27.6928  -19.2465  -16.5338 C   0  0  0  0  0  0  0  0  0  0  0  0
   26.7054  -19.8698  -15.5751 C   0  0  0  0  0  0  0  0  0  0  0  0
   27.4862  -20.4574  -14.4143 C   0  0  2  0  0  0  0  0  0  0  0  0
   28.2876  -21.5463  -14.9244 N   0  0  0  0  0  0  0  0  0  0  0  0
   26.5378  -20.9416  -13.3538 C   0  0  0  0  0  0  0  0  0  0  0  0
   26.0115  -22.0905  -13.4483 O   0  0  0  0  0  0  0  0  0  0  0  0
   26.2139  -20.1314  -12.2354 N   0  0  0  0  0  0  0  0  0  0  0  0
   25.2966  -20.6434  -11.1833 C   0  0  1  0  0  0  0  0  0  0  0  0
   25.7901  -20.2573   -9.8631 C   0  0  0  0  0  0  0  0  0  0  0  0
   27.1013  -20.6495   -9.4089 C   0  0  0  0  0  0  0  0  0  0  0  0
   28.0127  -21.4643  -10.0342 C   0  0  0  0  0  0  0  0  0  0  0  0
   29.0990  -21.5948   -9.2661 N   0  0  0  0  0  0  0  0  0  0  0  0
   28.9331  -20.8828   -8.1392 C   0  0  0  0  0  0  0  0  0  0  0  0
   29.7931  -20.6928   -7.0560 C   0  0  0  0  0  0  0  0  0  0  0  0
   29.4168  -19.8849   -6.0053 C   0  0  0  0  0  0  0  0  0  0  0  0
   28.1815  -19.2826   -6.0629 C   0  0  0  0  0  0  0  0  0  0  0  0
   27.3302  -19.4774   -7.1442 C   0  0  0  0  0  0  0  0  0  0  0  0
   27.7064  -20.2872   -8.1987 C   0  0  0  0  0  0  0  0  0  0  0  0
   23.9429  -20.4600  -11.6043 C   0  0  0  0  0  0  0  0  0  0  0  0
   23.5474  -19.4188  -12.2028 O   0  0  0  0  0  0  0  0  0  0  0  0
   16.4780  -25.0778  -13.0225 N   0  0  0  0  0  0  0  0  0  0  0  0
   17.7550  -25.2832  -13.6015 C   0  0  0  0  0  0  0  0  0  0  0  0
   17.8535  -26.0822  -14.6346 N   0  0  0  0  0  0  0  0  0  0  0  0
   18.8913  -24.6298  -13.0590 N   0  0  0  0  0  0  0  0  0  0  0  0
   18.7956  -23.8527  -11.8617 C   0  0  0  0  0  0  0  0  0  0  0  0
   19.4150  -22.4840  -11.9762 C   0  0  0  0  0  0  0  0  0  0  0  0
   20.8438  -22.5473  -11.5480 C   0  0  0  0  0  0  0  0  0  0  0  0
   21.5699  -21.2224  -11.7933 C   0  0  2  0  0  0  0  0  0  0  0  0
   22.9477  -21.4560  -11.3828 N   0  0  0  0  0  0  0  0  0  0  0  0
   20.9011  -20.1047  -11.1558 C   0  0  0  0  0  0  0  0  0  0  0  0
   20.0574  -19.1913  -11.7597 O   0  0  0  0  0  0  0  0  0  0  0  0
   21.0698  -19.8853   -9.9046 O   0  0  0  0  0  0  0  0  0  0  0  0
  2  1  1  0
  2  3  2  0
  4  5  1  0
  4  2  1  0
  5  6  1  0
  6  8  1  0
  6  7  1  6
  8 10  1  0
  8  9  2  0
 10 11  1  0
 11 22  1  0
 11 12  1  1
 13 14  2  0
 13 12  1  0
 15 14  1  0
 16 21  2  0
 16 15  1  0
 17 16  1  0
 18 19  1  0
 18 17  2  0
 19 20  2  0
 20 21  1  0
 21 13  1  0
 22 23  2  0
 22 32  1  0
 24 25  1  0
 25 27  1  0
 26 25  2  0
 27 28  1  0
 28 29  1  0
 31 30  1  1
 30 29  1  0
 31 33  1  0
 32 31  1  0
 33 34  1  0
 35 33  2  0
M  END
$$$$
