IPV.pdb
     RDKit          3D

 23 23  0  0  1  0  0  0  0  0999 V2000
    7.4160  -12.0251   19.3866 C   0  0  0  0  0  0  0  0  0  0  0  0
    7.2458  -13.5107   19.5042 C   0  0  0  0  0  0  0  0  0  0  0  0
    7.5742  -14.0012   20.8630 C   0  0  2  0  0  0  0  0  0  0  0  0
    9.0483  -13.6265   21.1538 C   0  0  0  0  0  0  0  0  0  0  0  0
    7.4203  -15.4944   21.0856 C   0  0  2  0  0  0  0  0  0  0  0  0
    5.9540  -15.7017   20.8569 N   0  0  0  0  0  0  0  0  0  0  0  0
    7.6184  -15.9139   22.4837 C   0  0  0  0  0  0  0  0  0  0  0  0
    6.8905  -15.3932   23.3960 O   0  0  0  0  0  0  0  0  0  0  0  0
    8.5619  -16.8632   22.8934 N   0  0  0  0  0  0  0  0  0  0  0  0
    9.4410  -17.6311   22.0503 C   0  0  0  0  0  0  0  0  0  0  0  0
    9.6814  -18.9338   22.8012 C   0  0  0  0  0  0  0  0  0  0  0  0
    9.7622  -18.4314   24.2245 C   0  0  0  0  0  0  0  0  0  0  0  0
    8.8304  -17.2695   24.2718 C   0  0  1  0  0  0  0  0  0  0  0  0
    9.3257  -16.1360   25.0805 C   0  0  0  0  0  0  0  0  0  0  0  0
   10.1247  -15.3115   24.5677 O   0  0  0  0  0  0  0  0  0  0  0  0
    8.8995  -12.9451   28.7222 C   0  0  0  0  0  0  0  0  0  0  0  0
    8.4267  -14.0683   27.8570 C   0  0  1  0  0  0  0  0  0  0  0  0
    7.6317  -13.4592   26.7093 C   0  0  0  0  0  0  0  0  0  0  0  0
    9.5334  -14.8733   27.2509 C   0  0  2  0  0  0  0  0  0  0  0  0
    8.9505  -15.9138   26.4245 N   0  0  0  0  0  0  0  0  0  0  0  0
   10.4620  -15.4459   28.2567 C   0  0  0  0  0  0  0  0  0  0  0  0
   10.3826  -16.8069   28.5648 O   0  0  0  0  0  0  0  0  0  0  0  0
   11.3233  -14.7743   28.8536 O   0  0  0  0  0  0  0  0  0  0  0  0
  2  1  1  0
  3  2  1  0
  3  4  1  6
  5  6  1  1
  5  7  1  0
  5  3  1  0
  7  9  1  0
  8  7  2  0
  9 10  1  0
  9 13  1  0
 10 11  1  0
 12 11  1  0
 13 12  1  0
 14 20  1  0
 13 14  1  1
 15 14  2  0
 17 16  1  1
 18 17  1  0
 19 17  1  0
 19 20  1  1
 21 19  1  0
 21 22  1  0
 23 21  2  0
M  END
$$$$
