IPV.pdb
     RDKit          3D

 23 23  0  0  1  0  0  0  0  0999 V2000
    5.7413  -10.8711   26.7434 C   0  0  0  0  0  0  0  0  0  0  0  0
    5.3317  -12.1302   26.0388 C   0  0  0  0  0  0  0  0  0  0  0  0
    6.4654  -13.0702   25.8779 C   0  0  2  0  0  0  0  0  0  0  0  0
    7.6079  -12.3093   25.1613 C   0  0  0  0  0  0  0  0  0  0  0  0
    6.1757  -14.3309   25.0843 C   0  0  2  0  0  0  0  0  0  0  0  0
    5.2105  -15.0533   25.9742 N   0  0  0  0  0  0  0  0  0  0  0  0
    7.3202  -15.2534   24.9889 C   0  0  0  0  0  0  0  0  0  0  0  0
    7.5368  -16.0731   25.9452 O   0  0  0  0  0  0  0  0  0  0  0  0
    8.2029  -15.3012   23.9037 N   0  0  0  0  0  0  0  0  0  0  0  0
    8.1320  -14.5235   22.6939 C   0  0  0  0  0  0  0  0  0  0  0  0
    8.7699  -15.3932   21.6191 C   0  0  0  0  0  0  0  0  0  0  0  0
    9.9002  -16.0257   22.3983 C   0  0  0  0  0  0  0  0  0  0  0  0
    9.3738  -16.1685   23.7851 C   0  0  1  0  0  0  0  0  0  0  0  0
   10.3692  -15.8763   24.8375 C   0  0  0  0  0  0  0  0  0  0  0  0
   11.0685  -14.8344   24.7568 O   0  0  0  0  0  0  0  0  0  0  0  0
   10.4474  -14.0466   26.7097 C   0  0  0  0  0  0  0  0  0  0  0  0
   10.8391  -15.0935   27.7018 C   0  0  1  0  0  0  0  0  0  0  0  0
    9.5787  -15.5121   28.4479 C   0  0  0  0  0  0  0  0  0  0  0  0
   11.4181  -16.3275   27.0836 C   0  0  2  0  0  0  0  0  0  0  0  0
   10.5910  -16.7121   25.9551 N   0  0  0  0  0  0  0  0  0  0  0  0
   11.5699  -17.4492   28.0429 C   0  0  0  0  0  0  0  0  0  0  0  0
   12.5935  -17.4030   28.9935 O   0  0  0  0  0  0  0  0  0  0  0  0
   10.8265  -18.4474   28.0520 O   0  0  0  0  0  0  0  0  0  0  0  0
  2  1  1  0
  3  2  1  0
  3  4  1  6
  5  6  1  1
  5  7  1  0
  5  3  1  0
  7  9  1  0
  8  7  2  0
  9 10  1  0
  9 13  1  0
 10 11  1  0
 12 11  1  0
 13 12  1  0
 14 20  1  0
 13 14  1  1
 15 14  2  0
 17 16  1  6
 18 17  1  0
 19 17  1  0
 19 20  1  6
 21 19  1  0
 21 22  1  0
 23 21  2  0
M  END
$$$$
