IPV.pdb
     RDKit          3D

 23 23  0  0  1  0  0  0  0  0999 V2000
    6.2299  -17.9469   20.9088 C   0  0  0  0  0  0  0  0  0  0  0  0
    6.2812  -16.4574   21.0782 C   0  0  0  0  0  0  0  0  0  0  0  0
    7.0606  -16.0614   22.2742 C   0  0  2  0  0  0  0  0  0  0  0  0
    6.3738  -16.6901   23.5114 C   0  0  0  0  0  0  0  0  0  0  0  0
    7.1882  -14.5693   22.5200 C   0  0  2  0  0  0  0  0  0  0  0  0
    8.0156  -14.1233   21.3529 N   0  0  0  0  0  0  0  0  0  0  0  0
    8.0173  -14.2246   23.6877 C   0  0  0  0  0  0  0  0  0  0  0  0
    9.2835  -14.3827   23.6172 O   0  0  0  0  0  0  0  0  0  0  0  0
    7.5095  -13.7228   24.8917 N   0  0  0  0  0  0  0  0  0  0  0  0
    6.1597  -13.2934   25.1509 C   0  0  0  0  0  0  0  0  0  0  0  0
    6.2785  -12.2206   26.2249 C   0  0  0  0  0  0  0  0  0  0  0  0
    7.3821  -12.7968   27.0822 C   0  0  0  0  0  0  0  0  0  0  0  0
    8.2646  -13.5257   26.1279 C   0  0  1  0  0  0  0  0  0  0  0  0
    8.7850  -14.8062   26.6509 C   0  0  0  0  0  0  0  0  0  0  0  0
    8.0556  -15.8300   26.6208 O   0  0  0  0  0  0  0  0  0  0  0  0
   12.6684  -17.5945   27.8537 C   0  0  0  0  0  0  0  0  0  0  0  0
   12.0490  -16.2964   27.4476 C   0  0  1  0  0  0  0  0  0  0  0  0
   12.2371  -16.1497   25.9431 C   0  0  0  0  0  0  0  0  0  0  0  0
   10.5796  -16.2149   27.7202 C   0  0  2  0  0  0  0  0  0  0  0  0
   10.0801  -14.9577   27.1953 N   0  0  0  0  0  0  0  0  0  0  0  0
   10.2393  -16.3684   29.1562 C   0  0  0  0  0  0  0  0  0  0  0  0
   10.1420  -17.6508   29.7033 O   0  0  0  0  0  0  0  0  0  0  0  0
   10.0314  -15.4055   29.9170 O   0  0  0  0  0  0  0  0  0  0  0  0
  2  1  1  0
  3  2  1  0
  3  4  1  1
  5  6  1  6
  5  7  1  0
  5  3  1  0
  7  9  1  0
  8  7  2  0
  9 10  1  0
  9 13  1  0
 10 11  1  0
 12 11  1  0
 13 12  1  0
 14 20  1  0
 13 14  1  1
 15 14  2  0
 17 16  1  6
 18 17  1  0
 19 17  1  0
 19 20  1  1
 21 19  1  0
 21 22  1  0
 23 21  2  0
M  END
$$$$
