IPV.pdb
     RDKit          3D

 23 23  0  0  1  0  0  0  0  0999 V2000
    2.3734  -19.2424   20.5107 C   0  0  0  0  0  0  0  0  0  0  0  0
    3.3456  -18.5761   19.5829 C   0  0  0  0  0  0  0  0  0  0  0  0
    4.5335  -18.0592   20.3015 C   0  0  2  0  0  0  0  0  0  0  0  0
    4.0605  -16.9085   21.2235 C   0  0  0  0  0  0  0  0  0  0  0  0
    5.6571  -17.5272   19.4312 C   0  0  2  0  0  0  0  0  0  0  0  0
    6.1749  -18.7741   18.7811 N   0  0  0  0  0  0  0  0  0  0  0  0
    6.8142  -17.0232   20.1908 C   0  0  0  0  0  0  0  0  0  0  0  0
    7.6432  -17.8606   20.6855 O   0  0  0  0  0  0  0  0  0  0  0  0
    7.0793  -15.6666   20.4112 N   0  0  0  0  0  0  0  0  0  0  0  0
    6.3079  -14.5453   19.9409 C   0  0  0  0  0  0  0  0  0  0  0  0
    7.3085  -13.4090   19.7789 C   0  0  0  0  0  0  0  0  0  0  0  0
    8.2020  -13.6434   20.9753 C   0  0  0  0  0  0  0  0  0  0  0  0
    8.2101  -15.1220   21.1608 C   0  0  1  0  0  0  0  0  0  0  0  0
    8.1745  -15.5493   22.5751 C   0  0  0  0  0  0  0  0  0  0  0  0
    7.0759  -15.5779   23.1861 O   0  0  0  0  0  0  0  0  0  0  0  0
   10.5023  -17.6564   26.4239 C   0  0  0  0  0  0  0  0  0  0  0  0
   10.4382  -17.2010   25.0019 C   0  0  1  0  0  0  0  0  0  0  0  0
   10.2577  -18.4384   24.1321 C   0  0  0  0  0  0  0  0  0  0  0  0
    9.2918  -16.2839   24.7106 C   0  0  2  0  0  0  0  0  0  0  0  0
    9.3226  -15.9368   23.3020 N   0  0  0  0  0  0  0  0  0  0  0  0
    9.2814  -15.0682   25.5613 C   0  0  0  0  0  0  0  0  0  0  0  0
    8.5030  -15.0518   26.7220 O   0  0  0  0  0  0  0  0  0  0  0  0
    9.9365  -14.0432   25.2983 O   0  0  0  0  0  0  0  0  0  0  0  0
  2  1  1  0
  3  2  1  0
  3  4  1  1
  5  6  1  6
  5  7  1  0
  5  3  1  0
  7  9  1  0
  8  7  2  0
  9 10  1  0
  9 13  1  0
 10 11  1  0
 12 11  1  0
 13 12  1  0
 14 20  1  0
 13 14  1  1
 15 14  2  0
 17 16  1  1
 18 17  1  0
 19 17  1  0
 19 20  1  6
 21 19  1  0
 21 22  1  0
 23 21  2  0
M  END
$$$$
