IPV.pdb
     RDKit          3D

 23 23  0  0  1  0  0  0  0  0999 V2000
    7.6560  -11.9412   19.8142 C   0  0  0  0  0  0  0  0  0  0  0  0
    7.4489  -13.4268   19.8229 C   0  0  0  0  0  0  0  0  0  0  0  0
    7.7700  -14.0242   21.1399 C   0  0  2  0  0  0  0  0  0  0  0  0
    9.2575  -13.7192   21.4436 C   0  0  0  0  0  0  0  0  0  0  0  0
    7.5688  -15.5239   21.2561 C   0  0  2  0  0  0  0  0  0  0  0  0
    6.0870  -15.6615   21.0800 N   0  0  0  0  0  0  0  0  0  0  0  0
    7.8106  -16.0566   22.6080 C   0  0  0  0  0  0  0  0  0  0  0  0
    7.1149  -15.6114   23.5832 O   0  0  0  0  0  0  0  0  0  0  0  0
    8.7633  -17.0373   22.9076 N   0  0  0  0  0  0  0  0  0  0  0  0
    9.5715  -17.7750   21.9716 C   0  0  0  0  0  0  0  0  0  0  0  0
    9.8396  -19.1158   22.6417 C   0  0  0  0  0  0  0  0  0  0  0  0
   10.0233  -18.6844   24.0787 C   0  0  0  0  0  0  0  0  0  0  0  0
    9.1162  -17.5137   24.2439 C   0  0  1  0  0  0  0  0  0  0  0  0
    9.6831  -16.4277   25.0705 C   0  0  0  0  0  0  0  0  0  0  0  0
   10.4761  -15.6023   24.5499 O   0  0  0  0  0  0  0  0  0  0  0  0
    9.6569  -13.2748   28.7098 C   0  0  0  0  0  0  0  0  0  0  0  0
    9.0645  -14.3451   27.8511 C   0  0  1  0  0  0  0  0  0  0  0  0
    8.3828  -13.6621   26.6725 C   0  0  0  0  0  0  0  0  0  0  0  0
   10.0726  -15.2976   27.2885 C   0  0  2  0  0  0  0  0  0  0  0  0
    9.3843  -16.2530   26.4405 N   0  0  0  0  0  0  0  0  0  0  0  0
   10.8746  -15.9865   28.3296 C   0  0  0  0  0  0  0  0  0  0  0  0
   10.5684  -17.3079   28.6665 O   0  0  0  0  0  0  0  0  0  0  0  0
   11.8214  -15.4481   28.9320 O   0  0  0  0  0  0  0  0  0  0  0  0
  2  1  1  0
  3  2  1  0
  3  4  1  6
  5  6  1  1
  5  7  1  0
  5  3  1  0
  7  9  1  0
  8  7  2  0
  9 10  1  0
  9 13  1  0
 10 11  1  0
 12 11  1  0
 13 12  1  0
 14 20  1  0
 13 14  1  1
 15 14  2  0
 17 16  1  1
 18 17  1  0
 19 17  1  0
 19 20  1  1
 21 19  1  0
 21 22  1  0
 23 21  2  0
M  END
$$$$
