IPV.pdb
     RDKit          3D

 23 23  0  0  1  0  0  0  0  0999 V2000
    7.7259  -21.0144   20.2303 C   0  0  0  0  0  0  0  0  0  0  0  0
    8.4726  -19.8042   19.7533 C   0  0  0  0  0  0  0  0  0  0  0  0
    8.3610  -18.6729   20.7033 C   0  0  2  0  0  0  0  0  0  0  0  0
    6.8614  -18.3059   20.8222 C   0  0  0  0  0  0  0  0  0  0  0  0
    9.1206  -17.4136   20.3291 C   0  0  2  0  0  0  0  0  0  0  0  0
   10.5478  -17.8484   20.4688 N   0  0  0  0  0  0  0  0  0  0  0  0
    8.9903  -16.3230   21.3106 C   0  0  0  0  0  0  0  0  0  0  0  0
    9.5080  -16.4675   22.4701 O   0  0  0  0  0  0  0  0  0  0  0  0
    8.3311  -15.1140   21.0595 N   0  0  0  0  0  0  0  0  0  0  0  0
    7.5659  -14.7711   19.8889 C   0  0  0  0  0  0  0  0  0  0  0  0
    7.7022  -13.2610   19.7479 C   0  0  0  0  0  0  0  0  0  0  0  0
    7.6557  -12.8344   21.1973 C   0  0  0  0  0  0  0  0  0  0  0  0
    8.3024  -13.9502   21.9438 C   0  0  1  0  0  0  0  0  0  0  0  0
    7.6498  -14.2681   23.2311 C   0  0  0  0  0  0  0  0  0  0  0  0
    6.7586  -15.1542   23.2718 O   0  0  0  0  0  0  0  0  0  0  0  0
    9.1232  -15.2247   26.5247 C   0  0  0  0  0  0  0  0  0  0  0  0
    8.1909  -14.0865   26.7869 C   0  0  1  0  0  0  0  0  0  0  0  0
    9.0363  -12.8298   26.9498 C   0  0  0  0  0  0  0  0  0  0  0  0
    7.2229  -13.8279   25.6750 C   0  0  2  0  0  0  0  0  0  0  0  0
    7.9704  -13.6252   24.4479 N   0  0  0  0  0  0  0  0  0  0  0  0
    6.3128  -12.6869   25.9420 C   0  0  0  0  0  0  0  0  0  0  0  0
    5.1914  -12.8812   26.7533 O   0  0  0  0  0  0  0  0  0  0  0  0
    6.4915  -11.5458   25.4782 O   0  0  0  0  0  0  0  0  0  0  0  0
  2  1  1  0
  3  2  1  0
  3  4  1  6
  5  6  1  1
  5  7  1  0
  5  3  1  0
  7  9  1  0
  8  7  2  0
  9 10  1  0
  9 13  1  0
 10 11  1  0
 12 11  1  0
 13 12  1  0
 14 20  1  0
 13 14  1  1
 15 14  2  0
 17 16  1  6
 18 17  1  0
 19 17  1  0
 19 20  1  6
 21 19  1  0
 21 22  1  0
 23 21  2  0
M  END
$$$$
