IPV.pdb
     RDKit          3D

 23 23  0  0  1  0  0  0  0  0999 V2000
    5.8832  -10.9696   27.1823 C   0  0  0  0  0  0  0  0  0  0  0  0
    5.4698  -12.0339   26.2096 C   0  0  0  0  0  0  0  0  0  0  0  0
    6.5486  -13.0223   25.9767 C   0  0  2  0  0  0  0  0  0  0  0  0
    7.7742  -12.2570   25.4197 C   0  0  0  0  0  0  0  0  0  0  0  0
    6.2227  -14.1463   25.0106 C   0  0  2  0  0  0  0  0  0  0  0  0
    5.1575  -14.9007   25.7465 N   0  0  0  0  0  0  0  0  0  0  0  0
    7.3051  -15.1332   24.8547 C   0  0  0  0  0  0  0  0  0  0  0  0
    7.4699  -16.0204   25.7597 O   0  0  0  0  0  0  0  0  0  0  0  0
    8.1812  -15.1733   23.7638 N   0  0  0  0  0  0  0  0  0  0  0  0
    8.1185  -14.3678   22.5719 C   0  0  0  0  0  0  0  0  0  0  0  0
    8.7346  -15.2252   21.4746 C   0  0  0  0  0  0  0  0  0  0  0  0
    9.8569  -15.8956   22.2334 C   0  0  0  0  0  0  0  0  0  0  0  0
    9.3350  -16.0594   23.6196 C   0  0  1  0  0  0  0  0  0  0  0  0
   10.3412  -15.8091   24.6727 C   0  0  0  0  0  0  0  0  0  0  0  0
   11.3336  -15.0792   24.4205 O   0  0  0  0  0  0  0  0  0  0  0  0
   11.6430  -14.5928   28.9886 C   0  0  0  0  0  0  0  0  0  0  0  0
   10.7667  -14.9118   27.8207 C   0  0  1  0  0  0  0  0  0  0  0  0
   10.7685  -13.6973   26.9012 C   0  0  0  0  0  0  0  0  0  0  0  0
   11.2368  -16.0802   27.0121 C   0  0  2  0  0  0  0  0  0  0  0  0
   10.2579  -16.3499   25.9754 N   0  0  0  0  0  0  0  0  0  0  0  0
   11.4999  -17.2913   27.8279 C   0  0  0  0  0  0  0  0  0  0  0  0
   10.4834  -18.2352   27.9993 O   0  0  0  0  0  0  0  0  0  0  0  0
   12.5918  -17.5213   28.3792 O   0  0  0  0  0  0  0  0  0  0  0  0
  2  1  1  0
  3  2  1  0
  3  4  1  6
  5  6  1  1
  5  7  1  0
  5  3  1  0
  7  9  1  0
  8  7  2  0
  9 10  1  0
  9 13  1  0
 10 11  1  0
 12 11  1  0
 13 12  1  0
 14 20  1  0
 13 14  1  1
 15 14  2  0
 17 16  1  1
 18 17  1  0
 19 17  1  0
 19 20  1  6
 21 19  1  0
 21 22  1  0
 23 21  2  0
M  END
$$$$
