IPV.pdb
     RDKit          3D

 23 23  0  0  1  0  0  0  0  0999 V2000
    9.9530  -19.9590   20.2977 C   0  0  0  0  0  0  0  0  0  0  0  0
    9.5340  -18.5386   20.0600 C   0  0  0  0  0  0  0  0  0  0  0  0
    9.6255  -17.7195   21.2911 C   0  0  2  0  0  0  0  0  0  0  0  0
    8.7316  -18.3858   22.3657 C   0  0  0  0  0  0  0  0  0  0  0  0
    9.1937  -16.2707   21.1588 C   0  0  2  0  0  0  0  0  0  0  0  0
   10.2414  -15.7075   20.2474 N   0  0  0  0  0  0  0  0  0  0  0  0
    9.3483  -15.4856   22.3955 C   0  0  0  0  0  0  0  0  0  0  0  0
   10.5164  -15.1020   22.7443 O   0  0  0  0  0  0  0  0  0  0  0  0
    8.2872  -15.1183   23.2312 N   0  0  0  0  0  0  0  0  0  0  0  0
    6.8808  -15.2816   22.9688 C   0  0  0  0  0  0  0  0  0  0  0  0
    6.1972  -14.1486   23.7221 C   0  0  0  0  0  0  0  0  0  0  0  0
    7.0336  -14.0977   24.9802 C   0  0  0  0  0  0  0  0  0  0  0  0
    8.4053  -14.4806   24.5414 C   0  0  1  0  0  0  0  0  0  0  0  0
    9.1212  -15.3482   25.5000 C   0  0  0  0  0  0  0  0  0  0  0  0
    9.2629  -16.5708   25.2427 O   0  0  0  0  0  0  0  0  0  0  0  0
   11.6942  -13.6749   28.2222 C   0  0  0  0  0  0  0  0  0  0  0  0
   10.9696  -14.8810   28.7262 C   0  0  1  0  0  0  0  0  0  0  0  0
    9.8109  -14.3933   29.5864 C   0  0  0  0  0  0  0  0  0  0  0  0
   10.3884  -15.7350   27.6431 C   0  0  2  0  0  0  0  0  0  0  0  0
    9.6697  -14.8813   26.7156 N   0  0  0  0  0  0  0  0  0  0  0  0
    9.5172  -16.8213   28.1556 C   0  0  0  0  0  0  0  0  0  0  0  0
   10.1018  -17.9615   28.7139 O   0  0  0  0  0  0  0  0  0  0  0  0
    8.2740  -16.7773   28.1173 O   0  0  0  0  0  0  0  0  0  0  0  0
  2  1  1  0
  3  2  1  0
  3  4  1  1
  5  6  1  6
  5  7  1  0
  5  3  1  0
  7  9  1  0
  8  7  2  0
  9 10  1  0
  9 13  1  0
 10 11  1  0
 12 11  1  0
 13 12  1  0
 14 20  1  0
 13 14  1  1
 15 14  2  0
 17 16  1  6
 18 17  1  0
 19 17  1  0
 19 20  1  6
 21 19  1  0
 21 22  1  0
 23 21  2  0
M  END
$$$$
