IPV.pdb
     RDKit          3D

 23 23  0  0  1  0  0  0  0  0999 V2000
    6.5337  -11.2851   27.4619 C   0  0  0  0  0  0  0  0  0  0  0  0
    5.8502  -12.3404   26.6440 C   0  0  0  0  0  0  0  0  0  0  0  0
    6.8196  -13.2447   25.9827 C   0  0  2  0  0  0  0  0  0  0  0  0
    7.7280  -12.3774   25.0769 C   0  0  0  0  0  0  0  0  0  0  0  0
    6.2232  -14.3464   25.1264 C   0  0  2  0  0  0  0  0  0  0  0  0
    5.5980  -15.2437   26.1509 N   0  0  0  0  0  0  0  0  0  0  0  0
    7.2262  -15.2062   24.4748 C   0  0  0  0  0  0  0  0  0  0  0  0
    7.7747  -16.1413   25.1516 O   0  0  0  0  0  0  0  0  0  0  0  0
    7.6273  -15.0736   23.1403 N   0  0  0  0  0  0  0  0  0  0  0  0
    7.2298  -14.0453   22.2140 C   0  0  0  0  0  0  0  0  0  0  0  0
    7.2886  -14.6981   20.8396 C   0  0  0  0  0  0  0  0  0  0  0  0
    8.5200  -15.5622   20.9871 C   0  0  0  0  0  0  0  0  0  0  0  0
    8.5290  -15.9711   22.4201 C   0  0  1  0  0  0  0  0  0  0  0  0
    9.8746  -15.9866   23.0309 C   0  0  0  0  0  0  0  0  0  0  0  0
   10.3729  -14.9145   23.4591 O   0  0  0  0  0  0  0  0  0  0  0  0
   10.8949  -17.9065   25.9570 C   0  0  0  0  0  0  0  0  0  0  0  0
   11.9326  -18.1781   24.9164 C   0  0  1  0  0  0  0  0  0  0  0  0
   11.6115  -19.5294   24.2908 C   0  0  0  0  0  0  0  0  0  0  0  0
   11.9575  -17.1720   23.8086 C   0  0  2  0  0  0  0  0  0  0  0  0
   10.6556  -17.1561   23.1679 N   0  0  0  0  0  0  0  0  0  0  0  0
   13.0375  -17.4132   22.8202 C   0  0  0  0  0  0  0  0  0  0  0  0
   14.3248  -16.9363   23.0829 O   0  0  0  0  0  0  0  0  0  0  0  0
   12.8626  -18.0263   21.7512 O   0  0  0  0  0  0  0  0  0  0  0  0
  2  1  1  0
  3  2  1  0
  3  4  1  6
  5  6  1  1
  5  7  1  0
  5  3  1  0
  7  9  1  0
  8  7  2  0
  9 10  1  0
  9 13  1  0
 10 11  1  0
 12 11  1  0
 13 12  1  0
 14 20  1  0
 13 14  1  1
 15 14  2  0
 17 16  1  1
 18 17  1  0
 19 17  1  0
 19 20  1  6
 21 19  1  0
 21 22  1  0
 23 21  2  0
M  END
$$$$
