IPV.pdb
     RDKit          3D

 23 23  0  0  1  0  0  0  0  0999 V2000
    7.3194  -11.5160   27.2530 C   0  0  0  0  0  0  0  0  0  0  0  0
    6.6902  -12.8304   26.8976 C   0  0  0  0  0  0  0  0  0  0  0  0
    6.4303  -12.9463   25.4437 C   0  0  2  0  0  0  0  0  0  0  0  0
    5.2812  -11.9695   25.0929 C   0  0  0  0  0  0  0  0  0  0  0  0
    6.0376  -14.3254   24.9468 C   0  0  2  0  0  0  0  0  0  0  0  0
    5.2437  -14.8650   26.0975 N   0  0  0  0  0  0  0  0  0  0  0  0
    7.1675  -15.2635   24.8319 C   0  0  0  0  0  0  0  0  0  0  0  0
    7.3135  -16.1699   25.7209 O   0  0  0  0  0  0  0  0  0  0  0  0
    8.1095  -15.2364   23.7969 N   0  0  0  0  0  0  0  0  0  0  0  0
    8.0775  -14.4112   22.6173 C   0  0  0  0  0  0  0  0  0  0  0  0
    8.8034  -15.2134   21.5458 C   0  0  0  0  0  0  0  0  0  0  0  0
    9.9110  -15.8406   22.3611 C   0  0  0  0  0  0  0  0  0  0  0  0
    9.3148  -16.0590   23.7092 C   0  0  1  0  0  0  0  0  0  0  0  0
   10.2403  -15.7789   24.8268 C   0  0  0  0  0  0  0  0  0  0  0  0
   10.9225  -14.7226   24.8164 O   0  0  0  0  0  0  0  0  0  0  0  0
   10.8354  -14.6640   29.0875 C   0  0  0  0  0  0  0  0  0  0  0  0
   10.3820  -15.0439   27.7151 C   0  0  1  0  0  0  0  0  0  0  0  0
   10.6866  -13.8719   26.7909 C   0  0  0  0  0  0  0  0  0  0  0  0
   11.0824  -16.2426   27.1558 C   0  0  2  0  0  0  0  0  0  0  0  0
   10.4121  -16.6419   25.9324 N   0  0  0  0  0  0  0  0  0  0  0  0
   11.1672  -17.3730   28.1132 C   0  0  0  0  0  0  0  0  0  0  0  0
   10.2901  -18.4526   27.9768 O   0  0  0  0  0  0  0  0  0  0  0  0
   11.9878  -17.4183   29.0479 O   0  0  0  0  0  0  0  0  0  0  0  0
  2  1  1  0
  3  2  1  0
  3  4  1  1
  5  6  1  1
  5  7  1  0
  5  3  1  0
  7  9  1  0
  8  7  2  0
  9 10  1  0
  9 13  1  0
 10 11  1  0
 12 11  1  0
 13 12  1  0
 14 20  1  0
 13 14  1  1
 15 14  2  0
 17 16  1  1
 18 17  1  0
 19 17  1  0
 19 20  1  6
 21 19  1  0
 21 22  1  0
 23 21  2  0
M  END
$$$$
