IPV.pdb
     RDKit          3D

 23 23  0  0  1  0  0  0  0  0999 V2000
    6.2496  -10.8334   27.3979 C   0  0  0  0  0  0  0  0  0  0  0  0
    5.7148  -11.8586   26.4424 C   0  0  0  0  0  0  0  0  0  0  0  0
    6.6645  -12.9776   26.2402 C   0  0  2  0  0  0  0  0  0  0  0  0
    7.9709  -12.3850   25.6573 C   0  0  0  0  0  0  0  0  0  0  0  0
    6.1996  -14.0840   25.3114 C   0  0  2  0  0  0  0  0  0  0  0  0
    5.1489  -14.7687   26.1316 N   0  0  0  0  0  0  0  0  0  0  0  0
    7.2055  -15.1358   25.0842 C   0  0  0  0  0  0  0  0  0  0  0  0
    7.3394  -16.0634   25.9531 O   0  0  0  0  0  0  0  0  0  0  0  0
    8.0393  -15.1967   23.9616 N   0  0  0  0  0  0  0  0  0  0  0  0
    7.9410  -14.4019   22.7649 C   0  0  0  0  0  0  0  0  0  0  0  0
    8.5053  -15.2770   21.6538 C   0  0  0  0  0  0  0  0  0  0  0  0
    9.6477  -15.9535   22.3765 C   0  0  0  0  0  0  0  0  0  0  0  0
    9.1766  -16.0978   23.7829 C   0  0  1  0  0  0  0  0  0  0  0  0
   10.2246  -15.8495   24.7948 C   0  0  0  0  0  0  0  0  0  0  0  0
   10.9838  -14.8550   24.6693 O   0  0  0  0  0  0  0  0  0  0  0  0
   10.4377  -14.0141   26.6768 C   0  0  0  0  0  0  0  0  0  0  0  0
   10.8456  -15.0728   27.6497 C   0  0  1  0  0  0  0  0  0  0  0  0
    9.6170  -15.4357   28.4739 C   0  0  0  0  0  0  0  0  0  0  0  0
   11.3341  -16.3321   27.0049 C   0  0  2  0  0  0  0  0  0  0  0  0
   10.4333  -16.6771   25.9209 N   0  0  0  0  0  0  0  0  0  0  0  0
   11.4824  -17.4602   27.9573 C   0  0  0  0  0  0  0  0  0  0  0  0
   12.5450  -17.4543   28.8652 O   0  0  0  0  0  0  0  0  0  0  0  0
   10.7027  -18.4295   27.9967 O   0  0  0  0  0  0  0  0  0  0  0  0
  2  1  1  0
  3  2  1  0
  3  4  1  6
  5  6  1  1
  5  7  1  0
  5  3  1  0
  7  9  1  0
  8  7  2  0
  9 10  1  0
  9 13  1  0
 10 11  1  0
 12 11  1  0
 13 12  1  0
 14 20  1  0
 13 14  1  1
 15 14  2  0
 17 16  1  6
 18 17  1  0
 19 17  1  0
 19 20  1  6
 21 19  1  0
 21 22  1  0
 23 21  2  0
M  END
$$$$
