IPV.pdb
     RDKit          3D

 23 23  0  0  1  0  0  0  0  0999 V2000
    9.6634  -21.6803   21.5893 C   0  0  0  0  0  0  0  0  0  0  0  0
    9.7738  -20.4267   20.7731 C   0  0  0  0  0  0  0  0  0  0  0  0
    9.6380  -19.2087   21.6054 C   0  0  2  0  0  0  0  0  0  0  0  0
    8.2349  -19.2413   22.2598 C   0  0  0  0  0  0  0  0  0  0  0  0
    9.7811  -17.8859   20.8757 C   0  0  2  0  0  0  0  0  0  0  0  0
   11.2298  -17.8880   20.4925 N   0  0  0  0  0  0  0  0  0  0  0  0
    9.6523  -16.7054   21.7472 C   0  0  0  0  0  0  0  0  0  0  0  0
   10.5229  -16.5130   22.6629 O   0  0  0  0  0  0  0  0  0  0  0  0
    8.6275  -15.7579   21.6409 N   0  0  0  0  0  0  0  0  0  0  0  0
    7.5378  -15.7618   20.6996 C   0  0  0  0  0  0  0  0  0  0  0  0
    7.1875  -14.2957   20.4843 C   0  0  0  0  0  0  0  0  0  0  0  0
    7.3674  -13.7515   21.8830 C   0  0  0  0  0  0  0  0  0  0  0  0
    8.4722  -14.5625   22.4681 C   0  0  1  0  0  0  0  0  0  0  0  0
    8.2705  -14.9138   23.8894 C   0  0  0  0  0  0  0  0  0  0  0  0
    7.7356  -16.0123   24.1862 O   0  0  0  0  0  0  0  0  0  0  0  0
    8.7771  -13.6135   28.6849 C   0  0  0  0  0  0  0  0  0  0  0  0
    9.0624  -13.4288   27.2296 C   0  0  1  0  0  0  0  0  0  0  0  0
   10.5265  -13.7817   27.0012 C   0  0  0  0  0  0  0  0  0  0  0  0
    8.2493  -14.3123   26.3360 C   0  0  2  0  0  0  0  0  0  0  0  0
    8.6491  -14.0748   24.9615 N   0  0  0  0  0  0  0  0  0  0  0  0
    6.7863  -14.1331   26.5064 C   0  0  0  0  0  0  0  0  0  0  0  0
    6.0895  -14.9793   27.3735 O   0  0  0  0  0  0  0  0  0  0  0  0
    6.1301  -13.2580   25.9124 O   0  0  0  0  0  0  0  0  0  0  0  0
  2  1  1  0
  3  2  1  0
  3  4  1  6
  5  6  1  1
  5  7  1  0
  5  3  1  0
  7  9  1  0
  8  7  2  0
  9 10  1  0
  9 13  1  0
 10 11  1  0
 12 11  1  0
 13 12  1  0
 14 20  1  0
 13 14  1  1
 15 14  2  0
 17 16  1  1
 18 17  1  0
 19 17  1  0
 19 20  1  6
 21 19  1  0
 21 22  1  0
 23 21  2  0
M  END
$$$$
