DLC.pdb
     RDKit          3D

 23 22  0  0  1  0  0  0  0  0999 V2000
   17.2380  -10.5896  -17.7208 N   0  0  0  0  0  0  0  0  0  0  0  0
   17.6107   -9.2938  -17.2426 C   0  0  1  0  0  0  0  0  0  0  0  0
   16.5043   -8.3181  -17.4478 C   0  0  0  0  0  0  0  0  0  0  0  0
   16.4267   -7.9536  -18.8788 C   0  0  0  0  0  0  0  0  0  0  0  0
   17.4889   -7.7582  -19.5151 O   0  0  0  0  0  0  0  0  0  0  0  0
   17.9820   -9.3217  -15.7891 C   0  0  0  0  0  0  0  0  0  0  0  0
   17.3667  -10.0704  -14.9871 O   0  0  0  0  0  0  0  0  0  0  0  0
   15.1970   -7.8317  -19.4999 O   0  0  0  0  0  0  0  0  0  0  0  0
   21.2314   -9.7508  -11.5819 C   0  0  0  0  0  0  0  0  0  0  0  0
   21.5583   -8.5931  -12.5172 C   0  0  1  0  0  0  0  0  0  0  0  0
   23.0619   -8.7758  -12.8239 C   0  0  0  0  0  0  0  0  0  0  0  0
   20.8610   -8.6826  -13.8139 C   0  0  0  0  0  0  0  0  0  0  0  0
   19.3750   -8.5510  -13.8233 C   0  0  2  0  0  0  0  0  0  0  0  0
   19.0211   -8.5217  -15.2663 N   0  0  0  0  0  0  0  0  0  0  0  0
   18.8421   -7.3140  -13.2490 C   0  0  0  0  0  0  0  0  0  0  0  0
   19.0406   -6.2016  -13.8046 O   0  0  0  0  0  0  0  0  0  0  0  0
   18.0862   -7.3035  -12.0599 N   0  0  0  0  0  0  0  0  0  0  0  0
   17.5091   -6.0865  -11.5255 C   0  0  1  0  0  0  0  0  0  0  0  0
   16.0261   -5.9953  -11.8135 C   0  0  0  0  0  0  0  0  0  0  0  0
   15.3679   -4.5334  -10.9674 S   0  0  0  0  0  0  0  0  0  0  0  0
   17.6849   -6.0456  -10.0521 C   0  0  0  0  0  0  0  0  0  0  0  0
   17.4109   -4.9003   -9.3348 O   0  0  0  0  0  0  0  0  0  0  0  0
   18.0894   -7.0692   -9.4481 O   0  0  0  0  0  0  0  0  0  0  0  0
  2  1  1  1
  3  2  1  0
  3  4  1  0
  4  5  2  0
  4  8  1  0
  6  2  1  0
  7  6  2  0
 10  9  1  1
 10 12  1  0
 11 10  1  0
 13 12  1  6
 13 14  1  0
 14  6  1  0
 15 13  1  0
 15 17  1  0
 16 15  2  0
 18 17  1  0
 18 21  1  0
 18 19  1  1
 20 19  1  0
 21 22  1  0
 23 21  2  0
M  END
$$$$
