DLC.pdb
     RDKit          3D

 23 22  0  0  1  0  0  0  0  0999 V2000
   20.5706  -12.5416  -17.4581 N   0  0  0  0  0  0  0  0  0  0  0  0
   20.9464  -11.2457  -17.9339 C   0  0  1  0  0  0  0  0  0  0  0  0
   19.7628  -10.5175  -18.4696 C   0  0  0  0  0  0  0  0  0  0  0  0
   19.3346  -11.1392  -19.7412 C   0  0  0  0  0  0  0  0  0  0  0  0
   20.2020  -11.6359  -20.4976 O   0  0  0  0  0  0  0  0  0  0  0  0
   21.5884  -10.4212  -16.8573 C   0  0  0  0  0  0  0  0  0  0  0  0
   21.1217  -10.4211  -15.6891 O   0  0  0  0  0  0  0  0  0  0  0  0
   17.9953  -11.1687  -20.0847 O   0  0  0  0  0  0  0  0  0  0  0  0
   26.7739  -10.4526  -15.8983 C   0  0  0  0  0  0  0  0  0  0  0  0
   25.2816  -10.2726  -15.6479 C   0  0  1  0  0  0  0  0  0  0  0  0
   25.1651  -10.2331  -14.1075 C   0  0  0  0  0  0  0  0  0  0  0  0
   24.7659   -8.9783  -16.1320 C   0  0  0  0  0  0  0  0  0  0  0  0
   23.2959   -8.7351  -16.0569 C   0  0  2  0  0  0  0  0  0  0  0  0
   22.7260   -9.6224  -17.1040 N   0  0  0  0  0  0  0  0  0  0  0  0
   22.8574   -7.3786  -16.3912 C   0  0  0  0  0  0  0  0  0  0  0  0
   23.0753   -6.8876  -17.5300 O   0  0  0  0  0  0  0  0  0  0  0  0
   22.1749   -6.5617  -15.4678 N   0  0  0  0  0  0  0  0  0  0  0  0
   21.6454   -5.2634  -15.8334 C   0  0  1  0  0  0  0  0  0  0  0  0
   20.2408   -5.0620  -15.3073 C   0  0  0  0  0  0  0  0  0  0  0  0
   19.1853   -6.3747  -15.9776 S   0  0  0  0  0  0  0  0  0  0  0  0
   22.4974   -4.1891  -15.2646 C   0  0  0  0  0  0  0  0  0  0  0  0
   22.2998   -2.8683  -15.6074 O   0  0  0  0  0  0  0  0  0  0  0  0
   23.4129   -4.4864  -14.4585 O   0  0  0  0  0  0  0  0  0  0  0  0
  2  1  1  1
  3  2  1  0
  3  4  1  0
  4  5  2  0
  4  8  1  0
  6  2  1  0
  7  6  2  0
 10  9  1  1
 10 12  1  0
 11 10  1  0
 13 12  1  6
 13 14  1  0
 14  6  1  0
 15 13  1  0
 15 17  1  0
 16 15  2  0
 18 17  1  0
 18 21  1  0
 18 19  1  1
 20 19  1  0
 21 22  1  0
 23 21  2  0
M  END
$$$$
