DLC.pdb
     RDKit          3D

 23 22  0  0  1  0  0  0  0  0999 V2000
   17.4623  -10.6843  -15.8245 N   0  0  0  0  0  0  0  0  0  0  0  0
   18.3506   -9.6253  -16.1935 C   0  0  1  0  0  0  0  0  0  0  0  0
   17.5857   -8.4162  -16.6073 C   0  0  0  0  0  0  0  0  0  0  0  0
   17.6425   -8.2756  -18.0783 C   0  0  0  0  0  0  0  0  0  0  0  0
   18.7352   -7.9856  -18.6198 O   0  0  0  0  0  0  0  0  0  0  0  0
   19.2809   -9.2625  -15.0737 C   0  0  0  0  0  0  0  0  0  0  0  0
   18.9288   -9.4159  -13.8758 O   0  0  0  0  0  0  0  0  0  0  0  0
   16.5030   -8.4627  -18.8394 O   0  0  0  0  0  0  0  0  0  0  0  0
   24.2901  -10.9070  -15.2215 C   0  0  0  0  0  0  0  0  0  0  0  0
   22.9263  -10.4509  -14.7175 C   0  0  1  0  0  0  0  0  0  0  0  0
   22.8698  -10.9799  -13.2666 C   0  0  0  0  0  0  0  0  0  0  0  0
   22.8051   -8.9838  -14.6245 C   0  0  0  0  0  0  0  0  0  0  0  0
   21.4956   -8.4125  -14.1952 C   0  0  2  0  0  0  0  0  0  0  0  0
   20.5713   -8.7414  -15.3114 N   0  0  0  0  0  0  0  0  0  0  0  0
   21.4539   -6.9562  -14.0488 C   0  0  0  0  0  0  0  0  0  0  0  0
   22.1414   -6.3716  -13.1707 O   0  0  0  0  0  0  0  0  0  0  0  0
   20.6536   -6.1417  -14.8745 N   0  0  0  0  0  0  0  0  0  0  0  0
   20.6919   -4.6952  -14.7981 C   0  0  1  0  0  0  0  0  0  0  0  0
   21.7739   -4.1152  -15.6831 C   0  0  0  0  0  0  0  0  0  0  0  0
   23.1798   -3.6498  -14.6374 S   0  0  0  0  0  0  0  0  0  0  0  0
   19.3942   -4.1287  -15.2437 C   0  0  0  0  0  0  0  0  0  0  0  0
   19.1160   -2.7863  -15.0956 O   0  0  0  0  0  0  0  0  0  0  0  0
   18.5354   -4.8825  -15.7637 O   0  0  0  0  0  0  0  0  0  0  0  0
  2  1  1  1
  3  2  1  0
  3  4  1  0
  4  5  2  0
  4  8  1  0
  6  2  1  0
  7  6  2  0
 10  9  1  1
 10 12  1  0
 11 10  1  0
 13 12  1  6
 13 14  1  0
 14  6  1  0
 15 13  1  0
 15 17  1  0
 16 15  2  0
 18 17  1  0
 18 21  1  0
 18 19  1  6
 20 19  1  0
 21 22  1  0
 23 21  2  0
M  END
$$$$
