DLC.pdb
     RDKit          3D

 23 22  0  0  1  0  0  0  0  0999 V2000
   18.8283  -12.9550  -18.7959 N   0  0  0  0  0  0  0  0  0  0  0  0
   19.8092  -11.9252  -18.9509 C   0  0  1  0  0  0  0  0  0  0  0  0
   19.4929  -11.0691  -20.1279 C   0  0  0  0  0  0  0  0  0  0  0  0
   19.6136  -11.8683  -21.3662 C   0  0  0  0  0  0  0  0  0  0  0  0
   20.1775  -12.9867  -21.3157 O   0  0  0  0  0  0  0  0  0  0  0  0
   19.9114  -11.0639  -17.7265 C   0  0  0  0  0  0  0  0  0  0  0  0
   18.8874  -10.7972  -17.0462 O   0  0  0  0  0  0  0  0  0  0  0  0
   19.1096  -11.3830  -22.5592 O   0  0  0  0  0  0  0  0  0  0  0  0
   22.2277   -9.5131  -13.0850 C   0  0  0  0  0  0  0  0  0  0  0  0
   23.0684   -9.2820  -14.3347 C   0  0  1  0  0  0  0  0  0  0  0  0
   24.4470   -9.8781  -13.9712 C   0  0  0  0  0  0  0  0  0  0  0  0
   22.5878  -10.0421  -15.5038 C   0  0  0  0  0  0  0  0  0  0  0  0
   21.2391   -9.7128  -16.0501 C   0  0  2  0  0  0  0  0  0  0  0  0
   21.1410  -10.5240  -17.2914 N   0  0  0  0  0  0  0  0  0  0  0  0
   21.0403   -8.3206  -16.4579 C   0  0  0  0  0  0  0  0  0  0  0  0
   21.7364   -7.8057  -17.3721 O   0  0  0  0  0  0  0  0  0  0  0  0
   20.0697   -7.4942  -15.8574 N   0  0  0  0  0  0  0  0  0  0  0  0
   19.8464   -6.1295  -16.2905 C   0  0  1  0  0  0  0  0  0  0  0  0
   18.5779   -6.0003  -17.1058 C   0  0  0  0  0  0  0  0  0  0  0  0
   17.2155   -6.7387  -16.1651 S   0  0  0  0  0  0  0  0  0  0  0  0
   19.7164   -5.2374  -15.1112 C   0  0  0  0  0  0  0  0  0  0  0  0
   19.5556   -3.8764  -15.2635 O   0  0  0  0  0  0  0  0  0  0  0  0
   19.7533   -5.7284  -13.9563 O   0  0  0  0  0  0  0  0  0  0  0  0
  2  1  1  1
  3  2  1  0
  3  4  1  0
  4  5  2  0
  4  8  1  0
  6  2  1  0
  7  6  2  0
 10  9  1  1
 10 12  1  0
 11 10  1  0
 13 12  1  6
 13 14  1  0
 14  6  1  0
 15 13  1  0
 15 17  1  0
 16 15  2  0
 18 17  1  0
 18 21  1  0
 18 19  1  1
 20 19  1  0
 21 22  1  0
 23 21  2  0
M  END
$$$$
