DLC.pdb
     RDKit          3D

 23 22  0  0  1  0  0  0  0  0999 V2000
   27.0275  -21.2984  -17.1216 N   0  0  0  0  0  0  0  0  0  0  0  0
   25.9885  -20.3965  -16.7295 C   0  0  1  0  0  0  0  0  0  0  0  0
   25.1580  -20.0074  -17.9031 C   0  0  0  0  0  0  0  0  0  0  0  0
   25.5842  -18.6778  -18.3902 C   0  0  0  0  0  0  0  0  0  0  0  0
   26.3955  -18.0107  -17.7060 O   0  0  0  0  0  0  0  0  0  0  0  0
   25.1039  -20.9907  -15.6733 C   0  0  0  0  0  0  0  0  0  0  0  0
   24.7037  -22.1793  -15.7700 O   0  0  0  0  0  0  0  0  0  0  0  0
   25.0910  -18.1834  -19.5840 O   0  0  0  0  0  0  0  0  0  0  0  0
   26.3759  -20.7309  -10.4924 C   0  0  0  0  0  0  0  0  0  0  0  0
   25.7860  -21.2097  -11.8133 C   0  0  1  0  0  0  0  0  0  0  0  0
   25.3309  -22.6561  -11.5149 C   0  0  0  0  0  0  0  0  0  0  0  0
   24.5718  -20.4701  -12.2063 C   0  0  0  0  0  0  0  0  0  0  0  0
   23.8782  -20.8753  -13.4635 C   0  0  2  0  0  0  0  0  0  0  0  0
   24.6886  -20.2538  -14.5430 N   0  0  0  0  0  0  0  0  0  0  0  0
   22.5165  -20.3641  -13.6321 C   0  0  0  0  0  0  0  0  0  0  0  0
   22.2928  -19.1280  -13.7192 O   0  0  0  0  0  0  0  0  0  0  0  0
   21.3983  -21.2183  -13.7070 N   0  0  0  0  0  0  0  0  0  0  0  0
   20.0475  -20.7086  -13.8309 C   0  0  1  0  0  0  0  0  0  0  0  0
   19.2822  -21.4099  -14.9323 C   0  0  0  0  0  0  0  0  0  0  0  0
   17.5854  -20.7718  -14.9456 S   0  0  0  0  0  0  0  0  0  0  0  0
   19.3065  -20.9207  -12.5623 C   0  0  0  0  0  0  0  0  0  0  0  0
   18.5197  -19.9249  -12.0234 O   0  0  0  0  0  0  0  0  0  0  0  0
   19.3965  -22.0238  -11.9696 O   0  0  0  0  0  0  0  0  0  0  0  0
  2  1  1  6
  3  2  1  0
  3  4  1  0
  4  5  2  0
  4  8  1  0
  6  2  1  0
  7  6  2  0
 10  9  1  1
 10 12  1  0
 11 10  1  0
 13 12  1  1
 13 14  1  0
 14  6  1  0
 15 13  1  0
 15 17  1  0
 16 15  2  0
 18 17  1  0
 18 21  1  0
 18 19  1  6
 20 19  1  0
 21 22  1  0
 23 21  2  0
M  END
$$$$
