DLC.pdb
     RDKit          3D

 23 22  0  0  1  0  0  0  0  0999 V2000
   21.2091  -13.2792  -16.9636 N   0  0  0  0  0  0  0  0  0  0  0  0
   21.2075  -11.9500  -17.4926 C   0  0  1  0  0  0  0  0  0  0  0  0
   19.8150  -11.4829  -17.7398 C   0  0  0  0  0  0  0  0  0  0  0  0
   19.1976  -12.3098  -18.7989 C   0  0  0  0  0  0  0  0  0  0  0  0
   19.9127  -12.7236  -19.7417 O   0  0  0  0  0  0  0  0  0  0  0  0
   21.8973  -10.9840  -16.5749 C   0  0  0  0  0  0  0  0  0  0  0  0
   21.5648  -10.9049  -15.3643 O   0  0  0  0  0  0  0  0  0  0  0  0
   17.8506  -12.6184  -18.7440 O   0  0  0  0  0  0  0  0  0  0  0  0
   27.2071  -10.5548  -16.7593 C   0  0  0  0  0  0  0  0  0  0  0  0
   25.7940  -10.5351  -16.1893 C   0  0  1  0  0  0  0  0  0  0  0  0
   26.0100  -10.5370  -14.6592 C   0  0  0  0  0  0  0  0  0  0  0  0
   25.0627   -9.2922  -16.4992 C   0  0  0  0  0  0  0  0  0  0  0  0
   23.6285   -9.2022  -16.0985 C   0  0  2  0  0  0  0  0  0  0  0  0
   22.9329  -10.1354  -17.0225 N   0  0  0  0  0  0  0  0  0  0  0  0
   22.9955   -7.8955  -16.2883 C   0  0  0  0  0  0  0  0  0  0  0  0
   22.5738   -7.5362  -17.4190 O   0  0  0  0  0  0  0  0  0  0  0  0
   22.8252   -6.9832  -15.2280 N   0  0  0  0  0  0  0  0  0  0  0  0
   22.1250   -5.7261  -15.3994 C   0  0  1  0  0  0  0  0  0  0  0  0
   20.6606   -5.9385  -15.7172 C   0  0  0  0  0  0  0  0  0  0  0  0
   19.8455   -4.3200  -15.7670 S   0  0  0  0  0  0  0  0  0  0  0  0
   22.2034   -4.9270  -14.1509 C   0  0  0  0  0  0  0  0  0  0  0  0
   22.0347   -3.5587  -14.1707 O   0  0  0  0  0  0  0  0  0  0  0  0
   22.4268   -5.5048  -13.0589 O   0  0  0  0  0  0  0  0  0  0  0  0
  2  1  1  1
  3  2  1  0
  3  4  1  0
  4  5  2  0
  4  8  1  0
  6  2  1  0
  7  6  2  0
 10  9  1  6
 10 12  1  0
 11 10  1  0
 13 12  1  6
 13 14  1  0
 14  6  1  0
 15 13  1  0
 15 17  1  0
 16 15  2  0
 18 17  1  0
 18 21  1  0
 18 19  1  1
 20 19  1  0
 21 22  1  0
 23 21  2  0
M  END
$$$$
