DLC.pdb
     RDKit          3D

 23 22  0  0  1  0  0  0  0  0999 V2000
   23.4246  -21.1217  -12.3153 N   0  0  0  0  0  0  0  0  0  0  0  0
   22.6374  -20.7559  -13.4525 C   0  0  1  0  0  0  0  0  0  0  0  0
   21.1853  -20.8001  -13.1244 C   0  0  0  0  0  0  0  0  0  0  0  0
   20.7449  -22.2080  -13.0226 C   0  0  0  0  0  0  0  0  0  0  0  0
   21.3315  -23.0797  -13.7063 O   0  0  0  0  0  0  0  0  0  0  0  0
   22.9888  -19.3870  -13.9566 C   0  0  0  0  0  0  0  0  0  0  0  0
   23.0042  -18.4027  -13.1736 O   0  0  0  0  0  0  0  0  0  0  0  0
   19.7006  -22.5513  -12.1834 O   0  0  0  0  0  0  0  0  0  0  0  0
   27.6286  -18.2122  -15.8015 C   0  0  0  0  0  0  0  0  0  0  0  0
   26.2480  -17.9143  -15.2295 C   0  0  1  0  0  0  0  0  0  0  0  0
   26.3160  -16.4167  -14.8543 C   0  0  0  0  0  0  0  0  0  0  0  0
   25.1693  -18.0388  -16.2277 C   0  0  0  0  0  0  0  0  0  0  0  0
   23.7653  -17.8118  -15.7772 C   0  0  2  0  0  0  0  0  0  0  0  0
   23.3123  -19.1478  -15.3098 N   0  0  0  0  0  0  0  0  0  0  0  0
   22.8207  -17.4041  -16.8192 C   0  0  0  0  0  0  0  0  0  0  0  0
   22.5758  -18.1515  -17.8024 O   0  0  0  0  0  0  0  0  0  0  0  0
   22.1425  -16.1697  -16.7758 N   0  0  0  0  0  0  0  0  0  0  0  0
   21.2340  -15.7535  -17.8252 C   0  0  1  0  0  0  0  0  0  0  0  0
   20.0731  -14.9521  -17.2768 C   0  0  0  0  0  0  0  0  0  0  0  0
   19.1935  -15.9747  -16.0657 S   0  0  0  0  0  0  0  0  0  0  0  0
   21.9484  -14.8980  -18.8055 C   0  0  0  0  0  0  0  0  0  0  0  0
   21.3196  -14.4468  -19.9467 O   0  0  0  0  0  0  0  0  0  0  0  0
   23.1442  -14.5793  -18.5935 O   0  0  0  0  0  0  0  0  0  0  0  0
  2  1  1  1
  3  2  1  0
  3  4  1  0
  4  5  2  0
  4  8  1  0
  6  2  1  0
  7  6  2  0
 10  9  1  6
 10 12  1  0
 11 10  1  0
 13 12  1  6
 13 14  1  0
 14  6  1  0
 15 13  1  0
 15 17  1  0
 16 15  2  0
 18 17  1  0
 18 21  1  0
 18 19  1  1
 20 19  1  0
 21 22  1  0
 23 21  2  0
M  END
$$$$
