DLC.pdb
     RDKit          3D

 23 22  0  0  1  0  0  0  0  0999 V2000
   22.9775  -14.6742  -18.7553 N   0  0  0  0  0  0  0  0  0  0  0  0
   22.9787  -13.3054  -19.1712 C   0  0  1  0  0  0  0  0  0  0  0  0
   21.7181  -12.9723  -19.8911 C   0  0  0  0  0  0  0  0  0  0  0  0
   21.7608  -13.5468  -21.2530 C   0  0  0  0  0  0  0  0  0  0  0  0
   22.4266  -12.9614  -22.1394 O   0  0  0  0  0  0  0  0  0  0  0  0
   23.1466  -12.3702  -18.0100 C   0  0  0  0  0  0  0  0  0  0  0  0
   22.4180  -12.4806  -16.9906 O   0  0  0  0  0  0  0  0  0  0  0  0
   21.0741  -14.7129  -21.5380 O   0  0  0  0  0  0  0  0  0  0  0  0
   28.0973  -10.6472  -16.6880 C   0  0  0  0  0  0  0  0  0  0  0  0
   26.6482  -11.0960  -16.5439 C   0  0  1  0  0  0  0  0  0  0  0  0
   26.4989  -11.3921  -15.0346 C   0  0  0  0  0  0  0  0  0  0  0  0
   25.6786  -10.0277  -16.8507 C   0  0  0  0  0  0  0  0  0  0  0  0
   24.2297  -10.3816  -16.8824 C   0  0  2  0  0  0  0  0  0  0  0  0
   24.1140  -11.3420  -18.0106 N   0  0  0  0  0  0  0  0  0  0  0  0
   23.3126   -9.2821  -17.1893 C   0  0  0  0  0  0  0  0  0  0  0  0
   23.3472   -8.6996  -18.3051 O   0  0  0  0  0  0  0  0  0  0  0  0
   22.3533   -8.8247  -16.2640 N   0  0  0  0  0  0  0  0  0  0  0  0
   21.4784   -7.7061  -16.5520 C   0  0  1  0  0  0  0  0  0  0  0  0
   20.0447   -8.1506  -16.7455 C   0  0  0  0  0  0  0  0  0  0  0  0
   18.9923   -6.6759  -16.8095 S   0  0  0  0  0  0  0  0  0  0  0  0
   21.5020   -6.7399  -15.4253 C   0  0  0  0  0  0  0  0  0  0  0  0
   22.0944   -7.0639  -14.2231 O   0  0  0  0  0  0  0  0  0  0  0  0
   20.9746   -5.6095  -15.5678 O   0  0  0  0  0  0  0  0  0  0  0  0
  2  1  1  1
  3  2  1  0
  3  4  1  0
  4  5  2  0
  4  8  1  0
  6  2  1  0
  7  6  2  0
 10  9  1  1
 10 12  1  0
 11 10  1  0
 13 12  1  6
 13 14  1  0
 14  6  1  0
 15 13  1  0
 15 17  1  0
 16 15  2  0
 18 17  1  0
 18 21  1  0
 18 19  1  1
 20 19  1  0
 21 22  1  0
 23 21  2  0
M  END
$$$$
