DLC.pdb
     RDKit          3D

 23 22  0  0  1  0  0  0  0  0999 V2000
   26.9113  -25.1302  -16.7940 N   0  0  0  0  0  0  0  0  0  0  0  0
   26.1423  -23.9692  -17.1222 C   0  0  1  0  0  0  0  0  0  0  0  0
   25.2691  -24.2312  -18.3000 C   0  0  0  0  0  0  0  0  0  0  0  0
   24.5624  -22.9881  -18.6768 C   0  0  0  0  0  0  0  0  0  0  0  0
   23.3111  -22.9987  -18.7513 O   0  0  0  0  0  0  0  0  0  0  0  0
   25.2949  -23.5177  -15.9693 C   0  0  0  0  0  0  0  0  0  0  0  0
   24.4783  -24.3075  -15.4292 O   0  0  0  0  0  0  0  0  0  0  0  0
   25.2776  -21.8344  -18.9418 O   0  0  0  0  0  0  0  0  0  0  0  0
   27.7071  -20.5060  -12.1856 C   0  0  0  0  0  0  0  0  0  0  0  0
   26.7564  -21.5321  -12.7902 C   0  0  1  0  0  0  0  0  0  0  0  0
   26.1588  -22.2547  -11.5619 C   0  0  0  0  0  0  0  0  0  0  0  0
   25.6181  -20.9183  -13.4996 C   0  0  0  0  0  0  0  0  0  0  0  0
   24.6610  -21.8196  -14.2048 C   0  0  2  0  0  0  0  0  0  0  0  0
   25.3755  -22.2080  -15.4486 N   0  0  0  0  0  0  0  0  0  0  0  0
   23.4043  -21.2026  -14.6340 C   0  0  0  0  0  0  0  0  0  0  0  0
   23.3977  -20.2341  -15.4386 O   0  0  0  0  0  0  0  0  0  0  0  0
   22.1511  -21.6561  -14.1763 N   0  0  0  0  0  0  0  0  0  0  0  0
   20.9153  -20.9852  -14.5261 C   0  0  1  0  0  0  0  0  0  0  0  0
   19.7578  -21.9555  -14.6212 C   0  0  0  0  0  0  0  0  0  0  0  0
   18.2347  -21.0059  -14.8755 S   0  0  0  0  0  0  0  0  0  0  0  0
   20.5741  -19.9774  -13.4911 C   0  0  0  0  0  0  0  0  0  0  0  0
   20.0479  -18.7512  -13.8387 O   0  0  0  0  0  0  0  0  0  0  0  0
   20.7670  -20.2443  -12.2796 O   0  0  0  0  0  0  0  0  0  0  0  0
  2  1  1  1
  3  2  1  0
  3  4  1  0
  4  5  2  0
  4  8  1  0
  6  2  1  0
  7  6  2  0
 10  9  1  1
 10 12  1  0
 11 10  1  0
 13 12  1  6
 13 14  1  0
 14  6  1  0
 15 13  1  0
 15 17  1  0
 16 15  2  0
 18 17  1  0
 18 21  1  0
 18 19  1  1
 20 19  1  0
 21 22  1  0
 23 21  2  0
M  END
$$$$
