DLC.pdb
     RDKit          3D

 23 22  0  0  1  0  0  0  0  0999 V2000
   18.8032  -14.6588  -16.2938 N   0  0  0  0  0  0  0  0  0  0  0  0
   18.3910  -13.3273  -16.6161 C   0  0  1  0  0  0  0  0  0  0  0  0
   16.9103  -13.1968  -16.5220 C   0  0  0  0  0  0  0  0  0  0  0  0
   16.2711  -14.1261  -17.4783 C   0  0  0  0  0  0  0  0  0  0  0  0
   16.5053  -13.9950  -18.7028 O   0  0  0  0  0  0  0  0  0  0  0  0
   19.0347  -12.3118  -15.7185 C   0  0  0  0  0  0  0  0  0  0  0  0
   18.9638  -12.4288  -14.4680 O   0  0  0  0  0  0  0  0  0  0  0  0
   15.4283  -15.1231  -17.0217 O   0  0  0  0  0  0  0  0  0  0  0  0
   22.7318   -9.5348  -13.3160 C   0  0  0  0  0  0  0  0  0  0  0  0
   22.6805   -9.3612  -14.8290 C   0  0  1  0  0  0  0  0  0  0  0  0
   24.1155   -9.7006  -15.2913 C   0  0  0  0  0  0  0  0  0  0  0  0
   21.7940  -10.3352  -15.4931 C   0  0  0  0  0  0  0  0  0  0  0  0
   20.3203  -10.1678  -15.3325 C   0  0  2  0  0  0  0  0  0  0  0  0
   19.7367  -11.1988  -16.2296 N   0  0  0  0  0  0  0  0  0  0  0  0
   19.7733   -8.8847  -15.7781 C   0  0  0  0  0  0  0  0  0  0  0  0
   19.8424   -8.5333  -16.9853 O   0  0  0  0  0  0  0  0  0  0  0  0
   19.1465   -7.9874  -14.8907 N   0  0  0  0  0  0  0  0  0  0  0  0
   18.6119   -6.7152  -15.3328 C   0  0  1  0  0  0  0  0  0  0  0  0
   17.4015   -6.3036  -14.5230 C   0  0  0  0  0  0  0  0  0  0  0  0
   16.1076   -7.5522  -14.7533 S   0  0  0  0  0  0  0  0  0  0  0  0
   19.6377   -5.6531  -15.1806 C   0  0  0  0  0  0  0  0  0  0  0  0
   19.3924   -4.3625  -15.5996 O   0  0  0  0  0  0  0  0  0  0  0  0
   20.7465   -5.9327  -14.6625 O   0  0  0  0  0  0  0  0  0  0  0  0
  2  1  1  1
  3  2  1  0
  3  4  1  0
  4  5  2  0
  4  8  1  0
  6  2  1  0
  7  6  2  0
 10  9  1  1
 10 12  1  0
 11 10  1  0
 13 12  1  6
 13 14  1  0
 14  6  1  0
 15 13  1  0
 15 17  1  0
 16 15  2  0
 18 17  1  0
 18 21  1  0
 18 19  1  1
 20 19  1  0
 21 22  1  0
 23 21  2  0
M  END
$$$$
