DLC.pdb
     RDKit          3D

 23 22  0  0  1  0  0  0  0  0999 V2000
   13.3637  -12.9648  -13.4167 N   0  0  0  0  0  0  0  0  0  0  0  0
   14.4975  -12.1709  -13.0550 C   0  0  1  0  0  0  0  0  0  0  0  0
   15.4990  -12.1494  -14.1572 C   0  0  0  0  0  0  0  0  0  0  0  0
   16.0394  -13.5108  -14.3599 C   0  0  0  0  0  0  0  0  0  0  0  0
   15.9509  -14.0377  -15.4939 O   0  0  0  0  0  0  0  0  0  0  0  0
   14.1065  -10.7629  -12.7148 C   0  0  0  0  0  0  0  0  0  0  0  0
   13.1049  -10.2295  -13.2576 O   0  0  0  0  0  0  0  0  0  0  0  0
   16.6325  -14.1873  -13.3095 O   0  0  0  0  0  0  0  0  0  0  0  0
   12.5036   -6.8069   -9.7424 C   0  0  0  0  0  0  0  0  0  0  0  0
   13.8997   -7.2871   -9.3652 C   0  0  1  0  0  0  0  0  0  0  0  0
   13.7969   -7.5770   -7.8508 C   0  0  0  0  0  0  0  0  0  0  0  0
   14.2639   -8.5657  -10.0041 C   0  0  0  0  0  0  0  0  0  0  0  0
   14.4589   -8.5817  -11.4831 C   0  0  2  0  0  0  0  0  0  0  0  0
   14.8337   -9.9876  -11.7858 N   0  0  0  0  0  0  0  0  0  0  0  0
   15.5535   -7.7514  -11.9897 C   0  0  0  0  0  0  0  0  0  0  0  0
   16.7418   -7.9487  -11.6230 O   0  0  0  0  0  0  0  0  0  0  0  0
   15.3377   -6.7019  -12.9049 N   0  0  0  0  0  0  0  0  0  0  0  0
   16.4306   -5.9359  -13.4692 C   0  0  1  0  0  0  0  0  0  0  0  0
   16.5884   -6.1926  -14.9523 C   0  0  0  0  0  0  0  0  0  0  0  0
   17.0308   -7.9348  -15.1875 S   0  0  0  0  0  0  0  0  0  0  0  0
   16.1800   -4.4842  -13.2877 C   0  0  0  0  0  0  0  0  0  0  0  0
   17.1624   -3.5541  -13.5547 O   0  0  0  0  0  0  0  0  0  0  0  0
   15.0563   -4.0954  -12.8848 O   0  0  0  0  0  0  0  0  0  0  0  0
  2  1  1  6
  3  2  1  0
  3  4  1  0
  4  5  2  0
  4  8  1  0
  6  2  1  0
  7  6  2  0
 10  9  1  6
 10 12  1  0
 11 10  1  0
 13 12  1  1
 13 14  1  0
 14  6  1  0
 15 13  1  0
 15 17  1  0
 16 15  2  0
 18 17  1  0
 18 21  1  0
 18 19  1  6
 20 19  1  0
 21 22  1  0
 23 21  2  0
M  END
$$$$
