DLC.pdb
     RDKit          3D

 23 22  0  0  1  0  0  0  0  0999 V2000
   19.3033  -22.7852  -12.1664 N   0  0  0  0  0  0  0  0  0  0  0  0
   19.2615  -21.7558  -13.1591 C   0  0  1  0  0  0  0  0  0  0  0  0
   18.1933  -20.7659  -12.8469 C   0  0  0  0  0  0  0  0  0  0  0  0
   16.8966  -21.4643  -12.7143 C   0  0  0  0  0  0  0  0  0  0  0  0
   16.4048  -21.6220  -11.5721 O   0  0  0  0  0  0  0  0  0  0  0  0
   20.5763  -21.0430  -13.2786 C   0  0  0  0  0  0  0  0  0  0  0  0
   20.6469  -19.9251  -13.8510 O   0  0  0  0  0  0  0  0  0  0  0  0
   16.2413  -21.9339  -13.8381 O   0  0  0  0  0  0  0  0  0  0  0  0
   25.8343  -19.9506  -11.6140 C   0  0  0  0  0  0  0  0  0  0  0  0
   25.4366  -21.3432  -12.0881 C   0  0  1  0  0  0  0  0  0  0  0  0
   26.1174  -22.2899  -11.0741 C   0  0  0  0  0  0  0  0  0  0  0  0
   23.9880  -21.5991  -11.9802 C   0  0  0  0  0  0  0  0  0  0  0  0
   23.0774  -20.8959  -12.9299 C   0  0  2  0  0  0  0  0  0  0  0  0
   21.7725  -21.5869  -12.7625 N   0  0  0  0  0  0  0  0  0  0  0  0
   23.4215  -21.0156  -14.3482 C   0  0  0  0  0  0  0  0  0  0  0  0
   23.3810  -22.1291  -14.9346 O   0  0  0  0  0  0  0  0  0  0  0  0
   23.8095  -19.9042  -15.1226 N   0  0  0  0  0  0  0  0  0  0  0  0
   24.1724  -20.0288  -16.5199 C   0  0  1  0  0  0  0  0  0  0  0  0
   23.1981  -19.2997  -17.4196 C   0  0  0  0  0  0  0  0  0  0  0  0
   23.8461  -19.3353  -19.1123 S   0  0  0  0  0  0  0  0  0  0  0  0
   25.5185  -19.4465  -16.7487 C   0  0  0  0  0  0  0  0  0  0  0  0
   26.2570  -19.7795  -17.8645 O   0  0  0  0  0  0  0  0  0  0  0  0
   25.9936  -18.6380  -15.9139 O   0  0  0  0  0  0  0  0  0  0  0  0
  2  1  1  1
  3  2  1  0
  3  4  1  0
  4  5  2  0
  4  8  1  0
  6  2  1  0
  7  6  2  0
 10  9  1  1
 10 12  1  0
 11 10  1  0
 13 12  1  1
 13 14  1  0
 14  6  1  0
 15 13  1  0
 15 17  1  0
 16 15  2  0
 18 17  1  0
 18 21  1  0
 18 19  1  6
 20 19  1  0
 21 22  1  0
 23 21  2  0
M  END
$$$$
