DLC.pdb
     RDKit          3D

 23 22  0  0  1  0  0  0  0  0999 V2000
   18.6647  -11.3014  -17.5739 N   0  0  0  0  0  0  0  0  0  0  0  0
   19.5278  -10.2958  -18.1129 C   0  0  1  0  0  0  0  0  0  0  0  0
   18.8612   -9.5740  -19.2322 C   0  0  0  0  0  0  0  0  0  0  0  0
   18.7760  -10.4624  -20.4113 C   0  0  0  0  0  0  0  0  0  0  0  0
   19.4677  -11.5076  -20.4365 O   0  0  0  0  0  0  0  0  0  0  0  0
   19.9503   -9.3054  -17.0680 C   0  0  0  0  0  0  0  0  0  0  0  0
   19.1171   -8.8573  -16.2389 O   0  0  0  0  0  0  0  0  0  0  0  0
   17.9435  -10.1390  -21.4672 O   0  0  0  0  0  0  0  0  0  0  0  0
   24.6010   -9.9337  -14.5016 C   0  0  0  0  0  0  0  0  0  0  0  0
   23.1566   -9.5426  -14.7898 C   0  0  1  0  0  0  0  0  0  0  0  0
   22.5523   -9.2931  -13.3896 C   0  0  0  0  0  0  0  0  0  0  0  0
   23.0377   -8.2674  -15.5215 C   0  0  0  0  0  0  0  0  0  0  0  0
   21.6791   -7.8308  -15.9565 C   0  0  2  0  0  0  0  0  0  0  0  0
   21.2797   -8.8404  -16.9712 N   0  0  0  0  0  0  0  0  0  0  0  0
   21.6130   -6.5314  -16.6283 C   0  0  0  0  0  0  0  0  0  0  0  0
   22.1001   -6.3691  -17.7781 O   0  0  0  0  0  0  0  0  0  0  0  0
   21.0063   -5.4082  -16.0317 N   0  0  0  0  0  0  0  0  0  0  0  0
   20.8059   -4.1677  -16.7533 C   0  0  1  0  0  0  0  0  0  0  0  0
   19.9234   -4.3613  -17.9675 C   0  0  0  0  0  0  0  0  0  0  0  0
   20.9648   -4.8941  -19.3524 S   0  0  0  0  0  0  0  0  0  0  0  0
   20.1484   -3.1692  -15.8735 C   0  0  0  0  0  0  0  0  0  0  0  0
   20.1685   -1.8258  -16.1835 O   0  0  0  0  0  0  0  0  0  0  0  0
   19.5643   -3.5524  -14.8303 O   0  0  0  0  0  0  0  0  0  0  0  0
  2  1  1  1
  3  2  1  0
  3  4  1  0
  4  5  2  0
  4  8  1  0
  6  2  1  0
  7  6  2  0
 10  9  1  1
 10 12  1  0
 11 10  1  0
 13 12  1  6
 13 14  1  0
 14  6  1  0
 15 13  1  0
 15 17  1  0
 16 15  2  0
 18 17  1  0
 18 21  1  0
 18 19  1  6
 20 19  1  0
 21 22  1  0
 23 21  2  0
M  END
$$$$
