DLC.pdb
     RDKit          3D

 23 22  0  0  1  0  0  0  0  0999 V2000
   26.7283  -19.8126  -15.9607 N   0  0  0  0  0  0  0  0  0  0  0  0
   26.6448  -21.2388  -15.8862 C   0  0  1  0  0  0  0  0  0  0  0  0
   27.9753  -21.8585  -16.1397 C   0  0  0  0  0  0  0  0  0  0  0  0
   28.4625  -21.4521  -17.4755 C   0  0  0  0  0  0  0  0  0  0  0  0
   27.7598  -20.6811  -18.1706 O   0  0  0  0  0  0  0  0  0  0  0  0
   26.1316  -21.6983  -14.5532 C   0  0  0  0  0  0  0  0  0  0  0  0
   26.0379  -22.9255  -14.2935 O   0  0  0  0  0  0  0  0  0  0  0  0
   29.6765  -21.9196  -17.9449 O   0  0  0  0  0  0  0  0  0  0  0  0
   25.7088  -19.6187   -8.9295 C   0  0  0  0  0  0  0  0  0  0  0  0
   25.7962  -20.8624   -9.8057 C   0  0  1  0  0  0  0  0  0  0  0  0
   24.3797  -21.4749   -9.7245 C   0  0  0  0  0  0  0  0  0  0  0  0
   26.0283  -20.5520  -11.2289 C   0  0  0  0  0  0  0  0  0  0  0  0
   25.1932  -21.2540  -12.2465 C   0  0  2  0  0  0  0  0  0  0  0  0
   25.7376  -20.7882  -13.5485 N   0  0  0  0  0  0  0  0  0  0  0  0
   23.7710  -20.9056  -12.2528 C   0  0  0  0  0  0  0  0  0  0  0  0
   23.1317  -20.7659  -11.1770 O   0  0  0  0  0  0  0  0  0  0  0  0
   23.0520  -20.7084  -13.4485 N   0  0  0  0  0  0  0  0  0  0  0  0
   21.6547  -20.3248  -13.4519 C   0  0  1  0  0  0  0  0  0  0  0  0
   21.3146  -19.4556  -14.6432 C   0  0  0  0  0  0  0  0  0  0  0  0
   22.2161  -17.8907  -14.4855 S   0  0  0  0  0  0  0  0  0  0  0  0
   20.7964  -21.5341  -13.5174 C   0  0  0  0  0  0  0  0  0  0  0  0
   21.3424  -22.7833  -13.7239 O   0  0  0  0  0  0  0  0  0  0  0  0
   19.5534  -21.4193  -13.3827 O   0  0  0  0  0  0  0  0  0  0  0  0
  2  1  1  1
  3  2  1  0
  3  4  1  0
  4  5  2  0
  4  8  1  0
  6  2  1  0
  7  6  2  0
 10  9  1  1
 10 12  1  0
 11 10  1  0
 13 12  1  1
 13 14  1  0
 14  6  1  0
 15 13  1  0
 15 17  1  0
 16 15  2  0
 18 17  1  0
 18 21  1  0
 18 19  1  6
 20 19  1  0
 21 22  1  0
 23 21  2  0
M  END
$$$$
