TCL.pdb
     RDKit          3D

 22 21  0  0  1  0  0  0  0  0999 V2000
   10.7234  -13.6466   17.4761 C   0  0  0  0  0  0  0  0  0  0  0  0
    9.9617  -13.9517   18.7235 C   0  0  1  0  0  0  0  0  0  0  0  0
    9.7806  -12.8035   19.5222 O   0  0  0  0  0  0  0  0  0  0  0  0
    8.6101  -14.5469   18.5009 C   0  0  2  0  0  0  0  0  0  0  0  0
    7.7241  -13.7025   17.7627 N   0  0  0  0  0  0  0  0  0  0  0  0
    8.0269  -14.9463   19.8260 C   0  0  0  0  0  0  0  0  0  0  0  0
    7.1279  -14.2650   20.3794 O   0  0  0  0  0  0  0  0  0  0  0  0
    8.4634  -16.1178   20.5228 N   0  0  0  0  0  0  0  0  0  0  0  0
    7.9037  -16.5288   21.7794 C   0  0  1  0  0  0  0  0  0  0  0  0
    8.0836  -17.9972   22.0602 C   0  0  0  0  0  0  0  0  0  0  0  0
    7.1809  -18.9917   20.8421 S   0  0  0  0  0  0  0  0  0  0  0  0
    8.3634  -15.6813   22.9104 C   0  0  0  0  0  0  0  0  0  0  0  0
    9.5634  -15.2792   22.9369 O   0  0  0  0  0  0  0  0  0  0  0  0
    7.7775  -11.5615   26.6645 C   0  0  0  0  0  0  0  0  0  0  0  0
    6.9186  -12.7696   26.7243 C   0  0  1  0  0  0  0  0  0  0  0  0
    5.5462  -12.3329   27.2688 C   0  0  0  0  0  0  0  0  0  0  0  0
    6.8031  -13.6593   25.5774 C   0  0  0  0  0  0  0  0  0  0  0  0
    7.9626  -14.4106   25.0759 C   0  0  2  0  0  0  0  0  0  0  0  0
    7.5254  -15.2994   23.9631 N   0  0  0  0  0  0  0  0  0  0  0  0
    8.5627  -15.3097   26.0307 C   0  0  0  0  0  0  0  0  0  0  0  0
    9.6906  -14.9861   26.7390 O   0  0  0  0  0  0  0  0  0  0  0  0
    8.0747  -16.4420   26.2482 O   0  0  0  0  0  0  0  0  0  0  0  0
  2  1  1  6
  2  3  1  0
  2  4  1  0
  4  5  1  1
  6  4  1  0
  7  6  2  0
  8  6  1  0
  9  8  1  0
  9 12  1  0
  9 10  1  1
 11 10  1  0
 12 19  1  0
 13 12  2  0
 15 14  1  6
 16 15  1  0
 17 15  1  0
 18 17  1  1
 18 20  1  0
 19 18  1  0
 20 21  1  0
 22 20  2  0
M  END
$$$$
