TCL.pdb
     RDKit          3D

 22 21  0  0  1  0  0  0  0  0999 V2000
   11.0192  -13.8558   20.4045 C   0  0  0  0  0  0  0  0  0  0  0  0
    9.9620  -13.1963   19.5819 C   0  0  1  0  0  0  0  0  0  0  0  0
   10.4821  -12.6729   18.3799 O   0  0  0  0  0  0  0  0  0  0  0  0
    8.8147  -14.0789   19.2140 C   0  0  2  0  0  0  0  0  0  0  0  0
    7.8661  -13.4570   18.3443 N   0  0  0  0  0  0  0  0  0  0  0  0
    8.1695  -14.5918   20.4695 C   0  0  0  0  0  0  0  0  0  0  0  0
    7.2998  -13.9223   21.0809 O   0  0  0  0  0  0  0  0  0  0  0  0
    8.5110  -15.8633   21.0308 N   0  0  0  0  0  0  0  0  0  0  0  0
    7.9817  -16.3283   22.2818 C   0  0  1  0  0  0  0  0  0  0  0  0
    8.0185  -17.8269   22.4243 C   0  0  0  0  0  0  0  0  0  0  0  0
    9.7245  -18.4023   22.6391 S   0  0  0  0  0  0  0  0  0  0  0  0
    8.5922  -15.6391   23.4484 C   0  0  0  0  0  0  0  0  0  0  0  0
    9.7780  -15.2045   23.3618 O   0  0  0  0  0  0  0  0  0  0  0  0
    5.5511  -12.3013   26.5758 C   0  0  0  0  0  0  0  0  0  0  0  0
    6.7098  -12.9332   25.8983 C   0  0  1  0  0  0  0  0  0  0  0  0
    7.6281  -11.8008   25.4032 C   0  0  0  0  0  0  0  0  0  0  0  0
    7.4520  -14.0093   26.5396 C   0  0  0  0  0  0  0  0  0  0  0  0
    8.5098  -14.7373   25.8242 C   0  0  2  0  0  0  0  0  0  0  0  0
    7.9134  -15.4428   24.6555 N   0  0  0  0  0  0  0  0  0  0  0  0
    9.1448  -15.7865   26.5833 C   0  0  0  0  0  0  0  0  0  0  0  0
   10.0885  -15.5325   27.5442 O   0  0  0  0  0  0  0  0  0  0  0  0
    8.8610  -16.9899   26.3862 O   0  0  0  0  0  0  0  0  0  0  0  0
  2  1  1  6
  2  3  1  0
  2  4  1  0
  4  5  1  1
  6  4  1  0
  7  6  2  0
  8  6  1  0
  9  8  1  0
  9 12  1  0
  9 10  1  1
 11 10  1  0
 12 19  1  0
 13 12  2  0
 15 14  1  1
 16 15  1  0
 17 15  1  0
 18 17  1  1
 18 20  1  0
 19 18  1  0
 20 21  1  0
 22 20  2  0
M  END
$$$$
