TCL.pdb
     RDKit          3D

 22 21  0  0  1  0  0  0  0  0999 V2000
   14.0961  -14.6454   19.3844 C   0  0  0  0  0  0  0  0  0  0  0  0
   12.8091  -14.8788   20.1045 C   0  0  1  0  0  0  0  0  0  0  0  0
   12.2069  -13.6694   20.5091 O   0  0  0  0  0  0  0  0  0  0  0  0
   11.7854  -15.6374   19.3252 C   0  0  2  0  0  0  0  0  0  0  0  0
   11.3873  -14.9896   18.1149 N   0  0  0  0  0  0  0  0  0  0  0  0
   10.6113  -15.9304   20.2147 C   0  0  0  0  0  0  0  0  0  0  0  0
    9.5097  -15.3461   20.0608 O   0  0  0  0  0  0  0  0  0  0  0  0
   10.6870  -16.8854   21.2779 N   0  0  0  0  0  0  0  0  0  0  0  0
    9.5888  -17.1516   22.1635 C   0  0  1  0  0  0  0  0  0  0  0  0
    9.4476  -18.6086   22.5167 C   0  0  0  0  0  0  0  0  0  0  0  0
    8.2617  -18.8212   23.8718 S   0  0  0  0  0  0  0  0  0  0  0  0
    9.6069  -16.2820   23.3685 C   0  0  0  0  0  0  0  0  0  0  0  0
   10.7081  -16.0447   23.9462 O   0  0  0  0  0  0  0  0  0  0  0  0
    7.6745  -11.9987   26.5091 C   0  0  0  0  0  0  0  0  0  0  0  0
    6.8528  -13.2119   26.2771 C   0  0  1  0  0  0  0  0  0  0  0  0
    5.3756  -12.7778   26.2913 C   0  0  0  0  0  0  0  0  0  0  0  0
    7.1546  -14.1172   25.1773 C   0  0  0  0  0  0  0  0  0  0  0  0
    8.4692  -14.7646   25.0619 C   0  0  2  0  0  0  0  0  0  0  0  0
    8.4522  -15.7033   23.9053 N   0  0  0  0  0  0  0  0  0  0  0  0
    8.8385  -15.5929   26.1833 C   0  0  0  0  0  0  0  0  0  0  0  0
    8.2556  -16.8098   26.4238 O   0  0  0  0  0  0  0  0  0  0  0  0
    9.7140  -15.2244   26.9990 O   0  0  0  0  0  0  0  0  0  0  0  0
  2  1  1  6
  2  3  1  0
  2  4  1  0
  4  5  1  6
  6  4  1  0
  7  6  2  0
  8  6  1  0
  9  8  1  0
  9 12  1  0
  9 10  1  1
 11 10  1  0
 12 19  1  0
 13 12  2  0
 15 14  1  6
 16 15  1  0
 17 15  1  0
 18 17  1  1
 18 20  1  0
 19 18  1  0
 20 21  1  0
 22 20  2  0
M  END
$$$$
