TCL.pdb
     RDKit          3D

 22 21  0  0  1  0  0  0  0  0999 V2000
   13.6343  -24.1388   17.7557 C   0  0  0  0  0  0  0  0  0  0  0  0
   13.1373  -23.0330   16.8842 C   0  0  1  0  0  0  0  0  0  0  0  0
   12.7238  -23.5052   15.6212 O   0  0  0  0  0  0  0  0  0  0  0  0
   11.9984  -22.2522   17.4532 C   0  0  2  0  0  0  0  0  0  0  0  0
   11.3999  -21.3468   16.5231 N   0  0  0  0  0  0  0  0  0  0  0  0
   12.4596  -21.5505   18.6983 C   0  0  0  0  0  0  0  0  0  0  0  0
   13.2100  -20.5441   18.6446 O   0  0  0  0  0  0  0  0  0  0  0  0
   12.0700  -21.9903   20.0033 N   0  0  0  0  0  0  0  0  0  0  0  0
   12.5794  -21.3977   21.2077 C   0  0  1  0  0  0  0  0  0  0  0  0
   11.5195  -21.1642   22.2516 C   0  0  0  0  0  0  0  0  0  0  0  0
   12.1989  -20.2273   23.6475 S   0  0  0  0  0  0  0  0  0  0  0  0
   13.7498  -22.1340   21.7523 C   0  0  0  0  0  0  0  0  0  0  0  0
   13.6673  -23.3842   21.9329 O   0  0  0  0  0  0  0  0  0  0  0  0
   18.9613  -21.5294   20.1569 C   0  0  0  0  0  0  0  0  0  0  0  0
   17.7236  -22.0745   20.7666 C   0  0  1  0  0  0  0  0  0  0  0  0
   17.7148  -23.5932   20.5128 C   0  0  0  0  0  0  0  0  0  0  0  0
   17.3565  -21.7386   22.1351 C   0  0  0  0  0  0  0  0  0  0  0  0
   16.0975  -22.2150   22.7253 C   0  0  2  0  0  0  0  0  0  0  0  0
   14.9563  -21.5070   22.0804 N   0  0  0  0  0  0  0  0  0  0  0  0
   15.9400  -21.9313   24.1306 C   0  0  0  0  0  0  0  0  0  0  0  0
   15.2633  -20.8311   24.5885 O   0  0  0  0  0  0  0  0  0  0  0  0
   16.4296  -22.6860   25.0015 O   0  0  0  0  0  0  0  0  0  0  0  0
  2  1  1  1
  2  3  1  0
  2  4  1  0
  4  5  1  6
  6  4  1  0
  7  6  2  0
  8  6  1  0
  9  8  1  0
  9 12  1  0
  9 10  1  1
 11 10  1  0
 12 19  1  0
 13 12  2  0
 15 14  1  1
 16 15  1  0
 17 15  1  0
 18 17  1  6
 18 20  1  0
 19 18  1  0
 20 21  1  0
 22 20  2  0
M  END
$$$$
