TCL.pdb
     RDKit          3D

 22 21  0  0  1  0  0  0  0  0999 V2000
    8.9999  -12.3198   17.9207 C   0  0  0  0  0  0  0  0  0  0  0  0
    8.5860  -13.3154   18.9536 C   0  0  1  0  0  0  0  0  0  0  0  0
    7.2008  -13.2584   19.2125 O   0  0  0  0  0  0  0  0  0  0  0  0
    8.9101  -14.7345   18.6193 C   0  0  2  0  0  0  0  0  0  0  0  0
    8.2809  -15.2022   17.4242 N   0  0  0  0  0  0  0  0  0  0  0  0
    8.5823  -15.6027   19.8001 C   0  0  0  0  0  0  0  0  0  0  0  0
    7.4918  -16.2221   19.8764 O   0  0  0  0  0  0  0  0  0  0  0  0
    9.4908  -15.7678   20.8935 N   0  0  0  0  0  0  0  0  0  0  0  0
    9.1347  -16.4538   22.1034 C   0  0  1  0  0  0  0  0  0  0  0  0
    9.8424  -17.7723   22.2714 C   0  0  0  0  0  0  0  0  0  0  0  0
   11.6379  -17.5487   22.1525 S   0  0  0  0  0  0  0  0  0  0  0  0
    9.2656  -15.5903   23.3059 C   0  0  0  0  0  0  0  0  0  0  0  0
   10.2420  -14.7891   23.3913 O   0  0  0  0  0  0  0  0  0  0  0  0
    8.0514  -11.9703   27.1171 C   0  0  0  0  0  0  0  0  0  0  0  0
    7.1130  -13.1027   26.9217 C   0  0  1  0  0  0  0  0  0  0  0  0
    5.6837  -12.5431   27.0432 C   0  0  0  0  0  0  0  0  0  0  0  0
    7.2608  -14.0060   25.7893 C   0  0  0  0  0  0  0  0  0  0  0  0
    8.4929  -14.7823   25.5894 C   0  0  2  0  0  0  0  0  0  0  0  0
    8.3514  -15.6175   24.3640 N   0  0  0  0  0  0  0  0  0  0  0  0
    8.7872  -15.7335   26.6328 C   0  0  0  0  0  0  0  0  0  0  0  0
    9.7383  -15.5033   27.5924 O   0  0  0  0  0  0  0  0  0  0  0  0
    8.1822  -16.8276   26.7000 O   0  0  0  0  0  0  0  0  0  0  0  0
  2  1  1  6
  2  3  1  0
  2  4  1  0
  4  5  1  6
  6  4  1  0
  7  6  2  0
  8  6  1  0
  9  8  1  0
  9 12  1  0
  9 10  1  1
 11 10  1  0
 12 19  1  0
 13 12  2  0
 15 14  1  6
 16 15  1  0
 17 15  1  0
 18 17  1  1
 18 20  1  0
 19 18  1  0
 20 21  1  0
 22 20  2  0
M  END
$$$$
