TCL.pdb
     RDKit          3D

 22 21  0  0  1  0  0  0  0  0999 V2000
    9.0525  -12.4898   20.1656 C   0  0  0  0  0  0  0  0  0  0  0  0
    8.3730  -13.1373   19.0043 C   0  0  1  0  0  0  0  0  0  0  0  0
    8.7696  -12.5648   17.7779 O   0  0  0  0  0  0  0  0  0  0  0  0
    8.5954  -14.6098   18.8914 C   0  0  2  0  0  0  0  0  0  0  0  0
    7.9797  -15.1983   17.7436 N   0  0  0  0  0  0  0  0  0  0  0  0
    8.1511  -15.2710   20.1646 C   0  0  0  0  0  0  0  0  0  0  0  0
    6.9338  -15.4384   20.4268 O   0  0  0  0  0  0  0  0  0  0  0  0
    9.0872  -15.7417   21.1395 N   0  0  0  0  0  0  0  0  0  0  0  0
    8.6843  -16.4031   22.3484 C   0  0  1  0  0  0  0  0  0  0  0  0
    9.2021  -17.8129   22.4575 C   0  0  0  0  0  0  0  0  0  0  0  0
    8.2097  -18.9345   21.4353 S   0  0  0  0  0  0  0  0  0  0  0  0
    8.9843  -15.6002   23.5625 C   0  0  0  0  0  0  0  0  0  0  0  0
   10.1292  -15.0761   23.6927 O   0  0  0  0  0  0  0  0  0  0  0  0
    7.5593  -11.7250   25.2130 C   0  0  0  0  0  0  0  0  0  0  0  0
    7.1268  -12.5322   26.3801 C   0  0  1  0  0  0  0  0  0  0  0  0
    5.7457  -12.0091   26.8159 C   0  0  0  0  0  0  0  0  0  0  0  0
    7.1825  -13.9867   26.3421 C   0  0  0  0  0  0  0  0  0  0  0  0
    8.3785  -14.6912   25.8584 C   0  0  2  0  0  0  0  0  0  0  0  0
    8.0524  -15.3907   24.5842 N   0  0  0  0  0  0  0  0  0  0  0  0
    8.8570  -15.7404   26.7246 C   0  0  0  0  0  0  0  0  0  0  0  0
    9.7898  -15.5189   27.7040 O   0  0  0  0  0  0  0  0  0  0  0  0
    8.4390  -16.9150   26.6095 O   0  0  0  0  0  0  0  0  0  0  0  0
  2  1  1  1
  2  3  1  0
  2  4  1  0
  4  5  1  6
  6  4  1  0
  7  6  2  0
  8  6  1  0
  9  8  1  0
  9 12  1  0
  9 10  1  1
 11 10  1  0
 12 19  1  0
 13 12  2  0
 15 14  1  6
 16 15  1  0
 17 15  1  0
 18 17  1  1
 18 20  1  0
 19 18  1  0
 20 21  1  0
 22 20  2  0
M  END
$$$$
