TCL.pdb
     RDKit          3D

 22 21  0  0  1  0  0  0  0  0999 V2000
    8.9773  -12.5078   19.9463 C   0  0  0  0  0  0  0  0  0  0  0  0
    8.4471  -13.2263   18.7496 C   0  0  1  0  0  0  0  0  0  0  0  0
    8.9381  -12.6767   17.5470 O   0  0  0  0  0  0  0  0  0  0  0  0
    8.7458  -14.6892   18.7156 C   0  0  2  0  0  0  0  0  0  0  0  0
    8.3180  -15.3360   17.5149 N   0  0  0  0  0  0  0  0  0  0  0  0
    8.1611  -15.3367   19.9380 C   0  0  0  0  0  0  0  0  0  0  0  0
    6.9588  -15.6992   19.9770 O   0  0  0  0  0  0  0  0  0  0  0  0
    8.9400  -15.5726   21.1154 N   0  0  0  0  0  0  0  0  0  0  0  0
    8.3938  -16.1666   22.3028 C   0  0  1  0  0  0  0  0  0  0  0  0
    8.6152  -17.6540   22.3812 C   0  0  0  0  0  0  0  0  0  0  0  0
   10.3814  -18.0244   22.5576 S   0  0  0  0  0  0  0  0  0  0  0  0
    8.8310  -15.4688   23.5400 C   0  0  0  0  0  0  0  0  0  0  0  0
   10.0384  -15.1059   23.6541 O   0  0  0  0  0  0  0  0  0  0  0  0
    5.4022  -12.1441   26.5113 C   0  0  0  0  0  0  0  0  0  0  0  0
    6.6283  -12.7319   25.9181 C   0  0  1  0  0  0  0  0  0  0  0  0
    7.6258  -11.5819   25.6875 C   0  0  0  0  0  0  0  0  0  0  0  0
    7.2580  -13.9013   26.5149 C   0  0  0  0  0  0  0  0  0  0  0  0
    8.4074  -14.5576   25.8755 C   0  0  2  0  0  0  0  0  0  0  0  0
    7.9638  -15.1882   24.6009 N   0  0  0  0  0  0  0  0  0  0  0  0
    8.9802  -15.6469   26.6275 C   0  0  0  0  0  0  0  0  0  0  0  0
    9.8826  -15.4487   27.6399 O   0  0  0  0  0  0  0  0  0  0  0  0
    8.6776  -16.8356   26.3765 O   0  0  0  0  0  0  0  0  0  0  0  0
  2  1  1  1
  2  3  1  0
  2  4  1  0
  4  5  1  6
  6  4  1  0
  7  6  2  0
  8  6  1  0
  9  8  1  0
  9 12  1  0
  9 10  1  1
 11 10  1  0
 12 19  1  0
 13 12  2  0
 15 14  1  1
 16 15  1  0
 17 15  1  0
 18 17  1  1
 18 20  1  0
 19 18  1  0
 20 21  1  0
 22 20  2  0
M  END
$$$$
