TCL.pdb
     RDKit          3D

 22 21  0  0  1  0  0  0  0  0999 V2000
    8.6522  -12.9890   19.8748 C   0  0  0  0  0  0  0  0  0  0  0  0
    8.0055  -13.6953   18.7291 C   0  0  1  0  0  0  0  0  0  0  0  0
    8.4398  -13.1879   17.4869 O   0  0  0  0  0  0  0  0  0  0  0  0
    8.2270  -15.1719   18.6996 C   0  0  2  0  0  0  0  0  0  0  0  0
    7.6309  -15.8208   17.5742 N   0  0  0  0  0  0  0  0  0  0  0  0
    7.7588  -15.7632   19.9984 C   0  0  0  0  0  0  0  0  0  0  0  0
    6.5362  -15.8680   20.2685 O   0  0  0  0  0  0  0  0  0  0  0  0
    8.6768  -16.2350   20.9898 N   0  0  0  0  0  0  0  0  0  0  0  0
    8.2597  -16.6593   22.2964 C   0  0  1  0  0  0  0  0  0  0  0  0
    8.7120  -18.0531   22.6431 C   0  0  0  0  0  0  0  0  0  0  0  0
    8.4162  -18.3982   24.3984 S   0  0  0  0  0  0  0  0  0  0  0  0
    8.6138  -15.6760   23.3530 C   0  0  0  0  0  0  0  0  0  0  0  0
    9.8154  -15.2948   23.4686 O   0  0  0  0  0  0  0  0  0  0  0  0
    7.7542  -11.2972   26.7271 C   0  0  0  0  0  0  0  0  0  0  0  0
    6.8331  -12.4586   26.7875 C   0  0  1  0  0  0  0  0  0  0  0  0
    5.4316  -11.9183   27.1262 C   0  0  0  0  0  0  0  0  0  0  0  0
    6.8039  -13.4431   25.7151 C   0  0  0  0  0  0  0  0  0  0  0  0
    8.0193  -14.1624   25.3076 C   0  0  2  0  0  0  0  0  0  0  0  0
    7.6733  -15.1418   24.2398 N   0  0  0  0  0  0  0  0  0  0  0  0
    8.6246  -14.9660   26.3410 C   0  0  0  0  0  0  0  0  0  0  0  0
    7.9975  -16.0540   26.8900 O   0  0  0  0  0  0  0  0  0  0  0  0
    9.7609  -14.6931   26.7903 O   0  0  0  0  0  0  0  0  0  0  0  0
  2  1  1  1
  2  3  1  0
  2  4  1  0
  4  5  1  6
  6  4  1  0
  7  6  2  0
  8  6  1  0
  9  8  1  0
  9 12  1  0
  9 10  1  1
 11 10  1  0
 12 19  1  0
 13 12  2  0
 15 14  1  6
 16 15  1  0
 17 15  1  0
 18 17  1  1
 18 20  1  0
 19 18  1  0
 20 21  1  0
 22 20  2  0
M  END
$$$$
