TCL.pdb
     RDKit          3D

 22 21  0  0  1  0  0  0  0  0999 V2000
    8.8032  -12.6053   19.9300 C   0  0  0  0  0  0  0  0  0  0  0  0
    8.3853  -13.3637   18.7136 C   0  0  1  0  0  0  0  0  0  0  0  0
    8.9397  -12.8168   17.5377 O   0  0  0  0  0  0  0  0  0  0  0  0
    8.7386  -14.8147   18.7295 C   0  0  2  0  0  0  0  0  0  0  0  0
    8.3680  -15.5103   17.5371 N   0  0  0  0  0  0  0  0  0  0  0  0
    8.1451  -15.4496   19.9543 C   0  0  0  0  0  0  0  0  0  0  0  0
    7.1732  -16.2421   19.8770 O   0  0  0  0  0  0  0  0  0  0  0  0
    8.6538  -15.1855   21.2657 N   0  0  0  0  0  0  0  0  0  0  0  0
    8.2380  -15.9245   22.4243 C   0  0  1  0  0  0  0  0  0  0  0  0
    8.4914  -17.4044   22.3098 C   0  0  0  0  0  0  0  0  0  0  0  0
   10.2724  -17.7421   22.2676 S   0  0  0  0  0  0  0  0  0  0  0  0
    8.7837  -15.3583   23.6854 C   0  0  0  0  0  0  0  0  0  0  0  0
   10.0212  -15.1047   23.7675 O   0  0  0  0  0  0  0  0  0  0  0  0
    5.5035  -12.0631   26.6886 C   0  0  0  0  0  0  0  0  0  0  0  0
    6.6835  -12.6937   26.0477 C   0  0  1  0  0  0  0  0  0  0  0  0
    7.5957  -11.5599   25.5446 C   0  0  0  0  0  0  0  0  0  0  0  0
    7.4278  -13.7446   26.7272 C   0  0  0  0  0  0  0  0  0  0  0  0
    8.5147  -14.4676   26.0516 C   0  0  2  0  0  0  0  0  0  0  0  0
    7.9881  -15.0870   24.8033 N   0  0  0  0  0  0  0  0  0  0  0  0
    9.0588  -15.5778   26.7941 C   0  0  0  0  0  0  0  0  0  0  0  0
    9.9011  -15.4077   27.8619 O   0  0  0  0  0  0  0  0  0  0  0  0
    8.7859  -16.7596   26.4834 O   0  0  0  0  0  0  0  0  0  0  0  0
  2  1  1  1
  2  3  1  0
  2  4  1  0
  4  5  1  6
  6  4  1  0
  7  6  2  0
  8  6  1  0
  9  8  1  0
  9 12  1  0
  9 10  1  6
 11 10  1  0
 12 19  1  0
 13 12  2  0
 15 14  1  1
 16 15  1  0
 17 15  1  0
 18 17  1  1
 18 20  1  0
 19 18  1  0
 20 21  1  0
 22 20  2  0
M  END
$$$$
