TCL.pdb
     RDKit          3D

 22 21  0  0  1  0  0  0  0  0999 V2000
    8.5258  -12.5584   20.0268 C   0  0  0  0  0  0  0  0  0  0  0  0
    8.1322  -13.3955   18.8547 C   0  0  1  0  0  0  0  0  0  0  0  0
    8.6155  -12.8614   17.6422 O   0  0  0  0  0  0  0  0  0  0  0  0
    8.5888  -14.8159   18.9194 C   0  0  2  0  0  0  0  0  0  0  0  0
    8.2448  -15.5841   17.7641 N   0  0  0  0  0  0  0  0  0  0  0  0
    8.0671  -15.4408   20.1816 C   0  0  0  0  0  0  0  0  0  0  0  0
    6.9118  -15.9307   20.2422 O   0  0  0  0  0  0  0  0  0  0  0  0
    8.8557  -15.5095   21.3740 N   0  0  0  0  0  0  0  0  0  0  0  0
    8.3650  -16.0750   22.5990 C   0  0  1  0  0  0  0  0  0  0  0  0
    8.6982  -17.5349   22.7572 C   0  0  0  0  0  0  0  0  0  0  0  0
   10.4942  -17.7710   22.8370 S   0  0  0  0  0  0  0  0  0  0  0  0
    8.7581  -15.2780   23.7903 C   0  0  0  0  0  0  0  0  0  0  0  0
    9.9368  -14.8235   23.8714 O   0  0  0  0  0  0  0  0  0  0  0  0
    7.5268  -11.4472   25.2417 C   0  0  0  0  0  0  0  0  0  0  0  0
    7.0134  -12.1174   26.4616 C   0  0  1  0  0  0  0  0  0  0  0  0
    5.5731  -11.6225   26.6879 C   0  0  0  0  0  0  0  0  0  0  0  0
    7.1375  -13.5586   26.6282 C   0  0  0  0  0  0  0  0  0  0  0  0
    8.2906  -14.2919   26.0867 C   0  0  2  0  0  0  0  0  0  0  0  0
    7.8793  -15.0000   24.8422 N   0  0  0  0  0  0  0  0  0  0  0  0
    8.7979  -15.3399   26.9379 C   0  0  0  0  0  0  0  0  0  0  0  0
    8.6858  -16.6678   26.6177 O   0  0  0  0  0  0  0  0  0  0  0  0
    9.3624  -15.0749   28.0236 O   0  0  0  0  0  0  0  0  0  0  0  0
  2  1  1  1
  2  3  1  0
  2  4  1  0
  4  5  1  6
  6  4  1  0
  7  6  2  0
  8  6  1  0
  9  8  1  0
  9 12  1  0
  9 10  1  1
 11 10  1  0
 12 19  1  0
 13 12  2  0
 15 14  1  6
 16 15  1  0
 17 15  1  0
 18 17  1  1
 18 20  1  0
 19 18  1  0
 20 21  1  0
 22 20  2  0
M  END
$$$$
