TCL.pdb
     RDKit          3D

 22 21  0  0  1  0  0  0  0  0999 V2000
    6.8137  -18.9312   24.5595 C   0  0  0  0  0  0  0  0  0  0  0  0
    7.4232  -19.8571   23.5591 C   0  0  1  0  0  0  0  0  0  0  0  0
    6.7811  -21.1128   23.5464 O   0  0  0  0  0  0  0  0  0  0  0  0
    7.4194  -19.3501   22.1544 C   0  0  2  0  0  0  0  0  0  0  0  0
    7.7641  -20.3413   21.1840 N   0  0  0  0  0  0  0  0  0  0  0  0
    8.3135  -18.1466   22.0659 C   0  0  0  0  0  0  0  0  0  0  0  0
    9.5647  -18.2547   22.1027 O   0  0  0  0  0  0  0  0  0  0  0  0
    7.7884  -16.8216   21.9360 N   0  0  0  0  0  0  0  0  0  0  0  0
    8.6189  -15.6506   21.9569 C   0  0  1  0  0  0  0  0  0  0  0  0
    8.0484  -14.5011   21.1691 C   0  0  0  0  0  0  0  0  0  0  0  0
    6.2381  -14.4968   21.2731 S   0  0  0  0  0  0  0  0  0  0  0  0
    9.0016  -15.2500   23.3359 C   0  0  0  0  0  0  0  0  0  0  0  0
    9.9959  -14.4853   23.5066 O   0  0  0  0  0  0  0  0  0  0  0  0
    6.0892  -12.4513   26.5052 C   0  0  0  0  0  0  0  0  0  0  0  0
    7.3233  -13.1452   26.0620 C   0  0  1  0  0  0  0  0  0  0  0  0
    8.5097  -12.2093   26.3573 C   0  0  0  0  0  0  0  0  0  0  0  0
    7.5888  -14.5204   26.4602 C   0  0  0  0  0  0  0  0  0  0  0  0
    8.6876  -15.2894   25.8587 C   0  0  2  0  0  0  0  0  0  0  0  0
    8.3089  -15.6807   24.4721 N   0  0  0  0  0  0  0  0  0  0  0  0
    8.9808  -16.5417   26.5113 C   0  0  0  0  0  0  0  0  0  0  0  0
    9.6272  -16.6098   27.7179 O   0  0  0  0  0  0  0  0  0  0  0  0
    8.6587  -17.6335   25.9900 O   0  0  0  0  0  0  0  0  0  0  0  0
  2  1  1  1
  2  3  1  0
  2  4  1  0
  4  5  1  6
  6  4  1  0
  7  6  2  0
  8  6  1  0
  9  8  1  0
  9 12  1  0
  9 10  1  1
 11 10  1  0
 12 19  1  0
 13 12  2  0
 15 14  1  1
 16 15  1  0
 17 15  1  0
 18 17  1  1
 18 20  1  0
 19 18  1  0
 20 21  1  0
 22 20  2  0
M  END
$$$$
