TCL.pdb
     RDKit          3D

 22 21  0  0  1  0  0  0  0  0999 V2000
    9.2598  -12.4407   17.8191 C   0  0  0  0  0  0  0  0  0  0  0  0
    8.6991  -13.3514   18.8612 C   0  0  1  0  0  0  0  0  0  0  0  0
    7.3520  -13.0509   19.1513 O   0  0  0  0  0  0  0  0  0  0  0  0
    8.7591  -14.8040   18.5197 C   0  0  2  0  0  0  0  0  0  0  0  0
    7.9959  -15.1553   17.3634 N   0  0  0  0  0  0  0  0  0  0  0  0
    8.3530  -15.6067   19.7224 C   0  0  0  0  0  0  0  0  0  0  0  0
    7.1949  -16.0809   19.8342 O   0  0  0  0  0  0  0  0  0  0  0  0
    9.2602  -15.8711   20.7973 N   0  0  0  0  0  0  0  0  0  0  0  0
    8.8542  -16.5074   22.0186 C   0  0  1  0  0  0  0  0  0  0  0  0
    9.4293  -17.8883   22.1910 C   0  0  0  0  0  0  0  0  0  0  0  0
   11.2374  -17.8436   22.0617 S   0  0  0  0  0  0  0  0  0  0  0  0
    9.0868  -15.6505   23.2104 C   0  0  0  0  0  0  0  0  0  0  0  0
   10.1449  -14.9591   23.2807 O   0  0  0  0  0  0  0  0  0  0  0  0
    8.0887  -11.7396   26.7854 C   0  0  0  0  0  0  0  0  0  0  0  0
    7.1538  -12.8912   26.7598 C   0  0  1  0  0  0  0  0  0  0  0  0
    5.7341  -12.3374   26.9798 C   0  0  0  0  0  0  0  0  0  0  0  0
    7.2068  -13.8703   25.6834 C   0  0  0  0  0  0  0  0  0  0  0  0
    8.4000  -14.7010   25.4667 C   0  0  2  0  0  0  0  0  0  0  0  0
    8.1829  -15.5674   24.2745 N   0  0  0  0  0  0  0  0  0  0  0  0
    8.6939  -15.6304   26.5297 C   0  0  0  0  0  0  0  0  0  0  0  0
    9.6502  -15.3840   27.4800 O   0  0  0  0  0  0  0  0  0  0  0  0
    8.0836  -16.7196   26.6236 O   0  0  0  0  0  0  0  0  0  0  0  0
  2  1  1  6
  2  3  1  0
  2  4  1  0
  4  5  1  6
  6  4  1  0
  7  6  2  0
  8  6  1  0
  9  8  1  0
  9 12  1  0
  9 10  1  1
 11 10  1  0
 12 19  1  0
 13 12  2  0
 15 14  1  6
 16 15  1  0
 17 15  1  0
 18 17  1  1
 18 20  1  0
 19 18  1  0
 20 21  1  0
 22 20  2  0
M  END
$$$$
