TCL.pdb
     RDKit          3D

 22 21  0  0  1  0  0  0  0  0999 V2000
   11.1274  -14.1271   20.4197 C   0  0  0  0  0  0  0  0  0  0  0  0
   10.2150  -13.3233   19.5532 C   0  0  1  0  0  0  0  0  0  0  0  0
   10.8714  -12.8467   18.3994 O   0  0  0  0  0  0  0  0  0  0  0  0
    8.9920  -14.0463   19.0930 C   0  0  2  0  0  0  0  0  0  0  0  0
    8.1981  -13.3021   18.1662 N   0  0  0  0  0  0  0  0  0  0  0  0
    8.1962  -14.4748   20.2924 C   0  0  0  0  0  0  0  0  0  0  0  0
    7.3454  -13.7160   20.8206 O   0  0  0  0  0  0  0  0  0  0  0  0
    8.3658  -15.7632   20.8923 N   0  0  0  0  0  0  0  0  0  0  0  0
    7.7031  -16.1489   22.1061 C   0  0  1  0  0  0  0  0  0  0  0  0
    7.4441  -17.6293   22.1992 C   0  0  0  0  0  0  0  0  0  0  0  0
    8.9768  -18.5190   22.5825 S   0  0  0  0  0  0  0  0  0  0  0  0
    8.3840  -15.6217   23.3174 C   0  0  0  0  0  0  0  0  0  0  0  0
    9.6367  -15.4406   23.2959 O   0  0  0  0  0  0  0  0  0  0  0  0
    5.8891  -11.8371   26.4914 C   0  0  0  0  0  0  0  0  0  0  0  0
    6.9303  -12.6491   25.8152 C   0  0  1  0  0  0  0  0  0  0  0  0
    8.0685  -11.6945   25.4100 C   0  0  0  0  0  0  0  0  0  0  0  0
    7.4255  -13.8782   26.4188 C   0  0  0  0  0  0  0  0  0  0  0  0
    8.3695  -14.7508   25.7061 C   0  0  2  0  0  0  0  0  0  0  0  0
    7.7015  -15.3105   24.4979 N   0  0  0  0  0  0  0  0  0  0  0  0
    8.7967  -15.9141   26.4439 C   0  0  0  0  0  0  0  0  0  0  0  0
    9.8027  -15.8682   27.3735 O   0  0  0  0  0  0  0  0  0  0  0  0
    8.2630  -17.0311   26.2562 O   0  0  0  0  0  0  0  0  0  0  0  0
  2  1  1  6
  2  3  1  0
  2  4  1  0
  4  5  1  6
  6  4  1  0
  7  6  2  0
  8  6  1  0
  9  8  1  0
  9 12  1  0
  9 10  1  1
 11 10  1  0
 12 19  1  0
 13 12  2  0
 15 14  1  1
 16 15  1  0
 17 15  1  0
 18 17  1  1
 18 20  1  0
 19 18  1  0
 20 21  1  0
 22 20  2  0
M  END
$$$$
