TCL.pdb
     RDKit          3D

 22 21  0  0  1  0  0  0  0  0999 V2000
   -0.0992  -25.0643   27.3038 C   0  0  0  0  0  0  0  0  0  0  0  0
    0.0674  -25.6431   25.9375 C   0  0  1  0  0  0  0  0  0  0  0  0
    1.4209  -25.9045   25.6395 O   0  0  0  0  0  0  0  0  0  0  0  0
   -0.6852  -26.9110   25.6997 C   0  0  2  0  0  0  0  0  0  0  0  0
   -0.4900  -27.4597   24.3944 N   0  0  0  0  0  0  0  0  0  0  0  0
   -2.1391  -26.6804   25.9973 C   0  0  0  0  0  0  0  0  0  0  0  0
   -2.8942  -26.1055   25.1739 O   0  0  0  0  0  0  0  0  0  0  0  0
   -2.7357  -27.1016   27.2281 N   0  0  0  0  0  0  0  0  0  0  0  0
   -4.1218  -26.8861   27.5340 C   0  0  1  0  0  0  0  0  0  0  0  0
   -4.7828  -28.0774   28.1753 C   0  0  0  0  0  0  0  0  0  0  0  0
   -6.4883  -27.6802   28.6456 S   0  0  0  0  0  0  0  0  0  0  0  0
   -4.3454  -25.6370   28.3078 C   0  0  0  0  0  0  0  0  0  0  0  0
   -3.7174  -25.4580   29.3922 O   0  0  0  0  0  0  0  0  0  0  0  0
   -3.9847  -20.6891   26.2419 C   0  0  0  0  0  0  0  0  0  0  0  0
   -4.0687  -21.7919   27.2306 C   0  0  1  0  0  0  0  0  0  0  0  0
   -3.0566  -21.4855   28.3499 C   0  0  0  0  0  0  0  0  0  0  0  0
   -5.3562  -22.2295   27.7512 C   0  0  0  0  0  0  0  0  0  0  0  0
   -5.4593  -23.3790   28.6615 C   0  0  2  0  0  0  0  0  0  0  0  0
   -5.2273  -24.6339   27.8929 N   0  0  0  0  0  0  0  0  0  0  0  0
   -6.7587  -23.5659   29.2587 C   0  0  0  0  0  0  0  0  0  0  0  0
   -7.5808  -24.6095   28.9220 O   0  0  0  0  0  0  0  0  0  0  0  0
   -7.1977  -22.7657   30.1158 O   0  0  0  0  0  0  0  0  0  0  0  0
  2  1  1  1
  2  3  1  0
  2  4  1  0
  4  5  1  6
  6  4  1  0
  7  6  2  0
  8  6  1  0
  9  8  1  0
  9 12  1  0
  9 10  1  1
 11 10  1  0
 12 19  1  0
 13 12  2  0
 15 14  1  1
 16 15  1  0
 17 15  1  0
 18 17  1  6
 18 20  1  0
 19 18  1  0
 20 21  1  0
 22 20  2  0
M  END
$$$$
