WMM.pdb
     RDKit          3D

 31 32  0  0  1  0  0  0  0  0999 V2000
   27.4253  -20.7007  -15.8426 N   0  0  0  0  0  0  0  0  0  0  0  0
   26.4545  -19.8888  -15.1643 C   0  0  1  0  0  0  0  0  0  0  0  0
   25.4937  -19.2076  -16.0937 C   0  0  0  0  0  0  0  0  0  0  0  0
   26.1192  -18.1923  -16.9498 C   0  0  0  0  0  0  0  0  0  0  0  0
   26.4860  -18.3646  -18.2602 C   0  0  0  0  0  0  0  0  0  0  0  0
   27.0215  -17.2330  -18.7071 N   0  0  0  0  0  0  0  0  0  0  0  0
   27.0047  -16.3352  -17.7047 C   0  0  0  0  0  0  0  0  0  0  0  0
   27.4231  -15.0228  -17.6037 C   0  0  0  0  0  0  0  0  0  0  0  0
   27.2901  -14.3096  -16.4433 C   0  0  0  0  0  0  0  0  0  0  0  0
   26.7286  -14.8735  -15.3154 C   0  0  0  0  0  0  0  0  0  0  0  0
   26.3073  -16.1765  -15.3969 C   0  0  0  0  0  0  0  0  0  0  0  0
   26.4368  -16.9110  -16.5690 C   0  0  0  0  0  0  0  0  0  0  0  0
   25.6592  -20.7233  -14.2153 C   0  0  0  0  0  0  0  0  0  0  0  0
   25.4413  -21.9416  -14.4234 O   0  0  0  0  0  0  0  0  0  0  0  0
   28.6378  -21.8652   -9.7117 C   0  0  0  0  0  0  0  0  0  0  0  0
   27.0966  -21.7030  -10.5539 S   0  0  0  0  0  0  0  0  0  0  0  0
   25.8829  -20.5993   -9.9212 C   0  0  0  0  0  0  0  0  0  0  0  0
   24.6061  -20.4181  -10.6677 C   0  0  0  0  0  0  0  0  0  0  0  0
   24.4286  -20.9197  -12.0132 C   0  0  2  0  0  0  0  0  0  0  0  0
   25.1230  -20.1712  -13.0481 N   0  0  0  0  0  0  0  0  0  0  0  0
   23.0379  -21.0548  -12.4905 C   0  0  0  0  0  0  0  0  0  0  0  0
   22.3786  -20.0016  -12.8774 O   0  0  0  0  0  0  0  0  0  0  0  0
   16.9776  -25.5361  -14.8599 C   0  0  0  0  0  0  0  0  0  0  0  0
   18.5327  -25.5107  -13.9150 S   0  0  0  0  0  0  0  0  0  0  0  0
   19.0147  -23.7860  -13.6873 C   0  0  0  0  0  0  0  0  0  0  0  0
   20.4497  -23.7185  -13.1925 C   0  0  0  0  0  0  0  0  0  0  0  0
   20.9041  -22.2599  -13.0940 C   0  0  2  0  0  0  0  0  0  0  0  0
   22.2799  -22.2296  -12.5950 N   0  0  0  0  0  0  0  0  0  0  0  0
   20.0189  -21.5856  -12.1292 C   0  0  0  0  0  0  0  0  0  0  0  0
   20.3144  -21.6787  -10.7778 O   0  0  0  0  0  0  0  0  0  0  0  0
   19.0169  -20.9399  -12.5258 O   0  0  0  0  0  0  0  0  0  0  0  0
  2  1  1  6
  2 13  1  0
  2  3  1  0
  3  4  1  0
  4  5  2  0
  5  6  1  0
  7  6  1  0
  8  7  2  0
  9  8  1  0
 10 11  1  0
 10  9  2  0
 11 12  2  0
 12  4  1  0
 12  7  1  0
 13 14  2  0
 16 15  1  0
 16 17  1  0
 18 17  1  0
 19 18  1  1
 19 21  1  0
 20 19  1  0
 20 13  1  0
 21 28  1  0
 22 21  2  0
 23 24  1  0
 24 25  1  0
 25 26  1  0
 27 26  1  1
 27 29  1  0
 28 27  1  0
 29 31  2  0
 29 30  1  0
M  END
$$$$
