WMM.pdb
     RDKit          3D

 31 32  0  0  1  0  0  0  0  0999 V2000
   23.2851  -14.9534  -20.9313 N   0  0  0  0  0  0  0  0  0  0  0  0
   22.4340  -14.1897  -20.0628 C   0  0  1  0  0  0  0  0  0  0  0  0
   22.3418  -14.7511  -18.6746 C   0  0  0  0  0  0  0  0  0  0  0  0
   21.8206  -16.1226  -18.6254 C   0  0  0  0  0  0  0  0  0  0  0  0
   22.5524  -17.2485  -18.3458 C   0  0  0  0  0  0  0  0  0  0  0  0
   21.7475  -18.3052  -18.3941 N   0  0  0  0  0  0  0  0  0  0  0  0
   20.5090  -17.8768  -18.7002 C   0  0  0  0  0  0  0  0  0  0  0  0
   19.3016  -18.5236  -18.8775 C   0  0  0  0  0  0  0  0  0  0  0  0
   18.1568  -17.8428  -19.1915 C   0  0  0  0  0  0  0  0  0  0  0  0
   18.1577  -16.4711  -19.3461 C   0  0  0  0  0  0  0  0  0  0  0  0
   19.3482  -15.8115  -19.1739 C   0  0  0  0  0  0  0  0  0  0  0  0
   20.5171  -16.4912  -18.8550 C   0  0  0  0  0  0  0  0  0  0  0  0
   22.9338  -12.7867  -19.9566 C   0  0  0  0  0  0  0  0  0  0  0  0
   24.1565  -12.5226  -19.8543 O   0  0  0  0  0  0  0  0  0  0  0  0
   23.0374  -10.2131  -25.5893 C   0  0  0  0  0  0  0  0  0  0  0  0
   22.2641   -9.6258  -24.1168 S   0  0  0  0  0  0  0  0  0  0  0  0
   22.8985  -10.1248  -22.5546 C   0  0  0  0  0  0  0  0  0  0  0  0
   22.2145   -9.6663  -21.3128 C   0  0  0  0  0  0  0  0  0  0  0  0
   22.4388  -10.3066  -20.0347 C   0  0  2  0  0  0  0  0  0  0  0  0
   22.0479  -11.7052  -19.9675 N   0  0  0  0  0  0  0  0  0  0  0  0
   21.8193   -9.6671  -18.8569 C   0  0  0  0  0  0  0  0  0  0  0  0
   20.7191  -10.1513  -18.3583 O   0  0  0  0  0  0  0  0  0  0  0  0
   22.0568   -4.3899  -12.9423 C   0  0  0  0  0  0  0  0  0  0  0  0
   22.8758   -5.0317  -14.4353 S   0  0  0  0  0  0  0  0  0  0  0  0
   21.8213   -6.3184  -15.1361 C   0  0  0  0  0  0  0  0  0  0  0  0
   22.5254   -6.9691  -16.3148 C   0  0  0  0  0  0  0  0  0  0  0  0
   21.6095   -8.0085  -16.9663 C   0  0  2  0  0  0  0  0  0  0  0  0
   22.2772   -8.5439  -18.1539 N   0  0  0  0  0  0  0  0  0  0  0  0
   20.3735   -7.3168  -17.3702 C   0  0  0  0  0  0  0  0  0  0  0  0
   20.3660   -6.6107  -18.5633 O   0  0  0  0  0  0  0  0  0  0  0  0
   19.3483   -7.3675  -16.6459 O   0  0  0  0  0  0  0  0  0  0  0  0
  2  1  1  6
  2 13  1  0
  2  3  1  0
  3  4  1  0
  4  5  2  0
  5  6  1  0
  7  6  1  0
  8  7  2  0
  9  8  1  0
 10 11  1  0
 10  9  2  0
 11 12  2  0
 12  4  1  0
 12  7  1  0
 13 14  2  0
 16 15  1  0
 16 17  1  0
 18 17  1  0
 19 18  1  6
 19 21  1  0
 20 19  1  0
 20 13  1  0
 21 28  1  0
 22 21  2  0
 23 24  1  0
 24 25  1  0
 25 26  1  0
 27 26  1  6
 27 29  1  0
 28 27  1  0
 29 31  2  0
 29 30  1  0
M  END
$$$$
