WMM.pdb
     RDKit          3D

 31 32  0  0  1  0  0  0  0  0999 V2000
   26.8692  -19.9235  -17.6040 N   0  0  0  0  0  0  0  0  0  0  0  0
   26.9969  -19.3597  -16.2896 C   0  0  1  0  0  0  0  0  0  0  0  0
   26.5651  -17.9250  -16.2121 C   0  0  0  0  0  0  0  0  0  0  0  0
   27.3520  -17.0245  -17.0636 C   0  0  0  0  0  0  0  0  0  0  0  0
   26.8442  -16.0449  -17.8784 C   0  0  0  0  0  0  0  0  0  0  0  0
   27.8521  -15.4369  -18.4961 N   0  0  0  0  0  0  0  0  0  0  0  0
   29.0005  -16.0098  -18.0911 C   0  0  0  0  0  0  0  0  0  0  0  0
   30.3284  -15.7860  -18.3979 C   0  0  0  0  0  0  0  0  0  0  0  0
   31.3341  -16.5239  -17.8350 C   0  0  0  0  0  0  0  0  0  0  0  0
   31.0645  -17.5309  -16.9301 C   0  0  0  0  0  0  0  0  0  0  0  0
   29.7509  -17.7678  -16.6133 C   0  0  0  0  0  0  0  0  0  0  0  0
   28.7212  -17.0257  -17.1779 C   0  0  0  0  0  0  0  0  0  0  0  0
   26.1762  -20.1377  -15.3144 C   0  0  0  0  0  0  0  0  0  0  0  0
   25.2312  -20.8772  -15.6820 O   0  0  0  0  0  0  0  0  0  0  0  0
   25.7805  -19.7385   -7.9239 C   0  0  0  0  0  0  0  0  0  0  0  0
   26.3682  -21.1382   -8.8221 S   0  0  0  0  0  0  0  0  0  0  0  0
   25.7285  -21.4600  -10.4280 C   0  0  0  0  0  0  0  0  0  0  0  0
   26.3571  -20.7992  -11.6063 C   0  0  0  0  0  0  0  0  0  0  0  0
   25.7711  -20.8718  -12.9272 C   0  0  2  0  0  0  0  0  0  0  0  0
   26.4343  -20.0695  -13.9421 N   0  0  0  0  0  0  0  0  0  0  0  0
   24.3373  -20.5357  -13.0339 C   0  0  0  0  0  0  0  0  0  0  0  0
   23.9625  -19.2899  -13.0644 O   0  0  0  0  0  0  0  0  0  0  0  0
   20.2664  -23.3484  -16.6112 C   0  0  0  0  0  0  0  0  0  0  0  0
   18.9989  -22.2546  -15.8980 S   0  0  0  0  0  0  0  0  0  0  0  0
   19.7669  -21.3135  -14.5626 C   0  0  0  0  0  0  0  0  0  0  0  0
   21.1978  -21.7844  -14.3642 C   0  0  0  0  0  0  0  0  0  0  0  0
   21.8627  -20.9872  -13.2390 C   0  0  2  0  0  0  0  0  0  0  0  0
   23.2546  -21.4229  -13.1143 N   0  0  0  0  0  0  0  0  0  0  0  0
   21.1404  -21.2951  -11.9930 C   0  0  0  0  0  0  0  0  0  0  0  0
   21.4846  -22.4394  -11.2901 O   0  0  0  0  0  0  0  0  0  0  0  0
   20.2311  -20.5341  -11.5780 O   0  0  0  0  0  0  0  0  0  0  0  0
  2  1  1  6
  2 13  1  0
  2  3  1  0
  3  4  1  0
  4  5  2  0
  5  6  1  0
  7  6  1  0
  8  7  2  0
  9  8  1  0
 10 11  1  0
 10  9  2  0
 11 12  2  0
 12  4  1  0
 12  7  1  0
 13 14  2  0
 16 15  1  0
 16 17  1  0
 18 17  1  0
 19 18  1  1
 19 21  1  0
 20 19  1  0
 20 13  1  0
 21 28  1  0
 22 21  2  0
 23 24  1  0
 24 25  1  0
 25 26  1  0
 27 26  1  6
 27 29  1  0
 28 27  1  0
 29 31  2  0
 29 30  1  0
M  END
$$$$
