WMM.pdb
     RDKit          3D

 31 32  0  0  1  0  0  0  0  0999 V2000
   28.3031  -21.7648  -15.1635 N   0  0  0  0  0  0  0  0  0  0  0  0
   27.6422  -20.6596  -14.5281 C   0  0  1  0  0  0  0  0  0  0  0  0
   26.8703  -19.7980  -15.4833 C   0  0  0  0  0  0  0  0  0  0  0  0
   27.5518  -18.5454  -15.8320 C   0  0  0  0  0  0  0  0  0  0  0  0
   28.7190  -18.4396  -16.5445 C   0  0  0  0  0  0  0  0  0  0  0  0
   29.0336  -17.1534  -16.6621 N   0  0  0  0  0  0  0  0  0  0  0  0
   28.0868  -16.4300  -16.0366 C   0  0  0  0  0  0  0  0  0  0  0  0
   27.9048  -15.0743  -15.8457 C   0  0  0  0  0  0  0  0  0  0  0  0
   26.8308  -14.5796  -15.1568 C   0  0  0  0  0  0  0  0  0  0  0  0
   25.8758  -15.4187  -14.6186 C   0  0  0  0  0  0  0  0  0  0  0  0
   26.0401  -16.7688  -14.7981 C   0  0  0  0  0  0  0  0  0  0  0  0
   27.1259  -17.2831  -15.4955 C   0  0  0  0  0  0  0  0  0  0  0  0
   26.6913  -21.1572  -13.4899 C   0  0  0  0  0  0  0  0  0  0  0  0
   25.9399  -22.1414  -13.6939 O   0  0  0  0  0  0  0  0  0  0  0  0
   27.3016  -18.7284   -7.1275 C   0  0  0  0  0  0  0  0  0  0  0  0
   27.6564  -20.3978   -7.5729 S   0  0  0  0  0  0  0  0  0  0  0  0
   27.2822  -20.9521   -9.1990 C   0  0  0  0  0  0  0  0  0  0  0  0
   26.0339  -20.4769   -9.8593 C   0  0  0  0  0  0  0  0  0  0  0  0
   25.6637  -20.9018  -11.1920 C   0  0  2  0  0  0  0  0  0  0  0  0
   26.6033  -20.5375  -12.2397 N   0  0  0  0  0  0  0  0  0  0  0  0
   24.3401  -20.4669  -11.6809 C   0  0  0  0  0  0  0  0  0  0  0  0
   24.2087  -19.3066  -12.2552 O   0  0  0  0  0  0  0  0  0  0  0  0
   21.0537  -18.8976  -15.9394 C   0  0  0  0  0  0  0  0  0  0  0  0
   21.6419  -20.5966  -16.2216 S   0  0  0  0  0  0  0  0  0  0  0  0
   21.1495  -21.5963  -14.8015 C   0  0  0  0  0  0  0  0  0  0  0  0
   22.3181  -21.7255  -13.8389 C   0  0  0  0  0  0  0  0  0  0  0  0
   22.0213  -20.9618  -12.5457 C   0  0  2  0  0  0  0  0  0  0  0  0
   23.1295  -21.1707  -11.6124 N   0  0  0  0  0  0  0  0  0  0  0  0
   20.7869  -21.5252  -11.9733 C   0  0  0  0  0  0  0  0  0  0  0  0
   20.8851  -22.3542  -10.8664 O   0  0  0  0  0  0  0  0  0  0  0  0
   19.6688  -21.2581  -12.4801 O   0  0  0  0  0  0  0  0  0  0  0  0
  2  1  1  6
  2 13  1  0
  2  3  1  0
  3  4  1  0
  4  5  2  0
  5  6  1  0
  7  6  1  0
  8  7  2  0
  9  8  1  0
 10 11  1  0
 10  9  2  0
 11 12  2  0
 12  4  1  0
 12  7  1  0
 13 14  2  0
 16 15  1  0
 16 17  1  0
 18 17  1  0
 19 18  1  1
 19 21  1  0
 20 19  1  0
 20 13  1  0
 21 28  1  0
 22 21  2  0
 23 24  1  0
 24 25  1  0
 25 26  1  0
 27 26  1  6
 27 29  1  0
 28 27  1  0
 29 31  2  0
 29 30  1  0
M  END
$$$$
