WMM.pdb
     RDKit          3D

 31 32  0  0  1  0  0  0  0  0999 V2000
   23.7667  -17.2749  -16.3678 N   0  0  0  0  0  0  0  0  0  0  0  0
   24.8294  -17.6271  -15.4687 C   0  0  1  0  0  0  0  0  0  0  0  0
   25.6144  -16.4449  -14.9821 C   0  0  0  0  0  0  0  0  0  0  0  0
   26.5575  -15.9133  -15.9736 C   0  0  0  0  0  0  0  0  0  0  0  0
   26.4709  -14.6890  -16.5859 C   0  0  0  0  0  0  0  0  0  0  0  0
   27.4956  -14.5552  -17.4220 N   0  0  0  0  0  0  0  0  0  0  0  0
   28.2404  -15.6742  -17.3568 C   0  0  0  0  0  0  0  0  0  0  0  0
   29.3980  -16.0780  -17.9929 C   0  0  0  0  0  0  0  0  0  0  0  0
   29.9715  -17.2954  -17.7446 C   0  0  0  0  0  0  0  0  0  0  0  0
   29.4153  -18.1795  -16.8420 C   0  0  0  0  0  0  0  0  0  0  0  0
   28.2651  -17.7955  -16.2006 C   0  0  0  0  0  0  0  0  0  0  0  0
   27.6733  -16.5624  -16.4440 C   0  0  0  0  0  0  0  0  0  0  0  0
   24.2791  -18.3341  -14.2741 C   0  0  0  0  0  0  0  0  0  0  0  0
   23.2096  -17.9756  -13.7238 O   0  0  0  0  0  0  0  0  0  0  0  0
   20.4902  -21.1124  -11.3245 C   0  0  0  0  0  0  0  0  0  0  0  0
   22.0512  -21.5445  -10.6262 S   0  0  0  0  0  0  0  0  0  0  0  0
   23.2954  -22.2323  -11.6610 C   0  0  0  0  0  0  0  0  0  0  0  0
   23.8542  -21.4095  -12.7704 C   0  0  0  0  0  0  0  0  0  0  0  0
   24.5205  -20.1483  -12.5272 C   0  0  2  0  0  0  0  0  0  0  0  0
   24.9428  -19.4327  -13.7200 N   0  0  0  0  0  0  0  0  0  0  0  0
   25.7070  -20.1859  -11.6492 C   0  0  0  0  0  0  0  0  0  0  0  0
   26.8741  -20.4764  -12.1464 O   0  0  0  0  0  0  0  0  0  0  0  0
   28.7913  -20.2250   -4.3451 C   0  0  0  0  0  0  0  0  0  0  0  0
   27.2840  -20.0659   -5.3524 S   0  0  0  0  0  0  0  0  0  0  0  0
   27.7402  -20.3333   -7.0784 C   0  0  0  0  0  0  0  0  0  0  0  0
   26.5327  -20.0919   -7.9684 C   0  0  0  0  0  0  0  0  0  0  0  0
   26.9276  -20.2336   -9.4407 C   0  0  2  0  0  0  0  0  0  0  0  0
   25.7593  -19.9354  -10.2708 N   0  0  0  0  0  0  0  0  0  0  0  0
   27.3363  -21.6321   -9.6558 C   0  0  0  0  0  0  0  0  0  0  0  0
   28.6857  -21.9160   -9.7990 O   0  0  0  0  0  0  0  0  0  0  0  0
   26.4770  -22.5471   -9.7080 O   0  0  0  0  0  0  0  0  0  0  0  0
  2  1  1  6
  2 13  1  0
  2  3  1  0
  3  4  1  0
  4  5  2  0
  5  6  1  0
  7  6  1  0
  8  7  2  0
  9  8  1  0
 10 11  1  0
 10  9  2  0
 11 12  2  0
 12  4  1  0
 12  7  1  0
 13 14  2  0
 16 15  1  0
 16 17  1  0
 18 17  1  0
 19 18  1  6
 19 21  1  0
 20 19  1  0
 20 13  1  0
 21 28  1  0
 22 21  2  0
 23 24  1  0
 24 25  1  0
 25 26  1  0
 27 26  1  1
 27 29  1  0
 28 27  1  0
 29 31  2  0
 29 30  1  0
M  END
$$$$
