WMM.pdb
     RDKit          3D

 31 32  0  0  1  0  0  0  0  0999 V2000
   28.3562  -20.7646   -9.6151 N   0  0  0  0  0  0  0  0  0  0  0  0
   27.0305  -21.2967   -9.4692 C   0  0  1  0  0  0  0  0  0  0  0  0
   26.3317  -20.8235   -8.2289 C   0  0  0  0  0  0  0  0  0  0  0  0
   27.1187  -19.8731   -7.4336 C   0  0  0  0  0  0  0  0  0  0  0  0
   27.3234  -18.5512   -7.7367 C   0  0  0  0  0  0  0  0  0  0  0  0
   28.0857  -18.0086   -6.7925 N   0  0  0  0  0  0  0  0  0  0  0  0
   28.3742  -18.9608   -5.8863 C   0  0  0  0  0  0  0  0  0  0  0  0
   29.1129  -18.9626   -4.7193 C   0  0  0  0  0  0  0  0  0  0  0  0
   29.2562  -20.0901   -3.9570 C   0  0  0  0  0  0  0  0  0  0  0  0
   28.6655  -21.2829   -4.3228 C   0  0  0  0  0  0  0  0  0  0  0  0
   27.9279  -21.3001   -5.4793 C   0  0  0  0  0  0  0  0  0  0  0  0
   27.7750  -20.1623   -6.2617 C   0  0  0  0  0  0  0  0  0  0  0  0
   26.1904  -20.9126  -10.6424 C   0  0  0  0  0  0  0  0  0  0  0  0
   26.2067  -19.7523  -11.1202 O   0  0  0  0  0  0  0  0  0  0  0  0
   23.9850  -20.1087  -16.1529 C   0  0  0  0  0  0  0  0  0  0  0  0
   25.0504  -21.4813  -15.8494 S   0  0  0  0  0  0  0  0  0  0  0  0
   24.4708  -22.8190  -14.8665 C   0  0  0  0  0  0  0  0  0  0  0  0
   24.8258  -22.8649  -13.4201 C   0  0  0  0  0  0  0  0  0  0  0  0
   24.7583  -21.6901  -12.5780 C   0  0  2  0  0  0  0  0  0  0  0  0
   25.3464  -21.8423  -11.2572 N   0  0  0  0  0  0  0  0  0  0  0  0
   23.4171  -21.1170  -12.3487 C   0  0  0  0  0  0  0  0  0  0  0  0
   22.6353  -21.6342  -11.4459 O   0  0  0  0  0  0  0  0  0  0  0  0
   20.9352  -15.1591  -13.6573 C   0  0  0  0  0  0  0  0  0  0  0  0
   19.5410  -16.2247  -14.1396 S   0  0  0  0  0  0  0  0  0  0  0  0
   19.7732  -17.8318  -13.3509 C   0  0  0  0  0  0  0  0  0  0  0  0
   21.2119  -18.2857  -13.5319 C   0  0  0  0  0  0  0  0  0  0  0  0
   21.4489  -19.5963  -12.7770 C   0  0  2  0  0  0  0  0  0  0  0  0
   22.8299  -20.0256  -13.0041 N   0  0  0  0  0  0  0  0  0  0  0  0
   20.5268  -20.6003  -13.3345 C   0  0  0  0  0  0  0  0  0  0  0  0
   20.8582  -21.2153  -14.5320 O   0  0  0  0  0  0  0  0  0  0  0  0
   19.4620  -20.8912  -12.7347 O   0  0  0  0  0  0  0  0  0  0  0  0
  2  1  1  6
  2 13  1  0
  2  3  1  0
  3  4  1  0
  4  5  2  0
  5  6  1  0
  7  6  1  0
  8  7  2  0
  9  8  1  0
 10 11  1  0
 10  9  2  0
 11 12  2  0
 12  4  1  0
 12  7  1  0
 13 14  2  0
 16 15  1  0
 16 17  1  0
 18 17  1  0
 19 18  1  1
 19 21  1  0
 20 19  1  0
 20 13  1  0
 21 28  1  0
 22 21  2  0
 23 24  1  0
 24 25  1  0
 25 26  1  0
 27 26  1  6
 27 29  1  0
 28 27  1  0
 29 31  2  0
 29 30  1  0
M  END
$$$$
