WMM.pdb
     RDKit          3D

 31 32  0  0  1  0  0  0  0  0999 V2000
   26.0993  -20.5105  -13.5430 N   0  0  0  0  0  0  0  0  0  0  0  0
   25.1002  -20.4238  -12.5152 C   0  0  1  0  0  0  0  0  0  0  0  0
   23.8497  -21.1887  -12.8339 C   0  0  0  0  0  0  0  0  0  0  0  0
   23.1576  -20.7140  -14.0383 C   0  0  0  0  0  0  0  0  0  0  0  0
   23.3469  -21.1889  -15.3111 C   0  0  0  0  0  0  0  0  0  0  0  0
   22.5519  -20.5200  -16.1402 N   0  0  0  0  0  0  0  0  0  0  0  0
   21.8537  -19.6223  -15.4207 C   0  0  0  0  0  0  0  0  0  0  0  0
   20.9004  -18.6797  -15.7532 C   0  0  0  0  0  0  0  0  0  0  0  0
   20.3272  -17.8690  -14.8115 C   0  0  0  0  0  0  0  0  0  0  0  0
   20.6784  -17.9574  -13.4795 C   0  0  0  0  0  0  0  0  0  0  0  0
   21.6240  -18.8880  -13.1304 C   0  0  0  0  0  0  0  0  0  0  0  0
   22.2132  -19.7168  -14.0770 C   0  0  0  0  0  0  0  0  0  0  0  0
   25.6417  -20.9486  -11.2264 C   0  0  0  0  0  0  0  0  0  0  0  0
   26.3540  -21.9807  -11.1759 O   0  0  0  0  0  0  0  0  0  0  0  0
   27.7620  -19.1932   -3.9248 C   0  0  0  0  0  0  0  0  0  0  0  0
   27.3652  -18.8053   -5.5991 S   0  0  0  0  0  0  0  0  0  0  0  0
   27.5084  -20.0543   -6.8283 C   0  0  0  0  0  0  0  0  0  0  0  0
   26.9093  -19.8226   -8.1728 C   0  0  0  0  0  0  0  0  0  0  0  0
   25.8982  -20.7002   -8.7216 C   0  0  2  0  0  0  0  0  0  0  0  0
   25.3715  -20.3019  -10.0167 N   0  0  0  0  0  0  0  0  0  0  0  0
   24.7147  -20.9554   -7.8764 C   0  0  0  0  0  0  0  0  0  0  0  0
   23.6643  -20.1946   -7.9824 O   0  0  0  0  0  0  0  0  0  0  0  0
   22.7114  -26.5510   -4.9979 C   0  0  0  0  0  0  0  0  0  0  0  0
   22.2030  -25.3051   -3.7727 S   0  0  0  0  0  0  0  0  0  0  0  0
   22.1187  -23.7077   -4.6092 C   0  0  0  0  0  0  0  0  0  0  0  0
   23.3741  -23.4999   -5.4396 C   0  0  0  0  0  0  0  0  0  0  0  0
   23.3340  -22.1289   -6.1197 C   0  0  2  0  0  0  0  0  0  0  0  0
   24.5502  -21.9651   -6.9177 N   0  0  0  0  0  0  0  0  0  0  0  0
   23.3052  -21.1094   -5.0572 C   0  0  0  0  0  0  0  0  0  0  0  0
   22.0887  -20.7921   -4.4728 O   0  0  0  0  0  0  0  0  0  0  0  0
   24.3633  -20.5405   -4.6900 O   0  0  0  0  0  0  0  0  0  0  0  0
  2  1  1  6
  2 13  1  0
  2  3  1  0
  3  4  1  0
  4  5  2  0
  5  6  1  0
  7  6  1  0
  8  7  2  0
  9  8  1  0
 10 11  1  0
 10  9  2  0
 11 12  2  0
 12  4  1  0
 12  7  1  0
 13 14  2  0
 16 15  1  0
 16 17  1  0
 18 17  1  0
 19 18  1  1
 19 21  1  0
 20 19  1  0
 20 13  1  0
 21 28  1  0
 22 21  2  0
 23 24  1  0
 24 25  1  0
 25 26  1  0
 27 26  1  1
 27 29  1  0
 28 27  1  0
 29 31  2  0
 29 30  1  0
M  END
$$$$
