WMM.pdb
     RDKit          3D

 31 32  0  0  1  0  0  0  0  0999 V2000
   27.5930  -21.2705  -15.1288 N   0  0  0  0  0  0  0  0  0  0  0  0
   26.6879  -20.3305  -14.5296 C   0  0  1  0  0  0  0  0  0  0  0  0
   25.5890  -19.8909  -15.4514 C   0  0  0  0  0  0  0  0  0  0  0  0
   26.0520  -19.0559  -16.5666 C   0  0  0  0  0  0  0  0  0  0  0  0
   25.9806  -19.3836  -17.8965 C   0  0  0  0  0  0  0  0  0  0  0  0
   26.4972  -18.3887  -18.6108 N   0  0  0  0  0  0  0  0  0  0  0  0
   26.8995  -17.4257  -17.7612 C   0  0  0  0  0  0  0  0  0  0  0  0
   27.4941  -16.1924  -17.9428 C   0  0  0  0  0  0  0  0  0  0  0  0
   27.8105  -15.3807  -16.8875 C   0  0  0  0  0  0  0  0  0  0  0  0
   27.5482  -15.7607  -15.5866 C   0  0  0  0  0  0  0  0  0  0  0  0
   26.9579  -16.9828  -15.3867 C   0  0  0  0  0  0  0  0  0  0  0  0
   26.6318  -17.8158  -16.4497 C   0  0  0  0  0  0  0  0  0  0  0  0
   26.0554  -20.9278  -13.3159 C   0  0  0  0  0  0  0  0  0  0  0  0
   25.8862  -22.1656  -13.1955 O   0  0  0  0  0  0  0  0  0  0  0  0
   27.1494  -19.8453   -6.5637 C   0  0  0  0  0  0  0  0  0  0  0  0
   25.8735  -20.8509   -7.2508 S   0  0  0  0  0  0  0  0  0  0  0  0
   24.8286  -20.1821   -8.4968 C   0  0  0  0  0  0  0  0  0  0  0  0
   25.4041  -19.8640   -9.8340 C   0  0  0  0  0  0  0  0  0  0  0  0
   25.0409  -20.6089  -11.0201 C   0  0  2  0  0  0  0  0  0  0  0  0
   25.6245  -20.1207  -12.2588 N   0  0  0  0  0  0  0  0  0  0  0  0
   23.5973  -20.7528  -11.2943 C   0  0  0  0  0  0  0  0  0  0  0  0
   23.0287  -20.0026  -12.1929 O   0  0  0  0  0  0  0  0  0  0  0  0
   19.6195  -24.9528   -8.5181 C   0  0  0  0  0  0  0  0  0  0  0  0
   18.3169  -23.8150   -9.0841 S   0  0  0  0  0  0  0  0  0  0  0  0
   19.0795  -22.6021  -10.1823 C   0  0  0  0  0  0  0  0  0  0  0  0
   20.5702  -22.5236   -9.8989 C   0  0  0  0  0  0  0  0  0  0  0  0
   21.2493  -21.5940  -10.9081 C   0  0  2  0  0  0  0  0  0  0  0  0
   22.6959  -21.6395  -10.6885 N   0  0  0  0  0  0  0  0  0  0  0  0
   20.7584  -20.2294  -10.6516 C   0  0  0  0  0  0  0  0  0  0  0  0
   19.8260  -19.6838  -11.5206 O   0  0  0  0  0  0  0  0  0  0  0  0
   21.1779  -19.5754   -9.6644 O   0  0  0  0  0  0  0  0  0  0  0  0
  2  1  1  6
  2 13  1  0
  2  3  1  0
  3  4  1  0
  4  5  2  0
  5  6  1  0
  7  6  1  0
  8  7  2  0
  9  8  1  0
 10 11  1  0
 10  9  2  0
 11 12  2  0
 12  4  1  0
 12  7  1  0
 13 14  2  0
 16 15  1  0
 16 17  1  0
 18 17  1  0
 19 18  1  1
 19 21  1  0
 20 19  1  0
 20 13  1  0
 21 28  1  0
 22 21  2  0
 23 24  1  0
 24 25  1  0
 25 26  1  0
 27 26  1  1
 27 29  1  0
 28 27  1  0
 29 31  2  0
 29 30  1  0
M  END
$$$$
