WMM.pdb
     RDKit          3D

 31 32  0  0  1  0  0  0  0  0999 V2000
   24.1061  -19.7743   -9.8733 N   0  0  0  0  0  0  0  0  0  0  0  0
   25.5031  -19.8381  -10.1991 C   0  0  1  0  0  0  0  0  0  0  0  0
   26.2160  -20.9840   -9.5438 C   0  0  0  0  0  0  0  0  0  0  0  0
   26.2849  -20.8781   -8.0812 C   0  0  0  0  0  0  0  0  0  0  0  0
   25.2988  -21.2501   -7.2035 C   0  0  0  0  0  0  0  0  0  0  0  0
   25.7141  -21.0060   -5.9646 N   0  0  0  0  0  0  0  0  0  0  0  0
   26.9522  -20.4831   -6.0315 C   0  0  0  0  0  0  0  0  0  0  0  0
   27.8491  -20.0507   -5.0742 C   0  0  0  0  0  0  0  0  0  0  0  0
   29.0769  -19.5479   -5.4095 C   0  0  0  0  0  0  0  0  0  0  0  0
   29.4761  -19.4498   -6.7272 C   0  0  0  0  0  0  0  0  0  0  0  0
   28.5982  -19.8744   -7.6921 C   0  0  0  0  0  0  0  0  0  0  0  0
   27.3491  -20.3867   -7.3645 C   0  0  0  0  0  0  0  0  0  0  0  0
   25.6811  -19.9728  -11.6756 C   0  0  0  0  0  0  0  0  0  0  0  0
   24.9244  -20.6908  -12.3735 O   0  0  0  0  0  0  0  0  0  0  0  0
   28.3765  -15.0602  -16.0472 C   0  0  0  0  0  0  0  0  0  0  0  0
   29.0475  -16.6809  -16.2327 S   0  0  0  0  0  0  0  0  0  0  0  0
   28.1028  -18.0680  -15.7081 C   0  0  0  0  0  0  0  0  0  0  0  0
   27.7827  -18.2236  -14.2611 C   0  0  0  0  0  0  0  0  0  0  0  0
   26.8768  -19.2458  -13.7835 C   0  0  2  0  0  0  0  0  0  0  0  0
   26.7082  -19.2964  -12.3404 N   0  0  0  0  0  0  0  0  0  0  0  0
   27.1693  -20.6332  -14.1951 C   0  0  0  0  0  0  0  0  0  0  0  0
   28.0105  -21.3509  -13.5089 O   0  0  0  0  0  0  0  0  0  0  0  0
   23.5482  -25.2283  -14.8954 C   0  0  0  0  0  0  0  0  0  0  0  0
   24.8744  -26.1541  -15.7296 S   0  0  0  0  0  0  0  0  0  0  0  0
   26.2618  -25.0273  -15.9831 C   0  0  0  0  0  0  0  0  0  0  0  0
   25.8577  -23.6207  -15.5746 C   0  0  0  0  0  0  0  0  0  0  0  0
   27.0614  -22.6794  -15.6686 C   0  0  2  0  0  0  0  0  0  0  0  0
   26.6347  -21.3323  -15.2865 N   0  0  0  0  0  0  0  0  0  0  0  0
   27.5075  -22.6715  -17.0721 C   0  0  0  0  0  0  0  0  0  0  0  0
   28.4844  -23.5737  -17.4645 O   0  0  0  0  0  0  0  0  0  0  0  0
   27.0110  -21.8624  -17.8949 O   0  0  0  0  0  0  0  0  0  0  0  0
  2  1  1  6
  2 13  1  0
  2  3  1  0
  3  4  1  0
  4  5  2  0
  5  6  1  0
  7  6  1  0
  8  7  2  0
  9  8  1  0
 10 11  1  0
 10  9  2  0
 11 12  2  0
 12  4  1  0
 12  7  1  0
 13 14  2  0
 16 15  1  0
 16 17  1  0
 18 17  1  0
 19 18  1  1
 19 21  1  0
 20 19  1  0
 20 13  1  0
 21 28  1  0
 22 21  2  0
 23 24  1  0
 24 25  1  0
 25 26  1  0
 27 26  1  6
 27 29  1  0
 28 27  1  0
 29 31  2  0
 29 30  1  0
M  END
$$$$
