EKT.pdb
     RDKit          3D

 26 25  0  0  1  0  0  0  0  0999 V2000
   20.7393  -20.8497  -11.8665 N   0  0  0  0  0  0  0  0  0  0  0  0
   21.2995  -21.0729  -13.1830 C   0  0  1  0  0  0  0  0  0  0  0  0
   20.3806  -20.4123  -14.1709 C   0  0  0  0  0  0  0  0  0  0  0  0
   19.3536  -21.3171  -14.7416 C   0  0  0  0  0  0  0  0  0  0  0  0
   18.0129  -20.7503  -14.8972 C   0  0  0  0  0  0  0  0  0  0  0  0
   17.0877  -20.9701  -14.0783 O   0  0  0  0  0  0  0  0  0  0  0  0
   22.6634  -20.5093  -13.2585 C   0  0  0  0  0  0  0  0  0  0  0  0
   22.8078  -19.2675  -13.1256 O   0  0  0  0  0  0  0  0  0  0  0  0
   17.7113  -19.9338  -15.9768 O   0  0  0  0  0  0  0  0  0  0  0  0
   23.8281  -21.2714  -13.4710 N   0  0  0  0  0  0  0  0  0  0  0  0
   25.1791  -20.6987  -13.4895 C   0  0  1  0  0  0  0  0  0  0  0  0
   26.0718  -21.7075  -12.8283 C   0  0  0  0  0  0  0  0  0  0  0  0
   26.5640  -21.3064  -11.4777 C   0  0  0  0  0  0  0  0  0  0  0  0
   25.4652  -21.2237  -10.4387 C   0  0  0  0  0  0  0  0  0  0  0  0
   26.0018  -20.6418   -9.1527 C   0  0  0  0  0  0  0  0  0  0  0  0
   24.8756  -20.4159   -8.2484 N   0  0  0  0  0  0  0  0  0  0  0  0
   25.5925  -20.3801  -14.8812 C   0  0  0  0  0  0  0  0  0  0  0  0
   25.4711  -21.2896  -15.7388 O   0  0  0  0  0  0  0  0  0  0  0  0
   25.2102  -16.8879  -16.9961 C   0  0  0  0  0  0  0  0  0  0  0  0
   26.6227  -17.4298  -16.9379 C   0  0  1  0  0  0  0  0  0  0  0  0
   27.2992  -16.7380  -15.9390 O   0  0  0  0  0  0  0  0  0  0  0  0
   26.5699  -18.9111  -16.6342 C   0  0  2  0  0  0  0  0  0  0  0  0
   26.1073  -19.1227  -15.2791 N   0  0  0  0  0  0  0  0  0  0  0  0
   27.9255  -19.4824  -16.8379 C   0  0  0  0  0  0  0  0  0  0  0  0
   28.5137  -19.5010  -18.0907 O   0  0  0  0  0  0  0  0  0  0  0  0
   28.5237  -19.9488  -15.8401 O   0  0  0  0  0  0  0  0  0  0  0  0
  2  7  1  0
  2  1  1  1
  3  2  1  0
  4  3  1  0
  5  4  1  0
  5  6  2  0
  7 10  1  0
  8  7  2  0
  9  5  1  0
 10 11  1  0
 11 12  1  6
 13 12  1  0
 13 14  1  0
 14 15  1  0
 15 16  1  0
 17 18  2  0
 17 11  1  0
 20 19  1  1
 20 22  1  0
 21 20  1  0
 22 23  1  1
 23 17  1  0
 24 22  1  0
 24 25  1  0
 26 24  2  0
M  END
$$$$
