EKT.pdb
     RDKit          3D

 26 25  0  0  1  0  0  0  0  0999 V2000
   19.7670  -20.9149  -11.9049 N   0  0  0  0  0  0  0  0  0  0  0  0
   20.3034  -21.5657  -13.0820 C   0  0  1  0  0  0  0  0  0  0  0  0
   19.2251  -21.5437  -14.1277 C   0  0  0  0  0  0  0  0  0  0  0  0
   18.0767  -22.4341  -13.8323 C   0  0  0  0  0  0  0  0  0  0  0  0
   16.9911  -22.4299  -14.8144 C   0  0  0  0  0  0  0  0  0  0  0  0
   15.9753  -23.1580  -14.7012 O   0  0  0  0  0  0  0  0  0  0  0  0
   21.5159  -20.8601  -13.5462 C   0  0  0  0  0  0  0  0  0  0  0  0
   21.5638  -19.6092  -13.4299 O   0  0  0  0  0  0  0  0  0  0  0  0
   17.0477  -21.6045  -15.9273 O   0  0  0  0  0  0  0  0  0  0  0  0
   22.6359  -21.4947  -14.1168 N   0  0  0  0  0  0  0  0  0  0  0  0
   23.7741  -20.7677  -14.6908 C   0  0  1  0  0  0  0  0  0  0  0  0
   24.9362  -21.7165  -14.6613 C   0  0  0  0  0  0  0  0  0  0  0  0
   26.1673  -21.2071  -15.3337 C   0  0  0  0  0  0  0  0  0  0  0  0
   27.3403  -22.1607  -15.2408 C   0  0  0  0  0  0  0  0  0  0  0  0
   28.5413  -21.5862  -15.9533 C   0  0  0  0  0  0  0  0  0  0  0  0
   29.6285  -22.5605  -15.8749 N   0  0  0  0  0  0  0  0  0  0  0  0
   23.4504  -20.2872  -16.0596 C   0  0  0  0  0  0  0  0  0  0  0  0
   22.9899  -21.1291  -16.8698 O   0  0  0  0  0  0  0  0  0  0  0  0
   21.0185  -17.8987  -17.5499 C   0  0  0  0  0  0  0  0  0  0  0  0
   22.4067  -17.4042  -17.8971 C   0  0  1  0  0  0  0  0  0  0  0  0
   22.7557  -16.4357  -16.9619 O   0  0  0  0  0  0  0  0  0  0  0  0
   23.3694  -18.5708  -17.8578 C   0  0  2  0  0  0  0  0  0  0  0  0
   23.6330  -18.9495  -16.4859 N   0  0  0  0  0  0  0  0  0  0  0  0
   24.6176  -18.1754  -18.5587 C   0  0  0  0  0  0  0  0  0  0  0  0
   24.6334  -17.9593  -19.9258 O   0  0  0  0  0  0  0  0  0  0  0  0
   25.6597  -18.0423  -17.8751 O   0  0  0  0  0  0  0  0  0  0  0  0
  2  7  1  0
  2  1  1  1
  3  2  1  0
  4  3  1  0
  5  4  1  0
  5  6  2  0
  7 10  1  0
  8  7  2  0
  9  5  1  0
 10 11  1  0
 11 12  1  6
 13 12  1  0
 13 14  1  0
 14 15  1  0
 15 16  1  0
 17 18  2  0
 17 11  1  0
 20 19  1  1
 20 22  1  0
 21 20  1  0
 22 23  1  1
 23 17  1  0
 24 22  1  0
 24 25  1  0
 26 24  2  0
M  END
$$$$
