EKT.pdb
     RDKit          3D

 26 25  0  0  1  0  0  0  0  0999 V2000
   20.6430   -9.9999  -20.2842 N   0  0  0  0  0  0  0  0  0  0  0  0
   20.1686   -8.6347  -20.1954 C   0  0  1  0  0  0  0  0  0  0  0  0
   18.8985   -8.5566  -20.9939 C   0  0  0  0  0  0  0  0  0  0  0  0
   17.9544   -9.6718  -20.7408 C   0  0  0  0  0  0  0  0  0  0  0  0
   16.6713   -9.5989  -21.4418 C   0  0  0  0  0  0  0  0  0  0  0  0
   16.5777   -9.6890  -22.6900 O   0  0  0  0  0  0  0  0  0  0  0  0
   19.9384   -8.2663  -18.7830 C   0  0  0  0  0  0  0  0  0  0  0  0
   19.4052   -7.1559  -18.5318 O   0  0  0  0  0  0  0  0  0  0  0  0
   15.4897   -9.4243  -20.7372 O   0  0  0  0  0  0  0  0  0  0  0  0
   20.2770   -9.0787  -17.6839 N   0  0  0  0  0  0  0  0  0  0  0  0
   19.9852   -8.7204  -16.2911 C   0  0  1  0  0  0  0  0  0  0  0  0
   19.7566  -10.0130  -15.5641 C   0  0  0  0  0  0  0  0  0  0  0  0
   18.4161  -10.6255  -15.7988 C   0  0  0  0  0  0  0  0  0  0  0  0
   18.1606  -11.8539  -14.9506 C   0  0  0  0  0  0  0  0  0  0  0  0
   16.7556  -12.3611  -15.1714 C   0  0  0  0  0  0  0  0  0  0  0  0
   16.5694  -13.5606  -14.3565 N   0  0  0  0  0  0  0  0  0  0  0  0
   21.0953   -7.9175  -15.7147 C   0  0  0  0  0  0  0  0  0  0  0  0
   22.2535   -8.3962  -15.7977 O   0  0  0  0  0  0  0  0  0  0  0  0
   22.5364   -4.9233  -16.8129 C   0  0  0  0  0  0  0  0  0  0  0  0
   22.1742   -4.6099  -15.3766 C   0  0  1  0  0  0  0  0  0  0  0  0
   20.9689   -3.9161  -15.3872 O   0  0  0  0  0  0  0  0  0  0  0  0
   22.0495   -5.9059  -14.6059 C   0  0  2  0  0  0  0  0  0  0  0  0
   20.9127   -6.6613  -15.0877 N   0  0  0  0  0  0  0  0  0  0  0  0
   21.9123   -5.5844  -13.1626 C   0  0  0  0  0  0  0  0  0  0  0  0
   22.9259   -4.9422  -12.4726 O   0  0  0  0  0  0  0  0  0  0  0  0
   20.8493   -5.9121  -12.5849 O   0  0  0  0  0  0  0  0  0  0  0  0
  2  7  1  0
  2  1  1  1
  3  2  1  0
  4  3  1  0
  5  4  1  0
  5  6  2  0
  7 10  1  0
  8  7  2  0
  9  5  1  0
 10 11  1  0
 11 12  1  1
 13 12  1  0
 13 14  1  0
 14 15  1  0
 15 16  1  0
 17 18  2  0
 17 11  1  0
 20 19  1  6
 20 22  1  0
 21 20  1  0
 22 23  1  6
 23 17  1  0
 24 22  1  0
 24 25  1  0
 26 24  2  0
M  END
$$$$
