EKT.pdb
     RDKit          3D

 26 25  0  0  1  0  0  0  0  0999 V2000
   25.3450  -21.4899  -12.2113 N   0  0  0  0  0  0  0  0  0  0  0  0
   25.1364  -21.0086  -13.5609 C   0  0  1  0  0  0  0  0  0  0  0  0
   25.3346  -22.1788  -14.4818 C   0  0  0  0  0  0  0  0  0  0  0  0
   26.5817  -22.1158  -15.2815 C   0  0  0  0  0  0  0  0  0  0  0  0
   26.4196  -21.7942  -16.7005 C   0  0  0  0  0  0  0  0  0  0  0  0
   25.2945  -21.6285  -17.2310 O   0  0  0  0  0  0  0  0  0  0  0  0
   23.7778  -20.4433  -13.6958 C   0  0  0  0  0  0  0  0  0  0  0  0
   22.9103  -20.7556  -12.8412 O   0  0  0  0  0  0  0  0  0  0  0  0
   27.5259  -21.6585  -17.5256 O   0  0  0  0  0  0  0  0  0  0  0  0
   23.3788  -19.5691  -14.7250 N   0  0  0  0  0  0  0  0  0  0  0  0
   22.0542  -18.9403  -14.7860 C   0  0  1  0  0  0  0  0  0  0  0  0
   22.2338  -17.6554  -15.5399 C   0  0  0  0  0  0  0  0  0  0  0  0
   20.9987  -16.8248  -15.6487 C   0  0  0  0  0  0  0  0  0  0  0  0
   20.8093  -16.2074  -17.0186 C   0  0  0  0  0  0  0  0  0  0  0  0
   19.5450  -15.3824  -17.0522 C   0  0  0  0  0  0  0  0  0  0  0  0
   19.3288  -14.9332  -18.4265 N   0  0  0  0  0  0  0  0  0  0  0  0
   21.0705  -19.8551  -15.4220 C   0  0  0  0  0  0  0  0  0  0  0  0
   21.3525  -20.2980  -16.5630 O   0  0  0  0  0  0  0  0  0  0  0  0
   19.7612  -23.1960  -14.6898 C   0  0  0  0  0  0  0  0  0  0  0  0
   18.5500  -22.2888  -14.7371 C   0  0  1  0  0  0  0  0  0  0  0  0
   18.2165  -21.9616  -13.4272 O   0  0  0  0  0  0  0  0  0  0  0  0
   18.8926  -21.0510  -15.5370 C   0  0  2  0  0  0  0  0  0  0  0  0
   19.8525  -20.2440  -14.8141 N   0  0  0  0  0  0  0  0  0  0  0  0
   17.6401  -20.2969  -15.7977 C   0  0  0  0  0  0  0  0  0  0  0  0
   17.4519  -19.0235  -15.2889 O   0  0  0  0  0  0  0  0  0  0  0  0
   16.7553  -20.8480  -16.4938 O   0  0  0  0  0  0  0  0  0  0  0  0
  2  7  1  0
  2  1  1  1
  3  2  1  0
  4  3  1  0
  5  4  1  0
  5  6  2  0
  7 10  1  0
  8  7  2  0
  9  5  1  0
 10 11  1  0
 11 12  1  6
 13 12  1  0
 13 14  1  0
 14 15  1  0
 15 16  1  0
 17 18  2  0
 17 11  1  0
 20 19  1  1
 20 22  1  0
 21 20  1  0
 22 23  1  1
 23 17  1  0
 24 22  1  0
 24 25  1  0
 26 24  2  0
M  END
$$$$
