EKT.pdb
     RDKit          3D

 26 25  0  0  1  0  0  0  0  0999 V2000
   20.0322  -19.6633  -12.5324 N   0  0  0  0  0  0  0  0  0  0  0  0
   19.5972  -19.0820  -13.7852 C   0  0  1  0  0  0  0  0  0  0  0  0
   18.2223  -18.5214  -13.5570 C   0  0  0  0  0  0  0  0  0  0  0  0
   17.1232  -19.4667  -13.8692 C   0  0  0  0  0  0  0  0  0  0  0  0
   16.8892  -19.7336  -15.2894 C   0  0  0  0  0  0  0  0  0  0  0  0
   15.8649  -19.3311  -15.8923 O   0  0  0  0  0  0  0  0  0  0  0  0
   20.5418  -18.0295  -14.2136 C   0  0  0  0  0  0  0  0  0  0  0  0
   20.8630  -17.1388  -13.3867 O   0  0  0  0  0  0  0  0  0  0  0  0
   17.8098  -20.4554  -16.0342 O   0  0  0  0  0  0  0  0  0  0  0  0
   21.1158  -17.9506  -15.4969 N   0  0  0  0  0  0  0  0  0  0  0  0
   22.0752  -16.9132  -15.8930 C   0  0  1  0  0  0  0  0  0  0  0  0
   23.2025  -17.6249  -16.5819 C   0  0  0  0  0  0  0  0  0  0  0  0
   24.3039  -16.7323  -17.0481 C   0  0  0  0  0  0  0  0  0  0  0  0
   25.4787  -17.4857  -17.6363 C   0  0  0  0  0  0  0  0  0  0  0  0
   26.5527  -16.5207  -18.0783 C   0  0  0  0  0  0  0  0  0  0  0  0
   27.7280  -17.2949  -18.4743 N   0  0  0  0  0  0  0  0  0  0  0  0
   21.4180  -15.8951  -16.7537 C   0  0  0  0  0  0  0  0  0  0  0  0
   20.8342  -16.3068  -17.7866 O   0  0  0  0  0  0  0  0  0  0  0  0
   18.5647  -13.6534  -16.5370 C   0  0  0  0  0  0  0  0  0  0  0  0
   19.7650  -12.7575  -16.7587 C   0  0  1  0  0  0  0  0  0  0  0  0
   20.1682  -12.2775  -15.5173 O   0  0  0  0  0  0  0  0  0  0  0  0
   20.8656  -13.5619  -17.4151 C   0  0  2  0  0  0  0  0  0  0  0  0
   21.4188  -14.5081  -16.4697 N   0  0  0  0  0  0  0  0  0  0  0  0
   21.9040  -12.6229  -17.9105 C   0  0  0  0  0  0  0  0  0  0  0  0
   21.6056  -11.6620  -18.8610 O   0  0  0  0  0  0  0  0  0  0  0  0
   23.0621  -12.7256  -17.4421 O   0  0  0  0  0  0  0  0  0  0  0  0
  2  7  1  0
  2  1  1  1
  3  2  1  0
  4  3  1  0
  5  4  1  0
  5  6  2  0
  7 10  1  0
  8  7  2  0
  9  5  1  0
 10 11  1  0
 11 12  1  6
 13 12  1  0
 13 14  1  0
 14 15  1  0
 15 16  1  0
 17 18  2  0
 17 11  1  0
 20 19  1  1
 20 22  1  0
 21 20  1  0
 22 23  1  1
 23 17  1  0
 24 22  1  0
 24 25  1  0
 26 24  2  0
M  END
$$$$
