EKT.pdb
     RDKit          3D

 26 25  0  0  1  0  0  0  0  0999 V2000
   26.8924  -21.1441  -14.7760 N   0  0  0  0  0  0  0  0  0  0  0  0
   25.7453  -21.7421  -15.4266 C   0  0  1  0  0  0  0  0  0  0  0  0
   25.7702  -23.2089  -15.1033 C   0  0  0  0  0  0  0  0  0  0  0  0
   26.9193  -23.9393  -15.6906 C   0  0  0  0  0  0  0  0  0  0  0  0
   27.0895  -23.8116  -17.1390 C   0  0  0  0  0  0  0  0  0  0  0  0
   26.1234  -23.6285  -17.9187 O   0  0  0  0  0  0  0  0  0  0  0  0
   24.4997  -21.1077  -14.9474 C   0  0  0  0  0  0  0  0  0  0  0  0
   24.3121  -21.0149  -13.7078 O   0  0  0  0  0  0  0  0  0  0  0  0
   28.3496  -23.8899  -17.7125 O   0  0  0  0  0  0  0  0  0  0  0  0
   23.4948  -20.5930  -15.7887 N   0  0  0  0  0  0  0  0  0  0  0  0
   22.3027  -19.8950  -15.2938 C   0  0  1  0  0  0  0  0  0  0  0  0
   22.0776  -18.7381  -16.2226 C   0  0  0  0  0  0  0  0  0  0  0  0
   20.8795  -17.9094  -15.8988 C   0  0  0  0  0  0  0  0  0  0  0  0
   20.6667  -16.7599  -16.8617 C   0  0  0  0  0  0  0  0  0  0  0  0
   19.3896  -16.0261  -16.5288 C   0  0  0  0  0  0  0  0  0  0  0  0
   19.3143  -14.8342  -17.3721 N   0  0  0  0  0  0  0  0  0  0  0  0
   21.1432  -20.8227  -15.2291 C   0  0  0  0  0  0  0  0  0  0  0  0
   20.8754  -21.4802  -16.2651 O   0  0  0  0  0  0  0  0  0  0  0  0
   20.7893  -23.7554  -13.3496 C   0  0  0  0  0  0  0  0  0  0  0  0
   19.5132  -23.0140  -13.0119 C   0  0  1  0  0  0  0  0  0  0  0  0
   19.6808  -22.4349  -11.7586 O   0  0  0  0  0  0  0  0  0  0  0  0
   19.2607  -21.9612  -14.0687 C   0  0  2  0  0  0  0  0  0  0  0  0
   20.3407  -20.9976  -14.0759 N   0  0  0  0  0  0  0  0  0  0  0  0
   17.9571  -21.3098  -13.7828 C   0  0  0  0  0  0  0  0  0  0  0  0
   16.7685  -22.0118  -13.8840 O   0  0  0  0  0  0  0  0  0  0  0  0
   17.9636  -20.1024  -13.4463 O   0  0  0  0  0  0  0  0  0  0  0  0
  2  7  1  0
  2  1  1  1
  3  2  1  0
  4  3  1  0
  5  4  1  0
  5  6  2  0
  7 10  1  0
  8  7  2  0
  9  5  1  0
 10 11  1  0
 11 12  1  6
 13 12  1  0
 13 14  1  0
 14 15  1  0
 15 16  1  0
 17 18  2  0
 17 11  1  0
 20 19  1  6
 20 22  1  0
 21 20  1  0
 22 23  1  1
 23 17  1  0
 24 22  1  0
 24 25  1  0
 26 24  2  0
M  END
$$$$
