EKT.pdb
     RDKit          3D

 26 25  0  0  1  0  0  0  0  0999 V2000
   28.0307  -20.9853  -15.9212 N   0  0  0  0  0  0  0  0  0  0  0  0
   27.5804  -20.0907  -14.8754 C   0  0  1  0  0  0  0  0  0  0  0  0
   27.3486  -18.7499  -15.5120 C   0  0  0  0  0  0  0  0  0  0  0  0
   28.3187  -18.4112  -16.5812 C   0  0  0  0  0  0  0  0  0  0  0  0
   27.8538  -18.6055  -17.9557 C   0  0  0  0  0  0  0  0  0  0  0  0
   26.7448  -19.1269  -18.2260 O   0  0  0  0  0  0  0  0  0  0  0  0
   26.3440  -20.6120  -14.2564 C   0  0  0  0  0  0  0  0  0  0  0  0
   25.6090  -21.3743  -14.9341 O   0  0  0  0  0  0  0  0  0  0  0  0
   28.6382  -18.2124  -19.0296 O   0  0  0  0  0  0  0  0  0  0  0  0
   25.9237  -20.3136  -12.9462 N   0  0  0  0  0  0  0  0  0  0  0  0
   24.6863  -20.8343  -12.3537 C   0  0  1  0  0  0  0  0  0  0  0  0
   24.8045  -20.6149  -10.8740 C   0  0  0  0  0  0  0  0  0  0  0  0
   23.6291  -21.0850  -10.0836 C   0  0  0  0  0  0  0  0  0  0  0  0
   23.7560  -20.8119   -8.5993 C   0  0  0  0  0  0  0  0  0  0  0  0
   22.5801  -21.3987   -7.8554 C   0  0  0  0  0  0  0  0  0  0  0  0
   22.8171  -21.2329   -6.4223 N   0  0  0  0  0  0  0  0  0  0  0  0
   23.5002  -20.1641  -12.9480 C   0  0  0  0  0  0  0  0  0  0  0  0
   23.4629  -18.9098  -12.8952 O   0  0  0  0  0  0  0  0  0  0  0  0
   22.2814  -19.4312  -16.1452 C   0  0  0  0  0  0  0  0  0  0  0  0
   21.1574  -20.2369  -15.5289 C   0  0  1  0  0  0  0  0  0  0  0  0
   21.2934  -21.5512  -15.9629 O   0  0  0  0  0  0  0  0  0  0  0  0
   21.2567  -20.1483  -14.0218 C   0  0  2  0  0  0  0  0  0  0  0  0
   22.4295  -20.8597  -13.5599 N   0  0  0  0  0  0  0  0  0  0  0  0
   20.0154  -20.7133  -13.4338 C   0  0  0  0  0  0  0  0  0  0  0  0
   18.7821  -20.1308  -13.6692 O   0  0  0  0  0  0  0  0  0  0  0  0
   20.1166  -21.7358  -12.7161 O   0  0  0  0  0  0  0  0  0  0  0  0
  2  7  1  0
  2  1  1  6
  3  2  1  0
  4  3  1  0
  5  4  1  0
  5  6  2  0
  7 10  1  0
  8  7  2  0
  9  5  1  0
 10 11  1  0
 11 12  1  1
 13 12  1  0
 13 14  1  0
 14 15  1  0
 15 16  1  0
 17 18  2  0
 17 11  1  0
 20 19  1  6
 20 22  1  0
 21 20  1  0
 22 23  1  1
 23 17  1  0
 24 22  1  0
 24 25  1  0
 26 24  2  0
M  END
$$$$
