EKT.pdb
     RDKit          3D

 26 25  0  0  1  0  0  0  0  0999 V2000
   13.0593   -9.1387   -9.3893 N   0  0  0  0  0  0  0  0  0  0  0  0
   14.4623   -9.0400   -9.0450 C   0  0  1  0  0  0  0  0  0  0  0  0
   15.1412  -10.2556   -9.6090 C   0  0  0  0  0  0  0  0  0  0  0  0
   14.7718  -10.5591  -11.0127 C   0  0  0  0  0  0  0  0  0  0  0  0
   15.4082  -11.7373  -11.6043 C   0  0  0  0  0  0  0  0  0  0  0  0
   16.2563  -11.6555  -12.5256 O   0  0  0  0  0  0  0  0  0  0  0  0
   15.0371   -7.7975   -9.6011 C   0  0  0  0  0  0  0  0  0  0  0  0
   14.6487   -7.4105  -10.7324 O   0  0  0  0  0  0  0  0  0  0  0  0
   15.0901  -13.0114  -11.1586 O   0  0  0  0  0  0  0  0  0  0  0  0
   16.0005   -7.0051   -8.9480 N   0  0  0  0  0  0  0  0  0  0  0  0
   16.5822   -5.7910   -9.5320 C   0  0  1  0  0  0  0  0  0  0  0  0
   16.3582   -4.6950   -8.5319 C   0  0  0  0  0  0  0  0  0  0  0  0
   16.8531   -3.3546   -8.9625 C   0  0  0  0  0  0  0  0  0  0  0  0
   16.5594   -2.2564   -7.9617 C   0  0  0  0  0  0  0  0  0  0  0  0
   17.0242   -0.9224   -8.4951 C   0  0  0  0  0  0  0  0  0  0  0  0
   16.6311    0.1133   -7.5410 N   0  0  0  0  0  0  0  0  0  0  0  0
   18.0183   -6.0016   -9.8520 C   0  0  0  0  0  0  0  0  0  0  0  0
   18.7956   -6.2167   -8.8892 O   0  0  0  0  0  0  0  0  0  0  0  0
   19.9536   -8.5308  -11.6187 C   0  0  0  0  0  0  0  0  0  0  0  0
   20.2597   -7.2297  -12.3298 C   0  0  1  0  0  0  0  0  0  0  0  0
   19.4567   -7.1696  -13.4637 O   0  0  0  0  0  0  0  0  0  0  0  0
   19.9682   -6.0767  -11.3945 C   0  0  2  0  0  0  0  0  0  0  0  0
   18.5426   -5.9718  -11.1668 N   0  0  0  0  0  0  0  0  0  0  0  0
   20.5123   -4.8328  -11.9962 C   0  0  0  0  0  0  0  0  0  0  0  0
   21.8744   -4.6569  -12.1679 O   0  0  0  0  0  0  0  0  0  0  0  0
   19.7006   -3.9438  -12.3452 O   0  0  0  0  0  0  0  0  0  0  0  0
  2  7  1  0
  2  1  1  6
  3  2  1  0
  4  3  1  0
  5  4  1  0
  5  6  2  0
  7 10  1  0
  8  7  2  0
  9  5  1  0
 10 11  1  0
 11 12  1  1
 13 12  1  0
 13 14  1  0
 14 15  1  0
 15 16  1  0
 17 18  2  0
 17 11  1  0
 20 19  1  1
 20 22  1  0
 21 20  1  0
 22 23  1  6
 23 17  1  0
 24 22  1  0
 24 25  1  0
 26 24  2  0
M  END
$$$$
