EKT.pdb
     RDKit          3D

 26 25  0  0  1  0  0  0  0  0999 V2000
   17.5767  -10.0229  -14.0642 N   0  0  0  0  0  0  0  0  0  0  0  0
   17.8148   -9.4560  -12.7533 C   0  0  1  0  0  0  0  0  0  0  0  0
   18.9251   -8.4550  -12.9009 C   0  0  0  0  0  0  0  0  0  0  0  0
   20.2439   -9.0553  -13.2159 C   0  0  0  0  0  0  0  0  0  0  0  0
   21.3589   -8.1176  -13.3599 C   0  0  0  0  0  0  0  0  0  0  0  0
   22.3867   -8.1754  -12.6422 O   0  0  0  0  0  0  0  0  0  0  0  0
   16.5829   -8.8199  -12.2420 C   0  0  0  0  0  0  0  0  0  0  0  0
   15.7862   -8.3055  -13.0673 O   0  0  0  0  0  0  0  0  0  0  0  0
   21.3181   -7.1118  -14.3137 O   0  0  0  0  0  0  0  0  0  0  0  0
   16.2317   -8.7470  -10.8804 N   0  0  0  0  0  0  0  0  0  0  0  0
   15.0133   -8.0911  -10.3918 C   0  0  1  0  0  0  0  0  0  0  0  0
   14.2576   -9.1316   -9.6185 C   0  0  0  0  0  0  0  0  0  0  0  0
   12.9661   -8.6562   -9.0413 C   0  0  0  0  0  0  0  0  0  0  0  0
   12.1987   -9.7402   -8.3136 C   0  0  0  0  0  0  0  0  0  0  0  0
   10.8851   -9.1995   -7.8012 C   0  0  0  0  0  0  0  0  0  0  0  0
   10.1297  -10.3084   -7.2207 N   0  0  0  0  0  0  0  0  0  0  0  0
   15.3543   -6.8952   -9.5777 C   0  0  0  0  0  0  0  0  0  0  0  0
   16.1440   -7.0617   -8.6154 O   0  0  0  0  0  0  0  0  0  0  0  0
   17.0071   -3.5584  -10.4203 C   0  0  0  0  0  0  0  0  0  0  0  0
   15.6243   -3.3051   -9.8582 C   0  0  1  0  0  0  0  0  0  0  0  0
   14.7543   -3.1499  -10.9321 O   0  0  0  0  0  0  0  0  0  0  0  0
   15.2201   -4.4807   -8.9958 C   0  0  2  0  0  0  0  0  0  0  0  0
   14.8406   -5.6004   -9.8308 N   0  0  0  0  0  0  0  0  0  0  0  0
   14.1000   -4.0575   -8.1173 C   0  0  0  0  0  0  0  0  0  0  0  0
   12.8318   -4.5914   -8.2668 O   0  0  0  0  0  0  0  0  0  0  0  0
   14.3363   -3.2004   -7.2338 O   0  0  0  0  0  0  0  0  0  0  0  0
  2  7  1  0
  2  1  1  6
  3  2  1  0
  4  3  1  0
  5  4  1  0
  5  6  2  0
  7 10  1  0
  8  7  2  0
  9  5  1  0
 10 11  1  0
 11 12  1  1
 13 12  1  0
 13 14  1  0
 14 15  1  0
 15 16  1  0
 17 18  2  0
 17 11  1  0
 20 19  1  6
 20 22  1  0
 21 20  1  0
 22 23  1  6
 23 17  1  0
 24 22  1  0
 24 25  1  0
 26 24  2  0
M  END
$$$$
