EKT.pdb
     RDKit          3D

 26 25  0  0  1  0  0  0  0  0999 V2000
   19.8222  -13.0694  -16.1715 N   0  0  0  0  0  0  0  0  0  0  0  0
   19.4303  -11.7785  -16.6975 C   0  0  1  0  0  0  0  0  0  0  0  0
   18.1736  -11.3736  -15.9809 C   0  0  0  0  0  0  0  0  0  0  0  0
   17.0188  -12.2699  -16.2298 C   0  0  0  0  0  0  0  0  0  0  0  0
   16.4431  -12.9188  -15.0506 C   0  0  0  0  0  0  0  0  0  0  0  0
   15.8241  -12.2819  -14.1641 O   0  0  0  0  0  0  0  0  0  0  0  0
   20.5106  -10.7928  -16.4855 C   0  0  0  0  0  0  0  0  0  0  0  0
   21.1902  -10.8651  -15.4303 O   0  0  0  0  0  0  0  0  0  0  0  0
   16.5638  -14.2881  -14.8675 O   0  0  0  0  0  0  0  0  0  0  0  0
   20.8385   -9.7654  -17.3907 N   0  0  0  0  0  0  0  0  0  0  0  0
   21.9178   -8.7978  -17.1619 C   0  0  1  0  0  0  0  0  0  0  0  0
   22.5592   -8.5606  -18.4975 C   0  0  0  0  0  0  0  0  0  0  0  0
   23.6644   -7.5578  -18.4832 C   0  0  0  0  0  0  0  0  0  0  0  0
   24.2143   -7.2509  -19.8605 C   0  0  0  0  0  0  0  0  0  0  0  0
   25.3464   -6.2563  -19.7639 C   0  0  0  0  0  0  0  0  0  0  0  0
   25.9556   -6.1273  -21.0867 N   0  0  0  0  0  0  0  0  0  0  0  0
   21.3837   -7.5557  -16.5445 C   0  0  0  0  0  0  0  0  0  0  0  0
   20.5088   -6.9249  -17.1880 O   0  0  0  0  0  0  0  0  0  0  0  0
   19.4696   -7.0548  -13.5255 C   0  0  0  0  0  0  0  0  0  0  0  0
   20.6468   -6.1142  -13.3785 C   0  0  1  0  0  0  0  0  0  0  0  0
   21.5763   -6.7286  -12.5461 O   0  0  0  0  0  0  0  0  0  0  0  0
   21.2353   -5.8441  -14.7459 C   0  0  2  0  0  0  0  0  0  0  0  0
   21.8065   -7.0586  -15.2881 N   0  0  0  0  0  0  0  0  0  0  0  0
   22.2595   -4.7766  -14.6156 C   0  0  0  0  0  0  0  0  0  0  0  0
   23.5834   -5.0105  -14.9448 O   0  0  0  0  0  0  0  0  0  0  0  0
   21.8899   -3.6542  -14.1977 O   0  0  0  0  0  0  0  0  0  0  0  0
  2  7  1  0
  2  1  1  1
  3  2  1  0
  4  3  1  0
  5  4  1  0
  5  6  2  0
  7 10  1  0
  8  7  2  0
  9  5  1  0
 10 11  1  0
 11 12  1  6
 13 12  1  0
 13 14  1  0
 14 15  1  0
 15 16  1  0
 17 18  2  0
 17 11  1  0
 20 19  1  6
 20 22  1  0
 21 20  1  0
 22 23  1  1
 23 17  1  0
 24 22  1  0
 24 25  1  0
 26 24  2  0
M  END
$$$$
