EKT.pdb
     RDKit          3D

 26 25  0  0  1  0  0  0  0  0999 V2000
   27.8126  -22.4054  -17.1663 N   0  0  0  0  0  0  0  0  0  0  0  0
   27.6330  -21.2150  -16.3619 C   0  0  1  0  0  0  0  0  0  0  0  0
   27.2591  -20.1020  -17.2990 C   0  0  0  0  0  0  0  0  0  0  0  0
   26.4078  -20.5278  -18.4360 C   0  0  0  0  0  0  0  0  0  0  0  0
   26.7337  -19.9421  -19.7375 C   0  0  0  0  0  0  0  0  0  0  0  0
   27.2022  -18.7843  -19.8585 O   0  0  0  0  0  0  0  0  0  0  0  0
   26.5815  -21.4391  -15.3480 C   0  0  0  0  0  0  0  0  0  0  0  0
   25.5925  -22.1512  -15.6566 O   0  0  0  0  0  0  0  0  0  0  0  0
   26.5323  -20.6604  -20.9065 O   0  0  0  0  0  0  0  0  0  0  0  0
   26.6069  -20.9065  -14.0449 N   0  0  0  0  0  0  0  0  0  0  0  0
   25.5754  -21.1799  -13.0376 C   0  0  1  0  0  0  0  0  0  0  0  0
   26.1565  -20.7641  -11.7180 C   0  0  0  0  0  0  0  0  0  0  0  0
   25.2454  -20.9596  -10.5523 C   0  0  0  0  0  0  0  0  0  0  0  0
   25.8637  -20.5495   -9.2319 C   0  0  0  0  0  0  0  0  0  0  0  0
   24.9104  -20.8329   -8.0956 C   0  0  0  0  0  0  0  0  0  0  0  0
   25.5886  -20.5151   -6.8401 N   0  0  0  0  0  0  0  0  0  0  0  0
   24.3169  -20.4625  -13.3706 C   0  0  0  0  0  0  0  0  0  0  0  0
   24.3874  -19.2172  -13.5175 O   0  0  0  0  0  0  0  0  0  0  0  0
   22.2042  -20.1263  -16.1443 C   0  0  0  0  0  0  0  0  0  0  0  0
   21.2577  -20.6211  -15.0711 C   0  0  1  0  0  0  0  0  0  0  0  0
   21.0852  -21.9883  -15.2584 O   0  0  0  0  0  0  0  0  0  0  0  0
   21.8569  -20.3290  -13.7129 C   0  0  2  0  0  0  0  0  0  0  0  0
   23.0649  -21.1046  -13.5273 N   0  0  0  0  0  0  0  0  0  0  0  0
   20.8453  -20.6471  -12.6733 C   0  0  0  0  0  0  0  0  0  0  0  0
   19.6474  -19.9569  -12.6050 O   0  0  0  0  0  0  0  0  0  0  0  0
   21.1076  -21.5612  -11.8568 O   0  0  0  0  0  0  0  0  0  0  0  0
  2  7  1  0
  2  1  1  6
  3  2  1  0
  4  3  1  0
  5  4  1  0
  5  6  2  0
  7 10  1  0
  8  7  2  0
  9  5  1  0
 10 11  1  0
 11 12  1  1
 13 12  1  0
 13 14  1  0
 14 15  1  0
 15 16  1  0
 17 18  2  0
 17 11  1  0
 20 19  1  6
 20 22  1  0
 21 20  1  0
 22 23  1  1
 23 17  1  0
 24 22  1  0
 24 25  1  0
 26 24  2  0
M  END
$$$$
