EKT.pdb
     RDKit          3D

 26 25  0  0  1  0  0  0  0  0999 V2000
   17.1490  -14.4060  -17.3786 N   0  0  0  0  0  0  0  0  0  0  0  0
   17.9769  -13.7956  -16.3595 C   0  0  1  0  0  0  0  0  0  0  0  0
   19.3246  -14.4551  -16.4330 C   0  0  0  0  0  0  0  0  0  0  0  0
   19.2845  -15.8659  -16.8880 C   0  0  0  0  0  0  0  0  0  0  0  0
   20.5733  -16.5572  -16.9522 C   0  0  0  0  0  0  0  0  0  0  0  0
   21.5682  -16.0770  -17.5476 O   0  0  0  0  0  0  0  0  0  0  0  0
   18.0784  -12.3396  -16.5903 C   0  0  0  0  0  0  0  0  0  0  0  0
   18.4500  -11.9358  -17.7214 O   0  0  0  0  0  0  0  0  0  0  0  0
   20.7442  -17.7923  -16.3451 O   0  0  0  0  0  0  0  0  0  0  0  0
   17.7855  -11.3588  -15.6234 N   0  0  0  0  0  0  0  0  0  0  0  0
   17.8498   -9.9166  -15.8868 C   0  0  1  0  0  0  0  0  0  0  0  0
   16.5183   -9.3560  -15.4811 C   0  0  0  0  0  0  0  0  0  0  0  0
   16.3922   -7.8786  -15.6502 C   0  0  0  0  0  0  0  0  0  0  0  0
   15.0588   -7.3327  -15.1837 C   0  0  0  0  0  0  0  0  0  0  0  0
   15.0022   -5.8380  -15.3909 C   0  0  0  0  0  0  0  0  0  0  0  0
   13.6344   -5.3920  -15.1307 N   0  0  0  0  0  0  0  0  0  0  0  0
   18.9873   -9.3019  -15.1538 C   0  0  0  0  0  0  0  0  0  0  0  0
   19.0816   -9.5513  -13.9265 O   0  0  0  0  0  0  0  0  0  0  0  0
   22.6877   -9.6171  -15.2000 C   0  0  0  0  0  0  0  0  0  0  0  0
   22.3516   -8.1815  -15.5441 C   0  0  1  0  0  0  0  0  0  0  0  0
   22.3520   -8.0687  -16.9303 O   0  0  0  0  0  0  0  0  0  0  0  0
   20.9931   -7.8425  -14.9707 C   0  0  2  0  0  0  0  0  0  0  0  0
   19.9524   -8.4635  -15.7622 N   0  0  0  0  0  0  0  0  0  0  0  0
   20.8464   -6.3649  -14.9487 C   0  0  0  0  0  0  0  0  0  0  0  0
   19.8628   -5.7320  -15.6889 O   0  0  0  0  0  0  0  0  0  0  0  0
   21.6410   -5.7049  -14.2387 O   0  0  0  0  0  0  0  0  0  0  0  0
  2  7  1  0
  2  1  1  6
  3  2  1  0
  4  3  1  0
  5  4  1  0
  5  6  2  0
  7 10  1  0
  8  7  2  0
  9  5  1  0
 10 11  1  0
 11 12  1  1
 13 12  1  0
 13 14  1  0
 14 15  1  0
 15 16  1  0
 17 18  2  0
 17 11  1  0
 20 19  1  6
 20 22  1  0
 21 20  1  0
 22 23  1  6
 23 17  1  0
 24 22  1  0
 24 25  1  0
 26 24  2  0
M  END
$$$$
