GCW.pdb
     RDKit          3D

 25 26  0  0  1  0  0  0  0  0999 V2000
    7.7753  -12.7256   17.4253 N   0  0  0  0  0  0  0  0  0  0  0  0
    8.8121  -13.3535   18.2244 C   0  0  0  0  0  0  0  0  0  0  0  0
    8.2419  -14.4157   19.0864 C   0  0  0  0  0  0  0  0  0  0  0  0
    7.0032  -14.6091   19.1880 O   0  0  0  0  0  0  0  0  0  0  0  0
    9.1156  -15.2428   19.8222 N   0  0  0  0  0  0  0  0  0  0  0  0
    8.6154  -16.1750   20.8416 C   0  0  1  0  0  0  0  0  0  0  0  0
    8.7155  -17.5532   20.1955 C   0  0  0  0  0  0  0  0  0  0  0  0
   10.3680  -17.9386   19.6094 S   0  0  0  0  0  0  0  0  0  0  0  0
    9.4607  -16.1143   22.0546 C   0  0  0  0  0  0  0  0  0  0  0  0
   10.6924  -15.7908   21.9149 O   0  0  0  0  0  0  0  0  0  0  0  0
    9.0269  -16.3824   23.3716 N   0  0  0  0  0  0  0  0  0  0  0  0
    9.9200  -16.2630   24.5411 C   0  0  1  0  0  0  0  0  0  0  0  0
    9.6975  -14.9699   25.2451 C   0  0  0  0  0  0  0  0  0  0  0  0
    8.2924  -14.5996   25.4651 C   0  0  0  0  0  0  0  0  0  0  0  0
    7.2336  -15.5222   25.4486 C   0  0  0  0  0  0  0  0  0  0  0  0
    6.0757  -14.8997   25.7117 N   0  0  0  0  0  0  0  0  0  0  0  0
    6.3232  -13.5896   25.9033 C   0  0  0  0  0  0  0  0  0  0  0  0
    5.4491  -12.5557   26.1916 C   0  0  0  0  0  0  0  0  0  0  0  0
    5.9656  -11.2890   26.3312 C   0  0  0  0  0  0  0  0  0  0  0  0
    7.3153  -11.0583   26.1871 C   0  0  0  0  0  0  0  0  0  0  0  0
    8.1676  -12.1174   25.8975 C   0  0  0  0  0  0  0  0  0  0  0  0
    7.6857  -13.4048   25.7512 C   0  0  0  0  0  0  0  0  0  0  0  0
    9.8863  -17.4770   25.3488 C   0  0  0  0  0  0  0  0  0  0  0  0
    9.0135  -18.3671   25.2302 O   0  0  0  0  0  0  0  0  0  0  0  0
   10.8771  -17.6716   26.3142 O   0  0  0  0  0  0  0  0  0  0  0  0
  1  2  1  0
  3  2  1  0
  3  4  2  0
  5  3  1  0
  6  5  1  0
  6  9  1  0
  6  7  1  6
  8  7  1  0
  9 11  1  0
  9 10  2  0
 11 12  1  0
 12 13  1  1
 14 15  2  0
 14 13  1  0
 16 15  1  0
 17 22  2  0
 17 16  1  0
 18 17  1  0
 19 20  1  0
 19 18  2  0
 20 21  2  0
 21 22  1  0
 22 14  1  0
 23 12  1  0
 23 25  1  0
 24 23  2  0
M  END
$$$$
