GCW.pdb
     RDKit          3D

 25 26  0  0  1  0  0  0  0  0999 V2000
    6.5378  -20.8383   21.4938 N   0  0  0  0  0  0  0  0  0  0  0  0
    6.2753  -19.4784   21.9292 C   0  0  0  0  0  0  0  0  0  0  0  0
    7.3019  -18.5489   21.4013 C   0  0  0  0  0  0  0  0  0  0  0  0
    8.3526  -18.9530   20.8401 O   0  0  0  0  0  0  0  0  0  0  0  0
    7.0986  -17.1594   21.5305 N   0  0  0  0  0  0  0  0  0  0  0  0
    8.1131  -16.1903   21.0945 C   0  0  1  0  0  0  0  0  0  0  0  0
    7.3305  -14.9205   20.7748 C   0  0  0  0  0  0  0  0  0  0  0  0
    6.0496  -14.5597   21.9797 S   0  0  0  0  0  0  0  0  0  0  0  0
    9.0831  -15.9350   22.1824 C   0  0  0  0  0  0  0  0  0  0  0  0
   10.1208  -15.2341   21.9120 O   0  0  0  0  0  0  0  0  0  0  0  0
    8.9667  -16.3986   23.5113 N   0  0  0  0  0  0  0  0  0  0  0  0
   10.0444  -16.2334   24.5067 C   0  0  1  0  0  0  0  0  0  0  0  0
    9.8877  -14.9502   25.2459 C   0  0  0  0  0  0  0  0  0  0  0  0
    8.5100  -14.5905   25.6097 C   0  0  0  0  0  0  0  0  0  0  0  0
    7.4438  -15.5046   25.6161 C   0  0  0  0  0  0  0  0  0  0  0  0
    6.3187  -14.8976   26.0200 N   0  0  0  0  0  0  0  0  0  0  0  0
    6.5953  -13.6061   26.2840 C   0  0  0  0  0  0  0  0  0  0  0  0
    5.7596  -12.5919   26.7188 C   0  0  0  0  0  0  0  0  0  0  0  0
    6.2994  -11.3411   26.9052 C   0  0  0  0  0  0  0  0  0  0  0  0
    7.6347  -11.1067   26.6649 C   0  0  0  0  0  0  0  0  0  0  0  0
    8.4483  -12.1458   26.2289 C   0  0  0  0  0  0  0  0  0  0  0  0
    7.9422  -13.4170   26.0313 C   0  0  0  0  0  0  0  0  0  0  0  0
   10.2105  -17.4452   25.3011 C   0  0  0  0  0  0  0  0  0  0  0  0
    9.3950  -18.3955   25.2988 O   0  0  0  0  0  0  0  0  0  0  0  0
   11.3384  -17.5670   26.1164 O   0  0  0  0  0  0  0  0  0  0  0  0
  1  2  1  0
  3  2  1  0
  3  4  2  0
  5  3  1  0
  6  5  1  0
  6  9  1  0
  6  7  1  1
  8  7  1  0
  9 11  1  0
  9 10  2  0
 11 12  1  0
 12 13  1  1
 14 15  2  0
 14 13  1  0
 16 15  1  0
 17 22  2  0
 17 16  1  0
 18 17  1  0
 19 20  1  0
 19 18  2  0
 20 21  2  0
 21 22  1  0
 22 14  1  0
 23 12  1  0
 23 25  1  0
 24 23  2  0
M  END
$$$$
