GCW.pdb
     RDKit          3D

 25 26  0  0  1  0  0  0  0  0999 V2000
    5.5761  -15.4389   20.3031 N   0  0  0  0  0  0  0  0  0  0  0  0
    6.6371  -14.7773   21.0408 C   0  0  0  0  0  0  0  0  0  0  0  0
    7.5256  -15.7701   21.6899 C   0  0  0  0  0  0  0  0  0  0  0  0
    7.0808  -16.7804   22.2929 O   0  0  0  0  0  0  0  0  0  0  0  0
    8.9218  -15.5800   21.6328 N   0  0  0  0  0  0  0  0  0  0  0  0
    9.8505  -16.4945   22.3107 C   0  0  1  0  0  0  0  0  0  0  0  0
   11.1854  -16.2958   21.5996 C   0  0  0  0  0  0  0  0  0  0  0  0
   11.1638  -16.8490   19.8920 S   0  0  0  0  0  0  0  0  0  0  0  0
    9.9731  -16.1374   23.7414 C   0  0  0  0  0  0  0  0  0  0  0  0
   10.2689  -14.9265   24.0369 O   0  0  0  0  0  0  0  0  0  0  0  0
    9.7893  -17.0221   24.8269 N   0  0  0  0  0  0  0  0  0  0  0  0
   10.0414  -16.6245   26.2261 C   0  0  1  0  0  0  0  0  0  0  0  0
    8.7709  -16.5904   27.0021 C   0  0  0  0  0  0  0  0  0  0  0  0
    7.7426  -15.6695   26.4975 C   0  0  0  0  0  0  0  0  0  0  0  0
    6.6034  -16.0881   25.7908 C   0  0  0  0  0  0  0  0  0  0  0  0
    5.8342  -15.0323   25.4893 N   0  0  0  0  0  0  0  0  0  0  0  0
    6.4206  -13.9191   25.9701 C   0  0  0  0  0  0  0  0  0  0  0  0
    6.0087  -12.5995   25.8993 C   0  0  0  0  0  0  0  0  0  0  0  0
    6.8079  -11.6384   26.4723 C   0  0  0  0  0  0  0  0  0  0  0  0
    7.9851  -11.9821   27.0983 C   0  0  0  0  0  0  0  0  0  0  0  0
    8.3717  -13.3161   27.1528 C   0  0  0  0  0  0  0  0  0  0  0  0
    7.5940  -14.3105   26.5893 C   0  0  0  0  0  0  0  0  0  0  0  0
   11.1491  -17.3855   26.7928 C   0  0  0  0  0  0  0  0  0  0  0  0
   11.6317  -17.1703   27.9281 O   0  0  0  0  0  0  0  0  0  0  0  0
   11.7147  -18.4158   26.0377 O   0  0  0  0  0  0  0  0  0  0  0  0
  1  2  1  0
  3  2  1  0
  3  4  2  0
  5  3  1  0
  6  5  1  0
  6  9  1  0
  6  7  1  6
  8  7  1  0
  9 11  1  0
  9 10  2  0
 11 12  1  0
 12 13  1  1
 14 15  2  0
 14 13  1  0
 16 15  1  0
 17 22  2  0
 17 16  1  0
 18 17  1  0
 19 20  1  0
 19 18  2  0
 20 21  2  0
 21 22  1  0
 22 14  1  0
 23 12  1  0
 23 25  1  0
 24 23  2  0
M  END
$$$$
