GCW.pdb
     RDKit          3D

 25 26  0  0  1  0  0  0  0  0999 V2000
    9.3292  -17.3043   17.0317 N   0  0  0  0  0  0  0  0  0  0  0  0
   10.1881  -17.3831   18.1995 C   0  0  0  0  0  0  0  0  0  0  0  0
    9.3965  -17.2507   19.4454 C   0  0  0  0  0  0  0  0  0  0  0  0
    8.1625  -17.4905   19.4889 O   0  0  0  0  0  0  0  0  0  0  0  0
   10.0454  -16.8410   20.6285 N   0  0  0  0  0  0  0  0  0  0  0  0
    9.3761  -16.9068   21.9347 C   0  0  1  0  0  0  0  0  0  0  0  0
    8.9635  -18.3671   22.0907 C   0  0  0  0  0  0  0  0  0  0  0  0
   10.3613  -19.4921   22.1499 S   0  0  0  0  0  0  0  0  0  0  0  0
   10.3121  -16.5200   23.0135 C   0  0  0  0  0  0  0  0  0  0  0  0
   11.4838  -17.0380   23.0088 O   0  0  0  0  0  0  0  0  0  0  0  0
   10.0283  -15.6175   24.0621 N   0  0  0  0  0  0  0  0  0  0  0  0
   10.1474  -15.9915   25.4852 C   0  0  1  0  0  0  0  0  0  0  0  0
    8.8510  -16.5073   26.0056 C   0  0  0  0  0  0  0  0  0  0  0  0
    7.7126  -15.5834   25.9036 C   0  0  0  0  0  0  0  0  0  0  0  0
    6.3994  -15.9958   25.6242 C   0  0  0  0  0  0  0  0  0  0  0  0
    5.5742  -14.9391   25.6263 N   0  0  0  0  0  0  0  0  0  0  0  0
    6.2911  -13.8315   25.8973 C   0  0  0  0  0  0  0  0  0  0  0  0
    5.8810  -12.5133   25.9981 C   0  0  0  0  0  0  0  0  0  0  0  0
    6.8293  -11.5581   26.2795 C   0  0  0  0  0  0  0  0  0  0  0  0
    8.1498  -11.9063   26.4552 C   0  0  0  0  0  0  0  0  0  0  0  0
    8.5305  -13.2387   26.3476 C   0  0  0  0  0  0  0  0  0  0  0  0
    7.6057  -14.2273   26.0671 C   0  0  0  0  0  0  0  0  0  0  0  0
   11.3313  -16.8129   25.7109 C   0  0  0  0  0  0  0  0  0  0  0  0
   12.4168  -16.3639   26.1449 O   0  0  0  0  0  0  0  0  0  0  0  0
   11.2661  -18.1800   25.4312 O   0  0  0  0  0  0  0  0  0  0  0  0
  1  2  1  0
  3  2  1  0
  3  4  2  0
  5  3  1  0
  6  5  1  0
  6  9  1  0
  6  7  1  1
  8  7  1  0
  9 11  1  0
  9 10  2  0
 11 12  1  0
 12 13  1  6
 14 15  2  0
 14 13  1  0
 16 15  1  0
 17 22  2  0
 17 16  1  0
 18 17  1  0
 19 20  1  0
 19 18  2  0
 20 21  2  0
 21 22  1  0
 22 14  1  0
 23 12  1  0
 23 25  1  0
 24 23  2  0
M  END
$$$$
