GCW.pdb
     RDKit          3D

 25 26  0  0  1  0  0  0  0  0999 V2000
    7.2588  -12.8787   17.2618 N   0  0  0  0  0  0  0  0  0  0  0  0
    8.5792  -13.4287   17.5110 C   0  0  0  0  0  0  0  0  0  0  0  0
    8.5152  -14.5180   18.5139 C   0  0  0  0  0  0  0  0  0  0  0  0
    7.4807  -14.7523   19.1899 O   0  0  0  0  0  0  0  0  0  0  0  0
    9.6533  -15.3243   18.7223 N   0  0  0  0  0  0  0  0  0  0  0  0
    9.6346  -16.4518   19.6641 C   0  0  1  0  0  0  0  0  0  0  0  0
   10.8199  -17.3218   19.2576 C   0  0  0  0  0  0  0  0  0  0  0  0
   11.1144  -18.6849   20.3881 S   0  0  0  0  0  0  0  0  0  0  0  0
    9.8058  -15.9670   21.0517 C   0  0  0  0  0  0  0  0  0  0  0  0
   10.6740  -15.0498   21.2665 O   0  0  0  0  0  0  0  0  0  0  0  0
    9.0879  -16.4287   22.1768 N   0  0  0  0  0  0  0  0  0  0  0  0
    9.1730  -15.7725   23.4965 C   0  0  1  0  0  0  0  0  0  0  0  0
    7.8220  -15.3632   23.9705 C   0  0  0  0  0  0  0  0  0  0  0  0
    7.7668  -14.8078   25.3300 C   0  0  0  0  0  0  0  0  0  0  0  0
    8.2113  -15.4972   26.4700 C   0  0  0  0  0  0  0  0  0  0  0  0
    8.0658  -14.7290   27.5591 N   0  0  0  0  0  0  0  0  0  0  0  0
    7.5376  -13.5472   27.1869 C   0  0  0  0  0  0  0  0  0  0  0  0
    7.2032  -12.4450   27.9547 C   0  0  0  0  0  0  0  0  0  0  0  0
    6.6625  -11.3516   27.3199 C   0  0  0  0  0  0  0  0  0  0  0  0
    6.4600  -11.3560   25.9580 C   0  0  0  0  0  0  0  0  0  0  0  0
    6.8061  -12.4781   25.2143 C   0  0  0  0  0  0  0  0  0  0  0  0
    7.3531  -13.5957   25.8168 C   0  0  0  0  0  0  0  0  0  0  0  0
    9.9942  -16.5531   24.4149 C   0  0  0  0  0  0  0  0  0  0  0  0
    9.8625  -17.7862   24.5889 O   0  0  0  0  0  0  0  0  0  0  0  0
   10.9881  -15.9020   25.1497 O   0  0  0  0  0  0  0  0  0  0  0  0
  1  2  1  0
  3  2  1  0
  3  4  2  0
  5  3  1  0
  6  5  1  0
  6  9  1  0
  6  7  1  6
  8  7  1  0
  9 11  1  0
  9 10  2  0
 11 12  1  0
 12 13  1  1
 14 15  2  0
 14 13  1  0
 16 15  1  0
 17 22  2  0
 17 16  1  0
 18 17  1  0
 19 20  1  0
 19 18  2  0
 20 21  2  0
 21 22  1  0
 22 14  1  0
 23 12  1  0
 23 25  1  0
 24 23  2  0
M  END
$$$$
