GCW.pdb
     RDKit          3D

 25 26  0  0  1  0  0  0  0  0999 V2000
    7.2922  -12.6038   18.3816 N   0  0  0  0  0  0  0  0  0  0  0  0
    8.4826  -13.1129   19.0386 C   0  0  0  0  0  0  0  0  0  0  0  0
    8.1361  -14.1910   19.9948 C   0  0  0  0  0  0  0  0  0  0  0  0
    6.9466  -14.4753   20.2883 O   0  0  0  0  0  0  0  0  0  0  0  0
    9.1744  -14.9281   20.6010 N   0  0  0  0  0  0  0  0  0  0  0  0
    8.8954  -16.0999   21.4422 C   0  0  1  0  0  0  0  0  0  0  0  0
    9.4666  -17.2834   20.6675 C   0  0  0  0  0  0  0  0  0  0  0  0
    9.3761  -18.8297   21.5749 S   0  0  0  0  0  0  0  0  0  0  0  0
    9.5733  -15.9680   22.7508 C   0  0  0  0  0  0  0  0  0  0  0  0
   10.7008  -15.3609   22.7867 O   0  0  0  0  0  0  0  0  0  0  0  0
    9.0827  -16.4557   23.9821 N   0  0  0  0  0  0  0  0  0  0  0  0
    9.8131  -16.2800   25.2530 C   0  0  1  0  0  0  0  0  0  0  0  0
    8.8642  -16.1164   26.3888 C   0  0  0  0  0  0  0  0  0  0  0  0
    7.7184  -15.2312   26.1372 C   0  0  0  0  0  0  0  0  0  0  0  0
    6.4567  -15.6907   25.7254 C   0  0  0  0  0  0  0  0  0  0  0  0
    5.6066  -14.6605   25.6084 N   0  0  0  0  0  0  0  0  0  0  0  0
    6.2572  -13.5251   25.9273 C   0  0  0  0  0  0  0  0  0  0  0  0
    5.8010  -12.2183   25.9472 C   0  0  0  0  0  0  0  0  0  0  0  0
    6.6846  -11.2278   26.3062 C   0  0  0  0  0  0  0  0  0  0  0  0
    7.9868  -11.5304   26.6359 C   0  0  0  0  0  0  0  0  0  0  0  0
    8.4148  -12.8524   26.6065 C   0  0  0  0  0  0  0  0  0  0  0  0
    7.5554  -13.8756   26.2519 C   0  0  0  0  0  0  0  0  0  0  0  0
   10.8588  -17.2865   25.3967 C   0  0  0  0  0  0  0  0  0  0  0  0
   10.9162  -18.3326   24.7107 O   0  0  0  0  0  0  0  0  0  0  0  0
   11.8600  -17.0864   26.3502 O   0  0  0  0  0  0  0  0  0  0  0  0
  1  2  1  0
  3  2  1  0
  3  4  2  0
  5  3  1  0
  6  5  1  0
  6  9  1  0
  6  7  1  6
  8  7  1  0
  9 11  1  0
  9 10  2  0
 11 12  1  0
 12 13  1  1
 14 15  2  0
 14 13  1  0
 16 15  1  0
 17 22  2  0
 17 16  1  0
 18 17  1  0
 19 20  1  0
 19 18  2  0
 20 21  2  0
 21 22  1  0
 22 14  1  0
 23 12  1  0
 23 25  1  0
 24 23  2  0
M  END
$$$$
