GCW.pdb
     RDKit          3D

 25 26  0  0  1  0  0  0  0  0999 V2000
    7.7068  -12.1853   18.6501 N   0  0  0  0  0  0  0  0  0  0  0  0
    8.6734  -13.2204   18.9693 C   0  0  0  0  0  0  0  0  0  0  0  0
    8.1492  -14.1246   20.0201 C   0  0  0  0  0  0  0  0  0  0  0  0
    7.1358  -13.8414   20.7093 O   0  0  0  0  0  0  0  0  0  0  0  0
    8.8070  -15.3486   20.2606 N   0  0  0  0  0  0  0  0  0  0  0  0
    8.3942  -16.2418   21.3517 C   0  0  1  0  0  0  0  0  0  0  0  0
    8.3994  -17.6385   20.7382 C   0  0  0  0  0  0  0  0  0  0  0  0
    8.1325  -18.9398   21.9456 S   0  0  0  0  0  0  0  0  0  0  0  0
    9.3600  -16.1691   22.4704 C   0  0  0  0  0  0  0  0  0  0  0  0
   10.6031  -16.0467   22.1861 O   0  0  0  0  0  0  0  0  0  0  0  0
    9.0315  -16.2213   23.8430 N   0  0  0  0  0  0  0  0  0  0  0  0
   10.0528  -16.1509   24.9067 C   0  0  1  0  0  0  0  0  0  0  0  0
    9.6829  -15.1310   25.9267 C   0  0  0  0  0  0  0  0  0  0  0  0
    8.2709  -14.7233   25.9347 C   0  0  0  0  0  0  0  0  0  0  0  0
    7.2006  -15.6256   25.8221 C   0  0  0  0  0  0  0  0  0  0  0  0
    6.0342  -14.9683   25.8933 N   0  0  0  0  0  0  0  0  0  0  0  0
    6.2873  -13.6547   26.0493 C   0  0  0  0  0  0  0  0  0  0  0  0
    5.4093  -12.5906   26.1630 C   0  0  0  0  0  0  0  0  0  0  0  0
    5.9347  -11.3280   26.3063 C   0  0  0  0  0  0  0  0  0  0  0  0
    7.2971  -11.1305   26.3351 C   0  0  0  0  0  0  0  0  0  0  0  0
    8.1530  -12.2195   26.2184 C   0  0  0  0  0  0  0  0  0  0  0  0
    7.6622  -13.5038   26.0742 C   0  0  0  0  0  0  0  0  0  0  0  0
   10.3955  -17.4838   25.3894 C   0  0  0  0  0  0  0  0  0  0  0  0
    9.7266  -18.5104   25.1307 O   0  0  0  0  0  0  0  0  0  0  0  0
   11.5315  -17.6400   26.1873 O   0  0  0  0  0  0  0  0  0  0  0  0
  1  2  1  0
  3  2  1  0
  3  4  2  0
  5  3  1  0
  6  5  1  0
  6  9  1  0
  6  7  1  6
  8  7  1  0
  9 11  1  0
  9 10  2  0
 11 12  1  0
 12 13  1  1
 14 15  2  0
 14 13  1  0
 16 15  1  0
 17 22  2  0
 17 16  1  0
 18 17  1  0
 19 20  1  0
 19 18  2  0
 20 21  2  0
 21 22  1  0
 22 14  1  0
 23 12  1  0
 23 25  1  0
 24 23  2  0
M  END
$$$$
