GCW.pdb
     RDKit          3D

 25 26  0  0  1  0  0  0  0  0999 V2000
    4.9760  -19.1167   22.1672 N   0  0  0  0  0  0  0  0  0  0  0  0
    4.9920  -17.6651   22.1462 C   0  0  0  0  0  0  0  0  0  0  0  0
    6.2412  -17.1611   21.5279 C   0  0  0  0  0  0  0  0  0  0  0  0
    7.1741  -17.9263   21.1728 O   0  0  0  0  0  0  0  0  0  0  0  0
    6.3948  -15.7735   21.3283 N   0  0  0  0  0  0  0  0  0  0  0  0
    7.6954  -15.1866   20.9784 C   0  0  1  0  0  0  0  0  0  0  0  0
    7.3596  -13.8447   20.3352 C   0  0  0  0  0  0  0  0  0  0  0  0
    8.7948  -13.0133   19.6485 S   0  0  0  0  0  0  0  0  0  0  0  0
    8.5126  -14.9823   22.1950 C   0  0  0  0  0  0  0  0  0  0  0  0
    8.7227  -13.7801   22.5847 O   0  0  0  0  0  0  0  0  0  0  0  0
    9.0891  -16.0065   22.9781 N   0  0  0  0  0  0  0  0  0  0  0  0
   10.0078  -15.7264   24.0992 C   0  0  1  0  0  0  0  0  0  0  0  0
    9.3566  -16.0294   25.4036 C   0  0  0  0  0  0  0  0  0  0  0  0
    8.0723  -15.3566   25.6441 C   0  0  0  0  0  0  0  0  0  0  0  0
    6.8284  -16.0036   25.5623 C   0  0  0  0  0  0  0  0  0  0  0  0
    5.8424  -15.1466   25.8635 N   0  0  0  0  0  0  0  0  0  0  0  0
    6.3842  -13.9458   26.1439 C   0  0  0  0  0  0  0  0  0  0  0  0
    5.7694  -12.7575   26.4990 C   0  0  0  0  0  0  0  0  0  0  0  0
    6.5636  -11.6581   26.7253 C   0  0  0  0  0  0  0  0  0  0  0  0
    7.9325  -11.7398   26.6011 C   0  0  0  0  0  0  0  0  0  0  0  0
    8.5202  -12.9474   26.2429 C   0  0  0  0  0  0  0  0  0  0  0  0
    7.7549  -14.0745   26.0085 C   0  0  0  0  0  0  0  0  0  0  0  0
   11.3206  -16.3137   23.8565 C   0  0  0  0  0  0  0  0  0  0  0  0
   11.5691  -17.0934   22.9085 O   0  0  0  0  0  0  0  0  0  0  0  0
   12.3704  -15.9983   24.7225 O   0  0  0  0  0  0  0  0  0  0  0  0
  1  2  1  0
  3  2  1  0
  3  4  2  0
  5  3  1  0
  6  5  1  0
  6  9  1  0
  6  7  1  1
  8  7  1  0
  9 11  1  0
  9 10  2  0
 11 12  1  0
 12 13  1  1
 14 15  2  0
 14 13  1  0
 16 15  1  0
 17 22  2  0
 17 16  1  0
 18 17  1  0
 19 20  1  0
 19 18  2  0
 20 21  2  0
 21 22  1  0
 22 14  1  0
 23 12  1  0
 23 25  1  0
 24 23  2  0
M  END
$$$$
