GCW.pdb
     RDKit          3D

 25 26  0  0  1  0  0  0  0  0999 V2000
    7.2802  -12.8034   18.0439 N   0  0  0  0  0  0  0  0  0  0  0  0
    8.2172  -12.8978   19.1488 C   0  0  0  0  0  0  0  0  0  0  0  0
    7.9884  -14.1369   19.9290 C   0  0  0  0  0  0  0  0  0  0  0  0
    6.8512  -14.6625   20.0416 O   0  0  0  0  0  0  0  0  0  0  0  0
    9.0822  -14.7534   20.5712 N   0  0  0  0  0  0  0  0  0  0  0  0
    8.9149  -15.9724   21.3740 C   0  0  1  0  0  0  0  0  0  0  0  0
    9.5273  -17.0852   20.5293 C   0  0  0  0  0  0  0  0  0  0  0  0
    9.5566  -18.6722   21.3680 S   0  0  0  0  0  0  0  0  0  0  0  0
    9.6379  -15.8464   22.6589 C   0  0  0  0  0  0  0  0  0  0  0  0
   10.8046  -15.3173   22.6443 O   0  0  0  0  0  0  0  0  0  0  0  0
    9.1516  -16.2606   23.9185 N   0  0  0  0  0  0  0  0  0  0  0  0
    9.9185  -16.0736   25.1659 C   0  0  1  0  0  0  0  0  0  0  0  0
    9.0029  -15.8897   26.3258 C   0  0  0  0  0  0  0  0  0  0  0  0
    7.7789  -15.1231   26.0538 C   0  0  0  0  0  0  0  0  0  0  0  0
    6.5857  -15.7020   25.5915 C   0  0  0  0  0  0  0  0  0  0  0  0
    5.6363  -14.7636   25.4667 N   0  0  0  0  0  0  0  0  0  0  0  0
    6.1539  -13.5743   25.8295 C   0  0  0  0  0  0  0  0  0  0  0  0
    5.5628  -12.3230   25.8600 C   0  0  0  0  0  0  0  0  0  0  0  0
    6.3261  -11.2543   26.2676 C   0  0  0  0  0  0  0  0  0  0  0  0
    7.6420  -11.4270   26.6343 C   0  0  0  0  0  0  0  0  0  0  0  0
    8.2071  -12.6963   26.5929 C   0  0  0  0  0  0  0  0  0  0  0  0
    7.4711  -13.7949   26.1899 C   0  0  0  0  0  0  0  0  0  0  0  0
   10.9618  -17.0849   25.2931 C   0  0  0  0  0  0  0  0  0  0  0  0
   11.9536  -16.9695   26.0489 O   0  0  0  0  0  0  0  0  0  0  0  0
   10.8631  -18.2538   24.5346 O   0  0  0  0  0  0  0  0  0  0  0  0
  1  2  1  0
  3  2  1  0
  3  4  2  0
  5  3  1  0
  6  5  1  0
  6  9  1  0
  6  7  1  6
  8  7  1  0
  9 11  1  0
  9 10  2  0
 11 12  1  0
 12 13  1  1
 14 15  2  0
 14 13  1  0
 16 15  1  0
 17 22  2  0
 17 16  1  0
 18 17  1  0
 19 20  1  0
 19 18  2  0
 20 21  2  0
 21 22  1  0
 22 14  1  0
 23 12  1  0
 23 25  1  0
 24 23  2  0
M  END
$$$$
