GCW.pdb
     RDKit          3D

 25 26  0  0  1  0  0  0  0  0999 V2000
    8.0549  -12.2192   18.1829 N   0  0  0  0  0  0  0  0  0  0  0  0
    8.6308  -13.5470   18.2972 C   0  0  0  0  0  0  0  0  0  0  0  0
    8.2125  -14.1953   19.5625 C   0  0  0  0  0  0  0  0  0  0  0  0
    7.8371  -13.5362   20.5659 O   0  0  0  0  0  0  0  0  0  0  0  0
    8.2345  -15.6027   19.6505 N   0  0  0  0  0  0  0  0  0  0  0  0
    7.7829  -16.3044   20.8597 C   0  0  1  0  0  0  0  0  0  0  0  0
    7.4787  -17.7260   20.3973 C   0  0  0  0  0  0  0  0  0  0  0  0
    7.2386  -18.8734   21.7570 S   0  0  0  0  0  0  0  0  0  0  0  0
    8.8545  -16.3149   21.8800 C   0  0  0  0  0  0  0  0  0  0  0  0
   10.0438  -16.6044   21.5016 O   0  0  0  0  0  0  0  0  0  0  0  0
    8.6839  -16.0291   23.2525 N   0  0  0  0  0  0  0  0  0  0  0  0
    9.8146  -15.9864   24.2007 C   0  0  1  0  0  0  0  0  0  0  0  0
    9.6844  -14.8264   25.1253 C   0  0  0  0  0  0  0  0  0  0  0  0
    8.3109  -14.4683   25.5062 C   0  0  0  0  0  0  0  0  0  0  0  0
    7.2711  -15.4036   25.6352 C   0  0  0  0  0  0  0  0  0  0  0  0
    6.1445  -14.7896   26.0242 N   0  0  0  0  0  0  0  0  0  0  0  0
    6.3945  -13.4731   26.1597 C   0  0  0  0  0  0  0  0  0  0  0  0
    5.5469  -12.4439   26.5317 C   0  0  0  0  0  0  0  0  0  0  0  0
    6.0582  -11.1686   26.5839 C   0  0  0  0  0  0  0  0  0  0  0  0
    7.3774  -10.9248   26.2737 C   0  0  0  0  0  0  0  0  0  0  0  0
    8.2036  -11.9795   25.9034 C   0  0  0  0  0  0  0  0  0  0  0  0
    7.7260  -13.2753   25.8407 C   0  0  0  0  0  0  0  0  0  0  0  0
   10.0412  -17.2961   24.8011 C   0  0  0  0  0  0  0  0  0  0  0  0
   11.0659  -17.5924   25.4572 O   0  0  0  0  0  0  0  0  0  0  0  0
    9.0691  -18.2869   24.6434 O   0  0  0  0  0  0  0  0  0  0  0  0
  1  2  1  0
  3  2  1  0
  3  4  2  0
  5  3  1  0
  6  5  1  0
  6  9  1  0
  6  7  1  6
  8  7  1  0
  9 11  1  0
  9 10  2  0
 11 12  1  0
 12 13  1  1
 14 15  2  0
 14 13  1  0
 16 15  1  0
 17 22  2  0
 17 16  1  0
 18 17  1  0
 19 20  1  0
 19 18  2  0
 20 21  2  0
 21 22  1  0
 22 14  1  0
 23 12  1  0
 23 25  1  0
 24 23  2  0
M  END
$$$$
