GCW.pdb
     RDKit          3D

 25 26  0  0  1  0  0  0  0  0999 V2000
    9.1317  -19.6385   19.7575 N   0  0  0  0  0  0  0  0  0  0  0  0
    8.3379  -18.8088   20.6460 C   0  0  0  0  0  0  0  0  0  0  0  0
    9.0310  -17.5304   20.9319 C   0  0  0  0  0  0  0  0  0  0  0  0
   10.2391  -17.3382   20.6392 O   0  0  0  0  0  0  0  0  0  0  0  0
    8.3146  -16.4878   21.5553 N   0  0  0  0  0  0  0  0  0  0  0  0
    8.9638  -15.2225   21.9242 C   0  0  1  0  0  0  0  0  0  0  0  0
    7.8343  -14.1977   21.9580 C   0  0  0  0  0  0  0  0  0  0  0  0
    6.3243  -14.8365   22.6889 S   0  0  0  0  0  0  0  0  0  0  0  0
    9.5935  -15.3363   23.2584 C   0  0  0  0  0  0  0  0  0  0  0  0
   10.3964  -14.4084   23.6267 O   0  0  0  0  0  0  0  0  0  0  0  0
    9.3858  -16.3887   24.1770 N   0  0  0  0  0  0  0  0  0  0  0  0
   10.2244  -16.5706   25.3783 C   0  0  1  0  0  0  0  0  0  0  0  0
    9.6049  -15.9083   26.5594 C   0  0  0  0  0  0  0  0  0  0  0  0
    8.2755  -15.3233   26.3353 C   0  0  0  0  0  0  0  0  0  0  0  0
    7.1336  -16.0820   26.0304 C   0  0  0  0  0  0  0  0  0  0  0  0
    6.0653  -15.2805   25.9137 N   0  0  0  0  0  0  0  0  0  0  0  0
    6.4534  -14.0089   26.1297 C   0  0  0  0  0  0  0  0  0  0  0  0
    5.7114  -12.8405   26.1096 C   0  0  0  0  0  0  0  0  0  0  0  0
    6.3613  -11.6545   26.3581 C   0  0  0  0  0  0  0  0  0  0  0  0
    7.7131  -11.6327   26.6191 C   0  0  0  0  0  0  0  0  0  0  0  0
    8.4308  -12.8230   26.6323 C   0  0  0  0  0  0  0  0  0  0  0  0
    7.8121  -14.0349   26.3883 C   0  0  0  0  0  0  0  0  0  0  0  0
   10.6243  -17.9651   25.5287 C   0  0  0  0  0  0  0  0  0  0  0  0
   10.1170  -18.9079   24.8791 O   0  0  0  0  0  0  0  0  0  0  0  0
   11.6286  -18.2828   26.4462 O   0  0  0  0  0  0  0  0  0  0  0  0
  1  2  1  0
  3  2  1  0
  3  4  2  0
  5  3  1  0
  6  5  1  0
  6  9  1  0
  6  7  1  1
  8  7  1  0
  9 11  1  0
  9 10  2  0
 11 12  1  0
 12 13  1  1
 14 15  2  0
 14 13  1  0
 16 15  1  0
 17 22  2  0
 17 16  1  0
 18 17  1  0
 19 20  1  0
 19 18  2  0
 20 21  2  0
 21 22  1  0
 22 14  1  0
 23 12  1  0
 23 25  1  0
 24 23  2  0
M  END
$$$$
