GCW.pdb
     RDKit          3D

 25 26  0  0  1  0  0  0  0  0999 V2000
    8.1671  -20.1856   20.1793 N   0  0  0  0  0  0  0  0  0  0  0  0
    7.6067  -19.1240   20.9958 C   0  0  0  0  0  0  0  0  0  0  0  0
    8.4699  -17.9199   20.9592 C   0  0  0  0  0  0  0  0  0  0  0  0
    9.6370  -17.9409   20.4906 O   0  0  0  0  0  0  0  0  0  0  0  0
    7.9697  -16.7032   21.4674 N   0  0  0  0  0  0  0  0  0  0  0  0
    8.8333  -15.5262   21.6328 C   0  0  1  0  0  0  0  0  0  0  0  0
    7.8936  -14.3305   21.5126 C   0  0  0  0  0  0  0  0  0  0  0  0
    6.4537  -14.4557   22.5772 S   0  0  0  0  0  0  0  0  0  0  0  0
    9.4760  -15.5418   22.9655 C   0  0  0  0  0  0  0  0  0  0  0  0
   10.3228  -14.6195   23.2368 O   0  0  0  0  0  0  0  0  0  0  0  0
    9.2363  -16.4933   23.9813 N   0  0  0  0  0  0  0  0  0  0  0  0
    9.9715  -16.4897   25.2615 C   0  0  1  0  0  0  0  0  0  0  0  0
    9.0271  -16.4547   26.4123 C   0  0  0  0  0  0  0  0  0  0  0  0
    7.8264  -15.6285   26.2241 C   0  0  0  0  0  0  0  0  0  0  0  0
    6.5820  -16.1445   25.8268 C   0  0  0  0  0  0  0  0  0  0  0  0
    5.6719  -15.1617   25.7711 N   0  0  0  0  0  0  0  0  0  0  0  0
    6.2653  -14.0032   26.1173 C   0  0  0  0  0  0  0  0  0  0  0  0
    5.7364  -12.7266   26.1992 C   0  0  0  0  0  0  0  0  0  0  0  0
    6.5717  -11.7006   26.5739 C   0  0  0  0  0  0  0  0  0  0  0  0
    7.8975  -11.9394   26.8588 C   0  0  0  0  0  0  0  0  0  0  0  0
    8.3990  -13.2325   26.7674 C   0  0  0  0  0  0  0  0  0  0  0  0
    7.5898  -14.2898   26.3952 C   0  0  0  0  0  0  0  0  0  0  0  0
   11.0010  -17.5228   25.2743 C   0  0  0  0  0  0  0  0  0  0  0  0
   11.8606  -17.6367   26.1778 O   0  0  0  0  0  0  0  0  0  0  0  0
   11.0435  -18.4446   24.2256 O   0  0  0  0  0  0  0  0  0  0  0  0
  1  2  1  0
  3  2  1  0
  3  4  2  0
  5  3  1  0
  6  5  1  0
  6  9  1  0
  6  7  1  1
  8  7  1  0
  9 11  1  0
  9 10  2  0
 11 12  1  0
 12 13  1  1
 14 15  2  0
 14 13  1  0
 16 15  1  0
 17 22  2  0
 17 16  1  0
 18 17  1  0
 19 20  1  0
 19 18  2  0
 20 21  2  0
 21 22  1  0
 22 14  1  0
 23 12  1  0
 23 25  1  0
 24 23  2  0
M  END
$$$$
