GCW.pdb
     RDKit          3D

 25 26  0  0  1  0  0  0  0  0999 V2000
   10.8497  -17.7477   17.4922 N   0  0  0  0  0  0  0  0  0  0  0  0
   10.5447  -18.6196   18.6123 C   0  0  0  0  0  0  0  0  0  0  0  0
    9.7288  -17.9095   19.6256 C   0  0  0  0  0  0  0  0  0  0  0  0
    9.6416  -16.6553   19.6626 O   0  0  0  0  0  0  0  0  0  0  0  0
    9.0225  -18.6628   20.5860 N   0  0  0  0  0  0  0  0  0  0  0  0
    8.2543  -18.0150   21.6578 C   0  0  1  0  0  0  0  0  0  0  0  0
    7.2114  -19.0482   22.0722 C   0  0  0  0  0  0  0  0  0  0  0  0
    7.9036  -20.4093   23.0161 S   0  0  0  0  0  0  0  0  0  0  0  0
    9.1368  -17.6900   22.8003 C   0  0  0  0  0  0  0  0  0  0  0  0
   10.2187  -18.3625   22.9361 O   0  0  0  0  0  0  0  0  0  0  0  0
    8.8926  -16.6905   23.7677 N   0  0  0  0  0  0  0  0  0  0  0  0
    9.8501  -16.3805   24.8477 C   0  0  1  0  0  0  0  0  0  0  0  0
    9.6781  -14.9785   25.3192 C   0  0  0  0  0  0  0  0  0  0  0  0
    8.2985  -14.5763   25.6269 C   0  0  0  0  0  0  0  0  0  0  0  0
    7.2392  -15.4859   25.7793 C   0  0  0  0  0  0  0  0  0  0  0  0
    6.1104  -14.8313   26.0872 N   0  0  0  0  0  0  0  0  0  0  0  0
    6.3777  -13.5125   26.1456 C   0  0  0  0  0  0  0  0  0  0  0  0
    5.5352  -12.4489   26.4196 C   0  0  0  0  0  0  0  0  0  0  0  0
    6.0659  -11.1805   26.4068 C   0  0  0  0  0  0  0  0  0  0  0  0
    7.3989  -10.9769   26.1286 C   0  0  0  0  0  0  0  0  0  0  0  0
    8.2195  -12.0655   25.8573 C   0  0  0  0  0  0  0  0  0  0  0  0
    7.7226  -13.3555   25.8621 C   0  0  0  0  0  0  0  0  0  0  0  0
    9.8510  -17.4298   25.8607 C   0  0  0  0  0  0  0  0  0  0  0  0
   10.7505  -17.5646   26.7215 O   0  0  0  0  0  0  0  0  0  0  0  0
    8.7954  -18.3445   25.8842 O   0  0  0  0  0  0  0  0  0  0  0  0
  1  2  1  0
  3  2  1  0
  3  4  2  0
  5  3  1  0
  6  5  1  0
  6  9  1  0
  6  7  1  1
  8  7  1  0
  9 11  1  0
  9 10  2  0
 11 12  1  0
 12 13  1  1
 14 15  2  0
 14 13  1  0
 16 15  1  0
 17 22  2  0
 17 16  1  0
 18 17  1  0
 19 20  1  0
 19 18  2  0
 20 21  2  0
 21 22  1  0
 22 14  1  0
 23 12  1  0
 23 25  1  0
 24 23  2  0
M  END
$$$$
