GCW.pdb
     RDKit          3D

 25 26  0  0  1  0  0  0  0  0999 V2000
    7.9312  -12.8324   18.0218 N   0  0  0  0  0  0  0  0  0  0  0  0
    9.0100  -13.2997   18.8735 C   0  0  0  0  0  0  0  0  0  0  0  0
    8.5403  -14.3791   19.7739 C   0  0  0  0  0  0  0  0  0  0  0  0
    7.3235  -14.6734   19.8961 O   0  0  0  0  0  0  0  0  0  0  0  0
    9.4879  -15.1060   20.5238 N   0  0  0  0  0  0  0  0  0  0  0  0
    9.0841  -16.1918   21.4273 C   0  0  1  0  0  0  0  0  0  0  0  0
    9.5203  -17.4719   20.7215 C   0  0  0  0  0  0  0  0  0  0  0  0
   11.2170  -17.4120   20.1380 S   0  0  0  0  0  0  0  0  0  0  0  0
    9.7752  -16.0627   22.7293 C   0  0  0  0  0  0  0  0  0  0  0  0
   10.9225  -15.4931   22.7484 O   0  0  0  0  0  0  0  0  0  0  0  0
    9.2774  -16.5150   23.9712 N   0  0  0  0  0  0  0  0  0  0  0  0
   10.0669  -16.4424   25.2166 C   0  0  1  0  0  0  0  0  0  0  0  0
    9.7852  -15.1757   25.9469 C   0  0  0  0  0  0  0  0  0  0  0  0
    8.3678  -14.7994   26.0434 C   0  0  0  0  0  0  0  0  0  0  0  0
    7.3103  -15.7159   25.9236 C   0  0  0  0  0  0  0  0  0  0  0  0
    6.1365  -15.0892   26.0874 N   0  0  0  0  0  0  0  0  0  0  0  0
    6.3721  -13.7823   26.3124 C   0  0  0  0  0  0  0  0  0  0  0  0
    5.4806  -12.7461   26.5306 C   0  0  0  0  0  0  0  0  0  0  0  0
    5.9885  -11.4835   26.7275 C   0  0  0  0  0  0  0  0  0  0  0  0
    7.3468  -11.2591   26.7072 C   0  0  0  0  0  0  0  0  0  0  0  0
    8.2166  -12.3205   26.4855 C   0  0  0  0  0  0  0  0  0  0  0  0
    7.7436  -13.6039   26.2848 C   0  0  0  0  0  0  0  0  0  0  0  0
    9.9637  -17.6855   25.9723 C   0  0  0  0  0  0  0  0  0  0  0  0
    9.1496  -18.5980   25.7023 O   0  0  0  0  0  0  0  0  0  0  0  0
   10.8144  -17.8838   27.0625 O   0  0  0  0  0  0  0  0  0  0  0  0
  1  2  1  0
  3  2  1  0
  3  4  2  0
  5  3  1  0
  6  5  1  0
  6  9  1  0
  6  7  1  6
  8  7  1  0
  9 11  1  0
  9 10  2  0
 11 12  1  0
 12 13  1  1
 14 15  2  0
 14 13  1  0
 16 15  1  0
 17 22  2  0
 17 16  1  0
 18 17  1  0
 19 20  1  0
 19 18  2  0
 20 21  2  0
 21 22  1  0
 22 14  1  0
 23 12  1  0
 23 25  1  0
 24 23  2  0
M  END
$$$$
