CFY.pdb
     RDKit          3D

 30 31  0  0  1  0  0  0  0  0999 V2000
   15.2564  -18.2994    5.3332 N   0  0  0  0  0  0  0  0  0  0  0  0
   15.3371  -17.1658    6.2024 C   0  0  1  0  0  0  0  0  0  0  0  0
   15.0374  -17.5200    7.6492 C   0  0  0  0  0  0  0  0  0  0  0  0
   13.4274  -18.2901    7.8407 S   0  0  0  0  0  0  0  0  0  0  0  0
   16.7052  -16.5481    6.1910 C   0  0  0  0  0  0  0  0  0  0  0  0
   17.6489  -17.2225    5.7030 O   0  0  0  0  0  0  0  0  0  0  0  0
   16.9101  -15.2563    6.7125 N   0  0  0  0  0  0  0  0  0  0  0  0
   18.2842  -14.6908    6.6408 C   0  0  1  0  0  0  0  0  0  0  0  0
   18.1786  -13.2204    6.4317 C   0  0  0  0  0  0  0  0  0  0  0  0
   19.4210  -12.4458    6.4809 C   0  0  0  0  0  0  0  0  0  0  0  0
   20.1244  -12.1722    5.2958 C   0  0  0  0  0  0  0  0  0  0  0  0
   21.2620  -11.4193    5.2792 C   0  0  0  0  0  0  0  0  0  0  0  0
   21.7771  -10.8868    6.4435 C   0  0  0  0  0  0  0  0  0  0  0  0
   21.1229  -11.1312    7.6088 C   0  0  0  0  0  0  0  0  0  0  0  0
   19.9725  -11.8948    7.6136 C   0  0  0  0  0  0  0  0  0  0  0  0
   18.9026  -15.0377    7.9200 C   0  0  0  0  0  0  0  0  0  0  0  0
   18.3006  -14.6984    8.9966 O   0  0  0  0  0  0  0  0  0  0  0  0
   19.3162  -22.0313    9.3089 O   0  0  0  0  0  0  0  0  0  0  0  0
   19.3962  -20.6619    9.5503 C   0  0  0  0  0  0  0  0  0  0  0  0
   18.3690  -19.8659    9.0514 C   0  0  0  0  0  0  0  0  0  0  0  0
   18.4029  -18.5057    9.2639 C   0  0  0  0  0  0  0  0  0  0  0  0
   19.4446  -17.9469    9.9631 C   0  0  0  0  0  0  0  0  0  0  0  0
   19.4877  -16.5020   10.1888 C   0  0  0  0  0  0  0  0  0  0  0  0
   20.6562  -15.8812    9.4077 C   0  0  2  0  0  0  0  0  0  0  0  0
   20.1156  -15.7299    8.0469 N   0  0  0  0  0  0  0  0  0  0  0  0
   21.8225  -16.7309    9.3923 C   0  0  0  0  0  0  0  0  0  0  0  0
   22.2549  -17.2247    8.3083 O   0  0  0  0  0  0  0  0  0  0  0  0
   20.4836  -18.7251   10.4716 C   0  0  0  0  0  0  0  0  0  0  0  0
   20.4325  -20.0838   10.2491 C   0  0  0  0  0  0  0  0  0  0  0  0
   22.5237  -17.0502   10.5274 O   0  0  0  0  0  0  0  0  0  0  0  0
  2  1  1  6
  3  2  1  0
  4  3  1  0
  5  6  2  0
  5  2  1  0
  7  5  1  0
  8  7  1  0
  8  9  1  1
 10  9  1  0
 10 11  2  0
 12 11  1  0
 13 12  2  0
 14 15  2  0
 14 13  1  0
 15 10  1  0
 16  8  1  0
 17 16  2  0
 19 29  2  0
 19 18  1  0
 20 19  1  0
 21 22  1  0
 21 20  2  0
 22 28  2  0
 23 22  1  0
 24 23  1  1
 24 25  1  0
 25 16  1  0
 26 24  1  0
 26 30  1  0
 27 26  2  0
 28 29  1  0
M  END
$$$$
