CFY.pdb
     RDKit          3D

 30 31  0  0  1  0  0  0  0  0999 V2000
   20.7190  -10.1707  -19.1106 N   0  0  0  0  0  0  0  0  0  0  0  0
   21.1551   -8.8195  -18.9343 C   0  0  1  0  0  0  0  0  0  0  0  0
   20.5309   -7.8706  -19.9435 C   0  0  0  0  0  0  0  0  0  0  0  0
   21.0442   -8.2331  -21.6248 S   0  0  0  0  0  0  0  0  0  0  0  0
   20.7988   -8.2891  -17.5759 C   0  0  0  0  0  0  0  0  0  0  0  0
   20.0130   -8.9709  -16.8679 O   0  0  0  0  0  0  0  0  0  0  0  0
   21.3340   -7.0681  -17.1228 N   0  0  0  0  0  0  0  0  0  0  0  0
   21.0654   -6.6751  -15.7133 C   0  0  1  0  0  0  0  0  0  0  0  0
   22.3692   -6.5078  -15.0138 C   0  0  0  0  0  0  0  0  0  0  0  0
   23.1888   -7.7077  -14.8286 C   0  0  0  0  0  0  0  0  0  0  0  0
   24.3691   -7.8727  -15.5730 C   0  0  0  0  0  0  0  0  0  0  0  0
   25.1915   -8.9486  -15.4087 C   0  0  0  0  0  0  0  0  0  0  0  0
   24.8942   -9.9350  -14.4904 C   0  0  0  0  0  0  0  0  0  0  0  0
   23.7603   -9.8084  -13.7528 C   0  0  0  0  0  0  0  0  0  0  0  0
   22.9353   -8.7151  -13.9278 C   0  0  0  0  0  0  0  0  0  0  0  0
   20.3089   -5.4269  -15.8068 C   0  0  0  0  0  0  0  0  0  0  0  0
   20.8864   -4.4041  -16.3138 O   0  0  0  0  0  0  0  0  0  0  0  0
   19.7720   -2.3916  -21.4578 O   0  0  0  0  0  0  0  0  0  0  0  0
   19.1772   -2.7713  -20.2570 C   0  0  0  0  0  0  0  0  0  0  0  0
   19.0646   -4.1357  -20.0053 C   0  0  0  0  0  0  0  0  0  0  0  0
   18.4837   -4.5615  -18.8315 C   0  0  0  0  0  0  0  0  0  0  0  0
   18.0219   -3.6417  -17.9221 C   0  0  0  0  0  0  0  0  0  0  0  0
   17.4006   -4.0883  -16.6750 C   0  0  0  0  0  0  0  0  0  0  0  0
   18.3895   -3.9346  -15.5092 C   0  0  2  0  0  0  0  0  0  0  0  0
   18.9805   -5.2769  -15.3831 N   0  0  0  0  0  0  0  0  0  0  0  0
   17.7370   -3.5565  -14.2788 C   0  0  0  0  0  0  0  0  0  0  0  0
   17.6448   -4.3715  -13.3127 O   0  0  0  0  0  0  0  0  0  0  0  0
   18.1245   -2.2707  -18.1537 C   0  0  0  0  0  0  0  0  0  0  0  0
   18.7085   -1.8638  -19.3334 C   0  0  0  0  0  0  0  0  0  0  0  0
   17.1876   -2.3151  -14.0807 O   0  0  0  0  0  0  0  0  0  0  0  0
  2  1  1  6
  3  2  1  0
  4  3  1  0
  5  6  2  0
  5  2  1  0
  7  5  1  0
  8  7  1  0
  8  9  1  1
 10  9  1  0
 10 11  2  0
 12 11  1  0
 13 12  2  0
 14 15  2  0
 14 13  1  0
 15 10  1  0
 16  8  1  0
 17 16  2  0
 19 29  2  0
 19 18  1  0
 20 19  1  0
 21 22  1  0
 21 20  2  0
 22 28  2  0
 23 22  1  0
 24 23  1  6
 24 25  1  0
 25 16  1  0
 26 24  1  0
 26 30  1  0
 27 26  2  0
 28 29  1  0
M  END
$$$$
