CFY.pdb
     RDKit          3D

 30 31  0  0  1  0  0  0  0  0999 V2000
   25.0711    3.9076  -15.0549 N   0  0  0  0  0  0  0  0  0  0  0  0
   25.8943    4.2959  -13.9510 C   0  0  1  0  0  0  0  0  0  0  0  0
   26.2089    5.7823  -13.9550 C   0  0  0  0  0  0  0  0  0  0  0  0
   27.2538    6.2520  -15.3368 S   0  0  0  0  0  0  0  0  0  0  0  0
   25.2372    4.0044  -12.6331 C   0  0  0  0  0  0  0  0  0  0  0  0
   23.9863    4.1225  -12.5629 O   0  0  0  0  0  0  0  0  0  0  0  0
   26.0080    3.6129  -11.5217 N   0  0  0  0  0  0  0  0  0  0  0  0
   25.2891    3.2912  -10.2596 C   0  0  1  0  0  0  0  0  0  0  0  0
   25.8140    2.0007   -9.7339 C   0  0  0  0  0  0  0  0  0  0  0  0
   25.4940    1.6635   -8.3447 C   0  0  0  0  0  0  0  0  0  0  0  0
   24.1999    1.2320   -8.0079 C   0  0  0  0  0  0  0  0  0  0  0  0
   23.8602    0.8639   -6.7390 C   0  0  0  0  0  0  0  0  0  0  0  0
   24.7875    0.9005   -5.7176 C   0  0  0  0  0  0  0  0  0  0  0  0
   26.0492    1.3130   -6.0069 C   0  0  0  0  0  0  0  0  0  0  0  0
   26.3817    1.6834   -7.2948 C   0  0  0  0  0  0  0  0  0  0  0  0
   25.5648    4.4188   -9.3699 C   0  0  0  0  0  0  0  0  0  0  0  0
   26.6615    5.0592   -9.5242 O   0  0  0  0  0  0  0  0  0  0  0  0
   26.0541   11.6756   -5.0777 O   0  0  0  0  0  0  0  0  0  0  0  0
   25.7622   10.5877   -5.8970 C   0  0  0  0  0  0  0  0  0  0  0  0
   25.2653    9.4421   -5.2818 C   0  0  0  0  0  0  0  0  0  0  0  0
   24.9615    8.3397   -6.0492 C   0  0  0  0  0  0  0  0  0  0  0  0
   25.1499    8.3780   -7.4090 C   0  0  0  0  0  0  0  0  0  0  0  0
   24.8323    7.2085   -8.2289 C   0  0  0  0  0  0  0  0  0  0  0  0
   25.1914    5.9209   -7.4715 C   0  0  2  0  0  0  0  0  0  0  0  0
   24.6976    4.8541   -8.3575 N   0  0  0  0  0  0  0  0  0  0  0  0
   24.5468    5.8409   -6.1828 C   0  0  0  0  0  0  0  0  0  0  0  0
   23.3387    5.4721   -6.0802 O   0  0  0  0  0  0  0  0  0  0  0  0
   25.6462    9.5146   -8.0458 C   0  0  0  0  0  0  0  0  0  0  0  0
   25.9444   10.6076   -7.2618 C   0  0  0  0  0  0  0  0  0  0  0  0
   25.1887    6.1516   -5.0109 O   0  0  0  0  0  0  0  0  0  0  0  0
  2  1  1  6
  3  2  1  0
  4  3  1  0
  5  6  2  0
  5  2  1  0
  7  5  1  0
  8  7  1  0
  8  9  1  1
 10  9  1  0
 10 11  2  0
 12 11  1  0
 13 12  2  0
 14 15  2  0
 14 13  1  0
 15 10  1  0
 16  8  1  0
 17 16  2  0
 19 29  2  0
 19 18  1  0
 20 19  1  0
 21 22  1  0
 21 20  2  0
 22 28  2  0
 23 22  1  0
 24 23  1  6
 24 25  1  0
 25 16  1  0
 26 24  1  0
 26 30  1  0
 27 26  2  0
 28 29  1  0
M  END
$$$$
