CFY.pdb
     RDKit          3D

 30 31  0  0  1  0  0  0  0  0999 V2000
   21.2726  -20.3347  -11.2352 N   0  0  0  0  0  0  0  0  0  0  0  0
   22.2848  -21.3262  -11.4336 C   0  0  1  0  0  0  0  0  0  0  0  0
   21.9636  -22.2624  -12.5864 C   0  0  0  0  0  0  0  0  0  0  0  0
   20.2863  -22.8959  -12.5001 S   0  0  0  0  0  0  0  0  0  0  0  0
   23.6179  -20.7106  -11.7454 C   0  0  0  0  0  0  0  0  0  0  0  0
   23.6332  -19.5188  -12.1493 O   0  0  0  0  0  0  0  0  0  0  0  0
   24.8029  -21.4542  -11.5863 N   0  0  0  0  0  0  0  0  0  0  0  0
   26.0962  -20.7475  -11.7901 C   0  0  1  0  0  0  0  0  0  0  0  0
   27.0419  -21.1781  -10.7236 C   0  0  0  0  0  0  0  0  0  0  0  0
   26.8595  -20.5964   -9.3917 C   0  0  0  0  0  0  0  0  0  0  0  0
   27.0981  -21.3758   -8.2472 C   0  0  0  0  0  0  0  0  0  0  0  0
   26.9860  -20.8720   -6.9844 C   0  0  0  0  0  0  0  0  0  0  0  0
   26.6281  -19.5557   -6.7750 C   0  0  0  0  0  0  0  0  0  0  0  0
   26.3894  -18.7724   -7.8591 C   0  0  0  0  0  0  0  0  0  0  0  0
   26.5057  -19.2932   -9.1326 C   0  0  0  0  0  0  0  0  0  0  0  0
   26.5350  -21.1414  -13.1286 C   0  0  0  0  0  0  0  0  0  0  0  0
   26.6449  -22.3893  -13.3882 O   0  0  0  0  0  0  0  0  0  0  0  0
   22.4593  -21.5941  -20.3316 O   0  0  0  0  0  0  0  0  0  0  0  0
   23.0573  -21.3638  -19.0950 C   0  0  0  0  0  0  0  0  0  0  0  0
   23.4995  -22.4758  -18.3841 C   0  0  0  0  0  0  0  0  0  0  0  0
   24.0975  -22.3000  -17.1561 C   0  0  0  0  0  0  0  0  0  0  0  0
   24.2524  -21.0351  -16.6440 C   0  0  0  0  0  0  0  0  0  0  0  0
   24.8837  -20.8425  -15.3382 C   0  0  0  0  0  0  0  0  0  0  0  0
   26.3904  -20.5972  -15.5124 C   0  0  2  0  0  0  0  0  0  0  0  0
   26.8370  -20.2370  -14.1568 N   0  0  0  0  0  0  0  0  0  0  0  0
   26.6714  -19.5235  -16.4348 C   0  0  0  0  0  0  0  0  0  0  0  0
   27.2834  -19.7423  -17.5227 O   0  0  0  0  0  0  0  0  0  0  0  0
   23.8170  -19.9075  -17.3387 C   0  0  0  0  0  0  0  0  0  0  0  0
   23.2213  -20.1031  -18.5655 C   0  0  0  0  0  0  0  0  0  0  0  0
   26.2998  -18.2244  -16.1976 O   0  0  0  0  0  0  0  0  0  0  0  0
  2  1  1  6
  3  2  1  0
  4  3  1  0
  5  6  2  0
  5  2  1  0
  7  5  1  0
  8  7  1  0
  8  9  1  1
 10  9  1  0
 10 11  2  0
 12 11  1  0
 13 12  2  0
 14 15  2  0
 14 13  1  0
 15 10  1  0
 16  8  1  0
 17 16  2  0
 19 29  2  0
 19 18  1  0
 20 19  1  0
 21 22  1  0
 21 20  2  0
 22 28  2  0
 23 22  1  0
 24 23  1  1
 24 25  1  0
 25 16  1  0
 26 24  1  0
 26 30  1  0
 27 26  2  0
 28 29  1  0
M  END
$$$$
