CFY.pdb
     RDKit          3D

 30 31  0  0  1  0  0  0  0  0999 V2000
   28.2381  -23.5264  -17.6559 N   0  0  0  0  0  0  0  0  0  0  0  0
   27.7068  -22.2577  -17.2621 C   0  0  1  0  0  0  0  0  0  0  0  0
   26.7485  -21.6837  -18.2919 C   0  0  0  0  0  0  0  0  0  0  0  0
   27.6056  -21.0230  -19.7240 S   0  0  0  0  0  0  0  0  0  0  0  0
   26.9421  -22.3467  -15.9735 C   0  0  0  0  0  0  0  0  0  0  0  0
   26.2460  -23.3761  -15.7748 O   0  0  0  0  0  0  0  0  0  0  0  0
   27.0111  -21.3054  -15.0283 N   0  0  0  0  0  0  0  0  0  0  0  0
   26.2555  -21.4725  -13.7577 C   0  0  1  0  0  0  0  0  0  0  0  0
   26.9225  -20.6611  -12.7023 C   0  0  0  0  0  0  0  0  0  0  0  0
   26.2422  -20.5544  -11.4094 C   0  0  0  0  0  0  0  0  0  0  0  0
   25.1777  -19.6514  -11.2493 C   0  0  0  0  0  0  0  0  0  0  0  0
   24.4816  -19.5431  -10.0810 C   0  0  0  0  0  0  0  0  0  0  0  0
   24.7988  -20.3278   -8.9910 C   0  0  0  0  0  0  0  0  0  0  0  0
   25.8232  -21.2124   -9.1098 C   0  0  0  0  0  0  0  0  0  0  0  0
   26.5208  -21.3132  -10.2970 C   0  0  0  0  0  0  0  0  0  0  0  0
   24.9022  -21.0069  -14.0591 C   0  0  0  0  0  0  0  0  0  0  0  0
   24.7678  -19.9525  -14.7710 O   0  0  0  0  0  0  0  0  0  0  0  0
   20.6706  -27.0084  -13.6897 O   0  0  0  0  0  0  0  0  0  0  0  0
   20.9428  -25.6872  -14.0366 C   0  0  0  0  0  0  0  0  0  0  0  0
   22.1800  -25.4229  -14.6171 C   0  0  0  0  0  0  0  0  0  0  0  0
   22.4963  -24.1320  -14.9778 C   0  0  0  0  0  0  0  0  0  0  0  0
   21.5933  -23.1196  -14.7632 C   0  0  0  0  0  0  0  0  0  0  0  0
   21.9254  -21.7456  -15.1411 C   0  0  0  0  0  0  0  0  0  0  0  0
   22.4568  -20.9775  -13.9212 C   0  0  2  0  0  0  0  0  0  0  0  0
   23.7332  -21.6481  -13.6244 N   0  0  0  0  0  0  0  0  0  0  0  0
   21.5697  -21.0630  -12.7862 C   0  0  0  0  0  0  0  0  0  0  0  0
   21.9094  -21.6912  -11.7393 O   0  0  0  0  0  0  0  0  0  0  0  0
   20.3488  -23.3617  -14.1835 C   0  0  0  0  0  0  0  0  0  0  0  0
   20.0502  -24.6592  -13.8294 C   0  0  0  0  0  0  0  0  0  0  0  0
   20.3279  -20.4801  -12.7687 O   0  0  0  0  0  0  0  0  0  0  0  0
  2  1  1  6
  3  2  1  0
  4  3  1  0
  5  6  2  0
  5  2  1  0
  7  5  1  0
  8  7  1  0
  8  9  1  1
 10  9  1  0
 10 11  2  0
 12 11  1  0
 13 12  2  0
 14 15  2  0
 14 13  1  0
 15 10  1  0
 16  8  1  0
 17 16  2  0
 19 29  2  0
 19 18  1  0
 20 19  1  0
 21 22  1  0
 21 20  2  0
 22 28  2  0
 23 22  1  0
 24 23  1  6
 24 25  1  0
 25 16  1  0
 26 24  1  0
 26 30  1  0
 27 26  2  0
 28 29  1  0
M  END
$$$$
