CFY.pdb
     RDKit          3D

 30 31  0  0  1  0  0  0  0  0999 V2000
   24.9082   -4.9412  -23.1926 N   0  0  0  0  0  0  0  0  0  0  0  0
   23.8787   -5.3907  -22.3066 C   0  0  1  0  0  0  0  0  0  0  0  0
   24.0741   -6.8337  -21.8728 C   0  0  0  0  0  0  0  0  0  0  0  0
   23.6756   -7.9964  -23.1808 S   0  0  0  0  0  0  0  0  0  0  0  0
   23.8260   -4.5727  -21.0490 C   0  0  0  0  0  0  0  0  0  0  0  0
   24.9147   -4.1583  -20.5731 O   0  0  0  0  0  0  0  0  0  0  0  0
   22.5920   -4.2868  -20.4340 N   0  0  0  0  0  0  0  0  0  0  0  0
   22.5912   -3.3275  -19.2969 C   0  0  1  0  0  0  0  0  0  0  0  0
   21.7178   -2.1752  -19.6527 C   0  0  0  0  0  0  0  0  0  0  0  0
   21.4551   -1.1853  -18.6055 C   0  0  0  0  0  0  0  0  0  0  0  0
   20.2010   -1.1495  -17.9728 C   0  0  0  0  0  0  0  0  0  0  0  0
   19.9177   -0.2780  -16.9622 C   0  0  0  0  0  0  0  0  0  0  0  0
   20.8654    0.6186  -16.5122 C   0  0  0  0  0  0  0  0  0  0  0  0
   22.0896    0.6125  -17.1014 C   0  0  0  0  0  0  0  0  0  0  0  0
   22.3650   -0.2740  -18.1235 C   0  0  0  0  0  0  0  0  0  0  0  0
   22.0835   -4.0921  -18.1581 C   0  0  0  0  0  0  0  0  0  0  0  0
   21.0698   -4.8509  -18.3403 O   0  0  0  0  0  0  0  0  0  0  0  0
   21.1515   -9.0125  -11.1800 O   0  0  0  0  0  0  0  0  0  0  0  0
   21.6540   -8.2045  -12.1972 C   0  0  0  0  0  0  0  0  0  0  0  0
   21.6453   -6.8294  -11.9814 C   0  0  0  0  0  0  0  0  0  0  0  0
   22.1316   -5.9883  -12.9574 C   0  0  0  0  0  0  0  0  0  0  0  0
   22.6191   -6.5095  -14.1309 C   0  0  0  0  0  0  0  0  0  0  0  0
   23.1336   -5.6205  -15.1728 C   0  0  0  0  0  0  0  0  0  0  0  0
   21.9753   -4.8577  -15.8339 C   0  0  2  0  0  0  0  0  0  0  0  0
   22.6426   -4.0559  -16.8725 N   0  0  0  0  0  0  0  0  0  0  0  0
   21.2803   -3.9981  -14.9062 C   0  0  0  0  0  0  0  0  0  0  0  0
   21.8731   -3.0270  -14.3480 O   0  0  0  0  0  0  0  0  0  0  0  0
   22.6374   -7.8832  -14.3679 C   0  0  0  0  0  0  0  0  0  0  0  0
   22.1468   -8.7088  -13.3801 C   0  0  0  0  0  0  0  0  0  0  0  0
   19.9600   -4.1736  -14.5777 O   0  0  0  0  0  0  0  0  0  0  0  0
  2  1  1  6
  3  2  1  0
  4  3  1  0
  5  6  2  0
  5  2  1  0
  7  5  1  0
  8  7  1  0
  8  9  1  6
 10  9  1  0
 10 11  2  0
 12 11  1  0
 13 12  2  0
 14 15  2  0
 14 13  1  0
 15 10  1  0
 16  8  1  0
 17 16  2  0
 19 29  2  0
 19 18  1  0
 20 19  1  0
 21 22  1  0
 21 20  2  0
 22 28  2  0
 23 22  1  0
 24 23  1  1
 24 25  1  0
 25 16  1  0
 26 24  1  0
 26 30  1  0
 27 26  2  0
 28 29  1  0
M  END
$$$$
