CFY.pdb
     RDKit          3D

 30 31  0  0  1  0  0  0  0  0999 V2000
   34.5834   -7.5252  -20.5644 N   0  0  0  0  0  0  0  0  0  0  0  0
   33.1636   -7.4765  -20.7338 C   0  0  1  0  0  0  0  0  0  0  0  0
   32.7452   -7.6392  -22.1853 C   0  0  0  0  0  0  0  0  0  0  0  0
   30.9610   -7.6497  -22.3812 S   0  0  0  0  0  0  0  0  0  0  0  0
   32.4708   -8.5656  -19.9675 C   0  0  0  0  0  0  0  0  0  0  0  0
   32.9541   -9.7258  -20.0312 O   0  0  0  0  0  0  0  0  0  0  0  0
   31.3198   -8.2832  -19.2073 N   0  0  0  0  0  0  0  0  0  0  0  0
   30.7357   -9.3875  -18.3994 C   0  0  1  0  0  0  0  0  0  0  0  0
   30.7452   -8.9800  -16.9673 C   0  0  0  0  0  0  0  0  0  0  0  0
   32.0306   -9.0258  -16.2663 C   0  0  0  0  0  0  0  0  0  0  0  0
   32.5897   -7.8451  -15.7487 C   0  0  0  0  0  0  0  0  0  0  0  0
   33.7614   -7.8373  -15.0500 C   0  0  0  0  0  0  0  0  0  0  0  0
   34.4573   -9.0065  -14.8190 C   0  0  0  0  0  0  0  0  0  0  0  0
   33.9462  -10.1676  -15.3053 C   0  0  0  0  0  0  0  0  0  0  0  0
   32.7595  -10.1634  -16.0111 C   0  0  0  0  0  0  0  0  0  0  0  0
   29.3838   -9.5677  -18.9277 C   0  0  0  0  0  0  0  0  0  0  0  0
   28.6492   -8.5316  -19.0810 O   0  0  0  0  0  0  0  0  0  0  0  0
   22.3215  -11.4665  -23.3301 O   0  0  0  0  0  0  0  0  0  0  0  0
   23.6056  -11.3862  -22.7966 C   0  0  0  0  0  0  0  0  0  0  0  0
   24.2012  -10.1288  -22.7561 C   0  0  0  0  0  0  0  0  0  0  0  0
   25.4703   -9.9976  -22.2378 C   0  0  0  0  0  0  0  0  0  0  0  0
   26.1361  -11.1027  -21.7669 C   0  0  0  0  0  0  0  0  0  0  0  0
   27.4860  -10.9699  -21.2184 C   0  0  0  0  0  0  0  0  0  0  0  0
   27.4216  -10.8197  -19.6907 C   0  0  2  0  0  0  0  0  0  0  0  0
   28.8375  -10.8079  -19.2884 N   0  0  0  0  0  0  0  0  0  0  0  0
   26.7294  -11.9162  -19.0574 C   0  0  0  0  0  0  0  0  0  0  0  0
   27.3485  -12.9684  -18.7175 O   0  0  0  0  0  0  0  0  0  0  0  0
   25.5586  -12.3713  -21.7977 C   0  0  0  0  0  0  0  0  0  0  0  0
   24.2886  -12.4829  -22.3197 C   0  0  0  0  0  0  0  0  0  0  0  0
   25.3847  -11.8887  -18.7874 O   0  0  0  0  0  0  0  0  0  0  0  0
  2  1  1  6
  3  2  1  0
  4  3  1  0
  5  6  2  0
  5  2  1  0
  7  5  1  0
  8  7  1  0
  8  9  1  1
 10  9  1  0
 10 11  2  0
 12 11  1  0
 13 12  2  0
 14 15  2  0
 14 13  1  0
 15 10  1  0
 16  8  1  0
 17 16  2  0
 19 29  2  0
 19 18  1  0
 20 19  1  0
 21 22  1  0
 21 20  2  0
 22 28  2  0
 23 22  1  0
 24 23  1  6
 24 25  1  0
 25 16  1  0
 26 24  1  0
 26 30  1  0
 27 26  2  0
 28 29  1  0
M  END
$$$$
