CFY.pdb
     RDKit          3D

 30 31  0  0  1  0  0  0  0  0999 V2000
   27.5271  -18.3947  -16.7398 N   0  0  0  0  0  0  0  0  0  0  0  0
   27.2880  -18.5127  -15.3341 C   0  0  1  0  0  0  0  0  0  0  0  0
   26.6880  -17.2502  -14.7384 C   0  0  0  0  0  0  0  0  0  0  0  0
   27.7844  -15.8376  -14.8946 S   0  0  0  0  0  0  0  0  0  0  0  0
   26.3314  -19.6263  -15.0206 C   0  0  0  0  0  0  0  0  0  0  0  0
   25.5717  -20.0234  -15.9420 O   0  0  0  0  0  0  0  0  0  0  0  0
   26.2969  -20.1975  -13.7341 N   0  0  0  0  0  0  0  0  0  0  0  0
   25.4684  -21.4179  -13.5406 C   0  0  1  0  0  0  0  0  0  0  0  0
   25.9570  -22.1322  -12.3289 C   0  0  0  0  0  0  0  0  0  0  0  0
   25.8302  -21.4378  -11.0453 C   0  0  0  0  0  0  0  0  0  0  0  0
   26.8404  -20.5581  -10.6210 C   0  0  0  0  0  0  0  0  0  0  0  0
   26.7527  -19.8530   -9.4564 C   0  0  0  0  0  0  0  0  0  0  0  0
   25.6515  -19.9763   -8.6338 C   0  0  0  0  0  0  0  0  0  0  0  0
   24.6550  -20.8186   -9.0125 C   0  0  0  0  0  0  0  0  0  0  0  0
   24.7546  -21.5272  -10.1933 C   0  0  0  0  0  0  0  0  0  0  0  0
   24.0991  -20.9254  -13.3937 C   0  0  0  0  0  0  0  0  0  0  0  0
   23.9063  -19.8656  -12.7037 O   0  0  0  0  0  0  0  0  0  0  0  0
   23.0360  -15.1758  -15.7258 O   0  0  0  0  0  0  0  0  0  0  0  0
   22.5417  -16.4606  -15.5138 C   0  0  0  0  0  0  0  0  0  0  0  0
   23.1729  -17.5047  -16.1839 C   0  0  0  0  0  0  0  0  0  0  0  0
   22.7209  -18.7935  -16.0071 C   0  0  0  0  0  0  0  0  0  0  0  0
   21.6558  -19.0383  -15.1752 C   0  0  0  0  0  0  0  0  0  0  0  0
   21.1690  -20.4051  -14.9864 C   0  0  0  0  0  0  0  0  0  0  0  0
   21.6624  -20.9590  -13.6409 C   0  0  2  0  0  0  0  0  0  0  0  0
   22.9759  -21.5363  -13.9699 N   0  0  0  0  0  0  0  0  0  0  0  0
   20.7871  -21.9754  -13.1086 C   0  0  0  0  0  0  0  0  0  0  0  0
   19.6220  -21.6851  -12.7032 O   0  0  0  0  0  0  0  0  0  0  0  0
   21.0090  -18.0079  -14.4944 C   0  0  0  0  0  0  0  0  0  0  0  0
   21.4753  -16.7254  -14.6837 C   0  0  0  0  0  0  0  0  0  0  0  0
   21.1531  -23.2940  -13.0112 O   0  0  0  0  0  0  0  0  0  0  0  0
  2  1  1  6
  3  2  1  0
  4  3  1  0
  5  6  2  0
  5  2  1  0
  7  5  1  0
  8  7  1  0
  8  9  1  1
 10  9  1  0
 10 11  2  0
 12 11  1  0
 13 12  2  0
 14 15  2  0
 14 13  1  0
 15 10  1  0
 16  8  1  0
 17 16  2  0
 19 29  2  0
 19 18  1  0
 20 19  1  0
 21 22  1  0
 21 20  2  0
 22 28  2  0
 23 22  1  0
 24 23  1  6
 24 25  1  0
 25 16  1  0
 26 24  1  0
 26 30  1  0
 27 26  2  0
 28 29  1  0
M  END
$$$$
