CFY.pdb
     RDKit          3D

 30 31  0  0  1  0  0  0  0  0999 V2000
   25.5905  -18.5598  -17.0063 N   0  0  0  0  0  0  0  0  0  0  0  0
   24.9346  -17.3635  -17.4372 C   0  0  1  0  0  0  0  0  0  0  0  0
   23.5286  -17.2367  -16.8756 C   0  0  0  0  0  0  0  0  0  0  0  0
   22.5016  -16.1386  -17.8560 S   0  0  0  0  0  0  0  0  0  0  0  0
   25.6768  -16.1319  -17.0061 C   0  0  0  0  0  0  0  0  0  0  0  0
   26.2325  -16.1474  -15.8771 O   0  0  0  0  0  0  0  0  0  0  0  0
   25.7403  -15.0048  -17.8477 N   0  0  0  0  0  0  0  0  0  0  0  0
   26.5178  -13.8289  -17.3723 C   0  0  1  0  0  0  0  0  0  0  0  0
   27.5392  -13.4915  -18.4018 C   0  0  0  0  0  0  0  0  0  0  0  0
   28.3257  -12.2737  -18.1913 C   0  0  0  0  0  0  0  0  0  0  0  0
   29.7273  -12.3468  -18.1247 C   0  0  0  0  0  0  0  0  0  0  0  0
   30.5098  -11.2395  -17.9741 C   0  0  0  0  0  0  0  0  0  0  0  0
   29.9488   -9.9821  -17.8794 C   0  0  0  0  0  0  0  0  0  0  0  0
   28.5959   -9.8736  -17.9397 C   0  0  0  0  0  0  0  0  0  0  0  0
   27.8139  -11.0014  -18.0921 C   0  0  0  0  0  0  0  0  0  0  0  0
   25.5263  -12.7692  -17.1901 C   0  0  0  0  0  0  0  0  0  0  0  0
   24.5233  -12.7339  -17.9835 O   0  0  0  0  0  0  0  0  0  0  0  0
   19.3351   -7.7218  -14.3192 O   0  0  0  0  0  0  0  0  0  0  0  0
   20.4520   -8.5471  -14.4256 C   0  0  0  0  0  0  0  0  0  0  0  0
   20.4310   -9.5228  -15.4181 C   0  0  0  0  0  0  0  0  0  0  0  0
   21.5119  -10.3636  -15.5634 C   0  0  0  0  0  0  0  0  0  0  0  0
   22.5975  -10.2343  -14.7321 C   0  0  0  0  0  0  0  0  0  0  0  0
   23.7472  -11.1272  -14.8795 C   0  0  0  0  0  0  0  0  0  0  0  0
   24.5175  -10.7868  -16.1646 C   0  0  2  0  0  0  0  0  0  0  0  0
   25.5968  -11.7873  -16.1914 N   0  0  0  0  0  0  0  0  0  0  0  0
   25.0699   -9.4538  -16.1397 C   0  0  0  0  0  0  0  0  0  0  0  0
   26.1451   -9.2054  -15.5166 O   0  0  0  0  0  0  0  0  0  0  0  0
   22.6398   -9.2643  -13.7316 C   0  0  0  0  0  0  0  0  0  0  0  0
   21.5494   -8.4324  -13.6015 C   0  0  0  0  0  0  0  0  0  0  0  0
   24.4785   -8.3929  -16.7776 O   0  0  0  0  0  0  0  0  0  0  0  0
  2  1  1  1
  3  2  1  0
  4  3  1  0
  5  6  2  0
  5  2  1  0
  7  5  1  0
  8  7  1  0
  8  9  1  6
 10  9  1  0
 10 11  2  0
 12 11  1  0
 13 12  2  0
 14 15  2  0
 14 13  1  0
 15 10  1  0
 16  8  1  0
 17 16  2  0
 19 29  2  0
 19 18  1  0
 20 19  1  0
 21 22  1  0
 21 20  2  0
 22 28  2  0
 23 22  1  0
 24 23  1  1
 24 25  1  0
 25 16  1  0
 26 24  1  0
 26 30  1  0
 27 26  2  0
 28 29  1  0
M  END
$$$$
