CFY.pdb
     RDKit          3D

 30 31  0  0  1  0  0  0  0  0999 V2000
   18.0077  -12.8089  -16.8128 N   0  0  0  0  0  0  0  0  0  0  0  0
   17.4987  -11.6550  -16.1372 C   0  0  1  0  0  0  0  0  0  0  0  0
   17.6007  -11.7740  -14.6259 C   0  0  0  0  0  0  0  0  0  0  0  0
   16.5927  -13.1114  -13.9800 S   0  0  0  0  0  0  0  0  0  0  0  0
   18.2456  -10.4094  -16.5165 C   0  0  0  0  0  0  0  0  0  0  0  0
   19.4802  -10.5107  -16.7383 O   0  0  0  0  0  0  0  0  0  0  0  0
   17.5737   -9.1761  -16.6167 N   0  0  0  0  0  0  0  0  0  0  0  0
   18.3389   -8.0112  -17.1371 C   0  0  1  0  0  0  0  0  0  0  0  0
   17.4069   -7.1395  -17.9042 C   0  0  0  0  0  0  0  0  0  0  0  0
   17.9161   -5.8386  -18.3450 C   0  0  0  0  0  0  0  0  0  0  0  0
   18.8201   -5.7663  -19.4182 C   0  0  0  0  0  0  0  0  0  0  0  0
   19.2913   -4.5790  -19.8971 C   0  0  0  0  0  0  0  0  0  0  0  0
   18.8937   -3.3811  -19.3390 C   0  0  0  0  0  0  0  0  0  0  0  0
   18.0201   -3.4130  -18.2990 C   0  0  0  0  0  0  0  0  0  0  0  0
   17.5499   -4.6206  -17.8225 C   0  0  0  0  0  0  0  0  0  0  0  0
   18.8801   -7.3532  -15.9483 C   0  0  0  0  0  0  0  0  0  0  0  0
   18.1042   -7.1759  -14.9468 O   0  0  0  0  0  0  0  0  0  0  0  0
   25.3156   -8.9859  -17.6547 O   0  0  0  0  0  0  0  0  0  0  0  0
   24.3961   -8.5045  -16.7258 C   0  0  0  0  0  0  0  0  0  0  0  0
   23.4862   -9.4164  -16.1985 C   0  0  0  0  0  0  0  0  0  0  0  0
   22.5570   -8.9889  -15.2764 C   0  0  0  0  0  0  0  0  0  0  0  0
   22.5346   -7.6725  -14.8856 C   0  0  0  0  0  0  0  0  0  0  0  0
   21.5473   -7.2118  -13.9090 C   0  0  0  0  0  0  0  0  0  0  0  0
   20.5677   -6.2314  -14.5723 C   0  0  2  0  0  0  0  0  0  0  0  0
   20.2046   -6.9082  -15.8281 N   0  0  0  0  0  0  0  0  0  0  0  0
   21.1722   -4.9507  -14.8496 C   0  0  0  0  0  0  0  0  0  0  0  0
   21.5308   -4.1818  -13.9082 O   0  0  0  0  0  0  0  0  0  0  0  0
   23.4363   -6.7423  -15.4007 C   0  0  0  0  0  0  0  0  0  0  0  0
   24.3585   -7.1885  -16.3219 C   0  0  0  0  0  0  0  0  0  0  0  0
   21.3938   -4.4945  -16.1242 O   0  0  0  0  0  0  0  0  0  0  0  0
  2  1  1  6
  3  2  1  0
  4  3  1  0
  5  6  2  0
  5  2  1  0
  7  5  1  0
  8  7  1  0
  8  9  1  1
 10  9  1  0
 10 11  2  0
 12 11  1  0
 13 12  2  0
 14 15  2  0
 14 13  1  0
 15 10  1  0
 16  8  1  0
 17 16  2  0
 19 29  2  0
 19 18  1  0
 20 19  1  0
 21 22  1  0
 21 20  2  0
 22 28  2  0
 23 22  1  0
 24 23  1  6
 24 25  1  0
 25 16  1  0
 26 24  1  0
 26 30  1  0
 27 26  2  0
 28 29  1  0
M  END
$$$$
