CFY.pdb
     RDKit          3D

 30 31  0  0  1  0  0  0  0  0999 V2000
   14.7069  -12.2668  -14.3446 N   0  0  0  0  0  0  0  0  0  0  0  0
   15.8199  -11.7678  -13.5968 C   0  0  1  0  0  0  0  0  0  0  0  0
   17.0530  -11.5585  -14.4594 C   0  0  0  0  0  0  0  0  0  0  0  0
   17.8851  -13.1024  -14.8414 S   0  0  0  0  0  0  0  0  0  0  0  0
   15.5173  -10.4426  -12.9599 C   0  0  0  0  0  0  0  0  0  0  0  0
   14.8840   -9.5954  -13.6417 O   0  0  0  0  0  0  0  0  0  0  0  0
   15.9346  -10.1712  -11.6428 N   0  0  0  0  0  0  0  0  0  0  0  0
   15.4877   -8.8940  -11.0244 C   0  0  1  0  0  0  0  0  0  0  0  0
   15.0175   -9.1792   -9.6407 C   0  0  0  0  0  0  0  0  0  0  0  0
   14.4948   -8.0518   -8.8651 C   0  0  0  0  0  0  0  0  0  0  0  0
   13.1166   -7.7778   -8.8674 C   0  0  0  0  0  0  0  0  0  0  0  0
   12.5717   -6.7684   -8.1289 C   0  0  0  0  0  0  0  0  0  0  0  0
   13.3633   -5.9619   -7.3368 C   0  0  0  0  0  0  0  0  0  0  0  0
   14.7010   -6.1979   -7.3103 C   0  0  0  0  0  0  0  0  0  0  0  0
   15.2415   -7.2223   -8.0620 C   0  0  0  0  0  0  0  0  0  0  0  0
   16.6655   -8.0273  -11.0547 C   0  0  0  0  0  0  0  0  0  0  0  0
   17.8083   -8.5482  -10.8116 O   0  0  0  0  0  0  0  0  0  0  0  0
   22.7959   -4.7063  -15.4817 O   0  0  0  0  0  0  0  0  0  0  0  0
   21.7259   -5.2536  -14.7778 C   0  0  0  0  0  0  0  0  0  0  0  0
   21.0104   -6.2739  -15.3981 C   0  0  0  0  0  0  0  0  0  0  0  0
   19.9436   -6.8474  -14.7427 C   0  0  0  0  0  0  0  0  0  0  0  0
   19.5948   -6.4107  -13.4881 C   0  0  0  0  0  0  0  0  0  0  0  0
   18.4601   -7.0138  -12.7885 C   0  0  0  0  0  0  0  0  0  0  0  0
   17.8922   -6.0269  -11.7569 C   0  0  2  0  0  0  0  0  0  0  0  0
   16.6271   -6.6554  -11.3429 N   0  0  0  0  0  0  0  0  0  0  0  0
   17.6429   -4.7221  -12.3208 C   0  0  0  0  0  0  0  0  0  0  0  0
   18.6007   -3.9657  -12.6620 O   0  0  0  0  0  0  0  0  0  0  0  0
   20.2974   -5.3905  -12.8484 C   0  0  0  0  0  0  0  0  0  0  0  0
   21.3615   -4.8290  -13.5195 C   0  0  0  0  0  0  0  0  0  0  0  0
   16.3785   -4.2287  -12.5205 O   0  0  0  0  0  0  0  0  0  0  0  0
  2  1  1  6
  3  2  1  0
  4  3  1  0
  5  6  2  0
  5  2  1  0
  7  5  1  0
  8  7  1  0
  8  9  1  1
 10  9  1  0
 10 11  2  0
 12 11  1  0
 13 12  2  0
 14 15  2  0
 14 13  1  0
 15 10  1  0
 16  8  1  0
 17 16  2  0
 19 29  2  0
 19 18  1  0
 20 19  1  0
 21 22  1  0
 21 20  2  0
 22 28  2  0
 23 22  1  0
 24 23  1  6
 24 25  1  0
 25 16  1  0
 26 24  1  0
 26 30  1  0
 27 26  2  0
 28 29  1  0
M  END
$$$$
