ELQ.pdb
     RDKit          3D

 27 26  0  0  1  0  0  0  0  0999 V2000
   27.2446  -21.3174  -15.8608 N   0  0  0  0  0  0  0  0  0  0  0  0
   26.4799  -20.2537  -15.3222 C   0  0  1  0  0  0  0  0  0  0  0  0
   25.9029  -19.2648  -16.2615 C   0  0  0  0  0  0  0  0  0  0  0  0
   25.8065  -19.6572  -17.6980 C   0  0  0  0  0  0  0  0  0  0  0  0
   26.6586  -18.8626  -18.5849 C   0  0  0  0  0  0  0  0  0  0  0  0
   26.6485  -18.9902  -19.8158 O   0  0  0  0  0  0  0  0  0  0  0  0
   25.3550  -20.8454  -14.5031 C   0  0  0  0  0  0  0  0  0  0  0  0
   24.7095  -21.7896  -14.9663 O   0  0  0  0  0  0  0  0  0  0  0  0
   27.5267  -17.9151  -18.0375 O   0  0  0  0  0  0  0  0  0  0  0  0
   26.0065  -20.2594   -9.0904 C   0  0  0  0  0  0  0  0  0  0  0  0
   25.7059  -20.6422  -10.5262 C   0  0  1  0  0  0  0  0  0  0  0  0
   25.8528  -22.1863  -10.6256 C   0  0  0  0  0  0  0  0  0  0  0  0
   24.2719  -20.3526  -10.8907 C   0  0  0  0  0  0  0  0  0  0  0  0
   24.0793  -20.7178  -12.3505 C   0  0  2  0  0  0  0  0  0  0  0  0
   25.1003  -20.2801  -13.2365 N   0  0  0  0  0  0  0  0  0  0  0  0
   22.7073  -20.5057  -12.8293 C   0  0  0  0  0  0  0  0  0  0  0  0
   22.2715  -19.3715  -13.1792 O   0  0  0  0  0  0  0  0  0  0  0  0
   19.1547  -24.8340  -15.7215 N   0  0  0  0  0  0  0  0  0  0  0  0
   20.0256  -23.8595  -16.2195 C   0  0  0  0  0  0  0  0  0  0  0  0
   20.4547  -23.9816  -17.3967 O   0  0  0  0  0  0  0  0  0  0  0  0
   20.4941  -22.6676  -15.4539 C   0  0  0  0  0  0  0  0  0  0  0  0
   19.9309  -22.6130  -14.0853 C   0  0  0  0  0  0  0  0  0  0  0  0
   20.3969  -21.3763  -13.3569 C   0  0  2  0  0  0  0  0  0  0  0  0
   21.8052  -21.5844  -12.9178 N   0  0  0  0  0  0  0  0  0  0  0  0
   19.5987  -21.0360  -12.1598 C   0  0  0  0  0  0  0  0  0  0  0  0
   18.3601  -20.7329  -12.2494 O   0  0  0  0  0  0  0  0  0  0  0  0
   20.1230  -21.0246  -10.8882 O   0  0  0  0  0  0  0  0  0  0  0  0
  2  1  1  6
  2  3  1  0
  3  4  1  0
  4  5  1  0
  5  6  2  0
  5  9  1  0
  7  8  2  0
  7  2  1  0
 11 10  1  1
 11 13  1  0
 12 11  1  0
 14 13  1  1
 14 15  1  0
 15  7  1  0
 16 17  2  0
 16 14  1  0
 19 18  1  0
 20 19  2  0
 21 19  1  0
 22 21  1  0
 23 22  1  1
 23 24  1  0
 24 16  1  0
 25 23  1  0
 26 25  2  0
 27 25  1  0
M  END
$$$$
