ELQ.pdb
     RDKit          3D

 27 26  0  0  1  0  0  0  0  0999 V2000
   29.0041  -22.4765  -16.6410 N   0  0  0  0  0  0  0  0  0  0  0  0
   27.7927  -22.3415  -17.3625 C   0  0  1  0  0  0  0  0  0  0  0  0
   26.9893  -23.5608  -17.6099 C   0  0  0  0  0  0  0  0  0  0  0  0
   25.7573  -23.4149  -18.4390 C   0  0  0  0  0  0  0  0  0  0  0  0
   24.9807  -24.6499  -18.5637 C   0  0  0  0  0  0  0  0  0  0  0  0
   24.0059  -24.9044  -17.8449 O   0  0  0  0  0  0  0  0  0  0  0  0
   26.9221  -21.3352  -16.6442 C   0  0  0  0  0  0  0  0  0  0  0  0
   26.6465  -21.5221  -15.4560 O   0  0  0  0  0  0  0  0  0  0  0  0
   25.3396  -25.5935  -19.5290 O   0  0  0  0  0  0  0  0  0  0  0  0
   27.9923  -16.2979  -17.7322 C   0  0  0  0  0  0  0  0  0  0  0  0
   27.4645  -17.5153  -16.9989 C   0  0  1  0  0  0  0  0  0  0  0  0
   27.4950  -17.1810  -15.4814 C   0  0  0  0  0  0  0  0  0  0  0  0
   26.0150  -17.7746  -17.3223 C   0  0  0  0  0  0  0  0  0  0  0  0
   25.6731  -19.1723  -16.8416 C   0  0  2  0  0  0  0  0  0  0  0  0
   26.4662  -20.2215  -17.3794 N   0  0  0  0  0  0  0  0  0  0  0  0
   24.2296  -19.4402  -16.8046 C   0  0  0  0  0  0  0  0  0  0  0  0
   23.6049  -19.9632  -17.7714 O   0  0  0  0  0  0  0  0  0  0  0  0
   20.7046  -21.0540  -11.8076 N   0  0  0  0  0  0  0  0  0  0  0  0
   19.8298  -20.8734  -12.8838 C   0  0  0  0  0  0  0  0  0  0  0  0
   18.6326  -21.2408  -12.7537 O   0  0  0  0  0  0  0  0  0  0  0  0
   20.2088  -20.2707  -14.1949 C   0  0  0  0  0  0  0  0  0  0  0  0
   21.6416  -19.9013  -14.2585 C   0  0  0  0  0  0  0  0  0  0  0  0
   22.0014  -19.3597  -15.6202 C   0  0  2  0  0  0  0  0  0  0  0  0
   23.4704  -19.1159  -15.6628 N   0  0  0  0  0  0  0  0  0  0  0  0
   21.3253  -18.0925  -15.9711 C   0  0  0  0  0  0  0  0  0  0  0  0
   20.1230  -18.0772  -16.4049 O   0  0  0  0  0  0  0  0  0  0  0  0
   21.9310  -16.8631  -15.8547 O   0  0  0  0  0  0  0  0  0  0  0  0
  2  1  1  1
  2  3  1  0
  3  4  1  0
  4  5  1  0
  5  6  2  0
  5  9  1  0
  7  8  2  0
  7  2  1  0
 11 10  1  6
 11 13  1  0
 12 11  1  0
 14 13  1  6
 14 15  1  0
 15  7  1  0
 16 17  2  0
 16 14  1  0
 19 18  1  0
 20 19  2  0
 21 19  1  0
 22 21  1  0
 23 22  1  1
 23 24  1  0
 24 16  1  0
 25 23  1  0
 26 25  2  0
 27 25  1  0
M  END
$$$$
