ELQ.pdb
     RDKit          3D

 27 26  0  0  1  0  0  0  0  0999 V2000
   16.1933  -10.3325  -15.6225 N   0  0  0  0  0  0  0  0  0  0  0  0
   17.1782   -9.9720  -16.5745 C   0  0  1  0  0  0  0  0  0  0  0  0
   16.8449   -8.9137  -17.5553 C   0  0  0  0  0  0  0  0  0  0  0  0
   15.6890   -9.1608  -18.4661 C   0  0  0  0  0  0  0  0  0  0  0  0
   16.0680   -9.7414  -19.7558 C   0  0  0  0  0  0  0  0  0  0  0  0
   15.9745   -9.1221  -20.8232 O   0  0  0  0  0  0  0  0  0  0  0  0
   18.4273   -9.5559  -15.8307 C   0  0  0  0  0  0  0  0  0  0  0  0
   18.3147   -8.9045  -14.7888 O   0  0  0  0  0  0  0  0  0  0  0  0
   16.5579  -11.0485  -19.8042 O   0  0  0  0  0  0  0  0  0  0  0  0
   23.1209  -10.0219  -13.7483 C   0  0  0  0  0  0  0  0  0  0  0  0
   23.2493  -10.1649  -15.2522 C   0  0  1  0  0  0  0  0  0  0  0  0
   24.3324  -11.2480  -15.5152 C   0  0  0  0  0  0  0  0  0  0  0  0
   21.9847  -10.7054  -15.8697 C   0  0  0  0  0  0  0  0  0  0  0  0
   20.9318   -9.6150  -15.8055 C   0  0  2  0  0  0  0  0  0  0  0  0
   19.6707   -9.9401  -16.3738 N   0  0  0  0  0  0  0  0  0  0  0  0
   21.4470   -8.2847  -16.1545 C   0  0  0  0  0  0  0  0  0  0  0  0
   21.8428   -7.9869  -17.3178 O   0  0  0  0  0  0  0  0  0  0  0  0
   18.6874   -3.8239  -17.6705 N   0  0  0  0  0  0  0  0  0  0  0  0
   18.6950   -3.9689  -16.2795 C   0  0  0  0  0  0  0  0  0  0  0  0
   17.7275   -3.5044  -15.6213 O   0  0  0  0  0  0  0  0  0  0  0  0
   19.7760   -4.6408  -15.5012 C   0  0  0  0  0  0  0  0  0  0  0  0
   20.7971   -5.2688  -16.3708 C   0  0  0  0  0  0  0  0  0  0  0  0
   21.9077   -5.8771  -15.5499 C   0  0  2  0  0  0  0  0  0  0  0  0
   21.5209   -7.2680  -15.1819 N   0  0  0  0  0  0  0  0  0  0  0  0
   22.2112   -5.1494  -14.2993 C   0  0  0  0  0  0  0  0  0  0  0  0
   21.8795   -5.6198  -13.1579 O   0  0  0  0  0  0  0  0  0  0  0  0
   22.8626   -3.9381  -14.2766 O   0  0  0  0  0  0  0  0  0  0  0  0
  2  1  1  1
  2  3  1  0
  3  4  1  0
  4  5  1  0
  5  6  2  0
  5  9  1  0
  7  8  2  0
  7  2  1  0
 11 10  1  1
 11 13  1  0
 12 11  1  0
 14 13  1  6
 14 15  1  0
 15  7  1  0
 16 17  2  0
 16 14  1  0
 19 18  1  0
 20 19  2  0
 21 19  1  0
 22 21  1  0
 23 22  1  1
 23 24  1  0
 24 16  1  0
 25 23  1  0
 26 25  2  0
 27 25  1  0
M  END
$$$$
