ELQ.pdb
     RDKit          3D

 27 26  0  0  1  0  0  0  0  0999 V2000
   13.5497  -10.5274  -11.4748 N   0  0  0  0  0  0  0  0  0  0  0  0
   14.9263  -10.2308  -11.3221 C   0  0  1  0  0  0  0  0  0  0  0  0
   15.8371  -10.5523  -12.4447 C   0  0  0  0  0  0  0  0  0  0  0  0
   15.8679  -11.9662  -12.9208 C   0  0  0  0  0  0  0  0  0  0  0  0
   16.7238  -12.1763  -14.0900 C   0  0  0  0  0  0  0  0  0  0  0  0
   16.6611  -11.4678  -15.1029 O   0  0  0  0  0  0  0  0  0  0  0  0
   15.0622   -8.7586  -11.0050 C   0  0  0  0  0  0  0  0  0  0  0  0
   14.5075   -7.9347  -11.7373 O   0  0  0  0  0  0  0  0  0  0  0  0
   17.6572  -13.2153  -14.0813 O   0  0  0  0  0  0  0  0  0  0  0  0
   13.8728   -6.4749   -6.4602 C   0  0  0  0  0  0  0  0  0  0  0  0
   14.2906   -6.7461   -7.8921 C   0  0  1  0  0  0  0  0  0  0  0  0
   13.7527   -5.5697   -8.7536 C   0  0  0  0  0  0  0  0  0  0  0  0
   15.7892   -6.7061   -8.0515 C   0  0  0  0  0  0  0  0  0  0  0  0
   16.1146   -7.0637   -9.4895 C   0  0  2  0  0  0  0  0  0  0  0  0
   15.8248   -8.4005   -9.8742 N   0  0  0  0  0  0  0  0  0  0  0  0
   17.4184   -6.5565   -9.9366 C   0  0  0  0  0  0  0  0  0  0  0  0
   18.5016   -6.8402   -9.3495 O   0  0  0  0  0  0  0  0  0  0  0  0
   21.4816   -8.7031  -12.4551 N   0  0  0  0  0  0  0  0  0  0  0  0
   21.2039   -7.7203  -13.4107 C   0  0  0  0  0  0  0  0  0  0  0  0
   21.7742   -7.7926  -14.5308 O   0  0  0  0  0  0  0  0  0  0  0  0
   20.2707   -6.5745  -13.2047 C   0  0  0  0  0  0  0  0  0  0  0  0
   19.6383   -6.5894  -11.8656 C   0  0  0  0  0  0  0  0  0  0  0  0
   18.8340   -5.3341  -11.6325 C   0  0  2  0  0  0  0  0  0  0  0  0
   17.5112   -5.7150  -11.0628 N   0  0  0  0  0  0  0  0  0  0  0  0
   18.5850   -4.5339  -12.8505 C   0  0  0  0  0  0  0  0  0  0  0  0
   17.4812   -4.6197  -13.4895 O   0  0  0  0  0  0  0  0  0  0  0  0
   19.5062   -3.6546  -13.3704 O   0  0  0  0  0  0  0  0  0  0  0  0
  2  1  1  6
  2  3  1  0
  3  4  1  0
  4  5  1  0
  5  6  2  0
  5  9  1  0
  7  8  2  0
  7  2  1  0
 11 10  1  1
 11 13  1  0
 12 11  1  0
 14 13  1  1
 14 15  1  0
 15  7  1  0
 16 17  2  0
 16 14  1  0
 19 18  1  0
 20 19  2  0
 21 19  1  0
 22 21  1  0
 23 22  1  6
 23 24  1  0
 24 16  1  0
 25 23  1  0
 26 25  2  0
 27 25  1  0
M  END
$$$$
