ELQ.pdb
     RDKit          3D

 27 26  0  0  1  0  0  0  0  0999 V2000
   19.7679  -13.3776  -16.4378 N   0  0  0  0  0  0  0  0  0  0  0  0
   19.8246  -12.0897  -17.0245 C   0  0  1  0  0  0  0  0  0  0  0  0
   18.5615  -11.3280  -17.1569 C   0  0  0  0  0  0  0  0  0  0  0  0
   17.4415  -11.9789  -17.8976 C   0  0  0  0  0  0  0  0  0  0  0  0
   16.6981  -12.9576  -17.1017 C   0  0  0  0  0  0  0  0  0  0  0  0
   16.5438  -14.1328  -17.4576 O   0  0  0  0  0  0  0  0  0  0  0  0
   20.8058  -11.2518  -16.2360 C   0  0  0  0  0  0  0  0  0  0  0  0
   20.5747  -11.0206  -15.0462 O   0  0  0  0  0  0  0  0  0  0  0  0
   16.1314  -12.5675  -15.8861 O   0  0  0  0  0  0  0  0  0  0  0  0
   25.3245   -9.8555  -14.4210 C   0  0  0  0  0  0  0  0  0  0  0  0
   25.2950   -9.4236  -15.8740 C   0  0  1  0  0  0  0  0  0  0  0  0
   26.7194   -9.6616  -16.4483 C   0  0  0  0  0  0  0  0  0  0  0  0
   24.3812  -10.2969  -16.6957 C   0  0  0  0  0  0  0  0  0  0  0  0
   22.9510   -9.9603  -16.3178 C   0  0  2  0  0  0  0  0  0  0  0  0
   21.9480  -10.7736  -16.9107 N   0  0  0  0  0  0  0  0  0  0  0  0
   22.6686   -8.5191  -16.3263 C   0  0  0  0  0  0  0  0  0  0  0  0
   22.9936   -7.7630  -17.2861 O   0  0  0  0  0  0  0  0  0  0  0  0
   17.3502   -5.9768  -15.0906 N   0  0  0  0  0  0  0  0  0  0  0  0
   18.0184   -6.3769  -16.2523 C   0  0  0  0  0  0  0  0  0  0  0  0
   17.3400   -6.6046  -17.2881 O   0  0  0  0  0  0  0  0  0  0  0  0
   19.4952   -6.5585  -16.3631 C   0  0  0  0  0  0  0  0  0  0  0  0
   20.1988   -6.2903  -15.0879 C   0  0  0  0  0  0  0  0  0  0  0  0
   21.6901   -6.4574  -15.2465 C   0  0  2  0  0  0  0  0  0  0  0  0
   22.0098   -7.9124  -15.2386 N   0  0  0  0  0  0  0  0  0  0  0  0
   22.4926   -5.8152  -14.1837 C   0  0  0  0  0  0  0  0  0  0  0  0
   22.4938   -4.5469  -14.0246 O   0  0  0  0  0  0  0  0  0  0  0  0
   23.2780   -6.5253  -13.3057 O   0  0  0  0  0  0  0  0  0  0  0  0
  2  1  1  1
  2  3  1  0
  3  4  1  0
  4  5  1  0
  5  6  2  0
  5  9  1  0
  7  8  2  0
  7  2  1  0
 11 10  1  1
 11 13  1  0
 12 11  1  0
 14 13  1  6
 14 15  1  0
 15  7  1  0
 16 17  2  0
 16 14  1  0
 19 18  1  0
 20 19  2  0
 21 19  1  0
 22 21  1  0
 23 22  1  1
 23 24  1  0
 24 16  1  0
 25 23  1  0
 26 25  2  0
 27 25  1  0
M  END
$$$$
