ELQ.pdb
     RDKit          3D

 27 26  0  0  1  0  0  0  0  0999 V2000
   17.7606  -10.7808  -15.5939 N   0  0  0  0  0  0  0  0  0  0  0  0
   17.9866   -9.3828  -15.5649 C   0  0  1  0  0  0  0  0  0  0  0  0
   16.9027   -8.4917  -16.0383 C   0  0  0  0  0  0  0  0  0  0  0  0
   16.4615   -8.6402  -17.4560 C   0  0  0  0  0  0  0  0  0  0  0  0
   15.0215   -8.8591  -17.6057 C   0  0  0  0  0  0  0  0  0  0  0  0
   14.2550   -8.9623  -16.6395 O   0  0  0  0  0  0  0  0  0  0  0  0
   18.3429   -8.9890  -14.1491 C   0  0  0  0  0  0  0  0  0  0  0  0
   17.6934   -9.4645  -13.2139 O   0  0  0  0  0  0  0  0  0  0  0  0
   14.4702   -8.9584  -18.8852 O   0  0  0  0  0  0  0  0  0  0  0  0
   21.3955   -9.2636  -11.4607 C   0  0  0  0  0  0  0  0  0  0  0  0
   22.0524   -8.2732  -12.4021 C   0  0  1  0  0  0  0  0  0  0  0  0
   22.1201   -8.9502  -13.7995 C   0  0  0  0  0  0  0  0  0  0  0  0
   21.2041   -7.0419  -12.5948 C   0  0  0  0  0  0  0  0  0  0  0  0
   19.7602   -7.4873  -12.7302 C   0  0  2  0  0  0  0  0  0  0  0  0
   19.4130   -8.0881  -13.9701 N   0  0  0  0  0  0  0  0  0  0  0  0
   18.7955   -6.5022  -12.2246 C   0  0  0  0  0  0  0  0  0  0  0  0
   18.1897   -5.6875  -12.9782 O   0  0  0  0  0  0  0  0  0  0  0  0
   13.7103   -6.9374  -10.2134 N   0  0  0  0  0  0  0  0  0  0  0  0
   13.9073   -5.5779   -9.9508 C   0  0  0  0  0  0  0  0  0  0  0  0
   12.9706   -4.9263   -9.4188 O   0  0  0  0  0  0  0  0  0  0  0  0
   15.1595   -4.8263  -10.2563 C   0  0  0  0  0  0  0  0  0  0  0  0
   16.1878   -5.6730  -10.9035 C   0  0  0  0  0  0  0  0  0  0  0  0
   17.5532   -5.4104  -10.3170 C   0  0  2  0  0  0  0  0  0  0  0  0
   18.5034   -6.4274  -10.8483 N   0  0  0  0  0  0  0  0  0  0  0  0
   17.6059   -5.4743   -8.8408 C   0  0  0  0  0  0  0  0  0  0  0  0
   18.2891   -6.3702   -8.2370 O   0  0  0  0  0  0  0  0  0  0  0  0
   16.9376   -4.5881   -8.0284 O   0  0  0  0  0  0  0  0  0  0  0  0
  2  1  1  1
  2  3  1  0
  3  4  1  0
  4  5  1  0
  5  6  2  0
  5  9  1  0
  7  8  2  0
  7  2  1  0
 11 10  1  1
 11 13  1  0
 12 11  1  0
 14 13  1  6
 14 15  1  0
 15  7  1  0
 16 17  2  0
 16 14  1  0
 19 18  1  0
 20 19  2  0
 21 19  1  0
 22 21  1  0
 23 22  1  6
 23 24  1  0
 24 16  1  0
 25 23  1  0
 26 25  2  0
 27 25  1  0
M  END
$$$$
