ELQ.pdb
     RDKit          3D

 27 26  0  0  1  0  0  0  0  0999 V2000
   23.6213  -15.0304  -17.5777 N   0  0  0  0  0  0  0  0  0  0  0  0
   22.4402  -14.6376  -16.9018 C   0  0  1  0  0  0  0  0  0  0  0  0
   21.8788  -15.5587  -15.8871 C   0  0  0  0  0  0  0  0  0  0  0  0
   22.2685  -16.9965  -15.9744 C   0  0  0  0  0  0  0  0  0  0  0  0
   21.6551  -17.8373  -14.9446 C   0  0  0  0  0  0  0  0  0  0  0  0
   20.8571  -17.3971  -14.1072 O   0  0  0  0  0  0  0  0  0  0  0  0
   22.6929  -13.3001  -16.2431 C   0  0  0  0  0  0  0  0  0  0  0  0
   21.9243  -12.9137  -15.3585 O   0  0  0  0  0  0  0  0  0  0  0  0
   21.9713  -19.1966  -14.8882 O   0  0  0  0  0  0  0  0  0  0  0  0
   27.9165  -11.6796  -16.2869 C   0  0  0  0  0  0  0  0  0  0  0  0
   26.4539  -11.9723  -16.0156 C   0  0  1  0  0  0  0  0  0  0  0  0
   26.2927  -12.0949  -14.4747 C   0  0  0  0  0  0  0  0  0  0  0  0
   25.5714  -10.8186  -16.4196 C   0  0  0  0  0  0  0  0  0  0  0  0
   24.1285  -11.2469  -16.2295 C   0  0  2  0  0  0  0  0  0  0  0  0
   23.8084  -12.5560  -16.6796 N   0  0  0  0  0  0  0  0  0  0  0  0
   23.1578  -10.2080  -16.5974 C   0  0  0  0  0  0  0  0  0  0  0  0
   22.6770  -10.1012  -17.7619 O   0  0  0  0  0  0  0  0  0  0  0  0
   18.0327  -10.8227  -16.9210 N   0  0  0  0  0  0  0  0  0  0  0  0
   18.4571   -9.7479  -17.7089 C   0  0  0  0  0  0  0  0  0  0  0  0
   17.8155   -9.4819  -18.7589 O   0  0  0  0  0  0  0  0  0  0  0  0
   19.6288   -8.8778  -17.3990 C   0  0  0  0  0  0  0  0  0  0  0  0
   20.3384   -9.2960  -16.1683 C   0  0  0  0  0  0  0  0  0  0  0  0
   21.5294   -8.4085  -15.9016 C   0  0  2  0  0  0  0  0  0  0  0  0
   22.7170   -9.2699  -15.6430 N   0  0  0  0  0  0  0  0  0  0  0  0
   21.3693   -7.5043  -14.7429 C   0  0  0  0  0  0  0  0  0  0  0  0
   21.8503   -7.8001  -13.5960 O   0  0  0  0  0  0  0  0  0  0  0  0
   20.7060   -6.3016  -14.8171 O   0  0  0  0  0  0  0  0  0  0  0  0
  2  1  1  1
  2  3  1  0
  3  4  1  0
  4  5  1  0
  5  6  2  0
  5  9  1  0
  7  8  2  0
  7  2  1  0
 11 10  1  1
 11 13  1  0
 12 11  1  0
 14 13  1  6
 14 15  1  0
 15  7  1  0
 16 17  2  0
 16 14  1  0
 19 18  1  0
 20 19  2  0
 21 19  1  0
 22 21  1  0
 23 22  1  1
 23 24  1  0
 24 16  1  0
 25 23  1  0
 26 25  2  0
 27 25  1  0
M  END
$$$$
