ELQ.pdb
     RDKit          3D

 27 26  0  0  1  0  0  0  0  0999 V2000
   26.5356  -22.5384  -15.2003 N   0  0  0  0  0  0  0  0  0  0  0  0
   25.3071  -23.2157  -15.3957 C   0  0  1  0  0  0  0  0  0  0  0  0
   25.3117  -24.6958  -15.3460 C   0  0  0  0  0  0  0  0  0  0  0  0
   26.3520  -25.4064  -16.1456 C   0  0  0  0  0  0  0  0  0  0  0  0
   25.9263  -25.7358  -17.5074 C   0  0  0  0  0  0  0  0  0  0  0  0
   26.2297  -25.0469  -18.4897 O   0  0  0  0  0  0  0  0  0  0  0  0
   24.3172  -22.7078  -14.3716 C   0  0  0  0  0  0  0  0  0  0  0  0
   23.2329  -23.2841  -14.2499 O   0  0  0  0  0  0  0  0  0  0  0  0
   25.1439  -26.8716  -17.7276 O   0  0  0  0  0  0  0  0  0  0  0  0
   26.4327  -20.4740   -9.8894 C   0  0  0  0  0  0  0  0  0  0  0  0
   25.5750  -21.1612  -10.9338 C   0  0  1  0  0  0  0  0  0  0  0  0
   24.7486  -22.2522  -10.1974 C   0  0  0  0  0  0  0  0  0  0  0  0
   24.5571  -20.2195  -11.5253 C   0  0  0  0  0  0  0  0  0  0  0  0
   23.8481  -20.9474  -12.6517 C   0  0  2  0  0  0  0  0  0  0  0  0
   24.6906  -21.5885  -13.5994 N   0  0  0  0  0  0  0  0  0  0  0  0
   22.7313  -20.1866  -13.2268 C   0  0  0  0  0  0  0  0  0  0  0  0
   22.9004  -19.1904  -13.9867 O   0  0  0  0  0  0  0  0  0  0  0  0
   19.8263  -23.0388  -16.9042 N   0  0  0  0  0  0  0  0  0  0  0  0
   19.2887  -21.7609  -17.0884 C   0  0  0  0  0  0  0  0  0  0  0  0
   18.4457  -21.5899  -18.0077 O   0  0  0  0  0  0  0  0  0  0  0  0
   19.6407  -20.5649  -16.2688 C   0  0  0  0  0  0  0  0  0  0  0  0
   20.6756  -20.8573  -15.2506 C   0  0  0  0  0  0  0  0  0  0  0  0
   20.3031  -20.2645  -13.9139 C   0  0  2  0  0  0  0  0  0  0  0  0
   21.3988  -20.5479  -12.9452 N   0  0  0  0  0  0  0  0  0  0  0  0
   19.0478  -20.7943  -13.3399 C   0  0  0  0  0  0  0  0  0  0  0  0
   17.9270  -20.2129  -13.5392 O   0  0  0  0  0  0  0  0  0  0  0  0
   18.9987  -21.9313  -12.5672 O   0  0  0  0  0  0  0  0  0  0  0  0
  2  1  1  1
  2  3  1  0
  3  4  1  0
  4  5  1  0
  5  6  2  0
  5  9  1  0
  7  8  2  0
  7  2  1  0
 11 10  1  1
 11 13  1  0
 12 11  1  0
 14 13  1  6
 14 15  1  0
 15  7  1  0
 16 17  2  0
 16 14  1  0
 19 18  1  0
 20 19  2  0
 21 19  1  0
 22 21  1  0
 23 22  1  6
 23 24  1  0
 24 16  1  0
 25 23  1  0
 26 25  2  0
 27 25  1  0
M  END
$$$$
