ELQ.pdb
     RDKit          3D

 27 26  0  0  1  0  0  0  0  0999 V2000
   26.9150  -20.4137  -17.7093 N   0  0  0  0  0  0  0  0  0  0  0  0
   26.3930  -19.4521  -16.8099 C   0  0  1  0  0  0  0  0  0  0  0  0
   25.5548  -18.3636  -17.3627 C   0  0  0  0  0  0  0  0  0  0  0  0
   25.0758  -18.5119  -18.7681 C   0  0  0  0  0  0  0  0  0  0  0  0
   25.9165  -17.8281  -19.7529 C   0  0  0  0  0  0  0  0  0  0  0  0
   25.5648  -17.6497  -20.9260 O   0  0  0  0  0  0  0  0  0  0  0  0
   25.5940  -20.1776  -15.7507 C   0  0  0  0  0  0  0  0  0  0  0  0
   24.7394  -20.9958  -16.1012 O   0  0  0  0  0  0  0  0  0  0  0  0
   27.1720  -17.3496  -19.3715 O   0  0  0  0  0  0  0  0  0  0  0  0
   25.2869  -22.3925  -10.8154 C   0  0  0  0  0  0  0  0  0  0  0  0
   24.9477  -20.9180  -10.9124 C   0  0  1  0  0  0  0  0  0  0  0  0
   25.3247  -20.2739   -9.5491 C   0  0  0  0  0  0  0  0  0  0  0  0
   25.8032  -20.2165  -11.9365 C   0  0  0  0  0  0  0  0  0  0  0  0
   25.1552  -20.4079  -13.2948 C   0  0  2  0  0  0  0  0  0  0  0  0
   25.8719  -19.8775  -14.4012 N   0  0  0  0  0  0  0  0  0  0  0  0
   23.7128  -20.1314  -13.2978 C   0  0  0  0  0  0  0  0  0  0  0  0
   23.2390  -18.9662  -13.4255 O   0  0  0  0  0  0  0  0  0  0  0  0
   19.6834  -22.8144  -16.8878 N   0  0  0  0  0  0  0  0  0  0  0  0
   18.9241  -21.9614  -16.0804 C   0  0  0  0  0  0  0  0  0  0  0  0
   17.7114  -21.7831  -16.3676 O   0  0  0  0  0  0  0  0  0  0  0  0
   19.4458  -21.2339  -14.8868 C   0  0  0  0  0  0  0  0  0  0  0  0
   20.8876  -21.4805  -14.6553 C   0  0  0  0  0  0  0  0  0  0  0  0
   21.3211  -20.9399  -13.3148 C   0  0  2  0  0  0  0  0  0  0  0  0
   22.7827  -21.1799  -13.1545 N   0  0  0  0  0  0  0  0  0  0  0  0
   20.6354  -21.5546  -12.1581 C   0  0  0  0  0  0  0  0  0  0  0  0
   19.4723  -21.1707  -11.7925 O   0  0  0  0  0  0  0  0  0  0  0  0
   21.1901  -22.5665  -11.4095 O   0  0  0  0  0  0  0  0  0  0  0  0
  2  1  1  6
  2  3  1  0
  3  4  1  0
  4  5  1  0
  5  6  2  0
  5  9  1  0
  7  8  2  0
  7  2  1  0
 11 10  1  1
 11 13  1  0
 12 11  1  0
 14 13  1  1
 14 15  1  0
 15  7  1  0
 16 17  2  0
 16 14  1  0
 19 18  1  0
 20 19  2  0
 21 19  1  0
 22 21  1  0
 23 22  1  6
 23 24  1  0
 24 16  1  0
 25 23  1  0
 26 25  2  0
 27 25  1  0
M  END
$$$$
