ELQ.pdb
     RDKit          3D

 27 26  0  0  1  0  0  0  0  0999 V2000
   19.3686  -12.6747  -16.8099 N   0  0  0  0  0  0  0  0  0  0  0  0
   19.7321  -11.3895  -17.2814 C   0  0  1  0  0  0  0  0  0  0  0  0
   18.6730  -10.5379  -17.8697 C   0  0  0  0  0  0  0  0  0  0  0  0
   17.9387  -11.0741  -19.0529 C   0  0  0  0  0  0  0  0  0  0  0  0
   17.0071  -10.1168  -19.6524 C   0  0  0  0  0  0  0  0  0  0  0  0
   15.8139  -10.3778  -19.8526 O   0  0  0  0  0  0  0  0  0  0  0  0
   20.3759  -10.6308  -16.1428 C   0  0  0  0  0  0  0  0  0  0  0  0
   19.8168  -10.6139  -15.0429 O   0  0  0  0  0  0  0  0  0  0  0  0
   17.4652   -8.8499  -20.0210 O   0  0  0  0  0  0  0  0  0  0  0  0
   25.6109  -11.1467  -15.5349 C   0  0  0  0  0  0  0  0  0  0  0  0
   24.1270  -10.8677  -15.3980 C   0  0  1  0  0  0  0  0  0  0  0  0
   23.7124  -11.3039  -13.9651 C   0  0  0  0  0  0  0  0  0  0  0  0
   23.8296   -9.3914  -15.4685 C   0  0  0  0  0  0  0  0  0  0  0  0
   22.3227   -9.2179  -15.4425 C   0  0  2  0  0  0  0  0  0  0  0  0
   21.5973   -9.9751  -16.4014 N   0  0  0  0  0  0  0  0  0  0  0  0
   21.8984   -7.8187  -15.3048 C   0  0  0  0  0  0  0  0  0  0  0  0
   22.3081   -7.0670  -14.3743 O   0  0  0  0  0  0  0  0  0  0  0  0
   22.0935   -3.4608  -19.3222 N   0  0  0  0  0  0  0  0  0  0  0  0
   21.0905   -4.4163  -19.5147 C   0  0  0  0  0  0  0  0  0  0  0  0
   20.6123   -4.5616  -20.6702 O   0  0  0  0  0  0  0  0  0  0  0  0
   20.5331   -5.2909  -18.4422 C   0  0  0  0  0  0  0  0  0  0  0  0
   21.0928   -4.9804  -17.1066 C   0  0  0  0  0  0  0  0  0  0  0  0
   20.4833   -5.8633  -16.0454 C   0  0  2  0  0  0  0  0  0  0  0  0
   20.9973   -7.2498  -16.2265 N   0  0  0  0  0  0  0  0  0  0  0  0
   19.0064   -5.9241  -16.0763 C   0  0  0  0  0  0  0  0  0  0  0  0
   18.3915   -6.9444  -16.5399 O   0  0  0  0  0  0  0  0  0  0  0  0
   18.2050   -4.9063  -15.6139 O   0  0  0  0  0  0  0  0  0  0  0  0
  2  1  1  1
  2  3  1  0
  3  4  1  0
  4  5  1  0
  5  6  2  0
  5  9  1  0
  7  8  2  0
  7  2  1  0
 11 10  1  1
 11 13  1  0
 12 11  1  0
 14 13  1  6
 14 15  1  0
 15  7  1  0
 16 17  2  0
 16 14  1  0
 19 18  1  0
 20 19  2  0
 21 19  1  0
 22 21  1  0
 23 22  1  6
 23 24  1  0
 24 16  1  0
 25 23  1  0
 26 25  2  0
 27 25  1  0
M  END
$$$$
