ELQ.pdb
     RDKit          3D

 27 26  0  0  1  0  0  0  0  0999 V2000
   27.4627  -22.9422  -16.5425 N   0  0  0  0  0  0  0  0  0  0  0  0
   27.6198  -21.7824  -15.7448 C   0  0  1  0  0  0  0  0  0  0  0  0
   27.6701  -20.4689  -16.4269 C   0  0  0  0  0  0  0  0  0  0  0  0
   26.5260  -20.1128  -17.3162 C   0  0  0  0  0  0  0  0  0  0  0  0
   26.7165  -18.8595  -18.0491 C   0  0  0  0  0  0  0  0  0  0  0  0
   25.7862  -18.2563  -18.5990 O   0  0  0  0  0  0  0  0  0  0  0  0
   26.4997  -21.7494  -14.7295 C   0  0  0  0  0  0  0  0  0  0  0  0
   25.3841  -22.1642  -15.0552 O   0  0  0  0  0  0  0  0  0  0  0  0
   27.9951  -18.3053  -18.1430 O   0  0  0  0  0  0  0  0  0  0  0  0
   24.7326  -21.7531   -9.7803 C   0  0  0  0  0  0  0  0  0  0  0  0
   25.2146  -20.3656  -10.1560 C   0  0  1  0  0  0  0  0  0  0  0  0
   25.8078  -19.7263   -8.8696 C   0  0  0  0  0  0  0  0  0  0  0  0
   26.3566  -20.4204  -11.1386 C   0  0  0  0  0  0  0  0  0  0  0  0
   25.8221  -20.9802  -12.4434 C   0  0  2  0  0  0  0  0  0  0  0  0
   26.7932  -21.2405  -13.4475 N   0  0  0  0  0  0  0  0  0  0  0  0
   24.6063  -20.3042  -12.9143 C   0  0  0  0  0  0  0  0  0  0  0  0
   24.6342  -19.3072  -13.6913 O   0  0  0  0  0  0  0  0  0  0  0  0
   21.9052  -21.1852  -17.4122 N   0  0  0  0  0  0  0  0  0  0  0  0
   20.9257  -20.4197  -16.7713 C   0  0  0  0  0  0  0  0  0  0  0  0
   19.9468  -20.0077  -17.4473 O   0  0  0  0  0  0  0  0  0  0  0  0
   20.9493  -20.0465  -15.3269 C   0  0  0  0  0  0  0  0  0  0  0  0
   22.1500  -20.5576  -14.6267 C   0  0  0  0  0  0  0  0  0  0  0  0
   22.0937  -20.2398  -13.1526 C   0  0  2  0  0  0  0  0  0  0  0  0
   23.3344  -20.7530  -12.5070 N   0  0  0  0  0  0  0  0  0  0  0  0
   20.9399  -20.8335  -12.4439 C   0  0  0  0  0  0  0  0  0  0  0  0
   20.9933  -22.0143  -11.9571 O   0  0  0  0  0  0  0  0  0  0  0  0
   19.7505  -20.1677  -12.2597 O   0  0  0  0  0  0  0  0  0  0  0  0
  2  1  1  6
  2  3  1  0
  3  4  1  0
  4  5  1  0
  5  6  2  0
  5  9  1  0
  7  8  2  0
  7  2  1  0
 11 10  1  1
 11 13  1  0
 12 11  1  0
 14 13  1  1
 14 15  1  0
 15  7  1  0
 16 17  2  0
 16 14  1  0
 19 18  1  0
 20 19  2  0
 21 19  1  0
 22 21  1  0
 23 22  1  6
 23 24  1  0
 24 16  1  0
 25 23  1  0
 26 25  2  0
 27 25  1  0
M  END
$$$$
