WPM.pdb
     RDKit          3D

 30 32  0  0  1  0  0  0  0  0999 V2000
   23.7264  -19.5550  -15.3864 N   0  0  0  0  0  0  0  0  0  0  0  0
   24.9271  -19.1674  -14.6751 C   0  0  1  0  0  0  0  0  0  0  0  0
   24.7884  -17.7539  -14.1283 C   0  0  0  0  0  0  0  0  0  0  0  0
   24.8037  -16.8246  -15.2859 C   0  0  0  0  0  0  0  0  0  0  0  0
   23.6800  -16.0912  -15.6918 C   0  0  0  0  0  0  0  0  0  0  0  0
   23.9927  -15.3125  -16.7342 N   0  0  0  0  0  0  0  0  0  0  0  0
   25.2758  -15.5158  -17.0173 C   0  0  0  0  0  0  0  0  0  0  0  0
   26.0676  -14.9607  -18.0040 C   0  0  0  0  0  0  0  0  0  0  0  0
   27.3865  -15.3579  -18.0879 C   0  0  0  0  0  0  0  0  0  0  0  0
   27.9149  -16.2841  -17.2171 C   0  0  0  0  0  0  0  0  0  0  0  0
   27.1165  -16.8471  -16.2179 C   0  0  0  0  0  0  0  0  0  0  0  0
   25.8018  -16.4500  -16.1339 C   0  0  0  0  0  0  0  0  0  0  0  0
   25.1880  -20.1248  -13.5318 C   0  0  0  0  0  0  0  0  0  0  0  0
   24.1912  -20.2799  -12.7824 O   0  0  0  0  0  0  0  0  0  0  0  0
   26.4239  -20.7555  -13.3569 N   0  0  0  0  0  0  0  0  0  0  0  0
   27.1381  -21.4661  -14.4447 C   0  0  0  0  0  0  0  0  0  0  0  0
   28.4696  -20.7108  -14.3528 C   0  0  0  0  0  0  0  0  0  0  0  0
   28.5565  -20.2022  -12.8977 C   0  0  0  0  0  0  0  0  0  0  0  0
   27.3735  -20.9369  -12.2991 C   0  0  1  0  0  0  0  0  0  0  0  0
   27.0423  -20.5833  -10.9497 C   0  0  0  0  0  0  0  0  0  0  0  0
   27.7570  -19.6430  -10.4382 O   0  0  0  0  0  0  0  0  0  0  0  0
   28.3776  -19.3926   -4.1380 C   0  0  0  0  0  0  0  0  0  0  0  0
   28.2836  -19.0901   -5.9403 S   0  0  0  0  0  0  0  0  0  0  0  0
   27.0208  -20.2503   -6.6060 C   0  0  0  0  0  0  0  0  0  0  0  0
   27.1024  -20.2967   -8.1062 C   0  0  0  0  0  0  0  0  0  0  0  0
   26.1244  -21.2532   -8.6764 C   0  0  2  0  0  0  0  0  0  0  0  0
   26.0521  -21.1394  -10.1427 N   0  0  0  0  0  0  0  0  0  0  0  0
   24.7628  -20.9763   -8.1788 C   0  0  0  0  0  0  0  0  0  0  0  0
   24.4928  -21.0190   -6.9633 O   0  0  0  0  0  0  0  0  0  0  0  0
   23.6865  -20.6490   -9.0262 O   0  0  0  0  0  0  0  0  0  0  0  0
  2  1  1  1
  2  3  1  0
  3  4  1  0
  4 12  1  0
  4  5  2  0
  5  6  1  0
  7  8  2  0
  7  6  1  0
  9  8  1  0
 10  9  2  0
 11 10  1  0
 11 12  2  0
 12  7  1  0
 13 15  1  0
 13  2  1  0
 14 13  2  0
 15 19  1  0
 16 17  1  0
 16 15  1  0
 17 18  1  0
 19 18  1  0
 19 20  1  1
 20 21  2  0
 22 23  1  0
 24 23  1  0
 24 25  1  0
 26 25  1  1
 26 27  1  0
 26 28  1  0
 27 20  1  0
 28 30  1  0
 29 28  2  0
M  END
$$$$
