WPM.pdb
     RDKit          3D

 30 32  0  0  1  0  0  0  0  0999 V2000
   21.2159  -20.5561  -14.9711 N   0  0  0  0  0  0  0  0  0  0  0  0
   22.1587  -19.5571  -14.5120 C   0  0  1  0  0  0  0  0  0  0  0  0
   21.4309  -18.2787  -14.1216 C   0  0  0  0  0  0  0  0  0  0  0  0
   20.2904  -18.6627  -13.2523 C   0  0  0  0  0  0  0  0  0  0  0  0
   18.9797  -18.8031  -13.7291 C   0  0  0  0  0  0  0  0  0  0  0  0
   18.1698  -19.1908  -12.7369 N   0  0  0  0  0  0  0  0  0  0  0  0
   18.9080  -19.3054  -11.6370 C   0  0  0  0  0  0  0  0  0  0  0  0
   18.5428  -19.6672  -10.3547 C   0  0  0  0  0  0  0  0  0  0  0  0
   19.5179  -19.6980   -9.3787 C   0  0  0  0  0  0  0  0  0  0  0  0
   20.8271  -19.3784   -9.6605 C   0  0  0  0  0  0  0  0  0  0  0  0
   21.1994  -19.0122  -10.9566 C   0  0  0  0  0  0  0  0  0  0  0  0
   20.2270  -18.9827  -11.9297 C   0  0  0  0  0  0  0  0  0  0  0  0
   22.9322  -20.0787  -13.3197 C   0  0  0  0  0  0  0  0  0  0  0  0
   22.6186  -19.5113  -12.2430 O   0  0  0  0  0  0  0  0  0  0  0  0
   23.8908  -21.0899  -13.4393 N   0  0  0  0  0  0  0  0  0  0  0  0
   23.7392  -22.2545  -14.3444 C   0  0  0  0  0  0  0  0  0  0  0  0
   25.0510  -22.0911  -15.1216 C   0  0  0  0  0  0  0  0  0  0  0  0
   26.0052  -21.3399  -14.1683 C   0  0  0  0  0  0  0  0  0  0  0  0
   25.1833  -21.3856  -12.8956 C   0  0  1  0  0  0  0  0  0  0  0  0
   25.7039  -20.6304  -11.7938 C   0  0  0  0  0  0  0  0  0  0  0  0
   25.8422  -19.3691  -12.0103 O   0  0  0  0  0  0  0  0  0  0  0  0
   28.5987  -19.3362   -4.6087 C   0  0  0  0  0  0  0  0  0  0  0  0
   27.2230  -20.0270   -5.5981 S   0  0  0  0  0  0  0  0  0  0  0  0
   27.8221  -20.1347   -7.3339 C   0  0  0  0  0  0  0  0  0  0  0  0
   26.7126  -20.6004   -8.2349 C   0  0  0  0  0  0  0  0  0  0  0  0
   27.0836  -20.4788   -9.6647 C   0  0  2  0  0  0  0  0  0  0  0  0
   26.0756  -21.1037  -10.5373 N   0  0  0  0  0  0  0  0  0  0  0  0
   28.3529  -21.1786   -9.9425 C   0  0  0  0  0  0  0  0  0  0  0  0
   28.3711  -22.3452  -10.3792 O   0  0  0  0  0  0  0  0  0  0  0  0
   29.6160  -20.5898   -9.7381 O   0  0  0  0  0  0  0  0  0  0  0  0
  2  1  1  1
  2  3  1  0
  3  4  1  0
  4 12  1  0
  4  5  2  0
  5  6  1  0
  7  8  2  0
  7  6  1  0
  9  8  1  0
 10  9  2  0
 11 10  1  0
 11 12  2  0
 12  7  1  0
 13 15  1  0
 13  2  1  0
 14 13  2  0
 15 19  1  0
 16 17  1  0
 16 15  1  0
 17 18  1  0
 19 18  1  0
 19 20  1  1
 20 21  2  0
 22 23  1  0
 24 23  1  0
 24 25  1  0
 26 25  1  1
 26 27  1  0
 26 28  1  0
 27 20  1  0
 28 30  1  0
 29 28  2  0
M  END
$$$$
