WPM.pdb
     RDKit          3D

 30 32  0  0  1  0  0  0  0  0999 V2000
   24.5937  -20.7866  -16.3395 N   0  0  0  0  0  0  0  0  0  0  0  0
   24.2798  -20.5659  -14.9428 C   0  0  1  0  0  0  0  0  0  0  0  0
   22.8654  -21.0360  -14.6350 C   0  0  0  0  0  0  0  0  0  0  0  0
   21.9790  -19.8461  -14.6862 C   0  0  0  0  0  0  0  0  0  0  0  0
   21.6360  -19.1998  -15.8819 C   0  0  0  0  0  0  0  0  0  0  0  0
   20.7991  -18.1861  -15.6314 N   0  0  0  0  0  0  0  0  0  0  0  0
   20.5893  -18.1528  -14.3189 C   0  0  0  0  0  0  0  0  0  0  0  0
   19.8142  -17.2940  -13.5637 C   0  0  0  0  0  0  0  0  0  0  0  0
   19.7771  -17.4745  -12.1961 C   0  0  0  0  0  0  0  0  0  0  0  0
   20.4899  -18.4811  -11.5845 C   0  0  0  0  0  0  0  0  0  0  0  0
   21.2746  -19.3514  -12.3458 C   0  0  0  0  0  0  0  0  0  0  0  0
   21.3104  -19.1718  -13.7095 C   0  0  0  0  0  0  0  0  0  0  0  0
   25.2598  -21.3130  -14.0635 C   0  0  0  0  0  0  0  0  0  0  0  0
   24.8498  -22.4523  -13.7270 O   0  0  0  0  0  0  0  0  0  0  0  0
   26.4878  -20.7622  -13.6835 N   0  0  0  0  0  0  0  0  0  0  0  0
   27.5546  -20.4036  -14.6488 C   0  0  0  0  0  0  0  0  0  0  0  0
   27.7339  -18.9387  -14.2321 C   0  0  0  0  0  0  0  0  0  0  0  0
   27.2803  -18.8700  -12.7580 C   0  0  0  0  0  0  0  0  0  0  0  0
   27.1265  -20.3499  -12.4687 C   0  0  1  0  0  0  0  0  0  0  0  0
   26.5559  -20.6765  -11.1946 C   0  0  0  0  0  0  0  0  0  0  0  0
   25.4476  -20.0817  -10.9215 O   0  0  0  0  0  0  0  0  0  0  0  0
   30.4502  -20.9089   -5.5516 C   0  0  0  0  0  0  0  0  0  0  0  0
   29.2640  -19.5808   -5.9735 S   0  0  0  0  0  0  0  0  0  0  0  0
   27.7899  -20.4016   -6.7063 C   0  0  0  0  0  0  0  0  0  0  0  0
   27.9981  -20.6170   -8.1794 C   0  0  0  0  0  0  0  0  0  0  0  0
   26.8880  -21.3944   -8.7793 C   0  0  2  0  0  0  0  0  0  0  0  0
   27.0627  -21.5482  -10.2332 N   0  0  0  0  0  0  0  0  0  0  0  0
   25.5979  -20.7016   -8.5951 C   0  0  0  0  0  0  0  0  0  0  0  0
   25.2995  -19.6931   -9.2628 O   0  0  0  0  0  0  0  0  0  0  0  0
   24.6254  -21.1217   -7.6670 O   0  0  0  0  0  0  0  0  0  0  0  0
  2  1  1  6
  2  3  1  0
  3  4  1  0
  4 12  1  0
  4  5  2  0
  5  6  1  0
  7  8  2  0
  7  6  1  0
  9  8  1  0
 10  9  2  0
 11 10  1  0
 11 12  2  0
 12  7  1  0
 13 15  1  0
 13  2  1  0
 14 13  2  0
 15 19  1  0
 16 17  1  0
 16 15  1  0
 17 18  1  0
 19 18  1  0
 19 20  1  1
 20 21  2  0
 22 23  1  0
 24 23  1  0
 24 25  1  0
 26 25  1  6
 26 27  1  0
 26 28  1  0
 27 20  1  0
 28 30  1  0
 29 28  2  0
M  END
$$$$
