WPM.pdb
     RDKit          3D

 30 32  0  0  1  0  0  0  0  0999 V2000
   23.6828  -21.9470  -12.7988 N   0  0  0  0  0  0  0  0  0  0  0  0
   24.5209  -20.8539  -12.3510 C   0  0  1  0  0  0  0  0  0  0  0  0
   23.6666  -19.6668  -11.9299 C   0  0  0  0  0  0  0  0  0  0  0  0
   22.6110  -19.4900  -12.9586 C   0  0  0  0  0  0  0  0  0  0  0  0
   21.2525  -19.7286  -12.7082 C   0  0  0  0  0  0  0  0  0  0  0  0
   20.5297  -19.4536  -13.8002 N   0  0  0  0  0  0  0  0  0  0  0  0
   21.3702  -19.0470  -14.7469 C   0  0  0  0  0  0  0  0  0  0  0  0
   21.1220  -18.6568  -16.0487 C   0  0  0  0  0  0  0  0  0  0  0  0
   22.1915  -18.2850  -16.8375 C   0  0  0  0  0  0  0  0  0  0  0  0
   23.4803  -18.2976  -16.3533 C   0  0  0  0  0  0  0  0  0  0  0  0
   23.7343  -18.6916  -15.0369 C   0  0  0  0  0  0  0  0  0  0  0  0
   22.6675  -19.0612  -14.2504 C   0  0  0  0  0  0  0  0  0  0  0  0
   25.3759  -21.2968  -11.1828 C   0  0  0  0  0  0  0  0  0  0  0  0
   24.7048  -21.5591  -10.1531 O   0  0  0  0  0  0  0  0  0  0  0  0
   26.7680  -21.3937  -11.2744 N   0  0  0  0  0  0  0  0  0  0  0  0
   27.4635  -22.1977  -12.3081 C   0  0  0  0  0  0  0  0  0  0  0  0
   28.3548  -21.0867  -12.8764 C   0  0  0  0  0  0  0  0  0  0  0  0
   28.5306  -20.0699  -11.7281 C   0  0  0  0  0  0  0  0  0  0  0  0
   27.9083  -20.8571  -10.5922 C   0  0  1  0  0  0  0  0  0  0  0  0
   27.7543  -20.1463   -9.3566 C   0  0  0  0  0  0  0  0  0  0  0  0
   27.1204  -19.0294   -9.4421 O   0  0  0  0  0  0  0  0  0  0  0  0
   25.6953  -22.2175   -4.1142 C   0  0  0  0  0  0  0  0  0  0  0  0
   26.4515  -20.8046   -3.2309 S   0  0  0  0  0  0  0  0  0  0  0  0
   27.3105  -19.7864   -4.4994 C   0  0  0  0  0  0  0  0  0  0  0  0
   27.4796  -20.5762   -5.7673 C   0  0  0  0  0  0  0  0  0  0  0  0
   28.0248  -19.7395   -6.8625 C   0  0  2  0  0  0  0  0  0  0  0  0
   28.2119  -20.5222   -8.0956 N   0  0  0  0  0  0  0  0  0  0  0  0
   29.3565  -19.2101   -6.5100 C   0  0  0  0  0  0  0  0  0  0  0  0
   30.3985  -19.8389   -6.7766 O   0  0  0  0  0  0  0  0  0  0  0  0
   29.5452  -17.9762   -5.8576 O   0  0  0  0  0  0  0  0  0  0  0  0
  2  1  1  1
  2  3  1  0
  3  4  1  0
  4 12  1  0
  4  5  2  0
  5  6  1  0
  7  8  2  0
  7  6  1  0
  9  8  1  0
 10  9  2  0
 11 10  1  0
 11 12  2  0
 12  7  1  0
 13 15  1  0
 13  2  1  0
 14 13  2  0
 15 19  1  0
 16 17  1  0
 16 15  1  0
 17 18  1  0
 19 18  1  0
 19 20  1  1
 20 21  2  0
 22 23  1  0
 24 23  1  0
 24 25  1  0
 26 25  1  1
 26 27  1  0
 26 28  1  0
 27 20  1  0
 28 30  1  0
 29 28  2  0
M  END
$$$$
