WPM.pdb
     RDKit          3D

 30 32  0  0  1  0  0  0  0  0999 V2000
   22.8779  -21.6563  -14.5958 N   0  0  0  0  0  0  0  0  0  0  0  0
   23.9293  -20.7757  -14.1301 C   0  0  1  0  0  0  0  0  0  0  0  0
   23.3425  -19.4602  -13.6389 C   0  0  0  0  0  0  0  0  0  0  0  0
   22.9484  -18.6737  -14.8348 C   0  0  0  0  0  0  0  0  0  0  0  0
   21.6147  -18.3780  -15.1492 C   0  0  0  0  0  0  0  0  0  0  0  0
   21.5600  -17.6282  -16.2562 N   0  0  0  0  0  0  0  0  0  0  0  0
   22.8081  -17.4291  -16.6691 C   0  0  0  0  0  0  0  0  0  0  0  0
   23.2823  -16.7309  -17.7628 C   0  0  0  0  0  0  0  0  0  0  0  0
   24.6456  -16.6867  -17.9724 C   0  0  0  0  0  0  0  0  0  0  0  0
   25.5244  -17.3182  -17.1213 C   0  0  0  0  0  0  0  0  0  0  0  0
   25.0476  -18.0250  -16.0141 C   0  0  0  0  0  0  0  0  0  0  0  0
   23.6884  -18.0679  -15.8048 C   0  0  0  0  0  0  0  0  0  0  0  0
   24.7000  -21.4330  -13.0049 C   0  0  0  0  0  0  0  0  0  0  0  0
   23.9614  -22.0519  -12.1982 O   0  0  0  0  0  0  0  0  0  0  0  0
   26.0918  -21.3412  -12.9036 N   0  0  0  0  0  0  0  0  0  0  0  0
   27.0105  -21.5913  -14.0402 C   0  0  0  0  0  0  0  0  0  0  0  0
   27.7710  -20.2604  -13.9948 C   0  0  0  0  0  0  0  0  0  0  0  0
   27.6621  -19.7719  -12.5343 C   0  0  0  0  0  0  0  0  0  0  0  0
   27.0547  -21.0057  -11.8968 C   0  0  1  0  0  0  0  0  0  0  0  0
   26.6609  -20.8649  -10.5255 C   0  0  0  0  0  0  0  0  0  0  0  0
   25.5170  -20.3052  -10.3383 O   0  0  0  0  0  0  0  0  0  0  0  0
   28.8531  -19.6676   -3.0719 C   0  0  0  0  0  0  0  0  0  0  0  0
   29.3820  -20.2251   -4.7326 S   0  0  0  0  0  0  0  0  0  0  0  0
   27.8608  -20.3428   -5.7602 C   0  0  0  0  0  0  0  0  0  0  0  0
   28.2034  -20.8495   -7.1333 C   0  0  0  0  0  0  0  0  0  0  0  0
   27.0083  -20.9052   -8.0081 C   0  0  2  0  0  0  0  0  0  0  0  0
   27.3700  -21.2557   -9.3917 N   0  0  0  0  0  0  0  0  0  0  0  0
   26.3455  -19.5886   -8.0814 C   0  0  0  0  0  0  0  0  0  0  0  0
   26.7726  -18.6853   -8.8255 O   0  0  0  0  0  0  0  0  0  0  0  0
   25.2009  -19.2612   -7.3288 O   0  0  0  0  0  0  0  0  0  0  0  0
  2  1  1  1
  2  3  1  0
  3  4  1  0
  4 12  1  0
  4  5  2  0
  5  6  1  0
  7  8  2  0
  7  6  1  0
  9  8  1  0
 10  9  2  0
 11 10  1  0
 11 12  2  0
 12  7  1  0
 13 15  1  0
 13  2  1  0
 14 13  2  0
 15 19  1  0
 16 17  1  0
 16 15  1  0
 17 18  1  0
 19 18  1  0
 19 20  1  1
 20 21  2  0
 22 23  1  0
 24 23  1  0
 24 25  1  0
 26 25  1  1
 26 27  1  0
 26 28  1  0
 27 20  1  0
 28 30  1  0
 29 28  2  0
M  END
$$$$
