WPM.pdb
     RDKit          3D

 30 32  0  0  1  0  0  0  0  0999 V2000
   26.1796  -18.6990  -16.9019 N   0  0  0  0  0  0  0  0  0  0  0  0
   26.1489  -19.5238  -15.7117 C   0  0  1  0  0  0  0  0  0  0  0  0
   26.2581  -18.6602  -14.4633 C   0  0  0  0  0  0  0  0  0  0  0  0
   26.8269  -19.5064  -13.3842 C   0  0  0  0  0  0  0  0  0  0  0  0
   28.1642  -19.9266  -13.3675 C   0  0  0  0  0  0  0  0  0  0  0  0
   28.4060  -20.6428  -12.2633 N   0  0  0  0  0  0  0  0  0  0  0  0
   27.2751  -20.7016  -11.5665 C   0  0  0  0  0  0  0  0  0  0  0  0
   27.0025  -21.3261  -10.3647 C   0  0  0  0  0  0  0  0  0  0  0  0
   25.7226  -21.2403   -9.8561 C   0  0  0  0  0  0  0  0  0  0  0  0
   24.7305  -20.5530  -10.5187 C   0  0  0  0  0  0  0  0  0  0  0  0
   25.0034  -19.9202  -11.7344 C   0  0  0  0  0  0  0  0  0  0  0  0
   26.2800  -20.0051  -12.2406 C   0  0  0  0  0  0  0  0  0  0  0  0
   24.8616  -20.3190  -15.6612 C   0  0  0  0  0  0  0  0  0  0  0  0
   23.8346  -19.5950  -15.6835 O   0  0  0  0  0  0  0  0  0  0  0  0
   24.8522  -21.7160  -15.5970 N   0  0  0  0  0  0  0  0  0  0  0  0
   25.8598  -22.5702  -16.2704 C   0  0  0  0  0  0  0  0  0  0  0  0
   26.3186  -23.3653  -15.0420 C   0  0  0  0  0  0  0  0  0  0  0  0
   25.1237  -23.3417  -14.0647 C   0  0  0  0  0  0  0  0  0  0  0  0
   24.0673  -22.7362  -14.9672 C   0  0  1  0  0  0  0  0  0  0  0  0
   22.8214  -22.4150  -14.3347 C   0  0  0  0  0  0  0  0  0  0  0  0
   22.8514  -21.3941  -13.5513 O   0  0  0  0  0  0  0  0  0  0  0  0
   16.5305  -18.7305  -14.2752 C   0  0  0  0  0  0  0  0  0  0  0  0
   18.1272  -19.2749  -14.9843 S   0  0  0  0  0  0  0  0  0  0  0  0
   18.6488  -20.7607  -14.0335 C   0  0  0  0  0  0  0  0  0  0  0  0
   19.9634  -21.2713  -14.5539 C   0  0  0  0  0  0  0  0  0  0  0  0
   20.3134  -22.5828  -13.9587 C   0  0  2  0  0  0  0  0  0  0  0  0
   21.6033  -23.0778  -14.4679 N   0  0  0  0  0  0  0  0  0  0  0  0
   19.3139  -23.6084  -14.3154 C   0  0  0  0  0  0  0  0  0  0  0  0
   19.2706  -24.1060  -15.4567 O   0  0  0  0  0  0  0  0  0  0  0  0
   18.3517  -24.0924  -13.4080 O   0  0  0  0  0  0  0  0  0  0  0  0
  2  1  1  6
  2  3  1  0
  3  4  1  0
  4 12  1  0
  4  5  2  0
  5  6  1  0
  7  8  2  0
  7  6  1  0
  9  8  1  0
 10  9  2  0
 11 10  1  0
 11 12  2  0
 12  7  1  0
 13 15  1  0
 13  2  1  0
 14 13  2  0
 15 19  1  0
 16 17  1  0
 16 15  1  0
 17 18  1  0
 19 18  1  0
 19 20  1  1
 20 21  2  0
 22 23  1  0
 24 23  1  0
 24 25  1  0
 26 25  1  6
 26 27  1  0
 26 28  1  0
 27 20  1  0
 28 30  1  0
 29 28  2  0
M  END
$$$$
