WPM.pdb
     RDKit          3D

 30 32  0  0  1  0  0  0  0  0999 V2000
   26.3573  -22.1822  -17.2755 N   0  0  0  0  0  0  0  0  0  0  0  0
   25.7111  -21.4344  -16.2167 C   0  0  1  0  0  0  0  0  0  0  0  0
   24.2868  -21.9289  -16.0091 C   0  0  0  0  0  0  0  0  0  0  0  0
   23.5477  -20.8668  -15.2814 C   0  0  0  0  0  0  0  0  0  0  0  0
   23.5171  -19.5306  -15.7040 C   0  0  0  0  0  0  0  0  0  0  0  0
   22.7484  -18.8070  -14.8816 N   0  0  0  0  0  0  0  0  0  0  0  0
   22.2820  -19.6255  -13.9433 C   0  0  0  0  0  0  0  0  0  0  0  0
   21.4566  -19.3652  -12.8665 C   0  0  0  0  0  0  0  0  0  0  0  0
   21.1268  -20.4083  -12.0253 C   0  0  0  0  0  0  0  0  0  0  0  0
   21.6010  -21.6827  -12.2407 C   0  0  0  0  0  0  0  0  0  0  0  0
   22.4359  -21.9489  -13.3291 C   0  0  0  0  0  0  0  0  0  0  0  0
   22.7637  -20.9089  -14.1683 C   0  0  0  0  0  0  0  0  0  0  0  0
   26.4872  -21.5821  -14.9252 C   0  0  0  0  0  0  0  0  0  0  0  0
   26.4323  -22.7435  -14.4480 O   0  0  0  0  0  0  0  0  0  0  0  0
   27.1835  -20.5147  -14.3495 N   0  0  0  0  0  0  0  0  0  0  0  0
   28.0420  -19.5876  -15.1253 C   0  0  0  0  0  0  0  0  0  0  0  0
   27.3765  -18.2740  -14.6972 C   0  0  0  0  0  0  0  0  0  0  0  0
   26.7399  -18.5628  -13.3207 C   0  0  0  0  0  0  0  0  0  0  0  0
   27.3300  -19.9321  -13.0484 C   0  0  1  0  0  0  0  0  0  0  0  0
   26.8281  -20.6035  -11.8853 C   0  0  0  0  0  0  0  0  0  0  0  0
   25.5902  -20.9512  -11.9444 O   0  0  0  0  0  0  0  0  0  0  0  0
   29.0463  -20.7161   -4.9063 C   0  0  0  0  0  0  0  0  0  0  0  0
   28.1976  -19.3719   -5.8126 S   0  0  0  0  0  0  0  0  0  0  0  0
   27.0840  -20.1789   -7.0343 C   0  0  0  0  0  0  0  0  0  0  0  0
   27.7396  -20.2131   -8.3865 C   0  0  0  0  0  0  0  0  0  0  0  0
   26.9215  -20.9605   -9.3707 C   0  0  2  0  0  0  0  0  0  0  0  0
   27.5192  -20.9113  -10.7155 N   0  0  0  0  0  0  0  0  0  0  0  0
   25.5771  -20.3657   -9.5004 C   0  0  0  0  0  0  0  0  0  0  0  0
   25.4097  -19.2389  -10.0048 O   0  0  0  0  0  0  0  0  0  0  0  0
   24.4039  -21.0163   -9.0712 O   0  0  0  0  0  0  0  0  0  0  0  0
  2  1  1  6
  2  3  1  0
  3  4  1  0
  4 12  1  0
  4  5  2  0
  5  6  1  0
  7  8  2  0
  7  6  1  0
  9  8  1  0
 10  9  2  0
 11 10  1  0
 11 12  2  0
 12  7  1  0
 13 15  1  0
 13  2  1  0
 14 13  2  0
 15 19  1  0
 16 17  1  0
 16 15  1  0
 17 18  1  0
 19 18  1  0
 19 20  1  1
 20 21  2  0
 22 23  1  0
 24 23  1  0
 24 25  1  0
 26 25  1  1
 26 27  1  0
 26 28  1  0
 27 20  1  0
 28 30  1  0
 29 28  2  0
M  END
$$$$
