WPM.pdb
     RDKit          3D

 30 32  0  0  1  0  0  0  0  0999 V2000
   24.1274  -18.9865  -14.5686 N   0  0  0  0  0  0  0  0  0  0  0  0
   25.4694  -18.9245  -14.0273 C   0  0  1  0  0  0  0  0  0  0  0  0
   25.7501  -17.5410  -13.4587 C   0  0  0  0  0  0  0  0  0  0  0  0
   26.0886  -16.6511  -14.5978 C   0  0  0  0  0  0  0  0  0  0  0  0
   25.3317  -15.5204  -14.9350 C   0  0  0  0  0  0  0  0  0  0  0  0
   25.8880  -14.8901  -15.9762 N   0  0  0  0  0  0  0  0  0  0  0  0
   26.9752  -15.5716  -16.3246 C   0  0  0  0  0  0  0  0  0  0  0  0
   27.8850  -15.3373  -17.3375 C   0  0  0  0  0  0  0  0  0  0  0  0
   28.9359  -16.2182  -17.4923 C   0  0  0  0  0  0  0  0  0  0  0  0
   29.0873  -17.3087  -16.6657 C   0  0  0  0  0  0  0  0  0  0  0  0
   28.1687  -17.5481  -15.6403 C   0  0  0  0  0  0  0  0  0  0  0  0
   27.1217  -16.6689  -15.4854 C   0  0  0  0  0  0  0  0  0  0  0  0
   25.6401  -19.9601  -12.9362 C   0  0  0  0  0  0  0  0  0  0  0  0
   24.7554  -19.8880  -12.0465 O   0  0  0  0  0  0  0  0  0  0  0  0
   26.6865  -20.8877  -12.9481 N   0  0  0  0  0  0  0  0  0  0  0  0
   27.0770  -21.6615  -14.1511 C   0  0  0  0  0  0  0  0  0  0  0  0
   28.5586  -21.2673  -14.1851 C   0  0  0  0  0  0  0  0  0  0  0  0
   28.9260  -20.9156  -12.7275 C   0  0  0  0  0  0  0  0  0  0  0  0
   27.6659  -21.3825  -12.0264 C   0  0  1  0  0  0  0  0  0  0  0  0
   27.5808  -21.0690  -10.6300 C   0  0  0  0  0  0  0  0  0  0  0  0
   28.7107  -20.9235  -10.0310 O   0  0  0  0  0  0  0  0  0  0  0  0
   28.2211  -19.5017   -3.5843 C   0  0  0  0  0  0  0  0  0  0  0  0
   28.2973  -19.1189   -5.3721 S   0  0  0  0  0  0  0  0  0  0  0  0
   27.1072  -20.2470   -6.2056 C   0  0  0  0  0  0  0  0  0  0  0  0
   27.2780  -20.1671   -7.6969 C   0  0  0  0  0  0  0  0  0  0  0  0
   26.3589  -21.0919   -8.4016 C   0  0  2  0  0  0  0  0  0  0  0  0
   26.4295  -20.9123   -9.8613 N   0  0  0  0  0  0  0  0  0  0  0  0
   24.9558  -20.8299   -8.0264 C   0  0  0  0  0  0  0  0  0  0  0  0
   24.1281  -20.4070   -8.8560 O   0  0  0  0  0  0  0  0  0  0  0  0
   24.4569  -21.0350   -6.7253 O   0  0  0  0  0  0  0  0  0  0  0  0
  2  1  1  1
  2  3  1  0
  3  4  1  0
  4 12  1  0
  4  5  2  0
  5  6  1  0
  7  8  2  0
  7  6  1  0
  9  8  1  0
 10  9  2  0
 11 10  1  0
 11 12  2  0
 12  7  1  0
 13 15  1  0
 13  2  1  0
 14 13  2  0
 15 19  1  0
 16 17  1  0
 16 15  1  0
 17 18  1  0
 19 18  1  0
 19 20  1  1
 20 21  2  0
 22 23  1  0
 24 23  1  0
 24 25  1  0
 26 25  1  1
 26 27  1  0
 26 28  1  0
 27 20  1  0
 28 30  1  0
 29 28  2  0
M  END
$$$$
