WPM.pdb
     RDKit          3D

 30 32  0  0  1  0  0  0  0  0999 V2000
   23.7218  -21.8059  -15.6249 N   0  0  0  0  0  0  0  0  0  0  0  0
   24.3340  -20.9495  -14.6301 C   0  0  1  0  0  0  0  0  0  0  0  0
   23.3106  -20.5356  -13.5824 C   0  0  0  0  0  0  0  0  0  0  0  0
   22.2925  -19.6951  -14.2614 C   0  0  0  0  0  0  0  0  0  0  0  0
   20.9330  -20.0333  -14.3120 C   0  0  0  0  0  0  0  0  0  0  0  0
   20.2468  -19.0796  -14.9528 N   0  0  0  0  0  0  0  0  0  0  0  0
   21.1120  -18.1386  -15.3185 C   0  0  0  0  0  0  0  0  0  0  0  0
   20.9048  -16.9598  -16.0085 C   0  0  0  0  0  0  0  0  0  0  0  0
   21.9934  -16.1537  -16.2719 C   0  0  0  0  0  0  0  0  0  0  0  0
   23.2613  -16.5021  -15.8639 C   0  0  0  0  0  0  0  0  0  0  0  0
   23.4738  -17.6938  -15.1656 C   0  0  0  0  0  0  0  0  0  0  0  0
   22.3880  -18.4968  -14.9021 C   0  0  0  0  0  0  0  0  0  0  0  0
   25.4803  -21.6716  -13.9545 C   0  0  0  0  0  0  0  0  0  0  0  0
   25.2267  -22.8780  -13.7105 O   0  0  0  0  0  0  0  0  0  0  0  0
   26.6852  -21.0314  -13.6478 N   0  0  0  0  0  0  0  0  0  0  0  0
   27.6502  -20.5732  -14.6761 C   0  0  0  0  0  0  0  0  0  0  0  0
   27.7434  -19.1058  -14.2405 C   0  0  0  0  0  0  0  0  0  0  0  0
   27.3906  -19.0978  -12.7376 C   0  0  0  0  0  0  0  0  0  0  0  0
   27.3735  -20.5898  -12.4711 C   0  0  1  0  0  0  0  0  0  0  0  0
   26.9212  -20.9818  -11.1682 C   0  0  0  0  0  0  0  0  0  0  0  0
   25.6478  -20.9250  -10.9900 O   0  0  0  0  0  0  0  0  0  0  0  0
   28.2143  -19.6332   -3.6695 C   0  0  0  0  0  0  0  0  0  0  0  0
   28.9104  -19.6882   -5.3610 S   0  0  0  0  0  0  0  0  0  0  0  0
   27.6988  -20.6002   -6.4020 C   0  0  0  0  0  0  0  0  0  0  0  0
   28.2315  -20.7541   -7.7992 C   0  0  0  0  0  0  0  0  0  0  0  0
   27.2501  -21.4217   -8.6868 C   0  0  2  0  0  0  0  0  0  0  0  0
   27.6953  -21.4054  -10.0902 N   0  0  0  0  0  0  0  0  0  0  0  0
   25.9525  -20.7189   -8.6629 C   0  0  0  0  0  0  0  0  0  0  0  0
   25.8012  -19.6125   -9.2151 O   0  0  0  0  0  0  0  0  0  0  0  0
   24.8089  -21.2377   -8.0252 O   0  0  0  0  0  0  0  0  0  0  0  0
  2  1  1  6
  2  3  1  0
  3  4  1  0
  4 12  1  0
  4  5  2  0
  5  6  1  0
  7  8  2  0
  7  6  1  0
  9  8  1  0
 10  9  2  0
 11 10  1  0
 11 12  2  0
 12  7  1  0
 13 15  1  0
 13  2  1  0
 14 13  2  0
 15 19  1  0
 16 17  1  0
 16 15  1  0
 17 18  1  0
 19 18  1  0
 19 20  1  1
 20 21  2  0
 22 23  1  0
 24 23  1  0
 24 25  1  0
 26 25  1  1
 26 27  1  0
 26 28  1  0
 27 20  1  0
 28 30  1  0
 29 28  2  0
M  END
$$$$
