WPM.pdb
     RDKit          3D

 30 32  0  0  1  0  0  0  0  0999 V2000
   25.7421  -22.6119  -16.8759 N   0  0  0  0  0  0  0  0  0  0  0  0
   25.2990  -21.6226  -15.9153 C   0  0  1  0  0  0  0  0  0  0  0  0
   23.7938  -21.7167  -15.7108 C   0  0  0  0  0  0  0  0  0  0  0  0
   23.3513  -20.4537  -15.0684 C   0  0  0  0  0  0  0  0  0  0  0  0
   23.6570  -19.1864  -15.5839 C   0  0  0  0  0  0  0  0  0  0  0  0
   23.1008  -18.2358  -14.8238 N   0  0  0  0  0  0  0  0  0  0  0  0
   22.4479  -18.8414  -13.8364 C   0  0  0  0  0  0  0  0  0  0  0  0
   21.7211  -18.3055  -12.7908 C   0  0  0  0  0  0  0  0  0  0  0  0
   21.1431  -19.1692  -11.8829 C   0  0  0  0  0  0  0  0  0  0  0  0
   21.2787  -20.5340  -12.0026 C   0  0  0  0  0  0  0  0  0  0  0  0
   22.0130  -21.0789  -13.0593 C   0  0  0  0  0  0  0  0  0  0  0  0
   22.5883  -20.2174  -13.9650 C   0  0  0  0  0  0  0  0  0  0  0  0
   25.9999  -21.8320  -14.5898 C   0  0  0  0  0  0  0  0  0  0  0  0
   25.6106  -22.8623  -13.9845 O   0  0  0  0  0  0  0  0  0  0  0  0
   26.9766  -20.9498  -14.1172 N   0  0  0  0  0  0  0  0  0  0  0  0
   28.0482  -20.3851  -14.9724 C   0  0  0  0  0  0  0  0  0  0  0  0
   27.7846  -18.9010  -14.6902 C   0  0  0  0  0  0  0  0  0  0  0  0
   27.1145  -18.8574  -13.3001 C   0  0  0  0  0  0  0  0  0  0  0  0
   27.3012  -20.3019  -12.8809 C   0  0  1  0  0  0  0  0  0  0  0  0
   26.6498  -20.6830  -11.6619 C   0  0  0  0  0  0  0  0  0  0  0  0
   25.3666  -20.5819  -11.6713 O   0  0  0  0  0  0  0  0  0  0  0  0
   29.4984  -20.6777   -5.7172 C   0  0  0  0  0  0  0  0  0  0  0  0
   27.9773  -19.6712   -5.5694 S   0  0  0  0  0  0  0  0  0  0  0  0
   26.7985  -20.3061   -6.8308 C   0  0  0  0  0  0  0  0  0  0  0  0
   27.5049  -20.5076   -8.1423 C   0  0  0  0  0  0  0  0  0  0  0  0
   26.6093  -21.1115   -9.1571 C   0  0  2  0  0  0  0  0  0  0  0  0
   27.2426  -21.1381  -10.4862 N   0  0  0  0  0  0  0  0  0  0  0  0
   25.3740  -20.3187   -9.3102 C   0  0  0  0  0  0  0  0  0  0  0  0
   24.2551  -20.7997   -9.0479 O   0  0  0  0  0  0  0  0  0  0  0  0
   25.3683  -18.9829   -9.7566 O   0  0  0  0  0  0  0  0  0  0  0  0
  2  1  1  6
  2  3  1  0
  3  4  1  0
  4 12  1  0
  4  5  2  0
  5  6  1  0
  7  8  2  0
  7  6  1  0
  9  8  1  0
 10  9  2  0
 11 10  1  0
 11 12  2  0
 12  7  1  0
 13 15  1  0
 13  2  1  0
 14 13  2  0
 15 19  1  0
 16 17  1  0
 16 15  1  0
 17 18  1  0
 19 18  1  0
 19 20  1  1
 20 21  2  0
 22 23  1  0
 24 23  1  0
 24 25  1  0
 26 25  1  1
 26 27  1  0
 26 28  1  0
 27 20  1  0
 28 30  1  0
 29 28  2  0
M  END
$$$$
