WPM.pdb
     RDKit          3D

 30 32  0  0  1  0  0  0  0  0999 V2000
   26.4521  -20.5302  -13.3476 N   0  0  0  0  0  0  0  0  0  0  0  0
   25.7152  -21.1119  -12.2447 C   0  0  1  0  0  0  0  0  0  0  0  0
   25.6933  -20.1589  -11.0583 C   0  0  0  0  0  0  0  0  0  0  0  0
   26.9013  -20.4364  -10.2412 C   0  0  0  0  0  0  0  0  0  0  0  0
   28.0076  -21.1457  -10.7294 C   0  0  0  0  0  0  0  0  0  0  0  0
   28.9596  -21.2126   -9.7914 N   0  0  0  0  0  0  0  0  0  0  0  0
   28.5097  -20.5740   -8.7155 C   0  0  0  0  0  0  0  0  0  0  0  0
   29.1083  -20.3699   -7.4873 C   0  0  0  0  0  0  0  0  0  0  0  0
   28.4091  -19.6710   -6.5245 C   0  0  0  0  0  0  0  0  0  0  0  0
   27.1447  -19.1831   -6.7668 C   0  0  0  0  0  0  0  0  0  0  0  0
   26.5368  -19.3878   -8.0083 C   0  0  0  0  0  0  0  0  0  0  0  0
   27.2347  -20.0837   -8.9684 C   0  0  0  0  0  0  0  0  0  0  0  0
   24.2947  -21.4172  -12.6699 C   0  0  0  0  0  0  0  0  0  0  0  0
   23.4355  -20.7832  -12.0071 O   0  0  0  0  0  0  0  0  0  0  0  0
   24.0035  -22.3179  -13.6993 N   0  0  0  0  0  0  0  0  0  0  0  0
   24.8751  -22.5133  -14.8829 C   0  0  0  0  0  0  0  0  0  0  0  0
   25.0625  -24.0304  -14.7599 C   0  0  0  0  0  0  0  0  0  0  0  0
   23.8180  -24.5403  -14.0017 C   0  0  0  0  0  0  0  0  0  0  0  0
   22.9821  -23.2760  -14.0030 C   0  0  1  0  0  0  0  0  0  0  0  0
   21.7758  -23.3294  -13.2300 C   0  0  0  0  0  0  0  0  0  0  0  0
   21.6956  -24.3153  -12.4065 O   0  0  0  0  0  0  0  0  0  0  0  0
   21.6752  -23.4610   -8.4251 C   0  0  0  0  0  0  0  0  0  0  0  0
   19.8681  -23.1887   -8.3303 S   0  0  0  0  0  0  0  0  0  0  0  0
   19.2256  -23.3002  -10.0502 C   0  0  0  0  0  0  0  0  0  0  0  0
   19.9763  -22.3530  -10.9441 C   0  0  0  0  0  0  0  0  0  0  0  0
   19.5456  -22.4790  -12.3566 C   0  0  2  0  0  0  0  0  0  0  0  0
   20.6964  -22.4497  -13.2748 N   0  0  0  0  0  0  0  0  0  0  0  0
   18.6827  -21.3478  -12.7488 C   0  0  0  0  0  0  0  0  0  0  0  0
   19.1353  -20.3701  -13.3744 O   0  0  0  0  0  0  0  0  0  0  0  0
   17.3075  -21.2904  -12.4501 O   0  0  0  0  0  0  0  0  0  0  0  0
  2  1  1  6
  2  3  1  0
  3  4  1  0
  4 12  1  0
  4  5  2  0
  5  6  1  0
  7  8  2  0
  7  6  1  0
  9  8  1  0
 10  9  2  0
 11 10  1  0
 11 12  2  0
 12  7  1  0
 13 15  1  0
 13  2  1  0
 14 13  2  0
 15 19  1  0
 16 17  1  0
 16 15  1  0
 17 18  1  0
 19 18  1  0
 19 20  1  1
 20 21  2  0
 22 23  1  0
 24 23  1  0
 24 25  1  0
 26 25  1  1
 26 27  1  0
 26 28  1  0
 27 20  1  0
 28 30  1  0
 29 28  2  0
M  END
$$$$
