WPM.pdb
     RDKit          3D

 30 32  0  0  1  0  0  0  0  0999 V2000
   23.0550  -21.2453  -14.7596 N   0  0  0  0  0  0  0  0  0  0  0  0
   24.1024  -20.3631  -14.2880 C   0  0  1  0  0  0  0  0  0  0  0  0
   23.5651  -18.9512  -14.1025 C   0  0  0  0  0  0  0  0  0  0  0  0
   22.9670  -18.5286  -15.3938 C   0  0  0  0  0  0  0  0  0  0  0  0
   21.5835  -18.4480  -15.6049 C   0  0  0  0  0  0  0  0  0  0  0  0
   21.3336  -18.0064  -16.8432 N   0  0  0  0  0  0  0  0  0  0  0  0
   22.5036  -17.7995  -17.4400 C   0  0  0  0  0  0  0  0  0  0  0  0
   22.7838  -17.3544  -18.7175 C   0  0  0  0  0  0  0  0  0  0  0  0
   24.1055  -17.2353  -19.0957 C   0  0  0  0  0  0  0  0  0  0  0  0
   25.1311  -17.5488  -18.2324 C   0  0  0  0  0  0  0  0  0  0  0  0
   24.8507  -17.9990  -16.9396 C   0  0  0  0  0  0  0  0  0  0  0  0
   23.5327  -18.1166  -16.5625 C   0  0  0  0  0  0  0  0  0  0  0  0
   24.6555  -20.8669  -12.9719 C   0  0  0  0  0  0  0  0  0  0  0  0
   23.7646  -21.0696  -12.1089 O   0  0  0  0  0  0  0  0  0  0  0  0
   26.0237  -21.0749  -12.7707 N   0  0  0  0  0  0  0  0  0  0  0  0
   26.8842  -21.8184  -13.7222 C   0  0  0  0  0  0  0  0  0  0  0  0
   27.9471  -20.7344  -13.9383 C   0  0  0  0  0  0  0  0  0  0  0  0
   27.9207  -19.8692  -12.6600 C   0  0  0  0  0  0  0  0  0  0  0  0
   27.0110  -20.7187  -11.7951 C   0  0  1  0  0  0  0  0  0  0  0  0
   26.6256  -20.1371  -10.5426 C   0  0  0  0  0  0  0  0  0  0  0  0
   26.0001  -19.0155  -10.6283 O   0  0  0  0  0  0  0  0  0  0  0  0
   22.7099  -21.9205   -6.7272 C   0  0  0  0  0  0  0  0  0  0  0  0
   23.4868  -21.0132   -5.3409 S   0  0  0  0  0  0  0  0  0  0  0  0
   24.9609  -20.1556   -6.0303 C   0  0  0  0  0  0  0  0  0  0  0  0
   25.3313  -20.7532   -7.3590 C   0  0  0  0  0  0  0  0  0  0  0  0
   26.4234  -19.9943   -8.0131 C   0  0  2  0  0  0  0  0  0  0  0  0
   26.8540  -20.6409   -9.2639 N   0  0  0  0  0  0  0  0  0  0  0  0
   27.6194  -19.9399   -7.1500 C   0  0  0  0  0  0  0  0  0  0  0  0
   27.7847  -19.0222   -6.3238 O   0  0  0  0  0  0  0  0  0  0  0  0
   28.6447  -20.9044   -7.1955 O   0  0  0  0  0  0  0  0  0  0  0  0
  2  1  1  1
  2  3  1  0
  3  4  1  0
  4 12  1  0
  4  5  2  0
  5  6  1  0
  7  8  2  0
  7  6  1  0
  9  8  1  0
 10  9  2  0
 11 10  1  0
 11 12  2  0
 12  7  1  0
 13 15  1  0
 13  2  1  0
 14 13  2  0
 15 19  1  0
 16 17  1  0
 16 15  1  0
 17 18  1  0
 19 18  1  0
 19 20  1  1
 20 21  2  0
 22 23  1  0
 24 23  1  0
 24 25  1  0
 26 25  1  1
 26 27  1  0
 26 28  1  0
 27 20  1  0
 28 30  1  0
 29 28  2  0
M  END
$$$$
