WPM.pdb
     RDKit          3D

 30 32  0  0  1  0  0  0  0  0999 V2000
   24.1403  -21.5074  -16.2146 N   0  0  0  0  0  0  0  0  0  0  0  0
   24.3939  -20.8521  -14.9481 C   0  0  1  0  0  0  0  0  0  0  0  0
   23.1372  -20.8492  -14.0898 C   0  0  0  0  0  0  0  0  0  0  0  0
   22.0849  -20.1210  -14.8423 C   0  0  0  0  0  0  0  0  0  0  0  0
   22.3173  -18.9024  -15.4952 C   0  0  0  0  0  0  0  0  0  0  0  0
   21.2050  -18.4971  -16.1191 N   0  0  0  0  0  0  0  0  0  0  0  0
   20.2628  -19.4075  -15.8932 C   0  0  0  0  0  0  0  0  0  0  0  0
   18.9462  -19.4471  -16.3099 C   0  0  0  0  0  0  0  0  0  0  0  0
   18.1668  -20.5175  -15.9213 C   0  0  0  0  0  0  0  0  0  0  0  0
   18.6744  -21.5290  -15.1373 C   0  0  0  0  0  0  0  0  0  0  0  0
   20.0058  -21.4918  -14.7145 C   0  0  0  0  0  0  0  0  0  0  0  0
   20.7829  -20.4249  -15.1031 C   0  0  0  0  0  0  0  0  0  0  0  0
   25.5067  -21.5622  -14.2069 C   0  0  0  0  0  0  0  0  0  0  0  0
   25.2940  -22.7922  -14.0606 O   0  0  0  0  0  0  0  0  0  0  0  0
   26.6420  -20.8881  -13.7460 N   0  0  0  0  0  0  0  0  0  0  0  0
   27.6975  -20.3600  -14.6435 C   0  0  0  0  0  0  0  0  0  0  0  0
   27.6806  -18.9055  -14.1576 C   0  0  0  0  0  0  0  0  0  0  0  0
   27.1601  -18.9612  -12.7052 C   0  0  0  0  0  0  0  0  0  0  0  0
   27.1742  -20.4608  -12.4859 C   0  0  1  0  0  0  0  0  0  0  0  0
   26.5938  -20.9130  -11.2553 C   0  0  0  0  0  0  0  0  0  0  0  0
   25.3144  -20.7961  -11.1770 O   0  0  0  0  0  0  0  0  0  0  0  0
   30.1802  -20.2374   -5.8343 C   0  0  0  0  0  0  0  0  0  0  0  0
   28.6294  -19.2841   -5.6486 S   0  0  0  0  0  0  0  0  0  0  0  0
   27.3353  -20.1908   -6.5903 C   0  0  0  0  0  0  0  0  0  0  0  0
   27.8100  -20.4609   -7.9908 C   0  0  0  0  0  0  0  0  0  0  0  0
   26.8318  -21.2746   -8.7509 C   0  0  2  0  0  0  0  0  0  0  0  0
   27.2514  -21.4512  -10.1512 N   0  0  0  0  0  0  0  0  0  0  0  0
   25.5159  -20.6083   -8.8009 C   0  0  0  0  0  0  0  0  0  0  0  0
   25.3453  -19.5510   -9.4372 O   0  0  0  0  0  0  0  0  0  0  0  0
   24.3751  -21.1095   -8.1442 O   0  0  0  0  0  0  0  0  0  0  0  0
  2  1  1  6
  2  3  1  0
  3  4  1  0
  4 12  1  0
  4  5  2  0
  5  6  1  0
  7  8  2  0
  7  6  1  0
  9  8  1  0
 10  9  2  0
 11 10  1  0
 11 12  2  0
 12  7  1  0
 13 15  1  0
 13  2  1  0
 14 13  2  0
 15 19  1  0
 16 17  1  0
 16 15  1  0
 17 18  1  0
 19 18  1  0
 19 20  1  1
 20 21  2  0
 22 23  1  0
 24 23  1  0
 24 25  1  0
 26 25  1  1
 26 27  1  0
 26 28  1  0
 27 20  1  0
 28 30  1  0
 29 28  2  0
M  END
$$$$
