WPM.pdb
     RDKit          3D

 30 32  0  0  1  0  0  0  0  0999 V2000
   25.5841  -20.3792  -16.2408 N   0  0  0  0  0  0  0  0  0  0  0  0
   26.2435  -19.8383  -15.0701 C   0  0  1  0  0  0  0  0  0  0  0  0
   25.3624  -18.7953  -14.3977 C   0  0  0  0  0  0  0  0  0  0  0  0
   23.9799  -18.9865  -14.9037 C   0  0  0  0  0  0  0  0  0  0  0  0
   23.4540  -18.2619  -15.9824 C   0  0  0  0  0  0  0  0  0  0  0  0
   22.2049  -18.6664  -16.2410 N   0  0  0  0  0  0  0  0  0  0  0  0
   21.9039  -19.6244  -15.3695 C   0  0  0  0  0  0  0  0  0  0  0  0
   20.7405  -20.3535  -15.2160 C   0  0  0  0  0  0  0  0  0  0  0  0
   20.6849  -21.2964  -14.2099 C   0  0  0  0  0  0  0  0  0  0  0  0
   21.7544  -21.5166  -13.3714 C   0  0  0  0  0  0  0  0  0  0  0  0
   22.9325  -20.7807  -13.5244 C   0  0  0  0  0  0  0  0  0  0  0  0
   22.9879  -19.8414  -14.5283 C   0  0  0  0  0  0  0  0  0  0  0  0
   26.5504  -20.9466  -14.0856 C   0  0  0  0  0  0  0  0  0  0  0  0
   25.6502  -21.8219  -14.0333 O   0  0  0  0  0  0  0  0  0  0  0  0
   27.7256  -20.9640  -13.3276 N   0  0  0  0  0  0  0  0  0  0  0  0
   29.0799  -21.0537  -13.9246 C   0  0  0  0  0  0  0  0  0  0  0  0
   29.6838  -19.8061  -13.2684 C   0  0  0  0  0  0  0  0  0  0  0  0
   28.8819  -19.5950  -11.9662 C   0  0  0  0  0  0  0  0  0  0  0  0
   28.0873  -20.8855  -11.9433 C   0  0  1  0  0  0  0  0  0  0  0  0
   27.0882  -20.9804  -10.9193 C   0  0  0  0  0  0  0  0  0  0  0  0
   26.0926  -20.1750  -11.0486 O   0  0  0  0  0  0  0  0  0  0  0  0
   29.8270  -19.5089   -6.2638 C   0  0  0  0  0  0  0  0  0  0  0  0
   28.1893  -19.0363   -5.5982 S   0  0  0  0  0  0  0  0  0  0  0  0
   26.9422  -20.0499   -6.4933 C   0  0  0  0  0  0  0  0  0  0  0  0
   27.5450  -20.6224   -7.7457 C   0  0  0  0  0  0  0  0  0  0  0  0
   26.5761  -21.4712   -8.4788 C   0  0  2  0  0  0  0  0  0  0  0  0
   27.0787  -21.8302   -9.8154 N   0  0  0  0  0  0  0  0  0  0  0  0
   25.3062  -20.7526   -8.7005 C   0  0  0  0  0  0  0  0  0  0  0  0
   24.3786  -20.7987   -7.8702 O   0  0  0  0  0  0  0  0  0  0  0  0
   25.0531  -19.9750   -9.8473 O   0  0  0  0  0  0  0  0  0  0  0  0
  2  1  1  6
  2  3  1  0
  3  4  1  0
  4 12  1  0
  4  5  2  0
  5  6  1  0
  7  8  2  0
  7  6  1  0
  9  8  1  0
 10  9  2  0
 11 10  1  0
 11 12  2  0
 12  7  1  0
 13 15  1  0
 13  2  1  0
 14 13  2  0
 15 19  1  0
 16 17  1  0
 16 15  1  0
 17 18  1  0
 19 18  1  0
 19 20  1  1
 20 21  2  0
 22 23  1  0
 24 23  1  0
 24 25  1  0
 26 25  1  6
 26 27  1  0
 26 28  1  0
 27 20  1  0
 28 30  1  0
 29 28  2  0
M  END
$$$$
