WPM.pdb
     RDKit          3D

 30 32  0  0  1  0  0  0  0  0999 V2000
   26.6327  -18.7473  -10.3371 N   0  0  0  0  0  0  0  0  0  0  0  0
   26.5252  -20.1913  -10.3702 C   0  0  1  0  0  0  0  0  0  0  0  0
   26.2546  -20.7365   -8.9753 C   0  0  0  0  0  0  0  0  0  0  0  0
   27.0244  -19.9063   -8.0150 C   0  0  0  0  0  0  0  0  0  0  0  0
   27.4026  -18.5829   -8.2812 C   0  0  0  0  0  0  0  0  0  0  0  0
   28.0511  -18.0708   -7.2287 N   0  0  0  0  0  0  0  0  0  0  0  0
   28.1067  -19.0138   -6.2930 C   0  0  0  0  0  0  0  0  0  0  0  0
   28.6740  -18.9847   -5.0336 C   0  0  0  0  0  0  0  0  0  0  0  0
   28.5998  -20.1209   -4.2540 C   0  0  0  0  0  0  0  0  0  0  0  0
   27.9791  -21.2636   -4.7064 C   0  0  0  0  0  0  0  0  0  0  0  0
   27.4043  -21.2959   -5.9796 C   0  0  0  0  0  0  0  0  0  0  0  0
   27.4775  -20.1624   -6.7562 C   0  0  0  0  0  0  0  0  0  0  0  0
   25.4053  -20.6098  -11.2990 C   0  0  0  0  0  0  0  0  0  0  0  0
   24.2673  -20.5063  -10.7758 O   0  0  0  0  0  0  0  0  0  0  0  0
   25.6474  -21.0606  -12.6004 N   0  0  0  0  0  0  0  0  0  0  0  0
   26.8492  -20.6849  -13.3834 C   0  0  0  0  0  0  0  0  0  0  0  0
   27.3387  -22.1004  -13.7127 C   0  0  0  0  0  0  0  0  0  0  0  0
   26.0800  -22.9934  -13.6692 C   0  0  0  0  0  0  0  0  0  0  0  0
   25.0121  -21.9242  -13.5513 C   0  0  1  0  0  0  0  0  0  0  0  0
   23.6785  -22.4017  -13.3294 C   0  0  0  0  0  0  0  0  0  0  0  0
   23.5962  -23.5761  -12.8093 O   0  0  0  0  0  0  0  0  0  0  0  0
   18.8139  -18.7724  -10.9308 C   0  0  0  0  0  0  0  0  0  0  0  0
   18.9011  -20.4119  -10.1227 S   0  0  0  0  0  0  0  0  0  0  0  0
   19.4091  -21.6140  -11.4189 C   0  0  0  0  0  0  0  0  0  0  0  0
   20.7841  -21.2775  -11.9247 C   0  0  0  0  0  0  0  0  0  0  0  0
   21.1644  -22.1275  -13.0777 C   0  0  2  0  0  0  0  0  0  0  0  0
   22.4818  -21.7479  -13.6148 N   0  0  0  0  0  0  0  0  0  0  0  0
   20.2089  -21.9662  -14.1909 C   0  0  0  0  0  0  0  0  0  0  0  0
   20.3975  -21.1297  -15.0947 O   0  0  0  0  0  0  0  0  0  0  0  0
   19.0334  -22.7325  -14.3120 O   0  0  0  0  0  0  0  0  0  0  0  0
  2  1  1  1
  2  3  1  0
  3  4  1  0
  4 12  1  0
  4  5  2  0
  5  6  1  0
  7  8  2  0
  7  6  1  0
  9  8  1  0
 10  9  2  0
 11 10  1  0
 11 12  2  0
 12  7  1  0
 13 15  1  0
 13  2  1  0
 14 13  2  0
 15 19  1  0
 16 17  1  0
 16 15  1  0
 17 18  1  0
 19 18  1  0
 19 20  1  1
 20 21  2  0
 22 23  1  0
 24 23  1  0
 24 25  1  0
 26 25  1  1
 26 27  1  0
 26 28  1  0
 27 20  1  0
 28 30  1  0
 29 28  2  0
M  END
$$$$
