HIC.pdb
     RDKit          3D

 25 25  0  0  1  0  0  0  0  0999 V2000
   10.4035  -17.8144   15.9486 N   0  0  0  0  0  0  0  0  0  0  0  0
    9.5338  -18.0184   17.0892 C   0  0  1  0  0  0  0  0  0  0  0  0
    9.5414  -19.4646   17.5320 C   0  0  0  0  0  0  0  0  0  0  0  0
    8.6560  -20.2668   16.6495 C   0  0  0  0  0  0  0  0  0  0  0  0
    7.3597  -19.8906   16.2817 C   0  0  0  0  0  0  0  0  0  0  0  0
    6.8867  -20.8635   15.4859 N   0  0  0  0  0  0  0  0  0  0  0  0
    7.8131  -21.8308   15.3326 C   0  0  0  0  0  0  0  0  0  0  0  0
    8.8871  -21.4525   16.0486 N   0  0  0  0  0  0  0  0  0  0  0  0
    9.8673  -17.0966   18.2048 C   0  0  0  0  0  0  0  0  0  0  0  0
   11.0663  -16.9505   18.5553 O   0  0  0  0  0  0  0  0  0  0  0  0
    7.7220  -12.0078   20.8181 C   0  0  0  0  0  0  0  0  0  0  0  0
    8.7872  -13.1064   20.8909 C   0  0  0  0  0  0  0  0  0  0  0  0
    8.3105  -14.2164   19.9929 C   0  0  2  0  0  0  0  0  0  0  0  0
    6.9467  -14.7215   20.3727 C   0  0  0  0  0  0  0  0  0  0  0  0
    9.2523  -15.3945   19.9594 C   0  0  2  0  0  0  0  0  0  0  0  0
    8.8971  -16.3466   18.9245 N   0  0  0  0  0  0  0  0  0  0  0  0
    9.3639  -16.0712   21.2780 C   0  0  0  0  0  0  0  0  0  0  0  0
    8.5279  -16.9143   21.6873 O   0  0  0  0  0  0  0  0  0  0  0  0
   10.4531  -15.7780   22.1456 N   0  0  0  0  0  0  0  0  0  0  0  0
   10.7367  -16.6212   23.3190 C   0  0  1  0  0  0  0  0  0  0  0  0
   12.1834  -16.3261   23.7189 C   0  0  0  0  0  0  0  0  0  0  0  0
   13.2351  -16.8743   22.3437 S   0  0  0  0  0  0  0  0  0  0  0  0
    9.8901  -16.0925   24.4205 C   0  0  0  0  0  0  0  0  0  0  0  0
    9.8358  -16.7266   25.6703 O   0  0  0  0  0  0  0  0  0  0  0  0
    9.1763  -15.0580   24.3101 O   0  0  0  0  0  0  0  0  0  0  0  0
  2  1  1  6
  2  9  1  0
  3  2  1  0
  4  3  1  0
  5  4  2  0
  6  5  1  0
  7  6  1  0
  7  8  2  0
  8  4  1  0
  9 16  1  0
  9 10  2  0
 12 11  1  0
 13 12  1  0
 13 14  1  1
 15 13  1  0
 15 16  1  6
 17 15  1  0
 17 18  2  0
 19 17  1  0
 20 19  1  0
 21 22  1  0
 20 21  1  1
 23 20  1  0
 23 24  1  0
 25 23  2  0
M  END
$$$$
