HIC.pdb
     RDKit          3D

 25 25  0  0  1  0  0  0  0  0999 V2000
   10.0003  -13.9241   20.3974 N   0  0  0  0  0  0  0  0  0  0  0  0
    8.7316  -14.1354   21.0642 C   0  0  1  0  0  0  0  0  0  0  0  0
    7.9325  -15.2269   20.3877 C   0  0  0  0  0  0  0  0  0  0  0  0
    7.5178  -14.7821   19.0325 C   0  0  0  0  0  0  0  0  0  0  0  0
    7.9583  -13.6037   18.4207 C   0  0  0  0  0  0  0  0  0  0  0  0
    7.3690  -13.5511   17.2151 N   0  0  0  0  0  0  0  0  0  0  0  0
    6.5822  -14.6307   17.0344 C   0  0  0  0  0  0  0  0  0  0  0  0
    6.6834  -15.3725   18.1518 N   0  0  0  0  0  0  0  0  0  0  0  0
    8.9116  -14.3997   22.5145 C   0  0  0  0  0  0  0  0  0  0  0  0
   10.0119  -14.8397   22.9359 O   0  0  0  0  0  0  0  0  0  0  0  0
    5.7847  -11.5916   26.1428 C   0  0  0  0  0  0  0  0  0  0  0  0
    6.9788  -12.1385   25.3541 C   0  0  0  0  0  0  0  0  0  0  0  0
    7.1052  -13.5899   25.7329 C   0  0  2  0  0  0  0  0  0  0  0  0
    7.4460  -13.7807   27.1844 C   0  0  0  0  0  0  0  0  0  0  0  0
    8.1331  -14.3272   24.9109 C   0  0  2  0  0  0  0  0  0  0  0  0
    7.8972  -14.1835   23.4870 N   0  0  0  0  0  0  0  0  0  0  0  0
    8.2357  -15.7626   25.2827 C   0  0  0  0  0  0  0  0  0  0  0  0
    7.2657  -16.5575   25.2166 O   0  0  0  0  0  0  0  0  0  0  0  0
    9.4720  -16.2994   25.7392 N   0  0  0  0  0  0  0  0  0  0  0  0
    9.5836  -17.7116   26.1414 C   0  0  1  0  0  0  0  0  0  0  0  0
   10.9609  -18.1831   25.6716 C   0  0  0  0  0  0  0  0  0  0  0  0
   11.2486  -19.8104   26.4244 S   0  0  0  0  0  0  0  0  0  0  0  0
    9.6333  -17.7141   27.6270 C   0  0  0  0  0  0  0  0  0  0  0  0
    9.2046  -18.8229   28.3713 O   0  0  0  0  0  0  0  0  0  0  0  0
   10.0557  -16.7395   28.3077 O   0  0  0  0  0  0  0  0  0  0  0  0
  2  1  1  6
  2  9  1  0
  3  2  1  0
  4  3  1  0
  5  4  2  0
  6  5  1  0
  7  6  1  0
  7  8  2  0
  8  4  1  0
  9 16  1  0
  9 10  2  0
 12 11  1  0
 13 12  1  0
 13 14  1  1
 15 13  1  0
 15 16  1  6
 17 15  1  0
 17 18  2  0
 19 17  1  0
 20 19  1  0
 21 22  1  0
 20 21  1  6
 23 20  1  0
 23 24  1  0
 25 23  2  0
M  END
$$$$
