HIC.pdb
     RDKit          3D

 25 25  0  0  1  0  0  0  0  0999 V2000
    9.2424  -15.2962   20.5707 N   0  0  0  0  0  0  0  0  0  0  0  0
    8.4146  -15.8169   21.6395 C   0  0  1  0  0  0  0  0  0  0  0  0
    8.2817  -17.3206   21.5463 C   0  0  0  0  0  0  0  0  0  0  0  0
    7.6173  -17.6900   20.2702 C   0  0  0  0  0  0  0  0  0  0  0  0
    6.4515  -17.0877   19.7855 C   0  0  0  0  0  0  0  0  0  0  0  0
    6.1644  -17.6863   18.6181 N   0  0  0  0  0  0  0  0  0  0  0  0
    7.0847  -18.6316   18.3414 C   0  0  0  0  0  0  0  0  0  0  0  0
    7.9647  -18.6221   19.3587 N   0  0  0  0  0  0  0  0  0  0  0  0
    8.9064  -15.3867   22.9732 C   0  0  0  0  0  0  0  0  0  0  0  0
   10.1390  -15.4144   23.2217 O   0  0  0  0  0  0  0  0  0  0  0  0
    6.0728  -11.7458   26.0878 C   0  0  0  0  0  0  0  0  0  0  0  0
    7.1883  -12.4223   25.2846 C   0  0  0  0  0  0  0  0  0  0  0  0
    7.5771  -13.6541   26.0576 C   0  0  2  0  0  0  0  0  0  0  0  0
    8.1646  -13.3305   27.4028 C   0  0  0  0  0  0  0  0  0  0  0  0
    8.5576  -14.5302   25.3181 C   0  0  2  0  0  0  0  0  0  0  0  0
    8.0558  -14.9328   24.0182 N   0  0  0  0  0  0  0  0  0  0  0  0
    8.9698  -15.7177   26.1113 C   0  0  0  0  0  0  0  0  0  0  0  0
    8.1851  -16.6557   26.3970 O   0  0  0  0  0  0  0  0  0  0  0  0
   10.3058  -15.8348   26.5871 N   0  0  0  0  0  0  0  0  0  0  0  0
   10.7498  -17.0358   27.3143 C   0  0  1  0  0  0  0  0  0  0  0  0
   12.2028  -17.2746   26.9001 C   0  0  0  0  0  0  0  0  0  0  0  0
   12.8482  -18.5932   27.9689 S   0  0  0  0  0  0  0  0  0  0  0  0
   10.7893  -16.6563   28.7510 C   0  0  0  0  0  0  0  0  0  0  0  0
   10.6315  -17.6127   29.7647 O   0  0  0  0  0  0  0  0  0  0  0  0
   10.9639  -15.4723   29.1502 O   0  0  0  0  0  0  0  0  0  0  0  0
  2  1  1  6
  2  9  1  0
  3  2  1  0
  4  3  1  0
  5  4  2  0
  6  5  1  0
  7  6  1  0
  7  8  2  0
  8  4  1  0
  9 16  1  0
  9 10  2  0
 12 11  1  0
 13 12  1  0
 13 14  1  1
 15 13  1  0
 15 16  1  6
 17 15  1  0
 17 18  2  0
 19 17  1  0
 20 19  1  0
 21 22  1  0
 20 21  1  6
 23 20  1  0
 23 24  1  0
 25 23  2  0
M  END
$$$$
