HIC.pdb
     RDKit          3D

 25 25  0  0  1  0  0  0  0  0999 V2000
    9.8847  -15.5074   20.6471 N   0  0  0  0  0  0  0  0  0  0  0  0
    8.7615  -15.7096   21.5396 C   0  0  1  0  0  0  0  0  0  0  0  0
    8.2090  -17.1121   21.4157 C   0  0  0  0  0  0  0  0  0  0  0  0
    7.6441  -17.3132   20.0567 C   0  0  0  0  0  0  0  0  0  0  0  0
    7.6081  -16.3278   19.0644 C   0  0  0  0  0  0  0  0  0  0  0  0
    7.0286  -16.8845   17.9884 N   0  0  0  0  0  0  0  0  0  0  0  0
    6.6980  -18.1652   18.2485 C   0  0  0  0  0  0  0  0  0  0  0  0
    7.0798  -18.4122   19.5144 N   0  0  0  0  0  0  0  0  0  0  0  0
    9.1098  -15.3744   22.9439 C   0  0  0  0  0  0  0  0  0  0  0  0
   10.3141  -15.3825   23.3063 O   0  0  0  0  0  0  0  0  0  0  0  0
    6.0202  -12.0081   26.0335 C   0  0  0  0  0  0  0  0  0  0  0  0
    7.1794  -12.6736   25.2849 C   0  0  0  0  0  0  0  0  0  0  0  0
    7.4906  -13.9428   26.0319 C   0  0  2  0  0  0  0  0  0  0  0  0
    7.9934  -13.6850   27.4248 C   0  0  0  0  0  0  0  0  0  0  0  0
    8.5003  -14.8121   25.3243 C   0  0  2  0  0  0  0  0  0  0  0  0
    8.1483  -15.0354   23.9350 N   0  0  0  0  0  0  0  0  0  0  0  0
    8.7261  -16.1049   26.0219 C   0  0  0  0  0  0  0  0  0  0  0  0
    7.8040  -16.9228   26.2624 O   0  0  0  0  0  0  0  0  0  0  0  0
   10.0323  -16.4695   26.4530 N   0  0  0  0  0  0  0  0  0  0  0  0
   10.2876  -17.7788   27.0767 C   0  0  1  0  0  0  0  0  0  0  0  0
   11.7239  -18.1555   26.7091 C   0  0  0  0  0  0  0  0  0  0  0  0
   11.8279  -18.1401   24.8963 S   0  0  0  0  0  0  0  0  0  0  0  0
   10.2876  -17.5430   28.5443 C   0  0  0  0  0  0  0  0  0  0  0  0
   10.4369  -18.5993   29.4549 O   0  0  0  0  0  0  0  0  0  0  0  0
   10.1562  -16.4001   29.0623 O   0  0  0  0  0  0  0  0  0  0  0  0
  2  1  1  6
  2  9  1  0
  3  2  1  0
  4  3  1  0
  5  4  2  0
  6  5  1  0
  7  6  1  0
  7  8  2  0
  8  4  1  0
  9 16  1  0
  9 10  2  0
 12 11  1  0
 13 12  1  0
 13 14  1  1
 15 13  1  0
 15 16  1  6
 17 15  1  0
 17 18  2  0
 19 17  1  0
 20 19  1  0
 21 22  1  0
 20 21  1  6
 23 20  1  0
 23 24  1  0
 25 23  2  0
M  END
$$$$
