HIC.pdb
     RDKit          3D

 25 25  0  0  1  0  0  0  0  0999 V2000
    9.4556  -15.6413   20.4746 N   0  0  0  0  0  0  0  0  0  0  0  0
    8.4538  -15.8814   21.4932 C   0  0  1  0  0  0  0  0  0  0  0  0
    7.9950  -17.3226   21.4811 C   0  0  0  0  0  0  0  0  0  0  0  0
    7.3250  -17.6278   20.1911 C   0  0  0  0  0  0  0  0  0  0  0  0
    7.0287  -16.6736   19.2119 C   0  0  0  0  0  0  0  0  0  0  0  0
    6.4304  -17.3284   18.2034 N   0  0  0  0  0  0  0  0  0  0  0  0
    6.3339  -18.6413   18.4937 C   0  0  0  0  0  0  0  0  0  0  0  0
    6.8840  -18.8085   19.7097 N   0  0  0  0  0  0  0  0  0  0  0  0
    8.9270  -15.4628   22.8372 C   0  0  0  0  0  0  0  0  0  0  0  0
   10.1555  -15.4981   23.1043 O   0  0  0  0  0  0  0  0  0  0  0  0
    6.1928  -11.9053   26.0634 C   0  0  0  0  0  0  0  0  0  0  0  0
    7.3246  -12.5918   25.2922 C   0  0  0  0  0  0  0  0  0  0  0  0
    7.5929  -13.8907   26.0041 C   0  0  2  0  0  0  0  0  0  0  0  0
    8.1759  -13.6886   27.3748 C   0  0  0  0  0  0  0  0  0  0  0  0
    8.5130  -14.8063   25.2354 C   0  0  2  0  0  0  0  0  0  0  0  0
    8.0625  -15.0121   23.8722 N   0  0  0  0  0  0  0  0  0  0  0  0
    8.7219  -16.1087   25.9205 C   0  0  0  0  0  0  0  0  0  0  0  0
    7.7893  -16.9172   26.1523 O   0  0  0  0  0  0  0  0  0  0  0  0
   10.0230  -16.4940   26.3489 N   0  0  0  0  0  0  0  0  0  0  0  0
   10.2525  -17.7923   27.0045 C   0  0  1  0  0  0  0  0  0  0  0  0
   11.6403  -18.2573   26.5600 C   0  0  0  0  0  0  0  0  0  0  0  0
   11.6250  -18.3094   24.7448 S   0  0  0  0  0  0  0  0  0  0  0  0
   10.3617  -17.5058   28.4590 C   0  0  0  0  0  0  0  0  0  0  0  0
   10.5351  -18.5347   29.3963 O   0  0  0  0  0  0  0  0  0  0  0  0
   10.3073  -16.3414   28.9417 O   0  0  0  0  0  0  0  0  0  0  0  0
  2  1  1  6
  2  9  1  0
  3  2  1  0
  4  3  1  0
  5  4  2  0
  6  5  1  0
  7  6  1  0
  7  8  2  0
  8  4  1  0
  9 16  1  0
  9 10  2  0
 12 11  1  0
 13 12  1  0
 13 14  1  1
 15 13  1  0
 15 16  1  6
 17 15  1  0
 17 18  2  0
 19 17  1  0
 20 19  1  0
 21 22  1  0
 20 21  1  6
 23 20  1  0
 23 24  1  0
 25 23  2  0
M  END
$$$$
