HIC.pdb
     RDKit          3D

 25 25  0  0  1  0  0  0  0  0999 V2000
   10.0429  -14.0999   20.3527 N   0  0  0  0  0  0  0  0  0  0  0  0
    8.7971  -14.2569   21.0754 C   0  0  1  0  0  0  0  0  0  0  0  0
    8.0010  -15.4291   20.5463 C   0  0  0  0  0  0  0  0  0  0  0  0
    7.5996  -15.1721   19.1395 C   0  0  0  0  0  0  0  0  0  0  0  0
    7.9019  -14.0020   18.4349 C   0  0  0  0  0  0  0  0  0  0  0  0
    7.3750  -14.1434   17.2077 N   0  0  0  0  0  0  0  0  0  0  0  0
    6.7582  -15.3373   17.1010 C   0  0  0  0  0  0  0  0  0  0  0  0
    6.9038  -15.9536   18.2878 N   0  0  0  0  0  0  0  0  0  0  0  0
    9.0216  -14.3568   22.5400 C   0  0  0  0  0  0  0  0  0  0  0  0
   10.0890  -14.8609   22.9740 O   0  0  0  0  0  0  0  0  0  0  0  0
    6.9550  -11.8159   27.7695 C   0  0  0  0  0  0  0  0  0  0  0  0
    7.8493  -12.9037   27.1665 C   0  0  0  0  0  0  0  0  0  0  0  0
    7.4911  -12.9830   25.7066 C   0  0  2  0  0  0  0  0  0  0  0  0
    6.0553  -13.3680   25.4840 C   0  0  0  0  0  0  0  0  0  0  0  0
    8.3583  -13.9485   24.9374 C   0  0  2  0  0  0  0  0  0  0  0  0
    8.0866  -13.9091   23.5132 N   0  0  0  0  0  0  0  0  0  0  0  0
    8.2561  -15.3391   25.4520 C   0  0  0  0  0  0  0  0  0  0  0  0
    7.1864  -15.9969   25.4380 O   0  0  0  0  0  0  0  0  0  0  0  0
    9.3998  -15.9902   25.9933 N   0  0  0  0  0  0  0  0  0  0  0  0
    9.3244  -17.3790   26.4768 C   0  0  1  0  0  0  0  0  0  0  0  0
   10.6295  -18.0528   26.0495 C   0  0  0  0  0  0  0  0  0  0  0  0
   10.7352  -17.9041   24.2427 S   0  0  0  0  0  0  0  0  0  0  0  0
    9.3687  -17.3017   27.9606 C   0  0  0  0  0  0  0  0  0  0  0  0
    9.2582  -18.4512   28.7566 O   0  0  0  0  0  0  0  0  0  0  0  0
    9.5060  -16.2193   28.5941 O   0  0  0  0  0  0  0  0  0  0  0  0
  2  1  1  6
  2  9  1  0
  3  2  1  0
  4  3  1  0
  5  4  2  0
  6  5  1  0
  7  6  1  0
  7  8  2  0
  8  4  1  0
  9 16  1  0
  9 10  2  0
 12 11  1  0
 13 12  1  0
 13 14  1  1
 15 13  1  0
 15 16  1  6
 17 15  1  0
 17 18  2  0
 19 17  1  0
 20 19  1  0
 21 22  1  0
 20 21  1  6
 23 20  1  0
 23 24  1  0
 25 23  2  0
M  END
$$$$
