HIC.pdb
     RDKit          3D

 25 25  0  0  1  0  0  0  0  0999 V2000
   10.1369  -15.8371   20.3693 N   0  0  0  0  0  0  0  0  0  0  0  0
    9.1314  -16.1212   21.3728 C   0  0  1  0  0  0  0  0  0  0  0  0
    8.9609  -17.6109   21.5710 C   0  0  0  0  0  0  0  0  0  0  0  0
    8.0811  -18.1634   20.5094 C   0  0  0  0  0  0  0  0  0  0  0  0
    7.5243  -17.4055   19.4738 C   0  0  0  0  0  0  0  0  0  0  0  0
    6.7976  -18.2507   18.7246 N   0  0  0  0  0  0  0  0  0  0  0  0
    6.8662  -19.4980   19.2313 C   0  0  0  0  0  0  0  0  0  0  0  0
    7.6530  -19.4288   20.3201 N   0  0  0  0  0  0  0  0  0  0  0  0
    9.4198  -15.4225   22.6512 C   0  0  0  0  0  0  0  0  0  0  0  0
   10.6081  -15.1438   22.9548 O   0  0  0  0  0  0  0  0  0  0  0  0
    6.6262  -12.0022   26.9556 C   0  0  0  0  0  0  0  0  0  0  0  0
    7.8960  -12.7756   26.5865 C   0  0  0  0  0  0  0  0  0  0  0  0
    7.5540  -13.5913   25.3685 C   0  0  2  0  0  0  0  0  0  0  0  0
    6.4196  -14.5467   25.6128 C   0  0  0  0  0  0  0  0  0  0  0  0
    8.7249  -14.3818   24.8393 C   0  0  2  0  0  0  0  0  0  0  0  0
    8.4169  -15.0361   23.5820 N   0  0  0  0  0  0  0  0  0  0  0  0
    9.2417  -15.3638   25.8281 C   0  0  0  0  0  0  0  0  0  0  0  0
    8.9626  -16.5875   25.7871 O   0  0  0  0  0  0  0  0  0  0  0  0
   10.0944  -14.9378   26.8847 N   0  0  0  0  0  0  0  0  0  0  0  0
   11.0190  -15.8783   27.5396 C   0  0  1  0  0  0  0  0  0  0  0  0
   11.7427  -15.0809   28.6260 C   0  0  0  0  0  0  0  0  0  0  0  0
   10.4824  -14.1015   29.4921 S   0  0  0  0  0  0  0  0  0  0  0  0
   10.1663  -16.8647   28.2532 C   0  0  0  0  0  0  0  0  0  0  0  0
    8.7665  -16.7922   28.2044 O   0  0  0  0  0  0  0  0  0  0  0  0
   10.6326  -17.8161   28.9383 O   0  0  0  0  0  0  0  0  0  0  0  0
  2  1  1  6
  2  9  1  0
  3  2  1  0
  4  3  1  0
  5  4  2  0
  6  5  1  0
  7  6  1  0
  7  8  2  0
  8  4  1  0
  9 16  1  0
  9 10  2  0
 12 11  1  0
 13 12  1  0
 13 14  1  1
 15 13  1  0
 15 16  1  6
 17 15  1  0
 17 18  2  0
 19 17  1  0
 20 19  1  0
 21 22  1  0
 20 21  1  1
 23 20  1  0
 23 24  1  0
 25 23  2  0
M  END
$$$$
