HIC.pdb
     RDKit          3D

 25 25  0  0  1  0  0  0  0  0999 V2000
    9.9794  -14.1501   20.6332 N   0  0  0  0  0  0  0  0  0  0  0  0
    8.7479  -14.4257   21.3447 C   0  0  1  0  0  0  0  0  0  0  0  0
    8.0744  -15.6707   20.8119 C   0  0  0  0  0  0  0  0  0  0  0  0
    7.6811  -15.4639   19.3945 C   0  0  0  0  0  0  0  0  0  0  0  0
    8.0323  -14.3430   18.6347 C   0  0  0  0  0  0  0  0  0  0  0  0
    7.4968  -14.5198   17.4158 N   0  0  0  0  0  0  0  0  0  0  0  0
    6.8283  -15.6893   17.3666 C   0  0  0  0  0  0  0  0  0  0  0  0
    6.9498  -16.2540   18.5814 N   0  0  0  0  0  0  0  0  0  0  0  0
    8.9670  -14.5001   22.8117 C   0  0  0  0  0  0  0  0  0  0  0  0
   10.0891  -14.8525   23.2572 O   0  0  0  0  0  0  0  0  0  0  0  0
    5.8525  -11.5512   26.3456 C   0  0  0  0  0  0  0  0  0  0  0  0
    7.0261  -12.1368   25.5539 C   0  0  0  0  0  0  0  0  0  0  0  0
    7.1726  -13.5637   26.0102 C   0  0  2  0  0  0  0  0  0  0  0  0
    7.5564  -13.6704   27.4596 C   0  0  0  0  0  0  0  0  0  0  0  0
    8.1808  -14.3417   25.2015 C   0  0  2  0  0  0  0  0  0  0  0  0
    7.9674  -14.1917   23.7747 N   0  0  0  0  0  0  0  0  0  0  0  0
    8.2235  -15.7793   25.5765 C   0  0  0  0  0  0  0  0  0  0  0  0
    7.2256  -16.5375   25.4952 O   0  0  0  0  0  0  0  0  0  0  0  0
    9.4311  -16.3612   26.0540 N   0  0  0  0  0  0  0  0  0  0  0  0
    9.4764  -17.7683   26.4857 C   0  0  1  0  0  0  0  0  0  0  0  0
   10.7625  -18.3546   25.9008 C   0  0  0  0  0  0  0  0  0  0  0  0
   10.6211  -18.2433   24.0938 S   0  0  0  0  0  0  0  0  0  0  0  0
    9.6705  -17.7410   27.9592 C   0  0  0  0  0  0  0  0  0  0  0  0
    9.6855  -18.9211   28.7170 O   0  0  0  0  0  0  0  0  0  0  0  0
    9.8319  -16.6766   28.6171 O   0  0  0  0  0  0  0  0  0  0  0  0
  2  1  1  6
  2  9  1  0
  3  2  1  0
  4  3  1  0
  5  4  2  0
  6  5  1  0
  7  6  1  0
  7  8  2  0
  8  4  1  0
  9 16  1  0
  9 10  2  0
 12 11  1  0
 13 12  1  0
 13 14  1  1
 15 13  1  0
 15 16  1  6
 17 15  1  0
 17 18  2  0
 19 17  1  0
 20 19  1  0
 21 22  1  0
 20 21  1  6
 23 20  1  0
 23 24  1  0
 25 23  2  0
M  END
$$$$
