HIC.pdb
     RDKit          3D

 25 25  0  0  1  0  0  0  0  0999 V2000
    9.1079  -17.8262   16.7792 N   0  0  0  0  0  0  0  0  0  0  0  0
    8.2359  -17.8999   17.9337 C   0  0  1  0  0  0  0  0  0  0  0  0
    7.9766  -19.3354   18.3335 C   0  0  0  0  0  0  0  0  0  0  0  0
    7.2124  -20.0266   17.2637 C   0  0  0  0  0  0  0  0  0  0  0  0
    6.0593  -19.5125   16.6610 C   0  0  0  0  0  0  0  0  0  0  0  0
    5.6630  -20.4175   15.7513 N   0  0  0  0  0  0  0  0  0  0  0  0
    6.5025  -21.4722   15.7481 C   0  0  0  0  0  0  0  0  0  0  0  0
    7.4427  -21.2191   16.6762 N   0  0  0  0  0  0  0  0  0  0  0  0
    8.7582  -17.0957   19.0677 C   0  0  0  0  0  0  0  0  0  0  0  0
    9.9751  -17.1704   19.3764 O   0  0  0  0  0  0  0  0  0  0  0  0
    7.1531  -11.9668   20.0723 C   0  0  0  0  0  0  0  0  0  0  0  0
    7.9873  -13.2295   19.8344 C   0  0  0  0  0  0  0  0  0  0  0  0
    7.8084  -14.0897   21.0567 C   0  0  2  0  0  0  0  0  0  0  0  0
    8.3022  -13.4227   22.3099 C   0  0  0  0  0  0  0  0  0  0  0  0
    8.4913  -15.4299   20.9406 C   0  0  2  0  0  0  0  0  0  0  0  0
    7.9547  -16.2222   19.8507 N   0  0  0  0  0  0  0  0  0  0  0  0
    8.4571  -16.1978   22.2128 C   0  0  0  0  0  0  0  0  0  0  0  0
    7.3960  -16.6464   22.7128 O   0  0  0  0  0  0  0  0  0  0  0  0
    9.6601  -16.4576   22.9271 N   0  0  0  0  0  0  0  0  0  0  0  0
    9.6619  -17.3168   24.1230 C   0  0  1  0  0  0  0  0  0  0  0  0
   10.8487  -18.2689   23.9645 C   0  0  0  0  0  0  0  0  0  0  0  0
   12.3032  -17.2454   23.5977 S   0  0  0  0  0  0  0  0  0  0  0  0
    9.9973  -16.4294   25.2674 C   0  0  0  0  0  0  0  0  0  0  0  0
   10.0142  -16.9097   26.5850 O   0  0  0  0  0  0  0  0  0  0  0  0
   10.2841  -15.2078   25.1358 O   0  0  0  0  0  0  0  0  0  0  0  0
  2  1  1  6
  2  9  1  0
  3  2  1  0
  4  3  1  0
  5  4  2  0
  6  5  1  0
  7  6  1  0
  7  8  2  0
  8  4  1  0
  9 16  1  0
  9 10  2  0
 12 11  1  0
 13 12  1  0
 13 14  1  1
 15 13  1  0
 15 16  1  6
 17 15  1  0
 17 18  2  0
 19 17  1  0
 20 19  1  0
 21 22  1  0
 20 21  1  6
 23 20  1  0
 23 24  1  0
 25 23  2  0
M  END
$$$$
