HIC.pdb
     RDKit          3D

 25 25  0  0  1  0  0  0  0  0999 V2000
    9.2435  -15.8982   20.2353 N   0  0  0  0  0  0  0  0  0  0  0  0
    8.2290  -15.9590   21.2677 C   0  0  1  0  0  0  0  0  0  0  0  0
    7.6631  -17.3556   21.3979 C   0  0  0  0  0  0  0  0  0  0  0  0
    7.0077  -17.7546   20.1261 C   0  0  0  0  0  0  0  0  0  0  0  0
    7.0338  -16.9927   18.9532 C   0  0  0  0  0  0  0  0  0  0  0  0
    6.3377  -17.6785   18.0318 N   0  0  0  0  0  0  0  0  0  0  0  0
    5.8751  -18.8293   18.5599 C   0  0  0  0  0  0  0  0  0  0  0  0
    6.2920  -18.8616   19.8383 N   0  0  0  0  0  0  0  0  0  0  0  0
    8.7357  -15.4443   22.5654 C   0  0  0  0  0  0  0  0  0  0  0  0
    9.9637  -15.5160   22.8276 O   0  0  0  0  0  0  0  0  0  0  0  0
    7.2245  -11.6401   27.1638 C   0  0  0  0  0  0  0  0  0  0  0  0
    8.1724  -12.7537   26.7073 C   0  0  0  0  0  0  0  0  0  0  0  0
    7.5855  -13.3138   25.4394 C   0  0  2  0  0  0  0  0  0  0  0  0
    6.1821  -13.8188   25.6261 C   0  0  0  0  0  0  0  0  0  0  0  0
    8.4098  -14.4317   24.8506 C   0  0  2  0  0  0  0  0  0  0  0  0
    7.9048  -14.8595   23.5600 N   0  0  0  0  0  0  0  0  0  0  0  0
    8.5387  -15.5900   25.7730 C   0  0  0  0  0  0  0  0  0  0  0  0
    7.5756  -16.3401   26.0681 O   0  0  0  0  0  0  0  0  0  0  0  0
    9.7937  -15.8966   26.3695 N   0  0  0  0  0  0  0  0  0  0  0  0
    9.9742  -17.1180   27.1720 C   0  0  1  0  0  0  0  0  0  0  0  0
   11.2788  -17.7567   26.6925 C   0  0  0  0  0  0  0  0  0  0  0  0
   11.0812  -18.0976   24.9198 S   0  0  0  0  0  0  0  0  0  0  0  0
   10.2273  -16.6626   28.5641 C   0  0  0  0  0  0  0  0  0  0  0  0
   10.4393  -17.5774   29.6059 O   0  0  0  0  0  0  0  0  0  0  0  0
   10.2682  -15.4467   28.8986 O   0  0  0  0  0  0  0  0  0  0  0  0
  2  1  1  6
  2  9  1  0
  3  2  1  0
  4  3  1  0
  5  4  2  0
  6  5  1  0
  7  6  1  0
  7  8  2  0
  8  4  1  0
  9 16  1  0
  9 10  2  0
 12 11  1  0
 13 12  1  0
 13 14  1  1
 15 13  1  0
 15 16  1  6
 17 15  1  0
 17 18  2  0
 19 17  1  0
 20 19  1  0
 21 22  1  0
 20 21  1  6
 23 20  1  0
 23 24  1  0
 25 23  2  0
M  END
$$$$
