HIC.pdb
     RDKit          3D

 25 25  0  0  1  0  0  0  0  0999 V2000
    9.8049  -13.5764   20.5386 N   0  0  0  0  0  0  0  0  0  0  0  0
    8.5491  -13.9070   21.1809 C   0  0  1  0  0  0  0  0  0  0  0  0
    7.8541  -15.0472   20.4705 C   0  0  0  0  0  0  0  0  0  0  0  0
    7.5784  -14.6695   19.0606 C   0  0  0  0  0  0  0  0  0  0  0  0
    8.0375  -13.4949   18.4551 C   0  0  0  0  0  0  0  0  0  0  0  0
    7.5873  -13.5114   17.1899 N   0  0  0  0  0  0  0  0  0  0  0  0
    6.8706  -14.6310   16.9658 C   0  0  0  0  0  0  0  0  0  0  0  0
    6.8742  -15.3275   18.1165 N   0  0  0  0  0  0  0  0  0  0  0  0
    8.7301  -14.1855   22.6284 C   0  0  0  0  0  0  0  0  0  0  0  0
    9.8543  -14.5521   23.0567 O   0  0  0  0  0  0  0  0  0  0  0  0
    5.4577  -11.5815   26.2276 C   0  0  0  0  0  0  0  0  0  0  0  0
    6.6339  -12.1006   25.3945 C   0  0  0  0  0  0  0  0  0  0  0  0
    6.8730  -13.5184   25.8398 C   0  0  2  0  0  0  0  0  0  0  0  0
    7.2810  -13.6095   27.2836 C   0  0  0  0  0  0  0  0  0  0  0  0
    7.9165  -14.2288   25.0138 C   0  0  2  0  0  0  0  0  0  0  0  0
    7.6906  -14.0628   23.5907 N   0  0  0  0  0  0  0  0  0  0  0  0
    8.0333  -15.6692   25.3612 C   0  0  0  0  0  0  0  0  0  0  0  0
    7.0528  -16.4539   25.3646 O   0  0  0  0  0  0  0  0  0  0  0  0
    9.2963  -16.2231   25.7117 N   0  0  0  0  0  0  0  0  0  0  0  0
    9.4186  -17.6302   26.1283 C   0  0  1  0  0  0  0  0  0  0  0  0
   10.7763  -18.1126   25.6147 C   0  0  0  0  0  0  0  0  0  0  0  0
   10.8006  -17.8158   23.8233 S   0  0  0  0  0  0  0  0  0  0  0  0
    9.5227  -17.6132   27.6110 C   0  0  0  0  0  0  0  0  0  0  0  0
    9.5920  -18.8014   28.3531 O   0  0  0  0  0  0  0  0  0  0  0  0
    9.5554  -16.5510   28.2910 O   0  0  0  0  0  0  0  0  0  0  0  0
  2  1  1  6
  2  9  1  0
  3  2  1  0
  4  3  1  0
  5  4  2  0
  6  5  1  0
  7  6  1  0
  7  8  2  0
  8  4  1  0
  9 16  1  0
  9 10  2  0
 12 11  1  0
 13 12  1  0
 13 14  1  1
 15 13  1  0
 15 16  1  6
 17 15  1  0
 17 18  2  0
 19 17  1  0
 20 19  1  0
 21 22  1  0
 20 21  1  6
 23 20  1  0
 23 24  1  0
 25 23  2  0
M  END
$$$$
