HLN.pdb
     RDKit          3D

 27 27  0  0  1  0  0  0  0  0999 V2000
    7.8044  -15.6704   20.7650 N   0  0  0  0  0  0  0  0  0  0  0  0
    9.1830  -15.3879   21.0529 C   0  0  1  0  0  0  0  0  0  0  0  0
    9.7676  -14.3181   20.1559 C   0  0  0  0  0  0  0  0  0  0  0  0
    8.8928  -14.0118   19.0172 C   0  0  0  0  0  0  0  0  0  0  0  0
    7.9313  -13.0277   18.8759 C   0  0  0  0  0  0  0  0  0  0  0  0
    7.3705  -13.1034   17.6653 N   0  0  0  0  0  0  0  0  0  0  0  0
    7.9640  -14.1376   17.0177 C   0  0  0  0  0  0  0  0  0  0  0  0
    8.8908  -14.6806   17.8584 N   0  0  0  0  0  0  0  0  0  0  0  0
    9.3356  -15.0215   22.4970 C   0  0  0  0  0  0  0  0  0  0  0  0
   10.4951  -14.7738   22.8724 O   0  0  0  0  0  0  0  0  0  0  0  0
    5.8978  -12.5359   27.0630 C   0  0  0  0  0  0  0  0  0  0  0  0
    7.1948  -13.1871   26.5712 C   0  0  2  0  0  0  0  0  0  0  0  0
    8.2148  -12.0538   26.5067 C   0  0  0  0  0  0  0  0  0  0  0  0
    7.0232  -13.7320   25.1720 C   0  0  0  0  0  0  0  0  0  0  0  0
    8.2155  -14.5226   24.7305 C   0  0  2  0  0  0  0  0  0  0  0  0
    8.2387  -14.9591   23.3723 N   0  0  0  0  0  0  0  0  0  0  0  0
    8.6749  -15.5796   25.6553 C   0  0  0  0  0  0  0  0  0  0  0  0
    8.6510  -15.3167   26.9130 O   0  0  0  0  0  0  0  0  0  0  0  0
    9.5456  -19.4190   22.6778 N   0  0  0  0  0  0  0  0  0  0  0  0
    9.0803  -19.4155   24.0185 C   0  0  0  0  0  0  0  0  0  0  0  0
    7.8695  -19.6530   24.2262 O   0  0  0  0  0  0  0  0  0  0  0  0
    9.9861  -19.1396   25.1344 C   0  0  0  0  0  0  0  0  0  0  0  0
    9.6489  -17.9449   25.9693 C   0  0  2  0  0  0  0  0  0  0  0  0
    9.1333  -16.8363   25.2657 N   0  0  0  0  0  0  0  0  0  0  0  0
   10.7208  -17.7654   26.9477 C   0  0  0  0  0  0  0  0  0  0  0  0
   10.6848  -18.0982   28.1295 O   0  0  0  0  0  0  0  0  0  0  0  0
   11.8944  -17.1493   26.4707 O   0  0  0  0  0  0  0  0  0  0  0  0
  2  3  1  0
  2  1  1  6
  4  8  1  0
  4  3  1  0
  5  4  2  0
  6  5  1  0
  6  7  1  0
  7  8  2  0
  9  2  1  0
 10  9  2  0
 12 11  1  6
 12 14  1  0
 13 12  1  0
 15 14  1  1
 15 16  1  0
 16  9  1  0
 17 15  1  0
 17 18  2  0
 20 22  1  0
 20 19  1  0
 21 20  2  0
 23 22  1  6
 23 24  1  0
 24 17  1  0
 25 23  1  0
 26 25  2  0
 27 25  1  0
M  END
$$$$
