HLN.pdb
     RDKit          3D

 27 27  0  0  1  0  0  0  0  0999 V2000
    7.8228  -15.8858   21.2761 N   0  0  0  0  0  0  0  0  0  0  0  0
    8.7847  -14.8345   21.4562 C   0  0  1  0  0  0  0  0  0  0  0  0
    8.4699  -13.5983   20.6417 C   0  0  0  0  0  0  0  0  0  0  0  0
    8.2911  -13.9051   19.2170 C   0  0  0  0  0  0  0  0  0  0  0  0
    8.3751  -15.1148   18.5520 C   0  0  0  0  0  0  0  0  0  0  0  0
    8.1349  -14.9409   17.2490 N   0  0  0  0  0  0  0  0  0  0  0  0
    7.8963  -13.6180   17.0634 C   0  0  0  0  0  0  0  0  0  0  0  0
    7.9961  -13.0011   18.2758 N   0  0  0  0  0  0  0  0  0  0  0  0
    8.9083  -14.5027   22.9115 C   0  0  0  0  0  0  0  0  0  0  0  0
    9.7890  -13.6750   23.2046 O   0  0  0  0  0  0  0  0  0  0  0  0
    8.2599  -12.0763   26.4935 C   0  0  0  0  0  0  0  0  0  0  0  0
    7.1049  -12.6804   25.6880 C   0  0  2  0  0  0  0  0  0  0  0  0
    5.8423  -12.0266   26.2425 C   0  0  0  0  0  0  0  0  0  0  0  0
    6.9997  -14.1676   25.9357 C   0  0  0  0  0  0  0  0  0  0  0  0
    8.1272  -14.9205   25.3006 C   0  0  2  0  0  0  0  0  0  0  0  0
    8.0805  -15.0874   23.8843 N   0  0  0  0  0  0  0  0  0  0  0  0
    8.5510  -16.1591   25.9860 C   0  0  0  0  0  0  0  0  0  0  0  0
    7.6286  -16.9614   26.3820 O   0  0  0  0  0  0  0  0  0  0  0  0
   11.9058  -20.2601   26.3151 N   0  0  0  0  0  0  0  0  0  0  0  0
   10.4869  -20.2353   26.3189 C   0  0  0  0  0  0  0  0  0  0  0  0
    9.8754  -21.3221   26.4228 O   0  0  0  0  0  0  0  0  0  0  0  0
    9.7506  -18.9760   26.2020 C   0  0  0  0  0  0  0  0  0  0  0  0
   10.5841  -17.7348   26.1468 C   0  0  2  0  0  0  0  0  0  0  0  0
    9.8733  -16.5196   26.2366 N   0  0  0  0  0  0  0  0  0  0  0  0
   11.5985  -17.9224   25.1104 C   0  0  0  0  0  0  0  0  0  0  0  0
   11.4393  -18.5005   24.0384 O   0  0  0  0  0  0  0  0  0  0  0  0
   12.8706  -17.3845   25.3880 O   0  0  0  0  0  0  0  0  0  0  0  0
  2  3  1  0
  2  1  1  1
  4  8  1  0
  4  3  1  0
  5  4  2  0
  6  5  1  0
  6  7  1  0
  7  8  2  0
  9  2  1  0
 10  9  2  0
 12 11  1  1
 12 14  1  0
 13 12  1  0
 15 14  1  1
 15 16  1  0
 16  9  1  0
 17 15  1  0
 17 18  2  0
 20 22  1  0
 20 19  1  0
 21 20  2  0
 23 22  1  6
 23 24  1  0
 24 17  1  0
 25 23  1  0
 26 25  2  0
 27 25  1  0
M  END
$$$$
