HLN.pdb
     RDKit          3D

 27 27  0  0  1  0  0  0  0  0999 V2000
   10.5760  -14.4247   21.2830 N   0  0  0  0  0  0  0  0  0  0  0  0
    9.2308  -14.2402   21.7512 C   0  0  1  0  0  0  0  0  0  0  0  0
    8.2029  -14.9423   20.8903 C   0  0  0  0  0  0  0  0  0  0  0  0
    8.0454  -14.2983   19.5802 C   0  0  0  0  0  0  0  0  0  0  0  0
    8.7868  -13.2899   18.9919 C   0  0  0  0  0  0  0  0  0  0  0  0
    8.2978  -13.0064   17.7810 N   0  0  0  0  0  0  0  0  0  0  0  0
    7.2366  -13.8278   17.5801 C   0  0  0  0  0  0  0  0  0  0  0  0
    7.0972  -14.6096   18.6891 N   0  0  0  0  0  0  0  0  0  0  0  0
    9.1254  -14.6779   23.1797 C   0  0  0  0  0  0  0  0  0  0  0  0
   10.1287  -15.2451   23.6468 O   0  0  0  0  0  0  0  0  0  0  0  0
    7.6458  -12.0290   26.8001 C   0  0  0  0  0  0  0  0  0  0  0  0
    6.5860  -12.6227   25.8661 C   0  0  2  0  0  0  0  0  0  0  0  0
    5.2513  -12.0947   26.3846 C   0  0  0  0  0  0  0  0  0  0  0  0
    6.5588  -14.1297   25.9766 C   0  0  0  0  0  0  0  0  0  0  0  0
    7.7495  -14.7592   25.3226 C   0  0  2  0  0  0  0  0  0  0  0  0
    7.9676  -14.4600   23.9447 N   0  0  0  0  0  0  0  0  0  0  0  0
    7.9734  -16.1900   25.6163 C   0  0  0  0  0  0  0  0  0  0  0  0
    7.2803  -16.7152   26.5625 O   0  0  0  0  0  0  0  0  0  0  0  0
    8.1369  -19.9418   23.4811 N   0  0  0  0  0  0  0  0  0  0  0  0
    9.5165  -19.6967   23.2557 C   0  0  0  0  0  0  0  0  0  0  0  0
   10.0541  -20.2146   22.2515 O   0  0  0  0  0  0  0  0  0  0  0  0
   10.2976  -18.8633   24.1706 C   0  0  0  0  0  0  0  0  0  0  0  0
    9.5308  -18.2157   25.2800 C   0  0  2  0  0  0  0  0  0  0  0  0
    8.8798  -17.0093   24.9469 N   0  0  0  0  0  0  0  0  0  0  0  0
   10.3380  -18.3080   26.4958 C   0  0  0  0  0  0  0  0  0  0  0  0
   10.6467  -17.3745   27.2320 O   0  0  0  0  0  0  0  0  0  0  0  0
   10.7965  -19.5961   26.8354 O   0  0  0  0  0  0  0  0  0  0  0  0
  2  3  1  0
  2  1  1  6
  4  8  1  0
  4  3  1  0
  5  4  2  0
  6  5  1  0
  6  7  1  0
  7  8  2  0
  9  2  1  0
 10  9  2  0
 12 11  1  1
 12 14  1  0
 13 12  1  0
 15 14  1  6
 15 16  1  0
 16  9  1  0
 17 15  1  0
 17 18  2  0
 20 22  1  0
 20 19  1  0
 21 20  2  0
 23 22  1  6
 23 24  1  0
 24 17  1  0
 25 23  1  0
 26 25  2  0
 27 25  1  0
M  END
$$$$
