HLN.pdb
     RDKit          3D

 27 27  0  0  1  0  0  0  0  0999 V2000
   10.0461  -14.8857   20.9181 N   0  0  0  0  0  0  0  0  0  0  0  0
    8.8824  -15.1227   21.7260 C   0  0  1  0  0  0  0  0  0  0  0  0
    8.2988  -16.5056   21.5316 C   0  0  0  0  0  0  0  0  0  0  0  0
    7.8506  -16.7281   20.1512 C   0  0  0  0  0  0  0  0  0  0  0  0
    8.0225  -15.9442   19.0248 C   0  0  0  0  0  0  0  0  0  0  0  0
    7.4539  -16.5294   17.9664 N   0  0  0  0  0  0  0  0  0  0  0  0
    6.9095  -17.6933   18.4022 C   0  0  0  0  0  0  0  0  0  0  0  0
    7.1613  -17.7980   19.7387 N   0  0  0  0  0  0  0  0  0  0  0  0
    9.2048  -14.8727   23.1671 C   0  0  0  0  0  0  0  0  0  0  0  0
   10.4116  -14.9092   23.4655 O   0  0  0  0  0  0  0  0  0  0  0  0
    7.9311  -11.4140   25.9025 C   0  0  0  0  0  0  0  0  0  0  0  0
    6.8579  -12.4737   25.6321 C   0  0  2  0  0  0  0  0  0  0  0  0
    5.6022  -11.9626   26.3326 C   0  0  0  0  0  0  0  0  0  0  0  0
    7.2351  -13.7920   26.2675 C   0  0  0  0  0  0  0  0  0  0  0  0
    8.3524  -14.4662   25.5336 C   0  0  2  0  0  0  0  0  0  0  0  0
    8.2079  -14.6111   24.1215 N   0  0  0  0  0  0  0  0  0  0  0  0
    8.8976  -15.6893   26.1584 C   0  0  0  0  0  0  0  0  0  0  0  0
    9.1629  -15.6438   27.4150 O   0  0  0  0  0  0  0  0  0  0  0  0
    9.1599  -21.4697   26.1014 N   0  0  0  0  0  0  0  0  0  0  0  0
    9.9547  -20.5670   25.3480 C   0  0  0  0  0  0  0  0  0  0  0  0
   11.1190  -20.9121   25.0465 O   0  0  0  0  0  0  0  0  0  0  0  0
    9.4343  -19.2637   24.9330 C   0  0  0  0  0  0  0  0  0  0  0  0
    9.6659  -18.1342   25.8864 C   0  0  2  0  0  0  0  0  0  0  0  0
    9.1471  -16.8846   25.4874 N   0  0  0  0  0  0  0  0  0  0  0  0
   11.0377  -18.2404   26.3816 C   0  0  0  0  0  0  0  0  0  0  0  0
   11.5148  -19.1936   26.9919 O   0  0  0  0  0  0  0  0  0  0  0  0
   11.8729  -17.1350   26.1265 O   0  0  0  0  0  0  0  0  0  0  0  0
  2  3  1  0
  2  1  1  6
  4  8  1  0
  4  3  1  0
  5  4  2  0
  6  5  1  0
  6  7  1  0
  7  8  2  0
  9  2  1  0
 10  9  2  0
 12 11  1  1
 12 14  1  0
 13 12  1  0
 15 14  1  1
 15 16  1  0
 16  9  1  0
 17 15  1  0
 17 18  2  0
 20 22  1  0
 20 19  1  0
 21 20  2  0
 23 22  1  6
 23 24  1  0
 24 17  1  0
 25 23  1  0
 26 25  2  0
 27 25  1  0
M  END
$$$$
