HLN.pdb
     RDKit          3D

 27 27  0  0  1  0  0  0  0  0999 V2000
    9.6265  -15.7237   21.4094 N   0  0  0  0  0  0  0  0  0  0  0  0
    8.4960  -15.5460   22.2774 C   0  0  1  0  0  0  0  0  0  0  0  0
    7.6400  -16.7885   22.3963 C   0  0  0  0  0  0  0  0  0  0  0  0
    7.0571  -17.1843   21.1080 C   0  0  0  0  0  0  0  0  0  0  0  0
    7.2621  -16.6632   19.8434 C   0  0  0  0  0  0  0  0  0  0  0  0
    6.5288  -17.3301   18.9471 N   0  0  0  0  0  0  0  0  0  0  0  0
    5.8441  -18.2844   19.6267 C   0  0  0  0  0  0  0  0  0  0  0  0
    6.1790  -18.1804   20.9448 N   0  0  0  0  0  0  0  0  0  0  0  0
    8.9576  -15.0799   23.6239 C   0  0  0  0  0  0  0  0  0  0  0  0
   10.1461  -15.3197   23.9009 O   0  0  0  0  0  0  0  0  0  0  0  0
    7.4337  -11.1418   24.7002 C   0  0  0  0  0  0  0  0  0  0  0  0
    6.6594  -12.2732   25.3846 C   0  0  2  0  0  0  0  0  0  0  0  0
    5.4906  -11.5915   26.0902 C   0  0  0  0  0  0  0  0  0  0  0  0
    7.5090  -12.9406   26.4414 C   0  0  0  0  0  0  0  0  0  0  0  0
    8.3607  -14.0299   25.8673 C   0  0  2  0  0  0  0  0  0  0  0  0
    8.1033  -14.4123   24.5170 N   0  0  0  0  0  0  0  0  0  0  0  0
    8.5911  -15.2027   26.7361 C   0  0  0  0  0  0  0  0  0  0  0  0
    8.9603  -14.9790   27.9465 O   0  0  0  0  0  0  0  0  0  0  0  0
    6.8335  -20.8037   27.7214 N   0  0  0  0  0  0  0  0  0  0  0  0
    7.9663  -20.1886   27.1278 C   0  0  0  0  0  0  0  0  0  0  0  0
    9.0742  -20.7608   27.2322 O   0  0  0  0  0  0  0  0  0  0  0  0
    7.8506  -18.9170   26.4127 C   0  0  0  0  0  0  0  0  0  0  0  0
    8.6052  -17.7664   27.0000 C   0  0  2  0  0  0  0  0  0  0  0  0
    8.4406  -16.5302   26.3407 N   0  0  0  0  0  0  0  0  0  0  0  0
    9.9417  -18.2419   27.3550 C   0  0  0  0  0  0  0  0  0  0  0  0
   10.8884  -18.3811   26.5849 O   0  0  0  0  0  0  0  0  0  0  0  0
   10.1405  -18.5675   28.7111 O   0  0  0  0  0  0  0  0  0  0  0  0
  2  3  1  0
  2  1  1  6
  4  8  1  0
  4  3  1  0
  5  4  2  0
  6  5  1  0
  6  7  1  0
  7  8  2  0
  9  2  1  0
 10  9  2  0
 12 11  1  1
 12 14  1  0
 13 12  1  0
 15 14  1  1
 15 16  1  0
 16  9  1  0
 17 15  1  0
 17 18  2  0
 20 22  1  0
 20 19  1  0
 21 20  2  0
 23 22  1  6
 23 24  1  0
 24 17  1  0
 25 23  1  0
 26 25  2  0
 27 25  1  0
M  END
$$$$
