HLN.pdb
     RDKit          3D

 27 27  0  0  1  0  0  0  0  0999 V2000
    7.5604  -16.8044   21.0835 N   0  0  0  0  0  0  0  0  0  0  0  0
    8.6185  -15.8433   20.9430 C   0  0  1  0  0  0  0  0  0  0  0  0
    8.3691  -14.8469   19.8314 C   0  0  0  0  0  0  0  0  0  0  0  0
    8.2146  -15.5013   18.5260 C   0  0  0  0  0  0  0  0  0  0  0  0
    9.0908  -16.3156   17.8320 C   0  0  0  0  0  0  0  0  0  0  0  0
    8.5424  -16.7012   16.6759 N   0  0  0  0  0  0  0  0  0  0  0  0
    7.3098  -16.1371   16.6147 C   0  0  0  0  0  0  0  0  0  0  0  0
    7.1267  -15.4078   17.7527 N   0  0  0  0  0  0  0  0  0  0  0  0
    8.8484  -15.1462   22.2485 C   0  0  0  0  0  0  0  0  0  0  0  0
    9.8773  -14.4509   22.3164 O   0  0  0  0  0  0  0  0  0  0  0  0
    8.0557  -13.6382   27.4253 C   0  0  0  0  0  0  0  0  0  0  0  0
    7.5100  -12.8958   26.2011 C   0  0  2  0  0  0  0  0  0  0  0  0
    6.3112  -12.1021   26.7130 C   0  0  0  0  0  0  0  0  0  0  0  0
    7.0062  -13.8722   25.1634 C   0  0  0  0  0  0  0  0  0  0  0  0
    8.0997  -14.7583   24.6529 C   0  0  2  0  0  0  0  0  0  0  0  0
    7.9576  -15.2679   23.3278 N   0  0  0  0  0  0  0  0  0  0  0  0
    8.5918  -15.7906   25.5887 C   0  0  0  0  0  0  0  0  0  0  0  0
    7.9365  -15.9595   26.6812 O   0  0  0  0  0  0  0  0  0  0  0  0
   11.3359  -18.5881   22.8319 N   0  0  0  0  0  0  0  0  0  0  0  0
   11.7351  -18.0952   24.1015 C   0  0  0  0  0  0  0  0  0  0  0  0
   12.6235  -17.2150   24.1429 O   0  0  0  0  0  0  0  0  0  0  0  0
   11.1304  -18.6001   25.3348 C   0  0  0  0  0  0  0  0  0  0  0  0
   10.3369  -17.6092   26.1264 C   0  0  2  0  0  0  0  0  0  0  0  0
    9.7124  -16.5908   25.3762 N   0  0  0  0  0  0  0  0  0  0  0  0
   11.1038  -17.2779   27.3266 C   0  0  0  0  0  0  0  0  0  0  0  0
   12.3272  -17.3033   27.4334 O   0  0  0  0  0  0  0  0  0  0  0  0
   10.3503  -16.8992   28.4551 O   0  0  0  0  0  0  0  0  0  0  0  0
  2  3  1  0
  2  1  1  1
  4  8  1  0
  4  3  1  0
  5  4  2  0
  6  5  1  0
  6  7  1  0
  7  8  2  0
  9  2  1  0
 10  9  2  0
 12 11  1  1
 12 14  1  0
 13 12  1  0
 15 14  1  1
 15 16  1  0
 16  9  1  0
 17 15  1  0
 17 18  2  0
 20 22  1  0
 20 19  1  0
 21 20  2  0
 23 22  1  6
 23 24  1  0
 24 17  1  0
 25 23  1  0
 26 25  2  0
 27 25  1  0
M  END
$$$$
