HLN.pdb
     RDKit          3D

 27 27  0  0  1  0  0  0  0  0999 V2000
    8.6876  -16.1394   20.5384 N   0  0  0  0  0  0  0  0  0  0  0  0
    7.8801  -16.3795   21.7017 C   0  0  1  0  0  0  0  0  0  0  0  0
    7.9190  -17.8209   22.1619 C   0  0  0  0  0  0  0  0  0  0  0  0
    7.4313  -18.7446   21.1299 C   0  0  0  0  0  0  0  0  0  0  0  0
    6.3847  -18.6051   20.2366 C   0  0  0  0  0  0  0  0  0  0  0  0
    6.2913  -19.6920   19.4647 N   0  0  0  0  0  0  0  0  0  0  0  0
    7.2749  -20.5411   19.8555 C   0  0  0  0  0  0  0  0  0  0  0  0
    7.9609  -19.9462   20.8734 N   0  0  0  0  0  0  0  0  0  0  0  0
    8.2888  -15.4517   22.8042 C   0  0  0  0  0  0  0  0  0  0  0  0
    9.4880  -15.1228   22.8174 O   0  0  0  0  0  0  0  0  0  0  0  0
    5.6643  -11.7639   27.1764 C   0  0  0  0  0  0  0  0  0  0  0  0
    6.8916  -12.3723   26.4897 C   0  0  2  0  0  0  0  0  0  0  0  0
    7.6212  -11.1938   25.8514 C   0  0  0  0  0  0  0  0  0  0  0  0
    6.4744  -13.3105   25.3807 C   0  0  0  0  0  0  0  0  0  0  0  0
    7.6250  -14.1242   24.8752 C   0  0  2  0  0  0  0  0  0  0  0  0
    7.3753  -14.9807   23.7617 N   0  0  0  0  0  0  0  0  0  0  0  0
    8.4555  -14.7865   25.9024 C   0  0  0  0  0  0  0  0  0  0  0  0
    8.5108  -14.2371   27.0629 O   0  0  0  0  0  0  0  0  0  0  0  0
    7.8084  -18.7318   25.3485 N   0  0  0  0  0  0  0  0  0  0  0  0
    7.7315  -18.5293   26.7511 C   0  0  0  0  0  0  0  0  0  0  0  0
    6.8512  -19.1462   27.3915 O   0  0  0  0  0  0  0  0  0  0  0  0
    8.6524  -17.6224   27.4375 C   0  0  0  0  0  0  0  0  0  0  0  0
    9.6759  -16.9546   26.5745 C   0  0  2  0  0  0  0  0  0  0  0  0
    9.1833  -15.9581   25.7060 N   0  0  0  0  0  0  0  0  0  0  0  0
   10.5831  -17.9871   26.0752 C   0  0  0  0  0  0  0  0  0  0  0  0
   11.1550  -18.8370   26.7528 O   0  0  0  0  0  0  0  0  0  0  0  0
   10.8108  -17.9882   24.6849 O   0  0  0  0  0  0  0  0  0  0  0  0
  2  3  1  0
  2  1  1  6
  4  8  1  0
  4  3  1  0
  5  4  2  0
  6  5  1  0
  6  7  1  0
  7  8  2  0
  9  2  1  0
 10  9  2  0
 12 11  1  6
 12 14  1  0
 13 12  1  0
 15 14  1  1
 15 16  1  0
 16  9  1  0
 17 15  1  0
 17 18  2  0
 20 22  1  0
 20 19  1  0
 21 20  2  0
 23 22  1  6
 23 24  1  0
 24 17  1  0
 25 23  1  0
 26 25  2  0
 27 25  1  0
M  END
$$$$
