HLN.pdb
     RDKit          3D

 27 27  0  0  1  0  0  0  0  0999 V2000
    9.9865  -17.6118   15.5454 N   0  0  0  0  0  0  0  0  0  0  0  0
   10.8142  -17.7776   16.7075 C   0  0  1  0  0  0  0  0  0  0  0  0
   12.2494  -18.1176   16.3682 C   0  0  0  0  0  0  0  0  0  0  0  0
   12.3439  -19.0780   15.2615 C   0  0  0  0  0  0  0  0  0  0  0  0
   12.1741  -20.4505   15.2603 C   0  0  0  0  0  0  0  0  0  0  0  0
   12.3470  -20.9340   14.0266 N   0  0  0  0  0  0  0  0  0  0  0  0
   12.6315  -19.8779   13.2235 C   0  0  0  0  0  0  0  0  0  0  0  0
   12.6256  -18.7528   13.9946 N   0  0  0  0  0  0  0  0  0  0  0  0
   10.7399  -16.5507   17.5634 C   0  0  0  0  0  0  0  0  0  0  0  0
   11.8003  -15.9130   17.6874 O   0  0  0  0  0  0  0  0  0  0  0  0
    6.4815  -13.2549   20.8477 C   0  0  0  0  0  0  0  0  0  0  0  0
    7.9153  -13.4773   20.3551 C   0  0  2  0  0  0  0  0  0  0  0  0
    8.2948  -12.1909   19.6269 C   0  0  0  0  0  0  0  0  0  0  0  0
    7.9678  -14.6065   19.3520 C   0  0  0  0  0  0  0  0  0  0  0  0
    9.3629  -15.1121   19.1528 C   0  0  2  0  0  0  0  0  0  0  0  0
    9.5477  -16.1443   18.1852 N   0  0  0  0  0  0  0  0  0  0  0  0
   10.1462  -15.3631   20.3803 C   0  0  0  0  0  0  0  0  0  0  0  0
   10.2437  -14.4012   21.2269 O   0  0  0  0  0  0  0  0  0  0  0  0
   13.1203  -17.8705   24.0075 N   0  0  0  0  0  0  0  0  0  0  0  0
   13.7072  -17.8209   22.7163 C   0  0  0  0  0  0  0  0  0  0  0  0
   14.8978  -18.1853   22.5922 O   0  0  0  0  0  0  0  0  0  0  0  0
   12.9474  -17.3543   21.5559 C   0  0  0  0  0  0  0  0  0  0  0  0
   11.5112  -17.0192   21.8073 C   0  0  2  0  0  0  0  0  0  0  0  0
   10.7875  -16.5616   20.6861 N   0  0  0  0  0  0  0  0  0  0  0  0
   11.4349  -16.3014   23.0790 C   0  0  0  0  0  0  0  0  0  0  0  0
   10.7726  -15.2910   23.3008 O   0  0  0  0  0  0  0  0  0  0  0  0
   12.2016  -16.8331   24.1344 O   0  0  0  0  0  0  0  0  0  0  0  0
  2  3  1  0
  2  1  1  6
  4  8  1  0
  4  3  1  0
  5  4  2  0
  6  5  1  0
  6  7  1  0
  7  8  2  0
  9  2  1  0
 10  9  2  0
 12 11  1  6
 12 14  1  0
 13 12  1  0
 15 14  1  1
 15 16  1  0
 16  9  1  0
 17 15  1  0
 17 18  2  0
 20 22  1  0
 20 19  1  0
 21 20  2  0
 23 22  1  6
 23 24  1  0
 24 17  1  0
 25 23  1  0
 26 25  2  0
 27 25  1  0
M  END
$$$$
