NED.pdb
     RDKit          3D

 26 25  0  0  1  0  0  0  0  0999 V2000
   14.2997  -10.9597  -17.0277 N   0  0  0  0  0  0  0  0  0  0  0  0
   14.2733   -9.6191  -16.5147 C   0  0  0  0  0  0  0  0  0  0  0  0
   13.2942   -8.9300  -16.8336 O   0  0  0  0  0  0  0  0  0  0  0  0
   15.3449   -9.1112  -15.6674 C   0  0  0  0  0  0  0  0  0  0  0  0
   16.4176  -10.0980  -15.3491 C   0  0  2  0  0  0  0  0  0  0  0  0
   15.9087  -11.0057  -14.2917 N   0  0  0  0  0  0  0  0  0  0  0  0
   17.6630   -9.4669  -14.8119 C   0  0  0  0  0  0  0  0  0  0  0  0
   17.7025   -8.8958  -13.7127 O   0  0  0  0  0  0  0  0  0  0  0  0
   18.8623   -9.5174  -15.5853 N   0  0  0  0  0  0  0  0  0  0  0  0
   20.0719   -8.9013  -15.0872 C   0  0  1  0  0  0  0  0  0  0  0  0
   21.2939   -9.5485  -15.6677 C   0  0  0  0  0  0  0  0  0  0  0  0
   22.5941   -9.0632  -15.1297 C   0  0  0  0  0  0  0  0  0  0  0  0
   23.7369   -9.7753  -15.7172 C   0  0  0  0  0  0  0  0  0  0  0  0
   24.0938   -9.6386  -16.8940 O   0  0  0  0  0  0  0  0  0  0  0  0
   20.1045   -7.4701  -15.5709 C   0  0  0  0  0  0  0  0  0  0  0  0
   19.7073   -7.1494  -16.7183 O   0  0  0  0  0  0  0  0  0  0  0  0
   24.4573  -10.6517  -14.9067 O   0  0  0  0  0  0  0  0  0  0  0  0
   20.5931   -6.4373  -14.7288 N   0  0  0  0  0  0  0  0  0  0  0  0
   20.6283   -5.0461  -15.2628 C   0  0  1  0  0  0  0  0  0  0  0  0
   19.3444   -4.3635  -14.8759 C   0  0  0  0  0  0  0  0  0  0  0  0
   19.3381   -2.9569  -15.2778 C   0  0  0  0  0  0  0  0  0  0  0  0
   20.2563   -2.1636  -15.0484 O   0  0  0  0  0  0  0  0  0  0  0  0
   21.7733   -4.3599  -14.5815 C   0  0  0  0  0  0  0  0  0  0  0  0
   22.4687   -5.0703  -13.5951 O   0  0  0  0  0  0  0  0  0  0  0  0
   18.2244   -2.4455  -15.9731 O   0  0  0  0  0  0  0  0  0  0  0  0
   22.1081   -3.2009  -14.8690 O   0  0  0  0  0  0  0  0  0  0  0  0
  1  2  1  0
  2  3  2  0
  4  2  1  0
  5  4  1  0
  5  6  1  1
  7  8  2  0
  7  5  1  0
  9  7  1  0
 10 11  1  6
 10  9  1  0
 11 12  1  0
 13 12  1  0
 13 17  1  0
 14 13  2  0
 15 10  1  0
 16 15  2  0
 18 15  1  0
 19 20  1  1
 19 18  1  0
 20 21  1  0
 21 25  1  0
 21 22  2  0
 23 24  1  0
 23 19  1  0
 26 23  2  0
M  END
$$$$
