NED.pdb
     RDKit          3D

 26 25  0  0  1  0  0  0  0  0999 V2000
   13.2576  -14.4583  -15.9273 N   0  0  0  0  0  0  0  0  0  0  0  0
   14.2244  -13.9936  -14.9732 C   0  0  0  0  0  0  0  0  0  0  0  0
   14.9580  -14.8573  -14.4722 O   0  0  0  0  0  0  0  0  0  0  0  0
   14.3258  -12.5822  -14.6238 C   0  0  0  0  0  0  0  0  0  0  0  0
   15.7159  -12.0840  -14.4122 C   0  0  2  0  0  0  0  0  0  0  0  0
   16.3347  -12.8916  -13.3325 N   0  0  0  0  0  0  0  0  0  0  0  0
   15.7727  -10.6565  -13.9683 C   0  0  0  0  0  0  0  0  0  0  0  0
   15.2866   -9.7300  -14.6325 O   0  0  0  0  0  0  0  0  0  0  0  0
   16.4088  -10.3336  -12.7313 N   0  0  0  0  0  0  0  0  0  0  0  0
   16.5039   -8.9555  -12.3038 C   0  0  1  0  0  0  0  0  0  0  0  0
   16.2550   -8.8218  -10.8310 C   0  0  0  0  0  0  0  0  0  0  0  0
   16.3138   -7.4350  -10.2935 C   0  0  0  0  0  0  0  0  0  0  0  0
   15.9298   -7.3735   -8.8768 C   0  0  0  0  0  0  0  0  0  0  0  0
   15.8709   -8.3675   -8.1424 O   0  0  0  0  0  0  0  0  0  0  0  0
   17.9270   -8.4940  -12.5164 C   0  0  0  0  0  0  0  0  0  0  0  0
   18.9096   -9.2009  -12.1820 O   0  0  0  0  0  0  0  0  0  0  0  0
   15.6146   -6.1299   -8.3307 O   0  0  0  0  0  0  0  0  0  0  0  0
   18.1928   -7.2312  -13.1071 N   0  0  0  0  0  0  0  0  0  0  0  0
   19.6040   -6.8916  -13.4461 C   0  0  1  0  0  0  0  0  0  0  0  0
   20.1200   -7.9338  -14.4009 C   0  0  0  0  0  0  0  0  0  0  0  0
   21.4547   -7.5983  -14.8972 C   0  0  0  0  0  0  0  0  0  0  0  0
   21.6870   -7.1634  -16.0294 O   0  0  0  0  0  0  0  0  0  0  0  0
   19.5648   -5.5650  -14.1425 C   0  0  0  0  0  0  0  0  0  0  0  0
   20.7121   -4.7638  -14.0893 O   0  0  0  0  0  0  0  0  0  0  0  0
   22.5670   -7.7731  -14.0502 O   0  0  0  0  0  0  0  0  0  0  0  0
   18.5576   -5.1734  -14.7509 O   0  0  0  0  0  0  0  0  0  0  0  0
  1  2  1  0
  2  3  2  0
  4  2  1  0
  5  4  1  0
  5  6  1  1
  7  8  2  0
  7  5  1  0
  9  7  1  0
 10 11  1  1
 10  9  1  0
 11 12  1  0
 13 12  1  0
 13 17  1  0
 14 13  2  0
 15 10  1  0
 16 15  2  0
 18 15  1  0
 19 20  1  6
 19 18  1  0
 20 21  1  0
 21 25  1  0
 21 22  2  0
 23 24  1  0
 23 19  1  0
 26 23  2  0
M  END
$$$$
