NED.pdb
     RDKit          3D

 26 25  0  0  1  0  0  0  0  0999 V2000
   28.4227  -20.6542  -17.8603 N   0  0  0  0  0  0  0  0  0  0  0  0
   27.6731  -19.5214  -17.3957 C   0  0  0  0  0  0  0  0  0  0  0  0
   27.5404  -18.5864  -18.1978 O   0  0  0  0  0  0  0  0  0  0  0  0
   27.1059  -19.4875  -16.0535 C   0  0  0  0  0  0  0  0  0  0  0  0
   27.3841  -20.6941  -15.2214 C   0  0  2  0  0  0  0  0  0  0  0  0
   27.9538  -21.7408  -16.1050 N   0  0  0  0  0  0  0  0  0  0  0  0
   26.1571  -21.2791  -14.5970 C   0  0  0  0  0  0  0  0  0  0  0  0
   25.5214  -22.2084  -15.1150 O   0  0  0  0  0  0  0  0  0  0  0  0
   25.6880  -20.7565  -13.3536 N   0  0  0  0  0  0  0  0  0  0  0  0
   24.5152  -21.3233  -12.7259 C   0  0  1  0  0  0  0  0  0  0  0  0
   24.4964  -21.0466  -11.2521 C   0  0  0  0  0  0  0  0  0  0  0  0
   25.7082  -21.4772  -10.5027 C   0  0  0  0  0  0  0  0  0  0  0  0
   25.6426  -21.1052   -9.0830 C   0  0  0  0  0  0  0  0  0  0  0  0
   26.6284  -21.0913   -8.3354 O   0  0  0  0  0  0  0  0  0  0  0  0
   23.2980  -20.6230  -13.2839 C   0  0  0  0  0  0  0  0  0  0  0  0
   23.3191  -19.4073  -13.5981 O   0  0  0  0  0  0  0  0  0  0  0  0
   24.4046  -20.7497   -8.5493 O   0  0  0  0  0  0  0  0  0  0  0  0
   22.0822  -21.3316  -13.4685 N   0  0  0  0  0  0  0  0  0  0  0  0
   20.9127  -20.5963  -14.0284 C   0  0  1  0  0  0  0  0  0  0  0  0
   20.7784  -20.9666  -15.4807 C   0  0  0  0  0  0  0  0  0  0  0  0
   19.6510  -20.2799  -16.1112 C   0  0  0  0  0  0  0  0  0  0  0  0
   18.9249  -19.4625  -15.5370 O   0  0  0  0  0  0  0  0  0  0  0  0
   19.7081  -21.0869  -13.2839 C   0  0  0  0  0  0  0  0  0  0  0  0
   18.6196  -20.2155  -13.1534 O   0  0  0  0  0  0  0  0  0  0  0  0
   19.3497  -20.5495  -17.4609 O   0  0  0  0  0  0  0  0  0  0  0  0
   19.6592  -22.2246  -12.7926 O   0  0  0  0  0  0  0  0  0  0  0  0
  1  2  1  0
  2  3  2  0
  4  2  1  0
  5  4  1  0
  5  6  1  6
  7  8  2  0
  7  5  1  0
  9  7  1  0
 10 11  1  1
 10  9  1  0
 11 12  1  0
 13 12  1  0
 13 17  1  0
 14 13  2  0
 15 10  1  0
 16 15  2  0
 18 15  1  0
 19 20  1  6
 19 18  1  0
 20 21  1  0
 21 25  1  0
 21 22  2  0
 23 24  1  0
 23 19  1  0
 26 23  2  0
M  END
$$$$
