NED.pdb
     RDKit          3D

 26 25  0  0  1  0  0  0  0  0999 V2000
   19.0776  -14.6242  -15.1462 N   0  0  0  0  0  0  0  0  0  0  0  0
   19.2752  -14.3429  -16.5401 C   0  0  0  0  0  0  0  0  0  0  0  0
   19.4786  -15.3213  -17.2726 O   0  0  0  0  0  0  0  0  0  0  0  0
   19.2359  -12.9782  -17.0502 C   0  0  0  0  0  0  0  0  0  0  0  0
   18.9927  -11.9273  -16.0197 C   0  0  2  0  0  0  0  0  0  0  0  0
   17.6201  -12.1129  -15.4882 N   0  0  0  0  0  0  0  0  0  0  0  0
   19.0585  -10.5359  -16.5652 C   0  0  0  0  0  0  0  0  0  0  0  0
   20.0357  -10.1114  -17.1982 O   0  0  0  0  0  0  0  0  0  0  0  0
   17.9580   -9.6501  -16.3565 N   0  0  0  0  0  0  0  0  0  0  0  0
   17.9820   -8.3194  -16.9215 C   0  0  1  0  0  0  0  0  0  0  0  0
   16.5947   -7.7935  -17.1407 C   0  0  0  0  0  0  0  0  0  0  0  0
   15.8708   -8.3608  -18.3110 C   0  0  0  0  0  0  0  0  0  0  0  0
   14.4869   -7.8749  -18.3946 C   0  0  0  0  0  0  0  0  0  0  0  0
   14.0381   -7.2589  -19.3693 O   0  0  0  0  0  0  0  0  0  0  0  0
   18.6111   -7.3899  -15.9098 C   0  0  0  0  0  0  0  0  0  0  0  0
   18.3605   -7.4792  -14.6825 O   0  0  0  0  0  0  0  0  0  0  0  0
   13.6340   -8.1203  -17.3193 O   0  0  0  0  0  0  0  0  0  0  0  0
   19.5135   -6.3770  -16.3273 N   0  0  0  0  0  0  0  0  0  0  0  0
   20.1657   -5.5363  -15.2835 C   0  0  1  0  0  0  0  0  0  0  0  0
   21.2250   -6.3652  -14.6091 C   0  0  0  0  0  0  0  0  0  0  0  0
   21.9526   -5.5951  -13.6003 C   0  0  0  0  0  0  0  0  0  0  0  0
   21.7030   -4.4218  -13.3069 O   0  0  0  0  0  0  0  0  0  0  0  0
   20.8199   -4.3972  -16.0051 C   0  0  0  0  0  0  0  0  0  0  0  0
   21.1116   -3.2397  -15.2727 O   0  0  0  0  0  0  0  0  0  0  0  0
   23.0131   -6.2059  -12.9020 O   0  0  0  0  0  0  0  0  0  0  0  0
   21.1009   -4.4599  -17.2114 O   0  0  0  0  0  0  0  0  0  0  0  0
  1  2  1  0
  2  3  2  0
  4  2  1  0
  5  4  1  0
  5  6  1  6
  7  8  2  0
  7  5  1  0
  9  7  1  0
 10 11  1  1
 10  9  1  0
 11 12  1  0
 13 12  1  0
 13 17  1  0
 14 13  2  0
 15 10  1  0
 16 15  2  0
 18 15  1  0
 19 20  1  6
 19 18  1  0
 20 21  1  0
 21 25  1  0
 21 22  2  0
 23 24  1  0
 23 19  1  0
 26 23  2  0
M  END
$$$$
