NED.pdb
     RDKit          3D

 26 25  0  0  1  0  0  0  0  0999 V2000
   29.0073  -21.4418  -10.0171 N   0  0  0  0  0  0  0  0  0  0  0  0
   27.8211  -20.7088   -9.6754 C   0  0  0  0  0  0  0  0  0  0  0  0
   27.7378  -20.3179   -8.5026 O   0  0  0  0  0  0  0  0  0  0  0  0
   26.7819  -20.4467  -10.6633 C   0  0  0  0  0  0  0  0  0  0  0  0
   26.9840  -21.1138  -11.9822 C   0  0  2  0  0  0  0  0  0  0  0  0
   28.2551  -20.6134  -12.5610 N   0  0  0  0  0  0  0  0  0  0  0  0
   25.9081  -20.8038  -12.9742 C   0  0  0  0  0  0  0  0  0  0  0  0
   26.0026  -19.8815  -13.7967 O   0  0  0  0  0  0  0  0  0  0  0  0
   24.7190  -21.5944  -12.9862 N   0  0  0  0  0  0  0  0  0  0  0  0
   23.6938  -21.3457  -13.9751 C   0  0  1  0  0  0  0  0  0  0  0  0
   23.4911  -22.5366  -14.8637 C   0  0  0  0  0  0  0  0  0  0  0  0
   23.9813  -23.8330  -14.3211 C   0  0  0  0  0  0  0  0  0  0  0  0
   23.7731  -24.9416  -15.2624 C   0  0  0  0  0  0  0  0  0  0  0  0
   23.2344  -24.8054  -16.3679 O   0  0  0  0  0  0  0  0  0  0  0  0
   22.3805  -21.1524  -13.2530 C   0  0  0  0  0  0  0  0  0  0  0  0
   22.3324  -20.8016  -12.0482 O   0  0  0  0  0  0  0  0  0  0  0  0
   24.2046  -26.2142  -14.8909 O   0  0  0  0  0  0  0  0  0  0  0  0
   21.1504  -21.3668  -13.9278 N   0  0  0  0  0  0  0  0  0  0  0  0
   19.9978  -20.4820  -13.5958 C   0  0  1  0  0  0  0  0  0  0  0  0
   20.3082  -19.0991  -14.1012 C   0  0  0  0  0  0  0  0  0  0  0  0
   19.2524  -18.1477  -13.7545 C   0  0  0  0  0  0  0  0  0  0  0  0
   18.3074  -18.4010  -13.0010 O   0  0  0  0  0  0  0  0  0  0  0  0
   18.8182  -21.0244  -14.3446 C   0  0  0  0  0  0  0  0  0  0  0  0
   19.0567  -21.6617  -15.5686 O   0  0  0  0  0  0  0  0  0  0  0  0
   19.2898  -16.8498  -14.3018 O   0  0  0  0  0  0  0  0  0  0  0  0
   17.6614  -20.9214  -13.9095 O   0  0  0  0  0  0  0  0  0  0  0  0
  1  2  1  0
  2  3  2  0
  4  2  1  0
  5  4  1  0
  5  6  1  6
  7  8  2  0
  7  5  1  0
  9  7  1  0
 10 11  1  6
 10  9  1  0
 11 12  1  0
 13 12  1  0
 13 17  1  0
 14 13  2  0
 15 10  1  0
 16 15  2  0
 18 15  1  0
 19 20  1  6
 19 18  1  0
 20 21  1  0
 21 25  1  0
 21 22  2  0
 23 24  1  0
 23 19  1  0
 26 23  2  0
M  END
$$$$
