NED.pdb
     RDKit          3D

 26 25  0  0  1  0  0  0  0  0999 V2000
   21.9679  -15.8339  -17.8069 N   0  0  0  0  0  0  0  0  0  0  0  0
   21.0235  -15.3891  -18.7925 C   0  0  0  0  0  0  0  0  0  0  0  0
   20.5930  -16.2542  -19.5679 O   0  0  0  0  0  0  0  0  0  0  0  0
   20.6040  -13.9951  -18.8645 C   0  0  0  0  0  0  0  0  0  0  0  0
   21.1700  -13.1114  -17.8041 C   0  0  2  0  0  0  0  0  0  0  0  0
   20.4959  -13.4394  -16.5238 N   0  0  0  0  0  0  0  0  0  0  0  0
   20.9313  -11.6562  -18.0557 C   0  0  0  0  0  0  0  0  0  0  0  0
   21.3628  -11.0717  -19.0597 O   0  0  0  0  0  0  0  0  0  0  0  0
   20.1769  -10.8975  -17.1099 N   0  0  0  0  0  0  0  0  0  0  0  0
   19.9019   -9.4996  -17.3571 C   0  0  1  0  0  0  0  0  0  0  0  0
   18.4280   -9.2224  -17.3465 C   0  0  0  0  0  0  0  0  0  0  0  0
   17.7052   -9.6409  -16.1145 C   0  0  0  0  0  0  0  0  0  0  0  0
   16.2851   -9.2664  -16.1516 C   0  0  0  0  0  0  0  0  0  0  0  0
   15.8213   -8.2902  -15.5493 O   0  0  0  0  0  0  0  0  0  0  0  0
   20.4718   -8.6979  -16.2101 C   0  0  0  0  0  0  0  0  0  0  0  0
   20.7109   -9.2184  -15.0924 O   0  0  0  0  0  0  0  0  0  0  0  0
   15.4136  -10.0522  -16.9045 O   0  0  0  0  0  0  0  0  0  0  0  0
   20.7545   -7.3162  -16.3689 N   0  0  0  0  0  0  0  0  0  0  0  0
   21.4165   -6.5956  -15.2444 C   0  0  1  0  0  0  0  0  0  0  0  0
   21.7797   -5.2156  -15.7219 C   0  0  0  0  0  0  0  0  0  0  0  0
   22.3901   -4.4190  -14.6575 C   0  0  0  0  0  0  0  0  0  0  0  0
   22.9411   -4.8957  -13.6604 O   0  0  0  0  0  0  0  0  0  0  0  0
   20.3950   -6.4839  -14.1534 C   0  0  0  0  0  0  0  0  0  0  0  0
   20.8467   -6.5164  -12.8282 O   0  0  0  0  0  0  0  0  0  0  0  0
   22.3620   -3.0133  -14.7487 O   0  0  0  0  0  0  0  0  0  0  0  0
   19.1848   -6.3660  -14.3976 O   0  0  0  0  0  0  0  0  0  0  0  0
  1  2  1  0
  2  3  2  0
  4  2  1  0
  5  4  1  0
  5  6  1  1
  7  8  2  0
  7  5  1  0
  9  7  1  0
 10 11  1  1
 10  9  1  0
 11 12  1  0
 13 12  1  0
 13 17  1  0
 14 13  2  0
 15 10  1  0
 16 15  2  0
 18 15  1  0
 19 20  1  6
 19 18  1  0
 20 21  1  0
 21 25  1  0
 21 22  2  0
 23 24  1  0
 23 19  1  0
 26 23  2  0
M  END
$$$$
