NED.pdb
     RDKit          3D

 26 25  0  0  1  0  0  0  0  0999 V2000
   12.2484  -12.4195  -10.0038 N   0  0  0  0  0  0  0  0  0  0  0  0
   13.0343  -11.9561  -11.1123 C   0  0  0  0  0  0  0  0  0  0  0  0
   13.3526  -12.8093  -11.9524 O   0  0  0  0  0  0  0  0  0  0  0  0
   13.4278  -10.5576  -11.2295 C   0  0  0  0  0  0  0  0  0  0  0  0
   14.8580  -10.2769  -10.9115 C   0  0  2  0  0  0  0  0  0  0  0  0
   15.0924  -10.6350   -9.4910 N   0  0  0  0  0  0  0  0  0  0  0  0
   15.2256   -8.8342  -11.0578 C   0  0  0  0  0  0  0  0  0  0  0  0
   15.1298   -8.2256  -12.1332 O   0  0  0  0  0  0  0  0  0  0  0  0
   15.7070   -8.1164   -9.9211 N   0  0  0  0  0  0  0  0  0  0  0  0
   15.9128   -6.6874  -10.0008 C   0  0  1  0  0  0  0  0  0  0  0  0
   15.5005   -6.0041   -8.7310 C   0  0  0  0  0  0  0  0  0  0  0  0
   14.0399   -5.7626   -8.5772 C   0  0  0  0  0  0  0  0  0  0  0  0
   13.7183   -5.1066   -7.3026 C   0  0  0  0  0  0  0  0  0  0  0  0
   14.5758   -4.7300   -6.4941 O   0  0  0  0  0  0  0  0  0  0  0  0
   17.3963   -6.4323  -10.1334 C   0  0  0  0  0  0  0  0  0  0  0  0
   18.2242   -6.8953   -9.3103 O   0  0  0  0  0  0  0  0  0  0  0  0
   12.3765   -4.8974   -6.9869 O   0  0  0  0  0  0  0  0  0  0  0  0
   17.8986   -5.6508  -11.2064 N   0  0  0  0  0  0  0  0  0  0  0  0
   19.3680   -5.6538  -11.4565 C   0  0  1  0  0  0  0  0  0  0  0  0
   19.7877   -7.0655  -11.7647 C   0  0  0  0  0  0  0  0  0  0  0  0
   21.1852   -7.1325  -12.1918 C   0  0  0  0  0  0  0  0  0  0  0  0
   21.9605   -6.1713  -12.1892 O   0  0  0  0  0  0  0  0  0  0  0  0
   19.5931   -4.7999  -12.6675 C   0  0  0  0  0  0  0  0  0  0  0  0
   20.8572   -4.2207  -12.8341 O   0  0  0  0  0  0  0  0  0  0  0  0
   21.7086   -8.3612  -12.6410 O   0  0  0  0  0  0  0  0  0  0  0  0
   18.7004   -4.6016  -13.5052 O   0  0  0  0  0  0  0  0  0  0  0  0
  1  2  1  0
  2  3  2  0
  4  2  1  0
  5  4  1  0
  5  6  1  1
  7  8  2  0
  7  5  1  0
  9  7  1  0
 10 11  1  1
 10  9  1  0
 11 12  1  0
 13 12  1  0
 13 17  1  0
 14 13  2  0
 15 10  1  0
 16 15  2  0
 18 15  1  0
 19 20  1  6
 19 18  1  0
 20 21  1  0
 21 25  1  0
 21 22  2  0
 23 24  1  0
 23 19  1  0
 26 23  2  0
M  END
$$$$
