NED.pdb
     RDKit          3D

 26 25  0  0  1  0  0  0  0  0999 V2000
   15.1925  -14.0515  -10.1283 N   0  0  0  0  0  0  0  0  0  0  0  0
   14.8994  -12.6473  -10.0714 C   0  0  0  0  0  0  0  0  0  0  0  0
   13.7186  -12.3430   -9.8516 O   0  0  0  0  0  0  0  0  0  0  0  0
   15.9425  -11.6475  -10.2631 C   0  0  0  0  0  0  0  0  0  0  0  0
   15.5582  -10.4941  -11.1276 C   0  0  2  0  0  0  0  0  0  0  0  0
   15.2782  -11.0128  -12.4891 N   0  0  0  0  0  0  0  0  0  0  0  0
   16.6425   -9.4734  -11.2705 C   0  0  0  0  0  0  0  0  0  0  0  0
   17.0641   -8.8075  -10.3141 O   0  0  0  0  0  0  0  0  0  0  0  0
   17.2250   -9.2471  -12.5545 N   0  0  0  0  0  0  0  0  0  0  0  0
   18.1689   -8.1678  -12.7415 C   0  0  1  0  0  0  0  0  0  0  0  0
   19.3844   -8.6282  -13.4897 C   0  0  0  0  0  0  0  0  0  0  0  0
   20.4253   -7.5903  -13.7237 C   0  0  0  0  0  0  0  0  0  0  0  0
   21.5906   -8.1265  -14.4400 C   0  0  0  0  0  0  0  0  0  0  0  0
   22.2919   -9.0493  -14.0070 O   0  0  0  0  0  0  0  0  0  0  0  0
   17.5226   -7.1250  -13.6236 C   0  0  0  0  0  0  0  0  0  0  0  0
   16.6088   -7.4170  -14.4340 O   0  0  0  0  0  0  0  0  0  0  0  0
   21.9246   -7.5659  -15.6722 O   0  0  0  0  0  0  0  0  0  0  0  0
   17.9388   -5.7696  -13.5583 N   0  0  0  0  0  0  0  0  0  0  0  0
   17.2480   -4.7747  -14.4270 C   0  0  1  0  0  0  0  0  0  0  0  0
   15.8312   -4.6323  -13.9408 C   0  0  0  0  0  0  0  0  0  0  0  0
   15.1209   -3.5685  -14.6506 C   0  0  0  0  0  0  0  0  0  0  0  0
   15.5421   -3.0090  -15.6677 O   0  0  0  0  0  0  0  0  0  0  0  0
   17.9659   -3.4733  -14.2339 C   0  0  0  0  0  0  0  0  0  0  0  0
   18.2808   -2.7241  -15.3743 O   0  0  0  0  0  0  0  0  0  0  0  0
   13.8721   -3.1328  -14.1646 O   0  0  0  0  0  0  0  0  0  0  0  0
   18.2787   -3.0578  -13.1080 O   0  0  0  0  0  0  0  0  0  0  0  0
  1  2  1  0
  2  3  2  0
  4  2  1  0
  5  4  1  0
  5  6  1  6
  7  8  2  0
  7  5  1  0
  9  7  1  0
 10 11  1  6
 10  9  1  0
 11 12  1  0
 13 12  1  0
 13 17  1  0
 14 13  2  0
 15 10  1  0
 16 15  2  0
 18 15  1  0
 19 20  1  1
 19 18  1  0
 20 21  1  0
 21 25  1  0
 21 22  2  0
 23 24  1  0
 23 19  1  0
 26 23  2  0
M  END
$$$$
