NED.pdb
     RDKit          3D

 26 25  0  0  1  0  0  0  0  0999 V2000
   14.9219  -15.0783  -13.5218 N   0  0  0  0  0  0  0  0  0  0  0  0
   14.4484  -13.7283  -13.6424 C   0  0  0  0  0  0  0  0  0  0  0  0
   13.4176  -13.4515  -13.0133 O   0  0  0  0  0  0  0  0  0  0  0  0
   15.1515  -12.7496  -14.4623 C   0  0  0  0  0  0  0  0  0  0  0  0
   14.5033  -11.4080  -14.5363 C   0  0  2  0  0  0  0  0  0  0  0  0
   13.2762  -11.5347  -15.3604 N   0  0  0  0  0  0  0  0  0  0  0  0
   15.3587  -10.3720  -15.1943 C   0  0  0  0  0  0  0  0  0  0  0  0
   16.2088  -10.6529  -16.0513 O   0  0  0  0  0  0  0  0  0  0  0  0
   15.1998   -9.0002  -14.8311 N   0  0  0  0  0  0  0  0  0  0  0  0
   15.9366   -7.9745  -15.5352 C   0  0  1  0  0  0  0  0  0  0  0  0
   15.1990   -6.6687  -15.5273 C   0  0  0  0  0  0  0  0  0  0  0  0
   15.8815   -5.5419  -16.2199 C   0  0  0  0  0  0  0  0  0  0  0  0
   15.1023   -4.2982  -16.1543 C   0  0  0  0  0  0  0  0  0  0  0  0
   13.9515   -4.1903  -16.5957 O   0  0  0  0  0  0  0  0  0  0  0  0
   17.2213   -7.7171  -14.7823 C   0  0  0  0  0  0  0  0  0  0  0  0
   17.2388   -7.5596  -13.5366 O   0  0  0  0  0  0  0  0  0  0  0  0
   15.6901   -3.1801  -15.5641 O   0  0  0  0  0  0  0  0  0  0  0  0
   18.4583   -7.6448  -15.4744 N   0  0  0  0  0  0  0  0  0  0  0  0
   19.6918   -7.3525  -14.6902 C   0  0  1  0  0  0  0  0  0  0  0  0
   20.5191   -8.6081  -14.6335 C   0  0  0  0  0  0  0  0  0  0  0  0
   21.7991   -8.3816  -13.9624 C   0  0  0  0  0  0  0  0  0  0  0  0
   22.1346   -7.3108  -13.4469 O   0  0  0  0  0  0  0  0  0  0  0  0
   20.4420   -6.3051  -15.4559 C   0  0  0  0  0  0  0  0  0  0  0  0
   21.5958   -5.7680  -14.8716 O   0  0  0  0  0  0  0  0  0  0  0  0
   22.7303   -9.4362  -13.8842 O   0  0  0  0  0  0  0  0  0  0  0  0
   20.0678   -5.9145  -16.5719 O   0  0  0  0  0  0  0  0  0  0  0  0
  1  2  1  0
  2  3  2  0
  4  2  1  0
  5  4  1  0
  5  6  1  6
  7  8  2  0
  7  5  1  0
  9  7  1  0
 10 11  1  1
 10  9  1  0
 11 12  1  0
 13 12  1  0
 13 17  1  0
 14 13  2  0
 15 10  1  0
 16 15  2  0
 18 15  1  0
 19 20  1  6
 19 18  1  0
 20 21  1  0
 21 25  1  0
 21 22  2  0
 23 24  1  0
 23 19  1  0
 26 23  2  0
M  END
$$$$
