NED.pdb
     RDKit          3D

 26 25  0  0  1  0  0  0  0  0999 V2000
   16.4099  -12.2094  -16.6790 N   0  0  0  0  0  0  0  0  0  0  0  0
   15.4626  -11.1345  -16.5881 C   0  0  0  0  0  0  0  0  0  0  0  0
   14.4682  -11.2176  -17.3226 O   0  0  0  0  0  0  0  0  0  0  0  0
   15.6721  -10.0153  -15.6783 C   0  0  0  0  0  0  0  0  0  0  0  0
   16.9536  -10.0548  -14.9157 C   0  0  2  0  0  0  0  0  0  0  0  0
   16.7960  -11.0208  -13.8008 N   0  0  0  0  0  0  0  0  0  0  0  0
   17.3170   -8.7413  -14.2989 C   0  0  0  0  0  0  0  0  0  0  0  0
   16.7672   -8.3080  -13.2763 O   0  0  0  0  0  0  0  0  0  0  0  0
   18.3373   -7.9442  -14.9013 N   0  0  0  0  0  0  0  0  0  0  0  0
   18.7181   -6.6832  -14.3049 C   0  0  1  0  0  0  0  0  0  0  0  0
   20.2089   -6.5254  -14.2655 C   0  0  0  0  0  0  0  0  0  0  0  0
   20.7037   -5.2457  -13.6884 C   0  0  0  0  0  0  0  0  0  0  0  0
   22.1711   -5.1900  -13.6420 C   0  0  0  0  0  0  0  0  0  0  0  0
   22.8481   -5.7587  -12.7765 O   0  0  0  0  0  0  0  0  0  0  0  0
   18.2175   -5.5708  -15.1966 C   0  0  0  0  0  0  0  0  0  0  0  0
   17.9258   -5.7684  -16.4020 O   0  0  0  0  0  0  0  0  0  0  0  0
   22.8362   -4.4574  -14.6243 O   0  0  0  0  0  0  0  0  0  0  0  0
   18.0634   -4.2550  -14.6873 N   0  0  0  0  0  0  0  0  0  0  0  0
   17.4985   -3.2096  -15.5872 C   0  0  1  0  0  0  0  0  0  0  0  0
   16.1046   -3.6261  -15.9716 C   0  0  0  0  0  0  0  0  0  0  0  0
   15.4473   -2.6142  -16.7987 C   0  0  0  0  0  0  0  0  0  0  0  0
   14.6125   -2.8655  -17.6733 O   0  0  0  0  0  0  0  0  0  0  0  0
   17.4285   -1.9488  -14.7799 C   0  0  0  0  0  0  0  0  0  0  0  0
   17.7830   -0.7487  -15.4086 O   0  0  0  0  0  0  0  0  0  0  0  0
   15.7682   -1.2556  -16.6075 O   0  0  0  0  0  0  0  0  0  0  0  0
   17.0704   -1.9494  -13.5925 O   0  0  0  0  0  0  0  0  0  0  0  0
  1  2  1  0
  2  3  2  0
  4  2  1  0
  5  4  1  0
  5  6  1  1
  7  8  2  0
  7  5  1  0
  9  7  1  0
 10 11  1  6
 10  9  1  0
 11 12  1  0
 13 12  1  0
 13 17  1  0
 14 13  2  0
 15 10  1  0
 16 15  2  0
 18 15  1  0
 19 20  1  1
 19 18  1  0
 20 21  1  0
 21 25  1  0
 21 22  2  0
 23 24  1  0
 23 19  1  0
 26 23  2  0
M  END
$$$$
