NED.pdb
     RDKit          3D

 26 25  0  0  1  0  0  0  0  0999 V2000
   13.5932   -5.1783   -7.4409 N   0  0  0  0  0  0  0  0  0  0  0  0
   13.5033   -6.6111   -7.4305 C   0  0  0  0  0  0  0  0  0  0  0  0
   12.6280   -7.0995   -6.7022 O   0  0  0  0  0  0  0  0  0  0  0  0
   14.3981   -7.4318   -8.2368 C   0  0  0  0  0  0  0  0  0  0  0  0
   15.3570   -6.6690   -9.0878 C   0  0  2  0  0  0  0  0  0  0  0  0
   14.5927   -6.0437  -10.1950 N   0  0  0  0  0  0  0  0  0  0  0  0
   16.4033   -7.5310   -9.7203 C   0  0  0  0  0  0  0  0  0  0  0  0
   17.2908   -8.0953   -9.0646 O   0  0  0  0  0  0  0  0  0  0  0  0
   16.3912   -7.7209  -11.1356 N   0  0  0  0  0  0  0  0  0  0  0  0
   17.4211   -8.5141  -11.7688 C   0  0  1  0  0  0  0  0  0  0  0  0
   16.8314   -9.5462  -12.6832 C   0  0  0  0  0  0  0  0  0  0  0  0
   16.2187  -10.7244  -12.0108 C   0  0  0  0  0  0  0  0  0  0  0  0
   15.6298  -11.6663  -12.9721 C   0  0  0  0  0  0  0  0  0  0  0  0
   14.4163  -11.8967  -13.0451 O   0  0  0  0  0  0  0  0  0  0  0  0
   18.2353   -7.6040  -12.6588 C   0  0  0  0  0  0  0  0  0  0  0  0
   17.7080   -6.6671  -13.3079 O   0  0  0  0  0  0  0  0  0  0  0  0
   16.4826  -12.3365  -13.8482 O   0  0  0  0  0  0  0  0  0  0  0  0
   19.6368   -7.7885  -12.7864 N   0  0  0  0  0  0  0  0  0  0  0  0
   20.3866   -6.8943  -13.7136 C   0  0  1  0  0  0  0  0  0  0  0  0
   21.0178   -5.7981  -12.8987 C   0  0  0  0  0  0  0  0  0  0  0  0
   21.8274   -4.9058  -13.7285 C   0  0  0  0  0  0  0  0  0  0  0  0
   21.9966   -5.0484  -14.9434 O   0  0  0  0  0  0  0  0  0  0  0  0
   21.4666   -7.7319  -14.3287 C   0  0  0  0  0  0  0  0  0  0  0  0
   21.9840   -7.3274  -15.5656 O   0  0  0  0  0  0  0  0  0  0  0  0
   22.4685   -3.8033  -13.1294 O   0  0  0  0  0  0  0  0  0  0  0  0
   21.9001   -8.7532  -13.7746 O   0  0  0  0  0  0  0  0  0  0  0  0
  1  2  1  0
  2  3  2  0
  4  2  1  0
  5  4  1  0
  5  6  1  6
  7  8  2  0
  7  5  1  0
  9  7  1  0
 10 11  1  6
 10  9  1  0
 11 12  1  0
 13 12  1  0
 13 17  1  0
 14 13  2  0
 15 10  1  0
 16 15  2  0
 18 15  1  0
 19 20  1  1
 19 18  1  0
 20 21  1  0
 21 25  1  0
 21 22  2  0
 23 24  1  0
 23 19  1  0
 26 23  2  0
M  END
$$$$
