NED.pdb
     RDKit          3D

 26 25  0  0  1  0  0  0  0  0999 V2000
   27.4245  -13.4608  -16.4250 N   0  0  0  0  0  0  0  0  0  0  0  0
   27.2211  -12.3790  -15.5033 C   0  0  0  0  0  0  0  0  0  0  0  0
   27.9567  -12.3634  -14.5064 O   0  0  0  0  0  0  0  0  0  0  0  0
   26.2027  -11.3636  -15.7403 C   0  0  0  0  0  0  0  0  0  0  0  0
   25.3945  -11.5591  -16.9788 C   0  0  2  0  0  0  0  0  0  0  0  0
   26.2888  -11.3673  -18.1469 N   0  0  0  0  0  0  0  0  0  0  0  0
   24.2811  -10.5703  -17.1222 C   0  0  0  0  0  0  0  0  0  0  0  0
   24.4057   -9.5099  -17.7516 O   0  0  0  0  0  0  0  0  0  0  0  0
   23.0182  -10.8462  -16.5156 N   0  0  0  0  0  0  0  0  0  0  0  0
   21.9015   -9.9529  -16.7292 C   0  0  1  0  0  0  0  0  0  0  0  0
   20.5923  -10.6592  -16.5383 C   0  0  0  0  0  0  0  0  0  0  0  0
   19.3812   -9.7971  -16.6124 C   0  0  0  0  0  0  0  0  0  0  0  0
   18.1402  -10.5746  -16.4957 C   0  0  0  0  0  0  0  0  0  0  0  0
   17.1384  -10.1731  -15.8906 O   0  0  0  0  0  0  0  0  0  0  0  0
   21.9431   -8.8840  -15.6619 C   0  0  0  0  0  0  0  0  0  0  0  0
   22.3678   -9.1203  -14.5039 O   0  0  0  0  0  0  0  0  0  0  0  0
   18.0881  -11.8310  -17.0978 O   0  0  0  0  0  0  0  0  0  0  0  0
   21.4957   -7.5672  -15.9451 N   0  0  0  0  0  0  0  0  0  0  0  0
   21.5629   -6.5482  -14.8592 C   0  0  1  0  0  0  0  0  0  0  0  0
   22.6801   -5.5932  -15.1817 C   0  0  0  0  0  0  0  0  0  0  0  0
   22.7476   -4.4955  -14.2172 C   0  0  0  0  0  0  0  0  0  0  0  0
   22.8721   -4.6472  -12.9979 O   0  0  0  0  0  0  0  0  0  0  0  0
   20.2601   -5.8080  -14.8920 C   0  0  0  0  0  0  0  0  0  0  0  0
   19.9077   -5.0534  -13.7662 O   0  0  0  0  0  0  0  0  0  0  0  0
   22.6673   -3.1672  -14.6806 O   0  0  0  0  0  0  0  0  0  0  0  0
   19.5061   -5.8509  -15.8757 O   0  0  0  0  0  0  0  0  0  0  0  0
  1  2  1  0
  2  3  2  0
  4  2  1  0
  5  4  1  0
  5  6  1  6
  7  8  2  0
  7  5  1  0
  9  7  1  0
 10 11  1  1
 10  9  1  0
 11 12  1  0
 13 12  1  0
 13 17  1  0
 14 13  2  0
 15 10  1  0
 16 15  2  0
 18 15  1  0
 19 20  1  6
 19 18  1  0
 20 21  1  0
 21 25  1  0
 21 22  2  0
 23 24  1  0
 23 19  1  0
 26 23  2  0
M  END
$$$$
