KSK.pdb
     RDKit          3D

 25 24  0  0  1  0  0  0  0  0999 V2000
   17.0825  -11.5187  -14.2346 N   0  0  0  0  0  0  0  0  0  0  0  0
   17.4678  -10.1340  -14.4268 C   0  0  1  0  0  0  0  0  0  0  0  0
   16.3706   -9.3302  -15.0774 C   0  0  0  0  0  0  0  0  0  0  0  0
   15.2906  -10.1799  -15.6809 C   0  0  0  0  0  0  0  0  0  0  0  0
   14.2499   -9.3293  -16.3423 C   0  0  0  0  0  0  0  0  0  0  0  0
   14.8431   -8.7899  -17.6313 C   0  0  0  0  0  0  0  0  0  0  0  0
   13.8619   -7.9669  -18.3207 N   0  0  0  0  0  0  0  0  0  0  0  0
   17.6925   -9.5457  -13.0762 C   0  0  0  0  0  0  0  0  0  0  0  0
   17.1668  -10.0506  -12.0256 O   0  0  0  0  0  0  0  0  0  0  0  0
   19.6326   -5.8539  -12.4798 O   0  0  0  0  0  0  0  0  0  0  0  0
   19.8519   -6.8403  -11.5541 C   0  0  0  0  0  0  0  0  0  0  0  0
   18.6722   -7.7938  -11.5287 C   0  0  2  0  0  0  0  0  0  0  0  0
   18.5000   -8.3917  -12.8603 N   0  0  0  0  0  0  0  0  0  0  0  0
   17.4092   -7.1326  -11.1296 C   0  0  0  0  0  0  0  0  0  0  0  0
   16.6199   -6.7025  -12.0399 O   0  0  0  0  0  0  0  0  0  0  0  0
   17.0120   -6.9428   -9.7946 N   0  0  0  0  0  0  0  0  0  0  0  0
   15.7439   -6.1643   -9.4588 C   0  0  1  0  0  0  0  0  0  0  0  0
   15.3185   -6.6392   -8.1340 C   0  0  0  0  0  0  0  0  0  0  0  0
   14.1383   -6.1284   -7.4603 C   0  0  0  0  0  0  0  0  0  0  0  0
   12.8103   -6.7385   -7.5444 C   0  0  0  0  0  0  0  0  0  0  0  0
   11.8816   -5.8503   -6.6467 C   0  0  0  0  0  0  0  0  0  0  0  0
   10.5384   -6.3595   -6.7129 N   0  0  0  0  0  0  0  0  0  0  0  0
   16.1433   -4.7748   -9.5895 C   0  0  0  0  0  0  0  0  0  0  0  0
   17.3666   -4.4520   -9.3025 O   0  0  0  0  0  0  0  0  0  0  0  0
   15.3060   -3.7706  -10.0104 O   0  0  0  0  0  0  0  0  0  0  0  0
  2  1  1  1
  3  2  1  0
  4  3  1  0
  5  6  1  0
  5  4  1  0
  7  6  1  0
  8  2  1  0
  8  9  2  0
 12 11  1  6
 11 10  1  0
 12 13  1  0
 13  8  1  0
 14 12  1  0
 15 14  2  0
 16 14  1  0
 17 23  1  0
 17 16  1  0
 17 18  1  1
 19 20  1  0
 19 18  1  0
 21 20  1  0
 21 22  1  0
 23 25  1  0
 24 23  2  0
M  END
$$$$
