KSK.pdb
     RDKit          3D

 25 24  0  0  1  0  0  0  0  0999 V2000
   18.8263  -11.5837  -14.9955 N   0  0  0  0  0  0  0  0  0  0  0  0
   17.6559  -10.7341  -14.8894 C   0  0  1  0  0  0  0  0  0  0  0  0
   16.3913  -11.5376  -14.7207 C   0  0  0  0  0  0  0  0  0  0  0  0
   15.9252  -12.1844  -15.9924 C   0  0  0  0  0  0  0  0  0  0  0  0
   15.7103  -13.6537  -15.7956 C   0  0  0  0  0  0  0  0  0  0  0  0
   15.2758  -14.2407  -17.1264 C   0  0  0  0  0  0  0  0  0  0  0  0
   14.9508  -15.6489  -16.9632 N   0  0  0  0  0  0  0  0  0  0  0  0
   17.8151   -9.9137  -13.6556 C   0  0  0  0  0  0  0  0  0  0  0  0
   17.9006  -10.4487  -12.4973 O   0  0  0  0  0  0  0  0  0  0  0  0
   18.4200   -5.7642  -13.8029 O   0  0  0  0  0  0  0  0  0  0  0  0
   19.0424   -6.5164  -12.8411 C   0  0  0  0  0  0  0  0  0  0  0  0
   18.1709   -7.7017  -12.4708 C   0  0  2  0  0  0  0  0  0  0  0  0
   17.8828   -8.4906  -13.6769 N   0  0  0  0  0  0  0  0  0  0  0  0
   16.8932   -7.2990  -11.8408 C   0  0  0  0  0  0  0  0  0  0  0  0
   15.8715   -7.0982  -12.5842 O   0  0  0  0  0  0  0  0  0  0  0  0
   16.7241   -7.1198  -10.4568 N   0  0  0  0  0  0  0  0  0  0  0  0
   15.4306   -6.5378   -9.8955 C   0  0  1  0  0  0  0  0  0  0  0  0
   14.8947   -7.5557   -8.9800 C   0  0  0  0  0  0  0  0  0  0  0  0
   13.5410   -7.5053   -8.4581 C   0  0  0  0  0  0  0  0  0  0  0  0
   12.9501   -8.5292   -7.5947 C   0  0  0  0  0  0  0  0  0  0  0  0
   11.5397   -7.9767   -7.1915 C   0  0  0  0  0  0  0  0  0  0  0  0
   10.8865   -8.9340   -6.3401 N   0  0  0  0  0  0  0  0  0  0  0  0
   15.8374   -5.2621   -9.3346 C   0  0  0  0  0  0  0  0  0  0  0  0
   17.0941   -5.0714   -9.0757 O   0  0  0  0  0  0  0  0  0  0  0  0
   14.9722   -4.2296   -9.0661 O   0  0  0  0  0  0  0  0  0  0  0  0
  2  1  1  1
  3  2  1  0
  4  3  1  0
  5  6  1  0
  5  4  1  0
  7  6  1  0
  8  2  1  0
  8  9  2  0
 12 11  1  6
 11 10  1  0
 12 13  1  0
 13  8  1  0
 14 12  1  0
 15 14  2  0
 16 14  1  0
 17 23  1  0
 17 16  1  0
 17 18  1  1
 19 20  1  0
 19 18  1  0
 21 20  1  0
 21 22  1  0
 23 25  1  0
 24 23  2  0
M  END
$$$$
