KSK.pdb
     RDKit          3D

 25 24  0  0  1  0  0  0  0  0999 V2000
   25.5028  -21.8450  -10.6967 N   0  0  0  0  0  0  0  0  0  0  0  0
   24.9034  -21.3219  -11.9091 C   0  0  1  0  0  0  0  0  0  0  0  0
   23.9164  -20.2199  -11.6181 C   0  0  0  0  0  0  0  0  0  0  0  0
   22.8148  -20.1267  -12.6333 C   0  0  0  0  0  0  0  0  0  0  0  0
   22.2714  -21.4848  -12.9566 C   0  0  0  0  0  0  0  0  0  0  0  0
   21.2428  -21.3213  -14.0609 C   0  0  0  0  0  0  0  0  0  0  0  0
   20.7439  -22.6251  -14.4689 N   0  0  0  0  0  0  0  0  0  0  0  0
   25.9988  -20.7188  -12.7196 C   0  0  0  0  0  0  0  0  0  0  0  0
   26.8299  -19.8874  -12.2163 O   0  0  0  0  0  0  0  0  0  0  0  0
   27.3524  -22.4035  -16.1915 O   0  0  0  0  0  0  0  0  0  0  0  0
   28.1440  -21.5533  -15.4645 C   0  0  0  0  0  0  0  0  0  0  0  0
   27.2987  -20.4387  -14.8773 C   0  0  2  0  0  0  0  0  0  0  0  0
   26.1972  -21.0213  -14.0979 N   0  0  0  0  0  0  0  0  0  0  0  0
   26.7362  -19.5406  -15.9110 C   0  0  0  0  0  0  0  0  0  0  0  0
   25.5133  -19.6842  -16.2584 O   0  0  0  0  0  0  0  0  0  0  0  0
   27.4680  -18.5228  -16.5471 N   0  0  0  0  0  0  0  0  0  0  0  0
   26.8432  -17.6898  -17.6619 C   0  0  1  0  0  0  0  0  0  0  0  0
   27.7654  -16.5681  -17.8918 C   0  0  0  0  0  0  0  0  0  0  0  0
   27.5091  -15.5321  -18.8760 C   0  0  0  0  0  0  0  0  0  0  0  0
   28.4131  -14.4146  -19.1533 C   0  0  0  0  0  0  0  0  0  0  0  0
   27.7292  -13.5951  -20.3013 C   0  0  0  0  0  0  0  0  0  0  0  0
   27.0685  -12.4516  -19.7323 N   0  0  0  0  0  0  0  0  0  0  0  0
   26.6455  -18.6422  -18.7394 C   0  0  0  0  0  0  0  0  0  0  0  0
   25.6378  -18.4733  -19.5387 O   0  0  0  0  0  0  0  0  0  0  0  0
   27.4687  -19.7158  -18.9770 O   0  0  0  0  0  0  0  0  0  0  0  0
  2  1  1  1
  3  2  1  0
  4  3  1  0
  5  6  1  0
  5  4  1  0
  7  6  1  0
  8  2  1  0
  8  9  2  0
 12 11  1  6
 11 10  1  0
 12 13  1  0
 13  8  1  0
 14 12  1  0
 15 14  2  0
 16 14  1  0
 17 23  1  0
 17 16  1  0
 17 18  1  6
 19 20  1  0
 19 18  1  0
 21 20  1  0
 21 22  1  0
 23 25  1  0
 24 23  2  0
M  END
$$$$
