KSK.pdb
     RDKit          3D

 25 24  0  0  1  0  0  0  0  0999 V2000
   20.4987  -22.7150  -11.5474 N   0  0  0  0  0  0  0  0  0  0  0  0
   20.5238  -21.5984  -10.6226 C   0  0  1  0  0  0  0  0  0  0  0  0
   20.4960  -22.0570   -9.1866 C   0  0  0  0  0  0  0  0  0  0  0  0
   19.4518  -23.1009   -8.9171 C   0  0  0  0  0  0  0  0  0  0  0  0
   19.5821  -23.6387   -7.5251 C   0  0  0  0  0  0  0  0  0  0  0  0
   18.4251  -24.5918   -7.2864 C   0  0  0  0  0  0  0  0  0  0  0  0
   18.5473  -25.1980   -5.9699 N   0  0  0  0  0  0  0  0  0  0  0  0
   21.8168  -20.8857  -10.8243 C   0  0  0  0  0  0  0  0  0  0  0  0
   21.9709  -19.6616  -10.4880 O   0  0  0  0  0  0  0  0  0  0  0  0
   25.2448  -22.7442  -12.3873 O   0  0  0  0  0  0  0  0  0  0  0  0
   25.3647  -21.5084  -11.8071 C   0  0  0  0  0  0  0  0  0  0  0  0
   24.0708  -20.7340  -11.9733 C   0  0  2  0  0  0  0  0  0  0  0  0
   22.9617  -21.5092  -11.3995 N   0  0  0  0  0  0  0  0  0  0  0  0
   23.7639  -20.4277  -13.3888 C   0  0  0  0  0  0  0  0  0  0  0  0
   23.0007  -21.2190  -14.0431 O   0  0  0  0  0  0  0  0  0  0  0  0
   24.2631  -19.3063  -14.0739 N   0  0  0  0  0  0  0  0  0  0  0  0
   23.8092  -18.9922  -15.4959 C   0  0  1  0  0  0  0  0  0  0  0  0
   24.0716  -17.5594  -15.6955 C   0  0  0  0  0  0  0  0  0  0  0  0
   23.6503  -16.8441  -16.8864 C   0  0  0  0  0  0  0  0  0  0  0  0
   23.8464  -15.4093  -17.1007 C   0  0  0  0  0  0  0  0  0  0  0  0
   23.1850  -15.0967  -18.4870 C   0  0  0  0  0  0  0  0  0  0  0  0
   21.8637  -14.5725  -18.2692 N   0  0  0  0  0  0  0  0  0  0  0  0
   24.5438  -19.9406  -16.3134 C   0  0  0  0  0  0  0  0  0  0  0  0
   25.6851  -20.3790  -15.8797 O   0  0  0  0  0  0  0  0  0  0  0  0
   24.1014  -20.4168  -17.5235 O   0  0  0  0  0  0  0  0  0  0  0  0
  2  1  1  6
  3  2  1  0
  4  3  1  0
  5  6  1  0
  5  4  1  0
  7  6  1  0
  8  2  1  0
  8  9  2  0
 12 11  1  6
 11 10  1  0
 12 13  1  0
 13  8  1  0
 14 12  1  0
 15 14  2  0
 16 14  1  0
 17 23  1  0
 17 16  1  0
 17 18  1  6
 19 20  1  0
 19 18  1  0
 21 20  1  0
 21 22  1  0
 23 25  1  0
 24 23  2  0
M  END
$$$$
