KSK.pdb
     RDKit          3D

 25 24  0  0  1  0  0  0  0  0999 V2000
   29.5332  -22.5571  -16.8179 N   0  0  0  0  0  0  0  0  0  0  0  0
   28.1266  -22.8582  -17.0010 C   0  0  1  0  0  0  0  0  0  0  0  0
   27.7892  -24.2592  -16.5578 C   0  0  0  0  0  0  0  0  0  0  0  0
   28.5147  -25.3185  -17.3353 C   0  0  0  0  0  0  0  0  0  0  0  0
   28.0619  -26.6859  -16.9242 C   0  0  0  0  0  0  0  0  0  0  0  0
   28.8211  -27.6972  -17.7639 C   0  0  0  0  0  0  0  0  0  0  0  0
   28.3995  -29.0450  -17.4158 N   0  0  0  0  0  0  0  0  0  0  0  0
   27.3576  -21.9302  -16.1247 C   0  0  0  0  0  0  0  0  0  0  0  0
   27.6755  -21.7411  -14.9006 O   0  0  0  0  0  0  0  0  0  0  0  0
   25.4806  -18.4130  -17.2245 O   0  0  0  0  0  0  0  0  0  0  0  0
   25.9961  -18.8328  -16.0261 C   0  0  0  0  0  0  0  0  0  0  0  0
   25.5135  -20.2387  -15.7225 C   0  0  2  0  0  0  0  0  0  0  0  0
   26.2259  -21.1948  -16.5817 N   0  0  0  0  0  0  0  0  0  0  0  0
   24.0560  -20.4007  -15.9251 C   0  0  0  0  0  0  0  0  0  0  0  0
   23.6125  -20.5962  -17.1091 O   0  0  0  0  0  0  0  0  0  0  0  0
   23.1104  -20.3536  -14.8861 N   0  0  0  0  0  0  0  0  0  0  0  0
   21.6151  -20.3644  -15.1879 C   0  0  1  0  0  0  0  0  0  0  0  0
   20.9612  -20.8578  -13.9671 C   0  0  0  0  0  0  0  0  0  0  0  0
   19.5659  -21.2574  -13.9324 C   0  0  0  0  0  0  0  0  0  0  0  0
   18.8785  -21.7535  -12.7390 C   0  0  0  0  0  0  0  0  0  0  0  0
   17.4321  -22.1293  -13.2123 C   0  0  0  0  0  0  0  0  0  0  0  0
   16.6927  -22.6498  -12.0941 N   0  0  0  0  0  0  0  0  0  0  0  0
   21.3351  -19.0038  -15.6095 C   0  0  0  0  0  0  0  0  0  0  0  0
   22.0994  -18.0504  -15.1739 O   0  0  0  0  0  0  0  0  0  0  0  0
   20.3100  -18.6567  -16.4554 O   0  0  0  0  0  0  0  0  0  0  0  0
  2  1  1  1
  3  2  1  0
  4  3  1  0
  5  6  1  0
  5  4  1  0
  7  6  1  0
  8  2  1  0
  8  9  2  0
 12 11  1  6
 11 10  1  0
 12 13  1  0
 13  8  1  0
 14 12  1  0
 15 14  2  0
 16 14  1  0
 17 23  1  0
 17 16  1  0
 17 18  1  1
 19 20  1  0
 19 18  1  0
 21 20  1  0
 21 22  1  0
 23 25  1  0
 24 23  2  0
M  END
$$$$
