KSK.pdb
     RDKit          3D

 25 24  0  0  1  0  0  0  0  0999 V2000
   20.6059  -26.8033  -11.4882 N   0  0  0  0  0  0  0  0  0  0  0  0
   19.3724  -27.2466  -10.8679 C   0  0  1  0  0  0  0  0  0  0  0  0
   19.2820  -28.7504  -10.8080 C   0  0  0  0  0  0  0  0  0  0  0  0
   19.1113  -29.3887  -12.1557 C   0  0  0  0  0  0  0  0  0  0  0  0
   17.9775  -28.7583  -12.9046 C   0  0  0  0  0  0  0  0  0  0  0  0
   17.8196  -29.5021  -14.2184 C   0  0  0  0  0  0  0  0  0  0  0  0
   16.7778  -28.8773  -15.0182 N   0  0  0  0  0  0  0  0  0  0  0  0
   19.3842  -26.7574   -9.4604 C   0  0  0  0  0  0  0  0  0  0  0  0
   20.0424  -27.3589   -8.5437 O   0  0  0  0  0  0  0  0  0  0  0  0
   18.0848  -23.0019   -8.6267 O   0  0  0  0  0  0  0  0  0  0  0  0
   19.0021  -23.5457   -7.7659 C   0  0  0  0  0  0  0  0  0  0  0  0
   18.8027  -25.0473   -7.6825 C   0  0  2  0  0  0  0  0  0  0  0  0
   18.6716  -25.5977   -9.0389 N   0  0  0  0  0  0  0  0  0  0  0  0
   17.6093  -25.4239   -6.8914 C   0  0  0  0  0  0  0  0  0  0  0  0
   16.4796  -25.5251   -7.4833 O   0  0  0  0  0  0  0  0  0  0  0  0
   17.6347  -25.6827   -5.5100 N   0  0  0  0  0  0  0  0  0  0  0  0
   16.3421  -25.9122   -4.7332 C   0  0  1  0  0  0  0  0  0  0  0  0
   16.6995  -26.7845   -3.6049 C   0  0  0  0  0  0  0  0  0  0  0  0
   17.1017  -28.1683   -3.7810 C   0  0  0  0  0  0  0  0  0  0  0  0
   17.5208  -29.0515   -2.6915 C   0  0  0  0  0  0  0  0  0  0  0  0
   17.9754  -30.3837   -3.3811 C   0  0  0  0  0  0  0  0  0  0  0  0
   18.3572  -31.3302   -2.3680 N   0  0  0  0  0  0  0  0  0  0  0  0
   15.8714  -24.5714   -4.4363 C   0  0  0  0  0  0  0  0  0  0  0  0
   16.7071  -23.5845   -4.5381 O   0  0  0  0  0  0  0  0  0  0  0  0
   14.5840  -24.2744   -4.0605 O   0  0  0  0  0  0  0  0  0  0  0  0
  2  1  1  1
  3  2  1  0
  4  3  1  0
  5  6  1  0
  5  4  1  0
  7  6  1  0
  8  2  1  0
  8  9  2  0
 12 11  1  6
 11 10  1  0
 12 13  1  0
 13  8  1  0
 14 12  1  0
 15 14  2  0
 16 14  1  0
 17 23  1  0
 17 16  1  0
 17 18  1  1
 19 20  1  0
 19 18  1  0
 21 20  1  0
 21 22  1  0
 23 25  1  0
 24 23  2  0
M  END
$$$$
