KSK.pdb
     RDKit          3D

 25 24  0  0  1  0  0  0  0  0999 V2000
   26.9197  -23.2709  -15.2830 N   0  0  0  0  0  0  0  0  0  0  0  0
   25.6501  -23.1476  -15.9726 C   0  0  1  0  0  0  0  0  0  0  0  0
   25.1599  -24.4763  -16.4897 C   0  0  0  0  0  0  0  0  0  0  0  0
   25.9462  -24.9830  -17.6635 C   0  0  0  0  0  0  0  0  0  0  0  0
   26.8816  -26.0762  -17.2467 C   0  0  0  0  0  0  0  0  0  0  0  0
   27.6296  -26.5422  -18.4828 C   0  0  0  0  0  0  0  0  0  0  0  0
   28.6232  -27.5379  -18.1133 N   0  0  0  0  0  0  0  0  0  0  0  0
   24.6488  -22.6753  -14.9752 C   0  0  0  0  0  0  0  0  0  0  0  0
   24.6130  -23.1403  -13.7845 O   0  0  0  0  0  0  0  0  0  0  0  0
   22.2257  -19.3027  -15.6542 O   0  0  0  0  0  0  0  0  0  0  0  0
   22.7329  -19.6022  -14.4168 C   0  0  0  0  0  0  0  0  0  0  0  0
   22.7990  -21.1073  -14.2382 C   0  0  2  0  0  0  0  0  0  0  0  0
   23.6702  -21.6831  -15.2724 N   0  0  0  0  0  0  0  0  0  0  0  0
   21.4687  -21.7524  -14.3138 C   0  0  0  0  0  0  0  0  0  0  0  0
   20.9411  -21.9528  -15.4620 O   0  0  0  0  0  0  0  0  0  0  0  0
   20.7338  -22.1671  -13.1895 N   0  0  0  0  0  0  0  0  0  0  0  0
   19.3927  -22.8761  -13.3494 C   0  0  1  0  0  0  0  0  0  0  0  0
   19.1686  -23.6029  -12.0912 C   0  0  0  0  0  0  0  0  0  0  0  0
   18.6918  -24.9736  -12.0523 C   0  0  0  0  0  0  0  0  0  0  0  0
   18.3712  -25.7018  -10.8236 C   0  0  0  0  0  0  0  0  0  0  0  0
   17.8051  -27.0868  -11.2909 C   0  0  0  0  0  0  0  0  0  0  0  0
   17.4219  -27.8515  -10.1349 N   0  0  0  0  0  0  0  0  0  0  0  0
   18.4725  -21.8072  -13.6929 C   0  0  0  0  0  0  0  0  0  0  0  0
   18.6938  -20.6216  -13.2153 O   0  0  0  0  0  0  0  0  0  0  0  0
   17.3773  -21.9676  -14.5063 O   0  0  0  0  0  0  0  0  0  0  0  0
  2  1  1  1
  3  2  1  0
  4  3  1  0
  5  6  1  0
  5  4  1  0
  7  6  1  0
  8  2  1  0
  8  9  2  0
 12 11  1  6
 11 10  1  0
 12 13  1  0
 13  8  1  0
 14 12  1  0
 15 14  2  0
 16 14  1  0
 17 23  1  0
 17 16  1  0
 17 18  1  1
 19 20  1  0
 19 18  1  0
 21 20  1  0
 21 22  1  0
 23 25  1  0
 24 23  2  0
M  END
$$$$
