KSK.pdb
     RDKit          3D

 25 24  0  0  1  0  0  0  0  0999 V2000
   22.0018  -19.2833  -16.1228 N   0  0  0  0  0  0  0  0  0  0  0  0
   23.0690  -19.5268  -15.1716 C   0  0  1  0  0  0  0  0  0  0  0  0
   22.7756  -20.7134  -14.2890 C   0  0  0  0  0  0  0  0  0  0  0  0
   21.4367  -21.3362  -14.5578 C   0  0  0  0  0  0  0  0  0  0  0  0
   20.3659  -20.6669  -13.7520 C   0  0  0  0  0  0  0  0  0  0  0  0
   19.0537  -21.3689  -14.0514 C   0  0  0  0  0  0  0  0  0  0  0  0
   17.9742  -20.7364  -13.3099 N   0  0  0  0  0  0  0  0  0  0  0  0
   24.2918  -19.8617  -15.9547 C   0  0  0  0  0  0  0  0  0  0  0  0
   24.2651  -20.7004  -16.9196 O   0  0  0  0  0  0  0  0  0  0  0  0
   28.0911  -18.3273  -15.0084 O   0  0  0  0  0  0  0  0  0  0  0  0
   27.7758  -18.4823  -16.3330 C   0  0  0  0  0  0  0  0  0  0  0  0
   26.7538  -19.5921  -16.4924 C   0  0  2  0  0  0  0  0  0  0  0  0
   25.5643  -19.2784  -15.6883 N   0  0  0  0  0  0  0  0  0  0  0  0
   27.2768  -20.9157  -16.0847 C   0  0  0  0  0  0  0  0  0  0  0  0
   27.1902  -21.2653  -14.8571 O   0  0  0  0  0  0  0  0  0  0  0  0
   27.8719  -21.8300  -16.9712 N   0  0  0  0  0  0  0  0  0  0  0  0
   28.4538  -23.1458  -16.4641 C   0  0  1  0  0  0  0  0  0  0  0  0
   27.6114  -24.2061  -17.0365 C   0  0  0  0  0  0  0  0  0  0  0  0
   27.8674  -25.6173  -16.8117 C   0  0  0  0  0  0  0  0  0  0  0  0
   27.1373  -26.7036  -17.4671 C   0  0  0  0  0  0  0  0  0  0  0  0
   27.8012  -28.0271  -16.9527 C   0  0  0  0  0  0  0  0  0  0  0  0
   27.0402  -29.1502  -17.4297 N   0  0  0  0  0  0  0  0  0  0  0  0
   29.8471  -23.0889  -16.8677 C   0  0  0  0  0  0  0  0  0  0  0  0
   30.1729  -22.3249  -17.8642 O   0  0  0  0  0  0  0  0  0  0  0  0
   30.8549  -23.7902  -16.2520 O   0  0  0  0  0  0  0  0  0  0  0  0
  2  1  1  6
  3  2  1  0
  4  3  1  0
  5  6  1  0
  5  4  1  0
  7  6  1  0
  8  2  1  0
  8  9  2  0
 12 11  1  1
 11 10  1  0
 12 13  1  0
 13  8  1  0
 14 12  1  0
 15 14  2  0
 16 14  1  0
 17 23  1  0
 17 16  1  0
 17 18  1  6
 19 20  1  0
 19 18  1  0
 21 20  1  0
 21 22  1  0
 23 25  1  0
 24 23  2  0
M  END
$$$$
