KSK.pdb
     RDKit          3D

 25 24  0  0  1  0  0  0  0  0999 V2000
   30.2363  -20.5440  -10.9308 N   0  0  0  0  0  0  0  0  0  0  0  0
   29.8879  -21.2710  -12.1362 C   0  0  1  0  0  0  0  0  0  0  0  0
   30.6378  -22.5746  -12.2430 C   0  0  0  0  0  0  0  0  0  0  0  0
   32.0988  -22.4467  -11.9237 C   0  0  0  0  0  0  0  0  0  0  0  0
   32.8433  -23.6816  -12.3294 C   0  0  0  0  0  0  0  0  0  0  0  0
   34.2838  -23.5237  -11.8773 C   0  0  0  0  0  0  0  0  0  0  0  0
   35.0361  -24.7275  -12.1935 N   0  0  0  0  0  0  0  0  0  0  0  0
   28.4399  -21.6109  -12.0450 C   0  0  0  0  0  0  0  0  0  0  0  0
   27.9244  -22.5536  -12.7384 O   0  0  0  0  0  0  0  0  0  0  0  0
   25.8943  -19.7013   -9.3244 O   0  0  0  0  0  0  0  0  0  0  0  0
   25.7279  -21.0413   -9.5585 C   0  0  0  0  0  0  0  0  0  0  0  0
   26.1542  -21.3729  -10.9762 C   0  0  2  0  0  0  0  0  0  0  0  0
   27.5357  -20.9185  -11.1887 N   0  0  0  0  0  0  0  0  0  0  0  0
   25.2798  -20.7531  -11.9975 C   0  0  0  0  0  0  0  0  0  0  0  0
   25.4205  -19.5094  -12.2620 O   0  0  0  0  0  0  0  0  0  0  0  0
   24.2885  -21.4516  -12.7085 N   0  0  0  0  0  0  0  0  0  0  0  0
   23.3752  -20.7279  -13.6929 C   0  0  1  0  0  0  0  0  0  0  0  0
   23.1136  -21.6847  -14.7780 C   0  0  0  0  0  0  0  0  0  0  0  0
   22.4522  -21.3064  -16.0137 C   0  0  0  0  0  0  0  0  0  0  0  0
   22.0475  -22.2508  -17.0564 C   0  0  0  0  0  0  0  0  0  0  0  0
   21.4241  -21.3757  -18.1978 C   0  0  0  0  0  0  0  0  0  0  0  0
   21.1140  -22.2196  -19.3201 N   0  0  0  0  0  0  0  0  0  0  0  0
   22.2539  -20.2988  -12.8767 C   0  0  0  0  0  0  0  0  0  0  0  0
   21.5127  -19.3242  -13.3052 O   0  0  0  0  0  0  0  0  0  0  0  0
   21.9167  -20.8686  -11.6733 O   0  0  0  0  0  0  0  0  0  0  0  0
  2  1  1  1
  3  2  1  0
  4  3  1  0
  5  6  1  0
  5  4  1  0
  7  6  1  0
  8  2  1  0
  8  9  2  0
 12 11  1  1
 11 10  1  0
 12 13  1  0
 13  8  1  0
 14 12  1  0
 15 14  2  0
 16 14  1  0
 17 23  1  0
 17 16  1  0
 17 18  1  6
 19 20  1  0
 19 18  1  0
 21 20  1  0
 21 22  1  0
 23 25  1  0
 24 23  2  0
M  END
$$$$
