KSK.pdb
     RDKit          3D

 25 24  0  0  1  0  0  0  0  0999 V2000
   28.4222  -20.1890  -14.8702 N   0  0  0  0  0  0  0  0  0  0  0  0
   27.4489  -20.1913  -15.9451 C   0  0  1  0  0  0  0  0  0  0  0  0
   27.8543  -21.1112  -17.0688 C   0  0  0  0  0  0  0  0  0  0  0  0
   28.9292  -22.0841  -16.6806 C   0  0  0  0  0  0  0  0  0  0  0  0
   29.3150  -22.9448  -17.8444 C   0  0  0  0  0  0  0  0  0  0  0  0
   30.3424  -23.9502  -17.3566 C   0  0  0  0  0  0  0  0  0  0  0  0
   30.6710  -24.8797  -18.4260 N   0  0  0  0  0  0  0  0  0  0  0  0
   26.1746  -20.7255  -15.3870 C   0  0  0  0  0  0  0  0  0  0  0  0
   25.1380  -20.8940  -16.1166 O   0  0  0  0  0  0  0  0  0  0  0  0
   25.5210  -21.0878  -11.2952 O   0  0  0  0  0  0  0  0  0  0  0  0
   24.9660  -22.0812  -12.0588 C   0  0  0  0  0  0  0  0  0  0  0  0
   24.7486  -21.5815  -13.4746 C   0  0  2  0  0  0  0  0  0  0  0  0
   26.0207  -21.0831  -14.0163 N   0  0  0  0  0  0  0  0  0  0  0  0
   23.7356  -20.5048  -13.5532 C   0  0  0  0  0  0  0  0  0  0  0  0
   24.0596  -19.3210  -13.1921 O   0  0  0  0  0  0  0  0  0  0  0  0
   22.4191  -20.6990  -14.0061 N   0  0  0  0  0  0  0  0  0  0  0  0
   21.4369  -19.5341  -14.0791 C   0  0  1  0  0  0  0  0  0  0  0  0
   21.8173  -18.7604  -15.2700 C   0  0  0  0  0  0  0  0  0  0  0  0
   21.0943  -17.5769  -15.6993 C   0  0  0  0  0  0  0  0  0  0  0  0
   21.3650  -16.8487  -16.9400 C   0  0  0  0  0  0  0  0  0  0  0  0
   20.3743  -15.6339  -16.9394 C   0  0  0  0  0  0  0  0  0  0  0  0
   20.6576  -14.7968  -18.0739 N   0  0  0  0  0  0  0  0  0  0  0  0
   20.1346  -20.1755  -14.0695 C   0  0  0  0  0  0  0  0  0  0  0  0
   20.0369  -21.3865  -14.5243 O   0  0  0  0  0  0  0  0  0  0  0  0
   18.9892  -19.5825  -13.5971 O   0  0  0  0  0  0  0  0  0  0  0  0
  2  1  1  1
  3  2  1  0
  4  3  1  0
  5  6  1  0
  5  4  1  0
  7  6  1  0
  8  2  1  0
  8  9  2  0
 12 11  1  1
 11 10  1  0
 12 13  1  0
 13  8  1  0
 14 12  1  0
 15 14  2  0
 16 14  1  0
 17 23  1  0
 17 16  1  0
 17 18  1  6
 19 20  1  0
 19 18  1  0
 21 20  1  0
 21 22  1  0
 23 25  1  0
 24 23  2  0
M  END
$$$$
