KSK.pdb
     RDKit          3D

 25 24  0  0  1  0  0  0  0  0999 V2000
   21.0642  -14.2970  -16.5370 N   0  0  0  0  0  0  0  0  0  0  0  0
   20.1582  -13.3297  -17.1254 C   0  0  1  0  0  0  0  0  0  0  0  0
   18.7715  -13.8941  -17.3037 C   0  0  0  0  0  0  0  0  0  0  0  0
   18.7135  -15.0255  -18.2883 C   0  0  0  0  0  0  0  0  0  0  0  0
   17.3032  -15.4922  -18.4817 C   0  0  0  0  0  0  0  0  0  0  0  0
   17.3205  -16.6026  -19.5165 C   0  0  0  0  0  0  0  0  0  0  0  0
   15.9673  -17.0818  -19.7503 N   0  0  0  0  0  0  0  0  0  0  0  0
   20.0429  -12.1927  -16.1692 C   0  0  0  0  0  0  0  0  0  0  0  0
   19.2907  -12.2543  -15.1369 O   0  0  0  0  0  0  0  0  0  0  0  0
   22.7998   -9.1097  -15.9979 O   0  0  0  0  0  0  0  0  0  0  0  0
   22.0402   -9.4628  -14.9133 C   0  0  0  0  0  0  0  0  0  0  0  0
   20.6502   -9.8662  -15.3678 C   0  0  2  0  0  0  0  0  0  0  0  0
   20.7540  -10.9689  -16.3338 N   0  0  0  0  0  0  0  0  0  0  0  0
   19.9035   -8.7489  -15.9891 C   0  0  0  0  0  0  0  0  0  0  0  0
   19.9589   -8.5960  -17.2581 O   0  0  0  0  0  0  0  0  0  0  0  0
   19.1242   -7.8293  -15.2660 N   0  0  0  0  0  0  0  0  0  0  0  0
   18.4781   -6.6348  -15.9606 C   0  0  1  0  0  0  0  0  0  0  0  0
   17.1693   -6.4533  -15.3160 C   0  0  0  0  0  0  0  0  0  0  0  0
   16.2169   -5.4456  -15.7463 C   0  0  0  0  0  0  0  0  0  0  0  0
   14.8805   -5.2745  -15.1739 C   0  0  0  0  0  0  0  0  0  0  0  0
   14.2851   -4.0015  -15.8684 C   0  0  0  0  0  0  0  0  0  0  0  0
   12.8930   -3.8882  -15.5265 N   0  0  0  0  0  0  0  0  0  0  0  0
   19.4611   -5.5759  -15.8188 C   0  0  0  0  0  0  0  0  0  0  0  0
   20.3502   -5.6775  -14.8797 O   0  0  0  0  0  0  0  0  0  0  0  0
   19.5185   -4.4671  -16.6275 O   0  0  0  0  0  0  0  0  0  0  0  0
  2  1  1  1
  3  2  1  0
  4  3  1  0
  5  6  1  0
  5  4  1  0
  7  6  1  0
  8  2  1  0
  8  9  2  0
 12 11  1  6
 11 10  1  0
 12 13  1  0
 13  8  1  0
 14 12  1  0
 15 14  2  0
 16 14  1  0
 17 23  1  0
 17 16  1  0
 17 18  1  1
 19 20  1  0
 19 18  1  0
 21 20  1  0
 21 22  1  0
 23 25  1  0
 24 23  2  0
M  END
$$$$
