KSK.pdb
     RDKit          3D

 25 24  0  0  1  0  0  0  0  0999 V2000
   20.8941  -22.9247  -13.5076 N   0  0  0  0  0  0  0  0  0  0  0  0
   20.4641  -21.6526  -12.9604 C   0  0  1  0  0  0  0  0  0  0  0  0
   19.8806  -21.8034  -11.5784 C   0  0  0  0  0  0  0  0  0  0  0  0
   18.8062  -22.8485  -11.4988 C   0  0  0  0  0  0  0  0  0  0  0  0
   18.9633  -23.6816  -10.2638 C   0  0  0  0  0  0  0  0  0  0  0  0
   17.8194  -24.6789  -10.2291 C   0  0  0  0  0  0  0  0  0  0  0  0
   17.9800  -25.5765   -9.0960 N   0  0  0  0  0  0  0  0  0  0  0  0
   21.6761  -20.7958  -12.8272 C   0  0  0  0  0  0  0  0  0  0  0  0
   21.6336  -19.6530  -12.2550 O   0  0  0  0  0  0  0  0  0  0  0  0
   25.6243  -22.1915  -13.1089 O   0  0  0  0  0  0  0  0  0  0  0  0
   25.1990  -21.1165  -12.3729 C   0  0  0  0  0  0  0  0  0  0  0  0
   24.1491  -20.3441  -13.1492 C   0  0  2  0  0  0  0  0  0  0  0  0
   22.9550  -21.1834  -13.3218 N   0  0  0  0  0  0  0  0  0  0  0  0
   24.6273  -19.9058  -14.4799 C   0  0  0  0  0  0  0  0  0  0  0  0
   24.6187  -20.7418  -15.4483 O   0  0  0  0  0  0  0  0  0  0  0  0
   25.0981  -18.6102  -14.7557 N   0  0  0  0  0  0  0  0  0  0  0  0
   25.5727  -18.2317  -16.1551 C   0  0  1  0  0  0  0  0  0  0  0  0
   26.8586  -18.9189  -16.3440 C   0  0  0  0  0  0  0  0  0  0  0  0
   27.5541  -18.9437  -17.6181 C   0  0  0  0  0  0  0  0  0  0  0  0
   28.8173  -19.6443  -17.8559 C   0  0  0  0  0  0  0  0  0  0  0  0
   29.1755  -19.3679  -19.3567 C   0  0  0  0  0  0  0  0  0  0  0  0
   30.5015  -19.8578  -19.6207 N   0  0  0  0  0  0  0  0  0  0  0  0
   24.4645  -18.6103  -17.0130 C   0  0  0  0  0  0  0  0  0  0  0  0
   23.9494  -17.7108  -17.7930 O   0  0  0  0  0  0  0  0  0  0  0  0
   23.9261  -19.8730  -17.0610 O   0  0  0  0  0  0  0  0  0  0  0  0
  2  1  1  1
  3  2  1  0
  4  3  1  0
  5  6  1  0
  5  4  1  0
  7  6  1  0
  8  2  1  0
  8  9  2  0
 12 11  1  6
 11 10  1  0
 12 13  1  0
 13  8  1  0
 14 12  1  0
 15 14  2  0
 16 14  1  0
 17 23  1  0
 17 16  1  0
 17 18  1  6
 19 20  1  0
 19 18  1  0
 21 20  1  0
 21 22  1  0
 23 25  1  0
 24 23  2  0
M  END
$$$$
