LVI.pdb
     RDKit          3D

 24 23  0  0  1  0  0  0  0  0999 V2000
    9.6677  -13.2990   19.9449 C   0  0  0  0  0  0  0  0  0  0  0  0
    8.7882  -13.3263   18.7218 C   0  0  2  0  0  0  0  0  0  0  0  0
    8.0732  -12.0070   18.6076 C   0  0  0  0  0  0  0  0  0  0  0  0
    7.8129  -14.4524   18.8473 C   0  0  0  0  0  0  0  0  0  0  0  0
    8.5674  -15.7227   19.2633 C   0  0  2  0  0  0  0  0  0  0  0  0
    8.1839  -16.7382   18.3215 N   0  0  0  0  0  0  0  0  0  0  0  0
    8.1571  -16.0437   20.6506 C   0  0  0  0  0  0  0  0  0  0  0  0
    6.9386  -16.2642   20.8729 O   0  0  0  0  0  0  0  0  0  0  0  0
    8.5485  -18.9038   22.4112 C   0  0  0  0  0  0  0  0  0  0  0  0
    9.0918  -17.8660   23.3598 C   0  0  1  0  0  0  0  0  0  0  0  0
   10.5956  -17.9190   23.4796 C   0  0  0  0  0  0  0  0  0  0  0  0
    8.5739  -16.4803   23.0617 C   0  0  2  0  0  0  0  0  0  0  0  0
    9.0517  -16.1208   21.7567 N   0  0  0  0  0  0  0  0  0  0  0  0
    8.8916  -15.4940   24.1042 C   0  0  0  0  0  0  0  0  0  0  0  0
   10.0605  -15.0074   24.0759 O   0  0  0  0  0  0  0  0  0  0  0  0
    5.3974  -12.1606   27.3469 C   0  0  0  0  0  0  0  0  0  0  0  0
    6.1253  -13.1233   26.5146 C   0  0  0  0  0  0  0  0  0  0  0  0
    7.5125  -12.8995   26.0858 C   0  0  2  0  0  0  0  0  0  0  0  0
    7.4638  -12.1724   24.7336 C   0  0  0  0  0  0  0  0  0  0  0  0
    8.4367  -14.0234   26.0929 C   0  0  2  0  0  0  0  0  0  0  0  0
    8.0490  -15.0469   25.1048 N   0  0  0  0  0  0  0  0  0  0  0  0
    8.7550  -14.7637   27.2973 C   0  0  0  0  0  0  0  0  0  0  0  0
    9.4723  -14.2436   28.3376 O   0  0  0  0  0  0  0  0  0  0  0  0
    8.3895  -15.9880   27.4831 O   0  0  0  0  0  0  0  0  0  0  0  0
  2  1  1  1
  2  3  1  0
  4  5  1  0
  4  2  1  0
  5  7  1  0
  5  6  1  6
  7  8  2  0
 10 11  1  6
 10 12  1  0
 10  9  1  0
 12 13  1  6
 13  7  1  0
 14 12  1  0
 14 15  2  0
 16 17  1  0
 17 18  1  0
 18 20  1  0
 18 19  1  6
 20 22  1  0
 20 21  1  6
 21 14  1  0
 22 23  1  0
 24 22  2  0
M  END
$$$$
