LVI.pdb
     RDKit          3D

 24 23  0  0  1  0  0  0  0  0999 V2000
    9.1962  -14.2526   19.8797 C   0  0  0  0  0  0  0  0  0  0  0  0
    7.9141  -14.0086   19.1267 C   0  0  2  0  0  0  0  0  0  0  0  0
    7.7276  -12.5256   18.9522 C   0  0  0  0  0  0  0  0  0  0  0  0
    6.7770  -14.6025   19.8944 C   0  0  0  0  0  0  0  0  0  0  0  0
    7.0822  -16.0802   20.1762 C   0  0  2  0  0  0  0  0  0  0  0  0
    6.2173  -16.8356   19.3123 N   0  0  0  0  0  0  0  0  0  0  0  0
    6.8084  -16.3199   21.6128 C   0  0  0  0  0  0  0  0  0  0  0  0
    5.7078  -15.9288   22.0802 O   0  0  0  0  0  0  0  0  0  0  0  0
    7.4045  -18.8806   25.6931 C   0  0  0  0  0  0  0  0  0  0  0  0
    7.5476  -18.5961   24.2197 C   0  0  1  0  0  0  0  0  0  0  0  0
    6.6857  -19.4962   23.3679 C   0  0  0  0  0  0  0  0  0  0  0  0
    7.3741  -17.1333   23.8922 C   0  0  2  0  0  0  0  0  0  0  0  0
    7.7099  -16.9663   22.5066 N   0  0  0  0  0  0  0  0  0  0  0  0
    8.1081  -16.2348   24.7948 C   0  0  0  0  0  0  0  0  0  0  0  0
    9.3313  -16.0481   24.5247 O   0  0  0  0  0  0  0  0  0  0  0  0
    5.8335  -11.7370   26.4274 C   0  0  0  0  0  0  0  0  0  0  0  0
    6.9239  -12.6637   26.1087 C   0  0  0  0  0  0  0  0  0  0  0  0
    7.5736  -13.4935   27.1322 C   0  0  2  0  0  0  0  0  0  0  0  0
    8.3178  -12.5474   28.0864 C   0  0  0  0  0  0  0  0  0  0  0  0
    8.3856  -14.6229   26.7050 C   0  0  2  0  0  0  0  0  0  0  0  0
    7.6013  -15.5775   25.9003 N   0  0  0  0  0  0  0  0  0  0  0  0
    9.1347  -15.4416   27.6369 C   0  0  0  0  0  0  0  0  0  0  0  0
    8.6255  -16.5544   28.2449 O   0  0  0  0  0  0  0  0  0  0  0  0
   10.3524  -15.1791   27.9765 O   0  0  0  0  0  0  0  0  0  0  0  0
  2  1  1  1
  2  3  1  0
  4  5  1  0
  4  2  1  0
  5  7  1  0
  5  6  1  6
  7  8  2  0
 10 11  1  6
 10 12  1  0
 10  9  1  0
 12 13  1  6
 13  7  1  0
 14 12  1  0
 14 15  2  0
 16 17  1  0
 17 18  1  0
 18 20  1  0
 18 19  1  6
 20 22  1  0
 20 21  1  1
 21 14  1  0
 22 23  1  0
 24 22  2  0
M  END
$$$$
