LVI.pdb
     RDKit          3D

 24 23  0  0  1  0  0  0  0  0999 V2000
    9.3887  -13.8161   19.4093 C   0  0  0  0  0  0  0  0  0  0  0  0
    8.0156  -13.7156   18.7971 C   0  0  2  0  0  0  0  0  0  0  0  0
    7.6678  -12.2622   18.6195 C   0  0  0  0  0  0  0  0  0  0  0  0
    7.0308  -14.3940   19.6943 C   0  0  0  0  0  0  0  0  0  0  0  0
    7.4527  -15.8576   19.8833 C   0  0  2  0  0  0  0  0  0  0  0  0
    6.6984  -16.6151   18.9228 N   0  0  0  0  0  0  0  0  0  0  0  0
    7.1362  -16.2297   21.2823 C   0  0  0  0  0  0  0  0  0  0  0  0
    5.9526  -16.0812   21.6824 O   0  0  0  0  0  0  0  0  0  0  0  0
    7.8545  -18.8539   25.2812 C   0  0  0  0  0  0  0  0  0  0  0  0
    8.0455  -18.4729   23.8354 C   0  0  1  0  0  0  0  0  0  0  0  0
    7.3584  -19.4261   22.8878 C   0  0  0  0  0  0  0  0  0  0  0  0
    7.7038  -17.0278   23.5667 C   0  0  2  0  0  0  0  0  0  0  0  0
    8.0842  -16.7471   22.2113 N   0  0  0  0  0  0  0  0  0  0  0  0
    8.2716  -16.0940   24.5496 C   0  0  0  0  0  0  0  0  0  0  0  0
    9.5286  -15.9429   24.5160 O   0  0  0  0  0  0  0  0  0  0  0  0
    5.8317  -11.4949   26.0075 C   0  0  0  0  0  0  0  0  0  0  0  0
    6.8112  -12.5563   25.7560 C   0  0  0  0  0  0  0  0  0  0  0  0
    7.3931  -13.3605   26.8391 C   0  0  2  0  0  0  0  0  0  0  0  0
    8.0727  -12.3907   27.8174 C   0  0  0  0  0  0  0  0  0  0  0  0
    8.2321  -14.4977   26.4925 C   0  0  2  0  0  0  0  0  0  0  0  0
    7.5768  -15.3689   25.4997 N   0  0  0  0  0  0  0  0  0  0  0  0
    8.7718  -15.4011   27.4888 C   0  0  0  0  0  0  0  0  0  0  0  0
   10.0264  -15.2826   28.0171 O   0  0  0  0  0  0  0  0  0  0  0  0
    8.1072  -16.4044   27.9566 O   0  0  0  0  0  0  0  0  0  0  0  0
  2  1  1  1
  2  3  1  0
  4  5  1  0
  4  2  1  0
  5  7  1  0
  5  6  1  6
  7  8  2  0
 10 11  1  6
 10 12  1  0
 10  9  1  0
 12 13  1  6
 13  7  1  0
 14 12  1  0
 14 15  2  0
 16 17  1  0
 17 18  1  0
 18 20  1  0
 18 19  1  1
 20 22  1  0
 20 21  1  6
 21 14  1  0
 22 23  1  0
 24 22  2  0
M  END
$$$$
