LVI.pdb
     RDKit          3D

 24 23  0  0  1  0  0  0  0  0999 V2000
    9.6798  -13.6853   19.2271 C   0  0  0  0  0  0  0  0  0  0  0  0
    8.3759  -13.6334   18.4739 C   0  0  2  0  0  0  0  0  0  0  0  0
    7.9555  -12.1958   18.3281 C   0  0  0  0  0  0  0  0  0  0  0  0
    7.3472  -14.4164   19.2250 C   0  0  0  0  0  0  0  0  0  0  0  0
    7.9091  -15.8105   19.5356 C   0  0  2  0  0  0  0  0  0  0  0  0
    7.3933  -16.6823   18.5162 N   0  0  0  0  0  0  0  0  0  0  0  0
    7.4448  -16.1795   20.8937 C   0  0  0  0  0  0  0  0  0  0  0  0
    6.2139  -16.1002   21.1417 O   0  0  0  0  0  0  0  0  0  0  0  0
    7.8144  -18.5673   25.0862 C   0  0  0  0  0  0  0  0  0  0  0  0
    8.1072  -18.2668   23.6384 C   0  0  1  0  0  0  0  0  0  0  0  0
    7.4899  -19.2749   22.6995 C   0  0  0  0  0  0  0  0  0  0  0  0
    7.7841  -16.8407   23.2654 C   0  0  2  0  0  0  0  0  0  0  0  0
    8.3001  -16.6207   21.9441 N   0  0  0  0  0  0  0  0  0  0  0  0
    8.2405  -15.8537   24.2544 C   0  0  0  0  0  0  0  0  0  0  0  0
    9.4916  -15.6700   24.3247 O   0  0  0  0  0  0  0  0  0  0  0  0
    6.8192  -10.5634   27.0625 C   0  0  0  0  0  0  0  0  0  0  0  0
    7.5830  -11.8113   26.9683 C   0  0  0  0  0  0  0  0  0  0  0  0
    7.1429  -12.9404   26.1378 C   0  0  2  0  0  0  0  0  0  0  0  0
    5.6938  -13.2633   26.5318 C   0  0  0  0  0  0  0  0  0  0  0  0
    7.9872  -14.1231   26.0614 C   0  0  2  0  0  0  0  0  0  0  0  0
    7.4475  -15.1106   25.1088 N   0  0  0  0  0  0  0  0  0  0  0  0
    8.3595  -14.8925   27.2316 C   0  0  0  0  0  0  0  0  0  0  0  0
    9.4215  -14.5833   28.0339 O   0  0  0  0  0  0  0  0  0  0  0  0
    7.7162  -15.9462   27.6097 O   0  0  0  0  0  0  0  0  0  0  0  0
  2  1  1  1
  2  3  1  0
  4  5  1  0
  4  2  1  0
  5  7  1  0
  5  6  1  6
  7  8  2  0
 10 11  1  6
 10 12  1  0
 10  9  1  0
 12 13  1  6
 13  7  1  0
 14 12  1  0
 14 15  2  0
 16 17  1  0
 17 18  1  0
 18 20  1  0
 18 19  1  1
 20 22  1  0
 20 21  1  6
 21 14  1  0
 22 23  1  0
 24 22  2  0
M  END
$$$$
