LVI.pdb
     RDKit          3D

 24 23  0  0  1  0  0  0  0  0999 V2000
    9.9594  -13.2060   19.1272 C   0  0  0  0  0  0  0  0  0  0  0  0
    8.5531  -13.1319   18.5915 C   0  0  2  0  0  0  0  0  0  0  0  0
    7.9805  -11.7783   18.9149 C   0  0  0  0  0  0  0  0  0  0  0  0
    7.7364  -14.2189   19.2133 C   0  0  0  0  0  0  0  0  0  0  0  0
    8.5861  -15.4942   19.3009 C   0  0  2  0  0  0  0  0  0  0  0  0
    8.0457  -16.3988   18.3237 N   0  0  0  0  0  0  0  0  0  0  0  0
    8.4662  -16.0084   20.6856 C   0  0  0  0  0  0  0  0  0  0  0  0
    7.3215  -16.3160   21.1072 O   0  0  0  0  0  0  0  0  0  0  0  0
   10.3955  -18.4345   24.4294 C   0  0  0  0  0  0  0  0  0  0  0  0
   10.3602  -17.8751   23.0301 C   0  0  1  0  0  0  0  0  0  0  0  0
   10.1975  -18.9471   21.9799 C   0  0  0  0  0  0  0  0  0  0  0  0
    9.3663  -16.7495   22.8806 C   0  0  2  0  0  0  0  0  0  0  0  0
    9.5636  -16.1800   21.5778 N   0  0  0  0  0  0  0  0  0  0  0  0
    9.4175  -15.7675   23.9731 C   0  0  0  0  0  0  0  0  0  0  0  0
   10.4631  -15.0557   24.0368 O   0  0  0  0  0  0  0  0  0  0  0  0
    6.4103  -11.5650   27.1437 C   0  0  0  0  0  0  0  0  0  0  0  0
    7.5021  -12.5371   27.0323 C   0  0  0  0  0  0  0  0  0  0  0  0
    7.4516  -13.6711   26.0996 C   0  0  2  0  0  0  0  0  0  0  0  0
    6.1282  -14.4107   26.3465 C   0  0  0  0  0  0  0  0  0  0  0  0
    8.5965  -14.5661   26.0242 C   0  0  2  0  0  0  0  0  0  0  0  0
    8.4460  -15.5438   24.9309 N   0  0  0  0  0  0  0  0  0  0  0  0
    9.0584  -15.3387   27.1599 C   0  0  0  0  0  0  0  0  0  0  0  0
    9.8649  -14.8338   28.1407 O   0  0  0  0  0  0  0  0  0  0  0  0
    8.7484  -16.5799   27.3342 O   0  0  0  0  0  0  0  0  0  0  0  0
  2  1  1  1
  2  3  1  0
  4  5  1  0
  4  2  1  0
  5  7  1  0
  5  6  1  6
  7  8  2  0
 10 11  1  6
 10 12  1  0
 10  9  1  0
 12 13  1  6
 13  7  1  0
 14 12  1  0
 14 15  2  0
 16 17  1  0
 17 18  1  0
 18 20  1  0
 18 19  1  1
 20 22  1  0
 20 21  1  6
 21 14  1  0
 22 23  1  0
 24 22  2  0
M  END
$$$$
