LVI.pdb
     RDKit          3D

 24 23  0  0  1  0  0  0  0  0999 V2000
   12.3331  -20.8297   23.3520 C   0  0  0  0  0  0  0  0  0  0  0  0
   12.1763  -20.1133   22.0357 C   0  0  2  0  0  0  0  0  0  0  0  0
   13.4122  -20.3415   21.2079 C   0  0  0  0  0  0  0  0  0  0  0  0
   11.9700  -18.6555   22.2954 C   0  0  0  0  0  0  0  0  0  0  0  0
   11.5059  -17.9779   20.9987 C   0  0  2  0  0  0  0  0  0  0  0  0
   12.6975  -17.7180   20.2385 N   0  0  0  0  0  0  0  0  0  0  0  0
   10.7892  -16.7387   21.3818 C   0  0  0  0  0  0  0  0  0  0  0  0
   11.4734  -15.7333   21.7041 O   0  0  0  0  0  0  0  0  0  0  0  0
    6.6709  -14.0368   21.5253 C   0  0  0  0  0  0  0  0  0  0  0  0
    7.5227  -15.1742   21.0221 C   0  0  1  0  0  0  0  0  0  0  0  0
    7.8245  -15.0654   19.5470 C   0  0  0  0  0  0  0  0  0  0  0  0
    8.7584  -15.3883   21.8612 C   0  0  2  0  0  0  0  0  0  0  0  0
    9.3711  -16.6058   21.4106 N   0  0  0  0  0  0  0  0  0  0  0  0
    8.5036  -15.3506   23.3083 C   0  0  0  0  0  0  0  0  0  0  0  0
    8.8588  -16.3734   23.9655 O   0  0  0  0  0  0  0  0  0  0  0  0
    7.1116  -11.4175   27.9898 C   0  0  0  0  0  0  0  0  0  0  0  0
    7.4387  -12.7293   27.4229 C   0  0  0  0  0  0  0  0  0  0  0  0
    7.4091  -12.9894   25.9772 C   0  0  2  0  0  0  0  0  0  0  0  0
    6.0138  -12.5977   25.4683 C   0  0  0  0  0  0  0  0  0  0  0  0
    7.8461  -14.2896   25.4915 C   0  0  2  0  0  0  0  0  0  0  0  0
    7.9199  -14.3186   24.0192 N   0  0  0  0  0  0  0  0  0  0  0  0
    7.1813  -15.5234   25.8600 C   0  0  0  0  0  0  0  0  0  0  0  0
    6.1789  -16.0914   25.1252 O   0  0  0  0  0  0  0  0  0  0  0  0
    7.4804  -16.1879   26.9259 O   0  0  0  0  0  0  0  0  0  0  0  0
  2  1  1  1
  2  3  1  0
  4  5  1  0
  4  2  1  0
  5  7  1  0
  5  6  1  6
  7  8  2  0
 10 11  1  6
 10 12  1  0
 10  9  1  0
 12 13  1  6
 13  7  1  0
 14 12  1  0
 14 15  2  0
 16 17  1  0
 17 18  1  0
 18 20  1  0
 18 19  1  1
 20 22  1  0
 20 21  1  6
 21 14  1  0
 22 23  1  0
 24 22  2  0
M  END
$$$$
