LVI.pdb
     RDKit          3D

 24 23  0  0  1  0  0  0  0  0999 V2000
    9.0634  -20.1631   19.0295 C   0  0  0  0  0  0  0  0  0  0  0  0
   10.0817  -20.3751   20.1197 C   0  0  2  0  0  0  0  0  0  0  0  0
    9.7206  -21.6183   20.8870 C   0  0  0  0  0  0  0  0  0  0  0  0
   10.0923  -19.1790   21.0165 C   0  0  0  0  0  0  0  0  0  0  0  0
   10.3535  -17.9240   20.1723 C   0  0  2  0  0  0  0  0  0  0  0  0
   11.7569  -17.9388   19.8633 N   0  0  0  0  0  0  0  0  0  0  0  0
    9.9595  -16.7532   20.9909 C   0  0  0  0  0  0  0  0  0  0  0  0
   10.8104  -16.2681   21.7806 O   0  0  0  0  0  0  0  0  0  0  0  0
    6.9427  -12.9227   21.7143 C   0  0  0  0  0  0  0  0  0  0  0  0
    7.4523  -14.1057   20.9313 C   0  0  1  0  0  0  0  0  0  0  0  0
    8.0094  -13.7142   19.5841 C   0  0  0  0  0  0  0  0  0  0  0  0
    8.3987  -14.9664   21.7317 C   0  0  2  0  0  0  0  0  0  0  0  0
    8.6769  -16.1349   20.9456 N   0  0  0  0  0  0  0  0  0  0  0  0
    7.9219  -15.2630   23.0901 C   0  0  0  0  0  0  0  0  0  0  0  0
    7.2104  -16.3028   23.2184 O   0  0  0  0  0  0  0  0  0  0  0  0
    8.6358  -12.0585   28.0025 C   0  0  0  0  0  0  0  0  0  0  0  0
    8.0350  -12.8365   26.9148 C   0  0  0  0  0  0  0  0  0  0  0  0
    8.4415  -14.2170   26.6193 C   0  0  2  0  0  0  0  0  0  0  0  0
    9.9646  -14.2150   26.4205 C   0  0  0  0  0  0  0  0  0  0  0  0
    7.7341  -14.9466   25.5779 C   0  0  2  0  0  0  0  0  0  0  0  0
    8.1705  -14.5268   24.2336 N   0  0  0  0  0  0  0  0  0  0  0  0
    6.2876  -14.9969   25.5060 C   0  0  0  0  0  0  0  0  0  0  0  0
    5.5200  -15.8217   26.2791 O   0  0  0  0  0  0  0  0  0  0  0  0
    5.6017  -14.2650   24.6930 O   0  0  0  0  0  0  0  0  0  0  0  0
  2  1  1  6
  2  3  1  0
  4  5  1  0
  4  2  1  0
  5  7  1  0
  5  6  1  1
  7  8  2  0
 10 11  1  6
 10 12  1  0
 10  9  1  0
 12 13  1  6
 13  7  1  0
 14 12  1  0
 14 15  2  0
 16 17  1  0
 17 18  1  0
 18 20  1  0
 18 19  1  6
 20 22  1  0
 20 21  1  6
 21 14  1  0
 22 23  1  0
 24 22  2  0
M  END
$$$$
