LVI.pdb
     RDKit          3D

 24 23  0  0  1  0  0  0  0  0999 V2000
    9.4805  -13.9806   19.6415 C   0  0  0  0  0  0  0  0  0  0  0  0
    8.2075  -13.7671   18.8642 C   0  0  2  0  0  0  0  0  0  0  0  0
    7.9280  -12.2905   18.7852 C   0  0  0  0  0  0  0  0  0  0  0  0
    7.0905  -14.4854   19.5508 C   0  0  0  0  0  0  0  0  0  0  0  0
    7.5458  -15.9123   19.8866 C   0  0  2  0  0  0  0  0  0  0  0  0
    6.8990  -16.7700   18.9319 N   0  0  0  0  0  0  0  0  0  0  0  0
    7.1290  -16.1904   21.2812 C   0  0  0  0  0  0  0  0  0  0  0  0
    5.9629  -15.8691   21.6271 O   0  0  0  0  0  0  0  0  0  0  0  0
    7.2968  -18.7314   25.3852 C   0  0  0  0  0  0  0  0  0  0  0  0
    7.5958  -18.4376   23.9373 C   0  0  1  0  0  0  0  0  0  0  0  0
    6.7960  -19.3013   22.9922 C   0  0  0  0  0  0  0  0  0  0  0  0
    7.5016  -16.9669   23.6127 C   0  0  2  0  0  0  0  0  0  0  0  0
    7.9617  -16.8003   22.2632 N   0  0  0  0  0  0  0  0  0  0  0  0
    8.1850  -16.1024   24.5853 C   0  0  0  0  0  0  0  0  0  0  0  0
    9.4506  -16.0981   24.5372 O   0  0  0  0  0  0  0  0  0  0  0  0
    5.7435  -11.5525   26.3563 C   0  0  0  0  0  0  0  0  0  0  0  0
    6.7368  -12.5501   25.9473 C   0  0  0  0  0  0  0  0  0  0  0  0
    7.5324  -13.3108   26.9203 C   0  0  2  0  0  0  0  0  0  0  0  0
    8.3253  -12.2969   27.7586 C   0  0  0  0  0  0  0  0  0  0  0  0
    8.3500  -14.4160   26.4436 C   0  0  2  0  0  0  0  0  0  0  0  0
    7.5899  -15.2991   25.5401 N   0  0  0  0  0  0  0  0  0  0  0  0
    9.0525  -15.3104   27.3417 C   0  0  0  0  0  0  0  0  0  0  0  0
   10.3631  -15.1522   27.6947 O   0  0  0  0  0  0  0  0  0  0  0  0
    8.4937  -16.3425   27.8799 O   0  0  0  0  0  0  0  0  0  0  0  0
  2  1  1  1
  2  3  1  0
  4  5  1  0
  4  2  1  0
  5  7  1  0
  5  6  1  6
  7  8  2  0
 10 11  1  6
 10 12  1  0
 10  9  1  0
 12 13  1  6
 13  7  1  0
 14 12  1  0
 14 15  2  0
 16 17  1  0
 17 18  1  0
 18 20  1  0
 18 19  1  6
 20 22  1  0
 20 21  1  1
 21 14  1  0
 22 23  1  0
 24 22  2  0
M  END
$$$$
