LVI.pdb
     RDKit          3D

 24 23  0  0  1  0  0  0  0  0999 V2000
   10.4631  -20.1126   19.4311 C   0  0  0  0  0  0  0  0  0  0  0  0
   11.6712  -19.9350   20.3137 C   0  0  2  0  0  0  0  0  0  0  0  0
   11.8265  -21.1578   21.1770 C   0  0  0  0  0  0  0  0  0  0  0  0
   11.4874  -18.7105   21.1515 C   0  0  0  0  0  0  0  0  0  0  0  0
   11.1901  -17.5169   20.2333 C   0  0  2  0  0  0  0  0  0  0  0  0
   12.4505  -17.1361   19.6573 N   0  0  0  0  0  0  0  0  0  0  0  0
   10.5995  -16.4502   21.0755 C   0  0  0  0  0  0  0  0  0  0  0  0
   11.3756  -15.7460   21.7716 O   0  0  0  0  0  0  0  0  0  0  0  0
    6.6142  -13.9353   22.6336 C   0  0  0  0  0  0  0  0  0  0  0  0
    7.3716  -14.7332   21.6031 C   0  0  1  0  0  0  0  0  0  0  0  0
    7.4809  -14.0166   20.2790 C   0  0  0  0  0  0  0  0  0  0  0  0
    8.7019  -15.2279   22.1158 C   0  0  2  0  0  0  0  0  0  0  0  0
    9.2059  -16.1647   21.1520 N   0  0  0  0  0  0  0  0  0  0  0  0
    8.6472  -15.7559   23.4865 C   0  0  0  0  0  0  0  0  0  0  0  0
    8.5223  -17.0113   23.5976 O   0  0  0  0  0  0  0  0  0  0  0  0
   10.6013  -12.7325   27.6873 C   0  0  0  0  0  0  0  0  0  0  0  0
   10.2602  -13.8581   26.8121 C   0  0  0  0  0  0  0  0  0  0  0  0
    9.0683  -14.6889   27.0300 C   0  0  2  0  0  0  0  0  0  0  0  0
    9.2049  -15.3337   28.4175 C   0  0  0  0  0  0  0  0  0  0  0  0
    8.6799  -15.6388   25.9984 C   0  0  2  0  0  0  0  0  0  0  0  0
    8.7184  -15.0256   24.6581 N   0  0  0  0  0  0  0  0  0  0  0  0
    7.4296  -16.3701   26.0425 C   0  0  0  0  0  0  0  0  0  0  0  0
    7.3114  -17.6374   26.5399 O   0  0  0  0  0  0  0  0  0  0  0  0
    6.3175  -15.8815   25.6046 O   0  0  0  0  0  0  0  0  0  0  0  0
  2  1  1  6
  2  3  1  0
  4  5  1  0
  4  2  1  0
  5  7  1  0
  5  6  1  1
  7  8  2  0
 10 11  1  6
 10 12  1  0
 10  9  1  0
 12 13  1  6
 13  7  1  0
 14 12  1  0
 14 15  2  0
 16 17  1  0
 17 18  1  0
 18 20  1  0
 18 19  1  1
 20 22  1  0
 20 21  1  6
 21 14  1  0
 22 23  1  0
 24 22  2  0
M  END
$$$$
