LVI.pdb
     RDKit          3D

 24 23  0  0  1  0  0  0  0  0999 V2000
   12.8160  -20.3292   19.9103 C   0  0  0  0  0  0  0  0  0  0  0  0
   13.9589  -19.4876   20.4161 C   0  0  2  0  0  0  0  0  0  0  0  0
   14.9526  -20.3820   21.1070 C   0  0  0  0  0  0  0  0  0  0  0  0
   13.4254  -18.4558   21.3574 C   0  0  0  0  0  0  0  0  0  0  0  0
   12.3730  -17.6100   20.6273 C   0  0  2  0  0  0  0  0  0  0  0  0
   13.0974  -16.8030   19.6842 N   0  0  0  0  0  0  0  0  0  0  0  0
   11.6699  -16.8021   21.6515 C   0  0  0  0  0  0  0  0  0  0  0  0
   12.2833  -15.8310   22.1648 O   0  0  0  0  0  0  0  0  0  0  0  0
    7.4532  -15.3808   23.7680 C   0  0  0  0  0  0  0  0  0  0  0  0
    8.2594  -16.0968   22.7146 C   0  0  1  0  0  0  0  0  0  0  0  0
    8.0269  -15.5438   21.3294 C   0  0  0  0  0  0  0  0  0  0  0  0
    9.7225  -16.1944   23.0712 C   0  0  2  0  0  0  0  0  0  0  0  0
   10.3400  -17.0499   22.0978 N   0  0  0  0  0  0  0  0  0  0  0  0
    9.9655  -16.6031   24.4620 C   0  0  0  0  0  0  0  0  0  0  0  0
   10.0875  -17.8470   24.6661 O   0  0  0  0  0  0  0  0  0  0  0  0
   10.2950  -13.1855   29.2787 C   0  0  0  0  0  0  0  0  0  0  0  0
    9.8973  -14.2588   28.3627 C   0  0  0  0  0  0  0  0  0  0  0  0
   10.8702  -15.1878   27.7721 C   0  0  2  0  0  0  0  0  0  0  0  0
   11.9668  -14.3429   27.1064 C   0  0  0  0  0  0  0  0  0  0  0  0
   10.3834  -16.2606   26.9181 C   0  0  2  0  0  0  0  0  0  0  0  0
   10.0740  -15.7724   25.5617 N   0  0  0  0  0  0  0  0  0  0  0  0
    9.2585  -17.0983   27.2829 C   0  0  0  0  0  0  0  0  0  0  0  0
    9.3380  -18.1205   28.1863 O   0  0  0  0  0  0  0  0  0  0  0  0
    8.0814  -16.9495   26.7736 O   0  0  0  0  0  0  0  0  0  0  0  0
  2  1  1  1
  2  3  1  0
  4  5  1  0
  4  2  1  0
  5  7  1  0
  5  6  1  6
  7  8  2  0
 10 11  1  6
 10 12  1  0
 10  9  1  0
 12 13  1  6
 13  7  1  0
 14 12  1  0
 14 15  2  0
 16 17  1  0
 17 18  1  0
 18 20  1  0
 18 19  1  6
 20 22  1  0
 20 21  1  6
 21 14  1  0
 22 23  1  0
 24 22  2  0
M  END
$$$$
