LVI.pdb
     RDKit          3D

 24 23  0  0  1  0  0  0  0  0999 V2000
    5.8969  -21.2845   27.2832 C   0  0  0  0  0  0  0  0  0  0  0  0
    6.0631  -21.1386   25.7928 C   0  0  2  0  0  0  0  0  0  0  0  0
    6.2627  -22.5029   25.1900 C   0  0  0  0  0  0  0  0  0  0  0  0
    7.2383  -20.2565   25.5171 C   0  0  0  0  0  0  0  0  0  0  0  0
    7.1807  -19.7898   24.0560 C   0  0  2  0  0  0  0  0  0  0  0  0
    7.9967  -20.7106   23.3131 N   0  0  0  0  0  0  0  0  0  0  0  0
    7.7009  -18.4028   24.0162 C   0  0  0  0  0  0  0  0  0  0  0  0
    8.8755  -18.1980   24.4176 O   0  0  0  0  0  0  0  0  0  0  0  0
    7.4520  -13.8268   22.2221 C   0  0  0  0  0  0  0  0  0  0  0  0
    7.0131  -15.2667   22.3003 C   0  0  1  0  0  0  0  0  0  0  0  0
    7.2731  -16.0236   21.0204 C   0  0  0  0  0  0  0  0  0  0  0  0
    7.5525  -15.9718   23.5206 C   0  0  2  0  0  0  0  0  0  0  0  0
    6.9591  -17.2785   23.5523 N   0  0  0  0  0  0  0  0  0  0  0  0
    7.3817  -15.2104   24.7663 C   0  0  0  0  0  0  0  0  0  0  0  0
    6.2485  -15.2991   25.3249 O   0  0  0  0  0  0  0  0  0  0  0  0
   11.1081  -14.9325   28.7165 C   0  0  0  0  0  0  0  0  0  0  0  0
    9.8490  -14.8899   27.9666 C   0  0  0  0  0  0  0  0  0  0  0  0
    9.2709  -13.6326   27.4734 C   0  0  2  0  0  0  0  0  0  0  0  0
    9.1201  -12.6923   28.6787 C   0  0  0  0  0  0  0  0  0  0  0  0
    8.0759  -13.6898   26.6452 C   0  0  2  0  0  0  0  0  0  0  0  0
    8.3268  -14.4137   25.3854 N   0  0  0  0  0  0  0  0  0  0  0  0
    7.3378  -12.5043   26.2581 C   0  0  0  0  0  0  0  0  0  0  0  0
    6.2788  -12.0080   26.9649 O   0  0  0  0  0  0  0  0  0  0  0  0
    7.6193  -11.8193   25.2005 O   0  0  0  0  0  0  0  0  0  0  0  0
  2  1  1  1
  2  3  1  0
  4  5  1  0
  4  2  1  0
  5  7  1  0
  5  6  1  6
  7  8  2  0
 10 11  1  6
 10 12  1  0
 10  9  1  0
 12 13  1  1
 13  7  1  0
 14 12  1  0
 14 15  2  0
 16 17  1  0
 17 18  1  0
 18 20  1  0
 18 19  1  1
 20 22  1  0
 20 21  1  6
 21 14  1  0
 22 23  1  0
 24 22  2  0
M  END
$$$$
