LVI.pdb
     RDKit          3D

 24 23  0  0  1  0  0  0  0  0999 V2000
    9.5983  -13.7848   19.4040 C   0  0  0  0  0  0  0  0  0  0  0  0
    8.2848  -13.5057   18.7207 C   0  0  2  0  0  0  0  0  0  0  0  0
    7.9787  -12.0368   18.8371 C   0  0  0  0  0  0  0  0  0  0  0  0
    7.2150  -14.3263   19.3665 C   0  0  0  0  0  0  0  0  0  0  0  0
    7.7704  -15.7258   19.6648 C   0  0  2  0  0  0  0  0  0  0  0  0
    7.1880  -16.6008   18.6847 N   0  0  0  0  0  0  0  0  0  0  0  0
    7.3722  -16.0712   21.0498 C   0  0  0  0  0  0  0  0  0  0  0  0
    6.1702  -15.9029   21.3810 O   0  0  0  0  0  0  0  0  0  0  0  0
    7.7330  -18.7544   25.0283 C   0  0  0  0  0  0  0  0  0  0  0  0
    8.0682  -18.3399   23.6183 C   0  0  1  0  0  0  0  0  0  0  0  0
    7.4466  -19.2459   22.5832 C   0  0  0  0  0  0  0  0  0  0  0  0
    7.7924  -16.8785   23.3626 C   0  0  2  0  0  0  0  0  0  0  0  0
    8.2609  -16.5840   22.0381 N   0  0  0  0  0  0  0  0  0  0  0  0
    8.3333  -15.9855   24.3973 C   0  0  0  0  0  0  0  0  0  0  0  0
    9.5911  -15.8373   24.4061 O   0  0  0  0  0  0  0  0  0  0  0  0
    5.4697  -11.6796   26.2064 C   0  0  0  0  0  0  0  0  0  0  0  0
    6.5536  -12.5906   25.8263 C   0  0  0  0  0  0  0  0  0  0  0  0
    7.2888  -13.3917   26.8142 C   0  0  2  0  0  0  0  0  0  0  0  0
    7.9067  -12.4171   27.8281 C   0  0  0  0  0  0  0  0  0  0  0  0
    8.2334  -14.3919   26.3402 C   0  0  2  0  0  0  0  0  0  0  0  0
    7.6127  -15.2958   25.3544 N   0  0  0  0  0  0  0  0  0  0  0  0
    8.9660  -15.2607   27.2393 C   0  0  0  0  0  0  0  0  0  0  0  0
    8.4575  -16.4208   27.7520 O   0  0  0  0  0  0  0  0  0  0  0  0
   10.1667  -15.0026   27.6379 O   0  0  0  0  0  0  0  0  0  0  0  0
  2  1  1  1
  2  3  1  0
  4  5  1  0
  4  2  1  0
  5  7  1  0
  5  6  1  6
  7  8  2  0
 10 11  1  6
 10 12  1  0
 10  9  1  0
 12 13  1  6
 13  7  1  0
 14 12  1  0
 14 15  2  0
 16 17  1  0
 17 18  1  0
 18 20  1  0
 18 19  1  1
 20 22  1  0
 20 21  1  6
 21 14  1  0
 22 23  1  0
 24 22  2  0
M  END
$$$$
