LVI.pdb
     RDKit          3D

 24 23  0  0  1  0  0  0  0  0999 V2000
    9.6826  -13.4625   19.4153 C   0  0  0  0  0  0  0  0  0  0  0  0
    8.3472  -13.3531   18.7264 C   0  0  2  0  0  0  0  0  0  0  0  0
    7.8699  -11.9286   18.8144 C   0  0  0  0  0  0  0  0  0  0  0  0
    7.3797  -14.2816   19.3875 C   0  0  0  0  0  0  0  0  0  0  0  0
    8.0473  -15.6517   19.5700 C   0  0  2  0  0  0  0  0  0  0  0  0
    7.4780  -16.5073   18.5655 N   0  0  0  0  0  0  0  0  0  0  0  0
    7.7471  -16.1074   20.9478 C   0  0  0  0  0  0  0  0  0  0  0  0
    6.5423  -16.1586   21.3064 O   0  0  0  0  0  0  0  0  0  0  0  0
    8.5842  -18.8773   24.7692 C   0  0  0  0  0  0  0  0  0  0  0  0
    8.8257  -18.3425   23.3807 C   0  0  1  0  0  0  0  0  0  0  0  0
    8.3027  -19.2629   22.3046 C   0  0  0  0  0  0  0  0  0  0  0  0
    8.3534  -16.9186   23.2176 C   0  0  2  0  0  0  0  0  0  0  0  0
    8.7337  -16.4941   21.9000 N   0  0  0  0  0  0  0  0  0  0  0  0
    8.8090  -16.0190   24.2871 C   0  0  0  0  0  0  0  0  0  0  0  0
   10.0438  -15.7375   24.2928 O   0  0  0  0  0  0  0  0  0  0  0  0
    5.7482  -11.9047   25.8639 C   0  0  0  0  0  0  0  0  0  0  0  0
    6.9076  -12.7634   25.6031 C   0  0  0  0  0  0  0  0  0  0  0  0
    7.5784  -13.5217   26.6677 C   0  0  2  0  0  0  0  0  0  0  0  0
    8.1149  -12.5058   27.6874 C   0  0  0  0  0  0  0  0  0  0  0  0
    8.5627  -14.5270   26.2964 C   0  0  2  0  0  0  0  0  0  0  0  0
    8.0309  -15.4530   25.2798 N   0  0  0  0  0  0  0  0  0  0  0  0
    9.2180  -15.3746   27.2723 C   0  0  0  0  0  0  0  0  0  0  0  0
   10.4380  -15.0940   27.8202 O   0  0  0  0  0  0  0  0  0  0  0  0
    8.7005  -16.4770   27.7012 O   0  0  0  0  0  0  0  0  0  0  0  0
  2  1  1  1
  2  3  1  0
  4  5  1  0
  4  2  1  0
  5  7  1  0
  5  6  1  6
  7  8  2  0
 10 11  1  6
 10 12  1  0
 10  9  1  0
 12 13  1  6
 13  7  1  0
 14 12  1  0
 14 15  2  0
 16 17  1  0
 17 18  1  0
 18 20  1  0
 18 19  1  1
 20 22  1  0
 20 21  1  6
 21 14  1  0
 22 23  1  0
 24 22  2  0
M  END
$$$$
