DIL.pdb
     RDKit          3D

 25 24  0  0  1  0  0  0  0  0999 V2000
    9.9595  -19.5924   19.9563 N   0  0  0  0  0  0  0  0  0  0  0  0
    9.1759  -18.9291   20.9507 C   0  0  1  0  0  0  0  0  0  0  0  0
    9.3215  -19.6856   22.2622 C   0  0  0  0  0  0  0  0  0  0  0  0
    8.4440  -20.8770   22.1646 C   0  0  0  0  0  0  0  0  0  0  0  0
    7.8546  -21.1393   21.0702 O   0  0  0  0  0  0  0  0  0  0  0  0
    9.6579  -17.4996   21.1438 C   0  0  0  0  0  0  0  0  0  0  0  0
   10.8791  -17.2957   21.1729 O   0  0  0  0  0  0  0  0  0  0  0  0
    8.2180  -21.7441   23.2111 O   0  0  0  0  0  0  0  0  0  0  0  0
    7.2347  -11.7707   20.6269 C   0  0  0  0  0  0  0  0  0  0  0  0
    8.2955  -12.6906   21.1494 C   0  0  0  0  0  0  0  0  0  0  0  0
    8.0092  -14.1598   20.8983 C   0  0  2  0  0  0  0  0  0  0  0  0
    6.6897  -14.4039   21.6479 C   0  0  0  0  0  0  0  0  0  0  0  0
    9.0690  -15.0481   21.5046 C   0  0  2  0  0  0  0  0  0  0  0  0
    8.7399  -16.4554   21.2830 N   0  0  0  0  0  0  0  0  0  0  0  0
    9.1636  -14.7860   22.9529 C   0  0  0  0  0  0  0  0  0  0  0  0
    9.8722  -13.7819   23.3449 O   0  0  0  0  0  0  0  0  0  0  0  0
    7.7578  -12.2258   26.3324 C   0  0  0  0  0  0  0  0  0  0  0  0
    7.0160  -13.4847   26.6289 C   0  0  1  0  0  0  0  0  0  0  0  0
    5.5155  -13.2105   26.7689 C   0  0  0  0  0  0  0  0  0  0  0  0
    7.3092  -14.6075   25.7452 C   0  0  0  0  0  0  0  0  0  0  0  0
    8.6871  -15.0501   25.4278 C   0  0  2  0  0  0  0  0  0  0  0  0
    8.5547  -15.5120   23.9876 N   0  0  0  0  0  0  0  0  0  0  0  0
    9.1186  -16.2247   26.2014 C   0  0  0  0  0  0  0  0  0  0  0  0
    9.4356  -16.1021   27.4506 O   0  0  0  0  0  0  0  0  0  0  0  0
    9.2299  -17.5210   25.7482 O   0  0  0  0  0  0  0  0  0  0  0  0
  2  1  1  6
  2  3  1  0
  3  4  1  0
  4  8  1  0
  4  5  2  0
  6  7  2  0
  6  2  1  0
  9 10  1  0
 11 10  1  0
 11 13  1  0
 11 12  1  1
 13 14  1  1
 14  6  1  0
 15 13  1  0
 15 16  2  0
 18 17  1  6
 19 18  1  0
 20 18  1  0
 21 22  1  0
 21 20  1  1
 22 15  1  0
 23 21  1  0
 24 23  2  0
 25 23  1  0
M  END
$$$$
