DIL.pdb
     RDKit          3D

 25 24  0  0  1  0  0  0  0  0999 V2000
   12.8913  -16.9324   19.6495 N   0  0  0  0  0  0  0  0  0  0  0  0
   11.7844  -17.4659   20.3796 C   0  0  1  0  0  0  0  0  0  0  0  0
   12.2574  -18.6940   21.1422 C   0  0  0  0  0  0  0  0  0  0  0  0
   12.5703  -19.7291   20.1276 C   0  0  0  0  0  0  0  0  0  0  0  0
   11.6342  -20.2410   19.4380 O   0  0  0  0  0  0  0  0  0  0  0  0
   11.2529  -16.4395   21.3681 C   0  0  0  0  0  0  0  0  0  0  0  0
   12.0636  -15.6690   21.9000 O   0  0  0  0  0  0  0  0  0  0  0  0
   13.8450  -20.1867   19.8746 O   0  0  0  0  0  0  0  0  0  0  0  0
    6.7611  -13.8624   19.9929 C   0  0  0  0  0  0  0  0  0  0  0  0
    8.0597  -14.1870   20.6659 C   0  0  0  0  0  0  0  0  0  0  0  0
    7.9023  -14.9889   21.9448 C   0  0  2  0  0  0  0  0  0  0  0  0
    7.2386  -13.9971   22.9136 C   0  0  0  0  0  0  0  0  0  0  0  0
    9.2386  -15.3910   22.5214 C   0  0  2  0  0  0  0  0  0  0  0  0
    9.8877  -16.3777   21.6593 N   0  0  0  0  0  0  0  0  0  0  0  0
    9.0438  -15.9637   23.8665 C   0  0  0  0  0  0  0  0  0  0  0  0
    8.7851  -17.2241   23.9600 O   0  0  0  0  0  0  0  0  0  0  0  0
    9.7393  -12.7808   28.3011 C   0  0  0  0  0  0  0  0  0  0  0  0
   10.0340  -14.0637   27.6008 C   0  0  1  0  0  0  0  0  0  0  0  0
   11.2234  -14.7766   28.2514 C   0  0  0  0  0  0  0  0  0  0  0  0
    8.8881  -14.9419   27.3937 C   0  0  0  0  0  0  0  0  0  0  0  0
    8.8757  -16.0355   26.3940 C   0  0  2  0  0  0  0  0  0  0  0  0
    9.1134  -15.2880   25.0940 N   0  0  0  0  0  0  0  0  0  0  0  0
    7.5665  -16.6930   26.2602 C   0  0  0  0  0  0  0  0  0  0  0  0
    7.2887  -17.7422   26.9661 O   0  0  0  0  0  0  0  0  0  0  0  0
    6.5278  -16.3132   25.4386 O   0  0  0  0  0  0  0  0  0  0  0  0
  2  1  1  1
  2  3  1  0
  3  4  1  0
  4  8  1  0
  4  5  2  0
  6  7  2  0
  6  2  1  0
  9 10  1  0
 11 10  1  0
 11 13  1  0
 11 12  1  1
 13 14  1  6
 14  6  1  0
 15 13  1  0
 15 16  2  0
 18 17  1  1
 19 18  1  0
 20 18  1  0
 21 22  1  0
 21 20  1  1
 22 15  1  0
 23 21  1  0
 24 23  2  0
 25 23  1  0
M  END
$$$$
