DIL.pdb
     RDKit          3D

 25 24  0  0  1  0  0  0  0  0999 V2000
   11.5089  -18.0730   20.6270 N   0  0  0  0  0  0  0  0  0  0  0  0
   12.3803  -17.4201   21.5530 C   0  0  1  0  0  0  0  0  0  0  0  0
   13.3407  -16.5377   20.7705 C   0  0  0  0  0  0  0  0  0  0  0  0
   14.2889  -17.4476   20.0836 C   0  0  0  0  0  0  0  0  0  0  0  0
   14.2391  -18.6972   20.3066 O   0  0  0  0  0  0  0  0  0  0  0  0
   11.5827  -16.5558   22.5175 C   0  0  0  0  0  0  0  0  0  0  0  0
   12.1971  -15.7226   23.1972 O   0  0  0  0  0  0  0  0  0  0  0  0
   15.2486  -17.0168   19.1937 O   0  0  0  0  0  0  0  0  0  0  0  0
    6.5565  -14.9870   20.9987 C   0  0  0  0  0  0  0  0  0  0  0  0
    7.9006  -15.0358   21.6588 C   0  0  0  0  0  0  0  0  0  0  0  0
    7.9284  -15.8651   22.9295 C   0  0  2  0  0  0  0  0  0  0  0  0
    7.0453  -15.0663   23.9015 C   0  0  0  0  0  0  0  0  0  0  0  0
    9.3184  -15.9487   23.5131 C   0  0  2  0  0  0  0  0  0  0  0  0
   10.1978  -16.7069   22.6244 N   0  0  0  0  0  0  0  0  0  0  0  0
    9.2619  -16.6083   24.8310 C   0  0  0  0  0  0  0  0  0  0  0  0
    9.1602  -17.8939   24.8645 O   0  0  0  0  0  0  0  0  0  0  0  0
    9.8409  -13.4766   29.2749 C   0  0  0  0  0  0  0  0  0  0  0  0
    9.8886  -14.3982   28.1038 C   0  0  1  0  0  0  0  0  0  0  0  0
   11.1795  -14.1945   27.3049 C   0  0  0  0  0  0  0  0  0  0  0  0
    9.6174  -15.8006   28.3990 C   0  0  0  0  0  0  0  0  0  0  0  0
    9.4482  -16.8316   27.3484 C   0  0  2  0  0  0  0  0  0  0  0  0
    9.3128  -15.9923   26.0905 N   0  0  0  0  0  0  0  0  0  0  0  0
    8.1974  -17.5960   27.4729 C   0  0  0  0  0  0  0  0  0  0  0  0
    7.1465  -17.2399   26.8058 O   0  0  0  0  0  0  0  0  0  0  0  0
    7.9833  -18.7156   28.2467 O   0  0  0  0  0  0  0  0  0  0  0  0
  2  1  1  6
  2  3  1  0
  3  4  1  0
  4  8  1  0
  4  5  2  0
  6  7  2  0
  6  2  1  0
  9 10  1  0
 11 10  1  0
 11 13  1  0
 11 12  1  1
 13 14  1  6
 14  6  1  0
 15 13  1  0
 15 16  2  0
 18 17  1  1
 19 18  1  0
 20 18  1  0
 21 22  1  0
 21 20  1  1
 22 15  1  0
 23 21  1  0
 24 23  2  0
 25 23  1  0
M  END
$$$$
