DIL.pdb
     RDKit          3D

 25 24  0  0  1  0  0  0  0  0999 V2000
   12.7273  -18.6364   20.9286 N   0  0  0  0  0  0  0  0  0  0  0  0
   12.6785  -17.2079   20.9395 C   0  0  1  0  0  0  0  0  0  0  0  0
   12.3974  -16.7248   19.5249 C   0  0  0  0  0  0  0  0  0  0  0  0
   13.7153  -16.5243   18.8753 C   0  0  0  0  0  0  0  0  0  0  0  0
   14.7160  -17.2102   19.2518 O   0  0  0  0  0  0  0  0  0  0  0  0
   11.5726  -16.7190   21.8621 C   0  0  0  0  0  0  0  0  0  0  0  0
   11.3000  -15.5110   21.8552 O   0  0  0  0  0  0  0  0  0  0  0  0
   13.9343  -15.6176   17.8612 O   0  0  0  0  0  0  0  0  0  0  0  0
    8.3424  -20.8306   23.7831 C   0  0  0  0  0  0  0  0  0  0  0  0
    9.3628  -19.7369   23.6969 C   0  0  0  0  0  0  0  0  0  0  0  0
    8.7630  -18.3442   23.6327 C   0  0  2  0  0  0  0  0  0  0  0  0
    8.0558  -18.3181   22.2682 C   0  0  0  0  0  0  0  0  0  0  0  0
    9.8292  -17.2751   23.6335 C   0  0  2  0  0  0  0  0  0  0  0  0
   10.8916  -17.6164   22.6886 N   0  0  0  0  0  0  0  0  0  0  0  0
   10.3973  -17.1453   24.9884 C   0  0  0  0  0  0  0  0  0  0  0  0
   11.5410  -17.6936   25.2240 O   0  0  0  0  0  0  0  0  0  0  0  0
    8.4970  -13.3536   28.3359 C   0  0  0  0  0  0  0  0  0  0  0  0
    9.6347  -14.1172   27.7480 C   0  0  1  0  0  0  0  0  0  0  0  0
   10.9392  -13.3228   27.8637 C   0  0  0  0  0  0  0  0  0  0  0  0
    9.7659  -15.4962   28.2046 C   0  0  0  0  0  0  0  0  0  0  0  0
   10.5017  -16.5344   27.4455 C   0  0  2  0  0  0  0  0  0  0  0  0
    9.8335  -16.4738   26.0835 N   0  0  0  0  0  0  0  0  0  0  0  0
   10.2835  -17.8977   27.9536 C   0  0  0  0  0  0  0  0  0  0  0  0
    9.2996  -18.6104   27.5063 O   0  0  0  0  0  0  0  0  0  0  0  0
   11.0382  -18.5625   28.8952 O   0  0  0  0  0  0  0  0  0  0  0  0
  2  1  1  6
  2  3  1  0
  3  4  1  0
  4  8  1  0
  4  5  2  0
  6  7  2  0
  6  2  1  0
  9 10  1  0
 11 10  1  0
 11 13  1  0
 11 12  1  6
 13 14  1  6
 14  6  1  0
 15 13  1  0
 15 16  2  0
 18 17  1  1
 19 18  1  0
 20 18  1  0
 21 22  1  0
 21 20  1  1
 22 15  1  0
 23 21  1  0
 24 23  2  0
 25 23  1  0
M  END
$$$$
