DIL.pdb
     RDKit          3D

 25 24  0  0  1  0  0  0  0  0999 V2000
    7.4429  -19.3800   19.7614 N   0  0  0  0  0  0  0  0  0  0  0  0
    7.1174  -18.5693   20.8927 C   0  0  1  0  0  0  0  0  0  0  0  0
    7.1245  -19.4489   22.1335 C   0  0  0  0  0  0  0  0  0  0  0  0
    6.2585  -20.6144   21.8324 C   0  0  0  0  0  0  0  0  0  0  0  0
    5.1464  -20.4396   21.2438 O   0  0  0  0  0  0  0  0  0  0  0  0
    8.1408  -17.4573   21.0642 C   0  0  0  0  0  0  0  0  0  0  0  0
    9.3410  -17.7556   21.0007 O   0  0  0  0  0  0  0  0  0  0  0  0
    6.5880  -21.9121   22.1574 O   0  0  0  0  0  0  0  0  0  0  0  0
    6.9023  -12.4232   19.2414 C   0  0  0  0  0  0  0  0  0  0  0  0
    7.7106  -13.6120   19.6633 C   0  0  0  0  0  0  0  0  0  0  0  0
    7.9139  -13.7122   21.1640 C   0  0  2  0  0  0  0  0  0  0  0  0
    8.8648  -12.5461   21.4783 C   0  0  0  0  0  0  0  0  0  0  0  0
    8.6007  -15.0000   21.5510 C   0  0  2  0  0  0  0  0  0  0  0  0
    7.7262  -16.1415   21.2864 N   0  0  0  0  0  0  0  0  0  0  0  0
    8.9449  -14.9645   22.9847 C   0  0  0  0  0  0  0  0  0  0  0  0
   10.0521  -14.4004   23.3312 O   0  0  0  0  0  0  0  0  0  0  0  0
    6.1016  -12.4337   26.4453 C   0  0  0  0  0  0  0  0  0  0  0  0
    7.3629  -13.0190   25.9072 C   0  0  1  0  0  0  0  0  0  0  0  0
    8.5835  -12.2656   26.4445 C   0  0  0  0  0  0  0  0  0  0  0  0
    7.4861  -14.4666   26.0350 C   0  0  0  0  0  0  0  0  0  0  0  0
    8.6274  -15.2344   25.4843 C   0  0  2  0  0  0  0  0  0  0  0  0
    8.1914  -15.4785   24.0507 N   0  0  0  0  0  0  0  0  0  0  0  0
    8.7928  -16.5610   26.0984 C   0  0  0  0  0  0  0  0  0  0  0  0
    8.2242  -17.5984   25.5724 O   0  0  0  0  0  0  0  0  0  0  0  0
    9.5244  -16.8681   27.2247 O   0  0  0  0  0  0  0  0  0  0  0  0
  2  1  1  6
  2  3  1  0
  3  4  1  0
  4  8  1  0
  4  5  2  0
  6  7  2  0
  6  2  1  0
  9 10  1  0
 11 10  1  0
 11 13  1  0
 11 12  1  6
 13 14  1  1
 14  6  1  0
 15 13  1  0
 15 16  2  0
 18 17  1  1
 19 18  1  0
 20 18  1  0
 21 22  1  0
 21 20  1  1
 22 15  1  0
 23 21  1  0
 24 23  2  0
 25 23  1  0
M  END
$$$$
