DIL.pdb
     RDKit          3D

 25 24  0  0  1  0  0  0  0  0999 V2000
   10.9254  -18.4455   20.1640 N   0  0  0  0  0  0  0  0  0  0  0  0
   11.9055  -17.4590   20.4944 C   0  0  1  0  0  0  0  0  0  0  0  0
   12.3417  -16.7653   19.2130 C   0  0  0  0  0  0  0  0  0  0  0  0
   13.5067  -17.5231   18.6957 C   0  0  0  0  0  0  0  0  0  0  0  0
   14.1215  -18.3334   19.4568 O   0  0  0  0  0  0  0  0  0  0  0  0
   11.3228  -16.4261   21.4468 C   0  0  0  0  0  0  0  0  0  0  0  0
   12.0295  -15.4585   21.7598 O   0  0  0  0  0  0  0  0  0  0  0  0
   13.9814  -17.4043   17.4078 O   0  0  0  0  0  0  0  0  0  0  0  0
    5.7965  -16.7766   21.9641 C   0  0  0  0  0  0  0  0  0  0  0  0
    7.2540  -16.8786   22.2955 C   0  0  0  0  0  0  0  0  0  0  0  0
    7.9111  -15.5411   22.5833 C   0  0  2  0  0  0  0  0  0  0  0  0
    7.7994  -14.7889   21.2475 C   0  0  0  0  0  0  0  0  0  0  0  0
    9.3753  -15.6972   22.9173 C   0  0  2  0  0  0  0  0  0  0  0  0
   10.0268  -16.5759   21.9470 N   0  0  0  0  0  0  0  0  0  0  0  0
    9.5151  -16.2672   24.2704 C   0  0  0  0  0  0  0  0  0  0  0  0
   10.0161  -17.4505   24.3837 O   0  0  0  0  0  0  0  0  0  0  0  0
    9.2289  -13.0102   28.7082 C   0  0  0  0  0  0  0  0  0  0  0  0
    9.8705  -14.0881   27.9024 C   0  0  1  0  0  0  0  0  0  0  0  0
   11.3191  -14.3099   28.3479 C   0  0  0  0  0  0  0  0  0  0  0  0
    9.1108  -15.3289   27.7984 C   0  0  0  0  0  0  0  0  0  0  0  0
    9.4113  -16.3815   26.7997 C   0  0  2  0  0  0  0  0  0  0  0  0
    9.1657  -15.6607   25.4862 N   0  0  0  0  0  0  0  0  0  0  0  0
    8.4684  -17.5101   26.8355 C   0  0  0  0  0  0  0  0  0  0  0  0
    7.3629  -17.4576   26.1636 O   0  0  0  0  0  0  0  0  0  0  0  0
    8.6171  -18.6935   27.5250 O   0  0  0  0  0  0  0  0  0  0  0  0
  2  1  1  6
  2  3  1  0
  3  4  1  0
  4  8  1  0
  4  5  2  0
  6  7  2  0
  6  2  1  0
  9 10  1  0
 11 10  1  0
 11 13  1  0
 11 12  1  6
 13 14  1  6
 14  6  1  0
 15 13  1  0
 15 16  2  0
 18 17  1  1
 19 18  1  0
 20 18  1  0
 21 22  1  0
 21 20  1  1
 22 15  1  0
 23 21  1  0
 24 23  2  0
 25 23  1  0
M  END
$$$$
