DIL.pdb
     RDKit          3D

 25 24  0  0  1  0  0  0  0  0999 V2000
    7.7871  -18.5842   20.7303 N   0  0  0  0  0  0  0  0  0  0  0  0
    9.1803  -18.4075   20.4642 C   0  0  1  0  0  0  0  0  0  0  0  0
    9.4185  -18.6280   18.9782 C   0  0  0  0  0  0  0  0  0  0  0  0
    9.1819  -20.0689   18.7198 C   0  0  0  0  0  0  0  0  0  0  0  0
    9.5557  -20.5830   17.6199 O   0  0  0  0  0  0  0  0  0  0  0  0
    9.6200  -16.9998   20.8360 C   0  0  0  0  0  0  0  0  0  0  0  0
   10.8093  -16.6978   20.6682 O   0  0  0  0  0  0  0  0  0  0  0  0
    8.5661  -20.9126   19.6182 O   0  0  0  0  0  0  0  0  0  0  0  0
    6.7005  -12.7545   19.4087 C   0  0  0  0  0  0  0  0  0  0  0  0
    7.8612  -13.5762   19.8801 C   0  0  0  0  0  0  0  0  0  0  0  0
    7.8959  -13.7800   21.3837 C   0  0  2  0  0  0  0  0  0  0  0  0
    8.2277  -12.3821   21.9301 C   0  0  0  0  0  0  0  0  0  0  0  0
    9.0008  -14.7232   21.7953 C   0  0  2  0  0  0  0  0  0  0  0  0
    8.6996  -16.0832   21.3509 N   0  0  0  0  0  0  0  0  0  0  0  0
    9.1446  -14.7046   23.2631 C   0  0  0  0  0  0  0  0  0  0  0  0
    9.8163  -13.7412   23.7969 O   0  0  0  0  0  0  0  0  0  0  0  0
    6.1346  -12.7120   26.4145 C   0  0  0  0  0  0  0  0  0  0  0  0
    7.4421  -13.2602   25.9530 C   0  0  1  0  0  0  0  0  0  0  0  0
    8.6065  -12.4942   26.5882 C   0  0  0  0  0  0  0  0  0  0  0  0
    7.5872  -14.7076   26.0601 C   0  0  0  0  0  0  0  0  0  0  0  0
    8.8211  -15.4291   25.6697 C   0  0  2  0  0  0  0  0  0  0  0  0
    8.6203  -15.6297   24.1782 N   0  0  0  0  0  0  0  0  0  0  0  0
    8.9253  -16.7735   26.2580 C   0  0  0  0  0  0  0  0  0  0  0  0
    8.5447  -17.8114   25.5841 O   0  0  0  0  0  0  0  0  0  0  0  0
    9.4119  -17.0973   27.5056 O   0  0  0  0  0  0  0  0  0  0  0  0
  2  1  1  6
  2  3  1  0
  3  4  1  0
  4  8  1  0
  4  5  2  0
  6  7  2  0
  6  2  1  0
  9 10  1  0
 11 10  1  0
 11 13  1  0
 11 12  1  1
 13 14  1  1
 14  6  1  0
 15 13  1  0
 15 16  2  0
 18 17  1  1
 19 18  1  0
 20 18  1  0
 21 22  1  0
 21 20  1  1
 22 15  1  0
 23 21  1  0
 24 23  2  0
 25 23  1  0
M  END
$$$$
