DIL.pdb
     RDKit          3D

 25 24  0  0  1  0  0  0  0  0999 V2000
   11.5753  -18.1581   20.4399 N   0  0  0  0  0  0  0  0  0  0  0  0
   12.4921  -17.3605   21.1924 C   0  0  1  0  0  0  0  0  0  0  0  0
   13.2693  -16.4794   20.2263 C   0  0  0  0  0  0  0  0  0  0  0  0
   14.2018  -17.3709   19.4953 C   0  0  0  0  0  0  0  0  0  0  0  0
   14.2028  -18.6182   19.7365 O   0  0  0  0  0  0  0  0  0  0  0  0
   11.7450  -16.4783   22.1807 C   0  0  0  0  0  0  0  0  0  0  0  0
   12.3743  -15.5728   22.7443 O   0  0  0  0  0  0  0  0  0  0  0  0
   15.0935  -16.9251   18.5444 O   0  0  0  0  0  0  0  0  0  0  0  0
    6.4884  -15.2226   21.1951 C   0  0  0  0  0  0  0  0  0  0  0  0
    7.8998  -15.1796   21.6958 C   0  0  0  0  0  0  0  0  0  0  0  0
    8.1205  -15.9706   22.9722 C   0  0  2  0  0  0  0  0  0  0  0  0
    7.3028  -15.1996   24.0209 C   0  0  0  0  0  0  0  0  0  0  0  0
    9.5693  -15.9549   23.3969 C   0  0  2  0  0  0  0  0  0  0  0  0
   10.3883  -16.6933   22.4368 N   0  0  0  0  0  0  0  0  0  0  0  0
    9.6994  -16.5696   24.7313 C   0  0  0  0  0  0  0  0  0  0  0  0
    9.8741  -17.8459   24.7993 O   0  0  0  0  0  0  0  0  0  0  0  0
   10.4455  -13.5396   27.1584 C   0  0  0  0  0  0  0  0  0  0  0  0
   10.5372  -14.4217   28.3570 C   0  0  1  0  0  0  0  0  0  0  0  0
   10.2898  -13.6221   29.6398 C   0  0  0  0  0  0  0  0  0  0  0  0
    9.7535  -15.6501   28.2921 C   0  0  0  0  0  0  0  0  0  0  0  0
    9.9532  -16.6844   27.2501 C   0  0  2  0  0  0  0  0  0  0  0  0
    9.6616  -15.9172   25.9728 N   0  0  0  0  0  0  0  0  0  0  0  0
    8.9690  -17.7762   27.3112 C   0  0  0  0  0  0  0  0  0  0  0  0
    9.2100  -18.8322   28.0204 O   0  0  0  0  0  0  0  0  0  0  0  0
    7.7445  -17.8251   26.6818 O   0  0  0  0  0  0  0  0  0  0  0  0
  2  1  1  6
  2  3  1  0
  3  4  1  0
  4  8  1  0
  4  5  2  0
  6  7  2  0
  6  2  1  0
  9 10  1  0
 11 10  1  0
 11 13  1  0
 11 12  1  1
 13 14  1  6
 14  6  1  0
 15 13  1  0
 15 16  2  0
 18 17  1  6
 19 18  1  0
 20 18  1  0
 21 22  1  0
 21 20  1  1
 22 15  1  0
 23 21  1  0
 24 23  2  0
 25 23  1  0
M  END
$$$$
