DIL.pdb
     RDKit          3D

 25 24  0  0  1  0  0  0  0  0999 V2000
    7.9918  -18.6017   20.4683 N   0  0  0  0  0  0  0  0  0  0  0  0
    9.4155  -18.4749   20.4658 C   0  0  1  0  0  0  0  0  0  0  0  0
    9.9226  -18.7678   19.0621 C   0  0  0  0  0  0  0  0  0  0  0  0
    9.6965  -20.2136   18.8224 C   0  0  0  0  0  0  0  0  0  0  0  0
    9.8122  -21.0385   19.7816 O   0  0  0  0  0  0  0  0  0  0  0  0
    9.8260  -17.0644   20.8598 C   0  0  0  0  0  0  0  0  0  0  0  0
   11.0246  -16.7631   20.7804 O   0  0  0  0  0  0  0  0  0  0  0  0
    9.3596  -20.7383   17.5938 O   0  0  0  0  0  0  0  0  0  0  0  0
    6.7011  -12.9488   19.3975 C   0  0  0  0  0  0  0  0  0  0  0  0
    7.9020  -13.7223   19.8496 C   0  0  0  0  0  0  0  0  0  0  0  0
    8.0070  -13.8632   21.3571 C   0  0  2  0  0  0  0  0  0  0  0  0
    8.3528  -12.4419   21.8295 C   0  0  0  0  0  0  0  0  0  0  0  0
    9.1366  -14.7822   21.7560 C   0  0  2  0  0  0  0  0  0  0  0  0
    8.8694  -16.1445   21.2970 N   0  0  0  0  0  0  0  0  0  0  0  0
    9.2831  -14.7763   23.2236 C   0  0  0  0  0  0  0  0  0  0  0  0
   10.2982  -14.1634   23.7316 O   0  0  0  0  0  0  0  0  0  0  0  0
    6.0041  -12.6387   26.3430 C   0  0  0  0  0  0  0  0  0  0  0  0
    7.3541  -13.1419   25.9592 C   0  0  1  0  0  0  0  0  0  0  0  0
    8.4531  -12.2578   26.5564 C   0  0  0  0  0  0  0  0  0  0  0  0
    7.5807  -14.5644   26.1885 C   0  0  0  0  0  0  0  0  0  0  0  0
    8.7490  -15.2964   25.6455 C   0  0  2  0  0  0  0  0  0  0  0  0
    8.4259  -15.3675   24.1638 N   0  0  0  0  0  0  0  0  0  0  0  0
    8.8403  -16.6871   26.1166 C   0  0  0  0  0  0  0  0  0  0  0  0
    9.0454  -16.9388   27.3699 O   0  0  0  0  0  0  0  0  0  0  0  0
    8.7213  -17.8298   25.3563 O   0  0  0  0  0  0  0  0  0  0  0  0
  2  1  1  6
  2  3  1  0
  3  4  1  0
  4  8  1  0
  4  5  2  0
  6  7  2  0
  6  2  1  0
  9 10  1  0
 11 10  1  0
 11 13  1  0
 11 12  1  1
 13 14  1  1
 14  6  1  0
 15 13  1  0
 15 16  2  0
 18 17  1  1
 19 18  1  0
 20 18  1  0
 21 22  1  0
 21 20  1  1
 22 15  1  0
 23 21  1  0
 24 23  2  0
 25 23  1  0
M  END
$$$$
