DIL.pdb
     RDKit          3D

 25 24  0  0  1  0  0  0  0  0999 V2000
   10.3468  -17.8943   18.5374 N   0  0  0  0  0  0  0  0  0  0  0  0
   10.0514  -18.1051   19.9199 C   0  0  1  0  0  0  0  0  0  0  0  0
   11.1065  -19.0335   20.5017 C   0  0  0  0  0  0  0  0  0  0  0  0
   11.0108  -20.3083   19.7503 C   0  0  0  0  0  0  0  0  0  0  0  0
    9.9309  -20.6099   19.1532 O   0  0  0  0  0  0  0  0  0  0  0  0
   10.0753  -16.7865   20.6775 C   0  0  0  0  0  0  0  0  0  0  0  0
   11.1761  -16.3218   21.0030 O   0  0  0  0  0  0  0  0  0  0  0  0
   12.0441  -21.2144   19.6532 O   0  0  0  0  0  0  0  0  0  0  0  0
    6.9142  -12.7698   19.1353 C   0  0  0  0  0  0  0  0  0  0  0  0
    8.0339  -13.4934   19.8189 C   0  0  0  0  0  0  0  0  0  0  0  0
    7.6715  -14.0209   21.1951 C   0  0  2  0  0  0  0  0  0  0  0  0
    7.5726  -12.7502   22.0544 C   0  0  0  0  0  0  0  0  0  0  0  0
    8.7635  -14.8938   21.7654 C   0  0  2  0  0  0  0  0  0  0  0  0
    8.8833  -16.1284   20.9912 N   0  0  0  0  0  0  0  0  0  0  0  0
    8.4518  -15.2205   23.1695 C   0  0  0  0  0  0  0  0  0  0  0  0
    7.3528  -15.8484   23.4189 O   0  0  0  0  0  0  0  0  0  0  0  0
    7.6818  -12.1928   27.2314 C   0  0  0  0  0  0  0  0  0  0  0  0
    6.8464  -13.2616   26.6126 C   0  0  1  0  0  0  0  0  0  0  0  0
    5.4500  -12.7312   26.2734 C   0  0  0  0  0  0  0  0  0  0  0  0
    7.4671  -13.9792   25.5049 C   0  0  0  0  0  0  0  0  0  0  0  0
    8.5983  -14.9198   25.6813 C   0  0  2  0  0  0  0  0  0  0  0  0
    9.2292  -14.9296   24.3005 N   0  0  0  0  0  0  0  0  0  0  0  0
    8.1746  -16.3022   25.9529 C   0  0  0  0  0  0  0  0  0  0  0  0
    7.1252  -16.7886   25.3712 O   0  0  0  0  0  0  0  0  0  0  0  0
    8.7882  -17.2084   26.7897 O   0  0  0  0  0  0  0  0  0  0  0  0
  2  1  1  6
  2  3  1  0
  3  4  1  0
  4  8  1  0
  4  5  2  0
  6  7  2  0
  6  2  1  0
  9 10  1  0
 11 10  1  0
 11 13  1  0
 11 12  1  1
 13 14  1  6
 14  6  1  0
 15 13  1  0
 15 16  2  0
 18 17  1  6
 19 18  1  0
 20 18  1  0
 21 22  1  0
 21 20  1  6
 22 15  1  0
 23 21  1  0
 24 23  2  0
 25 23  1  0
M  END
$$$$
