DIL.pdb
     RDKit          3D

 25 24  0  0  1  0  0  0  0  0999 V2000
   12.7260  -17.3134   19.6715 N   0  0  0  0  0  0  0  0  0  0  0  0
   11.5466  -17.6981   20.3815 C   0  0  1  0  0  0  0  0  0  0  0  0
   11.9014  -18.8400   21.3215 C   0  0  0  0  0  0  0  0  0  0  0  0
   12.3302  -19.9744   20.4682 C   0  0  0  0  0  0  0  0  0  0  0  0
   11.6927  -20.2388   19.4017 O   0  0  0  0  0  0  0  0  0  0  0  0
   11.0094  -16.5310   21.1955 C   0  0  0  0  0  0  0  0  0  0  0  0
   11.8167  -15.8558   21.8482 O   0  0  0  0  0  0  0  0  0  0  0  0
   13.4048  -20.7850   20.7625 O   0  0  0  0  0  0  0  0  0  0  0  0
    6.9449  -13.5391   19.0466 C   0  0  0  0  0  0  0  0  0  0  0  0
    8.1345  -13.9793   19.8438 C   0  0  0  0  0  0  0  0  0  0  0  0
    7.7762  -14.6696   21.1472 C   0  0  2  0  0  0  0  0  0  0  0  0
    7.0943  -13.5623   21.9667 C   0  0  0  0  0  0  0  0  0  0  0  0
    9.0058  -15.1236   21.8965 C   0  0  2  0  0  0  0  0  0  0  0  0
    9.6429  -16.2394   21.1987 N   0  0  0  0  0  0  0  0  0  0  0  0
    8.6267  -15.5456   23.2580 C   0  0  0  0  0  0  0  0  0  0  0  0
    8.2635  -16.7705   23.4367 O   0  0  0  0  0  0  0  0  0  0  0  0
    7.5542  -12.0993   27.6557 C   0  0  0  0  0  0  0  0  0  0  0  0
    7.2923  -13.3131   26.8304 C   0  0  1  0  0  0  0  0  0  0  0  0
    6.6560  -12.9315   25.4903 C   0  0  0  0  0  0  0  0  0  0  0  0
    8.4196  -14.2271   26.6853 C   0  0  0  0  0  0  0  0  0  0  0  0
    8.4015  -15.3982   25.7777 C   0  0  2  0  0  0  0  0  0  0  0  0
    8.6178  -14.7573   24.4184 N   0  0  0  0  0  0  0  0  0  0  0  0
    7.0949  -16.0714   25.7150 C   0  0  0  0  0  0  0  0  0  0  0  0
    6.2317  -15.7364   24.8101 O   0  0  0  0  0  0  0  0  0  0  0  0
    6.6412  -17.0797   26.5368 O   0  0  0  0  0  0  0  0  0  0  0  0
  2  1  1  1
  2  3  1  0
  3  4  1  0
  4  8  1  0
  4  5  2  0
  6  7  2  0
  6  2  1  0
  9 10  1  0
 11 10  1  0
 11 13  1  0
 11 12  1  1
 13 14  1  6
 14  6  1  0
 15 13  1  0
 15 16  2  0
 18 17  1  6
 19 18  1  0
 20 18  1  0
 21 22  1  0
 21 20  1  1
 22 15  1  0
 23 21  1  0
 24 23  2  0
 25 23  1  0
M  END
$$$$
