DIL.pdb
     RDKit          3D

 25 24  0  0  1  0  0  0  0  0999 V2000
    7.7121  -18.6618   20.4746 N   0  0  0  0  0  0  0  0  0  0  0  0
    9.0994  -18.4587   20.1971 C   0  0  1  0  0  0  0  0  0  0  0  0
    9.3234  -18.6400   18.7036 C   0  0  0  0  0  0  0  0  0  0  0  0
    8.8918  -20.0199   18.3743 C   0  0  0  0  0  0  0  0  0  0  0  0
    8.7217  -20.3559   17.1611 O   0  0  0  0  0  0  0  0  0  0  0  0
    9.5235  -17.0541   20.5978 C   0  0  0  0  0  0  0  0  0  0  0  0
   10.6679  -16.6846   20.3020 O   0  0  0  0  0  0  0  0  0  0  0  0
    8.6558  -20.9908   19.3230 O   0  0  0  0  0  0  0  0  0  0  0  0
    6.7939  -12.7431   19.4645 C   0  0  0  0  0  0  0  0  0  0  0  0
    7.9063  -13.6330   19.9286 C   0  0  0  0  0  0  0  0  0  0  0  0
    7.8971  -13.8948   21.4235 C   0  0  2  0  0  0  0  0  0  0  0  0
    8.2679  -12.5324   22.0311 C   0  0  0  0  0  0  0  0  0  0  0  0
    8.9555  -14.8948   21.8231 C   0  0  2  0  0  0  0  0  0  0  0  0
    8.6386  -16.2146   21.2793 N   0  0  0  0  0  0  0  0  0  0  0  0
    9.0309  -14.9728   23.2941 C   0  0  0  0  0  0  0  0  0  0  0  0
   10.1763  -14.7816   23.8559 O   0  0  0  0  0  0  0  0  0  0  0  0
    5.4796  -12.5729   26.3957 C   0  0  0  0  0  0  0  0  0  0  0  0
    6.8246  -13.0805   26.0003 C   0  0  1  0  0  0  0  0  0  0  0  0
    7.9322  -12.2203   26.6162 C   0  0  0  0  0  0  0  0  0  0  0  0
    7.0377  -14.5098   26.1983 C   0  0  0  0  0  0  0  0  0  0  0  0
    8.2249  -15.2310   25.6826 C   0  0  2  0  0  0  0  0  0  0  0  0
    7.9780  -15.2308   24.1846 N   0  0  0  0  0  0  0  0  0  0  0  0
    8.2778  -16.6426   26.0935 C   0  0  0  0  0  0  0  0  0  0  0  0
    7.7450  -17.5585   25.3496 O   0  0  0  0  0  0  0  0  0  0  0  0
    8.8622  -17.1537   27.2316 O   0  0  0  0  0  0  0  0  0  0  0  0
  2  1  1  6
  2  3  1  0
  3  4  1  0
  4  8  1  0
  4  5  2  0
  6  7  2  0
  6  2  1  0
  9 10  1  0
 11 10  1  0
 11 13  1  0
 11 12  1  1
 13 14  1  6
 14  6  1  0
 15 13  1  0
 15 16  2  0
 18 17  1  1
 19 18  1  0
 20 18  1  0
 21 22  1  0
 21 20  1  1
 22 15  1  0
 23 21  1  0
 24 23  2  0
 25 23  1  0
M  END
$$$$
