QEN.pdb
     RDKit          3D

 27 26  0  0  1  0  0  0  0  0999 V2000
   25.4256  -15.6206  -15.7470 N   0  0  0  0  0  0  0  0  0  0  0  0
   25.2379  -16.3997  -16.9275 C   0  0  0  0  0  0  0  0  0  0  0  0
   24.1489  -16.3011  -17.5327 O   0  0  0  0  0  0  0  0  0  0  0  0
   26.2762  -17.2993  -17.4504 C   0  0  0  0  0  0  0  0  0  0  0  0
   27.5119  -17.4652  -16.6808 C   0  0  0  0  0  0  0  0  0  0  0  0
   27.8794  -18.7914  -16.1440 C   0  0  2  0  0  0  0  0  0  0  0  0
   28.2105  -19.6262  -17.3514 N   0  0  0  0  0  0  0  0  0  0  0  0
   26.8136  -19.4856  -15.4258 C   0  0  0  0  0  0  0  0  0  0  0  0
   26.0082  -20.2931  -16.0143 O   0  0  0  0  0  0  0  0  0  0  0  0
   26.5789  -19.3358  -14.0022 N   0  0  0  0  0  0  0  0  0  0  0  0
   25.5596  -20.1025  -13.3912 C   0  0  1  0  0  0  0  0  0  0  0  0
   25.6900  -20.2229  -11.8979 C   0  0  0  0  0  0  0  0  0  0  0  0
   24.6703  -21.0320  -11.2094 C   0  0  0  0  0  0  0  0  0  0  0  0
   24.7291  -21.0684   -9.7467 C   0  0  0  0  0  0  0  0  0  0  0  0
   23.7330  -21.2411   -9.0394 O   0  0  0  0  0  0  0  0  0  0  0  0
   24.1904  -19.5860  -13.6731 C   0  0  0  0  0  0  0  0  0  0  0  0
   23.9078  -18.3841  -13.5636 O   0  0  0  0  0  0  0  0  0  0  0  0
   25.9563  -20.9044   -9.0712 O   0  0  0  0  0  0  0  0  0  0  0  0
   19.4240  -19.2894  -15.5064 N   0  0  0  0  0  0  0  0  0  0  0  0
   20.3091  -19.9999  -16.3902 C   0  0  0  0  0  0  0  0  0  0  0  0
   19.9060  -20.2617  -17.5300 O   0  0  0  0  0  0  0  0  0  0  0  0
   21.6231  -20.3512  -15.8484 C   0  0  0  0  0  0  0  0  0  0  0  0
   21.8259  -19.9999  -14.4019 C   0  0  2  0  0  0  0  0  0  0  0  0
   23.1877  -20.4793  -14.0755 N   0  0  0  0  0  0  0  0  0  0  0  0
   20.8866  -20.6588  -13.4822 C   0  0  0  0  0  0  0  0  0  0  0  0
   21.0966  -21.7622  -12.9442 O   0  0  0  0  0  0  0  0  0  0  0  0
   19.6801  -20.0186  -13.1848 O   0  0  0  0  0  0  0  0  0  0  0  0
  2  1  1  0
  3  2  2  0
  4  2  1  0
  5  4  1  0
  5  6  1  0
  6  7  1  6
  6  8  1  0
  8  9  2  0
 10  8  1  0
 10 11  1  0
 11 12  1  1
 12 13  1  0
 13 14  1  0
 14 15  2  0
 14 18  1  0
 16 11  1  0
 16 17  2  0
 19 20  1  0
 20 22  1  0
 20 21  2  0
 23 22  1  6
 23 24  1  0
 24 16  1  0
 25 23  1  0
 25 27  1  0
 26 25  2  0
M  END
$$$$
