QEN.pdb
     RDKit          3D

 27 26  0  0  1  0  0  0  0  0999 V2000
   18.3131  -15.0159  -14.1889 N   0  0  0  0  0  0  0  0  0  0  0  0
   17.5781  -14.8487  -15.4003 C   0  0  0  0  0  0  0  0  0  0  0  0
   16.7177  -15.7069  -15.6917 O   0  0  0  0  0  0  0  0  0  0  0  0
   17.7953  -13.7082  -16.3019 C   0  0  0  0  0  0  0  0  0  0  0  0
   18.6662  -12.6179  -15.8551 C   0  0  0  0  0  0  0  0  0  0  0  0
   18.1754  -11.2247  -15.8646 C   0  0  2  0  0  0  0  0  0  0  0  0
   17.7784  -10.9575  -17.2913 N   0  0  0  0  0  0  0  0  0  0  0  0
   19.1682  -10.2160  -15.5030 C   0  0  0  0  0  0  0  0  0  0  0  0
   19.7583  -10.2176  -14.3633 O   0  0  0  0  0  0  0  0  0  0  0  0
   19.5787   -9.1437  -16.3895 N   0  0  0  0  0  0  0  0  0  0  0  0
   20.5800   -8.2432  -15.9579 C   0  0  1  0  0  0  0  0  0  0  0  0
   21.2107   -7.4455  -17.0659 C   0  0  0  0  0  0  0  0  0  0  0  0
   21.9345   -8.2068  -18.0978 C   0  0  0  0  0  0  0  0  0  0  0  0
   21.6871   -7.8345  -19.4923 C   0  0  0  0  0  0  0  0  0  0  0  0
   21.8193   -6.6820  -19.9125 O   0  0  0  0  0  0  0  0  0  0  0  0
   20.0929   -7.2714  -14.9383 C   0  0  0  0  0  0  0  0  0  0  0  0
   18.8937   -6.9757  -14.8350 O   0  0  0  0  0  0  0  0  0  0  0  0
   21.2786   -8.8017  -20.4340 O   0  0  0  0  0  0  0  0  0  0  0  0
   19.6569   -4.4259  -10.7941 N   0  0  0  0  0  0  0  0  0  0  0  0
   19.1905   -5.7783  -10.9445 C   0  0  0  0  0  0  0  0  0  0  0  0
   18.4314   -6.2313  -10.0792 O   0  0  0  0  0  0  0  0  0  0  0  0
   19.6658   -6.5013  -12.1255 C   0  0  0  0  0  0  0  0  0  0  0  0
   20.5658   -5.7108  -13.0321 C   0  0  2  0  0  0  0  0  0  0  0  0
   21.0119   -6.6710  -14.0664 N   0  0  0  0  0  0  0  0  0  0  0  0
   21.7652   -5.1722  -12.3737 C   0  0  0  0  0  0  0  0  0  0  0  0
   22.9079   -5.6485  -12.5095 O   0  0  0  0  0  0  0  0  0  0  0  0
   21.6290   -4.0573  -11.5416 O   0  0  0  0  0  0  0  0  0  0  0  0
  2  1  1  0
  3  2  2  0
  4  2  1  0
  5  4  1  0
  5  6  1  0
  6  7  1  6
  6  8  1  0
  8  9  2  0
 10  8  1  0
 10 11  1  0
 11 12  1  6
 12 13  1  0
 13 14  1  0
 14 15  2  0
 14 18  1  0
 16 11  1  0
 16 17  2  0
 19 20  1  0
 20 22  1  0
 20 21  2  0
 23 22  1  1
 23 24  1  0
 24 16  1  0
 25 23  1  0
 25 27  1  0
 26 25  2  0
M  END
$$$$
