QEN.pdb
     RDKit          3D

 27 26  0  0  1  0  0  0  0  0999 V2000
   27.2882  -18.7676  -19.0013 N   0  0  0  0  0  0  0  0  0  0  0  0
   28.5698  -19.0163  -18.4258 C   0  0  0  0  0  0  0  0  0  0  0  0
   29.5716  -18.5095  -18.9748 O   0  0  0  0  0  0  0  0  0  0  0  0
   28.7449  -19.8355  -17.2179 C   0  0  0  0  0  0  0  0  0  0  0  0
   27.5586  -20.4304  -16.5968 C   0  0  0  0  0  0  0  0  0  0  0  0
   26.7198  -19.6299  -15.6817 C   0  0  2  0  0  0  0  0  0  0  0  0
   27.6634  -19.1251  -14.6238 N   0  0  0  0  0  0  0  0  0  0  0  0
   25.6687  -20.3755  -14.9937 C   0  0  0  0  0  0  0  0  0  0  0  0
   24.8406  -21.1264  -15.6243 O   0  0  0  0  0  0  0  0  0  0  0  0
   25.4749  -20.3436  -13.5565 N   0  0  0  0  0  0  0  0  0  0  0  0
   24.3668  -21.0227  -12.9992 C   0  0  1  0  0  0  0  0  0  0  0  0
   24.4997  -21.3181  -11.5306 C   0  0  0  0  0  0  0  0  0  0  0  0
   25.7093  -20.8097  -10.8620 C   0  0  0  0  0  0  0  0  0  0  0  0
   25.7545  -20.9163   -9.4022 C   0  0  0  0  0  0  0  0  0  0  0  0
   26.7133  -20.5266   -8.7306 O   0  0  0  0  0  0  0  0  0  0  0  0
   23.0798  -20.2949  -13.1867 C   0  0  0  0  0  0  0  0  0  0  0  0
   22.9793  -19.0770  -12.9796 O   0  0  0  0  0  0  0  0  0  0  0  0
   24.6777  -21.4816   -8.6880 O   0  0  0  0  0  0  0  0  0  0  0  0
   18.5047  -18.9815  -14.9236 N   0  0  0  0  0  0  0  0  0  0  0  0
   19.5404  -19.2830  -15.8753 C   0  0  0  0  0  0  0  0  0  0  0  0
   19.3447  -18.9884  -17.0607 O   0  0  0  0  0  0  0  0  0  0  0  0
   20.7463  -19.9196  -15.3424 C   0  0  0  0  0  0  0  0  0  0  0  0
   20.6722  -20.3012  -13.8912 C   0  0  2  0  0  0  0  0  0  0  0  0
   21.9457  -21.0015  -13.6107 N   0  0  0  0  0  0  0  0  0  0  0  0
   19.5732  -21.2216  -13.5635 C   0  0  0  0  0  0  0  0  0  0  0  0
   19.6009  -22.4468  -13.7849 O   0  0  0  0  0  0  0  0  0  0  0  0
   18.4207  -20.7029  -12.9662 O   0  0  0  0  0  0  0  0  0  0  0  0
  2  1  1  0
  3  2  2  0
  4  2  1  0
  5  4  1  0
  5  6  1  0
  6  7  1  1
  6  8  1  0
  8  9  2  0
 10  8  1  0
 10 11  1  0
 11 12  1  1
 12 13  1  0
 13 14  1  0
 14 15  2  0
 14 18  1  0
 16 11  1  0
 16 17  2  0
 19 20  1  0
 20 22  1  0
 20 21  2  0
 23 22  1  6
 23 24  1  0
 24 16  1  0
 25 23  1  0
 25 27  1  0
 26 25  2  0
M  END
$$$$
