QEN.pdb
     RDKit          3D

 27 26  0  0  1  0  0  0  0  0999 V2000
   12.0803  -11.7274  -16.9493 N   0  0  0  0  0  0  0  0  0  0  0  0
   12.0464  -12.8197  -16.0321 C   0  0  0  0  0  0  0  0  0  0  0  0
   11.1614  -13.6892  -16.1822 O   0  0  0  0  0  0  0  0  0  0  0  0
   13.0131  -12.9551  -14.9330 C   0  0  0  0  0  0  0  0  0  0  0  0
   13.9978  -11.8891  -14.7307 C   0  0  0  0  0  0  0  0  0  0  0  0
   15.3778  -12.2214  -14.3221 C   0  0  2  0  0  0  0  0  0  0  0  0
   15.2762  -13.5639  -13.6499 N   0  0  0  0  0  0  0  0  0  0  0  0
   15.9745  -11.3047  -13.3539 C   0  0  0  0  0  0  0  0  0  0  0  0
   16.0176  -11.5710  -12.0991 O   0  0  0  0  0  0  0  0  0  0  0  0
   16.5727  -10.0345  -13.7182 N   0  0  0  0  0  0  0  0  0  0  0  0
   17.1288   -9.2224  -12.7027 C   0  0  1  0  0  0  0  0  0  0  0  0
   18.2909   -8.3810  -13.1534 C   0  0  0  0  0  0  0  0  0  0  0  0
   19.4853   -9.1027  -13.6235 C   0  0  0  0  0  0  0  0  0  0  0  0
   20.5999   -8.2906  -14.1159 C   0  0  0  0  0  0  0  0  0  0  0  0
   20.5741   -7.0572  -14.1348 O   0  0  0  0  0  0  0  0  0  0  0  0
   16.1354   -8.3029  -12.0793 C   0  0  0  0  0  0  0  0  0  0  0  0
   15.1948   -7.8189  -12.7252 O   0  0  0  0  0  0  0  0  0  0  0  0
   21.7763   -8.9002  -14.5994 O   0  0  0  0  0  0  0  0  0  0  0  0
   15.1820   -6.0412   -6.6534 N   0  0  0  0  0  0  0  0  0  0  0  0
   14.4820   -6.7488   -7.6919 C   0  0  0  0  0  0  0  0  0  0  0  0
   13.2519   -6.6315   -7.7482 O   0  0  0  0  0  0  0  0  0  0  0  0
   15.3046   -7.5529   -8.5976 C   0  0  0  0  0  0  0  0  0  0  0  0
   15.2398   -7.1451  -10.0421 C   0  0  2  0  0  0  0  0  0  0  0  0
   16.2614   -7.9719  -10.7229 N   0  0  0  0  0  0  0  0  0  0  0  0
   15.5699   -5.7333  -10.2871 C   0  0  0  0  0  0  0  0  0  0  0  0
   16.6930   -5.3326  -10.6465 O   0  0  0  0  0  0  0  0  0  0  0  0
   14.5714   -4.7713  -10.1097 O   0  0  0  0  0  0  0  0  0  0  0  0
  2  1  1  0
  3  2  2  0
  4  2  1  0
  5  4  1  0
  5  6  1  0
  6  7  1  1
  6  8  1  0
  8  9  2  0
 10  8  1  0
 10 11  1  0
 11 12  1  6
 12 13  1  0
 13 14  1  0
 14 15  2  0
 14 18  1  0
 16 11  1  0
 16 17  2  0
 19 20  1  0
 20 22  1  0
 20 21  2  0
 23 22  1  1
 23 24  1  0
 24 16  1  0
 25 23  1  0
 25 27  1  0
 26 25  2  0
M  END
$$$$
