QEN.pdb
     RDKit          3D

 27 26  0  0  1  0  0  0  0  0999 V2000
   26.9314  -16.7780  -17.8177 N   0  0  0  0  0  0  0  0  0  0  0  0
   28.0759  -17.4570  -18.3321 C   0  0  0  0  0  0  0  0  0  0  0  0
   28.5158  -17.1093  -19.4490 O   0  0  0  0  0  0  0  0  0  0  0  0
   28.7490  -18.5357  -17.5945 C   0  0  0  0  0  0  0  0  0  0  0  0
   28.2882  -18.8517  -16.2400 C   0  0  0  0  0  0  0  0  0  0  0  0
   28.3303  -20.2437  -15.7477 C   0  0  2  0  0  0  0  0  0  0  0  0
   28.3166  -21.0990  -16.9857 N   0  0  0  0  0  0  0  0  0  0  0  0
   27.1841  -20.6489  -14.9378 C   0  0  0  0  0  0  0  0  0  0  0  0
   26.1443  -21.1969  -15.4532 O   0  0  0  0  0  0  0  0  0  0  0  0
   27.1222  -20.4809  -13.4983 N   0  0  0  0  0  0  0  0  0  0  0  0
   25.9213  -20.7981  -12.8223 C   0  0  1  0  0  0  0  0  0  0  0  0
   26.0179  -20.7183  -11.3237 C   0  0  0  0  0  0  0  0  0  0  0  0
   24.8088  -21.0787  -10.5642 C   0  0  0  0  0  0  0  0  0  0  0  0
   24.9218  -21.0910   -9.1043 C   0  0  0  0  0  0  0  0  0  0  0  0
   25.9454  -20.7464   -8.5078 O   0  0  0  0  0  0  0  0  0  0  0  0
   24.7736  -19.9417  -13.2354 C   0  0  0  0  0  0  0  0  0  0  0  0
   24.8957  -18.7203  -13.4074 O   0  0  0  0  0  0  0  0  0  0  0  0
   23.8389  -21.5065   -8.3019 O   0  0  0  0  0  0  0  0  0  0  0  0
   20.4721  -18.2574  -15.2280 N   0  0  0  0  0  0  0  0  0  0  0  0
   21.6541  -18.5578  -15.9909 C   0  0  0  0  0  0  0  0  0  0  0  0
   21.6981  -18.1802  -17.1680 O   0  0  0  0  0  0  0  0  0  0  0  0
   22.7090  -19.2930  -15.2908 C   0  0  0  0  0  0  0  0  0  0  0  0
   22.3629  -19.7189  -13.8923 C   0  0  2  0  0  0  0  0  0  0  0  0
   23.5164  -20.5277  -13.4384 N   0  0  0  0  0  0  0  0  0  0  0  0
   21.1606  -20.5601  -13.7967 C   0  0  0  0  0  0  0  0  0  0  0  0
   20.0184  -20.1823  -14.1187 O   0  0  0  0  0  0  0  0  0  0  0  0
   21.2933  -21.8661  -13.3164 O   0  0  0  0  0  0  0  0  0  0  0  0
  2  1  1  0
  3  2  2  0
  4  2  1  0
  5  4  1  0
  5  6  1  0
  6  7  1  6
  6  8  1  0
  8  9  2  0
 10  8  1  0
 10 11  1  0
 11 12  1  1
 12 13  1  0
 13 14  1  0
 14 15  2  0
 14 18  1  0
 16 11  1  0
 16 17  2  0
 19 20  1  0
 20 22  1  0
 20 21  2  0
 23 22  1  6
 23 24  1  0
 24 16  1  0
 25 23  1  0
 25 27  1  0
 26 25  2  0
M  END
$$$$
