QEN.pdb
     RDKit          3D

 27 26  0  0  1  0  0  0  0  0999 V2000
   17.7373  -14.0944  -15.6465 N   0  0  0  0  0  0  0  0  0  0  0  0
   16.8607  -13.3798  -16.5164 C   0  0  0  0  0  0  0  0  0  0  0  0
   15.8660  -13.9810  -16.9757 O   0  0  0  0  0  0  0  0  0  0  0  0
   17.0860  -11.9734  -16.8795 C   0  0  0  0  0  0  0  0  0  0  0  0
   18.1910  -11.2534  -16.2412 C   0  0  0  0  0  0  0  0  0  0  0  0
   19.5794  -11.4704  -16.6965 C   0  0  2  0  0  0  0  0  0  0  0  0
   20.0316  -12.7230  -15.9958 N   0  0  0  0  0  0  0  0  0  0  0  0
   20.5222  -10.4154  -16.3330 C   0  0  0  0  0  0  0  0  0  0  0  0
   20.5603   -9.9115  -15.1533 O   0  0  0  0  0  0  0  0  0  0  0  0
   21.4930   -9.8575  -17.2551 N   0  0  0  0  0  0  0  0  0  0  0  0
   22.4064   -8.8862  -16.7839 C   0  0  1  0  0  0  0  0  0  0  0  0
   23.6791   -8.7991  -17.5804 C   0  0  0  0  0  0  0  0  0  0  0  0
   24.7143   -7.8834  -17.0723 C   0  0  0  0  0  0  0  0  0  0  0  0
   25.9546   -7.7904  -17.8451 C   0  0  0  0  0  0  0  0  0  0  0  0
   26.2094   -8.5331  -18.7967 O   0  0  0  0  0  0  0  0  0  0  0  0
   21.8261   -7.5146  -16.7304 C   0  0  0  0  0  0  0  0  0  0  0  0
   21.0433   -7.0998  -17.5973 O   0  0  0  0  0  0  0  0  0  0  0  0
   26.9312   -6.8242  -17.5255 O   0  0  0  0  0  0  0  0  0  0  0  0
   20.1966   -2.9966  -15.1686 N   0  0  0  0  0  0  0  0  0  0  0  0
   19.4204   -4.2078  -15.1653 C   0  0  0  0  0  0  0  0  0  0  0  0
   18.2069   -4.1202  -14.9421 O   0  0  0  0  0  0  0  0  0  0  0  0
   20.1517   -5.4481  -15.4305 C   0  0  0  0  0  0  0  0  0  0  0  0
   21.6359   -5.2848  -15.5969 C   0  0  2  0  0  0  0  0  0  0  0  0
   22.1700   -6.6632  -15.6711 N   0  0  0  0  0  0  0  0  0  0  0  0
   22.2993   -4.6071  -14.4732 C   0  0  0  0  0  0  0  0  0  0  0  0
   22.3837   -5.0818  -13.3249 O   0  0  0  0  0  0  0  0  0  0  0  0
   22.8751   -3.3525  -14.6933 O   0  0  0  0  0  0  0  0  0  0  0  0
  2  1  1  0
  3  2  2  0
  4  2  1  0
  5  4  1  0
  5  6  1  0
  6  7  1  1
  6  8  1  0
  8  9  2  0
 10  8  1  0
 10 11  1  0
 11 12  1  6
 12 13  1  0
 13 14  1  0
 14 15  2  0
 14 18  1  0
 16 11  1  0
 16 17  2  0
 19 20  1  0
 20 22  1  0
 20 21  2  0
 23 22  1  1
 23 24  1  0
 24 16  1  0
 25 23  1  0
 25 27  1  0
 26 25  2  0
M  END
$$$$
