QEN.pdb
     RDKit          3D

 27 26  0  0  1  0  0  0  0  0999 V2000
   17.7788  -14.7435  -14.3795 N   0  0  0  0  0  0  0  0  0  0  0  0
   16.4269  -14.9819  -14.7684 C   0  0  0  0  0  0  0  0  0  0  0  0
   15.9242  -16.0950  -14.5037 O   0  0  0  0  0  0  0  0  0  0  0  0
   15.6154  -13.9681  -15.4571 C   0  0  0  0  0  0  0  0  0  0  0  0
   16.2327  -12.6800  -15.7837 C   0  0  0  0  0  0  0  0  0  0  0  0
   15.4474  -11.6334  -16.4691 C   0  0  2  0  0  0  0  0  0  0  0  0
   15.2884  -12.1238  -17.8829 N   0  0  0  0  0  0  0  0  0  0  0  0
   16.0917  -10.3244  -16.5427 C   0  0  0  0  0  0  0  0  0  0  0  0
   16.8935  -10.0113  -17.4947 O   0  0  0  0  0  0  0  0  0  0  0  0
   15.8790   -9.2721  -15.5673 N   0  0  0  0  0  0  0  0  0  0  0  0
   16.5796   -8.0522  -15.7114 C   0  0  1  0  0  0  0  0  0  0  0  0
   15.8271   -6.8471  -15.2182 C   0  0  0  0  0  0  0  0  0  0  0  0
   16.4756   -5.5393  -15.4116 C   0  0  0  0  0  0  0  0  0  0  0  0
   15.7462   -4.3609  -14.9387 C   0  0  0  0  0  0  0  0  0  0  0  0
   15.0292   -3.6763  -15.6732 O   0  0  0  0  0  0  0  0  0  0  0  0
   17.9040   -8.0538  -15.0279 C   0  0  0  0  0  0  0  0  0  0  0  0
   18.0739   -8.6018  -13.9292 O   0  0  0  0  0  0  0  0  0  0  0  0
   15.8354   -3.9517  -13.5919 O   0  0  0  0  0  0  0  0  0  0  0  0
   22.8138   -9.8081  -14.4576 N   0  0  0  0  0  0  0  0  0  0  0  0
   22.4658   -8.7273  -15.3408 C   0  0  0  0  0  0  0  0  0  0  0  0
   23.3740   -7.9914  -15.7453 O   0  0  0  0  0  0  0  0  0  0  0  0
   21.0479   -8.5990  -15.6822 C   0  0  0  0  0  0  0  0  0  0  0  0
   20.3390   -7.4508  -15.0219 C   0  0  2  0  0  0  0  0  0  0  0  0
   18.9945   -7.4203  -15.6400 N   0  0  0  0  0  0  0  0  0  0  0  0
   20.9669   -6.1409  -15.2501 C   0  0  0  0  0  0  0  0  0  0  0  0
   20.7369   -5.4209  -16.2399 O   0  0  0  0  0  0  0  0  0  0  0  0
   21.8798   -5.6620  -14.3060 O   0  0  0  0  0  0  0  0  0  0  0  0
  2  1  1  0
  3  2  2  0
  4  2  1  0
  5  4  1  0
  5  6  1  0
  6  7  1  6
  6  8  1  0
  8  9  2  0
 10  8  1  0
 10 11  1  0
 11 12  1  1
 12 13  1  0
 13 14  1  0
 14 15  2  0
 14 18  1  0
 16 11  1  0
 16 17  2  0
 19 20  1  0
 20 22  1  0
 20 21  2  0
 23 22  1  6
 23 24  1  0
 24 16  1  0
 25 23  1  0
 25 27  1  0
 26 25  2  0
M  END
$$$$
