QEN.pdb
     RDKit          3D

 27 26  0  0  1  0  0  0  0  0999 V2000
   23.8624  -21.2514   -8.0962 N   0  0  0  0  0  0  0  0  0  0  0  0
   22.4393  -21.1552   -8.0607 C   0  0  0  0  0  0  0  0  0  0  0  0
   21.8838  -21.0304   -6.9482 O   0  0  0  0  0  0  0  0  0  0  0  0
   21.6171  -21.1917   -9.2786 C   0  0  0  0  0  0  0  0  0  0  0  0
   22.2822  -21.4049  -10.5667 C   0  0  0  0  0  0  0  0  0  0  0  0
   23.0180  -20.2996  -11.2139 C   0  0  2  0  0  0  0  0  0  0  0  0
   22.2007  -19.0672  -10.9354 N   0  0  0  0  0  0  0  0  0  0  0  0
   23.1454  -20.4068  -12.6652 C   0  0  0  0  0  0  0  0  0  0  0  0
   23.5828  -21.4705  -13.2348 O   0  0  0  0  0  0  0  0  0  0  0  0
   22.7849  -19.3411  -13.5808 N   0  0  0  0  0  0  0  0  0  0  0  0
   23.0549  -19.5016  -14.9596 C   0  0  1  0  0  0  0  0  0  0  0  0
   22.3910  -18.4796  -15.8408 C   0  0  0  0  0  0  0  0  0  0  0  0
   21.5210  -18.9961  -16.9108 C   0  0  0  0  0  0  0  0  0  0  0  0
   20.8416  -18.0061  -17.7490 C   0  0  0  0  0  0  0  0  0  0  0  0
   20.8075  -16.8039  -17.4734 O   0  0  0  0  0  0  0  0  0  0  0  0
   24.5107  -19.4773  -15.2775 C   0  0  0  0  0  0  0  0  0  0  0  0
   25.2465  -18.5501  -14.9097 O   0  0  0  0  0  0  0  0  0  0  0  0
   20.1835  -18.3961  -18.9339 O   0  0  0  0  0  0  0  0  0  0  0  0
   29.0874  -21.1888  -17.0325 N   0  0  0  0  0  0  0  0  0  0  0  0
   28.3356  -22.2697  -16.4528 C   0  0  0  0  0  0  0  0  0  0  0  0
   28.9124  -23.3493  -16.2747 O   0  0  0  0  0  0  0  0  0  0  0  0
   26.9378  -21.9848  -16.1236 C   0  0  0  0  0  0  0  0  0  0  0  0
   26.5182  -20.5564  -16.3255 C   0  0  2  0  0  0  0  0  0  0  0  0
   25.0718  -20.5310  -16.0124 N   0  0  0  0  0  0  0  0  0  0  0  0
   26.6876  -20.0652  -17.7011 C   0  0  0  0  0  0  0  0  0  0  0  0
   25.9706  -20.4127  -18.6583 O   0  0  0  0  0  0  0  0  0  0  0  0
   27.7123  -19.1517  -17.9648 O   0  0  0  0  0  0  0  0  0  0  0  0
  2  1  1  0
  3  2  2  0
  4  2  1  0
  5  4  1  0
  5  6  1  0
  6  7  1  6
  6  8  1  0
  8  9  2  0
 10  8  1  0
 10 11  1  0
 11 12  1  6
 12 13  1  0
 13 14  1  0
 14 15  2  0
 14 18  1  0
 16 11  1  0
 16 17  2  0
 19 20  1  0
 20 22  1  0
 20 21  2  0
 23 22  1  6
 23 24  1  0
 24 16  1  0
 25 23  1  0
 25 27  1  0
 26 25  2  0
M  END
$$$$
