QEN.pdb
     RDKit          3D

 27 26  0  0  1  0  0  0  0  0999 V2000
   27.4425  -12.1140  -15.2362 N   0  0  0  0  0  0  0  0  0  0  0  0
   28.1365  -12.3203  -16.4657 C   0  0  0  0  0  0  0  0  0  0  0  0
   29.1613  -13.0356  -16.4520 O   0  0  0  0  0  0  0  0  0  0  0  0
   27.6848  -11.7293  -17.7335 C   0  0  0  0  0  0  0  0  0  0  0  0
   26.4836  -10.8904  -17.7268 C   0  0  0  0  0  0  0  0  0  0  0  0
   25.1737  -11.4728  -17.3707 C   0  0  2  0  0  0  0  0  0  0  0  0
   24.8354  -12.4023  -18.5047 N   0  0  0  0  0  0  0  0  0  0  0  0
   24.0774  -10.5131  -17.2655 C   0  0  0  0  0  0  0  0  0  0  0  0
   24.0253   -9.4550  -17.9899 O   0  0  0  0  0  0  0  0  0  0  0  0
   22.9599  -10.6718  -16.3544 N   0  0  0  0  0  0  0  0  0  0  0  0
   21.9635   -9.6692  -16.3108 C   0  0  1  0  0  0  0  0  0  0  0  0
   20.7025  -10.0836  -15.6039 C   0  0  0  0  0  0  0  0  0  0  0  0
   19.8844  -11.1149  -16.2639 C   0  0  0  0  0  0  0  0  0  0  0  0
   18.6704  -11.5448  -15.5670 C   0  0  0  0  0  0  0  0  0  0  0  0
   17.5354  -11.2709  -15.9656 O   0  0  0  0  0  0  0  0  0  0  0  0
   22.4315   -8.4067  -15.6717 C   0  0  0  0  0  0  0  0  0  0  0  0
   23.5605   -8.3051  -15.1705 O   0  0  0  0  0  0  0  0  0  0  0  0
   18.7517  -12.3082  -14.3838 O   0  0  0  0  0  0  0  0  0  0  0  0
   23.1444   -3.5262  -14.6761 N   0  0  0  0  0  0  0  0  0  0  0  0
   23.7545   -4.2814  -15.7375 C   0  0  0  0  0  0  0  0  0  0  0  0
   24.6809   -3.7561  -16.3668 O   0  0  0  0  0  0  0  0  0  0  0  0
   23.2128   -5.6205  -15.9758 C   0  0  0  0  0  0  0  0  0  0  0  0
   22.0417   -5.9928  -15.1115 C   0  0  2  0  0  0  0  0  0  0  0  0
   21.5757   -7.2970  -15.6336 N   0  0  0  0  0  0  0  0  0  0  0  0
   20.9137   -5.0523  -15.1841 C   0  0  0  0  0  0  0  0  0  0  0  0
   20.1786   -4.9213  -16.1809 O   0  0  0  0  0  0  0  0  0  0  0  0
   20.6380   -4.2499  -14.0731 O   0  0  0  0  0  0  0  0  0  0  0  0
  2  1  1  0
  3  2  2  0
  4  2  1  0
  5  4  1  0
  5  6  1  0
  6  7  1  6
  6  8  1  0
  8  9  2  0
 10  8  1  0
 10 11  1  0
 11 12  1  1
 12 13  1  0
 13 14  1  0
 14 15  2  0
 14 18  1  0
 16 11  1  0
 16 17  2  0
 19 20  1  0
 20 22  1  0
 20 21  2  0
 23 22  1  6
 23 24  1  0
 24 16  1  0
 25 23  1  0
 25 27  1  0
 26 25  2  0
M  END
$$$$
