QEN.pdb
     RDKit          3D

 27 26  0  0  1  0  0  0  0  0999 V2000
   23.8793  -13.1739  -19.2507 N   0  0  0  0  0  0  0  0  0  0  0  0
   22.8571  -14.0974  -19.6220 C   0  0  0  0  0  0  0  0  0  0  0  0
   23.1994  -15.2474  -19.9717 O   0  0  0  0  0  0  0  0  0  0  0  0
   21.4305  -13.7437  -19.5999 C   0  0  0  0  0  0  0  0  0  0  0  0
   21.0557  -12.3641  -19.2787 C   0  0  0  0  0  0  0  0  0  0  0  0
   21.4899  -11.7545  -18.0052 C   0  0  2  0  0  0  0  0  0  0  0  0
   21.3587  -12.8488  -16.9807 N   0  0  0  0  0  0  0  0  0  0  0  0
   20.6701  -10.6375  -17.5423 C   0  0  0  0  0  0  0  0  0  0  0  0
   20.4818   -9.5878  -18.2561 O   0  0  0  0  0  0  0  0  0  0  0  0
   19.9962  -10.6182  -16.2579 N   0  0  0  0  0  0  0  0  0  0  0  0
   19.2109   -9.4939  -15.9128 C   0  0  1  0  0  0  0  0  0  0  0  0
   17.9476   -9.8292  -15.1689 C   0  0  0  0  0  0  0  0  0  0  0  0
   16.9185  -10.5710  -15.9166 C   0  0  0  0  0  0  0  0  0  0  0  0
   15.7415  -11.0118  -15.1652 C   0  0  0  0  0  0  0  0  0  0  0  0
   15.5727  -10.7533  -13.9706 O   0  0  0  0  0  0  0  0  0  0  0  0
   19.9510   -8.4923  -15.0941 C   0  0  0  0  0  0  0  0  0  0  0  0
   20.9140   -8.8109  -14.3818 O   0  0  0  0  0  0  0  0  0  0  0  0
   14.7285  -11.7670  -15.7919 O   0  0  0  0  0  0  0  0  0  0  0  0
   22.0159   -4.1092  -13.6355 N   0  0  0  0  0  0  0  0  0  0  0  0
   22.5941   -5.0988  -14.5047 C   0  0  0  0  0  0  0  0  0  0  0  0
   23.7868   -4.9789  -14.8101 O   0  0  0  0  0  0  0  0  0  0  0  0
   21.7025   -6.1703  -14.9521 C   0  0  0  0  0  0  0  0  0  0  0  0
   20.3103   -6.1115  -14.3905 C   0  0  2  0  0  0  0  0  0  0  0  0
   19.5529   -7.1486  -15.1264 N   0  0  0  0  0  0  0  0  0  0  0  0
   19.6280   -4.8257  -14.5991 C   0  0  0  0  0  0  0  0  0  0  0  0
   19.3826   -4.0114  -13.6894 O   0  0  0  0  0  0  0  0  0  0  0  0
   19.2246   -4.4838  -15.8931 O   0  0  0  0  0  0  0  0  0  0  0  0
  2  1  1  0
  3  2  2  0
  4  2  1  0
  5  4  1  0
  5  6  1  0
  6  7  1  1
  6  8  1  0
  8  9  2  0
 10  8  1  0
 10 11  1  0
 11 12  1  1
 12 13  1  0
 13 14  1  0
 14 15  2  0
 14 18  1  0
 16 11  1  0
 16 17  2  0
 19 20  1  0
 20 22  1  0
 20 21  2  0
 23 22  1  6
 23 24  1  0
 24 16  1  0
 25 23  1  0
 25 27  1  0
 26 25  2  0
M  END
$$$$
