QEN.pdb
     RDKit          3D

 27 26  0  0  1  0  0  0  0  0999 V2000
   16.0020  -23.7726   -5.1949 N   0  0  0  0  0  0  0  0  0  0  0  0
   16.8072  -24.8634   -4.7501 C   0  0  0  0  0  0  0  0  0  0  0  0
   16.4579  -25.4713   -3.7156 O   0  0  0  0  0  0  0  0  0  0  0  0
   18.0168  -25.2924   -5.4666 C   0  0  0  0  0  0  0  0  0  0  0  0
   18.3393  -24.6508   -6.7438 C   0  0  0  0  0  0  0  0  0  0  0  0
   17.7169  -25.1319   -7.9940 C   0  0  2  0  0  0  0  0  0  0  0  0
   18.3728  -26.4567   -8.2752 N   0  0  0  0  0  0  0  0  0  0  0  0
   17.9447  -24.2874   -9.1639 C   0  0  0  0  0  0  0  0  0  0  0  0
   18.0291  -23.0097   -9.0768 O   0  0  0  0  0  0  0  0  0  0  0  0
   18.1043  -24.8087  -10.5081 N   0  0  0  0  0  0  0  0  0  0  0  0
   18.1912  -23.9013  -11.5893 C   0  0  1  0  0  0  0  0  0  0  0  0
   18.6570  -24.5208  -12.8780 C   0  0  0  0  0  0  0  0  0  0  0  0
   20.0166  -25.0864  -12.8849 C   0  0  0  0  0  0  0  0  0  0  0  0
   20.5074  -25.6177  -14.1581 C   0  0  0  0  0  0  0  0  0  0  0  0
   21.6525  -26.0526  -14.3067 O   0  0  0  0  0  0  0  0  0  0  0  0
   16.9039  -23.2068  -11.8751 C   0  0  0  0  0  0  0  0  0  0  0  0
   15.8134  -23.6736  -11.5157 O   0  0  0  0  0  0  0  0  0  0  0  0
   19.6708  -25.6552  -15.2929 O   0  0  0  0  0  0  0  0  0  0  0  0
   15.0732  -17.5447  -12.1851 N   0  0  0  0  0  0  0  0  0  0  0  0
   14.8020  -18.9251  -12.4855 C   0  0  0  0  0  0  0  0  0  0  0  0
   13.6614  -19.2261  -12.8576 O   0  0  0  0  0  0  0  0  0  0  0  0
   15.9190  -19.8569  -12.3198 C   0  0  0  0  0  0  0  0  0  0  0  0
   15.6661  -21.2462  -12.8325 C   0  0  2  0  0  0  0  0  0  0  0  0
   16.9190  -21.9890  -12.5693 N   0  0  0  0  0  0  0  0  0  0  0  0
   15.3975  -21.3182  -14.2764 C   0  0  0  0  0  0  0  0  0  0  0  0
   16.2840  -21.3138  -15.1511 O   0  0  0  0  0  0  0  0  0  0  0  0
   14.0702  -21.3968  -14.7078 O   0  0  0  0  0  0  0  0  0  0  0  0
  2  1  1  0
  3  2  2  0
  4  2  1  0
  5  4  1  0
  5  6  1  0
  6  7  1  6
  6  8  1  0
  8  9  2  0
 10  8  1  0
 10 11  1  0
 11 12  1  6
 12 13  1  0
 13 14  1  0
 14 15  2  0
 14 18  1  0
 16 11  1  0
 16 17  2  0
 19 20  1  0
 20 22  1  0
 20 21  2  0
 23 22  1  6
 23 24  1  0
 24 16  1  0
 25 23  1  0
 25 27  1  0
 26 25  2  0
M  END
$$$$
