QEN.pdb
     RDKit          3D

 27 26  0  0  1  0  0  0  0  0999 V2000
   13.8094   -5.7308   -7.6927 N   0  0  0  0  0  0  0  0  0  0  0  0
   13.5296   -7.1198   -7.5251 C   0  0  0  0  0  0  0  0  0  0  0  0
   12.5014   -7.4425   -6.8924 O   0  0  0  0  0  0  0  0  0  0  0  0
   14.4002   -8.1699   -8.0729 C   0  0  0  0  0  0  0  0  0  0  0  0
   15.6077   -7.7701   -8.8002 C   0  0  0  0  0  0  0  0  0  0  0  0
   15.6750   -7.9233  -10.2678 C   0  0  2  0  0  0  0  0  0  0  0  0
   15.6489   -9.4084  -10.5096 N   0  0  0  0  0  0  0  0  0  0  0  0
   16.8947   -7.4124  -10.8884 C   0  0  0  0  0  0  0  0  0  0  0  0
   17.2960   -6.2062  -10.7121 O   0  0  0  0  0  0  0  0  0  0  0  0
   17.7553   -8.2126  -11.7387 N   0  0  0  0  0  0  0  0  0  0  0  0
   18.7466   -7.5662  -12.5129 C   0  0  1  0  0  0  0  0  0  0  0  0
   19.6776   -8.5044  -13.2303 C   0  0  0  0  0  0  0  0  0  0  0  0
   20.8589   -7.9011  -13.8699 C   0  0  0  0  0  0  0  0  0  0  0  0
   21.8062   -8.8159  -14.5100 C   0  0  0  0  0  0  0  0  0  0  0  0
   22.1837   -8.6823  -15.6770 O   0  0  0  0  0  0  0  0  0  0  0  0
   18.1799   -6.6416  -13.5352 C   0  0  0  0  0  0  0  0  0  0  0  0
   17.0577   -6.8203  -14.0303 O   0  0  0  0  0  0  0  0  0  0  0  0
   22.3387   -9.9128  -13.8010 O   0  0  0  0  0  0  0  0  0  0  0  0
   15.3189   -2.3781  -14.4706 N   0  0  0  0  0  0  0  0  0  0  0  0
   16.4820   -2.9679  -15.0778 C   0  0  0  0  0  0  0  0  0  0  0  0
   16.8540   -2.5265  -16.1718 O   0  0  0  0  0  0  0  0  0  0  0  0
   17.1249   -4.0513  -14.3317 C   0  0  0  0  0  0  0  0  0  0  0  0
   18.3917   -4.5772  -14.9445 C   0  0  2  0  0  0  0  0  0  0  0  0
   18.9316   -5.5346  -13.9532 N   0  0  0  0  0  0  0  0  0  0  0  0
   19.4188   -3.5523  -15.1830 C   0  0  0  0  0  0  0  0  0  0  0  0
   20.1102   -3.0364  -14.2847 O   0  0  0  0  0  0  0  0  0  0  0  0
   19.6436   -3.1214  -16.4936 O   0  0  0  0  0  0  0  0  0  0  0  0
  2  1  1  0
  3  2  2  0
  4  2  1  0
  5  4  1  0
  5  6  1  0
  6  7  1  1
  6  8  1  0
  8  9  2  0
 10  8  1  0
 10 11  1  0
 11 12  1  6
 12 13  1  0
 13 14  1  0
 14 15  2  0
 14 18  1  0
 16 11  1  0
 16 17  2  0
 19 20  1  0
 20 22  1  0
 20 21  2  0
 23 22  1  1
 23 24  1  0
 24 16  1  0
 25 23  1  0
 25 27  1  0
 26 25  2  0
M  END
$$$$
