QEN.pdb
     RDKit          3D

 27 26  0  0  1  0  0  0  0  0999 V2000
   14.5888  -11.5385  -15.6453 N   0  0  0  0  0  0  0  0  0  0  0  0
   15.8220  -11.7821  -14.9702 C   0  0  0  0  0  0  0  0  0  0  0  0
   15.7780  -12.1802  -13.7864 O   0  0  0  0  0  0  0  0  0  0  0  0
   17.1265  -11.5873  -15.6189 C   0  0  0  0  0  0  0  0  0  0  0  0
   17.1597  -11.0189  -16.9690 C   0  0  0  0  0  0  0  0  0  0  0  0
   18.1720  -10.0026  -17.3216 C   0  0  2  0  0  0  0  0  0  0  0  0
   19.4888  -10.7301  -17.2845 N   0  0  0  0  0  0  0  0  0  0  0  0
   18.2774   -8.8839  -16.3883 C   0  0  0  0  0  0  0  0  0  0  0  0
   17.2641   -8.4416  -15.7365 O   0  0  0  0  0  0  0  0  0  0  0  0
   19.5196   -8.1887  -16.1097 N   0  0  0  0  0  0  0  0  0  0  0  0
   19.4944   -7.0487  -15.2733 C   0  0  1  0  0  0  0  0  0  0  0  0
   20.8537   -6.5660  -14.8478 C   0  0  0  0  0  0  0  0  0  0  0  0
   20.8878   -5.4182  -13.9260 C   0  0  0  0  0  0  0  0  0  0  0  0
   22.2079   -4.9453  -13.5044 C   0  0  0  0  0  0  0  0  0  0  0  0
   22.5963   -4.9955  -12.3344 O   0  0  0  0  0  0  0  0  0  0  0  0
   18.7877   -5.8886  -15.8866 C   0  0  0  0  0  0  0  0  0  0  0  0
   18.6057   -5.8041  -17.1097 O   0  0  0  0  0  0  0  0  0  0  0  0
   23.1107   -4.4009  -14.4413 O   0  0  0  0  0  0  0  0  0  0  0  0
   15.5493   -2.0367  -16.4578 N   0  0  0  0  0  0  0  0  0  0  0  0
   15.2413   -3.4340  -16.6061 C   0  0  0  0  0  0  0  0  0  0  0  0
   14.1458   -3.7396  -17.0924 O   0  0  0  0  0  0  0  0  0  0  0  0
   16.2695   -4.3761  -16.1604 C   0  0  0  0  0  0  0  0  0  0  0  0
   17.5193   -3.7408  -15.6207 C   0  0  2  0  0  0  0  0  0  0  0  0
   18.3112   -4.8597  -15.0623 N   0  0  0  0  0  0  0  0  0  0  0  0
   17.2867   -2.7728  -14.5386 C   0  0  0  0  0  0  0  0  0  0  0  0
   16.7211   -3.0510  -13.4644 O   0  0  0  0  0  0  0  0  0  0  0  0
   17.7220   -1.4559  -14.7128 O   0  0  0  0  0  0  0  0  0  0  0  0
  2  1  1  0
  3  2  2  0
  4  2  1  0
  5  4  1  0
  5  6  1  0
  6  7  1  1
  6  8  1  0
  8  9  2  0
 10  8  1  0
 10 11  1  0
 11 12  1  6
 12 13  1  0
 13 14  1  0
 14 15  2  0
 14 18  1  0
 16 11  1  0
 16 17  2  0
 19 20  1  0
 20 22  1  0
 20 21  2  0
 23 22  1  1
 23 24  1  0
 24 16  1  0
 25 23  1  0
 25 27  1  0
 26 25  2  0
M  END
$$$$
