QEN.pdb
     RDKit          3D

 27 26  0  0  1  0  0  0  0  0999 V2000
   23.8393  -19.6957  -15.0720 N   0  0  0  0  0  0  0  0  0  0  0  0
   24.3155  -19.2260  -16.3324 C   0  0  0  0  0  0  0  0  0  0  0  0
   24.1605  -18.0170  -16.6085 O   0  0  0  0  0  0  0  0  0  0  0  0
   24.9802  -20.1090  -17.3015 C   0  0  0  0  0  0  0  0  0  0  0  0
   25.1647  -21.5199  -16.9522 C   0  0  0  0  0  0  0  0  0  0  0  0
   24.3683  -22.5627  -17.6306 C   0  0  2  0  0  0  0  0  0  0  0  0
   23.9547  -21.9507  -18.9416 N   0  0  0  0  0  0  0  0  0  0  0  0
   23.1430  -22.9543  -16.9384 C   0  0  0  0  0  0  0  0  0  0  0  0
   21.9797  -22.6411  -17.3810 O   0  0  0  0  0  0  0  0  0  0  0  0
   23.1295  -23.7296  -15.7126 N   0  0  0  0  0  0  0  0  0  0  0  0
   21.8868  -24.0592  -15.1237 C   0  0  1  0  0  0  0  0  0  0  0  0
   21.9521  -25.1963  -14.1417 C   0  0  0  0  0  0  0  0  0  0  0  0
   20.6829  -25.5996  -13.5134 C   0  0  0  0  0  0  0  0  0  0  0  0
   20.7292  -26.7425  -12.5991 C   0  0  0  0  0  0  0  0  0  0  0  0
   21.7812  -27.2989  -12.2736 O   0  0  0  0  0  0  0  0  0  0  0  0
   21.2480  -22.9092  -14.4232 C   0  0  0  0  0  0  0  0  0  0  0  0
   21.9168  -22.0410  -13.8442 O   0  0  0  0  0  0  0  0  0  0  0  0
   19.5447  -27.2654  -12.0397 O   0  0  0  0  0  0  0  0  0  0  0  0
   18.1723  -19.1751  -13.1046 N   0  0  0  0  0  0  0  0  0  0  0  0
   19.0307  -19.1713  -14.2589 C   0  0  0  0  0  0  0  0  0  0  0  0
   19.1692  -18.1089  -14.8772 O   0  0  0  0  0  0  0  0  0  0  0  0
   19.6687  -20.4448  -14.5975 C   0  0  0  0  0  0  0  0  0  0  0  0
   19.1818  -21.6265  -13.8079 C   0  0  2  0  0  0  0  0  0  0  0  0
   19.8505  -22.7989  -14.4156 N   0  0  0  0  0  0  0  0  0  0  0  0
   17.7304  -21.8487  -13.8852 C   0  0  0  0  0  0  0  0  0  0  0  0
   17.1113  -22.0467  -14.9476 O   0  0  0  0  0  0  0  0  0  0  0  0
   16.9874  -21.8400  -12.7012 O   0  0  0  0  0  0  0  0  0  0  0  0
  2  1  1  0
  3  2  2  0
  4  2  1  0
  5  4  1  0
  5  6  1  0
  6  7  1  6
  6  8  1  0
  8  9  2  0
 10  8  1  0
 10 11  1  0
 11 12  1  1
 12 13  1  0
 13 14  1  0
 14 15  2  0
 14 18  1  0
 16 11  1  0
 16 17  2  0
 19 20  1  0
 20 22  1  0
 20 21  2  0
 23 22  1  6
 23 24  1  0
 24 16  1  0
 25 23  1  0
 25 27  1  0
 26 25  2  0
M  END
$$$$
