QEN.pdb
     RDKit          3D

 27 26  0  0  1  0  0  0  0  0999 V2000
   15.4511  -12.8258  -14.4356 N   0  0  0  0  0  0  0  0  0  0  0  0
   16.3899  -13.5418  -15.2368 C   0  0  0  0  0  0  0  0  0  0  0  0
   16.0224  -14.6168  -15.7577 O   0  0  0  0  0  0  0  0  0  0  0  0
   17.7575  -13.0562  -15.4704 C   0  0  0  0  0  0  0  0  0  0  0  0
   18.1887  -11.8271  -14.7993 C   0  0  0  0  0  0  0  0  0  0  0  0
   18.2826  -10.5621  -15.5562 C   0  0  2  0  0  0  0  0  0  0  0  0
   18.3857  -10.9745  -16.9997 N   0  0  0  0  0  0  0  0  0  0  0  0
   19.4601   -9.7497  -15.2606 C   0  0  0  0  0  0  0  0  0  0  0  0
   19.7544   -9.3846  -14.0659 O   0  0  0  0  0  0  0  0  0  0  0  0
   20.3949   -9.2975  -16.2733 N   0  0  0  0  0  0  0  0  0  0  0  0
   21.5062   -8.5163  -15.8803 C   0  0  1  0  0  0  0  0  0  0  0  0
   22.7389   -8.7347  -16.7137 C   0  0  0  0  0  0  0  0  0  0  0  0
   22.5942   -8.5493  -18.1674 C   0  0  0  0  0  0  0  0  0  0  0  0
   23.7836   -8.7864  -18.9878 C   0  0  0  0  0  0  0  0  0  0  0  0
   24.1966   -9.9168  -19.2596 O   0  0  0  0  0  0  0  0  0  0  0  0
   21.2243   -7.0529  -15.8869 C   0  0  0  0  0  0  0  0  0  0  0  0
   20.9526   -6.4424  -16.9308 O   0  0  0  0  0  0  0  0  0  0  0  0
   24.5226   -7.7062  -19.5136 O   0  0  0  0  0  0  0  0  0  0  0  0
   17.4517   -5.5386  -14.8214 N   0  0  0  0  0  0  0  0  0  0  0  0
   18.6237   -4.7866  -15.1821 C   0  0  0  0  0  0  0  0  0  0  0  0
   18.6722   -4.2933  -16.3154 O   0  0  0  0  0  0  0  0  0  0  0  0
   19.6638   -4.6746  -14.1578 C   0  0  0  0  0  0  0  0  0  0  0  0
   21.0672   -4.8727  -14.6561 C   0  0  2  0  0  0  0  0  0  0  0  0
   21.2647   -6.3394  -14.6809 N   0  0  0  0  0  0  0  0  0  0  0  0
   22.1041   -4.2956  -13.7878 C   0  0  0  0  0  0  0  0  0  0  0  0
   22.2210   -3.0774  -13.5570 O   0  0  0  0  0  0  0  0  0  0  0  0
   23.0216   -5.1557  -13.1774 O   0  0  0  0  0  0  0  0  0  0  0  0
  2  1  1  0
  3  2  2  0
  4  2  1  0
  5  4  1  0
  5  6  1  0
  6  7  1  6
  6  8  1  0
  8  9  2  0
 10  8  1  0
 10 11  1  0
 11 12  1  6
 12 13  1  0
 13 14  1  0
 14 15  2  0
 14 18  1  0
 16 11  1  0
 16 17  2  0
 19 20  1  0
 20 22  1  0
 20 21  2  0
 23 22  1  1
 23 24  1  0
 24 16  1  0
 25 23  1  0
 25 27  1  0
 26 25  2  0
M  END
$$$$
