YNL.pdb
     RDKit          3D

 29 29  0  0  1  0  0  0  0  0999 V2000
    6.7057  -12.0960   17.1385 O   0  0  0  0  0  0  0  0  0  0  0  0
    7.0666  -12.8906   18.2089 C   0  0  0  0  0  0  0  0  0  0  0  0
    8.2174  -12.6669   18.9188 C   0  0  0  0  0  0  0  0  0  0  0  0
    8.5702  -13.4704   19.9912 C   0  0  0  0  0  0  0  0  0  0  0  0
    7.7783  -14.5238   20.3843 C   0  0  0  0  0  0  0  0  0  0  0  0
    8.1211  -15.3992   21.5182 C   0  0  0  0  0  0  0  0  0  0  0  0
    9.1733  -16.4137   21.2765 C   0  0  2  0  0  0  0  0  0  0  0  0
    8.6293  -17.3231   20.2336 N   0  0  0  0  0  0  0  0  0  0  0  0
    9.5864  -17.2614   22.3728 C   0  0  0  0  0  0  0  0  0  0  0  0
    9.7139  -18.5133   22.2367 O   0  0  0  0  0  0  0  0  0  0  0  0
    6.6215  -14.7388   19.6610 C   0  0  0  0  0  0  0  0  0  0  0  0
    6.2552  -13.9472   18.5894 C   0  0  0  0  0  0  0  0  0  0  0  0
   12.9707  -18.1942   21.3861 N   0  0  0  0  0  0  0  0  0  0  0  0
   12.5812  -18.1928   22.7319 C   0  0  0  0  0  0  0  0  0  0  0  0
   12.4248  -19.3344   23.2792 O   0  0  0  0  0  0  0  0  0  0  0  0
   12.3345  -17.0004   23.5782 C   0  0  0  0  0  0  0  0  0  0  0  0
   11.0762  -17.1413   24.3965 C   0  0  2  0  0  0  0  0  0  0  0  0
    9.8894  -16.7922   23.6820 N   0  0  0  0  0  0  0  0  0  0  0  0
   11.2257  -16.4993   25.7201 C   0  0  0  0  0  0  0  0  0  0  0  0
   12.3411  -16.0879   26.1697 O   0  0  0  0  0  0  0  0  0  0  0  0
    9.3018  -12.7352   26.9380 C   0  0  0  0  0  0  0  0  0  0  0  0
    8.4639  -14.0204   26.9173 C   0  0  2  0  0  0  0  0  0  0  0  0
    7.0216  -13.7806   26.6958 C   0  0  0  0  0  0  0  0  0  0  0  0
    8.8539  -14.9620   27.9894 C   0  0  0  0  0  0  0  0  0  0  0  0
   10.1372  -15.6914   27.8658 C   0  0  2  0  0  0  0  0  0  0  0  0
   10.0912  -16.3307   26.5254 N   0  0  0  0  0  0  0  0  0  0  0  0
   10.4599  -16.6785   28.8874 C   0  0  0  0  0  0  0  0  0  0  0  0
   10.9683  -16.2403   30.1272 O   0  0  0  0  0  0  0  0  0  0  0  0
   10.3302  -17.9150   28.7796 O   0  0  0  0  0  0  0  0  0  0  0  0
  2  1  1  0
  3  2  2  0
  4  3  1  0
  5 11  1  0
  5  4  2  0
  6  5  1  0
  7  8  1  6
  7  6  1  0
  9  7  1  0
 10  9  2  0
 11 12  2  0
 12  2  1  0
 13 14  1  0
 14 15  2  0
 16 14  1  0
 17 16  1  6
 17 18  1  0
 18  9  1  0
 19 26  1  0
 19 17  1  0
 20 19  2  0
 22 21  1  1
 22 23  1  0
 24 22  1  0
 25 24  1  1
 25 26  1  0
 27 25  1  0
 28 27  1  0
 29 27  2  0
M  END
$$$$
