YNL.pdb
     RDKit          3D

 29 29  0  0  1  0  0  0  0  0999 V2000
    9.2010  -12.3021   17.5437 O   0  0  0  0  0  0  0  0  0  0  0  0
    8.5226  -13.0462   18.4888 C   0  0  0  0  0  0  0  0  0  0  0  0
    7.1912  -12.8468   18.7454 C   0  0  0  0  0  0  0  0  0  0  0  0
    6.5200  -13.5991   19.6961 C   0  0  0  0  0  0  0  0  0  0  0  0
    7.1649  -14.5753   20.4189 C   0  0  0  0  0  0  0  0  0  0  0  0
    6.4848  -15.3938   21.4371 C   0  0  0  0  0  0  0  0  0  0  0  0
    7.0465  -16.7419   21.6859 C   0  0  2  0  0  0  0  0  0  0  0  0
    6.3589  -17.6513   20.7316 N   0  0  0  0  0  0  0  0  0  0  0  0
    6.8805  -17.3334   22.9950 C   0  0  0  0  0  0  0  0  0  0  0  0
    6.1955  -18.3831   23.1708 O   0  0  0  0  0  0  0  0  0  0  0  0
    8.5062  -14.7666   20.1511 C   0  0  0  0  0  0  0  0  0  0  0  0
    9.1902  -14.0253   19.2067 C   0  0  0  0  0  0  0  0  0  0  0  0
    6.3651  -19.8413   27.5558 N   0  0  0  0  0  0  0  0  0  0  0  0
    7.5259  -19.4342   26.8853 C   0  0  0  0  0  0  0  0  0  0  0  0
    8.6230  -19.5534   27.5254 O   0  0  0  0  0  0  0  0  0  0  0  0
    7.6040  -18.8816   25.5116 C   0  0  0  0  0  0  0  0  0  0  0  0
    7.2808  -17.4093   25.4776 C   0  0  2  0  0  0  0  0  0  0  0  0
    7.4564  -16.8166   24.1897 N   0  0  0  0  0  0  0  0  0  0  0  0
    7.9345  -16.6936   26.5942 C   0  0  0  0  0  0  0  0  0  0  0  0
    7.7805  -17.0206   27.8127 O   0  0  0  0  0  0  0  0  0  0  0  0
    8.3268  -12.4565   25.7591 C   0  0  0  0  0  0  0  0  0  0  0  0
    7.5614  -13.2041   26.8589 C   0  0  2  0  0  0  0  0  0  0  0  0
    6.3924  -12.4595   27.3744 C   0  0  0  0  0  0  0  0  0  0  0  0
    8.4674  -13.8392   27.8408 C   0  0  0  0  0  0  0  0  0  0  0  0
    9.4668  -14.8203   27.3585 C   0  0  2  0  0  0  0  0  0  0  0  0
    8.7654  -15.6021   26.3077 N   0  0  0  0  0  0  0  0  0  0  0  0
   10.0702  -15.7143   28.3377 C   0  0  0  0  0  0  0  0  0  0  0  0
    9.8221  -17.0990   28.2457 O   0  0  0  0  0  0  0  0  0  0  0  0
   10.8098  -15.3743   29.2836 O   0  0  0  0  0  0  0  0  0  0  0  0
  2  1  1  0
  3  2  2  0
  4  3  1  0
  5 11  1  0
  5  4  2  0
  6  5  1  0
  7  8  1  6
  7  6  1  0
  9  7  1  0
 10  9  2  0
 11 12  2  0
 12  2  1  0
 13 14  1  0
 14 15  2  0
 16 14  1  0
 17 16  1  6
 17 18  1  0
 18  9  1  0
 19 26  1  0
 19 17  1  0
 20 19  2  0
 22 21  1  1
 22 23  1  0
 24 22  1  0
 25 24  1  1
 25 26  1  0
 27 25  1  0
 28 27  1  0
 29 27  2  0
M  END
$$$$
