YNL.pdb
     RDKit          3D

 29 29  0  0  1  0  0  0  0  0999 V2000
    7.4348  -12.7567   15.5602 O   0  0  0  0  0  0  0  0  0  0  0  0
    7.4927  -13.3745   16.7940 C   0  0  0  0  0  0  0  0  0  0  0  0
    8.2655  -12.8817   17.8129 C   0  0  0  0  0  0  0  0  0  0  0  0
    8.3164  -13.5096   19.0472 C   0  0  0  0  0  0  0  0  0  0  0  0
    7.5929  -14.6520   19.2968 C   0  0  0  0  0  0  0  0  0  0  0  0
    7.6225  -15.3466   20.5953 C   0  0  0  0  0  0  0  0  0  0  0  0
    8.8498  -16.1158   20.9066 C   0  0  2  0  0  0  0  0  0  0  0  0
    8.8613  -17.2631   19.9608 N   0  0  0  0  0  0  0  0  0  0  0  0
    8.9979  -16.6834   22.2282 C   0  0  0  0  0  0  0  0  0  0  0  0
    8.2528  -17.6202   22.6395 O   0  0  0  0  0  0  0  0  0  0  0  0
    6.8181  -15.1386   18.2622 C   0  0  0  0  0  0  0  0  0  0  0  0
    6.7561  -14.5248   17.0258 C   0  0  0  0  0  0  0  0  0  0  0  0
   12.0905  -17.2953   22.7448 N   0  0  0  0  0  0  0  0  0  0  0  0
   11.8491  -18.0577   23.8951 C   0  0  0  0  0  0  0  0  0  0  0  0
   12.6447  -19.0319   24.1083 O   0  0  0  0  0  0  0  0  0  0  0  0
   10.7652  -17.8443   24.8842 C   0  0  0  0  0  0  0  0  0  0  0  0
    9.9396  -16.6250   24.5605 C   0  0  2  0  0  0  0  0  0  0  0  0
    9.9718  -16.2651   23.1784 N   0  0  0  0  0  0  0  0  0  0  0  0
   10.2228  -15.5227   25.5045 C   0  0  0  0  0  0  0  0  0  0  0  0
   11.3336  -14.9058   25.5377 O   0  0  0  0  0  0  0  0  0  0  0  0
    7.9266  -11.9743   26.0869 C   0  0  0  0  0  0  0  0  0  0  0  0
    7.2760  -13.1384   26.8457 C   0  0  2  0  0  0  0  0  0  0  0  0
    5.8508  -12.9097   27.1670 C   0  0  0  0  0  0  0  0  0  0  0  0
    8.1508  -13.6716   27.9128 C   0  0  0  0  0  0  0  0  0  0  0  0
    9.4824  -14.2049   27.5433 C   0  0  2  0  0  0  0  0  0  0  0  0
    9.2273  -15.1307   26.4096 N   0  0  0  0  0  0  0  0  0  0  0  0
   10.2590  -14.8732   28.5788 C   0  0  0  0  0  0  0  0  0  0  0  0
   10.9020  -14.0949   29.5629 O   0  0  0  0  0  0  0  0  0  0  0  0
   10.4225  -16.1051   28.6930 O   0  0  0  0  0  0  0  0  0  0  0  0
  2  1  1  0
  3  2  2  0
  4  3  1  0
  5 11  1  0
  5  4  2  0
  6  5  1  0
  7  8  1  6
  7  6  1  0
  9  7  1  0
 10  9  2  0
 11 12  2  0
 12  2  1  0
 13 14  1  0
 14 15  2  0
 16 14  1  0
 17 16  1  6
 17 18  1  0
 18  9  1  0
 19 26  1  0
 19 17  1  0
 20 19  2  0
 22 21  1  1
 22 23  1  0
 24 22  1  0
 25 24  1  1
 25 26  1  0
 27 25  1  0
 28 27  1  0
 29 27  2  0
M  END
$$$$
