YNL.pdb
     RDKit          3D

 29 29  0  0  1  0  0  0  0  0999 V2000
    6.8035  -27.2931   15.7814 O   0  0  0  0  0  0  0  0  0  0  0  0
    8.0441  -26.9300   16.2674 C   0  0  0  0  0  0  0  0  0  0  0  0
    8.9225  -26.1874   15.5223 C   0  0  0  0  0  0  0  0  0  0  0  0
   10.1652  -25.8285   16.0196 C   0  0  0  0  0  0  0  0  0  0  0  0
   10.5645  -26.2042   17.2808 C   0  0  0  0  0  0  0  0  0  0  0  0
   11.8771  -25.8419   17.8423 C   0  0  0  0  0  0  0  0  0  0  0  0
   13.0682  -26.3350   17.1123 C   0  0  2  0  0  0  0  0  0  0  0  0
   13.0819  -27.8092   17.3055 N   0  0  0  0  0  0  0  0  0  0  0  0
   14.3747  -25.8649   17.5159 C   0  0  0  0  0  0  0  0  0  0  0  0
   15.1545  -26.5778   18.2128 O   0  0  0  0  0  0  0  0  0  0  0  0
    9.6705  -26.9521   18.0216 C   0  0  0  0  0  0  0  0  0  0  0  0
    8.4279  -27.3183   17.5408 C   0  0  0  0  0  0  0  0  0  0  0  0
   17.3462  -23.5716   14.0282 N   0  0  0  0  0  0  0  0  0  0  0  0
   17.1847  -24.0856   15.3215 C   0  0  0  0  0  0  0  0  0  0  0  0
   17.2865  -25.3510   15.4467 O   0  0  0  0  0  0  0  0  0  0  0  0
   16.9088  -23.3068   16.5528 C   0  0  0  0  0  0  0  0  0  0  0  0
   16.1981  -24.1332   17.5944 C   0  0  2  0  0  0  0  0  0  0  0  0
   14.9099  -24.5897   17.1785 N   0  0  0  0  0  0  0  0  0  0  0  0
   16.2349  -23.4721   18.9165 C   0  0  0  0  0  0  0  0  0  0  0  0
   15.6565  -22.3657   19.1553 O   0  0  0  0  0  0  0  0  0  0  0  0
   16.4775  -21.9788   23.6271 C   0  0  0  0  0  0  0  0  0  0  0  0
   15.2701  -22.6295   22.9394 C   0  0  2  0  0  0  0  0  0  0  0  0
   14.2052  -23.0387   23.8804 C   0  0  0  0  0  0  0  0  0  0  0  0
   15.6727  -23.5886   21.8877 C   0  0  0  0  0  0  0  0  0  0  0  0
   17.0392  -23.4962   21.3236 C   0  0  2  0  0  0  0  0  0  0  0  0
   16.9368  -24.0849   19.9633 N   0  0  0  0  0  0  0  0  0  0  0  0
   18.1255  -24.1214   22.0661 C   0  0  0  0  0  0  0  0  0  0  0  0
   18.1679  -25.5271   22.1648 O   0  0  0  0  0  0  0  0  0  0  0  0
   19.0564  -23.5253   22.6452 O   0  0  0  0  0  0  0  0  0  0  0  0
  2  1  1  0
  3  2  2  0
  4  3  1  0
  5 11  1  0
  5  4  2  0
  6  5  1  0
  7  8  1  1
  7  6  1  0
  9  7  1  0
 10  9  2  0
 11 12  2  0
 12  2  1  0
 13 14  1  0
 14 15  2  0
 16 14  1  0
 17 16  1  6
 17 18  1  0
 18  9  1  0
 19 26  1  0
 19 17  1  0
 20 19  2  0
 22 21  1  1
 22 23  1  0
 24 22  1  0
 25 24  1  1
 25 26  1  0
 27 25  1  0
 28 27  1  0
 29 27  2  0
M  END
$$$$
