YNL.pdb
     RDKit          3D

 29 29  0  0  1  0  0  0  0  0999 V2000
    6.3526  -10.9707   27.8198 O   0  0  0  0  0  0  0  0  0  0  0  0
    6.7966  -12.1508   27.2564 C   0  0  0  0  0  0  0  0  0  0  0  0
    5.9277  -13.0753   26.7382 C   0  0  0  0  0  0  0  0  0  0  0  0
    6.3839  -14.2565   26.1751 C   0  0  0  0  0  0  0  0  0  0  0  0
    7.7269  -14.5461   26.1148 C   0  0  0  0  0  0  0  0  0  0  0  0
    8.2483  -15.7908   25.5247 C   0  0  0  0  0  0  0  0  0  0  0  0
    7.5432  -17.0419   25.8885 C   0  0  2  0  0  0  0  0  0  0  0  0
    8.2163  -17.5459   27.1148 N   0  0  0  0  0  0  0  0  0  0  0  0
    7.5466  -18.1404   24.9482 C   0  0  0  0  0  0  0  0  0  0  0  0
    8.6146  -18.7365   24.6224 O   0  0  0  0  0  0  0  0  0  0  0  0
    8.5921  -13.6066   26.6403 C   0  0  0  0  0  0  0  0  0  0  0  0
    8.1539  -12.4242   27.2051 C   0  0  0  0  0  0  0  0  0  0  0  0
    3.6169  -17.4521   20.4053 N   0  0  0  0  0  0  0  0  0  0  0  0
    4.0995  -18.2027   21.4853 C   0  0  0  0  0  0  0  0  0  0  0  0
    3.8642  -19.4562   21.4562 O   0  0  0  0  0  0  0  0  0  0  0  0
    4.8533  -17.6856   22.6529 C   0  0  0  0  0  0  0  0  0  0  0  0
    6.0991  -18.4915   22.9206 C   0  0  2  0  0  0  0  0  0  0  0  0
    6.3833  -18.6568   24.3109 N   0  0  0  0  0  0  0  0  0  0  0  0
    7.2315  -18.0121   22.0995 C   0  0  0  0  0  0  0  0  0  0  0  0
    7.7322  -18.6876   21.1464 O   0  0  0  0  0  0  0  0  0  0  0  0
    7.7926  -12.6094   20.3348 C   0  0  0  0  0  0  0  0  0  0  0  0
    8.0714  -14.1138   20.2202 C   0  0  2  0  0  0  0  0  0  0  0  0
    7.0435  -14.8471   19.4505 C   0  0  0  0  0  0  0  0  0  0  0  0
    8.5290  -14.6990   21.4994 C   0  0  0  0  0  0  0  0  0  0  0  0
    8.8566  -16.1427   21.5464 C   0  0  2  0  0  0  0  0  0  0  0  0
    7.7867  -16.7554   22.3756 N   0  0  0  0  0  0  0  0  0  0  0  0
   10.1693  -16.5267   22.0480 C   0  0  0  0  0  0  0  0  0  0  0  0
   11.3148  -16.1887   21.2989 O   0  0  0  0  0  0  0  0  0  0  0  0
   10.3975  -17.1449   23.1078 O   0  0  0  0  0  0  0  0  0  0  0  0
  2  1  1  0
  3  2  2  0
  4  3  1  0
  5 11  1  0
  5  4  2  0
  6  5  1  0
  7  8  1  1
  7  6  1  0
  9  7  1  0
 10  9  2  0
 11 12  2  0
 12  2  1  0
 13 14  1  0
 14 15  2  0
 16 14  1  0
 17 16  1  1
 17 18  1  0
 18  9  1  0
 19 26  1  0
 19 17  1  0
 20 19  2  0
 22 21  1  1
 22 23  1  0
 24 22  1  0
 25 24  1  1
 25 26  1  0
 27 25  1  0
 28 27  1  0
 29 27  2  0
M  END
$$$$
