YNL.pdb
     RDKit          3D

 29 29  0  0  1  0  0  0  0  0999 V2000
    9.3990  -12.0611   19.4003 O   0  0  0  0  0  0  0  0  0  0  0  0
    8.5241  -13.0011   19.9082 C   0  0  0  0  0  0  0  0  0  0  0  0
    8.0346  -14.0230   19.1373 C   0  0  0  0  0  0  0  0  0  0  0  0
    7.1570  -14.9611   19.6571 C   0  0  0  0  0  0  0  0  0  0  0  0
    6.7434  -14.9021   20.9673 C   0  0  0  0  0  0  0  0  0  0  0  0
    5.8118  -15.8805   21.5541 C   0  0  0  0  0  0  0  0  0  0  0  0
    6.3601  -17.2263   21.8419 C   0  0  2  0  0  0  0  0  0  0  0  0
    5.1915  -18.0736   22.1984 N   0  0  0  0  0  0  0  0  0  0  0  0
    7.3081  -17.3739   22.9239 C   0  0  0  0  0  0  0  0  0  0  0  0
    6.9344  -17.5915   24.1134 O   0  0  0  0  0  0  0  0  0  0  0  0
    7.2438  -13.8678   21.7337 C   0  0  0  0  0  0  0  0  0  0  0  0
    8.1194  -12.9245   21.2311 C   0  0  0  0  0  0  0  0  0  0  0  0
   11.6403  -17.0919   21.1178 N   0  0  0  0  0  0  0  0  0  0  0  0
   11.7120  -17.1302   22.5164 C   0  0  0  0  0  0  0  0  0  0  0  0
   12.4958  -16.2885   23.0683 O   0  0  0  0  0  0  0  0  0  0  0  0
   10.9697  -18.0483   23.4135 C   0  0  0  0  0  0  0  0  0  0  0  0
    9.6473  -17.4670   23.8452 C   0  0  2  0  0  0  0  0  0  0  0  0
    8.7212  -17.2974   22.7707 N   0  0  0  0  0  0  0  0  0  0  0  0
    9.8414  -16.2779   24.7023 C   0  0  0  0  0  0  0  0  0  0  0  0
    9.8784  -15.0922   24.2459 O   0  0  0  0  0  0  0  0  0  0  0  0
    8.9478  -12.5721   27.0099 C   0  0  0  0  0  0  0  0  0  0  0  0
    8.0508  -13.5928   26.2975 C   0  0  2  0  0  0  0  0  0  0  0  0
    6.6495  -13.1444   26.1493 C   0  0  0  0  0  0  0  0  0  0  0  0
    8.2910  -14.9750   26.7665 C   0  0  0  0  0  0  0  0  0  0  0  0
    9.6782  -15.3924   27.0752 C   0  0  2  0  0  0  0  0  0  0  0  0
    9.9924  -16.4540   26.0843 N   0  0  0  0  0  0  0  0  0  0  0  0
    9.9640  -15.8586   28.4254 C   0  0  0  0  0  0  0  0  0  0  0  0
    9.4611  -17.1088   28.8395 O   0  0  0  0  0  0  0  0  0  0  0  0
   10.6302  -15.2485   29.2865 O   0  0  0  0  0  0  0  0  0  0  0  0
  2  1  1  0
  3  2  2  0
  4  3  1  0
  5 11  1  0
  5  4  2  0
  6  5  1  0
  7  8  1  1
  7  6  1  0
  9  7  1  0
 10  9  2  0
 11 12  2  0
 12  2  1  0
 13 14  1  0
 14 15  2  0
 16 14  1  0
 17 16  1  6
 17 18  1  0
 18  9  1  0
 19 26  1  0
 19 17  1  0
 20 19  2  0
 22 21  1  1
 22 23  1  0
 24 22  1  0
 25 24  1  1
 25 26  1  0
 27 25  1  0
 28 27  1  0
 29 27  2  0
M  END
$$$$
