YNL.pdb
     RDKit          3D

 29 29  0  0  1  0  0  0  0  0999 V2000
    7.1783  -12.7185   16.3227 O   0  0  0  0  0  0  0  0  0  0  0  0
    7.4423  -13.3213   17.5369 C   0  0  0  0  0  0  0  0  0  0  0  0
    7.3228  -12.6423   18.7213 C   0  0  0  0  0  0  0  0  0  0  0  0
    7.5902  -13.2568   19.9343 C   0  0  0  0  0  0  0  0  0  0  0  0
    7.9861  -14.5724   19.9956 C   0  0  0  0  0  0  0  0  0  0  0  0
    8.2793  -15.2583   21.2656 C   0  0  0  0  0  0  0  0  0  0  0  0
    8.5779  -16.7070   21.1818 C   0  0  2  0  0  0  0  0  0  0  0  0
    7.3000  -17.3640   20.7999 N   0  0  0  0  0  0  0  0  0  0  0  0
    9.0422  -17.3908   22.3683 C   0  0  0  0  0  0  0  0  0  0  0  0
    8.2386  -17.9139   23.1944 O   0  0  0  0  0  0  0  0  0  0  0  0
    8.1027  -15.2456   18.7953 C   0  0  0  0  0  0  0  0  0  0  0  0
    7.8399  -14.6479   17.5776 C   0  0  0  0  0  0  0  0  0  0  0  0
   14.4713  -18.3329   23.5973 N   0  0  0  0  0  0  0  0  0  0  0  0
   13.1580  -18.4378   23.1207 C   0  0  0  0  0  0  0  0  0  0  0  0
   12.9344  -17.9561   21.9609 O   0  0  0  0  0  0  0  0  0  0  0  0
   12.0085  -19.0512   23.8287 C   0  0  0  0  0  0  0  0  0  0  0  0
   10.8547  -18.0907   23.9667 C   0  0  2  0  0  0  0  0  0  0  0  0
   10.4122  -17.5484   22.7213 N   0  0  0  0  0  0  0  0  0  0  0  0
   11.1124  -17.0961   25.0300 C   0  0  0  0  0  0  0  0  0  0  0  0
   11.4086  -15.8838   24.7891 O   0  0  0  0  0  0  0  0  0  0  0  0
    8.3100  -13.8632   28.0175 C   0  0  0  0  0  0  0  0  0  0  0  0
    9.6762  -14.5277   28.2326 C   0  0  2  0  0  0  0  0  0  0  0  0
   10.7651  -13.5638   28.5009 C   0  0  0  0  0  0  0  0  0  0  0  0
    9.9330  -15.6110   27.2586 C   0  0  0  0  0  0  0  0  0  0  0  0
   11.0603  -16.5396   27.5057 C   0  0  2  0  0  0  0  0  0  0  0  0
   11.0287  -17.4972   26.3702 N   0  0  0  0  0  0  0  0  0  0  0  0
   11.0855  -17.2570   28.7733 C   0  0  0  0  0  0  0  0  0  0  0  0
   11.8832  -16.7619   29.8251 O   0  0  0  0  0  0  0  0  0  0  0  0
   10.4543  -18.3004   29.0383 O   0  0  0  0  0  0  0  0  0  0  0  0
  2  1  1  0
  3  2  2  0
  4  3  1  0
  5 11  1  0
  5  4  2  0
  6  5  1  0
  7  8  1  1
  7  6  1  0
  9  7  1  0
 10  9  2  0
 11 12  2  0
 12  2  1  0
 13 14  1  0
 14 15  2  0
 16 14  1  0
 17 16  1  6
 17 18  1  0
 18  9  1  0
 19 26  1  0
 19 17  1  0
 20 19  2  0
 22 21  1  6
 22 23  1  0
 24 22  1  0
 25 24  1  1
 25 26  1  0
 27 25  1  0
 28 27  1  0
 29 27  2  0
M  END
$$$$
