YNL.pdb
     RDKit          3D

 29 29  0  0  1  0  0  0  0  0999 V2000
    6.8077  -12.3718   18.2288 O   0  0  0  0  0  0  0  0  0  0  0  0
    7.2497  -13.1423   19.2862 C   0  0  0  0  0  0  0  0  0  0  0  0
    6.4494  -13.4159   20.3645 C   0  0  0  0  0  0  0  0  0  0  0  0
    6.9030  -14.1903   21.4205 C   0  0  0  0  0  0  0  0  0  0  0  0
    8.1745  -14.7141   21.4264 C   0  0  0  0  0  0  0  0  0  0  0  0
    8.6911  -15.5406   22.5307 C   0  0  0  0  0  0  0  0  0  0  0  0
    9.4147  -16.7761   22.1502 C   0  0  2  0  0  0  0  0  0  0  0  0
    8.3699  -17.7437   21.7226 N   0  0  0  0  0  0  0  0  0  0  0  0
   10.2051  -17.4554   23.1525 C   0  0  0  0  0  0  0  0  0  0  0  0
    9.7899  -18.4997   23.7348 O   0  0  0  0  0  0  0  0  0  0  0  0
    8.9711  -14.4313   20.3341 C   0  0  0  0  0  0  0  0  0  0  0  0
    8.5344  -13.6611   19.2733 C   0  0  0  0  0  0  0  0  0  0  0  0
   14.4060  -19.6002   22.6797 N   0  0  0  0  0  0  0  0  0  0  0  0
   14.1348  -18.2511   22.9432 C   0  0  0  0  0  0  0  0  0  0  0  0
   14.2065  -17.4529   21.9506 O   0  0  0  0  0  0  0  0  0  0  0  0
   13.7741  -17.6633   24.2558 C   0  0  0  0  0  0  0  0  0  0  0  0
   12.2932  -17.7512   24.5244 C   0  0  2  0  0  0  0  0  0  0  0  0
   11.4984  -17.0376   23.5758 N   0  0  0  0  0  0  0  0  0  0  0  0
   11.9900  -17.4632   25.9427 C   0  0  0  0  0  0  0  0  0  0  0  0
   12.6659  -17.9407   26.9075 O   0  0  0  0  0  0  0  0  0  0  0  0
   10.7848  -13.4059   28.0652 C   0  0  0  0  0  0  0  0  0  0  0  0
    9.7001  -13.9915   27.1516 C   0  0  2  0  0  0  0  0  0  0  0  0
    8.5922  -13.0521   26.8743 C   0  0  0  0  0  0  0  0  0  0  0  0
    9.3551  -15.3843   27.5113 C   0  0  0  0  0  0  0  0  0  0  0  0
   10.4455  -16.3786   27.6396 C   0  0  2  0  0  0  0  0  0  0  0  0
   10.9094  -16.6255   26.2499 N   0  0  0  0  0  0  0  0  0  0  0  0
   10.1422  -17.6389   28.3043 C   0  0  0  0  0  0  0  0  0  0  0  0
   10.4827  -17.7961   29.6633 O   0  0  0  0  0  0  0  0  0  0  0  0
    9.5938  -18.6305   27.7815 O   0  0  0  0  0  0  0  0  0  0  0  0
  2  1  1  0
  3  2  2  0
  4  3  1  0
  5 11  1  0
  5  4  2  0
  6  5  1  0
  7  8  1  1
  7  6  1  0
  9  7  1  0
 10  9  2  0
 11 12  2  0
 12  2  1  0
 13 14  1  0
 14 15  2  0
 16 14  1  0
 17 16  1  6
 17 18  1  0
 18  9  1  0
 19 26  1  0
 19 17  1  0
 20 19  2  0
 22 21  1  1
 22 23  1  0
 24 22  1  0
 25 24  1  6
 25 26  1  0
 27 25  1  0
 28 27  1  0
 29 27  2  0
M  END
$$$$
