YNL.pdb
     RDKit          3D

 29 29  0  0  1  0  0  0  0  0999 V2000
    6.5143  -12.3019   18.1848 O   0  0  0  0  0  0  0  0  0  0  0  0
    6.9579  -13.0679   19.2449 C   0  0  0  0  0  0  0  0  0  0  0  0
    6.0924  -13.7818   20.0320 C   0  0  0  0  0  0  0  0  0  0  0  0
    6.5481  -14.5473   21.0935 C   0  0  0  0  0  0  0  0  0  0  0  0
    7.8873  -14.6196   21.3977 C   0  0  0  0  0  0  0  0  0  0  0  0
    8.4082  -15.4218   22.5178 C   0  0  0  0  0  0  0  0  0  0  0  0
    9.2933  -16.5560   22.1642 C   0  0  2  0  0  0  0  0  0  0  0  0
    8.3923  -17.7117   21.9129 N   0  0  0  0  0  0  0  0  0  0  0  0
   10.2652  -17.0081   23.1347 C   0  0  0  0  0  0  0  0  0  0  0  0
   10.0797  -18.0495   23.8296 O   0  0  0  0  0  0  0  0  0  0  0  0
    8.7491  -13.8958   20.5972 C   0  0  0  0  0  0  0  0  0  0  0  0
    8.3113  -13.1279   19.5353 C   0  0  0  0  0  0  0  0  0  0  0  0
   14.8215  -18.3124   25.3181 N   0  0  0  0  0  0  0  0  0  0  0  0
   14.9464  -17.0560   24.7109 C   0  0  0  0  0  0  0  0  0  0  0  0
   16.0876  -16.4930   24.7998 O   0  0  0  0  0  0  0  0  0  0  0  0
   13.8875  -16.3205   23.9784 C   0  0  0  0  0  0  0  0  0  0  0  0
   12.5172  -16.8875   24.2500 C   0  0  2  0  0  0  0  0  0  0  0  0
   11.5003  -16.3524   23.4012 N   0  0  0  0  0  0  0  0  0  0  0  0
   12.2069  -16.8642   25.6955 C   0  0  0  0  0  0  0  0  0  0  0  0
   12.9882  -17.3351   26.5806 O   0  0  0  0  0  0  0  0  0  0  0  0
   10.5928  -13.3425   28.3115 C   0  0  0  0  0  0  0  0  0  0  0  0
    9.5982  -13.9701   27.3261 C   0  0  2  0  0  0  0  0  0  0  0  0
    8.4115  -13.1263   27.0682 C   0  0  0  0  0  0  0  0  0  0  0  0
    9.3820  -15.4100   27.5873 C   0  0  0  0  0  0  0  0  0  0  0  0
   10.5447  -16.3263   27.5365 C   0  0  2  0  0  0  0  0  0  0  0  0
   10.9976  -16.2986   26.1217 N   0  0  0  0  0  0  0  0  0  0  0  0
   10.3480  -17.7002   27.9790 C   0  0  0  0  0  0  0  0  0  0  0  0
   10.5736  -18.0230   29.3328 O   0  0  0  0  0  0  0  0  0  0  0  0
    9.9883  -18.6571   27.2632 O   0  0  0  0  0  0  0  0  0  0  0  0
  2  1  1  0
  3  2  2  0
  4  3  1  0
  5 11  1  0
  5  4  2  0
  6  5  1  0
  7  8  1  1
  7  6  1  0
  9  7  1  0
 10  9  2  0
 11 12  2  0
 12  2  1  0
 13 14  1  0
 14 15  2  0
 16 14  1  0
 17 16  1  1
 17 18  1  0
 18  9  1  0
 19 26  1  0
 19 17  1  0
 20 19  2  0
 22 21  1  1
 22 23  1  0
 24 22  1  0
 25 24  1  6
 25 26  1  0
 27 25  1  0
 28 27  1  0
 29 27  2  0
M  END
$$$$
