YNL.pdb
     RDKit          3D

 29 29  0  0  1  0  0  0  0  0999 V2000
    8.7639  -11.5364   19.3769 O   0  0  0  0  0  0  0  0  0  0  0  0
    8.0965  -12.6404   19.8697 C   0  0  0  0  0  0  0  0  0  0  0  0
    7.9587  -12.8597   21.2155 C   0  0  0  0  0  0  0  0  0  0  0  0
    7.2871  -13.9710   21.6995 C   0  0  0  0  0  0  0  0  0  0  0  0
    6.7330  -14.8970   20.8470 C   0  0  0  0  0  0  0  0  0  0  0  0
    6.0129  -16.0898   21.3245 C   0  0  0  0  0  0  0  0  0  0  0  0
    6.7950  -17.3452   21.4091 C   0  0  2  0  0  0  0  0  0  0  0  0
    5.8343  -18.3942   21.8419 N   0  0  0  0  0  0  0  0  0  0  0  0
    7.9053  -17.4116   22.3332 C   0  0  0  0  0  0  0  0  0  0  0  0
    7.7497  -17.7635   23.5390 O   0  0  0  0  0  0  0  0  0  0  0  0
    6.8786  -14.6647   19.4933 C   0  0  0  0  0  0  0  0  0  0  0  0
    7.5450  -13.5620   18.9944 C   0  0  0  0  0  0  0  0  0  0  0  0
   11.6411  -19.2856   21.0676 N   0  0  0  0  0  0  0  0  0  0  0  0
   11.7781  -17.8917   21.0992 C   0  0  0  0  0  0  0  0  0  0  0  0
   12.0017  -17.3174   19.9822 O   0  0  0  0  0  0  0  0  0  0  0  0
   11.6890  -17.0229   22.2975 C   0  0  0  0  0  0  0  0  0  0  0  0
   10.3255  -17.0850   22.9379 C   0  0  2  0  0  0  0  0  0  0  0  0
    9.2528  -17.1021   21.9945 N   0  0  0  0  0  0  0  0  0  0  0  0
   10.1973  -16.0838   24.0184 C   0  0  0  0  0  0  0  0  0  0  0  0
   10.3100  -14.8331   23.8224 O   0  0  0  0  0  0  0  0  0  0  0  0
    6.4645  -13.4128   26.5279 C   0  0  0  0  0  0  0  0  0  0  0  0
    7.8966  -13.8019   26.9178 C   0  0  2  0  0  0  0  0  0  0  0  0
    8.7358  -12.6484   27.3074 C   0  0  0  0  0  0  0  0  0  0  0  0
    8.4773  -14.8022   25.9956 C   0  0  0  0  0  0  0  0  0  0  0  0
    9.6440  -15.5954   26.4468 C   0  0  2  0  0  0  0  0  0  0  0  0
    9.9389  -16.5227   25.3240 N   0  0  0  0  0  0  0  0  0  0  0  0
    9.5221  -16.3346   27.6962 C   0  0  0  0  0  0  0  0  0  0  0  0
   10.1554  -15.8350   28.8524 O   0  0  0  0  0  0  0  0  0  0  0  0
    8.8949  -17.4010   27.8593 O   0  0  0  0  0  0  0  0  0  0  0  0
  2  1  1  0
  3  2  2  0
  4  3  1  0
  5 11  1  0
  5  4  2  0
  6  5  1  0
  7  8  1  1
  7  6  1  0
  9  7  1  0
 10  9  2  0
 11 12  2  0
 12  2  1  0
 13 14  1  0
 14 15  2  0
 16 14  1  0
 17 16  1  6
 17 18  1  0
 18  9  1  0
 19 26  1  0
 19 17  1  0
 20 19  2  0
 22 21  1  6
 22 23  1  0
 24 22  1  0
 25 24  1  6
 25 26  1  0
 27 25  1  0
 28 27  1  0
 29 27  2  0
M  END
$$$$
