YNL.pdb
     RDKit          3D

 29 29  0  0  1  0  0  0  0  0999 V2000
    8.6196  -12.8391   17.2937 O   0  0  0  0  0  0  0  0  0  0  0  0
    8.2101  -13.3564   18.5069 C   0  0  0  0  0  0  0  0  0  0  0  0
    7.7401  -12.5530   19.5128 C   0  0  0  0  0  0  0  0  0  0  0  0
    7.3317  -13.0825   20.7266 C   0  0  0  0  0  0  0  0  0  0  0  0
    7.3827  -14.4353   20.9681 C   0  0  0  0  0  0  0  0  0  0  0  0
    6.9579  -15.0337   22.2451 C   0  0  0  0  0  0  0  0  0  0  0  0
    7.0295  -16.5104   22.3403 C   0  0  2  0  0  0  0  0  0  0  0  0
    5.8249  -17.0221   21.6346 N   0  0  0  0  0  0  0  0  0  0  0  0
    7.0188  -17.1240   23.6497 C   0  0  0  0  0  0  0  0  0  0  0  0
    6.1069  -16.8808   24.4930 O   0  0  0  0  0  0  0  0  0  0  0  0
    7.8581  -15.2342   19.9466 C   0  0  0  0  0  0  0  0  0  0  0  0
    8.2691  -14.7224   18.7307 C   0  0  0  0  0  0  0  0  0  0  0  0
    6.3891  -20.0635   24.2744 N   0  0  0  0  0  0  0  0  0  0  0  0
    7.3384  -20.5277   25.1943 C   0  0  0  0  0  0  0  0  0  0  0  0
    7.2963  -21.7713   25.4754 O   0  0  0  0  0  0  0  0  0  0  0  0
    8.3821  -19.7193   25.8695 C   0  0  0  0  0  0  0  0  0  0  0  0
    8.2947  -18.2613   25.4957 C   0  0  2  0  0  0  0  0  0  0  0  0
    8.0009  -18.0434   24.1148 N   0  0  0  0  0  0  0  0  0  0  0  0
    9.4528  -17.5057   26.0195 C   0  0  0  0  0  0  0  0  0  0  0  0
   10.5769  -17.4609   25.4281 O   0  0  0  0  0  0  0  0  0  0  0  0
    9.0012  -12.6559   28.0074 C   0  0  0  0  0  0  0  0  0  0  0  0
    9.9112  -13.7813   27.4978 C   0  0  2  0  0  0  0  0  0  0  0  0
    9.7150  -14.0957   26.0662 C   0  0  0  0  0  0  0  0  0  0  0  0
    9.9958  -14.9096   28.4506 C   0  0  0  0  0  0  0  0  0  0  0  0
   10.4705  -16.2238   27.9592 C   0  0  2  0  0  0  0  0  0  0  0  0
    9.3163  -16.8017   27.2235 N   0  0  0  0  0  0  0  0  0  0  0  0
   10.9743  -17.1756   28.9403 C   0  0  0  0  0  0  0  0  0  0  0  0
   10.1707  -18.2757   29.3031 O   0  0  0  0  0  0  0  0  0  0  0  0
   12.0805  -17.1202   29.5151 O   0  0  0  0  0  0  0  0  0  0  0  0
  2  1  1  0
  3  2  2  0
  4  3  1  0
  5 11  1  0
  5  4  2  0
  6  5  1  0
  7  8  1  6
  7  6  1  0
  9  7  1  0
 10  9  2  0
 11 12  2  0
 12  2  1  0
 13 14  1  0
 14 15  2  0
 16 14  1  0
 17 16  1  6
 17 18  1  0
 18  9  1  0
 19 26  1  0
 19 17  1  0
 20 19  2  0
 22 21  1  1
 22 23  1  0
 24 22  1  0
 25 24  1  1
 25 26  1  0
 27 25  1  0
 28 27  1  0
 29 27  2  0
M  END
$$$$
