YNL.pdb
     RDKit          3D

 29 29  0  0  1  0  0  0  0  0999 V2000
    8.0026  -12.8433   16.0727 O   0  0  0  0  0  0  0  0  0  0  0  0
    7.8170  -13.3248   17.3537 C   0  0  0  0  0  0  0  0  0  0  0  0
    7.5604  -12.4891   18.4091 C   0  0  0  0  0  0  0  0  0  0  0  0
    7.3759  -12.9828   19.6908 C   0  0  0  0  0  0  0  0  0  0  0  0
    7.4433  -14.3311   19.9525 C   0  0  0  0  0  0  0  0  0  0  0  0
    7.2532  -14.8920   21.3011 C   0  0  0  0  0  0  0  0  0  0  0  0
    7.6150  -16.3171   21.4822 C   0  0  2  0  0  0  0  0  0  0  0  0
    6.3439  -17.0782   21.3579 N   0  0  0  0  0  0  0  0  0  0  0  0
    8.2094  -16.7297   22.7342 C   0  0  0  0  0  0  0  0  0  0  0  0
    7.5035  -17.0320   23.7403 O   0  0  0  0  0  0  0  0  0  0  0  0
    7.7024  -15.1627   18.8806 C   0  0  0  0  0  0  0  0  0  0  0  0
    7.8888  -14.6869   17.5969 C   0  0  0  0  0  0  0  0  0  0  0  0
   11.9962  -19.7056   25.9067 N   0  0  0  0  0  0  0  0  0  0  0  0
   12.0134  -18.4017   25.3943 C   0  0  0  0  0  0  0  0  0  0  0  0
   12.5352  -17.5060   26.1378 O   0  0  0  0  0  0  0  0  0  0  0  0
   11.4876  -17.9632   24.0790 C   0  0  0  0  0  0  0  0  0  0  0  0
   10.1851  -17.2160   24.2141 C   0  0  2  0  0  0  0  0  0  0  0  0
    9.6102  -16.8412   22.9610 N   0  0  0  0  0  0  0  0  0  0  0  0
   10.2956  -16.1259   25.2069 C   0  0  0  0  0  0  0  0  0  0  0  0
   11.1855  -15.2204   25.1469 O   0  0  0  0  0  0  0  0  0  0  0  0
    9.5580  -12.2055   26.7140 C   0  0  0  0  0  0  0  0  0  0  0  0
    8.3085  -13.0585   26.4586 C   0  0  2  0  0  0  0  0  0  0  0  0
    7.0668  -12.2644   26.3386 C   0  0  0  0  0  0  0  0  0  0  0  0
    8.2762  -14.2734   27.3019 C   0  0  0  0  0  0  0  0  0  0  0  0
    9.4939  -15.1120   27.3911 C   0  0  2  0  0  0  0  0  0  0  0  0
    9.3814  -16.0781   26.2680 N   0  0  0  0  0  0  0  0  0  0  0  0
    9.7455  -15.8155   28.6417 C   0  0  0  0  0  0  0  0  0  0  0  0
    9.5398  -17.2091   28.6973 O   0  0  0  0  0  0  0  0  0  0  0  0
   10.1376  -15.2989   29.7079 O   0  0  0  0  0  0  0  0  0  0  0  0
  2  1  1  0
  3  2  2  0
  4  3  1  0
  5 11  1  0
  5  4  2  0
  6  5  1  0
  7  8  1  1
  7  6  1  0
  9  7  1  0
 10  9  2  0
 11 12  2  0
 12  2  1  0
 13 14  1  0
 14 15  2  0
 16 14  1  0
 17 16  1  6
 17 18  1  0
 18  9  1  0
 19 26  1  0
 19 17  1  0
 20 19  2  0
 22 21  1  1
 22 23  1  0
 24 22  1  0
 25 24  1  1
 25 26  1  0
 27 25  1  0
 28 27  1  0
 29 27  2  0
M  END
$$$$
