MRY.pdb
     RDKit          3D

 32 32  0  0  1  0  0  0  0  0999 V2000
    6.9322  -11.9489   25.8326 C   0  0  0  0  0  0  0  0  0  0  0  0
    6.2403  -13.6414   25.8053 S   0  0  0  0  0  0  0  0  0  0  0  0
    7.4528  -14.7270   26.5514 C   0  0  0  0  0  0  0  0  0  0  0  0
    6.9652  -16.1593   26.7046 C   0  0  0  0  0  0  0  0  0  0  0  0
    6.6839  -16.6457   25.2921 C   0  0  2  0  0  0  0  0  0  0  0  0
    5.8047  -17.8009   25.4661 N   0  0  0  0  0  0  0  0  0  0  0  0
    7.8880  -17.0835   24.5847 C   0  0  0  0  0  0  0  0  0  0  0  0
    8.5160  -18.0726   25.0328 O   0  0  0  0  0  0  0  0  0  0  0  0
    7.0302  -14.1652   17.9726 N   0  0  0  0  0  0  0  0  0  0  0  0
    8.0351  -13.3215   18.5422 C   0  0  0  0  0  0  0  0  0  0  0  0
    7.8652  -12.0330   18.6540 N   0  0  0  0  0  0  0  0  0  0  0  0
    9.2716  -13.8115   19.0213 N   0  0  0  0  0  0  0  0  0  0  0  0
    9.4302  -15.1553   19.4839 C   0  0  0  0  0  0  0  0  0  0  0  0
    9.4402  -15.2932   20.9679 C   0  0  0  0  0  0  0  0  0  0  0  0
    9.6245  -16.7240   21.3478 C   0  0  0  0  0  0  0  0  0  0  0  0
    9.6334  -16.9785   22.8252 C   0  0  2  0  0  0  0  0  0  0  0  0
    8.3957  -16.4581   23.4162 N   0  0  0  0  0  0  0  0  0  0  0  0
   10.8082  -16.3618   23.4683 C   0  0  0  0  0  0  0  0  0  0  0  0
   11.2760  -15.2771   23.0550 O   0  0  0  0  0  0  0  0  0  0  0  0
    8.6544  -11.5027   19.0832 O   0  0  0  0  0  0  0  0  0  0  0  0
    8.7278  -13.2543   28.8261 C   0  0  0  0  0  0  0  0  0  0  0  0
    9.6862  -14.1156   28.2842 C   0  0  0  0  0  0  0  0  0  0  0  0
   10.1160  -15.1890   29.0301 C   0  0  0  0  0  0  0  0  0  0  0  0
   11.0556  -16.0265   28.4875 C   0  0  0  0  0  0  0  0  0  0  0  0
   11.5746  -15.8158   27.2185 C   0  0  0  0  0  0  0  0  0  0  0  0
   12.5915  -16.7408   26.6479 C   0  0  2  0  0  0  0  0  0  0  0  0
   12.6513  -16.4994   25.1366 N   0  0  0  0  0  0  0  0  0  0  0  0
   11.4122  -17.0190   24.5763 C   0  0  0  0  0  0  0  0  0  0  0  0
   13.7829  -17.2222   24.5407 O   0  0  0  0  0  0  0  0  0  0  0  0
   14.9555  -16.9243   24.8428 C   0  0  0  0  0  0  0  0  0  0  0  0
   11.1435  -14.7426   26.4757 C   0  0  0  0  0  0  0  0  0  0  0  0
   10.1996  -13.9027   27.0224 O   0  0  0  0  0  0  0  0  0  0  0  0
  2  1  1  0
  3  2  1  0
  4  3  1  0
  5  4  1  0
  5  7  1  0
  5  6  1  1
  7  8  2  0
  9 10  1  0
 10 11  2  0
 10 12  1  0
 12 13  1  0
 14 13  1  0
 14 15  1  0
 16 15  1  6
 17  7  1  0
 17 16  1  0
 18 16  1  0
 18 27  1  0
 19 18  2  0
 20 21  1  0
 21 31  2  0
 22 23  2  0
 22 21  1  0
 23 24  1  0
 24 25  1  0
 24 30  2  0
 26 28  1  0
 26 27  1  0
 26 25  1  1
 28 32  1  0
 29 28  2  0
 31 30  1  0
M  END
$$$$
