MRY.pdb
     RDKit          3D

 32 32  0  0  1  0  0  0  0  0999 V2000
    7.6957  -11.5688   21.3596 C   0  0  0  0  0  0  0  0  0  0  0  0
    7.1393  -11.6978   19.6224 S   0  0  0  0  0  0  0  0  0  0  0  0
    7.8793  -13.1746   18.9320 C   0  0  0  0  0  0  0  0  0  0  0  0
    8.5023  -14.0826   19.9808 C   0  0  0  0  0  0  0  0  0  0  0  0
    9.2814  -15.1292   19.2006 C   0  0  2  0  0  0  0  0  0  0  0  0
    8.2572  -15.9457   18.5510 N   0  0  0  0  0  0  0  0  0  0  0  0
   10.0917  -15.9978   20.0555 C   0  0  0  0  0  0  0  0  0  0  0  0
    9.5340  -16.5712   21.0219 O   0  0  0  0  0  0  0  0  0  0  0  0
   16.4414  -13.6976   16.7442 N   0  0  0  0  0  0  0  0  0  0  0  0
   15.9618  -14.4993   17.8274 C   0  0  0  0  0  0  0  0  0  0  0  0
   15.5254  -13.9649   18.9344 N   0  0  0  0  0  0  0  0  0  0  0  0
   15.9237  -15.9118   17.7826 N   0  0  0  0  0  0  0  0  0  0  0  0
   15.4308  -16.6950   18.8728 C   0  0  0  0  0  0  0  0  0  0  0  0
   14.0424  -16.3521   19.2926 C   0  0  0  0  0  0  0  0  0  0  0  0
   13.6091  -17.2451   20.4063 C   0  0  0  0  0  0  0  0  0  0  0  0
   12.1988  -17.0263   20.8654 C   0  0  2  0  0  0  0  0  0  0  0  0
   11.4773  -16.2363   19.8617 N   0  0  0  0  0  0  0  0  0  0  0  0
   12.1602  -16.3506   22.1753 C   0  0  0  0  0  0  0  0  0  0  0  0
   12.7977  -15.2925   22.3756 O   0  0  0  0  0  0  0  0  0  0  0  0
   15.3591  -14.6234   19.7262 O   0  0  0  0  0  0  0  0  0  0  0  0
   10.0358  -14.4355   30.3805 C   0  0  0  0  0  0  0  0  0  0  0  0
   10.0169  -14.9034   29.0633 C   0  0  0  0  0  0  0  0  0  0  0  0
    9.9007  -13.9965   28.0351 C   0  0  0  0  0  0  0  0  0  0  0  0
    9.8839  -14.4676   26.7480 C   0  0  0  0  0  0  0  0  0  0  0  0
    9.9804  -15.8223   26.4658 C   0  0  0  0  0  0  0  0  0  0  0  0
    9.9639  -16.3109   25.0600 C   0  0  1  0  0  0  0  0  0  0  0  0
   11.4075  -16.3201   24.5484 N   0  0  0  0  0  0  0  0  0  0  0  0
   11.3819  -16.9192   23.2219 C   0  0  0  0  0  0  0  0  0  0  0  0
   12.2618  -17.1353   25.4223 O   0  0  0  0  0  0  0  0  0  0  0  0
   12.9519  -16.6003   26.3126 C   0  0  0  0  0  0  0  0  0  0  0  0
   10.0962  -16.7260   27.4950 C   0  0  0  0  0  0  0  0  0  0  0  0
   10.1130  -16.2508   28.7870 O   0  0  0  0  0  0  0  0  0  0  0  0
  2  1  1  0
  3  2  1  0
  4  3  1  0
  5  4  1  0
  5  7  1  0
  5  6  1  1
  7  8  2  0
  9 10  1  0
 10 11  2  0
 10 12  1  0
 12 13  1  0
 14 13  1  0
 14 15  1  0
 16 15  1  6
 17  7  1  0
 17 16  1  0
 18 16  1  0
 18 27  1  0
 19 18  2  0
 20 21  1  0
 21 31  2  0
 22 23  2  0
 22 21  1  0
 23 24  1  0
 24 25  1  0
 24 30  2  0
 26 28  1  0
 26 27  1  0
 26 25  1  6
 28 32  1  0
 29 28  2  0
 31 30  1  0
M  END
$$$$
