MRY.pdb
     RDKit          3D

 32 32  0  0  1  0  0  0  0  0999 V2000
    6.1725  -11.2374   26.4523 C   0  0  0  0  0  0  0  0  0  0  0  0
    6.8944  -12.8764   26.8218 S   0  0  0  0  0  0  0  0  0  0  0  0
    6.4856  -13.9608   25.4573 C   0  0  0  0  0  0  0  0  0  0  0  0
    7.0560  -15.3622   25.6101 C   0  0  0  0  0  0  0  0  0  0  0  0
    6.6913  -16.0912   24.3270 C   0  0  2  0  0  0  0  0  0  0  0  0
    5.9904  -17.2950   24.7711 N   0  0  0  0  0  0  0  0  0  0  0  0
    7.8599  -16.4982   23.5455 C   0  0  0  0  0  0  0  0  0  0  0  0
    8.4362  -17.5702   23.8494 O   0  0  0  0  0  0  0  0  0  0  0  0
    7.9449  -13.9899   15.3661 N   0  0  0  0  0  0  0  0  0  0  0  0
    7.9577  -13.7555   16.7771 C   0  0  0  0  0  0  0  0  0  0  0  0
    7.1309  -12.9184   17.3402 N   0  0  0  0  0  0  0  0  0  0  0  0
    8.8540  -14.4037   17.6577 N   0  0  0  0  0  0  0  0  0  0  0  0
    8.5702  -15.6852   18.2253 C   0  0  0  0  0  0  0  0  0  0  0  0
    8.3584  -15.6665   19.7005 C   0  0  0  0  0  0  0  0  0  0  0  0
    9.6719  -15.7051   20.4067 C   0  0  0  0  0  0  0  0  0  0  0  0
    9.6095  -16.2392   21.8062 C   0  0  2  0  0  0  0  0  0  0  0  0
    8.3879  -15.7546   22.4581 N   0  0  0  0  0  0  0  0  0  0  0  0
   10.7979  -15.8439   22.5843 C   0  0  0  0  0  0  0  0  0  0  0  0
   11.2762  -14.6912   22.4925 O   0  0  0  0  0  0  0  0  0  0  0  0
    7.2030  -12.8314   18.3772 O   0  0  0  0  0  0  0  0  0  0  0  0
   11.2387  -15.0409   30.9513 C   0  0  0  0  0  0  0  0  0  0  0  0
   11.0165  -15.3117   29.5980 C   0  0  0  0  0  0  0  0  0  0  0  0
    9.9421  -16.0944   29.2423 C   0  0  0  0  0  0  0  0  0  0  0  0
    9.7346  -16.3524   27.9122 C   0  0  0  0  0  0  0  0  0  0  0  0
   10.5750  -15.8468   26.9314 C   0  0  0  0  0  0  0  0  0  0  0  0
   10.3279  -16.1368   25.4926 C   0  0  1  0  0  0  0  0  0  0  0  0
   11.6775  -16.4413   24.8357 N   0  0  0  0  0  0  0  0  0  0  0  0
   11.4029  -16.7965   23.4509 C   0  0  0  0  0  0  0  0  0  0  0  0
   12.3315  -17.5779   25.4978 O   0  0  0  0  0  0  0  0  0  0  0  0
   12.0450  -18.7486   25.1780 C   0  0  0  0  0  0  0  0  0  0  0  0
   11.6475  -15.0654   27.2897 C   0  0  0  0  0  0  0  0  0  0  0  0
   11.8542  -14.8074   28.6261 O   0  0  0  0  0  0  0  0  0  0  0  0
  2  1  1  0
  3  2  1  0
  4  3  1  0
  5  4  1  0
  5  7  1  0
  5  6  1  1
  7  8  2  0
  9 10  1  0
 10 11  2  0
 10 12  1  0
 12 13  1  0
 14 13  1  0
 14 15  1  0
 16 15  1  6
 17  7  1  0
 17 16  1  0
 18 16  1  0
 18 27  1  0
 19 18  2  0
 20 21  1  0
 21 31  2  0
 22 23  2  0
 22 21  1  0
 23 24  1  0
 24 25  1  0
 24 30  2  0
 26 28  1  0
 26 27  1  0
 26 25  1  6
 28 32  1  0
 29 28  2  0
 31 30  1  0
M  END
$$$$
