MRY.pdb
     RDKit          3D

 32 32  0  0  1  0  0  0  0  0999 V2000
    4.5847  -11.6250   26.2342 C   0  0  0  0  0  0  0  0  0  0  0  0
    6.3914  -11.8953   26.1514 S   0  0  0  0  0  0  0  0  0  0  0  0
    6.7259  -13.4991   26.8732 C   0  0  0  0  0  0  0  0  0  0  0  0
    6.5156  -14.6516   25.9035 C   0  0  0  0  0  0  0  0  0  0  0  0
    7.8745  -14.9017   25.2695 C   0  0  2  0  0  0  0  0  0  0  0  0
    8.2060  -13.6468   24.5963 N   0  0  0  0  0  0  0  0  0  0  0  0
    7.8542  -15.9711   24.2705 C   0  0  0  0  0  0  0  0  0  0  0  0
    7.4065  -17.0933   24.6077 O   0  0  0  0  0  0  0  0  0  0  0  0
    8.5885  -13.7999   17.5518 N   0  0  0  0  0  0  0  0  0  0  0  0
    8.3015  -12.9755   18.6851 C   0  0  0  0  0  0  0  0  0  0  0  0
    8.7190  -11.7419   18.7583 N   0  0  0  0  0  0  0  0  0  0  0  0
    7.5539  -13.4272   19.7968 N   0  0  0  0  0  0  0  0  0  0  0  0
    7.5518  -14.7972   20.2068 C   0  0  0  0  0  0  0  0  0  0  0  0
    8.9079  -15.4078   20.3042 C   0  0  0  0  0  0  0  0  0  0  0  0
    8.8018  -16.8163   20.7840 C   0  0  0  0  0  0  0  0  0  0  0  0
    8.9210  -16.9773   22.2698 C   0  0  2  0  0  0  0  0  0  0  0  0
    8.3110  -15.8209   22.9352 N   0  0  0  0  0  0  0  0  0  0  0  0
   10.3293  -17.1227   22.6819 C   0  0  0  0  0  0  0  0  0  0  0  0
   11.2278  -16.4160   22.1728 O   0  0  0  0  0  0  0  0  0  0  0  0
    8.4517  -11.2186   19.6203 O   0  0  0  0  0  0  0  0  0  0  0  0
   11.6131  -14.9937   30.6632 C   0  0  0  0  0  0  0  0  0  0  0  0
   11.2184  -15.4143   29.3899 C   0  0  0  0  0  0  0  0  0  0  0  0
   11.5417  -14.6375   28.3010 C   0  0  0  0  0  0  0  0  0  0  0  0
   11.1494  -15.0608   27.0578 C   0  0  0  0  0  0  0  0  0  0  0  0
   10.4426  -16.2407   26.8784 C   0  0  0  0  0  0  0  0  0  0  0  0
   10.0303  -16.6827   25.5183 C   0  0  1  0  0  0  0  0  0  0  0  0
   11.1006  -17.6432   24.9913 N   0  0  0  0  0  0  0  0  0  0  0  0
   10.6610  -18.0853   23.6758 C   0  0  0  0  0  0  0  0  0  0  0  0
   11.2243  -18.8139   25.8700 O   0  0  0  0  0  0  0  0  0  0  0  0
   12.0225  -18.8062   26.8281 C   0  0  0  0  0  0  0  0  0  0  0  0
   10.1209  -17.0146   27.9679 C   0  0  0  0  0  0  0  0  0  0  0  0
   10.5159  -16.5877   29.2157 O   0  0  0  0  0  0  0  0  0  0  0  0
  2  1  1  0
  3  2  1  0
  4  3  1  0
  5  4  1  0
  5  7  1  0
  5  6  1  6
  7  8  2  0
  9 10  1  0
 10 11  2  0
 10 12  1  0
 12 13  1  0
 14 13  1  0
 14 15  1  0
 16 15  1  6
 17  7  1  0
 17 16  1  0
 18 16  1  0
 18 27  1  0
 19 18  2  0
 20 21  1  0
 21 31  2  0
 22 23  2  0
 22 21  1  0
 23 24  1  0
 24 25  1  0
 24 30  2  0
 26 28  1  0
 26 27  1  0
 26 25  1  6
 28 32  1  0
 29 28  2  0
 31 30  1  0
M  END
$$$$
