MRY.pdb
     RDKit          3D

 32 32  0  0  1  0  0  0  0  0999 V2000
    7.4626  -11.3375   20.6272 C   0  0  0  0  0  0  0  0  0  0  0  0
    6.9988  -11.8892   18.9466 S   0  0  0  0  0  0  0  0  0  0  0  0
    7.3724  -13.6365   18.8351 C   0  0  0  0  0  0  0  0  0  0  0  0
    8.0752  -14.1818   20.0685 C   0  0  0  0  0  0  0  0  0  0  0  0
    8.3967  -15.6319   19.7448 C   0  0  2  0  0  0  0  0  0  0  0  0
    7.0928  -16.2808   19.6159 N   0  0  0  0  0  0  0  0  0  0  0  0
    9.1453  -16.3053   20.8069 C   0  0  0  0  0  0  0  0  0  0  0  0
    8.5022  -16.9124   21.6965 O   0  0  0  0  0  0  0  0  0  0  0  0
   14.8301  -15.5791   17.9727 N   0  0  0  0  0  0  0  0  0  0  0  0
   15.5864  -14.9425   19.0065 C   0  0  0  0  0  0  0  0  0  0  0  0
   16.3597  -13.9213   18.7600 N   0  0  0  0  0  0  0  0  0  0  0  0
   15.5546  -15.3643   20.3555 N   0  0  0  0  0  0  0  0  0  0  0  0
   14.7476  -16.4616   20.7911 C   0  0  0  0  0  0  0  0  0  0  0  0
   13.3640  -16.0806   21.1931 C   0  0  0  0  0  0  0  0  0  0  0  0
   12.6323  -17.2756   21.7050 C   0  0  0  0  0  0  0  0  0  0  0  0
   11.1858  -17.0327   22.0154 C   0  0  2  0  0  0  0  0  0  0  0  0
   10.5616  -16.3171   20.8972 N   0  0  0  0  0  0  0  0  0  0  0  0
   11.0270  -16.2687   23.2664 C   0  0  0  0  0  0  0  0  0  0  0  0
   10.8878  -15.0252   23.2509 O   0  0  0  0  0  0  0  0  0  0  0  0
   16.8309  -13.4938   19.5868 O   0  0  0  0  0  0  0  0  0  0  0  0
    6.3523  -11.5681   26.2501 C   0  0  0  0  0  0  0  0  0  0  0  0
    6.9544  -12.8039   25.9965 C   0  0  0  0  0  0  0  0  0  0  0  0
    6.4815  -13.5759   24.9602 C   0  0  0  0  0  0  0  0  0  0  0  0
    7.0805  -14.7854   24.7213 C   0  0  0  0  0  0  0  0  0  0  0  0
    8.1394  -15.2401   25.4933 C   0  0  0  0  0  0  0  0  0  0  0  0
    8.7771  -16.5554   25.2130 C   0  0  2  0  0  0  0  0  0  0  0  0
   10.2495  -16.4613   25.6239 N   0  0  0  0  0  0  0  0  0  0  0  0
   11.0334  -16.9668   24.5062 C   0  0  0  0  0  0  0  0  0  0  0  0
   10.5123  -17.2945   26.8049 O   0  0  0  0  0  0  0  0  0  0  0  0
   10.9139  -18.4681   26.6763 C   0  0  0  0  0  0  0  0  0  0  0  0
    8.6095  -14.4669   26.5279 C   0  0  0  0  0  0  0  0  0  0  0  0
    8.0067  -13.2524   26.7662 O   0  0  0  0  0  0  0  0  0  0  0  0
  2  1  1  0
  3  2  1  0
  4  3  1  0
  5  4  1  0
  5  7  1  0
  5  6  1  1
  7  8  2  0
  9 10  1  0
 10 11  2  0
 10 12  1  0
 12 13  1  0
 14 13  1  0
 14 15  1  0
 16 15  1  6
 17  7  1  0
 17 16  1  0
 18 16  1  0
 18 27  1  0
 19 18  2  0
 20 21  1  0
 21 31  2  0
 22 23  2  0
 22 21  1  0
 23 24  1  0
 24 25  1  0
 24 30  2  0
 26 28  1  0
 26 27  1  0
 26 25  1  6
 28 32  1  0
 29 28  2  0
 31 30  1  0
M  END
$$$$
