MRY.pdb
     RDKit          3D

 32 32  0  0  1  0  0  0  0  0999 V2000
    6.9569  -18.8491   29.6291 C   0  0  0  0  0  0  0  0  0  0  0  0
    7.9126  -18.8471   28.0701 S   0  0  0  0  0  0  0  0  0  0  0  0
    7.0298  -19.8752   26.9002 C   0  0  0  0  0  0  0  0  0  0  0  0
    7.7909  -20.1015   25.6032 C   0  0  0  0  0  0  0  0  0  0  0  0
    6.8287  -19.7085   24.4939 C   0  0  2  0  0  0  0  0  0  0  0  0
    6.6044  -20.9430   23.7433 N   0  0  0  0  0  0  0  0  0  0  0  0
    7.3818  -18.7067   23.5816 C   0  0  0  0  0  0  0  0  0  0  0  0
    8.1961  -19.0838   22.7051 O   0  0  0  0  0  0  0  0  0  0  0  0
    8.5811  -14.0021   17.0727 N   0  0  0  0  0  0  0  0  0  0  0  0
    7.7969  -13.3339   18.0650 C   0  0  0  0  0  0  0  0  0  0  0  0
    7.7847  -12.0336   18.1673 N   0  0  0  0  0  0  0  0  0  0  0  0
    6.9861  -14.0209   18.9974 N   0  0  0  0  0  0  0  0  0  0  0  0
    7.5389  -14.8684   20.0079 C   0  0  0  0  0  0  0  0  0  0  0  0
    7.4633  -14.3055   21.3858 C   0  0  0  0  0  0  0  0  0  0  0  0
    6.8513  -15.3015   22.3127 C   0  0  0  0  0  0  0  0  0  0  0  0
    7.7709  -16.4100   22.7289 C   0  0  2  0  0  0  0  0  0  0  0  0
    7.0551  -17.3262   23.6234 N   0  0  0  0  0  0  0  0  0  0  0  0
    8.9785  -15.8843   23.3918 C   0  0  0  0  0  0  0  0  0  0  0  0
    9.8308  -15.2261   22.7544 O   0  0  0  0  0  0  0  0  0  0  0  0
    7.2219  -11.6416   18.9534 O   0  0  0  0  0  0  0  0  0  0  0  0
    5.6439  -11.2638   25.9326 C   0  0  0  0  0  0  0  0  0  0  0  0
    6.6528  -12.2047   26.1587 C   0  0  0  0  0  0  0  0  0  0  0  0
    7.9639  -11.8376   25.9593 C   0  0  0  0  0  0  0  0  0  0  0  0
    8.9439  -12.7690   26.1847 C   0  0  0  0  0  0  0  0  0  0  0  0
    8.6438  -14.0566   26.6041 C   0  0  0  0  0  0  0  0  0  0  0  0
    9.7250  -15.0504   26.8465 C   0  0  2  0  0  0  0  0  0  0  0  0
   10.2685  -15.4955   25.4856 N   0  0  0  0  0  0  0  0  0  0  0  0
    9.1678  -16.1351   24.7795 C   0  0  0  0  0  0  0  0  0  0  0  0
   11.3552  -16.4694   25.6548 O   0  0  0  0  0  0  0  0  0  0  0  0
   12.4033  -16.1526   26.2516 C   0  0  0  0  0  0  0  0  0  0  0  0
    7.3333  -14.4205   26.8023 C   0  0  0  0  0  0  0  0  0  0  0  0
    6.3504  -13.4836   26.5755 O   0  0  0  0  0  0  0  0  0  0  0  0
  2  1  1  0
  3  2  1  0
  4  3  1  0
  5  4  1  0
  5  7  1  0
  5  6  1  6
  7  8  2  0
  9 10  1  0
 10 11  2  0
 10 12  1  0
 12 13  1  0
 14 13  1  0
 14 15  1  0
 16 15  1  1
 17  7  1  0
 17 16  1  0
 18 16  1  0
 18 27  1  0
 19 18  2  0
 20 21  1  0
 21 31  2  0
 22 23  2  0
 22 21  1  0
 23 24  1  0
 24 25  1  0
 24 30  2  0
 26 28  1  0
 26 27  1  0
 26 25  1  6
 28 32  1  0
 29 28  2  0
 31 30  1  0
M  END
$$$$
