MRY.pdb
     RDKit          3D

 32 32  0  0  1  0  0  0  0  0999 V2000
   16.2442  -14.0957   20.6271 C   0  0  0  0  0  0  0  0  0  0  0  0
   16.0034  -13.5994   18.8836 S   0  0  0  0  0  0  0  0  0  0  0  0
   14.4405  -14.2853   18.3433 C   0  0  0  0  0  0  0  0  0  0  0  0
   13.3898  -14.3284   19.4419 C   0  0  0  0  0  0  0  0  0  0  0  0
   12.1815  -15.0112   18.8216 C   0  0  2  0  0  0  0  0  0  0  0  0
   11.6330  -14.0231   17.8940 N   0  0  0  0  0  0  0  0  0  0  0  0
   11.1478  -15.3503   19.8006 C   0  0  0  0  0  0  0  0  0  0  0  0
   10.2937  -14.4788   20.0916 O   0  0  0  0  0  0  0  0  0  0  0  0
    4.9721  -20.1224   19.3264 N   0  0  0  0  0  0  0  0  0  0  0  0
    5.9243  -19.8782   18.2872 C   0  0  0  0  0  0  0  0  0  0  0  0
    5.6617  -20.1517   17.0391 N   0  0  0  0  0  0  0  0  0  0  0  0
    7.2045  -19.3293   18.5288 N   0  0  0  0  0  0  0  0  0  0  0  0
    7.6221  -18.9167   19.8328 C   0  0  0  0  0  0  0  0  0  0  0  0
    9.0602  -18.5355   19.9215 C   0  0  0  0  0  0  0  0  0  0  0  0
    9.4037  -18.1563   21.3228 C   0  0  0  0  0  0  0  0  0  0  0  0
   10.0084  -16.7919   21.4669 C   0  0  2  0  0  0  0  0  0  0  0  0
   11.0470  -16.6097   20.4471 N   0  0  0  0  0  0  0  0  0  0  0  0
   10.5724  -16.5952   22.8149 C   0  0  0  0  0  0  0  0  0  0  0  0
   11.7746  -16.8461   23.0552 O   0  0  0  0  0  0  0  0  0  0  0  0
    6.4359  -19.9824   16.3607 O   0  0  0  0  0  0  0  0  0  0  0  0
   10.6374  -15.3076   31.4433 C   0  0  0  0  0  0  0  0  0  0  0  0
   10.3090  -15.2436   30.0860 C   0  0  0  0  0  0  0  0  0  0  0  0
    9.7387  -16.3425   29.4854 C   0  0  0  0  0  0  0  0  0  0  0  0
    9.4208  -16.2672   28.1542 C   0  0  0  0  0  0  0  0  0  0  0  0
    9.6596  -15.1206   27.4110 C   0  0  0  0  0  0  0  0  0  0  0  0
    9.3025  -15.0602   25.9674 C   0  0  1  0  0  0  0  0  0  0  0  0
   10.2386  -16.0076   25.2113 N   0  0  0  0  0  0  0  0  0  0  0  0
    9.7272  -16.1115   23.8523 C   0  0  0  0  0  0  0  0  0  0  0  0
   10.2322  -17.3420   25.8255 O   0  0  0  0  0  0  0  0  0  0  0  0
    9.3095  -18.1459   25.5858 C   0  0  0  0  0  0  0  0  0  0  0  0
   10.2295  -14.0245   28.0136 C   0  0  0  0  0  0  0  0  0  0  0  0
   10.5480  -14.1021   29.3507 O   0  0  0  0  0  0  0  0  0  0  0  0
  2  1  1  0
  3  2  1  0
  4  3  1  0
  5  4  1  0
  5  7  1  0
  5  6  1  6
  7  8  2  0
  9 10  1  0
 10 11  2  0
 10 12  1  0
 12 13  1  0
 14 13  1  0
 14 15  1  0
 16 15  1  1
 17  7  1  0
 17 16  1  0
 18 16  1  0
 18 27  1  0
 19 18  2  0
 20 21  1  0
 21 31  2  0
 22 23  2  0
 22 21  1  0
 23 24  1  0
 24 25  1  0
 24 30  2  0
 26 28  1  0
 26 27  1  0
 26 25  1  6
 28 32  1  0
 29 28  2  0
 31 30  1  0
M  END
$$$$
