MRY.pdb
     RDKit          3D

 32 32  0  0  1  0  0  0  0  0999 V2000
    4.8087  -11.8982   26.3039 C   0  0  0  0  0  0  0  0  0  0  0  0
    6.2737  -12.8607   25.7831 S   0  0  0  0  0  0  0  0  0  0  0  0
    6.1294  -14.4902   26.5106 C   0  0  0  0  0  0  0  0  0  0  0  0
    7.2773  -15.4175   26.1430 C   0  0  0  0  0  0  0  0  0  0  0  0
    6.7456  -16.2978   25.0236 C   0  0  2  0  0  0  0  0  0  0  0  0
    6.0529  -17.3889   25.7072 N   0  0  0  0  0  0  0  0  0  0  0  0
    7.8042  -16.8714   24.1917 C   0  0  0  0  0  0  0  0  0  0  0  0
    8.3951  -17.8986   24.6034 O   0  0  0  0  0  0  0  0  0  0  0  0
    7.5920  -13.8509   16.7660 N   0  0  0  0  0  0  0  0  0  0  0  0
    8.3442  -13.0503   17.6822 C   0  0  0  0  0  0  0  0  0  0  0  0
    8.2349  -11.7508   17.7061 N   0  0  0  0  0  0  0  0  0  0  0  0
    9.2505  -13.5977   18.6191 N   0  0  0  0  0  0  0  0  0  0  0  0
    9.2241  -14.9795   18.9861 C   0  0  0  0  0  0  0  0  0  0  0  0
    9.1260  -15.2200   20.4537 C   0  0  0  0  0  0  0  0  0  0  0  0
    9.1447  -16.6850   20.7347 C   0  0  0  0  0  0  0  0  0  0  0  0
    9.2567  -17.0376   22.1876 C   0  0  2  0  0  0  0  0  0  0  0  0
    8.2094  -16.3384   22.9403 N   0  0  0  0  0  0  0  0  0  0  0  0
   10.5878  -16.6951   22.7212 C   0  0  0  0  0  0  0  0  0  0  0  0
   11.1799  -15.6532   22.3609 O   0  0  0  0  0  0  0  0  0  0  0  0
    8.7615  -11.2609   18.4618 O   0  0  0  0  0  0  0  0  0  0  0  0
   11.8296  -14.3509   30.6274 C   0  0  0  0  0  0  0  0  0  0  0  0
   11.4631  -14.8648   29.3801 C   0  0  0  0  0  0  0  0  0  0  0  0
   11.4051  -14.0148   28.2996 C   0  0  0  0  0  0  0  0  0  0  0  0
   11.0449  -14.5308   27.0819 C   0  0  0  0  0  0  0  0  0  0  0  0
   10.7418  -15.8747   26.9200 C   0  0  0  0  0  0  0  0  0  0  0  0
   10.3569  -16.4138   25.5871 C   0  0  2  0  0  0  0  0  0  0  0  0
   11.5968  -17.0650   24.9672 N   0  0  0  0  0  0  0  0  0  0  0  0
   11.2002  -17.5706   23.6609 C   0  0  0  0  0  0  0  0  0  0  0  0
   12.0591  -18.1891   25.7922 O   0  0  0  0  0  0  0  0  0  0  0  0
   13.0075  -18.0433   26.5886 C   0  0  0  0  0  0  0  0  0  0  0  0
   10.8005  -16.7214   28.0011 C   0  0  0  0  0  0  0  0  0  0  0  0
   11.1626  -16.2012   29.2233 O   0  0  0  0  0  0  0  0  0  0  0  0
  2  1  1  0
  3  2  1  0
  4  3  1  0
  5  4  1  0
  5  7  1  0
  5  6  1  1
  7  8  2  0
  9 10  1  0
 10 11  2  0
 10 12  1  0
 12 13  1  0
 14 13  1  0
 14 15  1  0
 16 15  1  6
 17  7  1  0
 17 16  1  0
 18 16  1  0
 18 27  1  0
 19 18  2  0
 20 21  1  0
 21 31  2  0
 22 23  2  0
 22 21  1  0
 23 24  1  0
 24 25  1  0
 24 30  2  0
 26 28  1  0
 26 27  1  0
 26 25  1  6
 28 32  1  0
 29 28  2  0
 31 30  1  0
M  END
$$$$
