MRY.pdb
     RDKit          3D

 32 32  0  0  1  0  0  0  0  0999 V2000
    9.7472  -12.1133   19.4709 C   0  0  0  0  0  0  0  0  0  0  0  0
    8.1863  -11.8426   20.3843 S   0  0  0  0  0  0  0  0  0  0  0  0
    7.1172  -13.2370   20.0414 C   0  0  0  0  0  0  0  0  0  0  0  0
    6.8560  -14.1093   21.2595 C   0  0  0  0  0  0  0  0  0  0  0  0
    7.2808  -15.5113   20.8535 C   0  0  2  0  0  0  0  0  0  0  0  0
    6.0411  -16.1709   20.4463 N   0  0  0  0  0  0  0  0  0  0  0  0
    7.8706  -16.2743   21.9544 C   0  0  0  0  0  0  0  0  0  0  0  0
    7.1040  -16.9118   22.7155 O   0  0  0  0  0  0  0  0  0  0  0  0
   12.3696  -21.7758   25.1237 N   0  0  0  0  0  0  0  0  0  0  0  0
   12.5222  -22.0074   23.7205 C   0  0  0  0  0  0  0  0  0  0  0  0
   12.6116  -23.2131   23.2308 N   0  0  0  0  0  0  0  0  0  0  0  0
   12.5865  -20.9631   22.7697 N   0  0  0  0  0  0  0  0  0  0  0  0
   12.7514  -19.5949   23.1518 C   0  0  0  0  0  0  0  0  0  0  0  0
   11.5266  -18.9692   23.7259 C   0  0  0  0  0  0  0  0  0  0  0  0
   10.9393  -18.0050   22.7507 C   0  0  0  0  0  0  0  0  0  0  0  0
    9.7352  -17.2674   23.2546 C   0  0  2  0  0  0  0  0  0  0  0  0
    9.2633  -16.3413   22.2194 N   0  0  0  0  0  0  0  0  0  0  0  0
   10.0365  -16.5360   24.4989 C   0  0  0  0  0  0  0  0  0  0  0  0
   10.7972  -15.5423   24.4963 O   0  0  0  0  0  0  0  0  0  0  0  0
   12.7609  -23.2789   22.2004 O   0  0  0  0  0  0  0  0  0  0  0  0
    5.6008  -11.8381   25.1435 C   0  0  0  0  0  0  0  0  0  0  0  0
    6.2815  -12.8901   25.7632 C   0  0  0  0  0  0  0  0  0  0  0  0
    7.4013  -12.6103   26.5124 C   0  0  0  0  0  0  0  0  0  0  0  0
    8.0598  -13.6503   27.1154 C   0  0  0  0  0  0  0  0  0  0  0  0
    7.6252  -14.9612   26.9869 C   0  0  0  0  0  0  0  0  0  0  0  0
    8.3538  -16.0744   27.6541 C   0  0  2  0  0  0  0  0  0  0  0  0
    9.7029  -16.2429   26.9488 N   0  0  0  0  0  0  0  0  0  0  0  0
    9.4473  -16.9756   25.7171 C   0  0  0  0  0  0  0  0  0  0  0  0
   10.6296  -17.0210   27.7817 O   0  0  0  0  0  0  0  0  0  0  0  0
   10.9061  -18.2014   27.4897 C   0  0  0  0  0  0  0  0  0  0  0  0
    6.5064  -15.2378   26.2378 C   0  0  0  0  0  0  0  0  0  0  0  0
    5.8464  -14.1918   25.6330 O   0  0  0  0  0  0  0  0  0  0  0  0
  2  1  1  0
  3  2  1  0
  4  3  1  0
  5  4  1  0
  5  7  1  0
  5  6  1  1
  7  8  2  0
  9 10  1  0
 10 11  2  0
 10 12  1  0
 12 13  1  0
 14 13  1  0
 14 15  1  0
 16 15  1  6
 17  7  1  0
 17 16  1  0
 18 16  1  0
 18 27  1  0
 19 18  2  0
 20 21  1  0
 21 31  2  0
 22 23  2  0
 22 21  1  0
 23 24  1  0
 24 25  1  0
 24 30  2  0
 26 28  1  0
 26 27  1  0
 26 25  1  6
 28 32  1  0
 29 28  2  0
 31 30  1  0
M  END
$$$$
