MRY.pdb
     RDKit          3D

 32 32  0  0  1  0  0  0  0  0999 V2000
    5.1046  -12.4903   26.0397 C   0  0  0  0  0  0  0  0  0  0  0  0
    6.5517  -13.5408   26.4223 S   0  0  0  0  0  0  0  0  0  0  0  0
    5.9398  -15.1853   26.7776 C   0  0  0  0  0  0  0  0  0  0  0  0
    5.5080  -15.9486   25.5351 C   0  0  0  0  0  0  0  0  0  0  0  0
    6.2619  -17.2676   25.5865 C   0  0  2  0  0  0  0  0  0  0  0  0
    6.8793  -17.2903   26.9117 N   0  0  0  0  0  0  0  0  0  0  0  0
    7.3212  -17.3636   24.5812 C   0  0  0  0  0  0  0  0  0  0  0  0
    7.2769  -18.3082   23.7570 O   0  0  0  0  0  0  0  0  0  0  0  0
    8.9023  -13.6963   17.7674 N   0  0  0  0  0  0  0  0  0  0  0  0
    9.1673  -13.0581   19.0198 C   0  0  0  0  0  0  0  0  0  0  0  0
    9.6233  -11.8377   19.0840 N   0  0  0  0  0  0  0  0  0  0  0  0
    8.9582  -13.6911   20.2665 N   0  0  0  0  0  0  0  0  0  0  0  0
    8.0415  -14.7773   20.4245 C   0  0  0  0  0  0  0  0  0  0  0  0
    7.8999  -15.2579   21.8282 C   0  0  0  0  0  0  0  0  0  0  0  0
    9.2459  -15.4395   22.4452 C   0  0  0  0  0  0  0  0  0  0  0  0
    9.3522  -16.6150   23.3696 C   0  0  2  0  0  0  0  0  0  0  0  0
    8.4033  -16.4513   24.4764 N   0  0  0  0  0  0  0  0  0  0  0  0
   10.7242  -16.7669   23.8880 C   0  0  0  0  0  0  0  0  0  0  0  0
   11.7071  -16.8020   23.1143 O   0  0  0  0  0  0  0  0  0  0  0  0
    9.8394  -11.4794   20.0396 O   0  0  0  0  0  0  0  0  0  0  0  0
    7.6495  -13.3550   28.0412 C   0  0  0  0  0  0  0  0  0  0  0  0
    8.7788  -14.1584   27.8586 C   0  0  0  0  0  0  0  0  0  0  0  0
    8.8219  -15.3950   28.4605 C   0  0  0  0  0  0  0  0  0  0  0  0
    9.9345  -16.1735   28.2735 C   0  0  0  0  0  0  0  0  0  0  0  0
   11.0031  -15.7448   27.4999 C   0  0  0  0  0  0  0  0  0  0  0  0
   12.1995  -16.6089   27.3075 C   0  0  2  0  0  0  0  0  0  0  0  0
   12.2728  -16.9873   25.8252 N   0  0  0  0  0  0  0  0  0  0  0  0
   10.9226  -16.8742   25.2929 C   0  0  0  0  0  0  0  0  0  0  0  0
   12.7324  -18.3735   25.6663 O   0  0  0  0  0  0  0  0  0  0  0  0
   11.9939  -19.2301   25.1411 C   0  0  0  0  0  0  0  0  0  0  0  0
   10.9573  -14.5089   26.9000 C   0  0  0  0  0  0  0  0  0  0  0  0
    9.8390  -13.7286   27.0890 O   0  0  0  0  0  0  0  0  0  0  0  0
  2  1  1  0
  3  2  1  0
  4  3  1  0
  5  4  1  0
  5  7  1  0
  5  6  1  1
  7  8  2  0
  9 10  1  0
 10 11  2  0
 10 12  1  0
 12 13  1  0
 14 13  1  0
 14 15  1  0
 16 15  1  6
 17  7  1  0
 17 16  1  0
 18 16  1  0
 18 27  1  0
 19 18  2  0
 20 21  1  0
 21 31  2  0
 22 23  2  0
 22 21  1  0
 23 24  1  0
 24 25  1  0
 24 30  2  0
 26 28  1  0
 26 27  1  0
 26 25  1  6
 28 32  1  0
 29 28  2  0
 31 30  1  0
M  END
$$$$
