MRY.pdb
     RDKit          3D

 32 32  0  0  1  0  0  0  0  0999 V2000
    6.3848  -11.3442   20.1623 C   0  0  0  0  0  0  0  0  0  0  0  0
    6.7675  -11.8869   18.4585 S   0  0  0  0  0  0  0  0  0  0  0  0
    8.3443  -12.7332   18.5082 C   0  0  0  0  0  0  0  0  0  0  0  0
    8.3923  -13.8574   19.5312 C   0  0  0  0  0  0  0  0  0  0  0  0
    9.8332  -14.3418   19.5349 C   0  0  2  0  0  0  0  0  0  0  0  0
   10.0313  -14.9257   18.2091 N   0  0  0  0  0  0  0  0  0  0  0  0
   10.0891  -15.3759   20.5385 C   0  0  0  0  0  0  0  0  0  0  0  0
    9.4404  -15.3385   21.6115 O   0  0  0  0  0  0  0  0  0  0  0  0
   13.7863  -23.2495   18.2207 N   0  0  0  0  0  0  0  0  0  0  0  0
   13.7276  -21.8624   17.8762 C   0  0  0  0  0  0  0  0  0  0  0  0
   14.5994  -21.3185   17.0728 N   0  0  0  0  0  0  0  0  0  0  0  0
   12.7347  -20.9868   18.3723 N   0  0  0  0  0  0  0  0  0  0  0  0
   13.0233  -19.9849   19.3510 C   0  0  0  0  0  0  0  0  0  0  0  0
   11.8232  -19.2566   19.8519 C   0  0  0  0  0  0  0  0  0  0  0  0
   12.1805  -18.4457   21.0520 C   0  0  0  0  0  0  0  0  0  0  0  0
   11.1522  -17.4269   21.4421 C   0  0  2  0  0  0  0  0  0  0  0  0
   11.0297  -16.4262   20.3764 N   0  0  0  0  0  0  0  0  0  0  0  0
   11.4993  -16.7768   22.7192 C   0  0  0  0  0  0  0  0  0  0  0  0
   12.5465  -16.1018   22.8370 O   0  0  0  0  0  0  0  0  0  0  0  0
   14.6112  -20.2756   17.0484 O   0  0  0  0  0  0  0  0  0  0  0  0
   10.9388  -14.5438   31.1349 C   0  0  0  0  0  0  0  0  0  0  0  0
   10.6513  -14.8455   29.8005 C   0  0  0  0  0  0  0  0  0  0  0  0
   10.2263  -16.1144   29.4803 C   0  0  0  0  0  0  0  0  0  0  0  0
    9.9471  -16.3976   28.1686 C   0  0  0  0  0  0  0  0  0  0  0  0
   10.0830  -15.4431   27.1714 C   0  0  0  0  0  0  0  0  0  0  0  0
    9.7703  -15.7721   25.7539 C   0  0  1  0  0  0  0  0  0  0  0  0
   11.0153  -16.4139   25.1344 N   0  0  0  0  0  0  0  0  0  0  0  0
   10.6221  -16.9256   23.8295 C   0  0  0  0  0  0  0  0  0  0  0  0
   11.4879  -17.5322   25.9614 O   0  0  0  0  0  0  0  0  0  0  0  0
   10.9602  -18.6581   25.8668 C   0  0  0  0  0  0  0  0  0  0  0  0
   10.5079  -14.1764   27.4942 C   0  0  0  0  0  0  0  0  0  0  0  0
   10.7877  -13.8939   28.8122 O   0  0  0  0  0  0  0  0  0  0  0  0
  2  1  1  0
  3  2  1  0
  4  3  1  0
  5  4  1  0
  5  7  1  0
  5  6  1  6
  7  8  2  0
  9 10  1  0
 10 11  2  0
 10 12  1  0
 12 13  1  0
 14 13  1  0
 14 15  1  0
 16 15  1  6
 17  7  1  0
 17 16  1  0
 18 16  1  0
 18 27  1  0
 19 18  2  0
 20 21  1  0
 21 31  2  0
 22 23  2  0
 22 21  1  0
 23 24  1  0
 24 25  1  0
 24 30  2  0
 26 28  1  0
 26 27  1  0
 26 25  1  6
 28 32  1  0
 29 28  2  0
 31 30  1  0
M  END
$$$$
