MRY.pdb
     RDKit          3D

 32 32  0  0  1  0  0  0  0  0999 V2000
    9.4523  -17.2709   28.3963 C   0  0  0  0  0  0  0  0  0  0  0  0
    8.1605  -18.5333   28.6820 S   0  0  0  0  0  0  0  0  0  0  0  0
    7.6717  -19.1700   27.0818 C   0  0  0  0  0  0  0  0  0  0  0  0
    6.3688  -18.5759   26.5698 C   0  0  0  0  0  0  0  0  0  0  0  0
    6.2063  -19.1111   25.1563 C   0  0  2  0  0  0  0  0  0  0  0  0
    6.7642  -20.4616   25.2048 N   0  0  0  0  0  0  0  0  0  0  0  0
    6.9507  -18.3388   24.1605 C   0  0  0  0  0  0  0  0  0  0  0  0
    8.0493  -18.7896   23.7563 O   0  0  0  0  0  0  0  0  0  0  0  0
    7.5718  -12.6005   18.1804 N   0  0  0  0  0  0  0  0  0  0  0  0
    8.2445  -13.8239   17.8691 C   0  0  0  0  0  0  0  0  0  0  0  0
    8.6871  -14.0762   16.6684 N   0  0  0  0  0  0  0  0  0  0  0  0
    8.4786  -14.8391   18.8248 N   0  0  0  0  0  0  0  0  0  0  0  0
    7.4604  -15.2888   19.7226 C   0  0  0  0  0  0  0  0  0  0  0  0
    7.3901  -14.5232   20.9994 C   0  0  0  0  0  0  0  0  0  0  0  0
    6.6157  -15.2930   22.0159 C   0  0  0  0  0  0  0  0  0  0  0  0
    7.3821  -16.4020   22.6720 C   0  0  2  0  0  0  0  0  0  0  0  0
    6.5080  -17.1044   23.6178 N   0  0  0  0  0  0  0  0  0  0  0  0
    8.5799  -15.8901   23.3629 C   0  0  0  0  0  0  0  0  0  0  0  0
    9.5493  -15.4291   22.7196 O   0  0  0  0  0  0  0  0  0  0  0  0
    9.2111  -14.9707   16.5522 O   0  0  0  0  0  0  0  0  0  0  0  0
    5.2277  -10.9346   25.8831 C   0  0  0  0  0  0  0  0  0  0  0  0
    6.2074  -11.9029   26.1214 C   0  0  0  0  0  0  0  0  0  0  0  0
    7.5055  -11.6449   25.7448 C   0  0  0  0  0  0  0  0  0  0  0  0
    8.4570  -12.6021   25.9843 C   0  0  0  0  0  0  0  0  0  0  0  0
    8.1411  -13.8090   26.5905 C   0  0  0  0  0  0  0  0  0  0  0  0
    9.1917  -14.8323   26.8443 C   0  0  2  0  0  0  0  0  0  0  0  0
    9.7323  -15.2974   25.4889 N   0  0  0  0  0  0  0  0  0  0  0  0
    8.6237  -15.9253   24.7846 C   0  0  0  0  0  0  0  0  0  0  0  0
   10.8027  -16.2871   25.6698 O   0  0  0  0  0  0  0  0  0  0  0  0
   10.6551  -17.4603   25.2737 C   0  0  0  0  0  0  0  0  0  0  0  0
    6.8435  -14.0640   26.9655 C   0  0  0  0  0  0  0  0  0  0  0  0
    5.8894  -13.1014   26.7242 O   0  0  0  0  0  0  0  0  0  0  0  0
  2  1  1  0
  3  2  1  0
  4  3  1  0
  5  4  1  0
  5  7  1  0
  5  6  1  1
  7  8  2  0
  9 10  1  0
 10 11  2  0
 10 12  1  0
 12 13  1  0
 14 13  1  0
 14 15  1  0
 16 15  1  1
 17  7  1  0
 17 16  1  0
 18 16  1  0
 18 27  1  0
 19 18  2  0
 20 21  1  0
 21 31  2  0
 22 23  2  0
 22 21  1  0
 23 24  1  0
 24 25  1  0
 24 30  2  0
 26 28  1  0
 26 27  1  0
 26 25  1  6
 28 32  1  0
 29 28  2  0
 31 30  1  0
M  END
$$$$
