RSC.pdb
     RDKit          3D

 24 23  0  0  1  0  0  0  0  0999 V2000
   10.1288  -14.1471   20.3373 N   0  0  0  0  0  0  0  0  0  0  0  0
    9.8924  -13.4087   19.1695 C   0  0  0  0  0  0  0  0  0  0  0  0
   10.8218  -13.3018   18.2883 N   0  0  0  0  0  0  0  0  0  0  0  0
    8.6349  -12.7843   18.9629 N   0  0  0  0  0  0  0  0  0  0  0  0
    7.5256  -13.0127   19.8635 C   0  0  0  0  0  0  0  0  0  0  0  0
    7.3298  -14.5128   20.0758 C   0  0  0  0  0  0  0  0  0  0  0  0
    7.4820  -14.8041   21.5620 C   0  0  0  0  0  0  0  0  0  0  0  0
    7.4455  -16.3246   21.7217 C   0  0  2  0  0  0  0  0  0  0  0  0
    6.1327  -16.7989   21.3274 N   0  0  0  0  0  0  0  0  0  0  0  0
    7.7420  -16.6025   23.1363 C   0  0  0  0  0  0  0  0  0  0  0  0
    6.7954  -16.5436   23.9584 O   0  0  0  0  0  0  0  0  0  0  0  0
   10.6650  -12.7798   17.4009 O   0  0  0  0  0  0  0  0  0  0  0  0
   11.5517  -17.6110   24.4026 C   0  0  0  0  0  0  0  0  0  0  0  0
   10.4733  -18.0513   25.1226 C   0  0  1  0  0  0  0  0  0  0  0  0
    9.3040  -17.0897   24.9706 N   0  0  0  0  0  0  0  0  0  0  0  0
    9.0560  -16.9236   23.5373 C   0  0  0  0  0  0  0  0  0  0  0  0
    9.6518  -15.7865   25.5863 O   0  0  0  0  0  0  0  0  0  0  0  0
   10.3658  -14.9343   24.9925 N   0  0  0  0  0  0  0  0  0  0  0  0
    9.1840  -15.4641   26.8705 C   0  0  1  0  0  0  0  0  0  0  0  0
    9.7959  -14.3648   27.6016 C   0  0  0  0  0  0  0  0  0  0  0  0
    8.6945  -13.3706   27.9518 S   0  0  0  0  0  0  0  0  0  0  0  0
    7.7644  -12.8732   26.5013 C   0  0  0  0  0  0  0  0  0  0  0  0
   10.4380  -14.8481   28.8466 O   0  0  0  0  0  0  0  0  0  0  0  0
   11.0515  -13.9197   29.6719 O   0  0  0  0  0  0  0  0  0  0  0  0
  2  3  2  0
  2  1  1  0
  4  2  1  0
  5  4  1  0
  6  5  1  0
  7  6  1  0
  7  8  1  0
  8  9  1  1
  8 10  1  0
 10 15  1  0
 11 10  2  0
 13 12  1  0
 14 16  1  0
 14 13  1  1
 15 14  1  0
 16 17  2  0
 18 16  1  0
 18 19  1  0
 19 20  1  1
 20 21  1  0
 22 23  1  0
 22 19  1  0
 24 22  2  0
M  END
$$$$
