RSC.pdb
     RDKit          3D

 24 23  0  0  1  0  0  0  0  0999 V2000
    8.6190  -12.6235   17.8291 N   0  0  0  0  0  0  0  0  0  0  0  0
    8.9148  -12.5587   19.1977 C   0  0  0  0  0  0  0  0  0  0  0  0
    9.6837  -11.6269   19.6364 N   0  0  0  0  0  0  0  0  0  0  0  0
    8.3682  -13.5158   20.0915 N   0  0  0  0  0  0  0  0  0  0  0  0
    7.2639  -14.3648   19.7000 C   0  0  0  0  0  0  0  0  0  0  0  0
    6.7506  -15.1405   20.9119 C   0  0  0  0  0  0  0  0  0  0  0  0
    6.3433  -16.5310   20.4458 C   0  0  0  0  0  0  0  0  0  0  0  0
    7.1780  -17.5297   21.2487 C   0  0  2  0  0  0  0  0  0  0  0  0
    6.8238  -18.8716   20.8272 N   0  0  0  0  0  0  0  0  0  0  0  0
    6.8690  -17.2863   22.6670 C   0  0  0  0  0  0  0  0  0  0  0  0
    5.6648  -17.1424   22.9905 O   0  0  0  0  0  0  0  0  0  0  0  0
    9.9233  -11.5579   20.6475 O   0  0  0  0  0  0  0  0  0  0  0  0
    9.3703  -18.1960   25.7585 C   0  0  0  0  0  0  0  0  0  0  0  0
    8.0180  -18.0224   25.8861 C   0  0  1  0  0  0  0  0  0  0  0  0
    7.5419  -16.8834   24.9966 N   0  0  0  0  0  0  0  0  0  0  0  0
    7.9076  -17.2199   23.6195 C   0  0  0  0  0  0  0  0  0  0  0  0
    8.2031  -15.6226   25.4104 O   0  0  0  0  0  0  0  0  0  0  0  0
    9.3012  -15.2488   24.9174 N   0  0  0  0  0  0  0  0  0  0  0  0
    7.6095  -14.7982   26.3800 C   0  0  1  0  0  0  0  0  0  0  0  0
    8.3534  -13.6665   26.9119 C   0  0  0  0  0  0  0  0  0  0  0  0
    7.3430  -12.6512   27.4340 S   0  0  0  0  0  0  0  0  0  0  0  0
    6.0176  -12.3702   26.2590 C   0  0  0  0  0  0  0  0  0  0  0  0
    9.2437  -14.0899   28.0183 O   0  0  0  0  0  0  0  0  0  0  0  0
   10.0506  -13.1340   28.6141 O   0  0  0  0  0  0  0  0  0  0  0  0
  2  3  2  0
  2  1  1  0
  4  2  1  0
  5  4  1  0
  6  5  1  0
  7  6  1  0
  7  8  1  0
  8  9  1  6
  8 10  1  0
 10 15  1  0
 11 10  2  0
 13 12  1  0
 14 16  1  0
 14 13  1  6
 15 14  1  0
 16 17  2  0
 18 16  1  0
 18 19  1  0
 19 20  1  1
 20 21  1  0
 22 23  1  0
 22 19  1  0
 24 22  2  0
M  END
$$$$
