RSC.pdb
     RDKit          3D

 24 23  0  0  1  0  0  0  0  0999 V2000
    6.8845  -13.7514   16.8775 N   0  0  0  0  0  0  0  0  0  0  0  0
    8.1743  -14.0148   16.3959 C   0  0  0  0  0  0  0  0  0  0  0  0
    8.5976  -13.4009   15.3491 N   0  0  0  0  0  0  0  0  0  0  0  0
    9.0061  -14.9528   17.0608 N   0  0  0  0  0  0  0  0  0  0  0  0
    9.0151  -15.0587   18.5039 C   0  0  0  0  0  0  0  0  0  0  0  0
    9.3831  -13.7105   19.1209 C   0  0  0  0  0  0  0  0  0  0  0  0
    9.2081  -13.8169   20.6292 C   0  0  0  0  0  0  0  0  0  0  0  0
    7.9383  -14.6340   20.8715 C   0  0  2  0  0  0  0  0  0  0  0  0
    6.8244  -13.9552   20.2373 N   0  0  0  0  0  0  0  0  0  0  0  0
    7.7785  -14.7330   22.3313 C   0  0  0  0  0  0  0  0  0  0  0  0
    7.5788  -13.6739   22.9746 O   0  0  0  0  0  0  0  0  0  0  0  0
    9.5196  -13.6331   14.9245 O   0  0  0  0  0  0  0  0  0  0  0  0
    7.9205  -18.3835   24.4433 C   0  0  0  0  0  0  0  0  0  0  0  0
    6.9664  -17.4308   24.6829 C   0  0  1  0  0  0  0  0  0  0  0  0
    7.5177  -16.0422   24.3954 N   0  0  0  0  0  0  0  0  0  0  0  0
    7.8506  -15.9886   22.9706 C   0  0  0  0  0  0  0  0  0  0  0  0
    8.7311  -15.8118   25.2156 O   0  0  0  0  0  0  0  0  0  0  0  0
    9.8929  -15.9588   24.7493 N   0  0  0  0  0  0  0  0  0  0  0  0
    8.6125  -15.4155   26.5575 C   0  0  1  0  0  0  0  0  0  0  0  0
    9.8116  -15.2503   27.3651 C   0  0  0  0  0  0  0  0  0  0  0  0
    9.5518  -14.1209   28.3557 S   0  0  0  0  0  0  0  0  0  0  0  0
   10.9439  -13.8731   29.4589 C   0  0  0  0  0  0  0  0  0  0  0  0
   10.1272  -16.4938   28.1068 O   0  0  0  0  0  0  0  0  0  0  0  0
   11.4583  -16.7999   28.3388 O   0  0  0  0  0  0  0  0  0  0  0  0
  2  3  2  0
  2  1  1  0
  4  2  1  0
  5  4  1  0
  6  5  1  0
  7  6  1  0
  7  8  1  0
  8  9  1  6
  8 10  1  0
 10 15  1  0
 11 10  2  0
 13 12  1  0
 14 16  1  0
 14 13  1  6
 15 14  1  0
 16 17  2  0
 18 16  1  0
 18 19  1  0
 19 20  1  1
 20 21  1  0
 22 23  1  0
 22 19  1  0
 24 22  2  0
M  END
$$$$
