RSC.pdb
     RDKit          3D

 24 23  0  0  1  0  0  0  0  0999 V2000
    5.3408  -22.4749   14.3245 N   0  0  0  0  0  0  0  0  0  0  0  0
    5.9432  -22.2686   15.5732 C   0  0  0  0  0  0  0  0  0  0  0  0
    5.2063  -22.1289   16.6169 N   0  0  0  0  0  0  0  0  0  0  0  0
    7.3570  -22.2149   15.6828 N   0  0  0  0  0  0  0  0  0  0  0  0
    8.0074  -22.1144   16.9714 C   0  0  0  0  0  0  0  0  0  0  0  0
    7.7529  -20.7343   17.5750 C   0  0  0  0  0  0  0  0  0  0  0  0
    8.3848  -20.6994   18.9593 C   0  0  0  0  0  0  0  0  0  0  0  0
    9.6433  -19.8375   18.8505 C   0  0  2  0  0  0  0  0  0  0  0  0
   10.4151  -20.2893   17.7086 N   0  0  0  0  0  0  0  0  0  0  0  0
   10.3706  -19.9995   20.1198 C   0  0  0  0  0  0  0  0  0  0  0  0
   11.2932  -20.8493   20.1651 O   0  0  0  0  0  0  0  0  0  0  0  0
    5.6273  -21.9688   17.5559 O   0  0  0  0  0  0  0  0  0  0  0  0
    9.3808  -17.7591   23.4073 C   0  0  0  0  0  0  0  0  0  0  0  0
   10.7119  -18.0141   23.2116 C   0  0  1  0  0  0  0  0  0  0  0  0
   10.8959  -19.2983   22.4165 N   0  0  0  0  0  0  0  0  0  0  0  0
   10.0273  -19.2148   21.2409 C   0  0  0  0  0  0  0  0  0  0  0  0
   10.5141  -20.4591   23.2560 O   0  0  0  0  0  0  0  0  0  0  0  0
    9.3313  -20.8923   23.3025 N   0  0  0  0  0  0  0  0  0  0  0  0
   11.4804  -21.1172   24.0339 C   0  0  1  0  0  0  0  0  0  0  0  0
   11.0928  -22.2666   24.8376 C   0  0  0  0  0  0  0  0  0  0  0  0
   11.9575  -23.4463   24.4074 S   0  0  0  0  0  0  0  0  0  0  0  0
   11.8116  -23.7691   22.6493 C   0  0  0  0  0  0  0  0  0  0  0  0
   11.3038  -22.0007   26.2801 O   0  0  0  0  0  0  0  0  0  0  0  0
   11.0258  -23.0149   27.1821 O   0  0  0  0  0  0  0  0  0  0  0  0
  2  3  2  0
  2  1  1  0
  4  2  1  0
  5  4  1  0
  6  5  1  0
  7  6  1  0
  7  8  1  0
  8  9  1  6
  8 10  1  0
 10 15  1  0
 11 10  2  0
 13 12  1  0
 14 16  1  0
 14 13  1  6
 15 14  1  0
 16 17  2  0
 18 16  1  0
 18 19  1  0
 19 20  1  1
 20 21  1  0
 22 23  1  0
 22 19  1  0
 24 22  2  0
M  END
$$$$
