RSC.pdb
     RDKit          3D

 24 23  0  0  1  0  0  0  0  0999 V2000
    7.4893  -12.6450   18.8604 N   0  0  0  0  0  0  0  0  0  0  0  0
    8.7062  -13.2831   19.1374 C   0  0  0  0  0  0  0  0  0  0  0  0
    9.6077  -12.6632   19.8118 N   0  0  0  0  0  0  0  0  0  0  0  0
    8.9397  -14.6047   18.6761 N   0  0  0  0  0  0  0  0  0  0  0  0
    8.3809  -15.7497   19.3619 C   0  0  0  0  0  0  0  0  0  0  0  0
    9.1304  -15.9867   20.6718 C   0  0  0  0  0  0  0  0  0  0  0  0
    9.8742  -17.3098   20.5586 C   0  0  0  0  0  0  0  0  0  0  0  0
    8.9372  -18.3925   21.0957 C   0  0  2  0  0  0  0  0  0  0  0  0
    7.7047  -18.3569   20.3318 N   0  0  0  0  0  0  0  0  0  0  0  0
    8.7242  -18.0902   22.5203 C   0  0  0  0  0  0  0  0  0  0  0  0
    7.6267  -17.5823   22.8564 O   0  0  0  0  0  0  0  0  0  0  0  0
   10.5631  -13.0612   19.9268 O   0  0  0  0  0  0  0  0  0  0  0  0
   11.6141  -18.8616   25.4429 C   0  0  0  0  0  0  0  0  0  0  0  0
   10.2879  -19.0941   25.6926 C   0  0  1  0  0  0  0  0  0  0  0  0
    9.4194  -18.1475   24.8774 N   0  0  0  0  0  0  0  0  0  0  0  0
    9.7341  -18.3699   23.4650 C   0  0  0  0  0  0  0  0  0  0  0  0
    9.7227  -16.7468   25.2571 O   0  0  0  0  0  0  0  0  0  0  0  0
   10.5597  -16.0476   24.6252 N   0  0  0  0  0  0  0  0  0  0  0  0
    9.0712  -16.1539   26.3507 C   0  0  1  0  0  0  0  0  0  0  0  0
    9.4560  -14.8165   26.7757 C   0  0  0  0  0  0  0  0  0  0  0  0
    8.1801  -14.0478   27.1003 S   0  0  0  0  0  0  0  0  0  0  0  0
    8.5353  -12.3903   27.6858 C   0  0  0  0  0  0  0  0  0  0  0  0
   10.3189  -14.8702   27.9793 O   0  0  0  0  0  0  0  0  0  0  0  0
   11.0835  -13.7571   28.2890 O   0  0  0  0  0  0  0  0  0  0  0  0
  2  3  2  0
  2  1  1  0
  4  2  1  0
  5  4  1  0
  6  5  1  0
  7  6  1  0
  7  8  1  0
  8  9  1  6
  8 10  1  0
 10 15  1  0
 11 10  2  0
 13 12  1  0
 14 16  1  0
 14 13  1  6
 15 14  1  0
 16 17  2  0
 18 16  1  0
 18 19  1  0
 19 20  1  1
 20 21  1  0
 22 23  1  0
 22 19  1  0
 24 22  2  0
M  END
$$$$
