RSC.pdb
     RDKit          3D

 24 23  0  0  1  0  0  0  0  0999 V2000
   12.5066  -14.3767   20.8768 N   0  0  0  0  0  0  0  0  0  0  0  0
   11.6372  -14.0127   19.8392 C   0  0  0  0  0  0  0  0  0  0  0  0
   12.0164  -13.1456   18.9696 N   0  0  0  0  0  0  0  0  0  0  0  0
   10.3478  -14.5986   19.7506 N   0  0  0  0  0  0  0  0  0  0  0  0
    9.4149  -14.2088   18.7155 C   0  0  0  0  0  0  0  0  0  0  0  0
    8.3734  -13.2500   19.2898 C   0  0  0  0  0  0  0  0  0  0  0  0
    8.1656  -13.6003   20.7563 C   0  0  0  0  0  0  0  0  0  0  0  0
    7.6389  -15.0354   20.7990 C   0  0  2  0  0  0  0  0  0  0  0  0
    6.3338  -15.0672   20.1669 N   0  0  0  0  0  0  0  0  0  0  0  0
    7.5849  -15.4177   22.2192 C   0  0  0  0  0  0  0  0  0  0  0  0
    6.6039  -15.0261   22.8971 O   0  0  0  0  0  0  0  0  0  0  0  0
   11.4018  -12.8779   18.1727 O   0  0  0  0  0  0  0  0  0  0  0  0
   10.6804  -17.4921   24.0541 C   0  0  0  0  0  0  0  0  0  0  0  0
    9.3982  -17.7224   24.4761 C   0  0  1  0  0  0  0  0  0  0  0  0
    8.5252  -16.5042   24.2136 N   0  0  0  0  0  0  0  0  0  0  0  0
    8.6136  -16.2009   22.7841 C   0  0  0  0  0  0  0  0  0  0  0  0
    9.0207  -15.3586   25.0137 O   0  0  0  0  0  0  0  0  0  0  0  0
    9.9912  -14.6482   24.6368 N   0  0  0  0  0  0  0  0  0  0  0  0
    8.4078  -15.0307   26.2338 C   0  0  1  0  0  0  0  0  0  0  0  0
    9.0511  -14.0787   27.1265 C   0  0  0  0  0  0  0  0  0  0  0  0
    7.9747  -13.1368   27.6541 S   0  0  0  0  0  0  0  0  0  0  0  0
    6.9391  -12.5067   26.3324 C   0  0  0  0  0  0  0  0  0  0  0  0
    9.6996  -14.7728   28.2640 O   0  0  0  0  0  0  0  0  0  0  0  0
   10.4046  -14.0113   29.1820 O   0  0  0  0  0  0  0  0  0  0  0  0
  2  3  2  0
  2  1  1  0
  4  2  1  0
  5  4  1  0
  6  5  1  0
  7  6  1  0
  7  8  1  0
  8  9  1  1
  8 10  1  0
 10 15  1  0
 11 10  2  0
 13 12  1  0
 14 16  1  0
 14 13  1  6
 15 14  1  0
 16 17  2  0
 18 16  1  0
 18 19  1  0
 19 20  1  1
 20 21  1  0
 22 23  1  0
 22 19  1  0
 24 22  2  0
M  END
$$$$
