RSC.pdb
     RDKit          3D

 24 23  0  0  1  0  0  0  0  0999 V2000
    7.7464  -12.7967   15.5722 N   0  0  0  0  0  0  0  0  0  0  0  0
    8.4523  -13.7858   16.2709 C   0  0  0  0  0  0  0  0  0  0  0  0
    9.5989  -13.5061   16.7799 N   0  0  0  0  0  0  0  0  0  0  0  0
    7.9036  -15.0866   16.4148 N   0  0  0  0  0  0  0  0  0  0  0  0
    7.0878  -15.4357   17.5577 C   0  0  0  0  0  0  0  0  0  0  0  0
    7.7622  -14.9572   18.8422 C   0  0  0  0  0  0  0  0  0  0  0  0
    7.5326  -16.0097   19.9176 C   0  0  0  0  0  0  0  0  0  0  0  0
    8.6809  -17.0136   19.8076 C   0  0  2  0  0  0  0  0  0  0  0  0
    8.2600  -18.1043   18.9491 N   0  0  0  0  0  0  0  0  0  0  0  0
    8.9774  -17.4597   21.1785 C   0  0  0  0  0  0  0  0  0  0  0  0
    8.1577  -18.2285   21.7374 O   0  0  0  0  0  0  0  0  0  0  0  0
   10.1887  -14.2446   17.2170 O   0  0  0  0  0  0  0  0  0  0  0  0
   12.7123  -17.1768   22.7913 C   0  0  0  0  0  0  0  0  0  0  0  0
   11.7978  -18.1033   23.2162 C   0  0  1  0  0  0  0  0  0  0  0  0
   10.3940  -17.5170   23.1865 N   0  0  0  0  0  0  0  0  0  0  0  0
   10.1522  -17.0262   21.8286 C   0  0  0  0  0  0  0  0  0  0  0  0
   10.3025  -16.4024   24.1597 O   0  0  0  0  0  0  0  0  0  0  0  0
   10.8236  -15.2760   23.9393 N   0  0  0  0  0  0  0  0  0  0  0  0
    9.6188  -16.5781   25.3737 C   0  0  1  0  0  0  0  0  0  0  0  0
    9.7342  -15.5678   26.4145 C   0  0  0  0  0  0  0  0  0  0  0  0
    8.3237  -15.1889   26.8517 S   0  0  0  0  0  0  0  0  0  0  0  0
    7.3445  -14.5809   25.4777 C   0  0  0  0  0  0  0  0  0  0  0  0
   10.4879  -16.0896   27.5789 O   0  0  0  0  0  0  0  0  0  0  0  0
   11.0187  -17.3668   27.4985 O   0  0  0  0  0  0  0  0  0  0  0  0
  2  3  2  0
  2  1  1  0
  4  2  1  0
  5  4  1  0
  6  5  1  0
  7  6  1  0
  7  8  1  0
  8  9  1  6
  8 10  1  0
 10 15  1  0
 11 10  2  0
 13 12  1  0
 14 16  1  0
 14 13  1  6
 15 14  1  0
 16 17  2  0
 18 16  1  0
 18 19  1  0
 19 20  1  1
 20 21  1  0
 22 23  1  0
 22 19  1  0
 24 22  2  0
M  END
$$$$
