RSC.pdb
     RDKit          3D

 24 23  0  0  1  0  0  0  0  0999 V2000
   -5.4235  -26.7654   28.7593 N   0  0  0  0  0  0  0  0  0  0  0  0
   -4.0341  -26.5871   28.7083 C   0  0  0  0  0  0  0  0  0  0  0  0
   -3.4725  -25.7521   29.5078 N   0  0  0  0  0  0  0  0  0  0  0  0
   -3.2541  -27.3243   27.7799 N   0  0  0  0  0  0  0  0  0  0  0  0
   -3.6539  -27.4495   26.3949 C   0  0  0  0  0  0  0  0  0  0  0  0
   -3.5227  -26.0990   25.6928 C   0  0  0  0  0  0  0  0  0  0  0  0
   -4.0463  -26.2517   24.2718 C   0  0  0  0  0  0  0  0  0  0  0  0
   -4.0144  -24.8613   23.6359 C   0  0  2  0  0  0  0  0  0  0  0  0
   -2.6657  -24.3377   23.7379 N   0  0  0  0  0  0  0  0  0  0  0  0
   -4.9919  -24.0435   24.3722 C   0  0  0  0  0  0  0  0  0  0  0  0
   -4.5575  -23.1018   25.0792 O   0  0  0  0  0  0  0  0  0  0  0  0
   -2.4398  -25.6180   29.5081 O   0  0  0  0  0  0  0  0  0  0  0  0
   -9.0063  -25.0422   24.7390 C   0  0  0  0  0  0  0  0  0  0  0  0
   -8.6994  -23.7397   24.4480 C   0  0  1  0  0  0  0  0  0  0  0  0
   -7.2975  -23.4025   24.9338 N   0  0  0  0  0  0  0  0  0  0  0  0
   -6.3710  -24.3244   24.2742 C   0  0  0  0  0  0  0  0  0  0  0  0
   -7.2297  -23.5712   26.4052 O   0  0  0  0  0  0  0  0  0  0  0  0
   -6.6671  -24.5640   26.9406 N   0  0  0  0  0  0  0  0  0  0  0  0
   -7.8010  -22.6094   27.2541 C   0  0  1  0  0  0  0  0  0  0  0  0
   -7.7487  -22.8032   28.6953 C   0  0  0  0  0  0  0  0  0  0  0  0
   -6.6887  -21.8596   29.2521 S   0  0  0  0  0  0  0  0  0  0  0  0
   -6.7267  -21.8031   31.0443 C   0  0  0  0  0  0  0  0  0  0  0  0
   -9.0576  -22.4978   29.3194 O   0  0  0  0  0  0  0  0  0  0  0  0
   -9.4163  -23.1902   30.4646 O   0  0  0  0  0  0  0  0  0  0  0  0
  2  3  2  0
  2  1  1  0
  4  2  1  0
  5  4  1  0
  6  5  1  0
  7  6  1  0
  7  8  1  0
  8  9  1  1
  8 10  1  0
 10 15  1  0
 11 10  2  0
 13 12  1  0
 14 16  1  0
 14 13  1  6
 15 14  1  0
 16 17  2  0
 18 16  1  0
 18 19  1  0
 19 20  1  1
 20 21  1  0
 22 23  1  0
 22 19  1  0
 24 22  2  0
M  END
$$$$
