RSC.pdb
     RDKit          3D

 24 23  0  0  1  0  0  0  0  0999 V2000
    9.4945  -13.0644   14.7402 N   0  0  0  0  0  0  0  0  0  0  0  0
    8.2595  -13.7235   14.6683 C   0  0  0  0  0  0  0  0  0  0  0  0
    7.7995  -14.0846   13.5238 N   0  0  0  0  0  0  0  0  0  0  0  0
    7.5234  -13.9899   15.8520 N   0  0  0  0  0  0  0  0  0  0  0  0
    8.1704  -14.0332   17.1455 C   0  0  0  0  0  0  0  0  0  0  0  0
    7.1517  -14.3998   18.2233 C   0  0  0  0  0  0  0  0  0  0  0  0
    7.8564  -14.3647   19.5719 C   0  0  0  0  0  0  0  0  0  0  0  0
    8.1009  -15.8174   19.9823 C   0  0  2  0  0  0  0  0  0  0  0  0
    7.2108  -16.6694   19.2171 N   0  0  0  0  0  0  0  0  0  0  0  0
    7.8428  -15.8909   21.4295 C   0  0  0  0  0  0  0  0  0  0  0  0
    6.6481  -15.9007   21.8144 O   0  0  0  0  0  0  0  0  0  0  0  0
    6.8792  -14.5648   13.4404 O   0  0  0  0  0  0  0  0  0  0  0  0
   10.9248  -15.9163   24.1802 C   0  0  0  0  0  0  0  0  0  0  0  0
    9.8219  -16.6826   24.4477 C   0  0  1  0  0  0  0  0  0  0  0  0
    8.5936  -16.1045   23.7603 N   0  0  0  0  0  0  0  0  0  0  0  0
    8.9179  -15.9480   22.3412 C   0  0  0  0  0  0  0  0  0  0  0  0
    8.2637  -14.7895   24.3602 O   0  0  0  0  0  0  0  0  0  0  0  0
    8.6364  -13.7034   23.8401 N   0  0  0  0  0  0  0  0  0  0  0  0
    7.5127  -14.7212   25.5448 C   0  0  1  0  0  0  0  0  0  0  0  0
    7.3900  -13.4510   26.2439 C   0  0  0  0  0  0  0  0  0  0  0  0
    5.9349  -13.0065   26.1464 S   0  0  0  0  0  0  0  0  0  0  0  0
    5.6037  -11.5871   27.1914 C   0  0  0  0  0  0  0  0  0  0  0  0
    7.7681  -13.5917   27.6698 O   0  0  0  0  0  0  0  0  0  0  0  0
    8.1039  -12.4479   28.3759 O   0  0  0  0  0  0  0  0  0  0  0  0
  2  3  2  0
  2  1  1  0
  4  2  1  0
  5  4  1  0
  6  5  1  0
  7  6  1  0
  7  8  1  0
  8  9  1  6
  8 10  1  0
 10 15  1  0
 11 10  2  0
 13 12  1  0
 14 16  1  0
 14 13  1  6
 15 14  1  0
 16 17  2  0
 18 16  1  0
 18 19  1  0
 19 20  1  1
 20 21  1  0
 22 23  1  0
 22 19  1  0
 24 22  2  0
M  END
$$$$
