RSC.pdb
     RDKit          3D

 24 23  0  0  1  0  0  0  0  0999 V2000
    9.5292  -14.7269   16.4621 N   0  0  0  0  0  0  0  0  0  0  0  0
    8.4277  -13.8920   16.6956 C   0  0  0  0  0  0  0  0  0  0  0  0
    7.3681  -14.0261   15.9806 N   0  0  0  0  0  0  0  0  0  0  0  0
    8.4833  -12.9063   17.7149 N   0  0  0  0  0  0  0  0  0  0  0  0
    8.5325  -13.2737   19.1136 C   0  0  0  0  0  0  0  0  0  0  0  0
    7.2180  -13.9358   19.5228 C   0  0  0  0  0  0  0  0  0  0  0  0
    7.2928  -14.2577   21.0086 C   0  0  0  0  0  0  0  0  0  0  0  0
    8.0920  -15.5547   21.1414 C   0  0  2  0  0  0  0  0  0  0  0  0
    7.4424  -16.5807   20.3481 N   0  0  0  0  0  0  0  0  0  0  0  0
    8.1161  -15.8846   22.5756 C   0  0  0  0  0  0  0  0  0  0  0  0
    7.0526  -15.7494   23.2284 O   0  0  0  0  0  0  0  0  0  0  0  0
    6.5458  -13.4012   16.1141 O   0  0  0  0  0  0  0  0  0  0  0  0
   11.5368  -17.3096   24.4278 C   0  0  0  0  0  0  0  0  0  0  0  0
   10.3095  -17.6891   24.9020 C   0  0  1  0  0  0  0  0  0  0  0  0
    9.2736  -16.6112   24.6187 N   0  0  0  0  0  0  0  0  0  0  0  0
    9.3073  -16.3374   23.1809 C   0  0  0  0  0  0  0  0  0  0  0  0
    9.6117  -15.3867   25.3831 O   0  0  0  0  0  0  0  0  0  0  0  0
   10.3625  -14.4898   24.9136 N   0  0  0  0  0  0  0  0  0  0  0  0
    9.0925  -15.1929   26.6734 C   0  0  1  0  0  0  0  0  0  0  0  0
    9.5719  -14.0805   27.4797 C   0  0  0  0  0  0  0  0  0  0  0  0
    8.3597  -13.2600   27.9057 S   0  0  0  0  0  0  0  0  0  0  0  0
    7.2826  -12.8987   26.5180 C   0  0  0  0  0  0  0  0  0  0  0  0
   10.2859  -14.5670   28.6837 O   0  0  0  0  0  0  0  0  0  0  0  0
   10.8249  -13.6303   29.5506 O   0  0  0  0  0  0  0  0  0  0  0  0
  2  3  2  0
  2  1  1  0
  4  2  1  0
  5  4  1  0
  6  5  1  0
  7  6  1  0
  7  8  1  0
  8  9  1  6
  8 10  1  0
 10 15  1  0
 11 10  2  0
 13 12  1  0
 14 16  1  0
 14 13  1  6
 15 14  1  0
 16 17  2  0
 18 16  1  0
 18 19  1  0
 19 20  1  1
 20 21  1  0
 22 23  1  0
 22 19  1  0
 24 22  2  0
M  END
$$$$
