VRC.pdb
     RDKit          3D

 25 24  0  0  1  0  0  0  0  0999 V2000
    6.8259  -14.2611   18.5854 C   0  0  0  0  0  0  0  0  0  0  0  0
    7.8381  -13.3009   19.0884 C   0  0  2  0  0  0  0  0  0  0  0  0
    7.9876  -12.2053   18.0442 C   0  0  0  0  0  0  0  0  0  0  0  0
    9.1428  -13.8533   19.5324 C   0  0  2  0  0  0  0  0  0  0  0  0
    9.7678  -14.3849   18.2924 N   0  0  0  0  0  0  0  0  0  0  0  0
    9.1058  -14.9342   20.5145 C   0  0  0  0  0  0  0  0  0  0  0  0
    8.6228  -14.7119   21.6809 O   0  0  0  0  0  0  0  0  0  0  0  0
   14.3150  -19.7934   21.0604 N   0  0  0  0  0  0  0  0  0  0  0  0
   14.2861  -19.6822   19.6369 C   0  0  0  0  0  0  0  0  0  0  0  0
   15.3898  -19.5548   19.0015 N   0  0  0  0  0  0  0  0  0  0  0  0
   13.0665  -19.7100   18.9123 N   0  0  0  0  0  0  0  0  0  0  0  0
   11.7914  -19.8735   19.6213 C   0  0  0  0  0  0  0  0  0  0  0  0
   11.3793  -18.5184   20.2001 C   0  0  0  0  0  0  0  0  0  0  0  0
   10.0307  -18.5942   20.8399 C   0  0  0  0  0  0  0  0  0  0  0  0
    9.6049  -17.2582   21.4116 C   0  0  2  0  0  0  0  0  0  0  0  0
    9.5602  -16.2630   20.3175 N   0  0  0  0  0  0  0  0  0  0  0  0
   10.4190  -16.7753   22.5221 C   0  0  0  0  0  0  0  0  0  0  0  0
   11.6053  -16.4043   22.3719 O   0  0  0  0  0  0  0  0  0  0  0  0
   15.4512  -19.5335   17.9590 N   0  0  0  0  0  0  0  0  0  0  0  0
    9.9124  -16.6947   23.8551 C   0  0  1  0  0  0  0  0  0  0  0  0
   10.7570  -16.3539   24.9783 C   0  0  0  0  0  0  0  0  0  0  0  0
   10.1849  -15.1881   25.7663 S   0  0  0  0  0  0  0  0  0  0  0  0
    8.4040  -15.3476   26.0021 C   0  0  0  0  0  0  0  0  0  0  0  0
   11.0013  -17.5243   25.8568 O   0  0  0  0  0  0  0  0  0  0  0  0
   11.8204  -17.4893   26.8075 O   0  0  0  0  0  0  0  0  0  0  0  0
  2  1  1  6
  2  3  1  0
  4  2  1  0
  4  5  1  6
  6  4  1  0
  6 16  1  0
  7  6  2  0
  9  8  1  0
 10  9  2  0
 11  9  1  0
 12 11  1  0
 13 12  1  0
 13 14  1  0
 15 16  1  0
 15 14  1  6
 17 15  1  0
 18 17  2  0
 19 17  1  0
 20 19  1  0
 20 21  1  1
 22 21  1  0
 23 20  1  0
 23 25  1  0
 24 23  2  0
M  END
$$$$
