VRC.pdb
     RDKit          3D

 25 24  0  0  1  0  0  0  0  0999 V2000
   10.7437  -19.7461   17.3439 C   0  0  0  0  0  0  0  0  0  0  0  0
   11.8680  -20.1120   18.2393 C   0  0  2  0  0  0  0  0  0  0  0  0
   12.2003  -21.5736   17.9820 C   0  0  0  0  0  0  0  0  0  0  0  0
   11.7200  -19.8021   19.6838 C   0  0  2  0  0  0  0  0  0  0  0  0
   10.6189  -20.6872   20.1475 N   0  0  0  0  0  0  0  0  0  0  0  0
   11.3685  -18.4282   20.0348 C   0  0  0  0  0  0  0  0  0  0  0  0
   12.1941  -17.4807   19.7825 O   0  0  0  0  0  0  0  0  0  0  0  0
    8.1731  -11.8474   19.5861 N   0  0  0  0  0  0  0  0  0  0  0  0
    7.7615  -12.9392   18.7625 C   0  0  0  0  0  0  0  0  0  0  0  0
    7.9695  -12.8783   17.5011 N   0  0  0  0  0  0  0  0  0  0  0  0
    7.1295  -14.0866   19.3078 N   0  0  0  0  0  0  0  0  0  0  0  0
    6.9912  -14.2307   20.7623 C   0  0  0  0  0  0  0  0  0  0  0  0
    8.3002  -14.7911   21.3222 C   0  0  0  0  0  0  0  0  0  0  0  0
    8.6299  -16.1102   20.7017 C   0  0  0  0  0  0  0  0  0  0  0  0
    9.9773  -16.6257   21.1619 C   0  0  2  0  0  0  0  0  0  0  0  0
   10.1634  -18.0008   20.6479 N   0  0  0  0  0  0  0  0  0  0  0  0
   10.1974  -16.5742   22.6035 C   0  0  0  0  0  0  0  0  0  0  0  0
    9.2798  -16.7827   23.4295 O   0  0  0  0  0  0  0  0  0  0  0  0
    7.6875  -13.6337   16.8371 N   0  0  0  0  0  0  0  0  0  0  0  0
   11.4775  -16.2820   23.1654 C   0  0  1  0  0  0  0  0  0  0  0  0
   11.8893  -16.8027   24.4500 C   0  0  0  0  0  0  0  0  0  0  0  0
   11.6805  -18.3051   24.5300 S   0  0  0  0  0  0  0  0  0  0  0  0
   11.8463  -18.9161   26.2188 C   0  0  0  0  0  0  0  0  0  0  0  0
   13.2932  -16.4406   24.7650 O   0  0  0  0  0  0  0  0  0  0  0  0
   14.0908  -16.0246   23.8893 O   0  0  0  0  0  0  0  0  0  0  0  0
  2  1  1  6
  2  3  1  0
  4  2  1  0
  4  5  1  6
  6  4  1  0
  6 16  1  0
  7  6  2  0
  9  8  1  0
 10  9  2  0
 11  9  1  0
 12 11  1  0
 13 12  1  0
 13 14  1  0
 15 16  1  0
 15 14  1  1
 17 15  1  0
 18 17  2  0
 19 17  1  0
 20 19  1  0
 20 21  1  1
 22 21  1  0
 23 20  1  0
 23 25  1  0
 24 23  2  0
M  END
$$$$
