VRC.pdb
     RDKit          3D

 25 24  0  0  1  0  0  0  0  0999 V2000
    7.8918  -11.8837   26.9418 C   0  0  0  0  0  0  0  0  0  0  0  0
    7.0108  -11.8149   25.7507 C   0  0  2  0  0  0  0  0  0  0  0  0
    6.0762  -10.6304   25.9411 C   0  0  0  0  0  0  0  0  0  0  0  0
    6.2944  -13.0547   25.3581 C   0  0  2  0  0  0  0  0  0  0  0  0
    5.4524  -13.3917   26.5362 N   0  0  0  0  0  0  0  0  0  0  0  0
    7.1135  -14.2229   25.0439 C   0  0  0  0  0  0  0  0  0  0  0  0
    7.1860  -15.1882   25.8842 O   0  0  0  0  0  0  0  0  0  0  0  0
   11.3204  -19.5573   19.4528 N   0  0  0  0  0  0  0  0  0  0  0  0
    9.8934  -19.5178   19.4953 C   0  0  0  0  0  0  0  0  0  0  0  0
    9.2337  -20.5702   19.1868 N   0  0  0  0  0  0  0  0  0  0  0  0
    9.1918  -18.3429   19.8705 N   0  0  0  0  0  0  0  0  0  0  0  0
    9.9297  -17.1528   20.3116 C   0  0  0  0  0  0  0  0  0  0  0  0
    9.7381  -16.9935   21.8212 C   0  0  0  0  0  0  0  0  0  0  0  0
    8.9024  -15.7945   22.1340 C   0  0  0  0  0  0  0  0  0  0  0  0
    8.6587  -15.6529   23.6218 C   0  0  2  0  0  0  0  0  0  0  0  0
    7.8705  -14.4238   23.8617 N   0  0  0  0  0  0  0  0  0  0  0  0
    9.8614  -15.6700   24.4478 C   0  0  0  0  0  0  0  0  0  0  0  0
   10.9847  -15.3413   24.0030 O   0  0  0  0  0  0  0  0  0  0  0  0
    8.1899  -20.6089   19.1754 N   0  0  0  0  0  0  0  0  0  0  0  0
    9.8335  -16.0637   25.8204 C   0  0  2  0  0  0  0  0  0  0  0  0
   11.0431  -16.2571   26.5887 C   0  0  0  0  0  0  0  0  0  0  0  0
   10.7810  -16.1130   28.0779 S   0  0  0  0  0  0  0  0  0  0  0  0
   10.4030  -14.4086   28.5305 C   0  0  0  0  0  0  0  0  0  0  0  0
   11.6862  -17.5586   26.2825 O   0  0  0  0  0  0  0  0  0  0  0  0
   11.1003  -18.4595   25.6336 O   0  0  0  0  0  0  0  0  0  0  0  0
  2  1  1  1
  2  3  1  0
  4  2  1  0
  4  5  1  1
  6  4  1  0
  6 16  1  0
  7  6  2  0
  9  8  1  0
 10  9  2  0
 11  9  1  0
 12 11  1  0
 13 12  1  0
 13 14  1  0
 15 16  1  0
 15 14  1  6
 17 15  1  0
 18 17  2  0
 19 17  1  0
 20 19  1  0
 20 21  1  6
 22 21  1  0
 23 20  1  0
 23 25  1  0
 24 23  2  0
M  END
$$$$
