VRC.pdb
     RDKit          3D

 25 24  0  0  1  0  0  0  0  0999 V2000
    7.5149  -20.8401   24.6876 C   0  0  0  0  0  0  0  0  0  0  0  0
    6.1123  -20.6293   24.2541 C   0  0  2  0  0  0  0  0  0  0  0  0
    5.3623  -21.9323   24.4831 C   0  0  0  0  0  0  0  0  0  0  0  0
    5.8934  -20.0715   22.8956 C   0  0  2  0  0  0  0  0  0  0  0  0
    6.2833  -21.1687   21.9711 N   0  0  0  0  0  0  0  0  0  0  0  0
    6.6650  -18.8850   22.5335 C   0  0  0  0  0  0  0  0  0  0  0  0
    7.9026  -19.0068   22.2225 O   0  0  0  0  0  0  0  0  0  0  0  0
    8.0676  -12.1325   18.3237 N   0  0  0  0  0  0  0  0  0  0  0  0
    7.9808  -13.5580   18.3108 C   0  0  0  0  0  0  0  0  0  0  0  0
    8.3100  -14.1905   17.2480 N   0  0  0  0  0  0  0  0  0  0  0  0
    7.5398  -14.2876   19.4451 N   0  0  0  0  0  0  0  0  0  0  0  0
    8.1813  -14.0811   20.7494 C   0  0  0  0  0  0  0  0  0  0  0  0
    7.0895  -13.9506   21.8134 C   0  0  0  0  0  0  0  0  0  0  0  0
    6.2612  -15.1924   21.8895 C   0  0  0  0  0  0  0  0  0  0  0  0
    7.0794  -16.3862   22.3350 C   0  0  2  0  0  0  0  0  0  0  0  0
    6.1811  -17.5530   22.4808 N   0  0  0  0  0  0  0  0  0  0  0  0
    7.8639  -16.1780   23.5475 C   0  0  0  0  0  0  0  0  0  0  0  0
    7.3350  -15.9114   24.6506 O   0  0  0  0  0  0  0  0  0  0  0  0
    8.2920  -15.2321   17.1728 N   0  0  0  0  0  0  0  0  0  0  0  0
    9.2894  -16.2657   23.5530 C   0  0  2  0  0  0  0  0  0  0  0  0
   10.0570  -16.2198   24.7777 C   0  0  0  0  0  0  0  0  0  0  0  0
    9.5605  -17.2475   25.7800 S   0  0  0  0  0  0  0  0  0  0  0  0
   10.5599  -17.2572   27.2813 C   0  0  0  0  0  0  0  0  0  0  0  0
   11.5095  -16.3809   24.5219 O   0  0  0  0  0  0  0  0  0  0  0  0
   11.9619  -16.6763   23.3888 O   0  0  0  0  0  0  0  0  0  0  0  0
  2  1  1  6
  2  3  1  0
  4  2  1  0
  4  5  1  6
  6  4  1  0
  6 16  1  0
  7  6  2  0
  9  8  1  0
 10  9  2  0
 11  9  1  0
 12 11  1  0
 13 12  1  0
 13 14  1  0
 15 16  1  0
 15 14  1  1
 17 15  1  0
 18 17  2  0
 19 17  1  0
 20 19  1  0
 20 21  1  6
 22 21  1  0
 23 20  1  0
 23 25  1  0
 24 23  2  0
M  END
$$$$
