VRC.pdb
     RDKit          3D

 25 24  0  0  1  0  0  0  0  0999 V2000
    7.9411  -12.8865   27.2922 C   0  0  0  0  0  0  0  0  0  0  0  0
    6.7849  -12.3158   26.5593 C   0  0  2  0  0  0  0  0  0  0  0  0
    5.9649  -11.5102   27.5551 C   0  0  0  0  0  0  0  0  0  0  0  0
    5.9567  -13.2498   25.7555 C   0  0  2  0  0  0  0  0  0  0  0  0
    5.4970  -14.2767   26.7276 N   0  0  0  0  0  0  0  0  0  0  0  0
    6.6187  -13.9419   24.6523 C   0  0  0  0  0  0  0  0  0  0  0  0
    7.1064  -15.1120   24.8423 O   0  0  0  0  0  0  0  0  0  0  0  0
    9.9608  -15.3814   17.6529 N   0  0  0  0  0  0  0  0  0  0  0  0
    8.7223  -14.9804   17.0656 C   0  0  0  0  0  0  0  0  0  0  0  0
    8.2764  -15.6266   16.0549 N   0  0  0  0  0  0  0  0  0  0  0  0
    7.9764  -13.8860   17.5748 N   0  0  0  0  0  0  0  0  0  0  0  0
    8.4834  -13.1163   18.7175 C   0  0  0  0  0  0  0  0  0  0  0  0
    8.4079  -13.9949   19.9678 C   0  0  0  0  0  0  0  0  0  0  0  0
    7.6593  -13.3079   21.0639 C   0  0  0  0  0  0  0  0  0  0  0  0
    7.6257  -14.1406   22.3282 C   0  0  2  0  0  0  0  0  0  0  0  0
    6.7899  -13.4482   23.3340 N   0  0  0  0  0  0  0  0  0  0  0  0
    8.9341  -14.4763   22.8801 C   0  0  0  0  0  0  0  0  0  0  0  0
    9.5210  -13.7422   23.7075 O   0  0  0  0  0  0  0  0  0  0  0  0
    7.3967  -15.3698   15.5537 N   0  0  0  0  0  0  0  0  0  0  0  0
    9.6303  -15.6673   22.5107 C   0  0  2  0  0  0  0  0  0  0  0  0
   10.5295  -16.3443   23.4185 C   0  0  0  0  0  0  0  0  0  0  0  0
    9.8269  -16.7264   24.7099 S   0  0  0  0  0  0  0  0  0  0  0  0
   10.4553  -15.7903   26.1176 C   0  0  0  0  0  0  0  0  0  0  0  0
   11.1629  -17.5266   22.7845 O   0  0  0  0  0  0  0  0  0  0  0  0
   10.6138  -18.1611   21.8507 O   0  0  0  0  0  0  0  0  0  0  0  0
  2  1  1  1
  2  3  1  0
  4  2  1  0
  4  5  1  1
  6  4  1  0
  6 16  1  0
  7  6  2  0
  9  8  1  0
 10  9  2  0
 11  9  1  0
 12 11  1  0
 13 12  1  0
 13 14  1  0
 15 16  1  0
 15 14  1  6
 17 15  1  0
 18 17  2  0
 19 17  1  0
 20 19  1  0
 20 21  1  1
 22 21  1  0
 23 20  1  0
 23 25  1  0
 24 23  2  0
M  END
$$$$
