VRC.pdb
     RDKit          3D

 25 24  0  0  1  0  0  0  0  0999 V2000
    7.3913  -12.3963   18.5493 C   0  0  0  0  0  0  0  0  0  0  0  0
    7.7372  -13.4656   19.5170 C   0  0  2  0  0  0  0  0  0  0  0  0
    8.4293  -12.8057   20.6996 C   0  0  0  0  0  0  0  0  0  0  0  0
    8.4811  -14.6416   18.9990 C   0  0  2  0  0  0  0  0  0  0  0  0
    7.5795  -15.2368   17.9774 N   0  0  0  0  0  0  0  0  0  0  0  0
    8.8210  -15.6876   19.9606 C   0  0  0  0  0  0  0  0  0  0  0  0
    7.9206  -16.5206   20.3325 O   0  0  0  0  0  0  0  0  0  0  0  0
   15.3063  -21.5607   21.2662 N   0  0  0  0  0  0  0  0  0  0  0  0
   14.1792  -21.8957   22.0769 C   0  0  0  0  0  0  0  0  0  0  0  0
   14.1176  -23.0605   22.6035 N   0  0  0  0  0  0  0  0  0  0  0  0
   13.1294  -20.9705   22.3119 N   0  0  0  0  0  0  0  0  0  0  0  0
   12.9809  -19.7901   21.4517 C   0  0  0  0  0  0  0  0  0  0  0  0
   11.7768  -18.9815   21.9389 C   0  0  0  0  0  0  0  0  0  0  0  0
   11.5138  -17.8148   21.0425 C   0  0  0  0  0  0  0  0  0  0  0  0
   10.3411  -16.9882   21.5267 C   0  0  2  0  0  0  0  0  0  0  0  0
   10.0905  -15.9001   20.5557 N   0  0  0  0  0  0  0  0  0  0  0  0
   10.4772  -16.4582   22.8793 C   0  0  0  0  0  0  0  0  0  0  0  0
   11.2973  -15.5567   23.1667 O   0  0  0  0  0  0  0  0  0  0  0  0
   13.3338  -23.3689   23.2213 N   0  0  0  0  0  0  0  0  0  0  0  0
    9.6810  -16.9354   23.9647 C   0  0  2  0  0  0  0  0  0  0  0  0
    9.9468  -16.5596   25.3355 C   0  0  0  0  0  0  0  0  0  0  0  0
    8.8464  -15.6702   25.8881 S   0  0  0  0  0  0  0  0  0  0  0  0
    7.2709  -15.9592   25.0592 C   0  0  0  0  0  0  0  0  0  0  0  0
   10.1588  -17.7469   26.1995 O   0  0  0  0  0  0  0  0  0  0  0  0
    9.9547  -18.9169   25.7926 O   0  0  0  0  0  0  0  0  0  0  0  0
  2  1  1  6
  2  3  1  0
  4  2  1  0
  4  5  1  6
  6  4  1  0
  6 16  1  0
  7  6  2  0
  9  8  1  0
 10  9  2  0
 11  9  1  0
 12 11  1  0
 13 12  1  0
 13 14  1  0
 15 16  1  0
 15 14  1  6
 17 15  1  0
 18 17  2  0
 19 17  1  0
 20 19  1  0
 20 21  1  6
 22 21  1  0
 23 20  1  0
 23 25  1  0
 24 23  2  0
M  END
$$$$
