VRC.pdb
     RDKit          3D

 25 24  0  0  1  0  0  0  0  0999 V2000
    8.0642  -20.3748   24.6885 C   0  0  0  0  0  0  0  0  0  0  0  0
    6.6215  -20.0468   24.5853 C   0  0  2  0  0  0  0  0  0  0  0  0
    5.8406  -21.2767   25.0215 C   0  0  0  0  0  0  0  0  0  0  0  0
    6.1385  -19.4863   23.2979 C   0  0  2  0  0  0  0  0  0  0  0  0
    6.1483  -20.6389   22.3587 N   0  0  0  0  0  0  0  0  0  0  0  0
    6.9328  -18.4152   22.7012 C   0  0  0  0  0  0  0  0  0  0  0  0
    8.0052  -18.7052   22.0615 O   0  0  0  0  0  0  0  0  0  0  0  0
    7.0502  -12.6946   17.0618 N   0  0  0  0  0  0  0  0  0  0  0  0
    7.6643  -13.9062   17.5030 C   0  0  0  0  0  0  0  0  0  0  0  0
    8.0925  -14.7388   16.6305 N   0  0  0  0  0  0  0  0  0  0  0  0
    7.8108  -14.2077   18.8818 N   0  0  0  0  0  0  0  0  0  0  0  0
    7.3663  -13.2459   19.8980 C   0  0  0  0  0  0  0  0  0  0  0  0
    7.8046  -13.7537   21.2731 C   0  0  0  0  0  0  0  0  0  0  0  0
    6.8718  -14.8053   21.7808 C   0  0  0  0  0  0  0  0  0  0  0  0
    7.6203  -15.9959   22.3423 C   0  0  2  0  0  0  0  0  0  0  0  0
    6.6406  -17.0284   22.7469 N   0  0  0  0  0  0  0  0  0  0  0  0
    8.5352  -15.6886   23.4367 C   0  0  0  0  0  0  0  0  0  0  0  0
    8.1853  -15.0181   24.4346 O   0  0  0  0  0  0  0  0  0  0  0  0
    8.5687  -15.6346   16.8790 N   0  0  0  0  0  0  0  0  0  0  0  0
    9.8919  -16.1347   23.4392 C   0  0  2  0  0  0  0  0  0  0  0  0
   10.7906  -15.8544   24.5368 C   0  0  0  0  0  0  0  0  0  0  0  0
   10.2463  -16.3938   25.8483 S   0  0  0  0  0  0  0  0  0  0  0  0
   10.6310  -18.1424   26.0656 C   0  0  0  0  0  0  0  0  0  0  0  0
   12.1570  -16.3690   24.2732 O   0  0  0  0  0  0  0  0  0  0  0  0
   12.4140  -17.1212   23.3015 O   0  0  0  0  0  0  0  0  0  0  0  0
  2  1  1  6
  2  3  1  0
  4  2  1  0
  4  5  1  6
  6  4  1  0
  6 16  1  0
  7  6  2  0
  9  8  1  0
 10  9  2  0
 11  9  1  0
 12 11  1  0
 13 12  1  0
 13 14  1  0
 15 16  1  0
 15 14  1  1
 17 15  1  0
 18 17  2  0
 19 17  1  0
 20 19  1  0
 20 21  1  1
 22 21  1  0
 23 20  1  0
 23 25  1  0
 24 23  2  0
M  END
$$$$
