VRC.pdb
     RDKit          3D

 25 24  0  0  1  0  0  0  0  0999 V2000
    6.8793  -14.4960   19.7530 C   0  0  0  0  0  0  0  0  0  0  0  0
    7.7809  -13.3731   20.1078 C   0  0  2  0  0  0  0  0  0  0  0  0
    7.9876  -12.5387   18.8532 C   0  0  0  0  0  0  0  0  0  0  0  0
    9.0558  -13.7097   20.7904 C   0  0  2  0  0  0  0  0  0  0  0  0
    9.8389  -14.4621   19.7748 N   0  0  0  0  0  0  0  0  0  0  0  0
    8.9670  -14.5374   21.9910 C   0  0  0  0  0  0  0  0  0  0  0  0
    8.2612  -14.1371   22.9834 O   0  0  0  0  0  0  0  0  0  0  0  0
   10.1361  -18.7164   19.0303 N   0  0  0  0  0  0  0  0  0  0  0  0
    9.1721  -19.7616   19.1647 C   0  0  0  0  0  0  0  0  0  0  0  0
    8.4569  -20.0806   18.1524 N   0  0  0  0  0  0  0  0  0  0  0  0
    8.9892  -20.4530   20.3902 N   0  0  0  0  0  0  0  0  0  0  0  0
    9.6554  -19.9801   21.6100 C   0  0  0  0  0  0  0  0  0  0  0  0
    9.1818  -18.5547   21.9015 C   0  0  0  0  0  0  0  0  0  0  0  0
    9.8139  -18.0218   23.1466 C   0  0  0  0  0  0  0  0  0  0  0  0
    9.3945  -16.5929   23.4216 C   0  0  2  0  0  0  0  0  0  0  0  0
    9.5974  -15.7912   22.1946 N   0  0  0  0  0  0  0  0  0  0  0  0
   10.0487  -15.9680   24.5664 C   0  0  0  0  0  0  0  0  0  0  0  0
   11.2468  -15.6054   24.5382 O   0  0  0  0  0  0  0  0  0  0  0  0
    7.6924  -20.7911   18.1924 N   0  0  0  0  0  0  0  0  0  0  0  0
    9.3616  -15.7292   25.7955 C   0  0  1  0  0  0  0  0  0  0  0  0
   10.0317  -15.1896   26.9577 C   0  0  0  0  0  0  0  0  0  0  0  0
    9.2318  -14.0591   27.5818 S   0  0  0  0  0  0  0  0  0  0  0  0
   10.0626  -13.3670   29.0252 C   0  0  0  0  0  0  0  0  0  0  0  0
   10.3351  -16.2443   27.9560 O   0  0  0  0  0  0  0  0  0  0  0  0
    9.7142  -17.3349   27.9885 O   0  0  0  0  0  0  0  0  0  0  0  0
  2  1  1  6
  2  3  1  0
  4  2  1  0
  4  5  1  6
  6  4  1  0
  6 16  1  0
  7  6  2  0
  9  8  1  0
 10  9  2  0
 11  9  1  0
 12 11  1  0
 13 12  1  0
 13 14  1  0
 15 16  1  0
 15 14  1  6
 17 15  1  0
 18 17  2  0
 19 17  1  0
 20 19  1  0
 20 21  1  6
 22 21  1  0
 23 20  1  0
 23 25  1  0
 24 23  2  0
M  END
$$$$
