VRC.pdb
     RDKit          3D

 25 24  0  0  1  0  0  0  0  0999 V2000
    8.4659  -13.0389   17.8854 C   0  0  0  0  0  0  0  0  0  0  0  0
    7.8815  -13.4685   19.1790 C   0  0  2  0  0  0  0  0  0  0  0  0
    7.1491  -12.2736   19.7694 C   0  0  0  0  0  0  0  0  0  0  0  0
    8.7884  -14.1255   20.1540 C   0  0  2  0  0  0  0  0  0  0  0  0
    9.1981  -15.3923   19.4922 N   0  0  0  0  0  0  0  0  0  0  0  0
    8.2262  -14.4634   21.4594 C   0  0  0  0  0  0  0  0  0  0  0  0
    7.7700  -13.5309   22.2114 O   0  0  0  0  0  0  0  0  0  0  0  0
    9.5809  -19.6765   27.3118 N   0  0  0  0  0  0  0  0  0  0  0  0
    8.2160  -19.7407   27.7272 C   0  0  0  0  0  0  0  0  0  0  0  0
    7.9502  -20.0454   28.9415 N   0  0  0  0  0  0  0  0  0  0  0  0
    7.1506  -19.4754   26.8283 N   0  0  0  0  0  0  0  0  0  0  0  0
    7.4245  -19.2712   25.4004 C   0  0  0  0  0  0  0  0  0  0  0  0
    7.2401  -17.7872   25.0771 C   0  0  0  0  0  0  0  0  0  0  0  0
    7.6607  -17.4857   23.6749 C   0  0  0  0  0  0  0  0  0  0  0  0
    7.5614  -16.0068   23.3648 C   0  0  2  0  0  0  0  0  0  0  0  0
    8.1189  -15.7633   22.0160 N   0  0  0  0  0  0  0  0  0  0  0  0
    8.1803  -15.1273   24.3510 C   0  0  0  0  0  0  0  0  0  0  0  0
    9.4223  -15.0318   24.4782 O   0  0  0  0  0  0  0  0  0  0  0  0
    6.9784  -20.0866   29.3220 N   0  0  0  0  0  0  0  0  0  0  0  0
    7.4063  -14.3169   25.2363 C   0  0  2  0  0  0  0  0  0  0  0  0
    8.0182  -13.3843   26.1566 C   0  0  0  0  0  0  0  0  0  0  0  0
    7.1662  -12.1386   26.3292 S   0  0  0  0  0  0  0  0  0  0  0  0
    5.4995  -12.5386   26.8903 C   0  0  0  0  0  0  0  0  0  0  0  0
    8.3115  -14.0170   27.4661 O   0  0  0  0  0  0  0  0  0  0  0  0
    7.8726  -15.1518   27.7754 O   0  0  0  0  0  0  0  0  0  0  0  0
  2  1  1  6
  2  3  1  0
  4  2  1  0
  4  5  1  6
  6  4  1  0
  6 16  1  0
  7  6  2  0
  9  8  1  0
 10  9  2  0
 11  9  1  0
 12 11  1  0
 13 12  1  0
 13 14  1  0
 15 16  1  0
 15 14  1  1
 17 15  1  0
 18 17  2  0
 19 17  1  0
 20 19  1  0
 20 21  1  6
 22 21  1  0
 23 20  1  0
 23 25  1  0
 24 23  2  0
M  END
$$$$
