MID.pdb
     RDKit          3D

 25 24  0  0  1  0  0  0  0  0999 V2000
   17.4148  -19.4415  -14.3850 C   0  0  0  0  0  0  0  0  0  0  0  0
   18.5522  -18.5814  -15.4856 S   0  0  0  0  0  0  0  0  0  0  0  0
   20.2815  -18.8651  -15.0580 C   0  0  0  0  0  0  0  0  0  0  0  0
   20.4805  -19.7631  -13.8815 C   0  0  0  0  0  0  0  0  0  0  0  0
   21.9137  -19.9220  -13.4465 C   0  0  2  0  0  0  0  0  0  0  0  0
   22.7580  -20.3174  -14.5391 N   0  0  0  0  0  0  0  0  0  0  0  0
   22.0521  -20.7417  -12.2274 C   0  0  0  0  0  0  0  0  0  0  0  0
   22.1510  -21.9800  -12.4042 O   0  0  0  0  0  0  0  0  0  0  0  0
   25.1030  -21.3207   -9.0984 C   0  0  0  0  0  0  0  0  0  0  0  0
   24.3211  -20.0329   -9.0186 C   0  0  0  0  0  0  0  0  0  0  0  0
   22.8750  -20.3127   -8.6104 C   0  0  2  0  0  0  0  0  0  0  0  0
   22.9039  -21.0724   -7.3063 C   0  0  0  0  0  0  0  0  0  0  0  0
   22.1582  -21.0735   -9.7010 C   0  0  2  0  0  0  0  0  0  0  0  0
   22.0797  -20.2438  -10.9061 N   0  0  0  0  0  0  0  0  0  0  0  0
   20.8186  -21.4603   -9.2439 C   0  0  0  0  0  0  0  0  0  0  0  0
   19.9801  -20.5259   -8.9643 O   0  0  0  0  0  0  0  0  0  0  0  0
   20.3087  -22.7579   -9.0696 N   0  0  0  0  0  0  0  0  0  0  0  0
   18.9528  -23.0112   -8.5480 C   0  0  1  0  0  0  0  0  0  0  0  0
   18.5255  -24.2890   -9.3010 C   0  0  0  0  0  0  0  0  0  0  0  0
   17.1799  -24.7107   -8.8898 C   0  0  0  0  0  0  0  0  0  0  0  0
   16.3799  -23.8132   -8.4920 O   0  0  0  0  0  0  0  0  0  0  0  0
   19.0118  -23.4094   -7.1213 C   0  0  0  0  0  0  0  0  0  0  0  0
   17.8361  -23.4097   -6.3940 O   0  0  0  0  0  0  0  0  0  0  0  0
   16.7703  -26.0281   -8.9260 O   0  0  0  0  0  0  0  0  0  0  0  0
   20.0950  -23.7427   -6.5650 O   0  0  0  0  0  0  0  0  0  0  0  0
  2  3  1  0
  2  1  1  0
  4  5  1  0
  4  3  1  0
  5  7  1  0
  5  6  1  6
  7 14  1  0
  8  7  2  0
 10  9  1  0
 11 12  1  1
 11 13  1  0
 11 10  1  0
 13 14  1  6
 15 17  1  0
 15 13  1  0
 16 15  2  0
 18 17  1  0
 18 19  1  6
 19 20  1  0
 20 24  1  0
 21 20  2  0
 22 18  1  0
 23 22  1  0
 25 22  2  0
M  END
$$$$
