MID.pdb
     RDKit          3D

 25 24  0  0  1  0  0  0  0  0999 V2000
   26.6557  -15.8070  -14.4896 C   0  0  0  0  0  0  0  0  0  0  0  0
   28.0985  -16.0971  -15.5283 S   0  0  0  0  0  0  0  0  0  0  0  0
   28.2031  -17.8002  -16.1131 C   0  0  0  0  0  0  0  0  0  0  0  0
   27.2016  -18.7204  -15.4965 C   0  0  0  0  0  0  0  0  0  0  0  0
   27.7940  -19.8419  -14.6841 C   0  0  2  0  0  0  0  0  0  0  0  0
   28.6231  -20.6968  -15.4870 N   0  0  0  0  0  0  0  0  0  0  0  0
   26.7887  -20.5448  -13.8640 C   0  0  0  0  0  0  0  0  0  0  0  0
   26.2438  -21.5423  -14.3953 O   0  0  0  0  0  0  0  0  0  0  0  0
   26.9847  -20.0860   -8.4815 C   0  0  0  0  0  0  0  0  0  0  0  0
   26.6577  -20.8829   -9.7200 C   0  0  0  0  0  0  0  0  0  0  0  0
   25.3708  -20.3651  -10.3617 C   0  0  2  0  0  0  0  0  0  0  0  0
   24.2098  -20.8893   -9.5518 C   0  0  0  0  0  0  0  0  0  0  0  0
   25.2972  -20.7892  -11.8097 C   0  0  2  0  0  0  0  0  0  0  0  0
   26.4039  -20.1829  -12.5542 N   0  0  0  0  0  0  0  0  0  0  0  0
   24.0044  -20.3955  -12.3814 C   0  0  0  0  0  0  0  0  0  0  0  0
   23.7631  -19.1407  -12.5280 O   0  0  0  0  0  0  0  0  0  0  0  0
   22.9608  -21.2329  -12.8101 N   0  0  0  0  0  0  0  0  0  0  0  0
   21.7155  -20.7062  -13.3991 C   0  0  1  0  0  0  0  0  0  0  0  0
   21.6200  -21.4635  -14.7407 C   0  0  0  0  0  0  0  0  0  0  0  0
   20.4034  -21.0808  -15.4694 C   0  0  0  0  0  0  0  0  0  0  0  0
   20.1017  -19.8514  -15.5025 O   0  0  0  0  0  0  0  0  0  0  0  0
   20.5399  -21.1604  -12.6186 C   0  0  0  0  0  0  0  0  0  0  0  0
   19.3200  -20.5585  -12.8650 O   0  0  0  0  0  0  0  0  0  0  0  0
   19.5984  -22.0024  -16.1074 O   0  0  0  0  0  0  0  0  0  0  0  0
   20.6272  -22.0704  -11.7478 O   0  0  0  0  0  0  0  0  0  0  0  0
  2  3  1  0
  2  1  1  0
  4  5  1  0
  4  3  1  0
  5  7  1  0
  5  6  1  6
  7 14  1  0
  8  7  2  0
 10  9  1  0
 11 12  1  1
 11 13  1  0
 11 10  1  0
 13 14  1  6
 15 17  1  0
 15 13  1  0
 16 15  2  0
 18 17  1  0
 18 19  1  6
 19 20  1  0
 20 24  1  0
 21 20  2  0
 22 18  1  0
 23 22  1  0
 25 22  2  0
M  END
$$$$
