MID.pdb
     RDKit          3D

 25 24  0  0  1  0  0  0  0  0999 V2000
   20.3099  -24.6105  -13.5045 C   0  0  0  0  0  0  0  0  0  0  0  0
   18.6579  -24.1135  -12.9862 S   0  0  0  0  0  0  0  0  0  0  0  0
   18.5356  -22.3444  -12.6560 C   0  0  0  0  0  0  0  0  0  0  0  0
   19.7943  -21.5854  -12.9197 C   0  0  0  0  0  0  0  0  0  0  0  0
   20.7234  -21.4781  -11.7391 C   0  0  2  0  0  0  0  0  0  0  0  0
   20.0412  -20.9970  -10.5703 N   0  0  0  0  0  0  0  0  0  0  0  0
   21.9763  -20.7687  -12.0620 C   0  0  0  0  0  0  0  0  0  0  0  0
   21.9606  -19.5237  -11.9066 O   0  0  0  0  0  0  0  0  0  0  0  0
   25.9009  -20.4478  -10.4277 C   0  0  0  0  0  0  0  0  0  0  0  0
   25.7377  -21.7536  -11.1655 C   0  0  0  0  0  0  0  0  0  0  0  0
   25.5876  -21.5022  -12.6656 C   0  0  2  0  0  0  0  0  0  0  0  0
   26.8598  -20.8517  -13.1525 C   0  0  0  0  0  0  0  0  0  0  0  0
   24.3689  -20.6519  -12.9373 C   0  0  2  0  0  0  0  0  0  0  0  0
   23.1645  -21.3766  -12.5239 N   0  0  0  0  0  0  0  0  0  0  0  0
   24.3079  -20.3054  -14.3618 C   0  0  0  0  0  0  0  0  0  0  0  0
   24.2213  -21.2633  -15.2157 O   0  0  0  0  0  0  0  0  0  0  0  0
   24.3266  -19.0243  -14.9388 N   0  0  0  0  0  0  0  0  0  0  0  0
   24.1712  -18.8081  -16.3893 C   0  0  1  0  0  0  0  0  0  0  0  0
   23.5891  -17.3806  -16.4658 C   0  0  0  0  0  0  0  0  0  0  0  0
   22.5286  -17.3042  -17.4793 C   0  0  0  0  0  0  0  0  0  0  0  0
   22.2773  -18.3513  -18.1456 O   0  0  0  0  0  0  0  0  0  0  0  0
   25.4974  -18.7163  -17.0450 C   0  0  0  0  0  0  0  0  0  0  0  0
   25.6279  -19.2149  -18.3278 O   0  0  0  0  0  0  0  0  0  0  0  0
   21.8119  -16.1495  -17.7194 O   0  0  0  0  0  0  0  0  0  0  0  0
   26.4944  -18.2009  -16.4667 O   0  0  0  0  0  0  0  0  0  0  0  0
  2  3  1  0
  2  1  1  0
  4  5  1  0
  4  3  1  0
  5  7  1  0
  5  6  1  1
  7 14  1  0
  8  7  2  0
 10  9  1  0
 11 12  1  1
 11 13  1  0
 11 10  1  0
 13 14  1  6
 15 17  1  0
 15 13  1  0
 16 15  2  0
 18 17  1  0
 18 19  1  1
 19 20  1  0
 20 24  1  0
 21 20  2  0
 22 18  1  0
 23 22  1  0
 25 22  2  0
M  END
$$$$
