MID.pdb
     RDKit          3D

 25 24  0  0  1  0  0  0  0  0999 V2000
   18.2148  -13.2593  -21.8799 C   0  0  0  0  0  0  0  0  0  0  0  0
   18.8671  -12.1903  -20.5851 S   0  0  0  0  0  0  0  0  0  0  0  0
   19.0684  -13.0480  -19.0111 C   0  0  0  0  0  0  0  0  0  0  0  0
   19.6824  -12.2141  -17.9352 C   0  0  0  0  0  0  0  0  0  0  0  0
   21.0361  -12.6835  -17.4706 C   0  0  2  0  0  0  0  0  0  0  0  0
   21.0234  -14.0775  -17.1250 N   0  0  0  0  0  0  0  0  0  0  0  0
   21.6280  -11.7969  -16.4505 C   0  0  0  0  0  0  0  0  0  0  0  0
   21.0647  -11.7937  -15.3293 O   0  0  0  0  0  0  0  0  0  0  0  0
   26.8785  -11.3936  -15.5799 C   0  0  0  0  0  0  0  0  0  0  0  0
   25.3765  -11.4063  -15.4392 C   0  0  0  0  0  0  0  0  0  0  0  0
   24.8025  -10.0210  -15.7349 C   0  0  2  0  0  0  0  0  0  0  0  0
   25.4219   -9.0488  -14.7603 C   0  0  0  0  0  0  0  0  0  0  0  0
   23.2950  -10.0449  -15.6407 C   0  0  2  0  0  0  0  0  0  0  0  0
   22.7566  -10.9696  -16.6415 N   0  0  0  0  0  0  0  0  0  0  0  0
   22.7598   -8.6927  -15.8362 C   0  0  0  0  0  0  0  0  0  0  0  0
   22.9783   -8.1111  -16.9624 O   0  0  0  0  0  0  0  0  0  0  0  0
   22.0106   -7.9230  -14.9304 N   0  0  0  0  0  0  0  0  0  0  0  0
   21.5639   -6.5517  -15.2387 C   0  0  1  0  0  0  0  0  0  0  0  0
   20.0507   -6.6052  -14.9388 C   0  0  0  0  0  0  0  0  0  0  0  0
   19.4291   -5.2930  -15.1605 C   0  0  0  0  0  0  0  0  0  0  0  0
   20.0926   -4.4316  -15.8095 O   0  0  0  0  0  0  0  0  0  0  0  0
   22.1158   -5.5924  -14.2525 C   0  0  0  0  0  0  0  0  0  0  0  0
   22.6761   -6.0965  -13.0936 O   0  0  0  0  0  0  0  0  0  0  0  0
   18.1687   -4.9793  -14.6938 O   0  0  0  0  0  0  0  0  0  0  0  0
   22.0857   -4.3449  -14.4449 O   0  0  0  0  0  0  0  0  0  0  0  0
  2  3  1  0
  2  1  1  0
  4  5  1  0
  4  3  1  0
  5  7  1  0
  5  6  1  1
  7 14  1  0
  8  7  2  0
 10  9  1  0
 11 12  1  1
 11 13  1  0
 11 10  1  0
 13 14  1  6
 15 17  1  0
 15 13  1  0
 16 15  2  0
 18 17  1  0
 18 19  1  1
 19 20  1  0
 20 24  1  0
 21 20  2  0
 22 18  1  0
 23 22  1  0
 25 22  2  0
M  END
$$$$
