MID.pdb
     RDKit          3D

 25 24  0  0  1  0  0  0  0  0999 V2000
   18.4415  -13.1840  -21.5963 C   0  0  0  0  0  0  0  0  0  0  0  0
   19.2863  -12.3248  -20.2573 S   0  0  0  0  0  0  0  0  0  0  0  0
   20.6623  -13.2747  -19.5806 C   0  0  0  0  0  0  0  0  0  0  0  0
   21.3628  -12.6090  -18.4421 C   0  0  0  0  0  0  0  0  0  0  0  0
   22.5585  -13.3578  -17.9147 C   0  0  2  0  0  0  0  0  0  0  0  0
   22.2495  -14.7371  -17.6600 N   0  0  0  0  0  0  0  0  0  0  0  0
   23.2254  -12.6557  -16.8014 C   0  0  0  0  0  0  0  0  0  0  0  0
   22.7086  -12.8041  -15.6677 O   0  0  0  0  0  0  0  0  0  0  0  0
   28.5362  -11.2966  -17.1326 C   0  0  0  0  0  0  0  0  0  0  0  0
   27.2084  -11.7686  -16.5940 C   0  0  0  0  0  0  0  0  0  0  0  0
   26.3288  -10.5744  -16.2251 C   0  0  2  0  0  0  0  0  0  0  0  0
   27.0162   -9.8238  -15.1103 C   0  0  0  0  0  0  0  0  0  0  0  0
   24.9458  -11.0401  -15.8347 C   0  0  2  0  0  0  0  0  0  0  0  0
   24.3769  -11.8462  -16.9178 N   0  0  0  0  0  0  0  0  0  0  0  0
   24.0927   -9.8832  -15.5399 C   0  0  0  0  0  0  0  0  0  0  0  0
   24.3841   -9.1600  -14.5170 O   0  0  0  0  0  0  0  0  0  0  0  0
   22.9651   -9.4402  -16.2516 N   0  0  0  0  0  0  0  0  0  0  0  0
   22.1725   -8.2706  -15.8287 C   0  0  1  0  0  0  0  0  0  0  0  0
   21.8309   -7.5820  -17.1672 C   0  0  0  0  0  0  0  0  0  0  0  0
   20.9320   -6.4405  -16.9512 C   0  0  0  0  0  0  0  0  0  0  0  0
   19.8892   -6.3715  -17.6663 O   0  0  0  0  0  0  0  0  0  0  0  0
   20.8664   -8.7016  -15.2758 C   0  0  0  0  0  0  0  0  0  0  0  0
   20.1509   -7.7992  -14.5110 O   0  0  0  0  0  0  0  0  0  0  0  0
   21.1846   -5.4633  -16.0100 O   0  0  0  0  0  0  0  0  0  0  0  0
   20.4008   -9.8564  -15.4846 O   0  0  0  0  0  0  0  0  0  0  0  0
  2  3  1  0
  2  1  1  0
  4  5  1  0
  4  3  1  0
  5  7  1  0
  5  6  1  1
  7 14  1  0
  8  7  2  0
 10  9  1  0
 11 12  1  1
 11 13  1  0
 11 10  1  0
 13 14  1  6
 15 17  1  0
 15 13  1  0
 16 15  2  0
 18 17  1  0
 18 19  1  6
 19 20  1  0
 20 24  1  0
 21 20  2  0
 22 18  1  0
 23 22  1  0
 25 22  2  0
M  END
$$$$
