MID.pdb
     RDKit          3D

 25 24  0  0  1  0  0  0  0  0999 V2000
   28.5238  -13.3379  -14.9955 C   0  0  0  0  0  0  0  0  0  0  0  0
   27.3263  -12.0469  -15.3756 S   0  0  0  0  0  0  0  0  0  0  0  0
   25.8185  -12.6955  -16.1235 C   0  0  0  0  0  0  0  0  0  0  0  0
   24.7990  -11.6529  -16.4456 C   0  0  0  0  0  0  0  0  0  0  0  0
   23.5534  -12.1755  -17.1119 C   0  0  2  0  0  0  0  0  0  0  0  0
   23.8615  -12.9216  -18.2998 N   0  0  0  0  0  0  0  0  0  0  0  0
   22.5193  -11.1369  -17.2824 C   0  0  0  0  0  0  0  0  0  0  0  0
   22.6759  -10.3574  -18.2531 O   0  0  0  0  0  0  0  0  0  0  0  0
   17.6948  -12.3902  -17.3433 C   0  0  0  0  0  0  0  0  0  0  0  0
   18.6424  -11.2728  -17.7032 C   0  0  0  0  0  0  0  0  0  0  0  0
   19.0124  -10.4670  -16.4583 C   0  0  2  0  0  0  0  0  0  0  0  0
   17.9644   -9.3961  -16.2751 C   0  0  0  0  0  0  0  0  0  0  0  0
   20.4019   -9.8910  -16.5980 C   0  0  2  0  0  0  0  0  0  0  0  0
   21.3922  -10.9605  -16.4499 N   0  0  0  0  0  0  0  0  0  0  0  0
   20.6117   -8.8410  -15.5946 C   0  0  0  0  0  0  0  0  0  0  0  0
   20.5514   -9.1688  -14.3524 O   0  0  0  0  0  0  0  0  0  0  0  0
   20.8841   -7.4804  -15.8150 N   0  0  0  0  0  0  0  0  0  0  0  0
   20.9496   -6.4991  -14.7161 C   0  0  1  0  0  0  0  0  0  0  0  0
   22.1007   -5.5678  -15.1521 C   0  0  0  0  0  0  0  0  0  0  0  0
   22.2346   -4.4360  -14.2254 C   0  0  0  0  0  0  0  0  0  0  0  0
   21.4680   -4.4089  -13.2179 O   0  0  0  0  0  0  0  0  0  0  0  0
   19.7416   -5.6398  -14.7152 C   0  0  0  0  0  0  0  0  0  0  0  0
   19.1076   -5.4029  -15.9206 O   0  0  0  0  0  0  0  0  0  0  0  0
   23.1536   -3.4242  -14.4159 O   0  0  0  0  0  0  0  0  0  0  0  0
   19.2867   -5.1279  -13.6546 O   0  0  0  0  0  0  0  0  0  0  0  0
  2  3  1  0
  2  1  1  0
  4  5  1  0
  4  3  1  0
  5  7  1  0
  5  6  1  6
  7 14  1  0
  8  7  2  0
 10  9  1  0
 11 12  1  6
 11 13  1  0
 11 10  1  0
 13 14  1  1
 15 17  1  0
 15 13  1  0
 16 15  2  0
 18 17  1  0
 18 19  1  6
 19 20  1  0
 20 24  1  0
 21 20  2  0
 22 18  1  0
 23 22  1  0
 25 22  2  0
M  END
$$$$
