MID.pdb
     RDKit          3D

 25 24  0  0  1  0  0  0  0  0999 V2000
   29.2128  -13.7612  -15.5416 C   0  0  0  0  0  0  0  0  0  0  0  0
   27.8500  -12.5833  -15.5357 S   0  0  0  0  0  0  0  0  0  0  0  0
   27.3474  -12.0933  -17.1973 C   0  0  0  0  0  0  0  0  0  0  0  0
   26.2115  -11.1245  -17.2312 C   0  0  0  0  0  0  0  0  0  0  0  0
   24.8661  -11.7418  -17.5093 C   0  0  2  0  0  0  0  0  0  0  0  0
   24.8937  -12.5634  -18.6871 N   0  0  0  0  0  0  0  0  0  0  0  0
   23.7671  -10.7582  -17.4648 C   0  0  0  0  0  0  0  0  0  0  0  0
   23.4335  -10.2544  -18.5644 O   0  0  0  0  0  0  0  0  0  0  0  0
   19.2376  -12.1018  -15.8023 C   0  0  0  0  0  0  0  0  0  0  0  0
   20.1530  -11.1746  -16.5629 C   0  0  0  0  0  0  0  0  0  0  0  0
   20.7565  -10.1325  -15.6217 C   0  0  2  0  0  0  0  0  0  0  0  0
   19.6620   -9.1633  -15.2460 C   0  0  0  0  0  0  0  0  0  0  0  0
   21.9294   -9.4451  -16.2803 C   0  0  2  0  0  0  0  0  0  0  0  0
   23.0803  -10.3517  -16.2996 N   0  0  0  0  0  0  0  0  0  0  0  0
   22.2512   -8.2064  -15.5626 C   0  0  0  0  0  0  0  0  0  0  0  0
   22.7604   -8.3026  -14.3854 O   0  0  0  0  0  0  0  0  0  0  0  0
   22.0772   -6.8841  -16.0046 N   0  0  0  0  0  0  0  0  0  0  0  0
   22.4315   -5.7192  -15.1726 C   0  0  1  0  0  0  0  0  0  0  0  0
   22.3374   -4.5424  -16.1670 C   0  0  0  0  0  0  0  0  0  0  0  0
   22.6952   -3.2772  -15.5122 C   0  0  0  0  0  0  0  0  0  0  0  0
   23.1487   -3.3356  -14.3313 O   0  0  0  0  0  0  0  0  0  0  0  0
   21.3727   -5.4575  -14.1687 C   0  0  0  0  0  0  0  0  0  0  0  0
   21.7567   -5.0422  -12.9073 O   0  0  0  0  0  0  0  0  0  0  0  0
   22.5566   -2.0531  -16.1344 O   0  0  0  0  0  0  0  0  0  0  0  0
   20.1475   -5.6035  -14.4363 O   0  0  0  0  0  0  0  0  0  0  0  0
  2  3  1  0
  2  1  1  0
  4  5  1  0
  4  3  1  0
  5  7  1  0
  5  6  1  6
  7 14  1  0
  8  7  2  0
 10  9  1  0
 11 12  1  6
 11 13  1  0
 11 10  1  0
 13 14  1  1
 15 17  1  0
 15 13  1  0
 16 15  2  0
 18 17  1  0
 18 19  1  6
 19 20  1  0
 20 24  1  0
 21 20  2  0
 22 18  1  0
 23 22  1  0
 25 22  2  0
M  END
$$$$
