MID.pdb
     RDKit          3D

 25 24  0  0  1  0  0  0  0  0999 V2000
   26.9239  -18.2082  -17.6571 C   0  0  0  0  0  0  0  0  0  0  0  0
   28.5809  -17.7692  -17.1035 S   0  0  0  0  0  0  0  0  0  0  0  0
   29.1980  -18.8704  -15.8150 C   0  0  0  0  0  0  0  0  0  0  0  0
   28.1284  -19.6020  -15.0728 C   0  0  0  0  0  0  0  0  0  0  0  0
   28.6276  -20.4934  -13.9662 C   0  0  2  0  0  0  0  0  0  0  0  0
   29.5532  -21.4770  -14.4551 N   0  0  0  0  0  0  0  0  0  0  0  0
   27.5367  -21.0299  -13.1300 C   0  0  0  0  0  0  0  0  0  0  0  0
   27.1499  -22.1909  -13.4069 O   0  0  0  0  0  0  0  0  0  0  0  0
   27.0690  -19.6478   -7.9376 C   0  0  0  0  0  0  0  0  0  0  0  0
   26.9227  -20.5711   -9.1217 C   0  0  0  0  0  0  0  0  0  0  0  0
   25.7081  -20.1734   -9.9598 C   0  0  2  0  0  0  0  0  0  0  0  0
   24.4699  -20.5451   -9.1806 C   0  0  0  0  0  0  0  0  0  0  0  0
   25.7581  -20.8465  -11.3113 C   0  0  2  0  0  0  0  0  0  0  0  0
   26.9101  -20.3454  -12.0653 N   0  0  0  0  0  0  0  0  0  0  0  0
   24.5085  -20.5998  -12.0399 C   0  0  0  0  0  0  0  0  0  0  0  0
   24.1510  -19.3797  -12.2347 O   0  0  0  0  0  0  0  0  0  0  0  0
   23.6221  -21.5486  -12.5767 N   0  0  0  0  0  0  0  0  0  0  0  0
   22.3823  -21.1649  -13.2771 C   0  0  1  0  0  0  0  0  0  0  0  0
   21.8411  -22.5171  -13.7883 C   0  0  0  0  0  0  0  0  0  0  0  0
   20.5785  -22.3315  -14.5155 C   0  0  0  0  0  0  0  0  0  0  0  0
   20.1658  -21.1458  -14.6811 O   0  0  0  0  0  0  0  0  0  0  0  0
   21.3662  -20.6873  -12.3091 C   0  0  0  0  0  0  0  0  0  0  0  0
   21.2056  -21.3911  -11.1301 O   0  0  0  0  0  0  0  0  0  0  0  0
   19.8460  -23.3892  -15.0149 O   0  0  0  0  0  0  0  0  0  0  0  0
   20.6558  -19.6683  -12.5345 O   0  0  0  0  0  0  0  0  0  0  0  0
  2  3  1  0
  2  1  1  0
  4  5  1  0
  4  3  1  0
  5  7  1  0
  5  6  1  6
  7 14  1  0
  8  7  2  0
 10  9  1  0
 11 12  1  1
 11 13  1  0
 11 10  1  0
 13 14  1  6
 15 17  1  0
 15 13  1  0
 16 15  2  0
 18 17  1  0
 18 19  1  1
 19 20  1  0
 20 24  1  0
 21 20  2  0
 22 18  1  0
 23 22  1  0
 25 22  2  0
M  END
$$$$
