MID.pdb
     RDKit          3D

 25 24  0  0  1  0  0  0  0  0999 V2000
   19.9383  -13.4836  -14.5359 C   0  0  0  0  0  0  0  0  0  0  0  0
   18.5154  -12.8746  -15.4576 S   0  0  0  0  0  0  0  0  0  0  0  0
   17.0262  -12.7658  -14.4456 C   0  0  0  0  0  0  0  0  0  0  0  0
   16.6864  -11.3797  -14.0059 C   0  0  0  0  0  0  0  0  0  0  0  0
   15.5288  -11.2900  -13.0465 C   0  0  2  0  0  0  0  0  0  0  0  0
   14.3938  -12.0354  -13.5148 N   0  0  0  0  0  0  0  0  0  0  0  0
   15.2341   -9.9036  -12.6364 C   0  0  0  0  0  0  0  0  0  0  0  0
   14.2085   -9.3858  -13.1408 O   0  0  0  0  0  0  0  0  0  0  0  0
   14.5319   -8.1296   -7.6657 C   0  0  0  0  0  0  0  0  0  0  0  0
   14.4547   -8.2056   -9.1705 C   0  0  0  0  0  0  0  0  0  0  0  0
   15.7523   -7.6952   -9.7964 C   0  0  2  0  0  0  0  0  0  0  0  0
   15.9747   -6.2843   -9.3082 C   0  0  0  0  0  0  0  0  0  0  0  0
   15.6769   -7.7752  -11.3030 C   0  0  2  0  0  0  0  0  0  0  0  0
   16.0066   -9.1348  -11.7381 N   0  0  0  0  0  0  0  0  0  0  0  0
   16.5923   -6.7975  -11.9025 C   0  0  0  0  0  0  0  0  0  0  0  0
   17.8502   -6.9185  -11.6630 O   0  0  0  0  0  0  0  0  0  0  0  0
   16.2700   -5.7132  -12.7359 N   0  0  0  0  0  0  0  0  0  0  0  0
   17.2936   -4.7984  -13.2745 C   0  0  1  0  0  0  0  0  0  0  0  0
   17.0177   -4.8259  -14.7930 C   0  0  0  0  0  0  0  0  0  0  0  0
   17.9281   -3.9189  -15.5044 C   0  0  0  0  0  0  0  0  0  0  0  0
   18.8221   -3.3335  -14.8251 O   0  0  0  0  0  0  0  0  0  0  0  0
   17.0124   -3.4033  -12.8597 C   0  0  0  0  0  0  0  0  0  0  0  0
   15.7473   -3.1039  -12.3897 O   0  0  0  0  0  0  0  0  0  0  0  0
   17.8405   -3.6932  -16.8631 O   0  0  0  0  0  0  0  0  0  0  0  0
   17.8891   -2.4971  -12.9255 O   0  0  0  0  0  0  0  0  0  0  0  0
  2  3  1  0
  2  1  1  0
  4  5  1  0
  4  3  1  0
  5  7  1  0
  5  6  1  6
  7 14  1  0
  8  7  2  0
 10  9  1  0
 11 12  1  6
 11 13  1  0
 11 10  1  0
 13 14  1  6
 15 17  1  0
 15 13  1  0
 16 15  2  0
 18 17  1  0
 18 19  1  6
 19 20  1  0
 20 24  1  0
 21 20  2  0
 22 18  1  0
 23 22  1  0
 25 22  2  0
M  END
$$$$
