MID.pdb
     RDKit          3D

 25 24  0  0  1  0  0  0  0  0999 V2000
   17.9834   -8.7166  -21.3561 C   0  0  0  0  0  0  0  0  0  0  0  0
   17.4993  -10.4467  -21.4874 S   0  0  0  0  0  0  0  0  0  0  0  0
   18.2468  -11.4768  -20.2092 C   0  0  0  0  0  0  0  0  0  0  0  0
   18.6192  -10.7355  -18.9675 C   0  0  0  0  0  0  0  0  0  0  0  0
   19.2877  -11.5745  -17.9103 C   0  0  2  0  0  0  0  0  0  0  0  0
   18.5594  -12.7862  -17.6569 N   0  0  0  0  0  0  0  0  0  0  0  0
   19.6403  -10.7992  -16.7055 C   0  0  0  0  0  0  0  0  0  0  0  0
   18.7652  -10.7473  -15.8078 O   0  0  0  0  0  0  0  0  0  0  0  0
   23.6662  -11.8938  -13.8724 C   0  0  0  0  0  0  0  0  0  0  0  0
   22.3441  -11.3434  -14.3469 C   0  0  0  0  0  0  0  0  0  0  0  0
   22.4798   -9.8624  -14.6990 C   0  0  2  0  0  0  0  0  0  0  0  0
   22.8607   -9.1230  -13.4393 C   0  0  0  0  0  0  0  0  0  0  0  0
   21.1945   -9.3447  -15.3008 C   0  0  2  0  0  0  0  0  0  0  0  0
   20.8639  -10.1259  -16.4954 N   0  0  0  0  0  0  0  0  0  0  0  0
   21.3331   -7.9211  -15.6284 C   0  0  0  0  0  0  0  0  0  0  0  0
   22.2162   -7.5827  -16.5002 O   0  0  0  0  0  0  0  0  0  0  0  0
   20.6027   -6.8411  -15.1046 N   0  0  0  0  0  0  0  0  0  0  0  0
   20.8407   -5.4477  -15.5249 C   0  0  1  0  0  0  0  0  0  0  0  0
   19.4743   -4.7736  -15.2777 C   0  0  0  0  0  0  0  0  0  0  0  0
   19.5020   -3.3682  -15.7040 C   0  0  0  0  0  0  0  0  0  0  0  0
   20.4572   -3.0000  -16.4493 O   0  0  0  0  0  0  0  0  0  0  0  0
   21.7738   -4.7758  -14.5893 C   0  0  0  0  0  0  0  0  0  0  0  0
   22.5242   -3.7161  -15.0636 O   0  0  0  0  0  0  0  0  0  0  0  0
   18.5364   -2.4577  -15.3258 O   0  0  0  0  0  0  0  0  0  0  0  0
   21.8961   -5.1445  -13.3880 O   0  0  0  0  0  0  0  0  0  0  0  0
  2  3  1  0
  2  1  1  0
  4  5  1  0
  4  3  1  0
  5  7  1  0
  5  6  1  1
  7 14  1  0
  8  7  2  0
 10  9  1  0
 11 12  1  1
 11 13  1  0
 11 10  1  0
 13 14  1  6
 15 17  1  0
 15 13  1  0
 16 15  2  0
 18 17  1  0
 18 19  1  1
 19 20  1  0
 20 24  1  0
 21 20  2  0
 22 18  1  0
 23 22  1  0
 25 22  2  0
M  END
$$$$
