MID.pdb
     RDKit          3D

 25 24  0  0  1  0  0  0  0  0999 V2000
   25.8600  -16.1087  -16.7344 C   0  0  0  0  0  0  0  0  0  0  0  0
   27.5859  -15.8715  -16.2764 S   0  0  0  0  0  0  0  0  0  0  0  0
   28.3004  -17.3247  -15.4818 C   0  0  0  0  0  0  0  0  0  0  0  0
   27.2917  -18.3094  -14.9890 C   0  0  0  0  0  0  0  0  0  0  0  0
   27.8753  -19.5699  -14.4065 C   0  0  2  0  0  0  0  0  0  0  0  0
   28.7296  -20.2412  -15.3458 N   0  0  0  0  0  0  0  0  0  0  0  0
   26.8578  -20.4282  -13.7699 C   0  0  0  0  0  0  0  0  0  0  0  0
   26.5075  -21.4426  -14.4201 O   0  0  0  0  0  0  0  0  0  0  0  0
   26.4238  -20.9426   -8.3201 C   0  0  0  0  0  0  0  0  0  0  0  0
   26.3992  -21.3072   -9.7838 C   0  0  0  0  0  0  0  0  0  0  0  0
   25.1259  -20.7774  -10.4429 C   0  0  2  0  0  0  0  0  0  0  0  0
   23.9514  -21.4770   -9.8028 C   0  0  0  0  0  0  0  0  0  0  0  0
   25.1774  -20.9944  -11.9369 C   0  0  2  0  0  0  0  0  0  0  0  0
   26.2628  -20.1947  -12.5105 N   0  0  0  0  0  0  0  0  0  0  0  0
   23.8884  -20.6355  -12.5395 C   0  0  0  0  0  0  0  0  0  0  0  0
   23.5364  -19.3985  -12.5261 O   0  0  0  0  0  0  0  0  0  0  0  0
   22.9573  -21.4890  -13.1549 N   0  0  0  0  0  0  0  0  0  0  0  0
   21.6860  -20.9976  -13.7181 C   0  0  1  0  0  0  0  0  0  0  0  0
   21.3478  -22.0589  -14.7866 C   0  0  0  0  0  0  0  0  0  0  0  0
   20.0531  -21.7694  -15.4169 C   0  0  0  0  0  0  0  0  0  0  0  0
   19.0196  -22.2853  -14.8980 O   0  0  0  0  0  0  0  0  0  0  0  0
   20.5991  -21.1039  -12.7157 C   0  0  0  0  0  0  0  0  0  0  0  0
   19.5262  -20.2386  -12.8212 O   0  0  0  0  0  0  0  0  0  0  0  0
   19.9328  -20.9665  -16.5329 O   0  0  0  0  0  0  0  0  0  0  0  0
   20.6316  -21.9537  -11.7826 O   0  0  0  0  0  0  0  0  0  0  0  0
  2  3  1  0
  2  1  1  0
  4  5  1  0
  4  3  1  0
  5  7  1  0
  5  6  1  6
  7 14  1  0
  8  7  2  0
 10  9  1  0
 11 12  1  1
 11 13  1  0
 11 10  1  0
 13 14  1  6
 15 17  1  0
 15 13  1  0
 16 15  2  0
 18 17  1  0
 18 19  1  6
 19 20  1  0
 20 24  1  0
 21 20  2  0
 22 18  1  0
 23 22  1  0
 25 22  2  0
M  END
$$$$
