MID.pdb
     RDKit          3D

 25 24  0  0  1  0  0  0  0  0999 V2000
   24.6659  -39.0549   -3.3151 C   0  0  0  0  0  0  0  0  0  0  0  0
   24.8309  -38.6777   -5.0688 S   0  0  0  0  0  0  0  0  0  0  0  0
   24.5771  -36.9289   -5.4306 C   0  0  0  0  0  0  0  0  0  0  0  0
   25.3976  -36.0060   -4.5910 C   0  0  0  0  0  0  0  0  0  0  0  0
   25.1130  -34.5422   -4.8027 C   0  0  2  0  0  0  0  0  0  0  0  0
   25.5090  -34.1100   -6.1140 N   0  0  0  0  0  0  0  0  0  0  0  0
   25.6063  -33.6995   -3.6965 C   0  0  0  0  0  0  0  0  0  0  0  0
   26.7662  -33.2395   -3.8289 O   0  0  0  0  0  0  0  0  0  0  0  0
   23.4965  -29.2887   -2.0010 C   0  0  0  0  0  0  0  0  0  0  0  0
   24.3816  -30.4671   -2.3230 C   0  0  0  0  0  0  0  0  0  0  0  0
   24.4285  -31.4360   -1.1418 C   0  0  2  0  0  0  0  0  0  0  0  0
   24.8122  -30.6461    0.0860 C   0  0  0  0  0  0  0  0  0  0  0  0
   25.3945  -32.5627   -1.4234 C   0  0  2  0  0  0  0  0  0  0  0  0
   24.8834  -33.3816   -2.5256 N   0  0  0  0  0  0  0  0  0  0  0  0
   25.5849  -33.3725   -0.2146 C   0  0  0  0  0  0  0  0  0  0  0  0
   24.5742  -34.0208    0.2463 O   0  0  0  0  0  0  0  0  0  0  0  0
   26.7639  -33.5457    0.5299 N   0  0  0  0  0  0  0  0  0  0  0  0
   26.7912  -34.2811    1.8079 C   0  0  1  0  0  0  0  0  0  0  0  0
   28.2904  -34.2810    2.1752 C   0  0  0  0  0  0  0  0  0  0  0  0
   28.5349  -35.1048    3.3664 C   0  0  0  0  0  0  0  0  0  0  0  0
   27.5461  -35.7132    3.8720 O   0  0  0  0  0  0  0  0  0  0  0  0
   26.1354  -33.4895    2.8759 C   0  0  0  0  0  0  0  0  0  0  0  0
   25.2131  -34.1242    3.6869 O   0  0  0  0  0  0  0  0  0  0  0  0
   29.7849  -35.2340    3.9368 O   0  0  0  0  0  0  0  0  0  0  0  0
   26.3967  -32.2678    3.0581 O   0  0  0  0  0  0  0  0  0  0  0  0
  2  3  1  0
  2  1  1  0
  4  5  1  0
  4  3  1  0
  5  7  1  0
  5  6  1  6
  7 14  1  0
  8  7  2  0
 10  9  1  0
 11 12  1  1
 11 13  1  0
 11 10  1  0
 13 14  1  6
 15 17  1  0
 15 13  1  0
 16 15  2  0
 18 17  1  0
 18 19  1  1
 19 20  1  0
 20 24  1  0
 21 20  2  0
 22 18  1  0
 23 22  1  0
 25 22  2  0
M  END
$$$$
