NCI.pdb
     RDKit          3D

 23 22  0  0  1  0  0  0  0  0999 V2000
   26.7005  -22.0735  -10.7273 N   0  0  0  0  0  0  0  0  0  0  0  0
   26.9498  -21.0337  -11.6604 C   0  0  0  0  0  0  0  0  0  0  0  0
   27.9774  -20.3311  -11.5413 O   0  0  0  0  0  0  0  0  0  0  0  0
   26.0321  -20.7375  -12.7888 C   0  0  0  0  0  0  0  0  0  0  0  0
   24.8906  -21.7504  -12.8362 C   0  0  2  0  0  0  0  0  0  0  0  0
   25.3492  -23.0431  -13.2434 N   0  0  0  0  0  0  0  0  0  0  0  0
   23.9002  -21.1924  -13.8235 C   0  0  0  0  0  0  0  0  0  0  0  0
   24.0685  -21.3636  -15.0557 O   0  0  0  0  0  0  0  0  0  0  0  0
   22.7594  -20.4650  -13.4055 N   0  0  0  0  0  0  0  0  0  0  0  0
   21.8207  -19.9941  -14.3962 C   0  0  1  0  0  0  0  0  0  0  0  0
   20.3881  -20.3923  -14.0113 C   0  0  0  0  0  0  0  0  0  0  0  0
   20.0896  -20.1903  -12.2543 S   0  0  0  0  0  0  0  0  0  0  0  0
   21.8502  -18.5086  -14.5092 C   0  0  0  0  0  0  0  0  0  0  0  0
   21.3635  -17.7477  -13.6164 O   0  0  0  0  0  0  0  0  0  0  0  0
   25.5264  -14.1023  -15.2435 C   0  0  0  0  0  0  0  0  0  0  0  0
   24.1377  -14.5067  -15.6761 C   0  0  0  0  0  0  0  0  0  0  0  0
   23.9688  -15.9744  -15.4547 C   0  0  2  0  0  0  0  0  0  0  0  0
   24.9850  -16.7156  -16.2913 C   0  0  0  0  0  0  0  0  0  0  0  0
   22.5723  -16.4577  -15.7774 C   0  0  2  0  0  0  0  0  0  0  0  0
   22.4327  -17.8769  -15.6370 N   0  0  0  0  0  0  0  0  0  0  0  0
   22.1903  -16.0402  -17.1424 C   0  0  0  0  0  0  0  0  0  0  0  0
   22.0474  -16.9575  -18.1651 O   0  0  0  0  0  0  0  0  0  0  0  0
   21.9890  -14.8309  -17.3892 O   0  0  0  0  0  0  0  0  0  0  0  0
  2  1  1  0
  3  2  2  0
  4  2  1  0
  5  6  1  6
  5  4  1  0
  7  8  2  0
  7  5  1  0
  9  7  1  0
 10  9  1  0
 10 13  1  0
 10 11  1  1
 12 11  1  0
 13 20  1  0
 13 14  2  0
 16 15  1  0
 17 16  1  0
 17 18  1  6
 19 17  1  0
 19 20  1  6
 21 22  1  0
 21 19  1  0
 23 21  2  0
M  END
$$$$
