NCI.pdb
     RDKit          3D

 23 22  0  0  1  0  0  0  0  0999 V2000
   21.8284  -16.8763  -18.3491 N   0  0  0  0  0  0  0  0  0  0  0  0
   20.7929  -15.9791  -17.9793 C   0  0  0  0  0  0  0  0  0  0  0  0
   19.6479  -16.1267  -18.4600 O   0  0  0  0  0  0  0  0  0  0  0  0
   21.0103  -14.8563  -17.0333 C   0  0  0  0  0  0  0  0  0  0  0  0
   22.4588  -14.8293  -16.5514 C   0  0  2  0  0  0  0  0  0  0  0  0
   22.7281  -15.8910  -15.6308 N   0  0  0  0  0  0  0  0  0  0  0  0
   22.6382  -13.4862  -15.8952 C   0  0  0  0  0  0  0  0  0  0  0  0
   21.8383  -13.1029  -15.0068 O   0  0  0  0  0  0  0  0  0  0  0  0
   23.6996  -12.6185  -16.2498 N   0  0  0  0  0  0  0  0  0  0  0  0
   23.8063  -11.3325  -15.6023 C   0  0  1  0  0  0  0  0  0  0  0  0
   25.2458  -10.8043  -15.6900 C   0  0  0  0  0  0  0  0  0  0  0  0
   26.3968  -11.8564  -14.8037 S   0  0  0  0  0  0  0  0  0  0  0  0
   22.9254  -10.3222  -16.2532 C   0  0  0  0  0  0  0  0  0  0  0  0
   22.8790  -10.1697  -17.5132 O   0  0  0  0  0  0  0  0  0  0  0  0
   17.9351  -10.4103  -16.3196 C   0  0  0  0  0  0  0  0  0  0  0  0
   19.3531  -10.0324  -16.6742 C   0  0  0  0  0  0  0  0  0  0  0  0
   19.7547   -8.8425  -15.8651 C   0  0  2  0  0  0  0  0  0  0  0  0
   18.8846   -7.6703  -16.2535 C   0  0  0  0  0  0  0  0  0  0  0  0
   21.2157   -8.4881  -16.0318 C   0  0  2  0  0  0  0  0  0  0  0  0
   22.0911   -9.4781  -15.4776 N   0  0  0  0  0  0  0  0  0  0  0  0
   21.4927   -7.1676  -15.4291 C   0  0  0  0  0  0  0  0  0  0  0  0
   21.4001   -6.0032  -16.1661 O   0  0  0  0  0  0  0  0  0  0  0  0
   21.8196   -7.0904  -14.2245 O   0  0  0  0  0  0  0  0  0  0  0  0
  2  1  1  0
  3  2  2  0
  4  2  1  0
  5  6  1  1
  5  4  1  0
  7  8  2  0
  7  5  1  0
  9  7  1  0
 10  9  1  0
 10 13  1  0
 10 11  1  6
 12 11  1  0
 13 20  1  0
 13 14  2  0
 16 15  1  0
 17 16  1  0
 17 18  1  6
 19 17  1  0
 19 20  1  1
 21 22  1  0
 21 19  1  0
 23 21  2  0
M  END
$$$$
