NCI.pdb
     RDKit          3D

 23 22  0  0  1  0  0  0  0  0999 V2000
   28.6020  -21.8321  -19.1423 N   0  0  0  0  0  0  0  0  0  0  0  0
   29.2722  -21.4733  -17.9439 C   0  0  0  0  0  0  0  0  0  0  0  0
   30.3355  -20.8180  -18.0041 O   0  0  0  0  0  0  0  0  0  0  0  0
   28.7605  -21.8463  -16.6014 C   0  0  0  0  0  0  0  0  0  0  0  0
   27.8553  -20.7500  -16.0451 C   0  0  2  0  0  0  0  0  0  0  0  0
   28.5924  -19.5626  -15.7384 N   0  0  0  0  0  0  0  0  0  0  0  0
   27.2324  -21.3349  -14.8054 C   0  0  0  0  0  0  0  0  0  0  0  0
   27.8102  -22.2579  -14.1808 O   0  0  0  0  0  0  0  0  0  0  0  0
   25.9908  -20.8728  -14.3053 N   0  0  0  0  0  0  0  0  0  0  0  0
   25.5191  -21.3577  -13.0299 C   0  0  1  0  0  0  0  0  0  0  0  0
   26.5512  -21.0685  -11.9298 C   0  0  0  0  0  0  0  0  0  0  0  0
   25.8113  -21.1031  -10.2962 S   0  0  0  0  0  0  0  0  0  0  0  0
   24.2493  -20.6882  -12.6303 C   0  0  0  0  0  0  0  0  0  0  0  0
   24.2061  -19.4732  -12.2631 O   0  0  0  0  0  0  0  0  0  0  0  0
   19.2333  -21.2637  -15.7444 C   0  0  0  0  0  0  0  0  0  0  0  0
   19.7432  -20.7607  -14.4154 C   0  0  0  0  0  0  0  0  0  0  0  0
   21.0877  -21.3572  -14.1546 C   0  0  2  0  0  0  0  0  0  0  0  0
   20.9419  -22.8552  -14.0255 C   0  0  0  0  0  0  0  0  0  0  0  0
   21.7509  -20.7875  -12.9203 C   0  0  2  0  0  0  0  0  0  0  0  0
   23.0198  -21.3939  -12.6451 N   0  0  0  0  0  0  0  0  0  0  0  0
   20.8568  -20.9229  -11.7517 C   0  0  0  0  0  0  0  0  0  0  0  0
   19.7711  -20.0882  -11.5719 O   0  0  0  0  0  0  0  0  0  0  0  0
   21.0785  -21.8103  -10.8989 O   0  0  0  0  0  0  0  0  0  0  0  0
  2  1  1  0
  3  2  2  0
  4  2  1  0
  5  6  1  1
  5  4  1  0
  7  8  2  0
  7  5  1  0
  9  7  1  0
 10  9  1  0
 10 13  1  0
 10 11  1  1
 12 11  1  0
 13 20  1  0
 13 14  2  0
 16 15  1  0
 17 16  1  0
 17 18  1  1
 19 17  1  0
 19 20  1  1
 21 22  1  0
 21 19  1  0
 23 21  2  0
M  END
$$$$
