NCI.pdb
     RDKit          3D

 23 22  0  0  1  0  0  0  0  0999 V2000
   29.5720  -19.4043  -17.1095 N   0  0  0  0  0  0  0  0  0  0  0  0
   28.2066  -19.0182  -17.0844 C   0  0  0  0  0  0  0  0  0  0  0  0
   27.8287  -18.0427  -17.7695 O   0  0  0  0  0  0  0  0  0  0  0  0
   27.1911  -19.7304  -16.2693 C   0  0  0  0  0  0  0  0  0  0  0  0
   27.8278  -20.8891  -15.5056 C   0  0  2  0  0  0  0  0  0  0  0  0
   28.1182  -21.9930  -16.3683 N   0  0  0  0  0  0  0  0  0  0  0  0
   26.8233  -21.2754  -14.4527 C   0  0  0  0  0  0  0  0  0  0  0  0
   25.8643  -22.0331  -14.7392 O   0  0  0  0  0  0  0  0  0  0  0  0
   26.9214  -20.8061  -13.1203 N   0  0  0  0  0  0  0  0  0  0  0  0
   25.8807  -21.1384  -12.1765 C   0  0  1  0  0  0  0  0  0  0  0  0
   26.2940  -20.7303  -10.7547 C   0  0  0  0  0  0  0  0  0  0  0  0
   24.9169  -20.8197   -9.6089 S   0  0  0  0  0  0  0  0  0  0  0  0
   24.6134  -20.4204  -12.4906 C   0  0  0  0  0  0  0  0  0  0  0  0
   24.5335  -19.1529  -12.5025 O   0  0  0  0  0  0  0  0  0  0  0  0
   22.4959  -19.8815  -16.8302 C   0  0  0  0  0  0  0  0  0  0  0  0
   22.8827  -19.8064  -15.3729 C   0  0  0  0  0  0  0  0  0  0  0  0
   21.8461  -20.5099  -14.5590 C   0  0  2  0  0  0  0  0  0  0  0  0
   20.5069  -19.8537  -14.7991 C   0  0  0  0  0  0  0  0  0  0  0  0
   22.1683  -20.5170  -13.0812 C   0  0  2  0  0  0  0  0  0  0  0  0
   23.4279  -21.1368  -12.7933 N   0  0  0  0  0  0  0  0  0  0  0  0
   21.0874  -21.1840  -12.3261 C   0  0  0  0  0  0  0  0  0  0  0  0
   20.1346  -20.4599  -11.6366 O   0  0  0  0  0  0  0  0  0  0  0  0
   21.0238  -22.4327  -12.3037 O   0  0  0  0  0  0  0  0  0  0  0  0
  2  1  1  0
  3  2  2  0
  4  2  1  0
  5  6  1  6
  5  4  1  0
  7  8  2  0
  7  5  1  0
  9  7  1  0
 10  9  1  0
 10 13  1  0
 10 11  1  1
 12 11  1  0
 13 20  1  0
 13 14  2  0
 16 15  1  0
 17 16  1  0
 17 18  1  1
 19 17  1  0
 19 20  1  6
 21 22  1  0
 21 19  1  0
 23 21  2  0
M  END
$$$$
