NCI.pdb
     RDKit          3D

 23 22  0  0  1  0  0  0  0  0999 V2000
   21.8854  -19.3210  -15.0983 N   0  0  0  0  0  0  0  0  0  0  0  0
   21.7545  -18.0295  -15.6717 C   0  0  0  0  0  0  0  0  0  0  0  0
   20.6176  -17.5931  -15.9560 O   0  0  0  0  0  0  0  0  0  0  0  0
   22.9236  -17.1596  -15.9537 C   0  0  0  0  0  0  0  0  0  0  0  0
   22.5717  -16.1049  -17.0000 C   0  0  2  0  0  0  0  0  0  0  0  0
   22.1852  -16.7020  -18.2415 N   0  0  0  0  0  0  0  0  0  0  0  0
   23.8155  -15.2726  -17.1645 C   0  0  0  0  0  0  0  0  0  0  0  0
   24.4512  -14.8768  -16.1569 O   0  0  0  0  0  0  0  0  0  0  0  0
   24.3073  -14.9108  -18.4421 N   0  0  0  0  0  0  0  0  0  0  0  0
   25.4144  -13.9889  -18.5372 C   0  0  1  0  0  0  0  0  0  0  0  0
   25.8901  -13.8684  -19.9925 C   0  0  0  0  0  0  0  0  0  0  0  0
   27.2268  -12.6843  -20.1608 S   0  0  0  0  0  0  0  0  0  0  0  0
   25.0240  -12.6234  -18.0863 C   0  0  0  0  0  0  0  0  0  0  0  0
   23.9271  -12.0812  -18.4268 O   0  0  0  0  0  0  0  0  0  0  0  0
   23.7590   -9.1147  -14.5486 C   0  0  0  0  0  0  0  0  0  0  0  0
   25.2598   -9.1327  -14.7109 C   0  0  0  0  0  0  0  0  0  0  0  0
   25.6744  -10.4663  -15.2413 C   0  0  2  0  0  0  0  0  0  0  0  0
   27.0955  -10.7439  -14.8108 C   0  0  0  0  0  0  0  0  0  0  0  0
   25.5555  -10.5599  -16.7463 C   0  0  2  0  0  0  0  0  0  0  0  0
   25.8767  -11.8641  -17.2458 N   0  0  0  0  0  0  0  0  0  0  0  0
   26.4114   -9.5421  -17.3904 C   0  0  0  0  0  0  0  0  0  0  0  0
   27.5434   -9.8936  -18.0993 O   0  0  0  0  0  0  0  0  0  0  0  0
   26.1137   -8.3309  -17.2982 O   0  0  0  0  0  0  0  0  0  0  0  0
  2  1  1  0
  3  2  2  0
  4  2  1  0
  5  6  1  6
  5  4  1  0
  7  8  2  0
  7  5  1  0
  9  7  1  0
 10  9  1  0
 10 13  1  0
 10 11  1  6
 12 11  1  0
 13 20  1  0
 13 14  2  0
 16 15  1  0
 17 16  1  0
 17 18  1  6
 19 17  1  0
 19 20  1  6
 21 22  1  0
 21 19  1  0
 23 21  2  0
M  END
$$$$
