NCI.pdb
     RDKit          3D

 23 22  0  0  1  0  0  0  0  0999 V2000
   32.8888  -34.1723  -18.2857 N   0  0  0  0  0  0  0  0  0  0  0  0
   33.0476  -34.2075  -16.8758 C   0  0  0  0  0  0  0  0  0  0  0  0
   33.7143  -35.1271  -16.3528 O   0  0  0  0  0  0  0  0  0  0  0  0
   32.4490  -33.1866  -15.9799 C   0  0  0  0  0  0  0  0  0  0  0  0
   31.6219  -32.1839  -16.7809 C   0  0  2  0  0  0  0  0  0  0  0  0
   32.3390  -30.9656  -17.0015 N   0  0  0  0  0  0  0  0  0  0  0  0
   30.3826  -31.9409  -15.9612 C   0  0  0  0  0  0  0  0  0  0  0  0
   30.4385  -31.2429  -14.9193 O   0  0  0  0  0  0  0  0  0  0  0  0
   29.1269  -32.4821  -16.3292 N   0  0  0  0  0  0  0  0  0  0  0  0
   27.9464  -32.0877  -15.5975 C   0  0  1  0  0  0  0  0  0  0  0  0
   27.1205  -31.0811  -16.4120 C   0  0  0  0  0  0  0  0  0  0  0  0
   25.4574  -31.6782  -16.7198 S   0  0  0  0  0  0  0  0  0  0  0  0
   27.0657  -33.2563  -15.3169 C   0  0  0  0  0  0  0  0  0  0  0  0
   26.9520  -34.2323  -16.1217 O   0  0  0  0  0  0  0  0  0  0  0  0
   25.9233  -37.3802  -12.0394 C   0  0  0  0  0  0  0  0  0  0  0  0
   25.0636  -36.1437  -11.9346 C   0  0  0  0  0  0  0  0  0  0  0  0
   25.8717  -34.9551  -12.3417 C   0  0  2  0  0  0  0  0  0  0  0  0
   25.6655  -33.8531  -11.3293 C   0  0  0  0  0  0  0  0  0  0  0  0
   25.5282  -34.4619  -13.7298 C   0  0  2  0  0  0  0  0  0  0  0  0
   26.3079  -33.3248  -14.1206 N   0  0  0  0  0  0  0  0  0  0  0  0
   24.0873  -34.1467  -13.8176 C   0  0  0  0  0  0  0  0  0  0  0  0
   23.1319  -35.1426  -13.8724 O   0  0  0  0  0  0  0  0  0  0  0  0
   23.7123  -32.9540  -13.8437 O   0  0  0  0  0  0  0  0  0  0  0  0
  2  1  1  0
  3  2  2  0
  4  2  1  0
  5  6  1  1
  5  4  1  0
  7  8  2  0
  7  5  1  0
  9  7  1  0
 10  9  1  0
 10 13  1  0
 10 11  1  6
 12 11  1  0
 13 20  1  0
 13 14  2  0
 16 15  1  0
 17 16  1  0
 17 18  1  1
 19 17  1  0
 19 20  1  1
 21 22  1  0
 21 19  1  0
 23 21  2  0
M  END
$$$$
