NCI.pdb
     RDKit          3D

 23 22  0  0  1  0  0  0  0  0999 V2000
   19.9074  -15.2379  -20.7428 N   0  0  0  0  0  0  0  0  0  0  0  0
   19.0888  -14.2369  -20.1580 C   0  0  0  0  0  0  0  0  0  0  0  0
   17.9999  -13.9386  -20.6957 O   0  0  0  0  0  0  0  0  0  0  0  0
   19.4721  -13.5168  -18.9180 C   0  0  0  0  0  0  0  0  0  0  0  0
   20.8481  -13.9688  -18.4349 C   0  0  2  0  0  0  0  0  0  0  0  0
   20.8081  -15.2922  -17.8926 N   0  0  0  0  0  0  0  0  0  0  0  0
   21.2541  -12.9671  -17.3867 C   0  0  0  0  0  0  0  0  0  0  0  0
   20.5961  -12.8610  -16.3228 O   0  0  0  0  0  0  0  0  0  0  0  0
   22.3759  -12.1204  -17.5589 N   0  0  0  0  0  0  0  0  0  0  0  0
   22.7770  -11.2516  -16.4778 C   0  0  1  0  0  0  0  0  0  0  0  0
   24.2922  -11.0042  -16.5210 C   0  0  0  0  0  0  0  0  0  0  0  0
   25.2193  -12.4601  -16.0332 S   0  0  0  0  0  0  0  0  0  0  0  0
   22.1102   -9.9226  -16.5734 C   0  0  0  0  0  0  0  0  0  0  0  0
   22.0696   -9.2570  -17.6543 O   0  0  0  0  0  0  0  0  0  0  0  0
   17.8621   -6.8381  -16.9424 C   0  0  0  0  0  0  0  0  0  0  0  0
   18.5949   -6.9144  -15.6247 C   0  0  0  0  0  0  0  0  0  0  0  0
   19.3018   -8.2276  -15.5381 C   0  0  2  0  0  0  0  0  0  0  0  0
   18.7900   -8.9804  -14.3327 C   0  0  0  0  0  0  0  0  0  0  0  0
   20.8052   -8.0787  -15.4629 C   0  0  2  0  0  0  0  0  0  0  0  0
   21.4849   -9.3401  -15.4421 N   0  0  0  0  0  0  0  0  0  0  0  0
   21.1804   -7.2777  -14.2793 C   0  0  0  0  0  0  0  0  0  0  0  0
   21.1277   -5.8976  -14.2945 O   0  0  0  0  0  0  0  0  0  0  0  0
   21.5559   -7.8519  -13.2337 O   0  0  0  0  0  0  0  0  0  0  0  0
  2  1  1  0
  3  2  2  0
  4  2  1  0
  5  6  1  1
  5  4  1  0
  7  8  2  0
  7  5  1  0
  9  7  1  0
 10  9  1  0
 10 13  1  0
 10 11  1  6
 12 11  1  0
 13 20  1  0
 13 14  2  0
 16 15  1  0
 17 16  1  0
 17 18  1  1
 19 17  1  0
 19 20  1  1
 21 22  1  0
 21 19  1  0
 23 21  2  0
M  END
$$$$
