NCI.pdb
     RDKit          3D

 23 22  0  0  1  0  0  0  0  0999 V2000
   18.8204  -11.0238  -18.1001 N   0  0  0  0  0  0  0  0  0  0  0  0
   18.5349   -9.7210  -18.5852 C   0  0  0  0  0  0  0  0  0  0  0  0
   18.2654   -9.5586  -19.7955 O   0  0  0  0  0  0  0  0  0  0  0  0
   18.5419   -8.5238  -17.7078 C   0  0  0  0  0  0  0  0  0  0  0  0
   18.9185   -8.9047  -16.2781 C   0  0  2  0  0  0  0  0  0  0  0  0
   17.8419   -9.5672  -15.6079 N   0  0  0  0  0  0  0  0  0  0  0  0
   19.2639   -7.6079  -15.5955 C   0  0  0  0  0  0  0  0  0  0  0  0
   18.3645   -6.7753  -15.3240 O   0  0  0  0  0  0  0  0  0  0  0  0
   20.5956   -7.2841  -15.2394 N   0  0  0  0  0  0  0  0  0  0  0  0
   20.8675   -6.0180  -14.6010 C   0  0  1  0  0  0  0  0  0  0  0  0
   22.1252   -6.1169  -13.7249 C   0  0  0  0  0  0  0  0  0  0  0  0
   22.6301   -4.5131  -13.1005 S   0  0  0  0  0  0  0  0  0  0  0  0
   21.1130   -4.9451  -15.6053 C   0  0  0  0  0  0  0  0  0  0  0  0
   21.9254   -5.0888  -16.5710 O   0  0  0  0  0  0  0  0  0  0  0  0
   18.4936   -1.0055  -19.1141 C   0  0  0  0  0  0  0  0  0  0  0  0
   19.6798   -1.1383  -18.1898 C   0  0  0  0  0  0  0  0  0  0  0  0
   19.4627   -2.3085  -17.2870 C   0  0  2  0  0  0  0  0  0  0  0  0
   18.2455   -2.0473  -16.4314 C   0  0  0  0  0  0  0  0  0  0  0  0
   20.6623   -2.6045  -16.4144 C   0  0  2  0  0  0  0  0  0  0  0  0
   20.4376   -3.7014  -15.5201 N   0  0  0  0  0  0  0  0  0  0  0  0
   21.0510   -1.3983  -15.6546 C   0  0  0  0  0  0  0  0  0  0  0  0
   21.5840   -0.2895  -16.2823 O   0  0  0  0  0  0  0  0  0  0  0  0
   20.8985   -1.3694  -14.4136 O   0  0  0  0  0  0  0  0  0  0  0  0
  2  1  1  0
  3  2  2  0
  4  2  1  0
  5  6  1  1
  5  4  1  0
  7  8  2  0
  7  5  1  0
  9  7  1  0
 10  9  1  0
 10 13  1  0
 10 11  1  1
 12 11  1  0
 13 20  1  0
 13 14  2  0
 16 15  1  0
 17 16  1  0
 17 18  1  1
 19 17  1  0
 19 20  1  1
 21 22  1  0
 21 19  1  0
 23 21  2  0
M  END
$$$$
