NCI.pdb
     RDKit          3D

 23 22  0  0  1  0  0  0  0  0999 V2000
   27.6537  -23.8413  -19.7548 N   0  0  0  0  0  0  0  0  0  0  0  0
   28.8277  -23.9939  -18.9722 C   0  0  0  0  0  0  0  0  0  0  0  0
   29.6933  -24.8288  -19.3147 O   0  0  0  0  0  0  0  0  0  0  0  0
   29.0788  -23.1952  -17.7466 C   0  0  0  0  0  0  0  0  0  0  0  0
   27.9133  -22.2481  -17.4714 C   0  0  2  0  0  0  0  0  0  0  0  0
   27.9869  -21.0718  -18.2827 N   0  0  0  0  0  0  0  0  0  0  0  0
   28.0134  -21.9034  -16.0092 C   0  0  0  0  0  0  0  0  0  0  0  0
   28.1783  -22.8081  -15.1546 O   0  0  0  0  0  0  0  0  0  0  0  0
   27.9267  -20.5666  -15.5503 N   0  0  0  0  0  0  0  0  0  0  0  0
   27.9322  -20.3060  -14.1303 C   0  0  1  0  0  0  0  0  0  0  0  0
   28.6788  -18.9986  -13.8266 C   0  0  0  0  0  0  0  0  0  0  0  0
   27.9188  -17.5927  -14.6408 S   0  0  0  0  0  0  0  0  0  0  0  0
   26.5477  -20.1566  -13.6003 C   0  0  0  0  0  0  0  0  0  0  0  0
   25.7030  -19.3607  -14.1160 O   0  0  0  0  0  0  0  0  0  0  0  0
   22.5757  -22.5593  -14.3132 C   0  0  0  0  0  0  0  0  0  0  0  0
   23.5678  -21.5196  -13.8510 C   0  0  0  0  0  0  0  0  0  0  0  0
   23.7857  -21.6766  -12.3815 C   0  0  2  0  0  0  0  0  0  0  0  0
   22.4740  -21.4551  -11.6657 C   0  0  0  0  0  0  0  0  0  0  0  0
   24.8413  -20.7365  -11.8430 C   0  0  2  0  0  0  0  0  0  0  0  0
   26.1128  -20.9100  -12.4807 N   0  0  0  0  0  0  0  0  0  0  0  0
   24.9768  -20.9044  -10.3812 C   0  0  0  0  0  0  0  0  0  0  0  0
   24.0650  -20.3524   -9.5029 O   0  0  0  0  0  0  0  0  0  0  0  0
   25.9355  -21.5597   -9.9170 O   0  0  0  0  0  0  0  0  0  0  0  0
  2  1  1  0
  3  2  2  0
  4  2  1  0
  5  6  1  6
  5  4  1  0
  7  8  2  0
  7  5  1  0
  9  7  1  0
 10  9  1  0
 10 13  1  0
 10 11  1  6
 12 11  1  0
 13 20  1  0
 13 14  2  0
 16 15  1  0
 17 16  1  0
 17 18  1  1
 19 17  1  0
 19 20  1  6
 21 22  1  0
 21 19  1  0
 23 21  2  0
M  END
$$$$
