NCI.pdb
     RDKit          3D

 23 22  0  0  1  0  0  0  0  0999 V2000
   19.4828  -13.5816  -19.0713 N   0  0  0  0  0  0  0  0  0  0  0  0
   20.8752  -13.3208  -18.9868 C   0  0  0  0  0  0  0  0  0  0  0  0
   21.6893  -14.2544  -19.1583 O   0  0  0  0  0  0  0  0  0  0  0  0
   21.4177  -11.9694  -18.6995 C   0  0  0  0  0  0  0  0  0  0  0  0
   20.2884  -10.9492  -18.5775 C   0  0  2  0  0  0  0  0  0  0  0  0
   19.6694  -10.6940  -19.8420 N   0  0  0  0  0  0  0  0  0  0  0  0
   20.9312   -9.7031  -18.0289 C   0  0  0  0  0  0  0  0  0  0  0  0
   21.6255   -9.7553  -16.9843 O   0  0  0  0  0  0  0  0  0  0  0  0
   20.7791   -8.4452  -18.6611 N   0  0  0  0  0  0  0  0  0  0  0  0
   21.3360   -7.2691  -18.0357 C   0  0  1  0  0  0  0  0  0  0  0  0
   21.1498   -6.0408  -18.9388 C   0  0  0  0  0  0  0  0  0  0  0  0
   21.7451   -4.5412  -18.1553 S   0  0  0  0  0  0  0  0  0  0  0  0
   20.6609   -6.9712  -16.7413 C   0  0  0  0  0  0  0  0  0  0  0  0
   19.4003   -7.0348  -16.5999 O   0  0  0  0  0  0  0  0  0  0  0  0
   19.3549   -8.7631  -11.8314 C   0  0  0  0  0  0  0  0  0  0  0  0
   20.1941   -7.5495  -12.1508 C   0  0  0  0  0  0  0  0  0  0  0  0
   20.7986   -7.7209  -13.5062 C   0  0  2  0  0  0  0  0  0  0  0  0
   22.1865   -8.2973  -13.3537 C   0  0  0  0  0  0  0  0  0  0  0  0
   20.8515   -6.4287  -14.2906 C   0  0  2  0  0  0  0  0  0  0  0  0
   21.4126   -6.5989  -15.5982 N   0  0  0  0  0  0  0  0  0  0  0  0
   21.6092   -5.4062  -13.5397 C   0  0  0  0  0  0  0  0  0  0  0  0
   22.7436   -4.8178  -14.0637 O   0  0  0  0  0  0  0  0  0  0  0  0
   21.2237   -5.0575  -12.4023 O   0  0  0  0  0  0  0  0  0  0  0  0
  2  1  1  0
  3  2  2  0
  4  2  1  0
  5  6  1  6
  5  4  1  0
  7  8  2  0
  7  5  1  0
  9  7  1  0
 10  9  1  0
 10 13  1  0
 10 11  1  6
 12 11  1  0
 13 20  1  0
 13 14  2  0
 16 15  1  0
 17 16  1  0
 17 18  1  1
 19 17  1  0
 19 20  1  6
 21 22  1  0
 21 19  1  0
 23 21  2  0
M  END
$$$$
