FSD.pdb
     RDKit          3D

 26 26  0  0  1  0  0  0  0  0999 V2000
    7.1562  -14.4331   20.7893 N   0  0  0  0  0  0  0  0  0  0  0  0
    7.6439  -14.1730   22.1449 C   0  0  1  0  0  0  0  0  0  0  0  0
    6.5039  -13.7590   23.0174 C   0  0  0  0  0  0  0  0  0  0  0  0
    6.8242  -13.5913   24.4348 C   0  0  0  0  0  0  0  0  0  0  0  0
    6.4652  -14.5323   25.4026 C   0  0  0  0  0  0  0  0  0  0  0  0
    6.8044  -14.3154   26.7210 C   0  0  0  0  0  0  0  0  0  0  0  0
    7.4853  -13.1993   27.1058 C   0  0  0  0  0  0  0  0  0  0  0  0
    7.8507  -12.2607   26.1833 C   0  0  0  0  0  0  0  0  0  0  0  0
    7.5141  -12.4670   24.8447 C   0  0  0  0  0  0  0  0  0  0  0  0
    8.2868  -15.4190   22.6197 C   0  0  0  0  0  0  0  0  0  0  0  0
    7.6618  -16.4971   22.5240 O   0  0  0  0  0  0  0  0  0  0  0  0
   12.3480  -15.6369   23.6297 O   0  0  0  0  0  0  0  0  0  0  0  0
   11.6424  -16.6516   22.9543 C   0  0  0  0  0  0  0  0  0  0  0  0
   10.2634  -16.6912   23.5305 C   0  0  2  0  0  0  0  0  0  0  0  0
    9.5914  -15.4537   23.1844 N   0  0  0  0  0  0  0  0  0  0  0  0
   10.2264  -16.9574   24.9781 C   0  0  0  0  0  0  0  0  0  0  0  0
   10.2369  -15.9703   25.7590 O   0  0  0  0  0  0  0  0  0  0  0  0
   10.1795  -18.2495   25.5497 N   0  0  0  0  0  0  0  0  0  0  0  0
   10.2789  -18.5044   26.9660 C   0  0  1  0  0  0  0  0  0  0  0  0
    9.6188  -19.7732   27.3930 C   0  0  0  0  0  0  0  0  0  0  0  0
    9.8790  -20.1656   28.7729 C   0  0  0  0  0  0  0  0  0  0  0  0
   11.0510  -20.3503   29.1719 O   0  0  0  0  0  0  0  0  0  0  0  0
   11.6608  -18.4204   27.4530 C   0  0  0  0  0  0  0  0  0  0  0  0
   12.5985  -18.6620   26.6510 O   0  0  0  0  0  0  0  0  0  0  0  0
    8.8440  -20.3434   29.6738 O   0  0  0  0  0  0  0  0  0  0  0  0
   11.9994  -18.0878   28.7561 O   0  0  0  0  0  0  0  0  0  0  0  0
  2  1  1  6
  3  2  1  0
  4  9  2  0
  4  3  1  0
  5  4  1  0
  6  7  1  0
  6  5  2  0
  7  8  2  0
  8  9  1  0
 10  2  1  0
 10 11  2  0
 13 12  1  0
 14 15  1  0
 14 13  1  1
 15 10  1  0
 16 14  1  0
 17 16  2  0
 18 16  1  0
 19 23  1  0
 19 18  1  0
 19 20  1  6
 20 21  1  0
 21 22  2  0
 23 26  1  0
 24 23  2  0
 25 21  1  0
M  END
$$$$
