FSD.pdb
     RDKit          3D

 26 26  0  0  1  0  0  0  0  0999 V2000
    6.0229  -16.8233   25.2574 N   0  0  0  0  0  0  0  0  0  0  0  0
    6.9835  -15.8181   24.7991 C   0  0  1  0  0  0  0  0  0  0  0  0
    7.4606  -15.0126   25.9633 C   0  0  0  0  0  0  0  0  0  0  0  0
    6.9456  -13.6453   26.0366 C   0  0  0  0  0  0  0  0  0  0  0  0
    5.8767  -13.2885   26.8618 C   0  0  0  0  0  0  0  0  0  0  0  0
    5.4453  -11.9795   26.8881 C   0  0  0  0  0  0  0  0  0  0  0  0
    6.0392  -11.0195   26.1246 C   0  0  0  0  0  0  0  0  0  0  0  0
    7.0867  -11.3367   25.3075 C   0  0  0  0  0  0  0  0  0  0  0  0
    7.5343  -12.6581   25.2707 C   0  0  0  0  0  0  0  0  0  0  0  0
    8.0873  -16.5466   24.1340 C   0  0  0  0  0  0  0  0  0  0  0  0
    8.5532  -17.5696   24.6803 O   0  0  0  0  0  0  0  0  0  0  0  0
   10.1653  -14.9772   20.8961 O   0  0  0  0  0  0  0  0  0  0  0  0
    9.8880  -16.3576   20.8648 C   0  0  0  0  0  0  0  0  0  0  0  0
    9.7762  -16.8194   22.2823 C   0  0  2  0  0  0  0  0  0  0  0  0
    8.6509  -16.1391   22.8936 N   0  0  0  0  0  0  0  0  0  0  0  0
   11.0135  -16.6591   23.0641 C   0  0  0  0  0  0  0  0  0  0  0  0
   11.3183  -15.5018   23.4538 O   0  0  0  0  0  0  0  0  0  0  0  0
   11.8827  -17.7201   23.4065 N   0  0  0  0  0  0  0  0  0  0  0  0
   13.1212  -17.5428   24.1243 C   0  0  1  0  0  0  0  0  0  0  0  0
   13.4888  -18.7093   24.9800 C   0  0  0  0  0  0  0  0  0  0  0  0
   12.6713  -18.8745   26.1759 C   0  0  0  0  0  0  0  0  0  0  0  0
   11.4328  -18.6997   26.1293 O   0  0  0  0  0  0  0  0  0  0  0  0
   14.2257  -17.1462   23.2431 C   0  0  0  0  0  0  0  0  0  0  0  0
   15.3311  -16.8439   23.7604 O   0  0  0  0  0  0  0  0  0  0  0  0
   13.2387  -19.2268   27.3877 O   0  0  0  0  0  0  0  0  0  0  0  0
   14.1244  -17.0835   21.8613 O   0  0  0  0  0  0  0  0  0  0  0  0
  2  1  1  1
  3  2  1  0
  4  9  2  0
  4  3  1  0
  5  4  1  0
  6  7  1  0
  6  5  2  0
  7  8  2  0
  8  9  1  0
 10  2  1  0
 10 11  2  0
 13 12  1  0
 14 15  1  0
 14 13  1  6
 15 10  1  0
 16 14  1  0
 17 16  2  0
 18 16  1  0
 19 23  1  0
 19 18  1  0
 19 20  1  6
 20 21  1  0
 21 22  2  0
 23 26  1  0
 24 23  2  0
 25 21  1  0
M  END
$$$$
