FSD.pdb
     RDKit          3D

 26 26  0  0  1  0  0  0  0  0999 V2000
    5.9601  -17.6348   25.6231 N   0  0  0  0  0  0  0  0  0  0  0  0
    6.6178  -16.3775   25.2627 C   0  0  1  0  0  0  0  0  0  0  0  0
    7.1078  -15.6954   26.4984 C   0  0  0  0  0  0  0  0  0  0  0  0
    7.0311  -14.2347   26.4840 C   0  0  0  0  0  0  0  0  0  0  0  0
    8.1672  -13.4225   26.5063 C   0  0  0  0  0  0  0  0  0  0  0  0
    8.0238  -12.0516   26.4840 C   0  0  0  0  0  0  0  0  0  0  0  0
    6.7940  -11.4658   26.4406 C   0  0  0  0  0  0  0  0  0  0  0  0
    5.6640  -12.2327   26.4178 C   0  0  0  0  0  0  0  0  0  0  0  0
    5.7939  -13.6221   26.4398 C   0  0  0  0  0  0  0  0  0  0  0  0
    7.7219  -16.7169   24.3369 C   0  0  0  0  0  0  0  0  0  0  0  0
    8.4739  -17.6750   24.6171 O   0  0  0  0  0  0  0  0  0  0  0  0
    8.7901  -14.2617   21.1691 O   0  0  0  0  0  0  0  0  0  0  0  0
    8.8442  -15.6502   20.9396 C   0  0  0  0  0  0  0  0  0  0  0  0
    9.0900  -16.3082   22.2593 C   0  0  2  0  0  0  0  0  0  0  0  0
    7.9739  -16.0027   23.1334 N   0  0  0  0  0  0  0  0  0  0  0  0
   10.3844  -15.9621   22.8696 C   0  0  0  0  0  0  0  0  0  0  0  0
   10.4507  -14.9059   23.5510 O   0  0  0  0  0  0  0  0  0  0  0  0
   11.5589  -16.7383   22.7411 N   0  0  0  0  0  0  0  0  0  0  0  0
   12.8283  -16.3749   23.3217 C   0  0  1  0  0  0  0  0  0  0  0  0
   13.4131  -17.4365   24.1930 C   0  0  0  0  0  0  0  0  0  0  0  0
   13.3452  -18.7859   23.6452 C   0  0  0  0  0  0  0  0  0  0  0  0
   13.7894  -19.7595   24.2945 O   0  0  0  0  0  0  0  0  0  0  0  0
   13.7893  -15.9073   22.3159 C   0  0  0  0  0  0  0  0  0  0  0  0
   13.4889  -16.0137   21.0997 O   0  0  0  0  0  0  0  0  0  0  0  0
   12.7913  -19.0259   22.4002 O   0  0  0  0  0  0  0  0  0  0  0  0
   15.0204  -15.3499   22.6274 O   0  0  0  0  0  0  0  0  0  0  0  0
  2  1  1  1
  3  2  1  0
  4  9  2  0
  4  3  1  0
  5  4  1  0
  6  7  1  0
  6  5  2  0
  7  8  2  0
  8  9  1  0
 10  2  1  0
 10 11  2  0
 13 12  1  0
 14 15  1  0
 14 13  1  6
 15 10  1  0
 16 14  1  0
 17 16  2  0
 18 16  1  0
 19 23  1  0
 19 18  1  0
 19 20  1  6
 20 21  1  0
 21 22  2  0
 23 26  1  0
 24 23  2  0
 25 21  1  0
M  END
$$$$
