FSD.pdb
     RDKit          3D

 26 26  0  0  1  0  0  0  0  0999 V2000
    6.3282  -17.0673   25.8017 N   0  0  0  0  0  0  0  0  0  0  0  0
    6.9366  -15.9324   25.1053 C   0  0  1  0  0  0  0  0  0  0  0  0
    7.6764  -15.0807   26.0849 C   0  0  0  0  0  0  0  0  0  0  0  0
    7.0338  -13.8121   26.4278 C   0  0  0  0  0  0  0  0  0  0  0  0
    5.7164  -13.5165   26.0700 C   0  0  0  0  0  0  0  0  0  0  0  0
    5.1693  -12.3038   26.4311 C   0  0  0  0  0  0  0  0  0  0  0  0
    5.8861  -11.3809   27.1324 C   0  0  0  0  0  0  0  0  0  0  0  0
    7.1765  -11.6402   27.4972 C   0  0  0  0  0  0  0  0  0  0  0  0
    7.7435  -12.8640   27.1385 C   0  0  0  0  0  0  0  0  0  0  0  0
    7.8295  -16.4915   24.0653 C   0  0  0  0  0  0  0  0  0  0  0  0
    8.5314  -17.4879   24.3419 O   0  0  0  0  0  0  0  0  0  0  0  0
    9.1386  -14.2834   20.5872 O   0  0  0  0  0  0  0  0  0  0  0  0
    8.7482  -15.6355   20.5348 C   0  0  0  0  0  0  0  0  0  0  0  0
    9.0453  -16.2347   21.8719 C   0  0  2  0  0  0  0  0  0  0  0  0
    7.9311  -15.9488   22.7549 N   0  0  0  0  0  0  0  0  0  0  0  0
   10.3325  -15.8094   22.4463 C   0  0  0  0  0  0  0  0  0  0  0  0
   10.3080  -15.0982   23.4846 O   0  0  0  0  0  0  0  0  0  0  0  0
   11.5955  -16.1474   21.9087 N   0  0  0  0  0  0  0  0  0  0  0  0
   12.8198  -16.1418   22.6714 C   0  0  1  0  0  0  0  0  0  0  0  0
   12.7651  -16.9929   23.8964 C   0  0  0  0  0  0  0  0  0  0  0  0
   14.0086  -17.0564   24.6551 C   0  0  0  0  0  0  0  0  0  0  0  0
   15.0318  -16.4592   24.2511 O   0  0  0  0  0  0  0  0  0  0  0  0
   13.9933  -16.4520   21.8464 C   0  0  0  0  0  0  0  0  0  0  0  0
   15.1199  -16.0380   22.2209 O   0  0  0  0  0  0  0  0  0  0  0  0
   14.0912  -17.7740   25.8352 O   0  0  0  0  0  0  0  0  0  0  0  0
   13.9356  -17.1805   20.6678 O   0  0  0  0  0  0  0  0  0  0  0  0
  2  1  1  1
  3  2  1  0
  4  9  2  0
  4  3  1  0
  5  4  1  0
  6  7  1  0
  6  5  2  0
  7  8  2  0
  8  9  1  0
 10  2  1  0
 10 11  2  0
 13 12  1  0
 14 15  1  0
 14 13  1  6
 15 10  1  0
 16 14  1  0
 17 16  2  0
 18 16  1  0
 19 23  1  0
 19 18  1  0
 19 20  1  1
 20 21  1  0
 21 22  2  0
 23 26  1  0
 24 23  2  0
 25 21  1  0
M  END
$$$$
