FSD.pdb
     RDKit          3D

 26 26  0  0  1  0  0  0  0  0999 V2000
    5.9178  -17.1849   25.4193 N   0  0  0  0  0  0  0  0  0  0  0  0
    6.6823  -16.0885   24.8221 C   0  0  1  0  0  0  0  0  0  0  0  0
    7.5100  -15.4233   25.8731 C   0  0  0  0  0  0  0  0  0  0  0  0
    7.1993  -14.0157   26.1221 C   0  0  0  0  0  0  0  0  0  0  0  0
    5.9438  -13.5898   26.5615 C   0  0  0  0  0  0  0  0  0  0  0  0
    5.7201  -12.2478   26.7835 C   0  0  0  0  0  0  0  0  0  0  0  0
    6.6991  -11.3210   26.5836 C   0  0  0  0  0  0  0  0  0  0  0  0
    7.9373  -11.7058   26.1543 C   0  0  0  0  0  0  0  0  0  0  0  0
    8.1783  -13.0613   25.9255 C   0  0  0  0  0  0  0  0  0  0  0  0
    7.5123  -16.6760   23.7463 C   0  0  0  0  0  0  0  0  0  0  0  0
    7.9743  -17.8273   23.8984 O   0  0  0  0  0  0  0  0  0  0  0  0
    9.1243  -14.5082   20.5120 O   0  0  0  0  0  0  0  0  0  0  0  0
    8.4827  -15.7364   20.2602 C   0  0  0  0  0  0  0  0  0  0  0  0
    8.6312  -16.5741   21.4896 C   0  0  2  0  0  0  0  0  0  0  0  0
    7.8144  -15.9919   22.5368 N   0  0  0  0  0  0  0  0  0  0  0  0
   10.0267  -16.7686   21.9171 C   0  0  0  0  0  0  0  0  0  0  0  0
   10.8060  -17.3665   21.1300 O   0  0  0  0  0  0  0  0  0  0  0  0
   10.5499  -16.3277   23.1541 N   0  0  0  0  0  0  0  0  0  0  0  0
   11.9096  -16.5566   23.5775 C   0  0  1  0  0  0  0  0  0  0  0  0
   12.8111  -15.3886   23.3515 C   0  0  0  0  0  0  0  0  0  0  0  0
   13.7000  -15.5132   22.2026 C   0  0  0  0  0  0  0  0  0  0  0  0
   13.6664  -16.5345   21.4798 O   0  0  0  0  0  0  0  0  0  0  0  0
   11.9897  -17.0452   24.9591 C   0  0  0  0  0  0  0  0  0  0  0  0
   11.0287  -16.8153   25.7365 O   0  0  0  0  0  0  0  0  0  0  0  0
   14.5996  -14.5121   21.8817 O   0  0  0  0  0  0  0  0  0  0  0  0
   13.0707  -17.7516   25.4649 O   0  0  0  0  0  0  0  0  0  0  0  0
  2  1  1  1
  3  2  1  0
  4  9  2  0
  4  3  1  0
  5  4  1  0
  6  7  1  0
  6  5  2  0
  7  8  2  0
  8  9  1  0
 10  2  1  0
 10 11  2  0
 13 12  1  0
 14 15  1  0
 14 13  1  6
 15 10  1  0
 16 14  1  0
 17 16  2  0
 18 16  1  0
 19 23  1  0
 19 18  1  0
 19 20  1  1
 20 21  1  0
 21 22  2  0
 23 26  1  0
 24 23  2  0
 25 21  1  0
M  END
$$$$
