FSD.pdb
     RDKit          3D

 26 26  0  0  1  0  0  0  0  0999 V2000
    6.1413  -18.0805   25.9424 N   0  0  0  0  0  0  0  0  0  0  0  0
    6.5122  -16.7456   25.4697 C   0  0  1  0  0  0  0  0  0  0  0  0
    7.4251  -16.0984   26.4596 C   0  0  0  0  0  0  0  0  0  0  0  0
    7.5310  -14.6428   26.3609 C   0  0  0  0  0  0  0  0  0  0  0  0
    6.4502  -13.7926   26.6055 C   0  0  0  0  0  0  0  0  0  0  0  0
    6.6206  -12.4286   26.5013 C   0  0  0  0  0  0  0  0  0  0  0  0
    7.8243  -11.8860   26.1636 C   0  0  0  0  0  0  0  0  0  0  0  0
    8.9004  -12.6908   25.9184 C   0  0  0  0  0  0  0  0  0  0  0  0
    8.7426  -14.0737   26.0202 C   0  0  0  0  0  0  0  0  0  0  0  0
    7.1545  -16.9182   24.1472 C   0  0  0  0  0  0  0  0  0  0  0  0
    7.8770  -17.9190   23.9511 O   0  0  0  0  0  0  0  0  0  0  0  0
    7.9274  -13.9330   21.3574 O   0  0  0  0  0  0  0  0  0  0  0  0
    7.1974  -15.0464   20.8979 C   0  0  0  0  0  0  0  0  0  0  0  0
    7.5678  -16.2072   21.7642 C   0  0  2  0  0  0  0  0  0  0  0  0
    6.9907  -15.9956   23.0775 N   0  0  0  0  0  0  0  0  0  0  0  0
    9.0153  -16.4685   21.8291 C   0  0  0  0  0  0  0  0  0  0  0  0
    9.5774  -16.9291   20.8014 O   0  0  0  0  0  0  0  0  0  0  0  0
    9.8167  -16.2358   22.9702 N   0  0  0  0  0  0  0  0  0  0  0  0
   11.2419  -16.4543   23.0079 C   0  0  1  0  0  0  0  0  0  0  0  0
   12.0331  -15.2057   23.2155 C   0  0  0  0  0  0  0  0  0  0  0  0
   13.4797  -15.3860   23.1969 C   0  0  0  0  0  0  0  0  0  0  0  0
   14.0707  -15.6811   22.1336 O   0  0  0  0  0  0  0  0  0  0  0  0
   11.6213  -17.5026   23.9624 C   0  0  0  0  0  0  0  0  0  0  0  0
   12.7642  -18.0182   23.8688 O   0  0  0  0  0  0  0  0  0  0  0  0
   14.2345  -15.2370   24.3469 O   0  0  0  0  0  0  0  0  0  0  0  0
   10.7887  -17.9641   24.9709 O   0  0  0  0  0  0  0  0  0  0  0  0
  2  1  1  1
  3  2  1  0
  4  9  2  0
  4  3  1  0
  5  4  1  0
  6  7  1  0
  6  5  2  0
  7  8  2  0
  8  9  1  0
 10  2  1  0
 10 11  2  0
 13 12  1  0
 14 15  1  0
 14 13  1  6
 15 10  1  0
 16 14  1  0
 17 16  2  0
 18 16  1  0
 19 23  1  0
 19 18  1  0
 19 20  1  1
 20 21  1  0
 21 22  2  0
 23 26  1  0
 24 23  2  0
 25 21  1  0
M  END
$$$$
