FSD.pdb
     RDKit          3D

 26 26  0  0  1  0  0  0  0  0999 V2000
    6.0175  -17.8319   25.6860 N   0  0  0  0  0  0  0  0  0  0  0  0
    6.2685  -16.4265   25.3618 C   0  0  1  0  0  0  0  0  0  0  0  0
    6.7418  -15.7067   26.5825 C   0  0  0  0  0  0  0  0  0  0  0  0
    6.4828  -14.2672   26.6049 C   0  0  0  0  0  0  0  0  0  0  0  0
    5.1914  -13.7357   26.5823 C   0  0  0  0  0  0  0  0  0  0  0  0
    5.0178  -12.3685   26.6124 C   0  0  0  0  0  0  0  0  0  0  0  0
    6.0812  -11.5177   26.6639 C   0  0  0  0  0  0  0  0  0  0  0  0
    7.3564  -12.0064   26.6873 C   0  0  0  0  0  0  0  0  0  0  0  0
    7.5473  -13.3885   26.6574 C   0  0  0  0  0  0  0  0  0  0  0  0
    7.2748  -16.4063   24.2762 C   0  0  0  0  0  0  0  0  0  0  0  0
    8.1396  -17.3077   24.2355 O   0  0  0  0  0  0  0  0  0  0  0  0
    8.6508  -14.5075   20.0448 O   0  0  0  0  0  0  0  0  0  0  0  0
    7.8674  -14.3442   21.2038 C   0  0  0  0  0  0  0  0  0  0  0  0
    8.2056  -15.4686   22.1292 C   0  0  2  0  0  0  0  0  0  0  0  0
    7.3090  -15.4049   23.2672 N   0  0  0  0  0  0  0  0  0  0  0  0
    9.6197  -15.5038   22.5376 C   0  0  0  0  0  0  0  0  0  0  0  0
    9.9931  -14.7066   23.4372 O   0  0  0  0  0  0  0  0  0  0  0  0
   10.5870  -16.3747   21.9858 N   0  0  0  0  0  0  0  0  0  0  0  0
   11.9928  -16.3171   22.3037 C   0  0  1  0  0  0  0  0  0  0  0  0
   12.5193  -17.5724   22.9162 C   0  0  0  0  0  0  0  0  0  0  0  0
   12.0703  -17.8244   24.2802 C   0  0  0  0  0  0  0  0  0  0  0  0
   11.3767  -18.8320   24.5460 O   0  0  0  0  0  0  0  0  0  0  0  0
   12.8068  -15.8876   21.1605 C   0  0  0  0  0  0  0  0  0  0  0  0
   14.0348  -15.6840   21.3375 O   0  0  0  0  0  0  0  0  0  0  0  0
   12.3964  -16.9622   25.3120 O   0  0  0  0  0  0  0  0  0  0  0  0
   12.3000  -15.6905   19.8847 O   0  0  0  0  0  0  0  0  0  0  0  0
  2  1  1  1
  3  2  1  0
  4  9  2  0
  4  3  1  0
  5  4  1  0
  6  7  1  0
  6  5  2  0
  7  8  2  0
  8  9  1  0
 10  2  1  0
 10 11  2  0
 13 12  1  0
 14 15  1  0
 14 13  1  6
 15 10  1  0
 16 14  1  0
 17 16  2  0
 18 16  1  0
 19 23  1  0
 19 18  1  0
 19 20  1  6
 20 21  1  0
 21 22  2  0
 23 26  1  0
 24 23  2  0
 25 21  1  0
M  END
$$$$
