FSD.pdb
     RDKit          3D

 26 26  0  0  1  0  0  0  0  0999 V2000
    6.8431  -16.4802   25.9468 N   0  0  0  0  0  0  0  0  0  0  0  0
    7.3926  -15.7338   24.8137 C   0  0  1  0  0  0  0  0  0  0  0  0
    8.2935  -14.6523   25.3148 C   0  0  0  0  0  0  0  0  0  0  0  0
    7.6219  -13.5092   25.9330 C   0  0  0  0  0  0  0  0  0  0  0  0
    8.1077  -12.8851   27.0843 C   0  0  0  0  0  0  0  0  0  0  0  0
    7.4290  -11.8074   27.6116 C   0  0  0  0  0  0  0  0  0  0  0  0
    6.2893  -11.3330   27.0342 C   0  0  0  0  0  0  0  0  0  0  0  0
    5.7889  -11.9215   25.9078 C   0  0  0  0  0  0  0  0  0  0  0  0
    6.4656  -13.0136   25.3626 C   0  0  0  0  0  0  0  0  0  0  0  0
    8.1103  -16.7082   23.9612 C   0  0  0  0  0  0  0  0  0  0  0  0
    8.5434  -17.7607   24.4776 O   0  0  0  0  0  0  0  0  0  0  0  0
    9.0230  -15.8150   20.0889 O   0  0  0  0  0  0  0  0  0  0  0  0
    8.7254  -17.1732   20.3134 C   0  0  0  0  0  0  0  0  0  0  0  0
    9.0428  -17.4656   21.7448 C   0  0  2  0  0  0  0  0  0  0  0  0
    8.3349  -16.5072   22.5714 N   0  0  0  0  0  0  0  0  0  0  0  0
   10.4840  -17.4996   22.0441 C   0  0  0  0  0  0  0  0  0  0  0  0
   11.0146  -16.4557   22.5055 O   0  0  0  0  0  0  0  0  0  0  0  0
   11.3122  -18.6283   21.8475 N   0  0  0  0  0  0  0  0  0  0  0  0
   12.7350  -18.6304   22.0842 C   0  0  1  0  0  0  0  0  0  0  0  0
   13.2030  -19.7858   22.9052 C   0  0  0  0  0  0  0  0  0  0  0  0
   12.9165  -19.6810   24.3309 C   0  0  0  0  0  0  0  0  0  0  0  0
   13.3926  -18.7424   25.0085 O   0  0  0  0  0  0  0  0  0  0  0  0
   13.5078  -18.4972   20.8436 C   0  0  0  0  0  0  0  0  0  0  0  0
   14.7615  -18.4375   20.9178 O   0  0  0  0  0  0  0  0  0  0  0  0
   12.1154  -20.6106   24.9702 O   0  0  0  0  0  0  0  0  0  0  0  0
   12.9349  -18.4325   19.5823 O   0  0  0  0  0  0  0  0  0  0  0  0
  2  1  1  1
  3  2  1  0
  4  9  2  0
  4  3  1  0
  5  4  1  0
  6  7  1  0
  6  5  2  0
  7  8  2  0
  8  9  1  0
 10  2  1  0
 10 11  2  0
 13 12  1  0
 14 15  1  0
 14 13  1  6
 15 10  1  0
 16 14  1  0
 17 16  2  0
 18 16  1  0
 19 23  1  0
 19 18  1  0
 19 20  1  6
 20 21  1  0
 21 22  2  0
 23 26  1  0
 24 23  2  0
 25 21  1  0
M  END
$$$$
