FSD.pdb
     RDKit          3D

 26 26  0  0  1  0  0  0  0  0999 V2000
    6.0693  -16.6827   24.9472 N   0  0  0  0  0  0  0  0  0  0  0  0
    7.1285  -15.7678   24.5180 C   0  0  1  0  0  0  0  0  0  0  0  0
    7.7537  -15.1276   25.7144 C   0  0  0  0  0  0  0  0  0  0  0  0
    7.2107  -13.8209   26.0855 C   0  0  0  0  0  0  0  0  0  0  0  0
    6.0252  -13.6784   26.8101 C   0  0  0  0  0  0  0  0  0  0  0  0
    5.5728  -12.4169   27.1328 C   0  0  0  0  0  0  0  0  0  0  0  0
    6.2574  -11.2989   26.7603 C   0  0  0  0  0  0  0  0  0  0  0  0
    7.4199  -11.4051   26.0511 C   0  0  0  0  0  0  0  0  0  0  0  0
    7.8901  -12.6760   25.7174 C   0  0  0  0  0  0  0  0  0  0  0  0
    8.1015  -16.5673   23.7400 C   0  0  0  0  0  0  0  0  0  0  0  0
    8.2734  -17.7689   24.0380 O   0  0  0  0  0  0  0  0  0  0  0  0
    9.4899  -14.8477   20.6709 O   0  0  0  0  0  0  0  0  0  0  0  0
    9.9302  -16.1785   20.5332 C   0  0  0  0  0  0  0  0  0  0  0  0
    9.7622  -16.8406   21.8631 C   0  0  2  0  0  0  0  0  0  0  0  0
    8.8582  -16.0344   22.6603 N   0  0  0  0  0  0  0  0  0  0  0  0
   11.0294  -17.1103   22.5624 C   0  0  0  0  0  0  0  0  0  0  0  0
   11.8261  -17.9337   22.0414 O   0  0  0  0  0  0  0  0  0  0  0  0
   11.4113  -16.5049   23.7815 N   0  0  0  0  0  0  0  0  0  0  0  0
   12.4703  -17.0002   24.6262 C   0  0  1  0  0  0  0  0  0  0  0  0
   13.6892  -16.1386   24.6247 C   0  0  0  0  0  0  0  0  0  0  0  0
   14.3010  -15.9440   23.3156 C   0  0  0  0  0  0  0  0  0  0  0  0
   14.9217  -16.8771   22.7582 O   0  0  0  0  0  0  0  0  0  0  0  0
   12.0095  -17.2867   25.9899 C   0  0  0  0  0  0  0  0  0  0  0  0
   12.7785  -17.9057   26.7686 O   0  0  0  0  0  0  0  0  0  0  0  0
   14.2128  -14.7300   22.6576 O   0  0  0  0  0  0  0  0  0  0  0  0
   10.7659  -16.9133   26.4771 O   0  0  0  0  0  0  0  0  0  0  0  0
  2  1  1  1
  3  2  1  0
  4  9  2  0
  4  3  1  0
  5  4  1  0
  6  7  1  0
  6  5  2  0
  7  8  2  0
  8  9  1  0
 10  2  1  0
 10 11  2  0
 13 12  1  0
 14 15  1  0
 14 13  1  6
 15 10  1  0
 16 14  1  0
 17 16  2  0
 18 16  1  0
 19 23  1  0
 19 18  1  0
 19 20  1  1
 20 21  1  0
 21 22  2  0
 23 26  1  0
 24 23  2  0
 25 21  1  0
M  END
$$$$
