LQL.pdb
     RDKit          3D

 26 25  0  0  1  0  0  0  0  0999 V2000
   29.2490  -18.1876  -16.7429 C   0  0  0  0  0  0  0  0  0  0  0  0
   28.1901  -17.1421  -17.0417 C   0  0  2  0  0  0  0  0  0  0  0  0
   28.8454  -15.8080  -17.2935 C   0  0  0  0  0  0  0  0  0  0  0  0
   27.1685  -17.0577  -15.9142 C   0  0  0  0  0  0  0  0  0  0  0  0
   26.7785  -18.4789  -15.5685 C   0  0  2  0  0  0  0  0  0  0  0  0
   26.0958  -19.0366  -16.7135 N   0  0  0  0  0  0  0  0  0  0  0  0
   25.9075  -18.5564  -14.3889 C   0  0  0  0  0  0  0  0  0  0  0  0
   25.1515  -17.6160  -14.0188 O   0  0  0  0  0  0  0  0  0  0  0  0
   21.5865  -20.6129  -14.3236 N   0  0  0  0  0  0  0  0  0  0  0  0
   21.5685  -20.9978  -12.9716 C   0  0  0  0  0  0  0  0  0  0  0  0
   20.4251  -20.9704  -12.4001 O   0  0  0  0  0  0  0  0  0  0  0  0
   22.8018  -21.4166  -12.2310 C   0  0  0  0  0  0  0  0  0  0  0  0
   23.9742  -21.1859  -13.1487 C   0  0  0  0  0  0  0  0  0  0  0  0
   24.8824  -20.0932  -12.6639 C   0  0  2  0  0  0  0  0  0  0  0  0
   25.9050  -19.7447  -13.6146 N   0  0  0  0  0  0  0  0  0  0  0  0
   25.5534  -20.6175  -11.4208 C   0  0  0  0  0  0  0  0  0  0  0  0
   26.2473  -21.6693  -11.4750 O   0  0  0  0  0  0  0  0  0  0  0  0
   28.8100  -20.4935   -8.2298 C   0  0  0  0  0  0  0  0  0  0  0  0
   27.8540  -19.3320   -8.1574 C   0  0  2  0  0  0  0  0  0  0  0  0
   28.3509  -18.2838   -7.2502 C   0  0  0  0  0  0  0  0  0  0  0  0
   26.4243  -19.6970   -7.9879 C   0  0  0  0  0  0  0  0  0  0  0  0
   25.8224  -20.6655   -8.9205 C   0  0  2  0  0  0  0  0  0  0  0  0
   25.4335  -19.9670  -10.1786 N   0  0  0  0  0  0  0  0  0  0  0  0
   24.7269  -21.5137   -8.4636 C   0  0  0  0  0  0  0  0  0  0  0  0
   23.5628  -21.5123   -8.8629 O   0  0  0  0  0  0  0  0  0  0  0  0
   25.0284  -22.4510   -7.4411 O   0  0  0  0  0  0  0  0  0  0  0  0
  2  1  1  1
  2  3  1  0
  2  4  1  0
  5  4  1  0
  5  7  1  0
  5  6  1  6
  7 15  1  0
  7  8  2  0
 10  9  1  0
 10 12  1  0
 11 10  2  0
 13 12  1  0
 14 13  1  6
 14 16  1  0
 15 14  1  0
 16 23  1  0
 16 17  2  0
 19 18  1  1
 19 20  1  0
 22 21  1  1
 21 19  1  0
 22 24  1  0
 23 22  1  0
 24 26  1  0
 25 24  2  0
M  END
$$$$
