LQL.pdb
     RDKit          3D

 26 25  0  0  1  0  0  0  0  0999 V2000
   17.0180  -27.9454   -8.8790 C   0  0  0  0  0  0  0  0  0  0  0  0
   18.4084  -27.3427   -8.7959 C   0  0  2  0  0  0  0  0  0  0  0  0
   19.4393  -28.3844   -9.1492 C   0  0  0  0  0  0  0  0  0  0  0  0
   18.6671  -26.7473   -7.4173 C   0  0  0  0  0  0  0  0  0  0  0  0
   17.6633  -25.6303   -7.2267 C   0  0  2  0  0  0  0  0  0  0  0  0
   17.9909  -24.5821   -8.1660 N   0  0  0  0  0  0  0  0  0  0  0  0
   17.6702  -25.0892   -5.8617 C   0  0  0  0  0  0  0  0  0  0  0  0
   18.5650  -24.3139   -5.4246 O   0  0  0  0  0  0  0  0  0  0  0  0
   12.4494  -24.1530   -2.6165 N   0  0  0  0  0  0  0  0  0  0  0  0
   13.2171  -23.0726   -3.0853 C   0  0  0  0  0  0  0  0  0  0  0  0
   12.6009  -21.9578   -3.1947 O   0  0  0  0  0  0  0  0  0  0  0  0
   14.6673  -23.2013   -3.4393 C   0  0  0  0  0  0  0  0  0  0  0  0
   15.0399  -24.6521   -3.2773 C   0  0  0  0  0  0  0  0  0  0  0  0
   16.4698  -24.9268   -3.6433 C   0  0  2  0  0  0  0  0  0  0  0  0
   16.6220  -25.4480   -4.9760 N   0  0  0  0  0  0  0  0  0  0  0  0
   16.9661  -25.9655   -2.6713 C   0  0  0  0  0  0  0  0  0  0  0  0
   16.8801  -27.1905   -2.9594 O   0  0  0  0  0  0  0  0  0  0  0  0
   19.0242  -27.7652    2.0797 C   0  0  0  0  0  0  0  0  0  0  0  0
   19.9596  -27.0877    1.1132 C   0  0  2  0  0  0  0  0  0  0  0  0
   21.1090  -26.4868    1.8106 C   0  0  0  0  0  0  0  0  0  0  0  0
   19.3056  -26.2222    0.0987 C   0  0  0  0  0  0  0  0  0  0  0  0
   18.0409  -26.6705   -0.5093 C   0  0  2  0  0  0  0  0  0  0  0  0
   17.5323  -25.6154   -1.4313 N   0  0  0  0  0  0  0  0  0  0  0  0
   16.9609  -27.1426    0.3503 C   0  0  0  0  0  0  0  0  0  0  0  0
   16.1479  -26.4604    0.9733 O   0  0  0  0  0  0  0  0  0  0  0  0
   16.8243  -28.5485    0.4908 O   0  0  0  0  0  0  0  0  0  0  0  0
  2  1  1  1
  2  3  1  0
  2  4  1  0
  5  4  1  0
  5  7  1  0
  5  6  1  6
  7 15  1  0
  7  8  2  0
 10  9  1  0
 10 12  1  0
 11 10  2  0
 13 12  1  0
 14 13  1  1
 14 16  1  0
 15 14  1  0
 16 23  1  0
 16 17  2  0
 19 18  1  1
 19 20  1  0
 22 21  1  1
 21 19  1  0
 22 24  1  0
 23 22  1  0
 24 26  1  0
 25 24  2  0
M  END
$$$$
