LQL.pdb
     RDKit          3D

 26 25  0  0  1  0  0  0  0  0999 V2000
   11.3176  -13.4108  -12.5667 C   0  0  0  0  0  0  0  0  0  0  0  0
   12.4621  -13.0785  -13.5065 C   0  0  2  0  0  0  0  0  0  0  0  0
   12.2563  -13.7730  -14.8286 C   0  0  0  0  0  0  0  0  0  0  0  0
   13.8052  -13.4452  -12.8870 C   0  0  0  0  0  0  0  0  0  0  0  0
   14.8754  -12.9603  -13.8415 C   0  0  2  0  0  0  0  0  0  0  0  0
   15.6157  -14.1162  -14.2934 N   0  0  0  0  0  0  0  0  0  0  0  0
   15.7943  -11.9979  -13.2207 C   0  0  0  0  0  0  0  0  0  0  0  0
   16.7098  -12.3281  -12.4172 O   0  0  0  0  0  0  0  0  0  0  0  0
   18.3198   -7.2534  -16.0302 N   0  0  0  0  0  0  0  0  0  0  0  0
   18.5175   -6.8541  -14.6969 C   0  0  0  0  0  0  0  0  0  0  0  0
   19.1829   -5.7750  -14.5317 O   0  0  0  0  0  0  0  0  0  0  0  0
   17.9889   -7.6317  -13.5304 C   0  0  0  0  0  0  0  0  0  0  0  0
   17.1643   -8.7642  -14.0850 C   0  0  0  0  0  0  0  0  0  0  0  0
   16.5077   -9.5821  -13.0108 C   0  0  2  0  0  0  0  0  0  0  0  0
   15.6580  -10.6205  -13.5310 N   0  0  0  0  0  0  0  0  0  0  0  0
   15.6548   -8.6306  -12.2125 C   0  0  0  0  0  0  0  0  0  0  0  0
   14.5323   -8.2658  -12.6572 O   0  0  0  0  0  0  0  0  0  0  0  0
   14.9631   -6.4347   -6.5223 C   0  0  0  0  0  0  0  0  0  0  0  0
   14.4289   -6.5074   -7.9285 C   0  0  2  0  0  0  0  0  0  0  0  0
   12.9620   -6.6358   -7.9394 C   0  0  0  0  0  0  0  0  0  0  0  0
   15.1567   -7.4304   -8.8364 C   0  0  0  0  0  0  0  0  0  0  0  0
   15.2588   -7.0883  -10.2656 C   0  0  2  0  0  0  0  0  0  0  0  0
   16.0699   -8.1238  -10.9670 N   0  0  0  0  0  0  0  0  0  0  0  0
   15.7108   -5.7563  -10.6525 C   0  0  0  0  0  0  0  0  0  0  0  0
   15.0225   -4.7479  -10.8063 O   0  0  0  0  0  0  0  0  0  0  0  0
   17.1026   -5.5952  -10.8804 O   0  0  0  0  0  0  0  0  0  0  0  0
  2  1  1  1
  2  3  1  0
  2  4  1  0
  5  4  1  0
  5  7  1  0
  5  6  1  1
  7 15  1  0
  7  8  2  0
 10  9  1  0
 10 12  1  0
 11 10  2  0
 13 12  1  0
 14 13  1  6
 14 16  1  0
 15 14  1  0
 16 23  1  0
 16 17  2  0
 19 18  1  1
 19 20  1  0
 22 21  1  1
 21 19  1  0
 22 24  1  0
 23 22  1  0
 24 26  1  0
 25 24  2  0
M  END
$$$$
