LQL.pdb
     RDKit          3D

 26 25  0  0  1  0  0  0  0  0999 V2000
   21.4767  -17.8782  -19.0421 C   0  0  0  0  0  0  0  0  0  0  0  0
   20.7687  -17.0631  -20.1089 C   0  0  2  0  0  0  0  0  0  0  0  0
   21.0608  -17.6397  -21.4708 C   0  0  0  0  0  0  0  0  0  0  0  0
   21.1635  -15.5935  -20.0290 C   0  0  0  0  0  0  0  0  0  0  0  0
   20.7828  -15.1117  -18.6454 C   0  0  2  0  0  0  0  0  0  0  0  0
   19.4136  -15.5065  -18.4054 N   0  0  0  0  0  0  0  0  0  0  0  0
   20.9096  -13.6563  -18.4975 C   0  0  0  0  0  0  0  0  0  0  0  0
   21.9362  -13.0083  -18.8427 O   0  0  0  0  0  0  0  0  0  0  0  0
   15.8913  -10.1989  -16.8133 N   0  0  0  0  0  0  0  0  0  0  0  0
   16.1388  -10.4751  -18.1693 C   0  0  0  0  0  0  0  0  0  0  0  0
   15.1661  -10.2541  -18.9690 O   0  0  0  0  0  0  0  0  0  0  0  0
   17.4536  -10.9961  -18.6641 C   0  0  0  0  0  0  0  0  0  0  0  0
   18.4099  -10.9734  -17.5001 C   0  0  0  0  0  0  0  0  0  0  0  0
   19.7724  -11.4907  -17.8605 C   0  0  2  0  0  0  0  0  0  0  0  0
   19.8293  -12.9266  -17.9387 N   0  0  0  0  0  0  0  0  0  0  0  0
   20.7024  -11.0412  -16.7635 C   0  0  0  0  0  0  0  0  0  0  0  0
   20.7312  -11.6638  -15.6670 O   0  0  0  0  0  0  0  0  0  0  0  0
   26.2485  -10.2043  -15.4382 C   0  0  0  0  0  0  0  0  0  0  0  0
   24.8500   -9.8591  -14.9987 C   0  0  2  0  0  0  0  0  0  0  0  0
   24.5769  -10.3551  -13.6392 C   0  0  0  0  0  0  0  0  0  0  0  0
   23.7864  -10.1257  -16.0005 C   0  0  0  0  0  0  0  0  0  0  0  0
   22.4593   -9.5160  -15.8080 C   0  0  2  0  0  0  0  0  0  0  0  0
   21.5560   -9.9330  -16.9180 N   0  0  0  0  0  0  0  0  0  0  0  0
   22.3566   -8.0760  -15.5976 C   0  0  0  0  0  0  0  0  0  0  0  0
   22.2958   -7.1968  -16.4564 O   0  0  0  0  0  0  0  0  0  0  0  0
   22.3227   -7.6280  -14.2511 O   0  0  0  0  0  0  0  0  0  0  0  0
  2  1  1  1
  2  3  1  0
  2  4  1  0
  5  4  1  0
  5  7  1  0
  5  6  1  6
  7 15  1  0
  7  8  2  0
 10  9  1  0
 10 12  1  0
 11 10  2  0
 13 12  1  0
 14 13  1  1
 14 16  1  0
 15 14  1  0
 16 23  1  0
 16 17  2  0
 19 18  1  6
 19 20  1  0
 22 21  1  6
 21 19  1  0
 22 24  1  0
 23 22  1  0
 24 26  1  0
 25 24  2  0
M  END
$$$$
