LQL.pdb
     RDKit          3D

 26 25  0  0  1  0  0  0  0  0999 V2000
   28.6530  -23.5606  -18.4493 C   0  0  0  0  0  0  0  0  0  0  0  0
   29.0408  -23.7175  -16.9903 C   0  0  2  0  0  0  0  0  0  0  0  0
   30.0844  -24.7966  -16.8518 C   0  0  0  0  0  0  0  0  0  0  0  0
   27.8199  -24.0082  -16.1261 C   0  0  0  0  0  0  0  0  0  0  0  0
   26.9436  -22.7749  -16.1760 C   0  0  2  0  0  0  0  0  0  0  0  0
   27.8043  -21.6207  -16.0523 N   0  0  0  0  0  0  0  0  0  0  0  0
   25.9340  -22.7537  -15.1100 C   0  0  0  0  0  0  0  0  0  0  0  0
   25.1862  -23.7339  -14.8399 O   0  0  0  0  0  0  0  0  0  0  0  0
   25.7409  -21.6229  -10.0365 N   0  0  0  0  0  0  0  0  0  0  0  0
   24.4348  -21.1375  -10.2225 C   0  0  0  0  0  0  0  0  0  0  0  0
   23.5459  -21.6163   -9.4381 O   0  0  0  0  0  0  0  0  0  0  0  0
   24.0878  -20.1229  -11.2690 C   0  0  0  0  0  0  0  0  0  0  0  0
   25.0986  -20.2609  -12.3777 C   0  0  0  0  0  0  0  0  0  0  0  0
   24.7975  -21.4102  -13.2956 C   0  0  2  0  0  0  0  0  0  0  0  0
   25.7795  -21.5763  -14.3343 N   0  0  0  0  0  0  0  0  0  0  0  0
   23.4730  -21.1014  -13.9441 C   0  0  0  0  0  0  0  0  0  0  0  0
   23.3492  -20.0754  -14.6672 O   0  0  0  0  0  0  0  0  0  0  0  0
   19.5686  -23.9969  -17.2856 C   0  0  0  0  0  0  0  0  0  0  0  0
   19.7613  -22.7614  -16.4463 C   0  0  2  0  0  0  0  0  0  0  0  0
   19.6144  -21.5373  -17.2517 C   0  0  0  0  0  0  0  0  0  0  0  0
   20.9352  -22.7893  -15.5368 C   0  0  0  0  0  0  0  0  0  0  0  0
   21.1094  -21.6944  -14.5668 C   0  0  2  0  0  0  0  0  0  0  0  0
   22.3478  -21.9288  -13.7710 N   0  0  0  0  0  0  0  0  0  0  0  0
   20.0068  -21.3424  -13.6788 C   0  0  0  0  0  0  0  0  0  0  0  0
   18.9714  -20.7451  -13.9718 O   0  0  0  0  0  0  0  0  0  0  0  0
   20.1337  -21.7284  -12.3187 O   0  0  0  0  0  0  0  0  0  0  0  0
  2  1  1  6
  2  3  1  0
  2  4  1  0
  5  4  1  0
  5  7  1  0
  5  6  1  1
  7 15  1  0
  7  8  2  0
 10  9  1  0
 10 12  1  0
 11 10  2  0
 13 12  1  0
 14 13  1  1
 14 16  1  0
 15 14  1  0
 16 23  1  0
 16 17  2  0
 19 18  1  6
 19 20  1  0
 22 21  1  1
 21 19  1  0
 22 24  1  0
 23 22  1  0
 24 26  1  0
 25 24  2  0
M  END
$$$$
