LQL.pdb
     RDKit          3D

 26 25  0  0  1  0  0  0  0  0999 V2000
   24.2107  -17.1600  -19.1442 C   0  0  0  0  0  0  0  0  0  0  0  0
   23.2777  -18.1877  -18.5305 C   0  0  2  0  0  0  0  0  0  0  0  0
   22.0534  -18.3480  -19.3954 C   0  0  0  0  0  0  0  0  0  0  0  0
   22.9058  -17.8079  -17.1024 C   0  0  0  0  0  0  0  0  0  0  0  0
   24.0671  -18.2191  -16.2227 C   0  0  2  0  0  0  0  0  0  0  0  0
   24.6255  -19.4328  -16.7734 N   0  0  0  0  0  0  0  0  0  0  0  0
   23.6682  -18.4480  -14.8282 C   0  0  0  0  0  0  0  0  0  0  0  0
   22.9995  -17.6197  -14.1505 O   0  0  0  0  0  0  0  0  0  0  0  0
   21.3774  -21.1901  -10.5947 N   0  0  0  0  0  0  0  0  0  0  0  0
   20.7475  -21.1724  -11.8514 C   0  0  0  0  0  0  0  0  0  0  0  0
   19.4729  -21.0737  -11.8339 O   0  0  0  0  0  0  0  0  0  0  0  0
   21.5061  -21.2626  -13.1403 C   0  0  0  0  0  0  0  0  0  0  0  0
   22.9688  -21.3591  -12.7921 C   0  0  0  0  0  0  0  0  0  0  0  0
   23.6682  -20.0323  -12.8588 C   0  0  2  0  0  0  0  0  0  0  0  0
   24.0474  -19.6598  -14.1961 N   0  0  0  0  0  0  0  0  0  0  0  0
   24.9218  -20.1699  -12.0343 C   0  0  0  0  0  0  0  0  0  0  0  0
   25.9799  -20.6065  -12.5642 O   0  0  0  0  0  0  0  0  0  0  0  0
   27.5416  -20.7525   -7.2089 C   0  0  0  0  0  0  0  0  0  0  0  0
   27.2930  -19.3486   -7.6941 C   0  0  2  0  0  0  0  0  0  0  0  0
   27.2615  -18.3918   -6.5751 C   0  0  0  0  0  0  0  0  0  0  0  0
   26.1976  -19.2053   -8.6868 C   0  0  0  0  0  0  0  0  0  0  0  0
   26.1733  -20.1042   -9.8535 C   0  0  2  0  0  0  0  0  0  0  0  0
   24.9585  -19.8239  -10.6707 N   0  0  0  0  0  0  0  0  0  0  0  0
   26.3166  -21.5421   -9.6528 C   0  0  0  0  0  0  0  0  0  0  0  0
   25.5066  -22.3095   -9.1336 O   0  0  0  0  0  0  0  0  0  0  0  0
   27.5257  -22.1328  -10.1044 O   0  0  0  0  0  0  0  0  0  0  0  0
  2  1  1  6
  2  3  1  0
  2  4  1  0
  5  4  1  0
  5  7  1  0
  5  6  1  6
  7 15  1  0
  7  8  2  0
 10  9  1  0
 10 12  1  0
 11 10  2  0
 13 12  1  0
 14 13  1  6
 14 16  1  0
 15 14  1  0
 16 23  1  0
 16 17  2  0
 19 18  1  1
 19 20  1  0
 22 21  1  1
 21 19  1  0
 22 24  1  0
 23 22  1  0
 24 26  1  0
 25 24  2  0
M  END
$$$$
