LQL.pdb
     RDKit          3D

 26 25  0  0  1  0  0  0  0  0999 V2000
   26.4695  -18.2520  -20.3596 C   0  0  0  0  0  0  0  0  0  0  0  0
   27.1744  -18.8947  -19.1791 C   0  0  2  0  0  0  0  0  0  0  0  0
   28.5446  -19.3654  -19.5960 C   0  0  0  0  0  0  0  0  0  0  0  0
   26.3457  -20.0344  -18.5991 C   0  0  0  0  0  0  0  0  0  0  0  0
   25.7261  -19.5183  -17.3180 C   0  0  2  0  0  0  0  0  0  0  0  0
   26.7954  -19.3014  -16.3705 N   0  0  0  0  0  0  0  0  0  0  0  0
   24.7438  -20.4493  -16.7486 C   0  0  0  0  0  0  0  0  0  0  0  0
   24.1112  -21.2992  -17.4344 O   0  0  0  0  0  0  0  0  0  0  0  0
   23.3522  -24.2418  -13.9804 N   0  0  0  0  0  0  0  0  0  0  0  0
   24.7256  -23.9843  -13.8259 C   0  0  0  0  0  0  0  0  0  0  0  0
   25.5074  -24.9645  -14.0764 O   0  0  0  0  0  0  0  0  0  0  0  0
   25.2576  -22.6514  -13.3957 C   0  0  0  0  0  0  0  0  0  0  0  0
   24.0860  -21.7075  -13.3150 C   0  0  0  0  0  0  0  0  0  0  0  0
   23.5833  -21.2921  -14.6673 C   0  0  2  0  0  0  0  0  0  0  0  0
   24.4814  -20.4028  -15.3554 N   0  0  0  0  0  0  0  0  0  0  0  0
   22.2854  -20.5633  -14.4336 C   0  0  0  0  0  0  0  0  0  0  0  0
   22.2788  -19.4781  -13.7908 O   0  0  0  0  0  0  0  0  0  0  0  0
   17.1233  -19.4509  -17.4029 C   0  0  0  0  0  0  0  0  0  0  0  0
   17.9292  -19.2570  -16.1455 C   0  0  2  0  0  0  0  0  0  0  0  0
   18.0663  -17.8295  -15.8107 C   0  0  0  0  0  0  0  0  0  0  0  0
   19.1799  -20.0540  -16.0647 C   0  0  0  0  0  0  0  0  0  0  0  0
   19.8086  -20.2590  -14.7484 C   0  0  2  0  0  0  0  0  0  0  0  0
   21.0576  -21.0557  -14.9137 N   0  0  0  0  0  0  0  0  0  0  0  0
   19.0139  -20.8019  -13.6520 C   0  0  0  0  0  0  0  0  0  0  0  0
   18.3335  -20.1760  -12.8397 O   0  0  0  0  0  0  0  0  0  0  0  0
   19.0202  -22.2127  -13.4960 O   0  0  0  0  0  0  0  0  0  0  0  0
  2  1  1  6
  2  3  1  0
  2  4  1  0
  5  4  1  0
  5  7  1  0
  5  6  1  1
  7 15  1  0
  7  8  2  0
 10  9  1  0
 10 12  1  0
 11 10  2  0
 13 12  1  0
 14 13  1  1
 14 16  1  0
 15 14  1  0
 16 23  1  0
 16 17  2  0
 19 18  1  6
 19 20  1  0
 22 21  1  6
 21 19  1  0
 22 24  1  0
 23 22  1  0
 24 26  1  0
 25 24  2  0
M  END
$$$$
