LQL.pdb
     RDKit          3D

 26 25  0  0  1  0  0  0  0  0999 V2000
   30.1186  -17.9386  -18.1896 C   0  0  0  0  0  0  0  0  0  0  0  0
   28.7691  -17.3255  -18.5160 C   0  0  2  0  0  0  0  0  0  0  0  0
   28.9601  -16.0801  -19.3439 C   0  0  0  0  0  0  0  0  0  0  0  0
   27.9765  -17.0356  -17.2472 C   0  0  0  0  0  0  0  0  0  0  0  0
   27.9546  -18.3170  -16.4416 C   0  0  2  0  0  0  0  0  0  0  0  0
   27.5915  -19.3914  -17.3371 N   0  0  0  0  0  0  0  0  0  0  0  0
   27.0058  -18.2661  -15.3221 C   0  0  0  0  0  0  0  0  0  0  0  0
   27.0348  -17.3791  -14.4247 O   0  0  0  0  0  0  0  0  0  0  0  0
   21.2328  -20.4433  -15.9791 N   0  0  0  0  0  0  0  0  0  0  0  0
   21.2061  -19.9343  -14.6690 C   0  0  0  0  0  0  0  0  0  0  0  0
   20.0608  -19.9192  -14.1008 O   0  0  0  0  0  0  0  0  0  0  0  0
   22.4325  -19.4364  -13.9670 C   0  0  0  0  0  0  0  0  0  0  0  0
   23.5974  -19.6472  -14.8991 C   0  0  0  0  0  0  0  0  0  0  0  0
   24.9057  -19.2265  -14.2945 C   0  0  2  0  0  0  0  0  0  0  0  0
   25.9978  -19.2598  -15.2311 N   0  0  0  0  0  0  0  0  0  0  0  0
   25.2006  -20.2095  -13.1913 C   0  0  0  0  0  0  0  0  0  0  0  0
   25.4392  -21.4163  -13.4696 O   0  0  0  0  0  0  0  0  0  0  0  0
   28.3774  -20.9993  -10.2369 C   0  0  0  0  0  0  0  0  0  0  0  0
   27.4575  -19.9015   -9.7715 C   0  0  2  0  0  0  0  0  0  0  0  0
   28.0412  -19.1537   -8.6452 C   0  0  0  0  0  0  0  0  0  0  0  0
   26.0344  -20.2936   -9.6075 C   0  0  0  0  0  0  0  0  0  0  0  0
   25.3138  -20.8552  -10.7631 C   0  0  2  0  0  0  0  0  0  0  0  0
   25.2204  -19.8260  -11.8374 N   0  0  0  0  0  0  0  0  0  0  0  0
   24.0120  -21.4814  -10.5598 C   0  0  0  0  0  0  0  0  0  0  0  0
   22.9311  -21.1308  -11.0321 O   0  0  0  0  0  0  0  0  0  0  0  0
   23.9780  -22.6271   -9.7224 O   0  0  0  0  0  0  0  0  0  0  0  0
  2  1  1  1
  2  3  1  0
  2  4  1  0
  5  4  1  0
  5  7  1  0
  5  6  1  6
  7 15  1  0
  7  8  2  0
 10  9  1  0
 10 12  1  0
 11 10  2  0
 13 12  1  0
 14 13  1  6
 14 16  1  0
 15 14  1  0
 16 23  1  0
 16 17  2  0
 19 18  1  1
 19 20  1  0
 22 21  1  1
 21 19  1  0
 22 24  1  0
 23 22  1  0
 24 26  1  0
 25 24  2  0
M  END
$$$$
