LQL.pdb
     RDKit          3D

 26 25  0  0  1  0  0  0  0  0999 V2000
   29.1656  -19.4803  -16.4049 C   0  0  0  0  0  0  0  0  0  0  0  0
   27.7701  -18.8840  -16.4260 C   0  0  2  0  0  0  0  0  0  0  0  0
   27.6774  -17.8375  -17.5072 C   0  0  0  0  0  0  0  0  0  0  0  0
   27.3966  -18.3128  -15.0635 C   0  0  0  0  0  0  0  0  0  0  0  0
   27.5639  -19.4319  -14.0581 C   0  0  2  0  0  0  0  0  0  0  0  0
   27.0284  -20.6364  -14.6501 N   0  0  0  0  0  0  0  0  0  0  0  0
   26.8787  -19.1597  -12.7882 C   0  0  0  0  0  0  0  0  0  0  0  0
   26.9230  -18.0449  -12.1982 O   0  0  0  0  0  0  0  0  0  0  0  0
   21.5008  -21.8084  -11.4689 N   0  0  0  0  0  0  0  0  0  0  0  0
   21.7332  -21.0784  -10.2902 C   0  0  0  0  0  0  0  0  0  0  0  0
   20.7378  -20.9740   -9.4946 O   0  0  0  0  0  0  0  0  0  0  0  0
   23.0575  -20.4550   -9.9699 C   0  0  0  0  0  0  0  0  0  0  0  0
   23.9838  -20.7587  -11.1187 C   0  0  0  0  0  0  0  0  0  0  0  0
   25.2864  -20.0184  -11.0230 C   0  0  2  0  0  0  0  0  0  0  0  0
   26.1232  -20.1949  -12.1804 N   0  0  0  0  0  0  0  0  0  0  0  0
   26.0099  -20.5825   -9.8277 C   0  0  0  0  0  0  0  0  0  0  0  0
   26.3698  -21.7913   -9.8215 O   0  0  0  0  0  0  0  0  0  0  0  0
   28.3775  -21.0538   -5.1229 C   0  0  0  0  0  0  0  0  0  0  0  0
   28.7005  -19.7152   -5.7328 C   0  0  2  0  0  0  0  0  0  0  0  0
   28.7579  -18.6586   -4.7086 C   0  0  0  0  0  0  0  0  0  0  0  0
   27.9329  -19.3748   -6.9580 C   0  0  0  0  0  0  0  0  0  0  0  0
   27.0359  -20.3882   -7.5396 C   0  0  2  0  0  0  0  0  0  0  0  0
   26.3051  -19.7982   -8.6971 N   0  0  0  0  0  0  0  0  0  0  0  0
   26.1030  -21.1004   -6.6732 C   0  0  0  0  0  0  0  0  0  0  0  0
   24.9224  -20.8266   -6.4593 O   0  0  0  0  0  0  0  0  0  0  0  0
   26.6054  -22.2413   -5.9943 O   0  0  0  0  0  0  0  0  0  0  0  0
  2  1  1  1
  2  3  1  0
  2  4  1  0
  5  4  1  0
  5  7  1  0
  5  6  1  6
  7 15  1  0
  7  8  2  0
 10  9  1  0
 10 12  1  0
 11 10  2  0
 13 12  1  0
 14 13  1  6
 14 16  1  0
 15 14  1  0
 16 23  1  0
 16 17  2  0
 19 18  1  1
 19 20  1  0
 22 21  1  1
 21 19  1  0
 22 24  1  0
 23 22  1  0
 24 26  1  0
 25 24  2  0
M  END
$$$$
