LQL.pdb
     RDKit          3D

 26 25  0  0  1  0  0  0  0  0999 V2000
   18.8465  -25.9138  -10.3279 C   0  0  0  0  0  0  0  0  0  0  0  0
   18.6474  -24.4696   -9.9059 C   0  0  2  0  0  0  0  0  0  0  0  0
   19.8416  -23.6471  -10.3183 C   0  0  0  0  0  0  0  0  0  0  0  0
   18.3894  -24.3661   -8.4076 C   0  0  0  0  0  0  0  0  0  0  0  0
   17.1060  -25.1193   -8.1306 C   0  0  2  0  0  0  0  0  0  0  0  0
   16.0423  -24.4494   -8.8434 N   0  0  0  0  0  0  0  0  0  0  0  0
   16.7807  -25.1774   -6.6999 C   0  0  0  0  0  0  0  0  0  0  0  0
   16.4394  -24.1689   -6.0221 O   0  0  0  0  0  0  0  0  0  0  0  0
   13.4999  -27.3392   -2.5206 N   0  0  0  0  0  0  0  0  0  0  0  0
   13.1026  -26.9567   -3.8138 C   0  0  0  0  0  0  0  0  0  0  0  0
   11.9068  -26.5173   -3.9216 O   0  0  0  0  0  0  0  0  0  0  0  0
   14.0099  -27.0511   -5.0023 C   0  0  0  0  0  0  0  0  0  0  0  0
   15.3223  -27.6119   -4.5193 C   0  0  0  0  0  0  0  0  0  0  0  0
   16.4557  -26.6378   -4.6627 C   0  0  2  0  0  0  0  0  0  0  0  0
   16.8492  -26.4261   -6.0306 N   0  0  0  0  0  0  0  0  0  0  0  0
   17.6251  -27.2333   -3.9225 C   0  0  0  0  0  0  0  0  0  0  0  0
   18.6085  -27.6941   -4.5639 O   0  0  0  0  0  0  0  0  0  0  0  0
   20.4488  -28.4870    0.7356 C   0  0  0  0  0  0  0  0  0  0  0  0
   20.4971  -27.1571    0.0305 C   0  0  2  0  0  0  0  0  0  0  0  0
   20.9365  -26.0840    0.9383 C   0  0  0  0  0  0  0  0  0  0  0  0
   19.3115  -26.8393   -0.8058 C   0  0  0  0  0  0  0  0  0  0  0  0
   18.8729  -27.8159   -1.8178 C   0  0  2  0  0  0  0  0  0  0  0  0
   17.6633  -27.2964   -2.5171 N   0  0  0  0  0  0  0  0  0  0  0  0
   18.6634  -29.2059   -1.4279 C   0  0  0  0  0  0  0  0  0  0  0  0
   17.6418  -29.7052   -0.9572 O   0  0  0  0  0  0  0  0  0  0  0  0
   19.7577  -30.0919   -1.6080 O   0  0  0  0  0  0  0  0  0  0  0  0
  2  1  1  1
  2  3  1  0
  2  4  1  0
  5  4  1  0
  5  7  1  0
  5  6  1  6
  7 15  1  0
  7  8  2  0
 10  9  1  0
 10 12  1  0
 11 10  2  0
 13 12  1  0
 14 13  1  6
 14 16  1  0
 15 14  1  0
 16 23  1  0
 16 17  2  0
 19 18  1  1
 19 20  1  0
 22 21  1  1
 21 19  1  0
 22 24  1  0
 23 22  1  0
 24 26  1  0
 25 24  2  0
M  END
$$$$
