LQL.pdb
     RDKit          3D

 26 25  0  0  1  0  0  0  0  0999 V2000
   30.3364  -33.5597  -16.7089 C   0  0  0  0  0  0  0  0  0  0  0  0
   30.4188  -33.6310  -18.2228 C   0  0  2  0  0  0  0  0  0  0  0  0
   31.6616  -34.3796  -18.6325 C   0  0  0  0  0  0  0  0  0  0  0  0
   30.3771  -32.2388  -18.8409 C   0  0  0  0  0  0  0  0  0  0  0  0
   29.0763  -31.6022  -18.4003 C   0  0  2  0  0  0  0  0  0  0  0  0
   28.0075  -32.2316  -19.1416 N   0  0  0  0  0  0  0  0  0  0  0  0
   29.0488  -30.1522  -18.6302 C   0  0  0  0  0  0  0  0  0  0  0  0
   28.9562  -29.6306  -19.7758 O   0  0  0  0  0  0  0  0  0  0  0  0
   25.3415  -27.8025  -15.9804 N   0  0  0  0  0  0  0  0  0  0  0  0
   25.3951  -27.6025  -17.3709 C   0  0  0  0  0  0  0  0  0  0  0  0
   24.2797  -27.6911  -17.9894 O   0  0  0  0  0  0  0  0  0  0  0  0
   26.6701  -27.3035  -18.0988 C   0  0  0  0  0  0  0  0  0  0  0  0
   27.7748  -27.2809  -17.0745 C   0  0  0  0  0  0  0  0  0  0  0  0
   29.0633  -27.8439  -17.6005 C   0  0  2  0  0  0  0  0  0  0  0  0
   29.1296  -29.2789  -17.5154 N   0  0  0  0  0  0  0  0  0  0  0  0
   30.1606  -27.2695  -16.7425 C   0  0  0  0  0  0  0  0  0  0  0  0
   30.3311  -27.6965  -15.5680 O   0  0  0  0  0  0  0  0  0  0  0  0
   34.7464  -26.6865  -17.2522 C   0  0  0  0  0  0  0  0  0  0  0  0
   34.0018  -25.5740  -17.9423 C   0  0  2  0  0  0  0  0  0  0  0  0
   34.9178  -24.7040  -18.6991 C   0  0  0  0  0  0  0  0  0  0  0  0
   32.9977  -24.8686  -17.1057 C   0  0  0  0  0  0  0  0  0  0  0  0
   32.0494  -25.6662  -16.3090 C   0  0  2  0  0  0  0  0  0  0  0  0
   31.0185  -26.2564  -17.2095 N   0  0  0  0  0  0  0  0  0  0  0  0
   31.4075  -25.0637  -15.1458 C   0  0  0  0  0  0  0  0  0  0  0  0
   30.3725  -24.3983  -15.1232 O   0  0  0  0  0  0  0  0  0  0  0  0
   32.0422  -25.2617  -13.8917 O   0  0  0  0  0  0  0  0  0  0  0  0
  2  1  1  1
  2  3  1  0
  2  4  1  0
  5  4  1  0
  5  7  1  0
  5  6  1  6
  7 15  1  0
  7  8  2  0
 10  9  1  0
 10 12  1  0
 11 10  2  0
 13 12  1  0
 14 13  1  1
 14 16  1  0
 15 14  1  0
 16 23  1  0
 16 17  2  0
 19 18  1  1
 19 20  1  0
 22 21  1  6
 21 19  1  0
 22 24  1  0
 23 22  1  0
 24 26  1  0
 25 24  2  0
M  END
$$$$
