LQL.pdb
     RDKit          3D

 26 25  0  0  1  0  0  0  0  0999 V2000
   29.1221  -17.9857  -17.5609 C   0  0  0  0  0  0  0  0  0  0  0  0
   27.7231  -17.4540  -17.3085 C   0  0  2  0  0  0  0  0  0  0  0  0
   27.4812  -16.2294  -18.1538 C   0  0  0  0  0  0  0  0  0  0  0  0
   27.5056  -17.1622  -15.8288 C   0  0  0  0  0  0  0  0  0  0  0  0
   27.6474  -18.4794  -15.0965 C   0  0  2  0  0  0  0  0  0  0  0  0
   27.3005  -19.5342  -16.0213 N   0  0  0  0  0  0  0  0  0  0  0  0
   26.7883  -18.5626  -13.9087 C   0  0  0  0  0  0  0  0  0  0  0  0
   26.6953  -17.6415  -13.0508 O   0  0  0  0  0  0  0  0  0  0  0  0
   21.4107  -21.0338  -13.8437 N   0  0  0  0  0  0  0  0  0  0  0  0
   21.6326  -21.1397  -12.4596 C   0  0  0  0  0  0  0  0  0  0  0  0
   20.5867  -21.2741  -11.7367 O   0  0  0  0  0  0  0  0  0  0  0  0
   23.0017  -21.0998  -11.8522 C   0  0  0  0  0  0  0  0  0  0  0  0
   23.9843  -20.9049  -12.9776 C   0  0  0  0  0  0  0  0  0  0  0  0
   25.0424  -19.8906  -12.6528 C   0  0  2  0  0  0  0  0  0  0  0  0
   26.0161  -19.7341  -13.7008 N   0  0  0  0  0  0  0  0  0  0  0  0
   25.7512  -20.3938  -11.4221 C   0  0  0  0  0  0  0  0  0  0  0  0
   26.4929  -21.4115  -11.4937 O   0  0  0  0  0  0  0  0  0  0  0  0
   28.1298  -18.5736   -6.1281 C   0  0  0  0  0  0  0  0  0  0  0  0
   27.7902  -19.7223   -7.0409 C   0  0  2  0  0  0  0  0  0  0  0  0
   28.9375  -20.6296   -7.2115 C   0  0  0  0  0  0  0  0  0  0  0  0
   27.0798  -19.3503   -8.2911 C   0  0  0  0  0  0  0  0  0  0  0  0
   26.2322  -20.3566   -8.9536 C   0  0  2  0  0  0  0  0  0  0  0  0
   25.6152  -19.7606  -10.1727 N   0  0  0  0  0  0  0  0  0  0  0  0
   25.2183  -21.0619   -8.1772 C   0  0  0  0  0  0  0  0  0  0  0  0
   24.0002  -20.8894   -8.2052 O   0  0  0  0  0  0  0  0  0  0  0  0
   25.6801  -22.0638   -7.2839 O   0  0  0  0  0  0  0  0  0  0  0  0
  2  1  1  1
  2  3  1  0
  2  4  1  0
  5  4  1  0
  5  7  1  0
  5  6  1  6
  7 15  1  0
  7  8  2  0
 10  9  1  0
 10 12  1  0
 11 10  2  0
 13 12  1  0
 14 13  1  6
 14 16  1  0
 15 14  1  0
 16 23  1  0
 16 17  2  0
 19 18  1  6
 19 20  1  0
 22 21  1  1
 21 19  1  0
 22 24  1  0
 23 22  1  0
 24 26  1  0
 25 24  2  0
M  END
$$$$
