IGR.pdb
     RDKit          3D

 24 23  0  0  1  0  0  0  0  0999 V2000
    6.9688  -10.6131   26.8411 C   0  0  0  0  0  0  0  0  0  0  0  0
    5.9441  -11.6653   26.5359 C   0  0  0  0  0  0  0  0  0  0  0  0
    6.4818  -13.0701   26.6593 C   0  0  2  0  0  0  0  0  0  0  0  0
    7.2504  -13.2248   27.9326 C   0  0  0  0  0  0  0  0  0  0  0  0
    7.3128  -13.3716   25.4275 C   0  0  2  0  0  0  0  0  0  0  0  0
    6.4805  -13.1379   24.2255 N   0  0  0  0  0  0  0  0  0  0  0  0
    7.6508  -14.8114   25.4408 C   0  0  0  0  0  0  0  0  0  0  0  0
    6.7535  -15.6477   25.0929 O   0  0  0  0  0  0  0  0  0  0  0  0
    8.9006  -15.3549   25.8084 N   0  0  0  0  0  0  0  0  0  0  0  0
    9.0953  -16.7883   25.8837 C   0  0  0  0  0  0  0  0  0  0  0  0
    9.8974  -17.2222   24.7129 C   0  0  0  0  0  0  0  0  0  0  0  0
   10.3192  -18.3940   24.6460 O   0  0  0  0  0  0  0  0  0  0  0  0
    7.0263  -13.0537   19.6121 N   0  0  0  0  0  0  0  0  0  0  0  0
    7.8946  -13.7302   18.6970 C   0  0  0  0  0  0  0  0  0  0  0  0
    7.9400  -13.3395   17.4740 N   0  0  0  0  0  0  0  0  0  0  0  0
    8.6776  -14.8143   19.1792 N   0  0  0  0  0  0  0  0  0  0  0  0
    8.2394  -15.5028   20.3638 C   0  0  0  0  0  0  0  0  0  0  0  0
    9.1884  -16.5797   20.7431 C   0  0  0  0  0  0  0  0  0  0  0  0
   10.5170  -16.1679   21.2498 C   0  0  0  0  0  0  0  0  0  0  0  0
   10.9832  -16.8222   22.5124 C   0  0  2  0  0  0  0  0  0  0  0  0
   10.2138  -16.3469   23.6422 N   0  0  0  0  0  0  0  0  0  0  0  0
   12.4281  -16.7795   22.7525 C   0  0  0  0  0  0  0  0  0  0  0  0
   12.9062  -16.2416   23.7973 O   0  0  0  0  0  0  0  0  0  0  0  0
   13.3241  -17.3230   21.8531 O   0  0  0  0  0  0  0  0  0  0  0  0
  2  1  1  0
  2  3  1  0
  3  5  1  0
  3  4  1  1
  5  7  1  0
  5  6  1  6
  7  9  1  0
  8  7  2  0
  9 10  1  0
 11 12  2  0
 11 10  1  0
 14 13  1  0
 14 15  2  0
 16 14  1  0
 17 16  1  0
 18 17  1  0
 18 19  1  0
 20 19  1  6
 20 21  1  0
 21 11  1  0
 22 20  1  0
 22 24  1  0
 23 22  2  0
M  END
$$$$
