IGR.pdb
     RDKit          3D

 24 23  0  0  1  0  0  0  0  0999 V2000
    6.2508  -11.1677   27.8336 C   0  0  0  0  0  0  0  0  0  0  0  0
    6.0484  -12.5384   27.2586 C   0  0  0  0  0  0  0  0  0  0  0  0
    7.0210  -12.8668   26.1523 C   0  0  2  0  0  0  0  0  0  0  0  0
    6.9799  -11.8137   25.0915 C   0  0  0  0  0  0  0  0  0  0  0  0
    6.6923  -14.2497   25.6246 C   0  0  2  0  0  0  0  0  0  0  0  0
    6.7474  -15.2114   26.7490 N   0  0  0  0  0  0  0  0  0  0  0  0
    7.7532  -14.6436   24.6722 C   0  0  0  0  0  0  0  0  0  0  0  0
    8.9167  -14.8927   25.1302 O   0  0  0  0  0  0  0  0  0  0  0  0
    7.5919  -14.7735   23.2759 N   0  0  0  0  0  0  0  0  0  0  0  0
    8.7192  -14.6199   22.3794 C   0  0  0  0  0  0  0  0  0  0  0  0
    9.3205  -15.9550   22.1373 C   0  0  0  0  0  0  0  0  0  0  0  0
    8.9762  -16.9295   22.8353 O   0  0  0  0  0  0  0  0  0  0  0  0
    9.0821  -13.3378   18.7970 N   0  0  0  0  0  0  0  0  0  0  0  0
    8.6208  -13.9672   17.5971 C   0  0  0  0  0  0  0  0  0  0  0  0
    7.6160  -13.4643   16.9743 N   0  0  0  0  0  0  0  0  0  0  0  0
    9.2959  -15.1310   17.1380 N   0  0  0  0  0  0  0  0  0  0  0  0
   10.3509  -15.6767   17.9496 C   0  0  0  0  0  0  0  0  0  0  0  0
    9.9931  -17.0222   18.4649 C   0  0  0  0  0  0  0  0  0  0  0  0
   10.9654  -17.6878   19.3611 C   0  0  0  0  0  0  0  0  0  0  0  0
   10.7411  -17.5227   20.8314 C   0  0  2  0  0  0  0  0  0  0  0  0
   10.2903  -16.1795   21.1265 N   0  0  0  0  0  0  0  0  0  0  0  0
   11.8456  -17.9519   21.6933 C   0  0  0  0  0  0  0  0  0  0  0  0
   12.3517  -19.1104   21.5871 O   0  0  0  0  0  0  0  0  0  0  0  0
   12.3787  -17.1134   22.6524 O   0  0  0  0  0  0  0  0  0  0  0  0
  2  1  1  0
  2  3  1  0
  3  5  1  0
  3  4  1  6
  5  7  1  0
  5  6  1  1
  7  9  1  0
  8  7  2  0
  9 10  1  0
 11 12  2  0
 11 10  1  0
 14 13  1  0
 14 15  2  0
 16 14  1  0
 17 16  1  0
 18 17  1  0
 18 19  1  0
 20 19  1  6
 20 21  1  0
 21 11  1  0
 22 20  1  0
 22 24  1  0
 23 22  2  0
M  END
$$$$
