IGR.pdb
     RDKit          3D

 24 23  0  0  1  0  0  0  0  0999 V2000
    7.1862  -10.8408   27.1143 C   0  0  0  0  0  0  0  0  0  0  0  0
    7.6362  -12.2714   27.1447 C   0  0  0  0  0  0  0  0  0  0  0  0
    6.9252  -13.1382   26.1342 C   0  0  2  0  0  0  0  0  0  0  0  0
    5.4562  -13.1659   26.4122 C   0  0  0  0  0  0  0  0  0  0  0  0
    7.5573  -14.5161   26.1605 C   0  0  2  0  0  0  0  0  0  0  0  0
    9.0222  -14.3686   26.0035 N   0  0  0  0  0  0  0  0  0  0  0  0
    7.0740  -15.2673   24.9816 C   0  0  0  0  0  0  0  0  0  0  0  0
    6.2578  -16.2289   25.1687 O   0  0  0  0  0  0  0  0  0  0  0  0
    7.4390  -15.0109   23.6424 N   0  0  0  0  0  0  0  0  0  0  0  0
    6.9192  -15.8229   22.5613 C   0  0  0  0  0  0  0  0  0  0  0  0
    7.9949  -16.7281   22.0858 C   0  0  0  0  0  0  0  0  0  0  0  0
    7.7215  -17.6705   21.3160 O   0  0  0  0  0  0  0  0  0  0  0  0
    7.3067  -14.4005   18.0239 N   0  0  0  0  0  0  0  0  0  0  0  0
    8.5779  -13.7438   17.9843 C   0  0  0  0  0  0  0  0  0  0  0  0
    8.6250  -12.4895   17.7104 N   0  0  0  0  0  0  0  0  0  0  0  0
    9.7460  -14.5089   18.2511 N   0  0  0  0  0  0  0  0  0  0  0  0
    9.6593  -15.9427   18.1726 C   0  0  0  0  0  0  0  0  0  0  0  0
    9.4526  -16.5441   19.5140 C   0  0  0  0  0  0  0  0  0  0  0  0
   10.6225  -16.6062   20.4190 C   0  0  0  0  0  0  0  0  0  0  0  0
   10.4029  -17.2490   21.7525 C   0  0  2  0  0  0  0  0  0  0  0  0
    9.3497  -16.5681   22.4748 N   0  0  0  0  0  0  0  0  0  0  0  0
   11.6060  -17.4532   22.5637 C   0  0  0  0  0  0  0  0  0  0  0  0
   12.4362  -18.3726   22.2902 O   0  0  0  0  0  0  0  0  0  0  0  0
   11.8832  -16.6534   23.6549 O   0  0  0  0  0  0  0  0  0  0  0  0
  2  1  1  0
  2  3  1  0
  3  5  1  0
  3  4  1  1
  5  7  1  0
  5  6  1  6
  7  9  1  0
  8  7  2  0
  9 10  1  0
 11 12  2  0
 11 10  1  0
 14 13  1  0
 14 15  2  0
 16 14  1  0
 17 16  1  0
 18 17  1  0
 18 19  1  0
 20 19  1  6
 20 21  1  0
 21 11  1  0
 22 20  1  0
 22 24  1  0
 23 22  2  0
M  END
$$$$
