IGR.pdb
     RDKit          3D

 24 23  0  0  1  0  0  0  0  0999 V2000
    8.7800  -11.1363   19.4945 C   0  0  0  0  0  0  0  0  0  0  0  0
    9.0658  -12.6087   19.5195 C   0  0  0  0  0  0  0  0  0  0  0  0
    8.1876  -13.3669   20.4848 C   0  0  2  0  0  0  0  0  0  0  0  0
    8.3579  -12.8364   21.8724 C   0  0  0  0  0  0  0  0  0  0  0  0
    8.5190  -14.8421   20.3718 C   0  0  2  0  0  0  0  0  0  0  0  0
    8.3582  -15.2571   18.9596 N   0  0  0  0  0  0  0  0  0  0  0  0
    7.5205  -15.6001   21.1569 C   0  0  0  0  0  0  0  0  0  0  0  0
    6.3660  -15.7874   20.6493 O   0  0  0  0  0  0  0  0  0  0  0  0
    7.7336  -16.1474   22.4404 N   0  0  0  0  0  0  0  0  0  0  0  0
    6.6710  -16.8409   23.1391 C   0  0  0  0  0  0  0  0  0  0  0  0
    7.2107  -17.3800   24.4122 C   0  0  0  0  0  0  0  0  0  0  0  0
    8.1027  -16.7588   25.0238 O   0  0  0  0  0  0  0  0  0  0  0  0
    5.3099  -24.5049   29.4887 N   0  0  0  0  0  0  0  0  0  0  0  0
    6.4317  -23.8901   30.1309 C   0  0  0  0  0  0  0  0  0  0  0  0
    6.8690  -24.3848   31.2330 N   0  0  0  0  0  0  0  0  0  0  0  0
    7.0221  -22.7497   29.5213 N   0  0  0  0  0  0  0  0  0  0  0  0
    6.4014  -22.2027   28.3444 C   0  0  0  0  0  0  0  0  0  0  0  0
    7.0667  -20.9456   27.9192 C   0  0  0  0  0  0  0  0  0  0  0  0
    6.5492  -20.2802   26.7023 C   0  0  0  0  0  0  0  0  0  0  0  0
    7.3012  -19.0768   26.2271 C   0  0  2  0  0  0  0  0  0  0  0  0
    6.7492  -18.5961   24.9786 N   0  0  0  0  0  0  0  0  0  0  0  0
    8.7593  -19.2160   26.1857 C   0  0  0  0  0  0  0  0  0  0  0  0
    9.4807  -18.8832   27.1748 O   0  0  0  0  0  0  0  0  0  0  0  0
    9.4040  -19.7149   25.0709 O   0  0  0  0  0  0  0  0  0  0  0  0
  2  1  1  0
  2  3  1  0
  3  5  1  0
  3  4  1  1
  5  7  1  0
  5  6  1  6
  7  9  1  0
  8  7  2  0
  9 10  1  0
 11 12  2  0
 11 10  1  0
 14 13  1  0
 14 15  2  0
 16 14  1  0
 17 16  1  0
 18 17  1  0
 18 19  1  0
 20 19  1  6
 20 21  1  0
 21 11  1  0
 22 20  1  0
 22 24  1  0
 23 22  2  0
M  END
$$$$
