IGR.pdb
     RDKit          3D

 24 23  0  0  1  0  0  0  0  0999 V2000
    6.8630  -12.4495   18.7001 C   0  0  0  0  0  0  0  0  0  0  0  0
    7.7505  -12.3273   19.9033 C   0  0  0  0  0  0  0  0  0  0  0  0
    8.1075  -13.6602   20.5147 C   0  0  2  0  0  0  0  0  0  0  0  0
    8.8694  -13.4638   21.7863 C   0  0  0  0  0  0  0  0  0  0  0  0
    8.8749  -14.4660   19.4849 C   0  0  2  0  0  0  0  0  0  0  0  0
    7.9859  -14.7289   18.3304 N   0  0  0  0  0  0  0  0  0  0  0  0
    9.2038  -15.7797   20.0796 C   0  0  0  0  0  0  0  0  0  0  0  0
    8.2600  -16.6188   20.2552 O   0  0  0  0  0  0  0  0  0  0  0  0
   10.4921  -16.1985   20.4764 N   0  0  0  0  0  0  0  0  0  0  0  0
   10.7122  -17.5298   21.0029 C   0  0  0  0  0  0  0  0  0  0  0  0
   11.2674  -17.4138   22.3744 C   0  0  0  0  0  0  0  0  0  0  0  0
   11.2708  -16.3095   22.9541 O   0  0  0  0  0  0  0  0  0  0  0  0
   13.6010  -20.1051   29.2923 N   0  0  0  0  0  0  0  0  0  0  0  0
   12.3354  -20.7289   29.5328 C   0  0  0  0  0  0  0  0  0  0  0  0
   11.9829  -20.9809   30.7422 N   0  0  0  0  0  0  0  0  0  0  0  0
   11.5126  -21.0473   28.4181 N   0  0  0  0  0  0  0  0  0  0  0  0
   12.1131  -21.0865   27.1116 C   0  0  0  0  0  0  0  0  0  0  0  0
   11.9699  -19.7841   26.4136 C   0  0  0  0  0  0  0  0  0  0  0  0
   12.5667  -19.6666   25.0640 C   0  0  0  0  0  0  0  0  0  0  0  0
   12.4095  -18.3469   24.3760 C   0  0  2  0  0  0  0  0  0  0  0  0
   11.8065  -18.5250   23.0724 N   0  0  0  0  0  0  0  0  0  0  0  0
   13.6088  -17.5061   24.3355 C   0  0  0  0  0  0  0  0  0  0  0  0
   14.2676  -17.3503   23.2625 O   0  0  0  0  0  0  0  0  0  0  0  0
   14.0675  -16.8508   25.4613 O   0  0  0  0  0  0  0  0  0  0  0  0
  2  1  1  0
  2  3  1  0
  3  5  1  0
  3  4  1  1
  5  7  1  0
  5  6  1  6
  7  9  1  0
  8  7  2  0
  9 10  1  0
 11 12  2  0
 11 10  1  0
 14 13  1  0
 14 15  2  0
 16 14  1  0
 17 16  1  0
 18 17  1  0
 18 19  1  0
 20 19  1  6
 20 21  1  0
 21 11  1  0
 22 20  1  0
 22 24  1  0
 23 22  2  0
M  END
$$$$
