IGR.pdb
     RDKit          3D

 24 23  0  0  1  0  0  0  0  0999 V2000
    5.8696  -10.4008   27.3068 C   0  0  0  0  0  0  0  0  0  0  0  0
    6.9705  -11.3086   26.8442 C   0  0  0  0  0  0  0  0  0  0  0  0
    6.4774  -12.6708   26.4211 C   0  0  2  0  0  0  0  0  0  0  0  0
    5.7051  -13.3134   27.5287 C   0  0  0  0  0  0  0  0  0  0  0  0
    7.6719  -13.4935   25.9794 C   0  0  2  0  0  0  0  0  0  0  0  0
    8.3681  -12.7712   24.8904 N   0  0  0  0  0  0  0  0  0  0  0  0
    7.1712  -14.7595   25.4015 C   0  0  0  0  0  0  0  0  0  0  0  0
    6.6867  -14.7376   24.2224 O   0  0  0  0  0  0  0  0  0  0  0  0
    7.1826  -16.0145   26.0476 N   0  0  0  0  0  0  0  0  0  0  0  0
    6.6645  -17.1955   25.3880 C   0  0  0  0  0  0  0  0  0  0  0  0
    7.7139  -17.7385   24.4900 C   0  0  0  0  0  0  0  0  0  0  0  0
    7.5091  -18.7948   23.8592 O   0  0  0  0  0  0  0  0  0  0  0  0
    9.4102  -13.1023   18.6643 N   0  0  0  0  0  0  0  0  0  0  0  0
    8.2643  -13.9595   18.6938 C   0  0  0  0  0  0  0  0  0  0  0  0
    7.3283  -13.7811   17.8321 N   0  0  0  0  0  0  0  0  0  0  0  0
    8.2057  -14.9810   19.6808 N   0  0  0  0  0  0  0  0  0  0  0  0
    9.3739  -15.2269   20.4833 C   0  0  0  0  0  0  0  0  0  0  0  0
    9.1510  -16.3486   21.4299 C   0  0  0  0  0  0  0  0  0  0  0  0
   10.2771  -16.7271   22.3131 C   0  0  0  0  0  0  0  0  0  0  0  0
    9.9622  -17.6712   23.4307 C   0  0  2  0  0  0  0  0  0  0  0  0
    8.9672  -17.0980   24.3116 N   0  0  0  0  0  0  0  0  0  0  0  0
   11.1189  -18.2057   24.1541 C   0  0  0  0  0  0  0  0  0  0  0  0
   12.0526  -18.8125   23.5462 O   0  0  0  0  0  0  0  0  0  0  0  0
   11.2384  -18.0691   25.5231 O   0  0  0  0  0  0  0  0  0  0  0  0
  2  1  1  0
  2  3  1  0
  3  5  1  0
  3  4  1  1
  5  7  1  0
  5  6  1  6
  7  9  1  0
  8  7  2  0
  9 10  1  0
 11 12  2  0
 11 10  1  0
 14 13  1  0
 14 15  2  0
 16 14  1  0
 17 16  1  0
 18 17  1  0
 18 19  1  0
 20 19  1  6
 20 21  1  0
 21 11  1  0
 22 20  1  0
 22 24  1  0
 23 22  2  0
M  END
$$$$
