IGR.pdb
     RDKit          3D

 24 23  0  0  1  0  0  0  0  0999 V2000
   11.0886  -15.3903   17.7622 C   0  0  0  0  0  0  0  0  0  0  0  0
    9.7260  -14.8154   18.0132 C   0  0  0  0  0  0  0  0  0  0  0  0
    9.4270  -14.6168   19.4791 C   0  0  2  0  0  0  0  0  0  0  0  0
    9.6064  -15.8994   20.2267 C   0  0  0  0  0  0  0  0  0  0  0  0
    8.0266  -14.0499   19.6067 C   0  0  2  0  0  0  0  0  0  0  0  0
    7.9378  -12.8182   18.7897 N   0  0  0  0  0  0  0  0  0  0  0  0
    7.8197  -13.6455   21.0143 C   0  0  0  0  0  0  0  0  0  0  0  0
    8.4471  -12.6247   21.4500 O   0  0  0  0  0  0  0  0  0  0  0  0
    6.9734  -14.2977   21.9367 N   0  0  0  0  0  0  0  0  0  0  0  0
    6.8108  -13.7912   23.2841 C   0  0  0  0  0  0  0  0  0  0  0  0
    7.6775  -14.5779   24.1965 C   0  0  0  0  0  0  0  0  0  0  0  0
    7.6869  -14.3266   25.4181 O   0  0  0  0  0  0  0  0  0  0  0  0
    5.2563  -21.2117   23.7755 N   0  0  0  0  0  0  0  0  0  0  0  0
    6.0079  -20.7085   22.6662 C   0  0  0  0  0  0  0  0  0  0  0  0
    5.5316  -20.8351   21.4798 N   0  0  0  0  0  0  0  0  0  0  0  0
    7.2596  -20.0845   22.9212 N   0  0  0  0  0  0  0  0  0  0  0  0
    7.6567  -19.8777   24.2883 C   0  0  0  0  0  0  0  0  0  0  0  0
    7.8257  -18.4335   24.5875 C   0  0  0  0  0  0  0  0  0  0  0  0
    9.1752  -17.8539   24.4019 C   0  0  0  0  0  0  0  0  0  0  0  0
    9.3156  -16.3879   24.6675 C   0  0  2  0  0  0  0  0  0  0  0  0
    8.5144  -15.6258   23.7338 N   0  0  0  0  0  0  0  0  0  0  0  0
   10.6902  -15.8912   24.7718 C   0  0  0  0  0  0  0  0  0  0  0  0
   11.2205  -15.2202   23.8348 O   0  0  0  0  0  0  0  0  0  0  0  0
   11.4604  -16.1327   25.8924 O   0  0  0  0  0  0  0  0  0  0  0  0
  2  1  1  0
  2  3  1  0
  3  5  1  0
  3  4  1  1
  5  7  1  0
  5  6  1  6
  7  9  1  0
  8  7  2  0
  9 10  1  0
 11 12  2  0
 11 10  1  0
 14 13  1  0
 14 15  2  0
 16 14  1  0
 17 16  1  0
 18 17  1  0
 18 19  1  0
 20 19  1  6
 20 21  1  0
 21 11  1  0
 22 20  1  0
 22 24  1  0
 23 22  2  0
M  END
$$$$
