IGR.pdb
     RDKit          3D

 24 23  0  0  1  0  0  0  0  0999 V2000
    6.2481  -10.9225   27.8641 C   0  0  0  0  0  0  0  0  0  0  0  0
    5.9390  -12.2089   27.1572 C   0  0  0  0  0  0  0  0  0  0  0  0
    7.1073  -12.7471   26.3676 C   0  0  2  0  0  0  0  0  0  0  0  0
    7.5978  -11.7212   25.3966 C   0  0  0  0  0  0  0  0  0  0  0  0
    6.6749  -14.0361   25.6967 C   0  0  2  0  0  0  0  0  0  0  0  0
    6.3880  -15.0425   26.7442 N   0  0  0  0  0  0  0  0  0  0  0  0
    7.8163  -14.5512   24.9095 C   0  0  0  0  0  0  0  0  0  0  0  0
    8.0655  -14.0137   23.7806 O   0  0  0  0  0  0  0  0  0  0  0  0
    8.6727  -15.6023   25.3022 N   0  0  0  0  0  0  0  0  0  0  0  0
    9.8714  -15.9064   24.5479 C   0  0  0  0  0  0  0  0  0  0  0  0
    9.4951  -16.7135   23.3606 C   0  0  0  0  0  0  0  0  0  0  0  0
    8.4803  -17.4377   23.3955 O   0  0  0  0  0  0  0  0  0  0  0  0
    8.1845  -12.6060   18.8174 N   0  0  0  0  0  0  0  0  0  0  0  0
    8.3377  -13.6654   17.8671 C   0  0  0  0  0  0  0  0  0  0  0  0
    8.7515  -13.3876   16.6830 N   0  0  0  0  0  0  0  0  0  0  0  0
    8.0243  -14.9915   18.2723 N   0  0  0  0  0  0  0  0  0  0  0  0
    7.3343  -15.1822   19.5200 C   0  0  0  0  0  0  0  0  0  0  0  0
    8.2084  -15.8393   20.5241 C   0  0  0  0  0  0  0  0  0  0  0  0
    9.1020  -16.9182   20.0456 C   0  0  0  0  0  0  0  0  0  0  0  0
    9.9307  -17.6091   21.0826 C   0  0  2  0  0  0  0  0  0  0  0  0
   10.2526  -16.6994   22.1612 N   0  0  0  0  0  0  0  0  0  0  0  0
   11.1034  -18.3298   20.5802 C   0  0  0  0  0  0  0  0  0  0  0  0
   12.2751  -18.0268   20.9604 O   0  0  0  0  0  0  0  0  0  0  0  0
   10.9791  -19.3660   19.6757 O   0  0  0  0  0  0  0  0  0  0  0  0
  2  1  1  0
  2  3  1  0
  3  5  1  0
  3  4  1  6
  5  7  1  0
  5  6  1  1
  7  9  1  0
  8  7  2  0
  9 10  1  0
 11 12  2  0
 11 10  1  0
 14 13  1  0
 14 15  2  0
 16 14  1  0
 17 16  1  0
 18 17  1  0
 18 19  1  0
 20 19  1  6
 20 21  1  0
 21 11  1  0
 22 20  1  0
 22 24  1  0
 23 22  2  0
M  END
$$$$
