IGR.pdb
     RDKit          3D

 24 23  0  0  1  0  0  0  0  0999 V2000
    6.7620  -12.3162   18.6785 C   0  0  0  0  0  0  0  0  0  0  0  0
    7.6938  -13.4796   18.8470 C   0  0  0  0  0  0  0  0  0  0  0  0
    7.8127  -13.9415   20.2788 C   0  0  2  0  0  0  0  0  0  0  0  0
    8.1943  -12.7996   21.1656 C   0  0  0  0  0  0  0  0  0  0  0  0
    8.8063  -15.0857   20.3289 C   0  0  2  0  0  0  0  0  0  0  0  0
    8.3279  -16.1680   19.4389 N   0  0  0  0  0  0  0  0  0  0  0  0
    8.8107  -15.6323   21.7032 C   0  0  0  0  0  0  0  0  0  0  0  0
    7.9355  -16.5071   22.0102 O   0  0  0  0  0  0  0  0  0  0  0  0
    9.7140  -15.2688   22.7252 N   0  0  0  0  0  0  0  0  0  0  0  0
    9.6941  -15.9397   24.0088 C   0  0  0  0  0  0  0  0  0  0  0  0
   10.9353  -16.7418   24.1463 C   0  0  0  0  0  0  0  0  0  0  0  0
   11.1701  -17.3494   25.2098 O   0  0  0  0  0  0  0  0  0  0  0  0
   11.0150  -19.0337   17.5090 N   0  0  0  0  0  0  0  0  0  0  0  0
   10.1526  -19.7552   18.3948 C   0  0  0  0  0  0  0  0  0  0  0  0
    8.9520  -20.0183   18.0211 N   0  0  0  0  0  0  0  0  0  0  0  0
   10.6606  -20.1551   19.6608 N   0  0  0  0  0  0  0  0  0  0  0  0
   11.9408  -19.6481   20.0772 C   0  0  0  0  0  0  0  0  0  0  0  0
   11.8830  -19.1083   21.4589 C   0  0  0  0  0  0  0  0  0  0  0  0
   13.1505  -18.6300   22.0558 C   0  0  0  0  0  0  0  0  0  0  0  0
   13.0315  -17.7279   23.2439 C   0  0  2  0  0  0  0  0  0  0  0  0
   11.8883  -16.8520   23.1012 N   0  0  0  0  0  0  0  0  0  0  0  0
   14.2523  -17.0097   23.6193 C   0  0  0  0  0  0  0  0  0  0  0  0
   15.3179  -17.6319   23.9138 O   0  0  0  0  0  0  0  0  0  0  0  0
   14.2909  -15.6300   23.6661 O   0  0  0  0  0  0  0  0  0  0  0  0
  2  1  1  0
  2  3  1  0
  3  5  1  0
  3  4  1  1
  5  7  1  0
  5  6  1  6
  7  9  1  0
  8  7  2  0
  9 10  1  0
 11 12  2  0
 11 10  1  0
 14 13  1  0
 14 15  2  0
 16 14  1  0
 17 16  1  0
 18 17  1  0
 18 19  1  0
 20 19  1  6
 20 21  1  0
 21 11  1  0
 22 20  1  0
 22 24  1  0
 23 22  2  0
M  END
$$$$
