IGR.pdb
     RDKit          3D

 24 23  0  0  1  0  0  0  0  0999 V2000
    5.9099  -11.7490   27.1002 C   0  0  0  0  0  0  0  0  0  0  0  0
    5.8884  -13.0474   26.3491 C   0  0  0  0  0  0  0  0  0  0  0  0
    7.2200  -13.3966   25.7304 C   0  0  2  0  0  0  0  0  0  0  0  0
    7.6237  -12.3538   24.7376 C   0  0  0  0  0  0  0  0  0  0  0  0
    7.1137  -14.7813   25.1221 C   0  0  2  0  0  0  0  0  0  0  0  0
    6.6330  -15.7199   26.1615 N   0  0  0  0  0  0  0  0  0  0  0  0
    8.4731  -15.2232   24.7420 C   0  0  0  0  0  0  0  0  0  0  0  0
    9.3746  -15.2532   25.6432 O   0  0  0  0  0  0  0  0  0  0  0  0
    8.8709  -15.6246   23.4486 N   0  0  0  0  0  0  0  0  0  0  0  0
   10.2425  -16.0023   23.1758 C   0  0  0  0  0  0  0  0  0  0  0  0
   10.5096  -17.3171   23.8103 C   0  0  0  0  0  0  0  0  0  0  0  0
   11.1686  -18.1818   23.1990 O   0  0  0  0  0  0  0  0  0  0  0  0
   13.8587  -19.1669   30.1949 N   0  0  0  0  0  0  0  0  0  0  0  0
   12.8870  -20.0742   30.7254 C   0  0  0  0  0  0  0  0  0  0  0  0
   12.9932  -20.4598   31.9463 N   0  0  0  0  0  0  0  0  0  0  0  0
   11.8359  -20.5162   29.8764 N   0  0  0  0  0  0  0  0  0  0  0  0
   11.9951  -20.3684   28.4544 C   0  0  0  0  0  0  0  0  0  0  0  0
   11.5215  -19.0387   27.9946 C   0  0  0  0  0  0  0  0  0  0  0  0
   11.6452  -18.7345   26.5511 C   0  0  0  0  0  0  0  0  0  0  0  0
   10.4087  -18.9003   25.7246 C   0  0  2  0  0  0  0  0  0  0  0  0
   10.0400  -17.6436   25.1086 N   0  0  0  0  0  0  0  0  0  0  0  0
    9.2818  -19.5553   26.3939 C   0  0  0  0  0  0  0  0  0  0  0  0
    8.4180  -18.8848   27.0372 O   0  0  0  0  0  0  0  0  0  0  0  0
    9.1155  -20.9256   26.3498 O   0  0  0  0  0  0  0  0  0  0  0  0
  2  1  1  0
  2  3  1  0
  3  5  1  0
  3  4  1  6
  5  7  1  0
  5  6  1  1
  7  9  1  0
  8  7  2  0
  9 10  1  0
 11 12  2  0
 11 10  1  0
 14 13  1  0
 14 15  2  0
 16 14  1  0
 17 16  1  0
 18 17  1  0
 18 19  1  0
 20 19  1  1
 20 21  1  0
 21 11  1  0
 22 20  1  0
 22 24  1  0
 23 22  2  0
M  END
$$$$
