IGR.pdb
     RDKit          3D

 24 23  0  0  1  0  0  0  0  0999 V2000
    7.2264  -13.9543   21.8052 C   0  0  0  0  0  0  0  0  0  0  0  0
    7.7001  -14.3575   20.4403 C   0  0  0  0  0  0  0  0  0  0  0  0
    8.9051  -13.5763   19.9760 C   0  0  2  0  0  0  0  0  0  0  0  0
    8.6334  -12.1075   20.0461 C   0  0  0  0  0  0  0  0  0  0  0  0
    9.2666  -14.0440   18.5799 C   0  0  2  0  0  0  0  0  0  0  0  0
    8.1355  -13.7453   17.6723 N   0  0  0  0  0  0  0  0  0  0  0  0
    9.4137  -15.5154   18.6105 C   0  0  0  0  0  0  0  0  0  0  0  0
    8.7511  -16.2083   17.7700 O   0  0  0  0  0  0  0  0  0  0  0  0
   10.2381  -16.2366   19.5009 N   0  0  0  0  0  0  0  0  0  0  0  0
   11.6761  -16.2619   19.3283 C   0  0  0  0  0  0  0  0  0  0  0  0
   12.3169  -16.2415   20.6668 C   0  0  0  0  0  0  0  0  0  0  0  0
   13.4922  -15.8423   20.7891 O   0  0  0  0  0  0  0  0  0  0  0  0
    6.5964  -19.0566   24.3974 N   0  0  0  0  0  0  0  0  0  0  0  0
    6.3980  -17.9559   23.5042 C   0  0  0  0  0  0  0  0  0  0  0  0
    5.2944  -17.8716   22.8519 N   0  0  0  0  0  0  0  0  0  0  0  0
    7.4355  -16.9929   23.3723 N   0  0  0  0  0  0  0  0  0  0  0  0
    8.7406  -17.3168   23.8833 C   0  0  0  0  0  0  0  0  0  0  0  0
    9.6916  -16.1948   23.6821 C   0  0  0  0  0  0  0  0  0  0  0  0
   11.0756  -16.3800   24.1738 C   0  0  0  0  0  0  0  0  0  0  0  0
   12.1627  -16.3278   23.1467 C   0  0  2  0  0  0  0  0  0  0  0  0
   11.6400  -16.6642   21.8397 N   0  0  0  0  0  0  0  0  0  0  0  0
   13.3830  -17.0688   23.4768 C   0  0  0  0  0  0  0  0  0  0  0  0
   13.7900  -18.0247   22.7488 O   0  0  0  0  0  0  0  0  0  0  0  0
   14.1370  -16.7553   24.5906 O   0  0  0  0  0  0  0  0  0  0  0  0
  2  1  1  0
  2  3  1  0
  3  5  1  0
  3  4  1  6
  5  7  1  0
  5  6  1  6
  7  9  1  0
  8  7  2  0
  9 10  1  0
 11 12  2  0
 11 10  1  0
 14 13  1  0
 14 15  2  0
 16 14  1  0
 17 16  1  0
 18 17  1  0
 18 19  1  0
 20 19  1  1
 20 21  1  0
 21 11  1  0
 22 20  1  0
 22 24  1  0
 23 22  2  0
M  END
$$$$
