YYF.pdb
     RDKit          3D

 36 38  0  0  1  0  0  0  0  0999 V2000
    9.1138  -12.6694   16.7478 O   0  0  0  0  0  0  0  0  0  0  0  0
    8.4989  -13.1632   17.8946 C   0  0  0  0  0  0  0  0  0  0  0  0
    7.6934  -14.2849   17.8396 C   0  0  0  0  0  0  0  0  0  0  0  0
    7.0857  -14.7739   18.9697 C   0  0  0  0  0  0  0  0  0  0  0  0
    7.2649  -14.1537   20.1972 C   0  0  0  0  0  0  0  0  0  0  0  0
    6.6189  -14.6596   21.4370 C   0  0  0  0  0  0  0  0  0  0  0  0
    6.8066  -16.1618   21.4878 C   0  0  2  0  0  0  0  0  0  0  0  0
    5.7051  -16.8038   20.8088 N   0  0  0  0  0  0  0  0  0  0  0  0
    6.8606  -16.6653   22.8760 C   0  0  0  0  0  0  0  0  0  0  0  0
    5.9553  -16.3346   23.6754 O   0  0  0  0  0  0  0  0  0  0  0  0
    8.0778  -13.0342   20.2120 C   0  0  0  0  0  0  0  0  0  0  0  0
    8.6936  -12.5329   19.0855 C   0  0  0  0  0  0  0  0  0  0  0  0
    8.7157  -21.2650   30.0781 O   0  0  0  0  0  0  0  0  0  0  0  0
    8.6671  -20.7990   28.7788 C   0  0  0  0  0  0  0  0  0  0  0  0
    9.8463  -20.5314   28.0983 C   0  0  0  0  0  0  0  0  0  0  0  0
    9.8194  -20.0667   26.8039 C   0  0  0  0  0  0  0  0  0  0  0  0
    8.6388  -19.8476   26.1301 C   0  0  0  0  0  0  0  0  0  0  0  0
    8.5899  -19.3552   24.7551 C   0  0  0  0  0  0  0  0  0  0  0  0
    8.0530  -17.9454   24.6504 C   0  0  2  0  0  0  0  0  0  0  0  0
    7.9317  -17.5114   23.2802 N   0  0  0  0  0  0  0  0  0  0  0  0
    8.8829  -16.9979   25.4463 C   0  0  0  0  0  0  0  0  0  0  0  0
    9.9464  -16.5475   24.9473 O   0  0  0  0  0  0  0  0  0  0  0  0
    7.4596  -20.1096   26.7950 C   0  0  0  0  0  0  0  0  0  0  0  0
    7.4869  -20.5760   28.0944 C   0  0  0  0  0  0  0  0  0  0  0  0
    8.5311  -16.5756   26.7486 N   0  0  0  0  0  0  0  0  0  0  0  0
    9.3746  -15.7054   27.5610 C   0  0  1  0  0  0  0  0  0  0  0  0
    8.6041  -14.5780   28.1540 C   0  0  0  0  0  0  0  0  0  0  0  0
    8.0234  -13.6203   27.2264 C   0  0  0  0  0  0  0  0  0  0  0  0
    6.7447  -13.7988   26.7539 C   0  0  0  0  0  0  0  0  0  0  0  0
    6.1550  -12.9010   25.8663 C   0  0  0  0  0  0  0  0  0  0  0  0
    6.8724  -11.7987   25.4467 C   0  0  0  0  0  0  0  0  0  0  0  0
    8.1587  -11.5909   25.9026 C   0  0  0  0  0  0  0  0  0  0  0  0
    8.7214  -12.4934   26.7808 C   0  0  0  0  0  0  0  0  0  0  0  0
   10.1234  -16.4741   28.5750 C   0  0  0  0  0  0  0  0  0  0  0  0
    9.7952  -17.6625   28.7948 O   0  0  0  0  0  0  0  0  0  0  0  0
   11.1834  -15.9638   29.3144 O   0  0  0  0  0  0  0  0  0  0  0  0
  2  1  1  0
  3  2  2  0
  4  3  1  0
  5  4  2  0
  5 11  1  0
  6  5  1  0
  7  9  1  0
  7  6  1  0
  7  8  1  6
  9 10  2  0
 11 12  2  0
 12  2  1  0
 13 14  1  0
 14 15  2  0
 15 16  1  0
 17 16  2  0
 17 18  1  0
 19 18  1  6
 19 21  1  0
 20 19  1  0
 20  9  1  0
 21 25  1  0
 21 22  2  0
 23 17  1  0
 24 14  1  0
 24 23  2  0
 25 26  1  0
 26 27  1  1
 28 27  1  0
 29 28  2  0
 30 29  1  0
 31 30  2  0
 31 32  1  0
 32 33  2  0
 33 28  1  0
 34 36  1  0
 34 26  1  0
 35 34  2  0
M  END
$$$$
