YYF.pdb
     RDKit          3D

 36 38  0  0  1  0  0  0  0  0999 V2000
    9.6173  -11.7801   20.2633 O   0  0  0  0  0  0  0  0  0  0  0  0
    8.6545  -12.7387   20.5653 C   0  0  0  0  0  0  0  0  0  0  0  0
    8.3562  -13.0545   21.8773 C   0  0  0  0  0  0  0  0  0  0  0  0
    7.4067  -13.9999   22.1778 C   0  0  0  0  0  0  0  0  0  0  0  0
    6.7216  -14.6632   21.1706 C   0  0  0  0  0  0  0  0  0  0  0  0
    5.6897  -15.6919   21.4656 C   0  0  0  0  0  0  0  0  0  0  0  0
    6.3610  -17.0498   21.4575 C   0  0  2  0  0  0  0  0  0  0  0  0
    5.3519  -18.0809   21.3862 N   0  0  0  0  0  0  0  0  0  0  0  0
    7.1744  -17.2712   22.6712 C   0  0  0  0  0  0  0  0  0  0  0  0
    6.6007  -17.6150   23.7298 O   0  0  0  0  0  0  0  0  0  0  0  0
    7.0478  -14.3199   19.8706 C   0  0  0  0  0  0  0  0  0  0  0  0
    7.9984  -13.3731   19.5551 C   0  0  0  0  0  0  0  0  0  0  0  0
    9.1529  -23.5815   21.8078 O   0  0  0  0  0  0  0  0  0  0  0  0
    9.5051  -22.2912   22.1525 C   0  0  0  0  0  0  0  0  0  0  0  0
    9.7469  -21.9748   23.4816 C   0  0  0  0  0  0  0  0  0  0  0  0
   10.0987  -20.6957   23.8454 C   0  0  0  0  0  0  0  0  0  0  0  0
   10.2263  -19.6820   22.9226 C   0  0  0  0  0  0  0  0  0  0  0  0
   10.5997  -18.3177   23.2894 C   0  0  0  0  0  0  0  0  0  0  0  0
    9.4205  -17.4796   23.7296 C   0  0  2  0  0  0  0  0  0  0  0  0
    8.5857  -17.0921   22.6191 N   0  0  0  0  0  0  0  0  0  0  0  0
    9.8711  -16.2916   24.5078 C   0  0  0  0  0  0  0  0  0  0  0  0
   10.5477  -15.4020   23.9302 O   0  0  0  0  0  0  0  0  0  0  0  0
    9.9888  -19.9831   21.5981 C   0  0  0  0  0  0  0  0  0  0  0  0
    9.6356  -21.2672   21.2331 C   0  0  0  0  0  0  0  0  0  0  0  0
    9.5733  -16.1127   25.8780 N   0  0  0  0  0  0  0  0  0  0  0  0
   10.2449  -15.1278   26.7192 C   0  0  1  0  0  0  0  0  0  0  0  0
    9.2830  -14.3673   27.5633 C   0  0  0  0  0  0  0  0  0  0  0  0
    8.2538  -13.6117   26.8672 C   0  0  0  0  0  0  0  0  0  0  0  0
    8.3725  -12.2500   26.7189 C   0  0  0  0  0  0  0  0  0  0  0  0
    7.4077  -11.4939   26.0562 C   0  0  0  0  0  0  0  0  0  0  0  0
    6.2987  -12.1268   25.5316 C   0  0  0  0  0  0  0  0  0  0  0  0
    6.1498  -13.4929   25.6636 C   0  0  0  0  0  0  0  0  0  0  0  0
    7.1180  -14.2204   26.3238 C   0  0  0  0  0  0  0  0  0  0  0  0
   11.3280  -15.7441   27.5109 C   0  0  0  0  0  0  0  0  0  0  0  0
   12.1524  -14.9989   28.0882 O   0  0  0  0  0  0  0  0  0  0  0  0
   11.4999  -17.1146   27.6630 O   0  0  0  0  0  0  0  0  0  0  0  0
  2  1  1  0
  3  2  2  0
  4  3  1  0
  5  4  2  0
  5 11  1  0
  6  5  1  0
  7  9  1  0
  7  6  1  0
  7  8  1  1
  9 10  2  0
 11 12  2  0
 12  2  1  0
 13 14  1  0
 14 15  2  0
 15 16  1  0
 17 16  2  0
 17 18  1  0
 19 18  1  6
 19 21  1  0
 20 19  1  0
 20  9  1  0
 21 25  1  0
 21 22  2  0
 23 17  1  0
 24 14  1  0
 24 23  2  0
 25 26  1  0
 26 27  1  1
 28 27  1  0
 29 28  2  0
 30 29  1  0
 31 30  2  0
 31 32  1  0
 32 33  2  0
 33 28  1  0
 34 36  1  0
 34 26  1  0
 35 34  2  0
M  END
$$$$
