YYF.pdb
     RDKit          3D

 36 38  0  0  1  0  0  0  0  0999 V2000
    7.3942  -12.5800   15.9047 O   0  0  0  0  0  0  0  0  0  0  0  0
    7.6063  -13.1556   17.1541 C   0  0  0  0  0  0  0  0  0  0  0  0
    8.5747  -14.1255   17.3322 C   0  0  0  0  0  0  0  0  0  0  0  0
    8.7858  -14.6948   18.5638 C   0  0  0  0  0  0  0  0  0  0  0  0
    8.0313  -14.3106   19.6623 C   0  0  0  0  0  0  0  0  0  0  0  0
    8.2364  -14.9101   21.0072 C   0  0  0  0  0  0  0  0  0  0  0  0
    8.5984  -16.3694   20.8233 C   0  0  2  0  0  0  0  0  0  0  0  0
    7.4575  -17.0815   20.2961 N   0  0  0  0  0  0  0  0  0  0  0  0
    9.0013  -17.0035   22.0957 C   0  0  0  0  0  0  0  0  0  0  0  0
    8.1479  -17.6473   22.7479 O   0  0  0  0  0  0  0  0  0  0  0  0
    7.0722  -13.3375   19.4445 C   0  0  0  0  0  0  0  0  0  0  0  0
    6.8500  -12.7579   18.2139 C   0  0  0  0  0  0  0  0  0  0  0  0
   13.8590  -21.5323   27.7404 O   0  0  0  0  0  0  0  0  0  0  0  0
   13.4775  -20.6655   26.7350 C   0  0  0  0  0  0  0  0  0  0  0  0
   12.2401  -20.8184   26.1262 C   0  0  0  0  0  0  0  0  0  0  0  0
   11.8415  -19.9657   25.1232 C   0  0  0  0  0  0  0  0  0  0  0  0
   12.6388  -18.9340   24.6807 C   0  0  0  0  0  0  0  0  0  0  0  0
   12.2328  -18.0177   23.6173 C   0  0  0  0  0  0  0  0  0  0  0  0
   10.7897  -17.5807   23.7319 C   0  0  2  0  0  0  0  0  0  0  0  0
   10.3418  -16.8741   22.5569 N   0  0  0  0  0  0  0  0  0  0  0  0
   10.5734  -16.7720   24.9645 C   0  0  0  0  0  0  0  0  0  0  0  0
   11.2136  -15.6993   25.1131 O   0  0  0  0  0  0  0  0  0  0  0  0
   13.8712  -18.7710   25.2774 C   0  0  0  0  0  0  0  0  0  0  0  0
   14.2711  -19.6272   26.2843 C   0  0  0  0  0  0  0  0  0  0  0  0
    9.6750  -17.1546   25.9865 N   0  0  0  0  0  0  0  0  0  0  0  0
    9.6498  -16.5274   27.3035 C   0  0  1  0  0  0  0  0  0  0  0  0
    8.3375  -15.8855   27.5900 C   0  0  0  0  0  0  0  0  0  0  0  0
    8.1026  -14.5787   26.9967 C   0  0  0  0  0  0  0  0  0  0  0  0
    7.8645  -14.4611   25.6477 C   0  0  0  0  0  0  0  0  0  0  0  0
    7.6331  -13.2262   25.0451 C   0  0  0  0  0  0  0  0  0  0  0  0
    7.6424  -12.0850   25.8219 C   0  0  0  0  0  0  0  0  0  0  0  0
    7.8785  -12.1692   27.1794 C   0  0  0  0  0  0  0  0  0  0  0  0
    8.1049  -13.4028   27.7535 C   0  0  0  0  0  0  0  0  0  0  0  0
   10.0588  -17.4746   28.3597 C   0  0  0  0  0  0  0  0  0  0  0  0
   10.1354  -18.6930   28.0806 O   0  0  0  0  0  0  0  0  0  0  0  0
   10.3696  -17.1035   29.6622 O   0  0  0  0  0  0  0  0  0  0  0  0
  2  1  1  0
  3  2  2  0
  4  3  1  0
  5  4  2  0
  5 11  1  0
  6  5  1  0
  7  9  1  0
  7  6  1  0
  7  8  1  1
  9 10  2  0
 11 12  2  0
 12  2  1  0
 13 14  1  0
 14 15  2  0
 15 16  1  0
 17 16  2  0
 17 18  1  0
 19 18  1  6
 19 21  1  0
 20 19  1  0
 20  9  1  0
 21 25  1  0
 21 22  2  0
 23 17  1  0
 24 14  1  0
 24 23  2  0
 25 26  1  0
 26 27  1  1
 28 27  1  0
 29 28  2  0
 30 29  1  0
 31 30  2  0
 31 32  1  0
 32 33  2  0
 33 28  1  0
 34 36  1  0
 34 26  1  0
 35 34  2  0
M  END
$$$$
