YYF.pdb
     RDKit          3D

 36 38  0  0  1  0  0  0  0  0999 V2000
    8.7877  -13.0139   16.1044 O   0  0  0  0  0  0  0  0  0  0  0  0
    8.4750  -13.3738   17.4120 C   0  0  0  0  0  0  0  0  0  0  0  0
    7.3897  -12.8154   18.0604 C   0  0  0  0  0  0  0  0  0  0  0  0
    7.0793  -13.1689   19.3504 C   0  0  0  0  0  0  0  0  0  0  0  0
    7.8482  -14.0968   20.0369 C   0  0  0  0  0  0  0  0  0  0  0  0
    7.5371  -14.4979   21.4343 C   0  0  0  0  0  0  0  0  0  0  0  0
    7.0954  -15.9468   21.4222 C   0  0  2  0  0  0  0  0  0  0  0  0
    5.7916  -16.0433   20.8080 N   0  0  0  0  0  0  0  0  0  0  0  0
    7.0157  -16.5115   22.7854 C   0  0  0  0  0  0  0  0  0  0  0  0
    6.0222  -16.2378   23.4968 O   0  0  0  0  0  0  0  0  0  0  0  0
    8.9257  -14.6334   19.3548 C   0  0  0  0  0  0  0  0  0  0  0  0
    9.2484  -14.2876   18.0603 C   0  0  0  0  0  0  0  0  0  0  0  0
    8.3858  -21.2329   30.0393 O   0  0  0  0  0  0  0  0  0  0  0  0
    8.4299  -20.7527   28.7451 C   0  0  0  0  0  0  0  0  0  0  0  0
    7.2496  -20.4455   28.0836 C   0  0  0  0  0  0  0  0  0  0  0  0
    7.2720  -19.9661   26.7945 C   0  0  0  0  0  0  0  0  0  0  0  0
    8.4491  -19.7704   26.1076 C   0  0  0  0  0  0  0  0  0  0  0  0
    8.4934  -19.2615   24.7385 C   0  0  0  0  0  0  0  0  0  0  0  0
    8.0664  -17.8149   24.6309 C   0  0  2  0  0  0  0  0  0  0  0  0
    8.0605  -17.3510   23.2652 N   0  0  0  0  0  0  0  0  0  0  0  0
    8.9120  -16.9434   25.4944 C   0  0  0  0  0  0  0  0  0  0  0  0
   10.0524  -16.6009   25.0884 O   0  0  0  0  0  0  0  0  0  0  0  0
    9.6295  -20.0718   26.7536 C   0  0  0  0  0  0  0  0  0  0  0  0
    9.6067  -20.5531   28.0477 C   0  0  0  0  0  0  0  0  0  0  0  0
    8.4920  -16.4775   26.7612 N   0  0  0  0  0  0  0  0  0  0  0  0
    9.3732  -15.7704   27.6843 C   0  0  1  0  0  0  0  0  0  0  0  0
    8.6829  -14.6336   28.3530 C   0  0  0  0  0  0  0  0  0  0  0  0
    8.0976  -13.6211   27.4887 C   0  0  0  0  0  0  0  0  0  0  0  0
    8.8017  -12.4817   27.1780 C   0  0  0  0  0  0  0  0  0  0  0  0
    8.2740  -11.4916   26.3516 C   0  0  0  0  0  0  0  0  0  0  0  0
    7.0075  -11.6558   25.8274 C   0  0  0  0  0  0  0  0  0  0  0  0
    6.2746  -12.7884   26.1202 C   0  0  0  0  0  0  0  0  0  0  0  0
    6.8179  -13.7548   26.9407 C   0  0  0  0  0  0  0  0  0  0  0  0
   10.0003  -16.6971   28.6476 C   0  0  0  0  0  0  0  0  0  0  0  0
   10.8563  -16.2502   29.4449 O   0  0  0  0  0  0  0  0  0  0  0  0
    9.7029  -18.0518   28.7331 O   0  0  0  0  0  0  0  0  0  0  0  0
  2  1  1  0
  3  2  2  0
  4  3  1  0
  5  4  2  0
  5 11  1  0
  6  5  1  0
  7  9  1  0
  7  6  1  0
  7  8  1  1
  9 10  2  0
 11 12  2  0
 12  2  1  0
 13 14  1  0
 14 15  2  0
 15 16  1  0
 17 16  2  0
 17 18  1  0
 19 18  1  6
 19 21  1  0
 20 19  1  0
 20  9  1  0
 21 25  1  0
 21 22  2  0
 23 17  1  0
 24 14  1  0
 24 23  2  0
 25 26  1  0
 26 27  1  1
 28 27  1  0
 29 28  2  0
 30 29  1  0
 31 30  2  0
 31 32  1  0
 32 33  2  0
 33 28  1  0
 34 36  1  0
 34 26  1  0
 35 34  2  0
M  END
$$$$
