YYF.pdb
     RDKit          3D

 36 38  0  0  1  0  0  0  0  0999 V2000
    5.2467  -23.9396   29.2122 O   0  0  0  0  0  0  0  0  0  0  0  0
    5.7626  -22.9085   28.4326 C   0  0  0  0  0  0  0  0  0  0  0  0
    4.9368  -21.9248   27.9222 C   0  0  0  0  0  0  0  0  0  0  0  0
    5.4435  -20.9065   27.1528 C   0  0  0  0  0  0  0  0  0  0  0  0
    6.7991  -20.8391   26.8676 C   0  0  0  0  0  0  0  0  0  0  0  0
    7.3758  -19.7495   26.0367 C   0  0  0  0  0  0  0  0  0  0  0  0
    6.7297  -19.8074   24.6679 C   0  0  2  0  0  0  0  0  0  0  0  0
    6.8534  -21.1454   24.1378 N   0  0  0  0  0  0  0  0  0  0  0  0
    7.3598  -18.8659   23.7192 C   0  0  0  0  0  0  0  0  0  0  0  0
    8.5572  -19.0413   23.3976 O   0  0  0  0  0  0  0  0  0  0  0  0
    7.5932  -21.8414   27.3960 C   0  0  0  0  0  0  0  0  0  0  0  0
    7.0978  -22.8688   28.1696 C   0  0  0  0  0  0  0  0  0  0  0  0
    8.8309  -12.0753   18.3684 O   0  0  0  0  0  0  0  0  0  0  0  0
    8.2047  -12.9768   19.2067 C   0  0  0  0  0  0  0  0  0  0  0  0
    8.1517  -14.3189   18.8589 C   0  0  0  0  0  0  0  0  0  0  0  0
    7.5327  -15.2326   19.6800 C   0  0  0  0  0  0  0  0  0  0  0  0
    6.9442  -14.8657   20.8694 C   0  0  0  0  0  0  0  0  0  0  0  0
    6.2827  -15.8214   21.7551 C   0  0  0  0  0  0  0  0  0  0  0  0
    7.2557  -16.6750   22.5369 C   0  0  2  0  0  0  0  0  0  0  0  0
    6.6026  -17.7829   23.1896 N   0  0  0  0  0  0  0  0  0  0  0  0
    8.0253  -15.8508   23.5108 C   0  0  0  0  0  0  0  0  0  0  0  0
    7.6273  -14.6876   23.7776 O   0  0  0  0  0  0  0  0  0  0  0  0
    6.9897  -13.5347   21.2269 C   0  0  0  0  0  0  0  0  0  0  0  0
    7.6112  -12.6177   20.4024 C   0  0  0  0  0  0  0  0  0  0  0  0
    9.1934  -16.3160   24.1567 N   0  0  0  0  0  0  0  0  0  0  0  0
   10.0041  -15.4828   25.0383 C   0  0  1  0  0  0  0  0  0  0  0  0
    9.2504  -15.0540   26.2483 C   0  0  0  0  0  0  0  0  0  0  0  0
    8.4085  -13.8760   26.1140 C   0  0  0  0  0  0  0  0  0  0  0  0
    7.0502  -13.9675   26.3064 C   0  0  0  0  0  0  0  0  0  0  0  0
    6.2128  -12.8600   26.1884 C   0  0  0  0  0  0  0  0  0  0  0  0
    6.7591  -11.6331   25.8689 C   0  0  0  0  0  0  0  0  0  0  0  0
    8.1193  -11.5078   25.6693 C   0  0  0  0  0  0  0  0  0  0  0  0
    8.9282  -12.6183   25.7916 C   0  0  0  0  0  0  0  0  0  0  0  0
   11.2847  -16.1377   25.3718 C   0  0  0  0  0  0  0  0  0  0  0  0
   11.4418  -17.3433   25.0717 O   0  0  0  0  0  0  0  0  0  0  0  0
   12.3445  -15.5005   26.0055 O   0  0  0  0  0  0  0  0  0  0  0  0
  2  1  1  0
  3  2  2  0
  4  3  1  0
  5  4  2  0
  5 11  1  0
  6  5  1  0
  7  9  1  0
  7  6  1  0
  7  8  1  6
  9 10  2  0
 11 12  2  0
 12  2  1  0
 13 14  1  0
 14 15  2  0
 15 16  1  0
 17 16  2  0
 17 18  1  0
 19 18  1  1
 19 21  1  0
 20 19  1  0
 20  9  1  0
 21 25  1  0
 21 22  2  0
 23 17  1  0
 24 14  1  0
 24 23  2  0
 25 26  1  0
 26 27  1  1
 28 27  1  0
 29 28  2  0
 30 29  1  0
 31 30  2  0
 31 32  1  0
 32 33  2  0
 33 28  1  0
 34 36  1  0
 34 26  1  0
 35 34  2  0
M  END
$$$$
