YYF.pdb
     RDKit          3D

 36 38  0  0  1  0  0  0  0  0999 V2000
   12.3479  -21.1666   14.4480 O   0  0  0  0  0  0  0  0  0  0  0  0
   12.2358  -20.4415   15.6307 C   0  0  0  0  0  0  0  0  0  0  0  0
   13.1416  -19.4443   15.9391 C   0  0  0  0  0  0  0  0  0  0  0  0
   13.0330  -18.7276   17.1053 C   0  0  0  0  0  0  0  0  0  0  0  0
   12.0100  -18.9867   18.0052 C   0  0  0  0  0  0  0  0  0  0  0  0
   11.8680  -18.2282   19.2759 C   0  0  0  0  0  0  0  0  0  0  0  0
   10.5938  -17.4127   19.1991 C   0  0  2  0  0  0  0  0  0  0  0  0
   10.6784  -16.4988   18.0837 N   0  0  0  0  0  0  0  0  0  0  0  0
   10.3632  -16.6304   20.4313 C   0  0  0  0  0  0  0  0  0  0  0  0
   11.2988  -15.9373   20.8921 O   0  0  0  0  0  0  0  0  0  0  0  0
   11.1234  -19.9917   17.6616 C   0  0  0  0  0  0  0  0  0  0  0  0
   11.2207  -20.7186   16.4946 C   0  0  0  0  0  0  0  0  0  0  0  0
    6.2725  -13.0042   27.3611 O   0  0  0  0  0  0  0  0  0  0  0  0
    6.5380  -13.6521   26.1705 C   0  0  0  0  0  0  0  0  0  0  0  0
    7.0681  -12.9418   25.1030 C   0  0  0  0  0  0  0  0  0  0  0  0
    7.3395  -13.5684   23.9089 C   0  0  0  0  0  0  0  0  0  0  0  0
    7.1021  -14.9111   23.7173 C   0  0  0  0  0  0  0  0  0  0  0  0
    7.3844  -15.5945   22.4569 C   0  0  0  0  0  0  0  0  0  0  0  0
    8.8478  -15.9327   22.2821 C   0  0  2  0  0  0  0  0  0  0  0  0
    9.0920  -16.6760   21.0704 N   0  0  0  0  0  0  0  0  0  0  0  0
    9.3748  -16.6542   23.4745 C   0  0  0  0  0  0  0  0  0  0  0  0
    9.1479  -17.8857   23.5946 O   0  0  0  0  0  0  0  0  0  0  0  0
    6.5753  -15.6286   24.7704 C   0  0  0  0  0  0  0  0  0  0  0  0
    6.3029  -14.9993   25.9689 C   0  0  0  0  0  0  0  0  0  0  0  0
   10.1249  -16.0165   24.4888 N   0  0  0  0  0  0  0  0  0  0  0  0
   10.8823  -16.7459   25.5002 C   0  0  1  0  0  0  0  0  0  0  0  0
   11.7003  -15.8358   26.3479 C   0  0  0  0  0  0  0  0  0  0  0  0
   10.9881  -15.0469   27.3406 C   0  0  0  0  0  0  0  0  0  0  0  0
   10.3301  -13.8973   26.9722 C   0  0  0  0  0  0  0  0  0  0  0  0
    9.6357  -13.1176   27.8951 C   0  0  0  0  0  0  0  0  0  0  0  0
    9.6052  -13.5076   29.2190 C   0  0  0  0  0  0  0  0  0  0  0  0
   10.2558  -14.6568   29.6212 C   0  0  0  0  0  0  0  0  0  0  0  0
   10.9367  -15.4124   28.6894 C   0  0  0  0  0  0  0  0  0  0  0  0
   10.0066  -17.6274   26.2978 C   0  0  0  0  0  0  0  0  0  0  0  0
   10.5296  -18.4093   27.1244 O   0  0  0  0  0  0  0  0  0  0  0  0
    8.6212  -17.6508   26.1942 O   0  0  0  0  0  0  0  0  0  0  0  0
  2  1  1  0
  3  2  2  0
  4  3  1  0
  5  4  2  0
  5 11  1  0
  6  5  1  0
  7  9  1  0
  7  6  1  0
  7  8  1  6
  9 10  2  0
 11 12  2  0
 12  2  1  0
 13 14  1  0
 14 15  2  0
 15 16  1  0
 17 16  2  0
 17 18  1  0
 19 18  1  1
 19 21  1  0
 20 19  1  0
 20  9  1  0
 21 25  1  0
 21 22  2  0
 23 17  1  0
 24 14  1  0
 24 23  2  0
 25 26  1  0
 26 27  1  1
 28 27  1  0
 29 28  2  0
 30 29  1  0
 31 30  2  0
 31 32  1  0
 32 33  2  0
 33 28  1  0
 34 36  1  0
 34 26  1  0
 35 34  2  0
M  END
$$$$
