YYF.pdb
     RDKit          3D

 36 38  0  0  1  0  0  0  0  0999 V2000
    6.5266  -14.1960   15.4098 O   0  0  0  0  0  0  0  0  0  0  0  0
    7.5929  -14.3281   16.2943 C   0  0  0  0  0  0  0  0  0  0  0  0
    7.8665  -13.3448   17.2263 C   0  0  0  0  0  0  0  0  0  0  0  0
    8.9180  -13.4729   18.1000 C   0  0  0  0  0  0  0  0  0  0  0  0
    9.7339  -14.5940   18.0696 C   0  0  0  0  0  0  0  0  0  0  0  0
   10.8800  -14.7595   19.0020 C   0  0  0  0  0  0  0  0  0  0  0  0
   10.6189  -15.9811   19.8587 C   0  0  2  0  0  0  0  0  0  0  0  0
    9.5277  -16.7382   19.2907 N   0  0  0  0  0  0  0  0  0  0  0  0
   10.2662  -15.6175   21.2468 C   0  0  0  0  0  0  0  0  0  0  0  0
   11.1009  -14.9914   21.9391 O   0  0  0  0  0  0  0  0  0  0  0  0
    9.4285  -15.5560   17.1233 C   0  0  0  0  0  0  0  0  0  0  0  0
    8.3764  -15.4402   16.2406 C   0  0  0  0  0  0  0  0  0  0  0  0
    5.7000  -12.3891   27.8606 O   0  0  0  0  0  0  0  0  0  0  0  0
    6.0646  -13.0036   26.6786 C   0  0  0  0  0  0  0  0  0  0  0  0
    5.6953  -14.3203   26.4441 C   0  0  0  0  0  0  0  0  0  0  0  0
    6.0486  -14.9502   25.2734 C   0  0  0  0  0  0  0  0  0  0  0  0
    6.7751  -14.3147   24.2916 C   0  0  0  0  0  0  0  0  0  0  0  0
    7.1592  -14.9666   23.0415 C   0  0  0  0  0  0  0  0  0  0  0  0
    8.5688  -15.5132   23.0680 C   0  0  2  0  0  0  0  0  0  0  0  0
    8.9938  -15.9811   21.7716 N   0  0  0  0  0  0  0  0  0  0  0  0
    8.7086  -16.5787   24.1001 C   0  0  0  0  0  0  0  0  0  0  0  0
    7.6807  -16.9928   24.6956 O   0  0  0  0  0  0  0  0  0  0  0  0
    7.1485  -13.0058   24.5121 C   0  0  0  0  0  0  0  0  0  0  0  0
    6.7937  -12.3736   25.6874 C   0  0  0  0  0  0  0  0  0  0  0  0
    9.9525  -17.1533   24.4475 N   0  0  0  0  0  0  0  0  0  0  0  0
   10.4538  -17.2048   25.8167 C   0  0  1  0  0  0  0  0  0  0  0  0
    9.6164  -16.3992   26.7473 C   0  0  0  0  0  0  0  0  0  0  0  0
   10.2009  -15.1698   27.2589 C   0  0  0  0  0  0  0  0  0  0  0  0
   11.4878  -14.8206   26.9237 C   0  0  0  0  0  0  0  0  0  0  0  0
   12.0797  -13.6497   27.3930 C   0  0  0  0  0  0  0  0  0  0  0  0
   11.3562  -12.8130   28.2189 C   0  0  0  0  0  0  0  0  0  0  0  0
   10.0616  -13.1350   28.5742 C   0  0  0  0  0  0  0  0  0  0  0  0
    9.4969  -14.2996   28.0972 C   0  0  0  0  0  0  0  0  0  0  0  0
   10.6288  -18.5975   26.2747 C   0  0  0  0  0  0  0  0  0  0  0  0
   11.1189  -18.8024   27.4087 O   0  0  0  0  0  0  0  0  0  0  0  0
   10.2826  -19.7144   25.5241 O   0  0  0  0  0  0  0  0  0  0  0  0
  2  1  1  0
  3  2  2  0
  4  3  1  0
  5  4  2  0
  5 11  1  0
  6  5  1  0
  7  9  1  0
  7  6  1  0
  7  8  1  6
  9 10  2  0
 11 12  2  0
 12  2  1  0
 13 14  1  0
 14 15  2  0
 15 16  1  0
 17 16  2  0
 17 18  1  0
 19 18  1  6
 19 21  1  0
 20 19  1  0
 20  9  1  0
 21 25  1  0
 21 22  2  0
 23 17  1  0
 24 14  1  0
 24 23  2  0
 25 26  1  0
 26 27  1  1
 28 27  1  0
 29 28  2  0
 30 29  1  0
 31 30  2  0
 31 32  1  0
 32 33  2  0
 33 28  1  0
 34 36  1  0
 34 26  1  0
 35 34  2  0
M  END
$$$$
