YYF.pdb
     RDKit          3D

 36 38  0  0  1  0  0  0  0  0999 V2000
   10.5000  -24.2584   18.5702 O   0  0  0  0  0  0  0  0  0  0  0  0
   10.6396  -23.1071   19.3397 C   0  0  0  0  0  0  0  0  0  0  0  0
    9.5466  -22.5336   19.9615 C   0  0  0  0  0  0  0  0  0  0  0  0
    9.6819  -21.3978   20.7212 C   0  0  0  0  0  0  0  0  0  0  0  0
   10.9208  -20.7961   20.8843 C   0  0  0  0  0  0  0  0  0  0  0  0
   11.0974  -19.5655   21.6997 C   0  0  0  0  0  0  0  0  0  0  0  0
   10.7200  -18.3740   20.8439 C   0  0  2  0  0  0  0  0  0  0  0  0
   11.6197  -18.2917   19.7168 N   0  0  0  0  0  0  0  0  0  0  0  0
   10.7947  -17.1058   21.5986 C   0  0  0  0  0  0  0  0  0  0  0  0
   11.9047  -16.5395   21.7220 O   0  0  0  0  0  0  0  0  0  0  0  0
   11.9904  -21.3993   20.2468 C   0  0  0  0  0  0  0  0  0  0  0  0
   11.8687  -22.5390   19.4815 C   0  0  0  0  0  0  0  0  0  0  0  0
    7.3138  -12.9550   17.2147 O   0  0  0  0  0  0  0  0  0  0  0  0
    7.5379  -13.3370   18.5230 C   0  0  0  0  0  0  0  0  0  0  0  0
    8.8376  -13.5063   18.9782 C   0  0  0  0  0  0  0  0  0  0  0  0
    9.0820  -13.8863   20.2774 C   0  0  0  0  0  0  0  0  0  0  0  0
    8.0643  -14.1139   21.1764 C   0  0  0  0  0  0  0  0  0  0  0  0
    8.3039  -14.5173   22.5603 C   0  0  0  0  0  0  0  0  0  0  0  0
    9.6237  -15.2310   22.7485 C   0  0  2  0  0  0  0  0  0  0  0  0
    9.6139  -16.5517   22.1689 N   0  0  0  0  0  0  0  0  0  0  0  0
   10.0059  -15.2750   24.1880 C   0  0  0  0  0  0  0  0  0  0  0  0
   10.5321  -14.2600   24.7130 O   0  0  0  0  0  0  0  0  0  0  0  0
    6.7678  -13.9492   20.7367 C   0  0  0  0  0  0  0  0  0  0  0  0
    6.5227  -13.5677   19.4324 C   0  0  0  0  0  0  0  0  0  0  0  0
    9.8048  -16.4131   25.0018 N   0  0  0  0  0  0  0  0  0  0  0  0
    9.3595  -16.3343   26.3889 C   0  0  1  0  0  0  0  0  0  0  0  0
    7.9213  -15.9638   26.4923 C   0  0  0  0  0  0  0  0  0  0  0  0
    7.6037  -14.5456   26.4415 C   0  0  0  0  0  0  0  0  0  0  0  0
    8.3705  -13.6370   27.1321 C   0  0  0  0  0  0  0  0  0  0  0  0
    8.0976  -12.2708   27.1050 C   0  0  0  0  0  0  0  0  0  0  0  0
    7.0268  -11.8121   26.3642 C   0  0  0  0  0  0  0  0  0  0  0  0
    6.2373  -12.6986   25.6596 C   0  0  0  0  0  0  0  0  0  0  0  0
    6.5270  -14.0465   25.7017 C   0  0  0  0  0  0  0  0  0  0  0  0
    9.6796  -17.5711   27.1290 C   0  0  0  0  0  0  0  0  0  0  0  0
   10.0975  -18.5646   26.4913 O   0  0  0  0  0  0  0  0  0  0  0  0
    9.5478  -17.7127   28.5049 O   0  0  0  0  0  0  0  0  0  0  0  0
  2  1  1  0
  3  2  2  0
  4  3  1  0
  5  4  2  0
  5 11  1  0
  6  5  1  0
  7  9  1  0
  7  6  1  0
  7  8  1  6
  9 10  2  0
 11 12  2  0
 12  2  1  0
 13 14  1  0
 14 15  2  0
 15 16  1  0
 17 16  2  0
 17 18  1  0
 19 18  1  1
 19 21  1  0
 20 19  1  0
 20  9  1  0
 21 25  1  0
 21 22  2  0
 23 17  1  0
 24 14  1  0
 24 23  2  0
 25 26  1  0
 26 27  1  6
 28 27  1  0
 29 28  2  0
 30 29  1  0
 31 30  2  0
 31 32  1  0
 32 33  2  0
 33 28  1  0
 34 36  1  0
 34 26  1  0
 35 34  2  0
M  END
$$$$
