YYF.pdb
     RDKit          3D

 36 38  0  0  1  0  0  0  0  0999 V2000
    9.0677  -12.5952   17.0121 O   0  0  0  0  0  0  0  0  0  0  0  0
    8.3700  -13.1521   18.0798 C   0  0  0  0  0  0  0  0  0  0  0  0
    7.2248  -13.8961   17.8670 C   0  0  0  0  0  0  0  0  0  0  0  0
    6.5347  -14.4465   18.9189 C   0  0  0  0  0  0  0  0  0  0  0  0
    6.9698  -14.2696   20.2238 C   0  0  0  0  0  0  0  0  0  0  0  0
    6.2427  -14.8523   21.3822 C   0  0  0  0  0  0  0  0  0  0  0  0
    6.5315  -16.3388   21.4215 C   0  0  2  0  0  0  0  0  0  0  0  0
    5.4610  -17.0506   20.7628 N   0  0  0  0  0  0  0  0  0  0  0  0
    6.6489  -16.8425   22.8057 C   0  0  0  0  0  0  0  0  0  0  0  0
    5.6075  -16.9992   23.4831 O   0  0  0  0  0  0  0  0  0  0  0  0
    8.1194  -13.5193   20.3964 C   0  0  0  0  0  0  0  0  0  0  0  0
    8.8215  -12.9613   19.3499 C   0  0  0  0  0  0  0  0  0  0  0  0
    8.7072  -21.3943   29.8502 O   0  0  0  0  0  0  0  0  0  0  0  0
    8.6624  -20.8433   28.5844 C   0  0  0  0  0  0  0  0  0  0  0  0
    7.4390  -20.5099   28.0211 C   0  0  0  0  0  0  0  0  0  0  0  0
    7.3730  -19.9602   26.7619 C   0  0  0  0  0  0  0  0  0  0  0  0
    8.5006  -19.7175   26.0100 C   0  0  0  0  0  0  0  0  0  0  0  0
    8.4508  -19.1338   24.6713 C   0  0  0  0  0  0  0  0  0  0  0  0
    8.0699  -17.6704   24.6776 C   0  0  2  0  0  0  0  0  0  0  0  0
    7.9331  -17.1396   23.3435 N   0  0  0  0  0  0  0  0  0  0  0  0
    9.0368  -16.8709   25.4813 C   0  0  0  0  0  0  0  0  0  0  0  0
   10.1092  -16.4887   24.9459 O   0  0  0  0  0  0  0  0  0  0  0  0
    9.7229  -20.0443   26.5582 C   0  0  0  0  0  0  0  0  0  0  0  0
    9.7889  -20.5961   27.8223 C   0  0  0  0  0  0  0  0  0  0  0  0
    8.8067  -16.5170   26.8303 N   0  0  0  0  0  0  0  0  0  0  0  0
    9.7133  -15.6717   27.5999 C   0  0  1  0  0  0  0  0  0  0  0  0
    8.9787  -14.6799   28.4323 C   0  0  0  0  0  0  0  0  0  0  0  0
    8.0769  -13.7771   27.7347 C   0  0  0  0  0  0  0  0  0  0  0  0
    8.5350  -12.5742   27.2515 C   0  0  0  0  0  0  0  0  0  0  0  0
    7.7008  -11.6853   26.5764 C   0  0  0  0  0  0  0  0  0  0  0  0
    6.3749  -12.0186   26.3851 C   0  0  0  0  0  0  0  0  0  0  0  0
    5.8838  -13.2190   26.8581 C   0  0  0  0  0  0  0  0  0  0  0  0
    6.7287  -14.0828   27.5234 C   0  0  0  0  0  0  0  0  0  0  0  0
   10.6638  -16.4797   28.3896 C   0  0  0  0  0  0  0  0  0  0  0  0
   10.4417  -17.7039   28.5321 O   0  0  0  0  0  0  0  0  0  0  0  0
   11.8054  -15.9694   28.9955 O   0  0  0  0  0  0  0  0  0  0  0  0
  2  1  1  0
  3  2  2  0
  4  3  1  0
  5  4  2  0
  5 11  1  0
  6  5  1  0
  7  9  1  0
  7  6  1  0
  7  8  1  1
  9 10  2  0
 11 12  2  0
 12  2  1  0
 13 14  1  0
 14 15  2  0
 15 16  1  0
 17 16  2  0
 17 18  1  0
 19 18  1  6
 19 21  1  0
 20 19  1  0
 20  9  1  0
 21 25  1  0
 21 22  2  0
 23 17  1  0
 24 14  1  0
 24 23  2  0
 25 26  1  0
 26 27  1  1
 28 27  1  0
 29 28  2  0
 30 29  1  0
 31 30  2  0
 31 32  1  0
 32 33  2  0
 33 28  1  0
 34 36  1  0
 34 26  1  0
 35 34  2  0
M  END
$$$$
