YYF.pdb
     RDKit          3D

 36 38  0  0  1  0  0  0  0  0999 V2000
    9.3448  -12.8871   16.2290 O   0  0  0  0  0  0  0  0  0  0  0  0
    8.8143  -13.2818   17.4537 C   0  0  0  0  0  0  0  0  0  0  0  0
    7.5259  -12.9337   17.8131 C   0  0  0  0  0  0  0  0  0  0  0  0
    7.0004  -13.3220   19.0208 C   0  0  0  0  0  0  0  0  0  0  0  0
    7.7502  -14.0746   19.9123 C   0  0  0  0  0  0  0  0  0  0  0  0
    7.2083  -14.5082   21.2271 C   0  0  0  0  0  0  0  0  0  0  0  0
    7.1737  -16.0225   21.2472 C   0  0  2  0  0  0  0  0  0  0  0  0
    6.1033  -16.4868   20.3956 N   0  0  0  0  0  0  0  0  0  0  0  0
    6.9543  -16.5522   22.6091 C   0  0  0  0  0  0  0  0  0  0  0  0
    5.8550  -16.3415   23.1706 O   0  0  0  0  0  0  0  0  0  0  0  0
    9.0347  -14.4033   19.5171 C   0  0  0  0  0  0  0  0  0  0  0  0
    9.5745  -14.0203   18.3082 C   0  0  0  0  0  0  0  0  0  0  0  0
    3.7583  -21.6905   21.5343 O   0  0  0  0  0  0  0  0  0  0  0  0
    4.7425  -21.1066   22.3076 C   0  0  0  0  0  0  0  0  0  0  0  0
    5.9979  -20.8741   21.7647 C   0  0  0  0  0  0  0  0  0  0  0  0
    6.9916  -20.2937   22.5182 C   0  0  0  0  0  0  0  0  0  0  0  0
    6.7923  -19.9206   23.8285 C   0  0  0  0  0  0  0  0  0  0  0  0
    7.8349  -19.3023   24.6446 C   0  0  0  0  0  0  0  0  0  0  0  0
    7.8060  -17.7912   24.5961 C   0  0  2  0  0  0  0  0  0  0  0  0
    7.9868  -17.2877   23.2566 N   0  0  0  0  0  0  0  0  0  0  0  0
    8.8072  -17.2080   25.5328 C   0  0  0  0  0  0  0  0  0  0  0  0
   10.0187  -17.1807   25.1946 O   0  0  0  0  0  0  0  0  0  0  0  0
    5.5489  -20.1461   24.3802 C   0  0  0  0  0  0  0  0  0  0  0  0
    4.5515  -20.7288   23.6236 C   0  0  0  0  0  0  0  0  0  0  0  0
    8.4598  -16.6786   26.7965 N   0  0  0  0  0  0  0  0  0  0  0  0
    9.4318  -16.0840   27.7078 C   0  0  1  0  0  0  0  0  0  0  0  0
    8.8546  -14.9443   28.4720 C   0  0  0  0  0  0  0  0  0  0  0  0
    8.0218  -14.0112   27.7299 C   0  0  0  0  0  0  0  0  0  0  0  0
    8.5790  -12.9025   27.1376 C   0  0  0  0  0  0  0  0  0  0  0  0
    7.8128  -11.9884   26.4171 C   0  0  0  0  0  0  0  0  0  0  0  0
    6.4542  -12.1985   26.2920 C   0  0  0  0  0  0  0  0  0  0  0  0
    5.8641  -13.3020   26.8749 C   0  0  0  0  0  0  0  0  0  0  0  0
    6.6430  -14.1931   27.5833 C   0  0  0  0  0  0  0  0  0  0  0  0
   10.0413  -17.1028   28.5855 C   0  0  0  0  0  0  0  0  0  0  0  0
   11.0160  -16.7773   29.3012 O   0  0  0  0  0  0  0  0  0  0  0  0
    9.6028  -18.4183   28.6747 O   0  0  0  0  0  0  0  0  0  0  0  0
  2  1  1  0
  3  2  2  0
  4  3  1  0
  5  4  2  0
  5 11  1  0
  6  5  1  0
  7  9  1  0
  7  6  1  0
  7  8  1  6
  9 10  2  0
 11 12  2  0
 12  2  1  0
 13 14  1  0
 14 15  2  0
 15 16  1  0
 17 16  2  0
 17 18  1  0
 19 18  1  6
 19 21  1  0
 20 19  1  0
 20  9  1  0
 21 25  1  0
 21 22  2  0
 23 17  1  0
 24 14  1  0
 24 23  2  0
 25 26  1  0
 26 27  1  1
 28 27  1  0
 29 28  2  0
 30 29  1  0
 31 30  2  0
 31 32  1  0
 32 33  2  0
 33 28  1  0
 34 36  1  0
 34 26  1  0
 35 34  2  0
M  END
$$$$
