YYF.pdb
     RDKit          3D

 36 38  0  0  1  0  0  0  0  0999 V2000
    8.9981  -12.9143   16.6516 O   0  0  0  0  0  0  0  0  0  0  0  0
    8.5542  -13.3581   17.8938 C   0  0  0  0  0  0  0  0  0  0  0  0
    9.4392  -13.8832   18.8164 C   0  0  0  0  0  0  0  0  0  0  0  0
    9.0036  -14.3217   20.0426 C   0  0  0  0  0  0  0  0  0  0  0  0
    7.6622  -14.2489   20.3872 C   0  0  0  0  0  0  0  0  0  0  0  0
    7.1615  -14.7169   21.7064 C   0  0  0  0  0  0  0  0  0  0  0  0
    7.1571  -16.2317   21.6993 C   0  0  2  0  0  0  0  0  0  0  0  0
    5.9854  -16.7024   20.9978 N   0  0  0  0  0  0  0  0  0  0  0  0
    7.1423  -16.7906   23.0671 C   0  0  0  0  0  0  0  0  0  0  0  0
    6.0710  -16.7761   23.7152 O   0  0  0  0  0  0  0  0  0  0  0  0
    6.8074  -13.7176   19.4378 C   0  0  0  0  0  0  0  0  0  0  0  0
    7.2312  -13.2738   18.2037 C   0  0  0  0  0  0  0  0  0  0  0  0
    4.2281  -22.1525   22.7059 O   0  0  0  0  0  0  0  0  0  0  0  0
    5.2891  -21.4632   23.2598 C   0  0  0  0  0  0  0  0  0  0  0  0
    5.2121  -21.0185   24.5718 C   0  0  0  0  0  0  0  0  0  0  0  0
    6.2578  -20.3302   25.1419 C   0  0  0  0  0  0  0  0  0  0  0  0
    7.4148  -20.0530   24.4490 C   0  0  0  0  0  0  0  0  0  0  0  0
    8.5363  -19.3240   25.0374 C   0  0  0  0  0  0  0  0  0  0  0  0
    8.3625  -17.8231   24.9786 C   0  0  2  0  0  0  0  0  0  0  0  0
    8.3358  -17.3326   23.6225 N   0  0  0  0  0  0  0  0  0  0  0  0
    9.4098  -17.1328   25.7828 C   0  0  0  0  0  0  0  0  0  0  0  0
   10.6218  -17.3395   25.5162 O   0  0  0  0  0  0  0  0  0  0  0  0
    7.5043  -20.4894   23.1441 C   0  0  0  0  0  0  0  0  0  0  0  0
    6.4544  -21.1803   22.5720 C   0  0  0  0  0  0  0  0  0  0  0  0
    9.1059  -16.2478   26.8423 N   0  0  0  0  0  0  0  0  0  0  0  0
   10.1260  -15.6117   27.6690 C   0  0  1  0  0  0  0  0  0  0  0  0
    9.7858  -14.1971   27.9838 C   0  0  0  0  0  0  0  0  0  0  0  0
    8.6240  -13.6364   27.3124 C   0  0  0  0  0  0  0  0  0  0  0  0
    8.5209  -13.6894   25.9424 C   0  0  0  0  0  0  0  0  0  0  0  0
    7.4218  -13.1649   25.2652 C   0  0  0  0  0  0  0  0  0  0  0  0
    6.4045  -12.5739   25.9874 C   0  0  0  0  0  0  0  0  0  0  0  0
    6.4779  -12.5047   27.3642 C   0  0  0  0  0  0  0  0  0  0  0  0
    7.5758  -13.0308   28.0125 C   0  0  0  0  0  0  0  0  0  0  0  0
   10.4125  -16.4075   28.8792 C   0  0  0  0  0  0  0  0  0  0  0  0
    9.6604  -17.3682   29.1614 O   0  0  0  0  0  0  0  0  0  0  0  0
   11.4746  -16.1617   29.7407 O   0  0  0  0  0  0  0  0  0  0  0  0
  2  1  1  0
  3  2  2  0
  4  3  1  0
  5  4  2  0
  5 11  1  0
  6  5  1  0
  7  9  1  0
  7  6  1  0
  7  8  1  6
  9 10  2  0
 11 12  2  0
 12  2  1  0
 13 14  1  0
 14 15  2  0
 15 16  1  0
 17 16  2  0
 17 18  1  0
 19 18  1  6
 19 21  1  0
 20 19  1  0
 20  9  1  0
 21 25  1  0
 21 22  2  0
 23 17  1  0
 24 14  1  0
 24 23  2  0
 25 26  1  0
 26 27  1  1
 28 27  1  0
 29 28  2  0
 30 29  1  0
 31 30  2  0
 31 32  1  0
 32 33  2  0
 33 28  1  0
 34 36  1  0
 34 26  1  0
 35 34  2  0
M  END
$$$$
