YYF.pdb
     RDKit          3D

 36 38  0  0  1  0  0  0  0  0999 V2000
   11.1246  -21.2537   16.5639 O   0  0  0  0  0  0  0  0  0  0  0  0
   10.2180  -21.2185   17.6193 C   0  0  0  0  0  0  0  0  0  0  0  0
   10.1509  -22.2555   18.5306 C   0  0  0  0  0  0  0  0  0  0  0  0
    9.2572  -22.2231   19.5727 C   0  0  0  0  0  0  0  0  0  0  0  0
    8.3977  -21.1472   19.7376 C   0  0  0  0  0  0  0  0  0  0  0  0
    7.4191  -21.0851   20.8552 C   0  0  0  0  0  0  0  0  0  0  0  0
    8.1310  -20.5405   22.0762 C   0  0  2  0  0  0  0  0  0  0  0  0
    7.2373  -20.5867   23.2101 N   0  0  0  0  0  0  0  0  0  0  0  0
    8.5718  -19.1436   21.8817 C   0  0  0  0  0  0  0  0  0  0  0  0
    9.6421  -18.9265   21.2691 O   0  0  0  0  0  0  0  0  0  0  0  0
    8.4947  -20.1291   18.8058 C   0  0  0  0  0  0  0  0  0  0  0  0
    9.3869  -20.1489   17.7555 C   0  0  0  0  0  0  0  0  0  0  0  0
    8.5465  -10.8717   19.6102 O   0  0  0  0  0  0  0  0  0  0  0  0
    8.1770  -12.0624   20.2048 C   0  0  0  0  0  0  0  0  0  0  0  0
    7.8874  -13.1660   19.4154 C   0  0  0  0  0  0  0  0  0  0  0  0
    7.5175  -14.3607   19.9881 C   0  0  0  0  0  0  0  0  0  0  0  0
    7.4180  -14.5177   21.3523 C   0  0  0  0  0  0  0  0  0  0  0  0
    7.0275  -15.7785   21.9793 C   0  0  0  0  0  0  0  0  0  0  0  0
    8.1976  -16.7042   22.2254 C   0  0  2  0  0  0  0  0  0  0  0  0
    7.7799  -18.0750   22.3892 N   0  0  0  0  0  0  0  0  0  0  0  0
    9.0074  -16.2431   23.3881 C   0  0  0  0  0  0  0  0  0  0  0  0
   10.1123  -15.6791   23.1793 O   0  0  0  0  0  0  0  0  0  0  0  0
    7.7031  -13.4285   22.1485 C   0  0  0  0  0  0  0  0  0  0  0  0
    8.0744  -12.2293   21.5733 C   0  0  0  0  0  0  0  0  0  0  0  0
    8.5913  -16.4101   24.7286 N   0  0  0  0  0  0  0  0  0  0  0  0
    9.3725  -15.9474   25.8707 C   0  0  1  0  0  0  0  0  0  0  0  0
    8.5381  -15.1978   26.8495 C   0  0  0  0  0  0  0  0  0  0  0  0
    7.9292  -13.9624   26.3827 C   0  0  0  0  0  0  0  0  0  0  0  0
    6.5740  -13.8970   26.1600 C   0  0  0  0  0  0  0  0  0  0  0  0
    5.9557  -12.7302   25.7151 C   0  0  0  0  0  0  0  0  0  0  0  0
    6.7229  -11.6047   25.4901 C   0  0  0  0  0  0  0  0  0  0  0  0
    8.0863  -11.6377   25.7042 C   0  0  0  0  0  0  0  0  0  0  0  0
    8.6759  -12.8042   26.1447 C   0  0  0  0  0  0  0  0  0  0  0  0
   10.1206  -17.0557   26.4967 C   0  0  0  0  0  0  0  0  0  0  0  0
    9.9821  -18.2123   26.0371 O   0  0  0  0  0  0  0  0  0  0  0  0
   10.9812  -16.9034   27.5769 O   0  0  0  0  0  0  0  0  0  0  0  0
  2  1  1  0
  3  2  2  0
  4  3  1  0
  5  4  2  0
  5 11  1  0
  6  5  1  0
  7  9  1  0
  7  6  1  0
  7  8  1  1
  9 10  2  0
 11 12  2  0
 12  2  1  0
 13 14  1  0
 14 15  2  0
 15 16  1  0
 17 16  2  0
 17 18  1  0
 19 18  1  1
 19 21  1  0
 20 19  1  0
 20  9  1  0
 21 25  1  0
 21 22  2  0
 23 17  1  0
 24 14  1  0
 24 23  2  0
 25 26  1  0
 26 27  1  1
 28 27  1  0
 29 28  2  0
 30 29  1  0
 31 30  2  0
 31 32  1  0
 32 33  2  0
 33 28  1  0
 34 36  1  0
 34 26  1  0
 35 34  2  0
M  END
$$$$
