YYF.pdb
     RDKit          3D

 36 38  0  0  1  0  0  0  0  0999 V2000
   13.8813  -19.7106   14.9569 O   0  0  0  0  0  0  0  0  0  0  0  0
   13.0183  -19.2105   15.9276 C   0  0  0  0  0  0  0  0  0  0  0  0
   11.6845  -18.9873   15.6427 C   0  0  0  0  0  0  0  0  0  0  0  0
   10.8311  -18.4939   16.5987 C   0  0  0  0  0  0  0  0  0  0  0  0
   11.2867  -18.2064   17.8767 C   0  0  0  0  0  0  0  0  0  0  0  0
   10.3866  -17.6703   18.9316 C   0  0  0  0  0  0  0  0  0  0  0  0
   10.0617  -18.7960   19.8917 C   0  0  2  0  0  0  0  0  0  0  0  0
    9.2049  -19.7537   19.2320 N   0  0  0  0  0  0  0  0  0  0  0  0
    9.3735  -18.3067   21.1043 C   0  0  0  0  0  0  0  0  0  0  0  0
    8.1222  -18.2583   21.1122 O   0  0  0  0  0  0  0  0  0  0  0  0
   12.6273  -18.4429   18.1236 C   0  0  0  0  0  0  0  0  0  0  0  0
   13.4946  -18.9378   17.1735 C   0  0  0  0  0  0  0  0  0  0  0  0
   12.0423  -22.7424   26.2443 O   0  0  0  0  0  0  0  0  0  0  0  0
   11.2297  -21.7537   25.7247 C   0  0  0  0  0  0  0  0  0  0  0  0
   10.8188  -21.8245   24.4014 C   0  0  0  0  0  0  0  0  0  0  0  0
   10.0096  -20.8500   23.8649 C   0  0  0  0  0  0  0  0  0  0  0  0
    9.5741  -19.7729   24.6037 C   0  0  0  0  0  0  0  0  0  0  0  0
    8.7139  -18.7284   24.0521 C   0  0  0  0  0  0  0  0  0  0  0  0
    9.4900  -17.5636   23.4798 C   0  0  2  0  0  0  0  0  0  0  0  0
   10.1367  -17.9014   22.2356 N   0  0  0  0  0  0  0  0  0  0  0  0
   10.4683  -17.0355   24.4718 C   0  0  0  0  0  0  0  0  0  0  0  0
   10.9965  -17.8289   25.2929 O   0  0  0  0  0  0  0  0  0  0  0  0
    9.9754  -19.6905   25.9204 C   0  0  0  0  0  0  0  0  0  0  0  0
   10.7877  -20.6689   26.4586 C   0  0  0  0  0  0  0  0  0  0  0  0
   10.8361  -15.6722   24.5372 N   0  0  0  0  0  0  0  0  0  0  0  0
   10.1658  -14.7047   25.3994 C   0  0  1  0  0  0  0  0  0  0  0  0
    8.8507  -14.2814   24.8448 C   0  0  0  0  0  0  0  0  0  0  0  0
    8.0437  -13.3979   25.6712 C   0  0  0  0  0  0  0  0  0  0  0  0
    6.8167  -12.9624   25.2295 C   0  0  0  0  0  0  0  0  0  0  0  0
    6.0152  -12.1176   25.9948 C   0  0  0  0  0  0  0  0  0  0  0  0
    6.4627  -11.7034   27.2333 C   0  0  0  0  0  0  0  0  0  0  0  0
    7.6902  -12.1228   27.7056 C   0  0  0  0  0  0  0  0  0  0  0  0
    8.4660  -12.9591   26.9301 C   0  0  0  0  0  0  0  0  0  0  0  0
   10.0619  -15.1999   26.7864 C   0  0  0  0  0  0  0  0  0  0  0  0
    9.8176  -14.3816   27.7023 O   0  0  0  0  0  0  0  0  0  0  0  0
   10.2188  -16.5310   27.1530 O   0  0  0  0  0  0  0  0  0  0  0  0
  2  1  1  0
  3  2  2  0
  4  3  1  0
  5  4  2  0
  5 11  1  0
  6  5  1  0
  7  9  1  0
  7  6  1  0
  7  8  1  6
  9 10  2  0
 11 12  2  0
 12  2  1  0
 13 14  1  0
 14 15  2  0
 15 16  1  0
 17 16  2  0
 17 18  1  0
 19 18  1  1
 19 21  1  0
 20 19  1  0
 20  9  1  0
 21 25  1  0
 21 22  2  0
 23 17  1  0
 24 14  1  0
 24 23  2  0
 25 26  1  0
 26 27  1  6
 28 27  1  0
 29 28  2  0
 30 29  1  0
 31 30  2  0
 31 32  1  0
 32 33  2  0
 33 28  1  0
 34 36  1  0
 34 26  1  0
 35 34  2  0
M  END
$$$$
