YYF.pdb
     RDKit          3D

 36 38  0  0  1  0  0  0  0  0999 V2000
    1.1676  -21.3715   19.9350 O   0  0  0  0  0  0  0  0  0  0  0  0
    2.3008  -20.5657   19.9956 C   0  0  0  0  0  0  0  0  0  0  0  0
    2.2025  -19.1936   19.8617 C   0  0  0  0  0  0  0  0  0  0  0  0
    3.3191  -18.3966   19.9211 C   0  0  0  0  0  0  0  0  0  0  0  0
    4.5761  -18.9489   20.1172 C   0  0  0  0  0  0  0  0  0  0  0  0
    5.8026  -18.1114   20.1846 C   0  0  0  0  0  0  0  0  0  0  0  0
    6.3274  -18.1562   21.6048 C   0  0  2  0  0  0  0  0  0  0  0  0
    5.3038  -17.6823   22.5072 N   0  0  0  0  0  0  0  0  0  0  0  0
    7.5307  -17.3159   21.7761 C   0  0  0  0  0  0  0  0  0  0  0  0
    8.5648  -17.6008   21.1298 O   0  0  0  0  0  0  0  0  0  0  0  0
    4.6339  -20.3252   20.2467 C   0  0  0  0  0  0  0  0  0  0  0  0
    3.5214  -21.1368   20.1891 C   0  0  0  0  0  0  0  0  0  0  0  0
    7.9837  -13.3024   16.7851 O   0  0  0  0  0  0  0  0  0  0  0  0
    8.0577  -13.4510   18.1562 C   0  0  0  0  0  0  0  0  0  0  0  0
    9.2671  -13.7845   18.7488 C   0  0  0  0  0  0  0  0  0  0  0  0
    9.3617  -13.9371   20.1126 C   0  0  0  0  0  0  0  0  0  0  0  0
    8.2773  -13.7690   20.9441 C   0  0  0  0  0  0  0  0  0  0  0  0
    8.3581  -13.9260   22.3947 C   0  0  0  0  0  0  0  0  0  0  0  0
    8.6465  -15.3480   22.8206 C   0  0  2  0  0  0  0  0  0  0  0  0
    7.4967  -16.2048   22.6653 N   0  0  0  0  0  0  0  0  0  0  0  0
    9.1690  -15.3916   24.2153 C   0  0  0  0  0  0  0  0  0  0  0  0
    9.9250  -14.4689   24.6150 O   0  0  0  0  0  0  0  0  0  0  0  0
    7.0692  -13.4373   20.3679 C   0  0  0  0  0  0  0  0  0  0  0  0
    6.9745  -13.2842   18.9988 C   0  0  0  0  0  0  0  0  0  0  0  0
    8.8543  -16.4298   25.1215 N   0  0  0  0  0  0  0  0  0  0  0  0
    9.1505  -16.3613   26.5485 C   0  0  1  0  0  0  0  0  0  0  0  0
    7.9987  -15.8365   27.3321 C   0  0  0  0  0  0  0  0  0  0  0  0
    7.6622  -14.4341   27.1451 C   0  0  0  0  0  0  0  0  0  0  0  0
    6.4429  -14.0765   26.6201 C   0  0  0  0  0  0  0  0  0  0  0  0
    6.0851  -12.7434   26.4290 C   0  0  0  0  0  0  0  0  0  0  0  0
    6.9784  -11.7496   26.7756 C   0  0  0  0  0  0  0  0  0  0  0  0
    8.2109  -12.0755   27.3051 C   0  0  0  0  0  0  0  0  0  0  0  0
    8.5427  -13.4022   27.4851 C   0  0  0  0  0  0  0  0  0  0  0  0
    9.6396  -17.6570   27.0603 C   0  0  0  0  0  0  0  0  0  0  0  0
    9.5927  -18.6585   26.3099 O   0  0  0  0  0  0  0  0  0  0  0  0
   10.1562  -17.8465   28.3362 O   0  0  0  0  0  0  0  0  0  0  0  0
  2  1  1  0
  3  2  2  0
  4  3  1  0
  5  4  2  0
  5 11  1  0
  6  5  1  0
  7  9  1  0
  7  6  1  0
  7  8  1  1
  9 10  2  0
 11 12  2  0
 12  2  1  0
 13 14  1  0
 14 15  2  0
 15 16  1  0
 17 16  2  0
 17 18  1  0
 19 18  1  1
 19 21  1  0
 20 19  1  0
 20  9  1  0
 21 25  1  0
 21 22  2  0
 23 17  1  0
 24 14  1  0
 24 23  2  0
 25 26  1  0
 26 27  1  1
 28 27  1  0
 29 28  2  0
 30 29  1  0
 31 30  2  0
 31 32  1  0
 32 33  2  0
 33 28  1  0
 34 36  1  0
 34 26  1  0
 35 34  2  0
M  END
$$$$
