HPV.pdb
     RDKit          3D

 25 26  0  0  1  0  0  0  0  0999 V2000
   22.8993  -19.3986  -17.9147 N   0  0  0  0  0  0  0  0  0  0  0  0
   23.7220  -18.6942  -17.0003 C   0  0  1  0  0  0  0  0  0  0  0  0
   22.9212  -17.7447  -16.1034 C   0  0  0  0  0  0  0  0  0  0  0  0
   22.4706  -16.5563  -16.8796 C   0  0  0  0  0  0  0  0  0  0  0  0
   23.1899  -15.3942  -17.0258 C   0  0  0  0  0  0  0  0  0  0  0  0
   22.4767  -14.5625  -17.7792 N   0  0  0  0  0  0  0  0  0  0  0  0
   21.3479  -15.1839  -18.0940 C   0  0  0  0  0  0  0  0  0  0  0  0
   21.3219  -16.4110  -17.5520 N   0  0  0  0  0  0  0  0  0  0  0  0
   24.5522  -19.5215  -16.1121 C   0  0  0  0  0  0  0  0  0  0  0  0
   23.9583  -20.5477  -15.6366 O   0  0  0  0  0  0  0  0  0  0  0  0
   25.9076  -19.2420  -15.7811 N   0  0  0  0  0  0  0  0  0  0  0  0
   26.7109  -18.0912  -16.1095 C   0  0  0  0  0  0  0  0  0  0  0  0
   28.1583  -18.5022  -15.9468 C   0  0  0  0  0  0  0  0  0  0  0  0
   28.1296  -19.9678  -15.6233 C   0  0  0  0  0  0  0  0  0  0  0  0
   26.7538  -20.1223  -15.0138 C   0  0  1  0  0  0  0  0  0  0  0  0
   26.8510  -19.7773  -13.5881 C   0  0  0  0  0  0  0  0  0  0  0  0
   27.0964  -18.5784  -13.2984 O   0  0  0  0  0  0  0  0  0  0  0  0
   24.4791  -21.9634  -10.9815 C   0  0  0  0  0  0  0  0  0  0  0  0
   24.8859  -20.5364  -10.8420 C   0  0  1  0  0  0  0  0  0  0  0  0
   24.6637  -20.1148   -9.4044 C   0  0  0  0  0  0  0  0  0  0  0  0
   26.3324  -20.2799  -11.1704 C   0  0  2  0  0  0  0  0  0  0  0  0
   26.6915  -20.6852  -12.5055 N   0  0  0  0  0  0  0  0  0  0  0  0
   27.1695  -21.0277  -10.2028 C   0  0  0  0  0  0  0  0  0  0  0  0
   27.2943  -20.6344   -9.0098 O   0  0  0  0  0  0  0  0  0  0  0  0
   27.8165  -22.1749  -10.6376 O   0  0  0  0  0  0  0  0  0  0  0  0
  2  9  1  0
  2  1  1  1
  3  2  1  0
  4  3  1  0
  5  4  2  0
  6  5  1  0
  7  6  1  0
  7  8  2  0
  8  4  1  0
  9 11  1  0
 10  9  2  0
 11 15  1  0
 12 11  1  0
 12 13  1  0
 13 14  1  0
 15 16  1  1
 15 14  1  0
 16 17  2  0
 19 18  1  1
 19 21  1  0
 19 20  1  0
 21 22  1  6
 22 16  1  0
 23 21  1  0
 24 23  2  0
 25 23  1  0
M  END
$$$$
