HPV.pdb
     RDKit          3D

 25 26  0  0  1  0  0  0  0  0999 V2000
   23.6828  -22.1098  -12.6555 N   0  0  0  0  0  0  0  0  0  0  0  0
   24.5385  -21.0858  -12.1778 C   0  0  1  0  0  0  0  0  0  0  0  0
   23.7795  -19.7987  -11.8394 C   0  0  0  0  0  0  0  0  0  0  0  0
   23.1227  -19.2495  -13.0579 C   0  0  0  0  0  0  0  0  0  0  0  0
   23.7873  -18.7148  -14.1357 C   0  0  0  0  0  0  0  0  0  0  0  0
   22.8794  -18.3295  -15.0275 N   0  0  0  0  0  0  0  0  0  0  0  0
   21.6856  -18.6139  -14.5241 C   0  0  0  0  0  0  0  0  0  0  0  0
   21.8102  -19.1801  -13.3140 N   0  0  0  0  0  0  0  0  0  0  0  0
   25.3517  -21.4237  -11.0001 C   0  0  0  0  0  0  0  0  0  0  0  0
   24.7362  -22.1003  -10.1084 O   0  0  0  0  0  0  0  0  0  0  0  0
   26.7135  -21.0501  -10.8244 N   0  0  0  0  0  0  0  0  0  0  0  0
   27.5652  -20.2664  -11.6833 C   0  0  0  0  0  0  0  0  0  0  0  0
   28.9933  -20.5710  -11.2860 C   0  0  0  0  0  0  0  0  0  0  0  0
   28.9031  -21.6469  -10.2429 C   0  0  0  0  0  0  0  0  0  0  0  0
   27.5158  -21.4197   -9.6845 C   0  0  1  0  0  0  0  0  0  0  0  0
   27.6112  -20.3802   -8.6492 C   0  0  0  0  0  0  0  0  0  0  0  0
   27.4211  -19.1894   -9.0060 O   0  0  0  0  0  0  0  0  0  0  0  0
   26.3029  -21.1674   -4.8810 C   0  0  0  0  0  0  0  0  0  0  0  0
   27.4398  -20.2039   -4.8936 C   0  0  1  0  0  0  0  0  0  0  0  0
   28.6892  -20.9337   -4.4459 C   0  0  0  0  0  0  0  0  0  0  0  0
   27.7225  -19.6119   -6.2484 C   0  0  2  0  0  0  0  0  0  0  0  0
   27.9012  -20.6061   -7.2757 N   0  0  0  0  0  0  0  0  0  0  0  0
   28.9565  -18.7970   -6.1525 C   0  0  0  0  0  0  0  0  0  0  0  0
   30.0090  -19.1354   -6.7620 O   0  0  0  0  0  0  0  0  0  0  0  0
   28.9310  -17.6487   -5.3751 O   0  0  0  0  0  0  0  0  0  0  0  0
  2  9  1  0
  2  1  1  1
  3  2  1  0
  4  3  1  0
  5  4  2  0
  6  5  1  0
  7  6  1  0
  7  8  2  0
  8  4  1  0
  9 11  1  0
 10  9  2  0
 11 15  1  0
 12 11  1  0
 12 13  1  0
 13 14  1  0
 15 16  1  1
 15 14  1  0
 16 17  2  0
 19 18  1  6
 19 21  1  0
 19 20  1  0
 21 22  1  6
 22 16  1  0
 23 21  1  0
 24 23  2  0
 25 23  1  0
M  END
$$$$
