HPV.pdb
     RDKit          3D

 25 26  0  0  1  0  0  0  0  0999 V2000
   23.4431  -20.4152  -17.4599 N   0  0  0  0  0  0  0  0  0  0  0  0
   24.1019  -19.5906  -16.5138 C   0  0  1  0  0  0  0  0  0  0  0  0
   23.1656  -18.5497  -15.8917 C   0  0  0  0  0  0  0  0  0  0  0  0
   22.7066  -17.5820  -16.9265 C   0  0  0  0  0  0  0  0  0  0  0  0
   21.4667  -17.5948  -17.5195 C   0  0  0  0  0  0  0  0  0  0  0  0
   21.4168  -16.5887  -18.3875 N   0  0  0  0  0  0  0  0  0  0  0  0
   22.5874  -15.9667  -18.3391 C   0  0  0  0  0  0  0  0  0  0  0  0
   23.3964  -16.5597  -17.4480 N   0  0  0  0  0  0  0  0  0  0  0  0
   24.7631  -20.2887  -15.4012 C   0  0  0  0  0  0  0  0  0  0  0  0
   24.0580  -21.2046  -14.8573 O   0  0  0  0  0  0  0  0  0  0  0  0
   26.0766  -20.0026  -14.9345 N   0  0  0  0  0  0  0  0  0  0  0  0
   27.0008  -18.9858  -15.3696 C   0  0  0  0  0  0  0  0  0  0  0  0
   28.3771  -19.4136  -14.9082 C   0  0  0  0  0  0  0  0  0  0  0  0
   28.1952  -20.7718  -14.2953 C   0  0  0  0  0  0  0  0  0  0  0  0
   26.7406  -20.7315  -13.8822 C   0  0  1  0  0  0  0  0  0  0  0  0
   26.6647  -20.0907  -12.5613 C   0  0  0  0  0  0  0  0  0  0  0  0
   26.6967  -18.8340  -12.5254 O   0  0  0  0  0  0  0  0  0  0  0  0
   25.0123  -22.2135   -9.2079 C   0  0  0  0  0  0  0  0  0  0  0  0
   24.8713  -20.7647   -9.5279 C   0  0  1  0  0  0  0  0  0  0  0  0
   24.5366  -20.0238   -8.2500 C   0  0  0  0  0  0  0  0  0  0  0  0
   26.1173  -20.1422  -10.0987 C   0  0  2  0  0  0  0  0  0  0  0  0
   26.5585  -20.7713  -11.3174 N   0  0  0  0  0  0  0  0  0  0  0  0
   27.1963  -20.2490   -9.0885 C   0  0  0  0  0  0  0  0  0  0  0  0
   28.1517  -21.0602   -9.2397 O   0  0  0  0  0  0  0  0  0  0  0  0
   27.1343  -19.4349   -7.9673 O   0  0  0  0  0  0  0  0  0  0  0  0
  2  9  1  0
  2  1  1  1
  3  2  1  0
  4  3  1  0
  5  4  2  0
  6  5  1  0
  7  6  1  0
  7  8  2  0
  8  4  1  0
  9 11  1  0
 10  9  2  0
 11 15  1  0
 12 11  1  0
 12 13  1  0
 13 14  1  0
 15 16  1  1
 15 14  1  0
 16 17  2  0
 19 18  1  1
 19 21  1  0
 19 20  1  0
 21 22  1  6
 22 16  1  0
 23 21  1  0
 24 23  2  0
 25 23  1  0
M  END
$$$$
