HPV.pdb
     RDKit          3D

 25 26  0  0  1  0  0  0  0  0999 V2000
   29.4364  -23.2204  -18.1349 N   0  0  0  0  0  0  0  0  0  0  0  0
   28.3375  -22.3486  -17.9311 C   0  0  1  0  0  0  0  0  0  0  0  0
   27.0183  -22.9411  -18.4367 C   0  0  0  0  0  0  0  0  0  0  0  0
   25.9701  -21.8856  -18.5073 C   0  0  0  0  0  0  0  0  0  0  0  0
   24.9397  -21.7400  -17.6094 C   0  0  0  0  0  0  0  0  0  0  0  0
   24.2079  -20.6973  -17.9904 N   0  0  0  0  0  0  0  0  0  0  0  0
   24.7623  -20.2065  -19.0910 C   0  0  0  0  0  0  0  0  0  0  0  0
   25.8470  -20.9209  -19.4277 N   0  0  0  0  0  0  0  0  0  0  0  0
   28.1074  -21.9161  -16.5445 C   0  0  0  0  0  0  0  0  0  0  0  0
   28.3578  -22.8069  -15.6638 O   0  0  0  0  0  0  0  0  0  0  0  0
   27.6451  -20.6242  -16.1674 N   0  0  0  0  0  0  0  0  0  0  0  0
   27.1181  -19.5649  -16.9904 C   0  0  0  0  0  0  0  0  0  0  0  0
   27.2348  -18.2852  -16.1912 C   0  0  0  0  0  0  0  0  0  0  0  0
   27.9560  -18.6599  -14.9290 C   0  0  0  0  0  0  0  0  0  0  0  0
   27.6285  -20.1320  -14.8120 C   0  0  1  0  0  0  0  0  0  0  0  0
   26.3260  -20.2521  -14.1407 C   0  0  0  0  0  0  0  0  0  0  0  0
   25.3144  -20.4249  -14.8675 O   0  0  0  0  0  0  0  0  0  0  0  0
   26.5717  -21.7304  -10.2628 C   0  0  0  0  0  0  0  0  0  0  0  0
   25.2854  -21.0507  -10.5861 C   0  0  1  0  0  0  0  0  0  0  0  0
   25.3049  -19.6703   -9.9630 C   0  0  0  0  0  0  0  0  0  0  0  0
   25.0411  -20.8778  -12.0613 C   0  0  2  0  0  0  0  0  0  0  0  0
   26.1112  -20.1889  -12.7366 N   0  0  0  0  0  0  0  0  0  0  0  0
   23.7888  -20.1055  -12.2389 C   0  0  0  0  0  0  0  0  0  0  0  0
   23.8141  -18.9054  -12.6300 O   0  0  0  0  0  0  0  0  0  0  0  0
   22.5820  -20.7317  -11.9649 O   0  0  0  0  0  0  0  0  0  0  0  0
  2  9  1  0
  2  1  1  1
  3  2  1  0
  4  3  1  0
  5  4  2  0
  6  5  1  0
  7  6  1  0
  7  8  2  0
  8  4  1  0
  9 11  1  0
 10  9  2  0
 11 15  1  0
 12 11  1  0
 12 13  1  0
 13 14  1  0
 15 16  1  6
 15 14  1  0
 16 17  2  0
 19 18  1  6
 19 21  1  0
 19 20  1  0
 21 22  1  1
 22 16  1  0
 23 21  1  0
 24 23  2  0
 25 23  1  0
M  END
$$$$
