HPV.pdb
     RDKit          3D

 25 26  0  0  1  0  0  0  0  0999 V2000
   28.3469  -21.7913  -16.5145 N   0  0  0  0  0  0  0  0  0  0  0  0
   27.7109  -20.7523  -15.7899 C   0  0  1  0  0  0  0  0  0  0  0  0
   27.4136  -19.5277  -16.6611 C   0  0  0  0  0  0  0  0  0  0  0  0
   27.0338  -18.3664  -15.8096 C   0  0  0  0  0  0  0  0  0  0  0  0
   25.7769  -17.8133  -15.7501 C   0  0  0  0  0  0  0  0  0  0  0  0
   25.8148  -16.8008  -14.8890 N   0  0  0  0  0  0  0  0  0  0  0  0
   27.0550  -16.7230  -14.4249 C   0  0  0  0  0  0  0  0  0  0  0  0
   27.8222  -17.6755  -14.9766 N   0  0  0  0  0  0  0  0  0  0  0  0
   26.4538  -21.1127  -15.1172 C   0  0  0  0  0  0  0  0  0  0  0  0
   25.5904  -21.6728  -15.8739 O   0  0  0  0  0  0  0  0  0  0  0  0
   26.1773  -20.8770  -13.7414 N   0  0  0  0  0  0  0  0  0  0  0  0
   26.9357  -20.1281  -12.7711 C   0  0  0  0  0  0  0  0  0  0  0  0
   26.4765  -20.5853  -11.4036 C   0  0  0  0  0  0  0  0  0  0  0  0
   25.5089  -21.7052  -11.6543 C   0  0  0  0  0  0  0  0  0  0  0  0
   25.0182  -21.3827  -13.0483 C   0  0  1  0  0  0  0  0  0  0  0  0
   23.9169  -20.4165  -12.9264 C   0  0  0  0  0  0  0  0  0  0  0  0
   24.2056  -19.1958  -13.0172 O   0  0  0  0  0  0  0  0  0  0  0  0
   22.6861  -19.8849  -15.4957 C   0  0  0  0  0  0  0  0  0  0  0  0
   21.3954  -20.1743  -14.8091 C   0  0  1  0  0  0  0  0  0  0  0  0
   21.0056  -21.6067  -15.1092 C   0  0  0  0  0  0  0  0  0  0  0  0
   21.4542  -20.0254  -13.3123 C   0  0  2  0  0  0  0  0  0  0  0  0
   22.5498  -20.7442  -12.7134 N   0  0  0  0  0  0  0  0  0  0  0  0
   20.1830  -20.5318  -12.7434 C   0  0  0  0  0  0  0  0  0  0  0  0
   20.0708  -21.7312  -12.3659 O   0  0  0  0  0  0  0  0  0  0  0  0
   19.1132  -19.6559  -12.6338 O   0  0  0  0  0  0  0  0  0  0  0  0
  2  9  1  0
  2  1  1  6
  3  2  1  0
  4  3  1  0
  5  4  2  0
  6  5  1  0
  7  6  1  0
  7  8  2  0
  8  4  1  0
  9 11  1  0
 10  9  2  0
 11 15  1  0
 12 11  1  0
 12 13  1  0
 13 14  1  0
 15 16  1  1
 15 14  1  0
 16 17  2  0
 19 18  1  6
 19 21  1  0
 19 20  1  0
 21 22  1  1
 22 16  1  0
 23 21  1  0
 24 23  2  0
 25 23  1  0
M  END
$$$$
