HPV.pdb
     RDKit          3D

 25 26  0  0  1  0  0  0  0  0999 V2000
   17.4597  -12.4144  -15.5910 N   0  0  0  0  0  0  0  0  0  0  0  0
   18.6380  -11.8274  -16.1164 C   0  0  1  0  0  0  0  0  0  0  0  0
   18.3943  -11.1213  -17.4540 C   0  0  0  0  0  0  0  0  0  0  0  0
   17.9341  -12.0987  -18.4790 C   0  0  0  0  0  0  0  0  0  0  0  0
   18.5509  -13.2952  -18.7570 C   0  0  0  0  0  0  0  0  0  0  0  0
   17.8629  -13.8967  -19.7228 N   0  0  0  0  0  0  0  0  0  0  0  0
   16.8486  -13.1025  -20.0389 C   0  0  0  0  0  0  0  0  0  0  0  0
   16.8720  -11.9913  -19.2873 N   0  0  0  0  0  0  0  0  0  0  0  0
   19.3211  -10.8618  -15.2425 C   0  0  0  0  0  0  0  0  0  0  0  0
   18.5706  -10.3240  -14.3597 O   0  0  0  0  0  0  0  0  0  0  0  0
   20.7001  -10.5231  -15.3351 N   0  0  0  0  0  0  0  0  0  0  0  0
   21.6832  -10.9464  -16.3002 C   0  0  0  0  0  0  0  0  0  0  0  0
   23.0427  -10.7006  -15.6825 C   0  0  0  0  0  0  0  0  0  0  0  0
   22.7727  -10.2272  -14.2837 C   0  0  0  0  0  0  0  0  0  0  0  0
   21.3832   -9.6446  -14.4180 C   0  0  1  0  0  0  0  0  0  0  0  0
   21.5190   -8.2602  -14.8939 C   0  0  0  0  0  0  0  0  0  0  0  0
   22.1097   -7.4448  -14.1404 O   0  0  0  0  0  0  0  0  0  0  0  0
   20.2910   -6.9181  -18.8654 C   0  0  0  0  0  0  0  0  0  0  0  0
   21.4578   -6.3687  -18.1185 C   0  0  1  0  0  0  0  0  0  0  0  0
   21.6238   -4.9116  -18.4968 C   0  0  0  0  0  0  0  0  0  0  0  0
   21.3092   -6.4336  -16.6219 C   0  0  2  0  0  0  0  0  0  0  0  0
   21.0380   -7.7625  -16.1359 N   0  0  0  0  0  0  0  0  0  0  0  0
   20.1930   -5.5431  -16.2255 C   0  0  0  0  0  0  0  0  0  0  0  0
   19.0650   -6.0141  -15.9101 O   0  0  0  0  0  0  0  0  0  0  0  0
   20.4144   -4.1741  -16.2082 O   0  0  0  0  0  0  0  0  0  0  0  0
  2  9  1  0
  2  1  1  1
  3  2  1  0
  4  3  1  0
  5  4  2  0
  6  5  1  0
  7  6  1  0
  7  8  2  0
  8  4  1  0
  9 11  1  0
 10  9  2  0
 11 15  1  0
 12 11  1  0
 12 13  1  0
 13 14  1  0
 15 16  1  6
 15 14  1  0
 16 17  2  0
 19 18  1  6
 19 21  1  0
 19 20  1  0
 21 22  1  6
 22 16  1  0
 23 21  1  0
 24 23  2  0
 25 23  1  0
M  END
$$$$
