HPV.pdb
     RDKit          3D

 25 26  0  0  1  0  0  0  0  0999 V2000
   24.5031  -22.1728  -12.9350 N   0  0  0  0  0  0  0  0  0  0  0  0
   25.2144  -21.1100  -12.3238 C   0  0  1  0  0  0  0  0  0  0  0  0
   24.2893  -19.9902  -11.8363 C   0  0  0  0  0  0  0  0  0  0  0  0
   23.4936  -19.4452  -12.9710 C   0  0  0  0  0  0  0  0  0  0  0  0
   23.9965  -18.6504  -13.9733 C   0  0  0  0  0  0  0  0  0  0  0  0
   23.0003  -18.3587  -14.8043 N   0  0  0  0  0  0  0  0  0  0  0  0
   21.9096  -18.9518  -14.3371 C   0  0  0  0  0  0  0  0  0  0  0  0
   22.1887  -19.6255  -13.2108 N   0  0  0  0  0  0  0  0  0  0  0  0
   26.0728  -21.4790  -11.1882 C   0  0  0  0  0  0  0  0  0  0  0  0
   25.5035  -22.2123  -10.3108 O   0  0  0  0  0  0  0  0  0  0  0  0
   27.4293  -21.0767  -11.0367 N   0  0  0  0  0  0  0  0  0  0  0  0
   28.2294  -20.2223  -11.8776 C   0  0  0  0  0  0  0  0  0  0  0  0
   29.6781  -20.5072  -11.5454 C   0  0  0  0  0  0  0  0  0  0  0  0
   29.6530  -21.6414  -10.5623 C   0  0  0  0  0  0  0  0  0  0  0  0
   28.2801  -21.4856   -9.9466 C   0  0  1  0  0  0  0  0  0  0  0  0
   28.3832  -20.5029   -8.8580 C   0  0  0  0  0  0  0  0  0  0  0  0
   28.2131  -19.2924   -9.1535 O   0  0  0  0  0  0  0  0  0  0  0  0
   27.2934  -19.7589   -4.1248 C   0  0  0  0  0  0  0  0  0  0  0  0
   27.4456  -20.5618   -5.3712 C   0  0  1  0  0  0  0  0  0  0  0  0
   26.0774  -20.7362   -5.9969 C   0  0  0  0  0  0  0  0  0  0  0  0
   28.3369  -19.9235   -6.4027 C   0  0  2  0  0  0  0  0  0  0  0  0
   28.6599  -20.8041   -7.4963 N   0  0  0  0  0  0  0  0  0  0  0  0
   29.5941  -19.5063   -5.7381 C   0  0  0  0  0  0  0  0  0  0  0  0
   30.6576  -20.1713   -5.8810 O   0  0  0  0  0  0  0  0  0  0  0  0
   29.5779  -18.3640   -4.9517 O   0  0  0  0  0  0  0  0  0  0  0  0
  2  9  1  0
  2  1  1  1
  3  2  1  0
  4  3  1  0
  5  4  2  0
  6  5  1  0
  7  6  1  0
  7  8  2  0
  8  4  1  0
  9 11  1  0
 10  9  2  0
 11 15  1  0
 12 11  1  0
 12 13  1  0
 13 14  1  0
 15 16  1  1
 15 14  1  0
 16 17  2  0
 19 18  1  1
 19 21  1  0
 19 20  1  0
 21 22  1  6
 22 16  1  0
 23 21  1  0
 24 23  2  0
 25 23  1  0
M  END
$$$$
