HPV.pdb
     RDKit          3D

 25 26  0  0  1  0  0  0  0  0999 V2000
   22.0776  -20.0821  -16.7314 N   0  0  0  0  0  0  0  0  0  0  0  0
   22.8653  -19.2183  -15.9298 C   0  0  1  0  0  0  0  0  0  0  0  0
   22.0180  -18.3686  -14.9772 C   0  0  0  0  0  0  0  0  0  0  0  0
   21.0315  -17.5587  -15.7445 C   0  0  0  0  0  0  0  0  0  0  0  0
   21.3497  -16.5004  -16.5618 C   0  0  0  0  0  0  0  0  0  0  0  0
   20.2193  -16.0248  -17.0758 N   0  0  0  0  0  0  0  0  0  0  0  0
   19.2262  -16.7616  -16.5957 C   0  0  0  0  0  0  0  0  0  0  0  0
   19.7015  -17.7108  -15.7750 N   0  0  0  0  0  0  0  0  0  0  0  0
   23.9041  -19.8655  -15.1147 C   0  0  0  0  0  0  0  0  0  0  0  0
   23.5919  -21.0270  -14.6843 O   0  0  0  0  0  0  0  0  0  0  0  0
   25.1661  -19.2855  -14.8049 N   0  0  0  0  0  0  0  0  0  0  0  0
   25.6861  -17.9871  -15.1525 C   0  0  0  0  0  0  0  0  0  0  0  0
   27.1907  -18.0609  -15.0077 C   0  0  0  0  0  0  0  0  0  0  0  0
   27.4961  -19.4922  -14.6738 C   0  0  0  0  0  0  0  0  0  0  0  0
   26.1978  -19.9458  -14.0438 C   0  0  1  0  0  0  0  0  0  0  0  0
   26.2326  -19.5739  -12.6219 C   0  0  0  0  0  0  0  0  0  0  0  0
   25.8337  -18.4212  -12.3156 O   0  0  0  0  0  0  0  0  0  0  0  0
   27.8350  -21.6429   -9.1665 C   0  0  0  0  0  0  0  0  0  0  0  0
   26.4462  -21.9167   -9.6326 C   0  0  1  0  0  0  0  0  0  0  0  0
   25.5639  -22.1100   -8.4168 C   0  0  0  0  0  0  0  0  0  0  0  0
   25.8484  -20.8055  -10.4535 C   0  0  2  0  0  0  0  0  0  0  0  0
   26.6801  -20.4074  -11.5605 N   0  0  0  0  0  0  0  0  0  0  0  0
   25.6372  -19.6349   -9.5696 C   0  0  0  0  0  0  0  0  0  0  0  0
   26.5012  -18.7183   -9.4856 O   0  0  0  0  0  0  0  0  0  0  0  0
   24.4643  -19.5669   -8.8325 O   0  0  0  0  0  0  0  0  0  0  0  0
  2  9  1  0
  2  1  1  1
  3  2  1  0
  4  3  1  0
  5  4  2  0
  6  5  1  0
  7  6  1  0
  7  8  2  0
  8  4  1  0
  9 11  1  0
 10  9  2  0
 11 15  1  0
 12 11  1  0
 12 13  1  0
 13 14  1  0
 15 16  1  1
 15 14  1  0
 16 17  2  0
 19 18  1  1
 19 21  1  0
 19 20  1  0
 21 22  1  6
 22 16  1  0
 23 21  1  0
 24 23  2  0
 25 23  1  0
M  END
$$$$
