HPV.pdb
     RDKit          3D

 25 26  0  0  1  0  0  0  0  0999 V2000
   25.1657  -21.9837  -12.4389 N   0  0  0  0  0  0  0  0  0  0  0  0
   26.1558  -21.0880  -11.9628 C   0  0  1  0  0  0  0  0  0  0  0  0
   25.6071  -19.6758  -11.7351 C   0  0  0  0  0  0  0  0  0  0  0  0
   25.0417  -19.1299  -13.0001 C   0  0  0  0  0  0  0  0  0  0  0  0
   25.7850  -18.7290  -14.0846 C   0  0  0  0  0  0  0  0  0  0  0  0
   24.9447  -18.3013  -15.0221 N   0  0  0  0  0  0  0  0  0  0  0  0
   23.7157  -18.4303  -14.5400 C   0  0  0  0  0  0  0  0  0  0  0  0
   23.7506  -18.9377  -13.2983 N   0  0  0  0  0  0  0  0  0  0  0  0
   26.8403  -21.4848  -10.7233 C   0  0  0  0  0  0  0  0  0  0  0  0
   26.0721  -21.9745   -9.8279 O   0  0  0  0  0  0  0  0  0  0  0  0
   28.2387  -21.3531  -10.4950 N   0  0  0  0  0  0  0  0  0  0  0  0
   29.2524  -20.7709  -11.3380 C   0  0  0  0  0  0  0  0  0  0  0  0
   30.5846  -21.3085  -10.8622 C   0  0  0  0  0  0  0  0  0  0  0  0
   30.2591  -22.3060   -9.7886 C   0  0  0  0  0  0  0  0  0  0  0  0
   28.9135  -21.8116   -9.3058 C   0  0  1  0  0  0  0  0  0  0  0  0
   29.1518  -20.7631   -8.3032 C   0  0  0  0  0  0  0  0  0  0  0  0
   29.2609  -19.5807   -8.7174 O   0  0  0  0  0  0  0  0  0  0  0  0
   27.1136  -20.7324   -4.7642 C   0  0  0  0  0  0  0  0  0  0  0  0
   27.7702  -19.6158   -5.5014 C   0  0  1  0  0  0  0  0  0  0  0  0
   27.8145  -18.4048   -4.5930 C   0  0  0  0  0  0  0  0  0  0  0  0
   29.1829  -19.9139   -5.9273 C   0  0  2  0  0  0  0  0  0  0  0  0
   29.2703  -20.9716   -6.9017 N   0  0  0  0  0  0  0  0  0  0  0  0
   29.9588  -20.3051   -4.7269 C   0  0  0  0  0  0  0  0  0  0  0  0
   30.2648  -21.5113   -4.5141 O   0  0  0  0  0  0  0  0  0  0  0  0
   30.3438  -19.3133   -3.8372 O   0  0  0  0  0  0  0  0  0  0  0  0
  2  9  1  0
  2  1  1  1
  3  2  1  0
  4  3  1  0
  5  4  2  0
  6  5  1  0
  7  6  1  0
  7  8  2  0
  8  4  1  0
  9 11  1  0
 10  9  2  0
 11 15  1  0
 12 11  1  0
 12 13  1  0
 13 14  1  0
 15 16  1  1
 15 14  1  0
 16 17  2  0
 19 18  1  1
 19 21  1  0
 19 20  1  0
 21 22  1  6
 22 16  1  0
 23 21  1  0
 24 23  2  0
 25 23  1  0
M  END
$$$$
