HPV.pdb
     RDKit          3D

 25 26  0  0  1  0  0  0  0  0999 V2000
   23.9276  -21.7001  -15.7957 N   0  0  0  0  0  0  0  0  0  0  0  0
   24.6795  -20.7366  -15.0778 C   0  0  1  0  0  0  0  0  0  0  0  0
   23.8535  -19.4968  -14.7204 C   0  0  0  0  0  0  0  0  0  0  0  0
   23.3964  -18.8049  -15.9574 C   0  0  0  0  0  0  0  0  0  0  0  0
   24.2237  -18.3631  -16.9622 C   0  0  0  0  0  0  0  0  0  0  0  0
   23.4668  -17.7984  -17.8981 N   0  0  0  0  0  0  0  0  0  0  0  0
   22.2068  -17.8840  -17.4922 C   0  0  0  0  0  0  0  0  0  0  0  0
   22.1391  -18.4990  -16.3016 N   0  0  0  0  0  0  0  0  0  0  0  0
   25.3055  -21.2058  -13.8327 C   0  0  0  0  0  0  0  0  0  0  0  0
   24.5827  -22.0035  -13.1449 O   0  0  0  0  0  0  0  0  0  0  0  0
   26.6047  -20.8299  -13.3900 N   0  0  0  0  0  0  0  0  0  0  0  0
   27.5591  -19.9418  -14.0045 C   0  0  0  0  0  0  0  0  0  0  0  0
   28.9108  -20.2632  -13.4049 C   0  0  0  0  0  0  0  0  0  0  0  0
   28.6865  -21.4485  -12.5114 C   0  0  0  0  0  0  0  0  0  0  0  0
   27.2182  -21.3083  -12.1758 C   0  0  1  0  0  0  0  0  0  0  0  0
   27.1023  -20.3873  -11.0358 C   0  0  0  0  0  0  0  0  0  0  0  0
   27.1690  -19.1552  -11.2785 O   0  0  0  0  0  0  0  0  0  0  0  0
   24.0081  -20.2746   -9.1851 C   0  0  0  0  0  0  0  0  0  0  0  0
   25.0704  -20.2653   -8.1398 C   0  0  1  0  0  0  0  0  0  0  0  0
   25.1806  -21.6596   -7.5586 C   0  0  0  0  0  0  0  0  0  0  0  0
   26.4311  -19.8816   -8.6566 C   0  0  2  0  0  0  0  0  0  0  0  0
   26.9212  -20.7709   -9.6787 N   0  0  0  0  0  0  0  0  0  0  0  0
   27.3813  -19.8913   -7.5194 C   0  0  0  0  0  0  0  0  0  0  0  0
   28.2693  -20.7831   -7.4207 O   0  0  0  0  0  0  0  0  0  0  0  0
   27.2741  -18.8949   -6.5606 O   0  0  0  0  0  0  0  0  0  0  0  0
  2  9  1  0
  2  1  1  1
  3  2  1  0
  4  3  1  0
  5  4  2  0
  6  5  1  0
  7  6  1  0
  7  8  2  0
  8  4  1  0
  9 11  1  0
 10  9  2  0
 11 15  1  0
 12 11  1  0
 12 13  1  0
 13 14  1  0
 15 16  1  1
 15 14  1  0
 16 17  2  0
 19 18  1  6
 19 21  1  0
 19 20  1  0
 21 22  1  6
 22 16  1  0
 23 21  1  0
 24 23  2  0
 25 23  1  0
M  END
$$$$
