HPV.pdb
     RDKit          3D

 25 26  0  0  1  0  0  0  0  0999 V2000
   25.8710  -33.0313   -9.0525 N   0  0  0  0  0  0  0  0  0  0  0  0
   25.1626  -33.3562   -7.8685 C   0  0  1  0  0  0  0  0  0  0  0  0
   24.4124  -34.6872   -7.9816 C   0  0  0  0  0  0  0  0  0  0  0  0
   23.4181  -34.6287   -9.0887 C   0  0  0  0  0  0  0  0  0  0  0  0
   22.2574  -33.8928   -9.0645 C   0  0  0  0  0  0  0  0  0  0  0  0
   21.6261  -34.0845  -10.2189 N   0  0  0  0  0  0  0  0  0  0  0  0
   22.3676  -34.9134  -10.9419 C   0  0  0  0  0  0  0  0  0  0  0  0
   23.4741  -35.2613  -10.2675 N   0  0  0  0  0  0  0  0  0  0  0  0
   25.9630  -33.4209   -6.6366 C   0  0  0  0  0  0  0  0  0  0  0  0
   27.2189  -33.5553   -6.8279 O   0  0  0  0  0  0  0  0  0  0  0  0
   25.4277  -33.3445   -5.3204 N   0  0  0  0  0  0  0  0  0  0  0  0
   24.0542  -33.3986   -4.8869 C   0  0  0  0  0  0  0  0  0  0  0  0
   24.0061  -32.8020   -3.4970 C   0  0  0  0  0  0  0  0  0  0  0  0
   25.3962  -32.3077   -3.2197 C   0  0  0  0  0  0  0  0  0  0  0  0
   26.2240  -33.1895   -4.1281 C   0  0  1  0  0  0  0  0  0  0  0  0
   26.4942  -34.4455   -3.4135 C   0  0  0  0  0  0  0  0  0  0  0  0
   25.5690  -35.2962   -3.3689 O   0  0  0  0  0  0  0  0  0  0  0  0
   29.2146  -36.9626   -4.2071 C   0  0  0  0  0  0  0  0  0  0  0  0
   29.2467  -36.7057   -2.7394 C   0  0  1  0  0  0  0  0  0  0  0  0
   30.3890  -35.7555   -2.4458 C   0  0  0  0  0  0  0  0  0  0  0  0
   27.9877  -36.0793   -2.2024 C   0  0  2  0  0  0  0  0  0  0  0  0
   27.7146  -34.7819   -2.7661 N   0  0  0  0  0  0  0  0  0  0  0  0
   28.1254  -35.9424   -0.7332 C   0  0  0  0  0  0  0  0  0  0  0  0
   28.0049  -36.9423    0.0279 O   0  0  0  0  0  0  0  0  0  0  0  0
   28.3910  -34.6861   -0.2090 O   0  0  0  0  0  0  0  0  0  0  0  0
  2  9  1  0
  2  1  1  6
  3  2  1  0
  4  3  1  0
  5  4  2  0
  6  5  1  0
  7  6  1  0
  7  8  2  0
  8  4  1  0
  9 11  1  0
 10  9  2  0
 11 15  1  0
 12 11  1  0
 12 13  1  0
 13 14  1  0
 15 16  1  1
 15 14  1  0
 16 17  2  0
 19 18  1  6
 19 21  1  0
 19 20  1  0
 21 22  1  6
 22 16  1  0
 23 21  1  0
 24 23  2  0
 25 23  1  0
M  END
$$$$
