ERD.pdb
     RDKit          3D

 29 28  0  0  1  0  0  0  0  0999 V2000
   22.6081  -20.7454  -15.6303 N   0  0  0  0  0  0  0  0  0  0  0  0
   22.2904  -19.4254  -15.1791 C   0  0  1  0  0  0  0  0  0  0  0  0
   21.1715  -19.4073  -14.1649 C   0  0  0  0  0  0  0  0  0  0  0  0
   20.2717  -20.6183  -14.2663 C   0  0  0  0  0  0  0  0  0  0  0  0
   20.5990  -21.5034  -13.1346 C   0  0  0  0  0  0  0  0  0  0  0  0
   20.4348  -21.0967  -11.9722 O   0  0  0  0  0  0  0  0  0  0  0  0
   23.4995  -18.7130  -14.7363 C   0  0  0  0  0  0  0  0  0  0  0  0
   23.4852  -17.5341  -14.2905 O   0  0  0  0  0  0  0  0  0  0  0  0
   21.0809  -22.7640  -13.3691 O   0  0  0  0  0  0  0  0  0  0  0  0
   25.6204  -23.3375  -14.8629 N   0  0  0  0  0  0  0  0  0  0  0  0
   25.2616  -23.5739  -13.5151 C   0  0  0  0  0  0  0  0  0  0  0  0
   24.3456  -24.4321  -13.2407 N   0  0  0  0  0  0  0  0  0  0  0  0
   25.9312  -22.8475  -12.4820 N   0  0  0  0  0  0  0  0  0  0  0  0
   26.7700  -21.7289  -12.8325 C   0  0  0  0  0  0  0  0  0  0  0  0
   25.8717  -20.4853  -12.9453 C   0  0  0  0  0  0  0  0  0  0  0  0
   26.6947  -19.3689  -13.4844 C   0  0  0  0  0  0  0  0  0  0  0  0
   26.0149  -18.6892  -14.6212 C   0  0  2  0  0  0  0  0  0  0  0  0
   24.7445  -19.3924  -14.8178 N   0  0  0  0  0  0  0  0  0  0  0  0
   26.7531  -18.7634  -15.8899 C   0  0  0  0  0  0  0  0  0  0  0  0
   27.1218  -19.8702  -16.3269 O   0  0  0  0  0  0  0  0  0  0  0  0
   24.1352  -24.6311  -12.2422 N   0  0  0  0  0  0  0  0  0  0  0  0
   27.0529  -17.5970  -16.6238 C   0  0  1  0  0  0  0  0  0  0  0  0
   27.7306  -17.5870  -17.9209 C   0  0  0  0  0  0  0  0  0  0  0  0
   27.0033  -18.5046  -18.8169 C   0  0  0  0  0  0  0  0  0  0  0  0
   27.3489  -18.5149  -20.2305 O   0  0  0  0  0  0  0  0  0  0  0  0
   28.4513  -18.2929  -20.7544 C   0  0  0  0  0  0  0  0  0  0  0  0
   27.9093  -16.1977  -18.4045 O   0  0  0  0  0  0  0  0  0  0  0  0
   27.4213  -15.2284  -17.8019 O   0  0  0  0  0  0  0  0  0  0  0  0
   26.2799  -18.8192  -21.1087 O   0  0  0  0  0  0  0  0  0  0  0  0
  2  1  1  1
  2  3  1  0
  2  7  1  0
  3  4  1  0
  4  5  1  0
  5  9  1  0
  6  5  2  0
  7  8  2  0
 11 10  1  0
 12 11  2  0
 13 11  1  0
 14 13  1  0
 15 14  1  0
 15 16  1  0
 17 16  1  1
 18  7  1  0
 18 17  1  0
 19 17  1  0
 19 20  2  0
 21 19  1  0
 22 21  1  0
 22 23  1  1
 24 25  2  0
 24 23  1  0
 26 22  1  0
 26 29  1  0
 27 26  2  0
 28 24  1  0
M  END
$$$$
