ERD.pdb
     RDKit          3D

 29 28  0  0  1  0  0  0  0  0999 V2000
   24.8235  -13.5181  -19.3566 N   0  0  0  0  0  0  0  0  0  0  0  0
   24.2915  -13.2643  -18.0529 C   0  0  1  0  0  0  0  0  0  0  0  0
   25.3663  -13.0557  -17.0128 C   0  0  0  0  0  0  0  0  0  0  0  0
   26.2040  -11.8250  -17.2774 C   0  0  0  0  0  0  0  0  0  0  0  0
   27.2931  -11.8145  -16.2849 C   0  0  0  0  0  0  0  0  0  0  0  0
   27.3605  -12.7236  -15.4407 O   0  0  0  0  0  0  0  0  0  0  0  0
   23.2905  -12.1863  -18.0914 C   0  0  0  0  0  0  0  0  0  0  0  0
   23.3764  -11.1876  -18.8555 O   0  0  0  0  0  0  0  0  0  0  0  0
   28.2210  -10.8070  -16.2978 O   0  0  0  0  0  0  0  0  0  0  0  0
   15.8130  -14.1214  -15.2416 N   0  0  0  0  0  0  0  0  0  0  0  0
   16.2326  -12.8998  -14.6648 C   0  0  0  0  0  0  0  0  0  0  0  0
   15.6147  -12.4339  -13.6391 N   0  0  0  0  0  0  0  0  0  0  0  0
   17.3424  -12.2067  -15.2405 N   0  0  0  0  0  0  0  0  0  0  0  0
   17.4033  -12.0312  -16.6699 C   0  0  0  0  0  0  0  0  0  0  0  0
   18.6396  -11.1720  -16.9853 C   0  0  0  0  0  0  0  0  0  0  0  0
   19.8401  -12.0489  -16.9188 C   0  0  0  0  0  0  0  0  0  0  0  0
   21.0806  -11.3034  -17.2680 C   0  0  2  0  0  0  0  0  0  0  0  0
   22.1719  -12.2800  -17.2205 N   0  0  0  0  0  0  0  0  0  0  0  0
   21.4180  -10.2288  -16.3238 C   0  0  0  0  0  0  0  0  0  0  0  0
   21.9766  -10.5061  -15.2454 O   0  0  0  0  0  0  0  0  0  0  0  0
   15.9492  -11.5429  -13.2209 N   0  0  0  0  0  0  0  0  0  0  0  0
   21.1181   -8.8829  -16.6196 C   0  0  2  0  0  0  0  0  0  0  0  0
   21.4654   -7.7499  -15.7608 C   0  0  0  0  0  0  0  0  0  0  0  0
   21.0779   -6.5143  -16.4655 C   0  0  0  0  0  0  0  0  0  0  0  0
   21.8182   -6.1336  -17.6593 O   0  0  0  0  0  0  0  0  0  0  0  0
   21.4684   -5.3662  -18.5691 C   0  0  0  0  0  0  0  0  0  0  0  0
   20.9061   -7.9361  -14.4012 O   0  0  0  0  0  0  0  0  0  0  0  0
   19.7840   -8.4348  -14.2191 O   0  0  0  0  0  0  0  0  0  0  0  0
   23.1007   -6.7221  -17.7847 O   0  0  0  0  0  0  0  0  0  0  0  0
  2  1  1  6
  2  3  1  0
  2  7  1  0
  3  4  1  0
  4  5  1  0
  5  9  1  0
  6  5  2  0
  7  8  2  0
 11 10  1  0
 12 11  2  0
 13 11  1  0
 14 13  1  0
 15 14  1  0
 15 16  1  0
 17 16  1  1
 18  7  1  0
 18 17  1  0
 19 17  1  0
 19 20  2  0
 21 19  1  0
 22 21  1  0
 22 23  1  6
 24 25  2  0
 24 23  1  0
 26 22  1  0
 26 29  1  0
 27 26  2  0
 28 24  1  0
M  END
$$$$
