ERD.pdb
     RDKit          3D

 29 28  0  0  1  0  0  0  0  0999 V2000
   21.5561  -20.4032  -10.9954 N   0  0  0  0  0  0  0  0  0  0  0  0
   22.1518  -21.1929  -12.0290 C   0  0  1  0  0  0  0  0  0  0  0  0
   21.1584  -21.6254  -13.0810 C   0  0  0  0  0  0  0  0  0  0  0  0
   19.7789  -21.8745  -12.5143 C   0  0  0  0  0  0  0  0  0  0  0  0
   18.9116  -22.2796  -13.6345 C   0  0  0  0  0  0  0  0  0  0  0  0
   18.1421  -21.4482  -14.1444 O   0  0  0  0  0  0  0  0  0  0  0  0
   23.3438  -20.5291  -12.5806 C   0  0  0  0  0  0  0  0  0  0  0  0
   23.3200  -19.3806  -13.0991 O   0  0  0  0  0  0  0  0  0  0  0  0
   18.9578  -23.5652  -14.1053 O   0  0  0  0  0  0  0  0  0  0  0  0
   30.5392  -22.2970   -8.8864 N   0  0  0  0  0  0  0  0  0  0  0  0
   30.5627  -22.0537  -10.2797 C   0  0  0  0  0  0  0  0  0  0  0  0
   31.5930  -22.3926  -10.9685 N   0  0  0  0  0  0  0  0  0  0  0  0
   29.4316  -21.4318  -10.8938 N   0  0  0  0  0  0  0  0  0  0  0  0
   28.1888  -21.3482  -10.1683 C   0  0  0  0  0  0  0  0  0  0  0  0
   27.2103  -20.5094  -11.0079 C   0  0  0  0  0  0  0  0  0  0  0  0
   26.9311  -21.2503  -12.2680 C   0  0  0  0  0  0  0  0  0  0  0  0
   25.8189  -20.6240  -13.0343 C   0  0  2  0  0  0  0  0  0  0  0  0
   24.5826  -21.2224  -12.5240 N   0  0  0  0  0  0  0  0  0  0  0  0
   25.8653  -20.8888  -14.4792 C   0  0  0  0  0  0  0  0  0  0  0  0
   25.5957  -22.0269  -14.9083 O   0  0  0  0  0  0  0  0  0  0  0  0
   31.5974  -22.1886  -11.9879 N   0  0  0  0  0  0  0  0  0  0  0  0
   26.2120  -19.8714  -15.3922 C   0  0  2  0  0  0  0  0  0  0  0  0
   26.2654  -20.0458  -16.8443 C   0  0  0  0  0  0  0  0  0  0  0  0
   25.1157  -19.3304  -17.4272 C   0  0  0  0  0  0  0  0  0  0  0  0
   24.9558  -19.3335  -18.8737 O   0  0  0  0  0  0  0  0  0  0  0  0
   25.6776  -19.8734  -19.7261 C   0  0  0  0  0  0  0  0  0  0  0  0
   27.6033  -19.6773  -17.3643 O   0  0  0  0  0  0  0  0  0  0  0  0
   27.8628  -19.7052  -18.5779 O   0  0  0  0  0  0  0  0  0  0  0  0
   23.8271  -18.6260  -19.3555 O   0  0  0  0  0  0  0  0  0  0  0  0
  2  1  1  1
  2  3  1  0
  2  7  1  0
  3  4  1  0
  4  5  1  0
  5  9  1  0
  6  5  2  0
  7  8  2  0
 11 10  1  0
 12 11  2  0
 13 11  1  0
 14 13  1  0
 15 14  1  0
 15 16  1  0
 17 16  1  1
 18  7  1  0
 18 17  1  0
 19 17  1  0
 19 20  2  0
 21 19  1  0
 22 21  1  0
 22 23  1  6
 24 25  2  0
 24 23  1  0
 26 22  1  0
 26 29  1  0
 27 26  2  0
 28 24  1  0
M  END
$$$$
