ERD.pdb
     RDKit          3D

 29 28  0  0  1  0  0  0  0  0999 V2000
   27.4576  -26.2481  -16.0845 N   0  0  0  0  0  0  0  0  0  0  0  0
   27.2540  -24.9970  -16.7479 C   0  0  1  0  0  0  0  0  0  0  0  0
   26.5989  -25.1514  -18.0999 C   0  0  0  0  0  0  0  0  0  0  0  0
   25.2377  -25.8046  -18.0181 C   0  0  0  0  0  0  0  0  0  0  0  0
   25.3360  -27.1088  -18.6968 C   0  0  0  0  0  0  0  0  0  0  0  0
   26.4168  -27.4560  -19.2017 O   0  0  0  0  0  0  0  0  0  0  0  0
   26.5698  -24.0369  -15.8671 C   0  0  0  0  0  0  0  0  0  0  0  0
   25.7145  -24.3749  -15.0051 O   0  0  0  0  0  0  0  0  0  0  0  0
   24.2402  -27.9276  -18.7675 O   0  0  0  0  0  0  0  0  0  0  0  0
   28.2053  -16.5694  -17.0473 N   0  0  0  0  0  0  0  0  0  0  0  0
   27.0306  -16.2384  -16.3319 C   0  0  0  0  0  0  0  0  0  0  0  0
   26.2840  -15.2768  -16.7426 N   0  0  0  0  0  0  0  0  0  0  0  0
   26.6989  -16.9868  -15.1600 N   0  0  0  0  0  0  0  0  0  0  0  0
   27.5571  -18.0673  -14.7433 C   0  0  0  0  0  0  0  0  0  0  0  0
   26.6688  -19.2915  -14.4634 C   0  0  0  0  0  0  0  0  0  0  0  0
   27.1733  -20.4252  -15.2848 C   0  0  0  0  0  0  0  0  0  0  0  0
   26.3664  -21.6575  -15.0684 C   0  0  2  0  0  0  0  0  0  0  0  0
   26.8926  -22.6597  -15.9989 N   0  0  0  0  0  0  0  0  0  0  0  0
   24.9366  -21.4958  -15.3674 C   0  0  0  0  0  0  0  0  0  0  0  0
   24.5708  -21.2719  -16.5371 O   0  0  0  0  0  0  0  0  0  0  0  0
   25.4658  -15.0017  -16.1634 N   0  0  0  0  0  0  0  0  0  0  0  0
   23.9672  -21.5899  -14.3473 C   0  0  2  0  0  0  0  0  0  0  0  0
   22.5281  -21.4240  -14.5556 C   0  0  0  0  0  0  0  0  0  0  0  0
   21.8333  -22.4151  -13.7139 C   0  0  0  0  0  0  0  0  0  0  0  0
   20.3786  -22.4495  -13.7379 O   0  0  0  0  0  0  0  0  0  0  0  0
   19.6018  -21.7056  -14.3561 C   0  0  0  0  0  0  0  0  0  0  0  0
   22.1344  -20.0079  -14.3674 O   0  0  0  0  0  0  0  0  0  0  0  0
   22.7212  -19.2683  -13.5615 O   0  0  0  0  0  0  0  0  0  0  0  0
   19.7881  -23.4682  -12.9503 O   0  0  0  0  0  0  0  0  0  0  0  0
  2  1  1  1
  2  3  1  0
  2  7  1  0
  3  4  1  0
  4  5  1  0
  5  9  1  0
  6  5  2  0
  7  8  2  0
 11 10  1  0
 12 11  2  0
 13 11  1  0
 14 13  1  0
 15 14  1  0
 15 16  1  0
 17 16  1  6
 18  7  1  0
 18 17  1  0
 19 17  1  0
 19 20  2  0
 21 19  1  0
 22 21  1  0
 22 23  1  1
 24 25  2  0
 24 23  1  0
 26 22  1  0
 26 29  1  0
 27 26  2  0
 28 24  1  0
M  END
$$$$
