ERD.pdb
     RDKit          3D

 29 28  0  0  1  0  0  0  0  0999 V2000
   26.4545  -31.9291   -8.0324 N   0  0  0  0  0  0  0  0  0  0  0  0
   25.6354  -33.0193   -7.5992 C   0  0  1  0  0  0  0  0  0  0  0  0
   25.0695  -33.8186   -8.7488 C   0  0  0  0  0  0  0  0  0  0  0  0
   25.4209  -33.2317  -10.0972 C   0  0  0  0  0  0  0  0  0  0  0  0
   24.2872  -33.4981  -10.9999 C   0  0  0  0  0  0  0  0  0  0  0  0
   23.2516  -34.0131  -10.5463 O   0  0  0  0  0  0  0  0  0  0  0  0
   26.3346  -33.8400   -6.5976 C   0  0  0  0  0  0  0  0  0  0  0  0
   25.8567  -34.9024   -6.1163 O   0  0  0  0  0  0  0  0  0  0  0  0
   24.3807  -33.1782  -12.3286 O   0  0  0  0  0  0  0  0  0  0  0  0
   33.4063  -35.8730   -5.7080 N   0  0  0  0  0  0  0  0  0  0  0  0
   33.5924  -35.0314   -6.8297 C   0  0  0  0  0  0  0  0  0  0  0  0
   34.3868  -35.3927   -7.7727 N   0  0  0  0  0  0  0  0  0  0  0  0
   32.8874  -33.7893   -6.8887 N   0  0  0  0  0  0  0  0  0  0  0  0
   32.0293  -33.4095   -5.7945 C   0  0  0  0  0  0  0  0  0  0  0  0
   30.6708  -34.1009   -6.0011 C   0  0  0  0  0  0  0  0  0  0  0  0
   29.6986  -33.5023   -5.0467 C   0  0  0  0  0  0  0  0  0  0  0  0
   28.3653  -34.1577   -5.1428 C   0  0  2  0  0  0  0  0  0  0  0  0
   27.6131  -33.4087   -6.1529 N   0  0  0  0  0  0  0  0  0  0  0  0
   27.5854  -34.1116   -3.8980 C   0  0  0  0  0  0  0  0  0  0  0  0
   26.7079  -33.2397   -3.7499 O   0  0  0  0  0  0  0  0  0  0  0  0
   34.4880  -34.7727   -8.6011 N   0  0  0  0  0  0  0  0  0  0  0  0
   27.8153  -35.0420   -2.8634 C   0  0  1  0  0  0  0  0  0  0  0  0
   27.0160  -35.1340   -1.6408 C   0  0  0  0  0  0  0  0  0  0  0  0
   25.6019  -35.2688   -2.0353 C   0  0  0  0  0  0  0  0  0  0  0  0
   24.6139  -34.4251   -1.3797 O   0  0  0  0  0  0  0  0  0  0  0  0
   23.3796  -34.4495   -1.5012 C   0  0  0  0  0  0  0  0  0  0  0  0
   27.5534  -36.1853   -0.7451 O   0  0  0  0  0  0  0  0  0  0  0  0
   27.7612  -37.3415   -1.1461 O   0  0  0  0  0  0  0  0  0  0  0  0
   25.1441  -33.4570   -0.4917 O   0  0  0  0  0  0  0  0  0  0  0  0
  2  1  1  6
  2  3  1  0
  2  7  1  0
  3  4  1  0
  4  5  1  0
  5  9  1  0
  6  5  2  0
  7  8  2  0
 11 10  1  0
 12 11  2  0
 13 11  1  0
 14 13  1  0
 15 14  1  0
 15 16  1  0
 17 16  1  1
 18  7  1  0
 18 17  1  0
 19 17  1  0
 19 20  2  0
 21 19  1  0
 22 21  1  0
 22 23  1  1
 24 25  2  0
 24 23  1  0
 26 22  1  0
 26 29  1  0
 27 26  2  0
 28 24  1  0
M  END
$$$$
