ERD.pdb
     RDKit          3D

 29 28  0  0  1  0  0  0  0  0999 V2000
   13.8038   -4.4351   -9.0688 N   0  0  0  0  0  0  0  0  0  0  0  0
   14.8327   -4.6421   -8.0965 C   0  0  1  0  0  0  0  0  0  0  0  0
   14.2994   -4.7075   -6.6851 C   0  0  0  0  0  0  0  0  0  0  0  0
   13.4832   -3.4905   -6.3122 C   0  0  0  0  0  0  0  0  0  0  0  0
   14.4134   -2.3517   -6.2163 C   0  0  0  0  0  0  0  0  0  0  0  0
   15.6045   -2.5059   -6.5341 O   0  0  0  0  0  0  0  0  0  0  0  0
   15.6808   -5.7884   -8.4605 C   0  0  0  0  0  0  0  0  0  0  0  0
   16.6515   -6.1826   -7.7597 O   0  0  0  0  0  0  0  0  0  0  0  0
   13.9621   -1.1346   -5.7788 O   0  0  0  0  0  0  0  0  0  0  0  0
   13.4898  -13.8108  -10.5440 N   0  0  0  0  0  0  0  0  0  0  0  0
   13.2193  -12.4942  -10.1031 C   0  0  0  0  0  0  0  0  0  0  0  0
   12.0301  -12.1775   -9.7337 N   0  0  0  0  0  0  0  0  0  0  0  0
   14.2828  -11.5393  -10.0785 N   0  0  0  0  0  0  0  0  0  0  0  0
   14.7349  -10.9512  -11.3144 C   0  0  0  0  0  0  0  0  0  0  0  0
   15.8289   -9.9248  -10.9735 C   0  0  0  0  0  0  0  0  0  0  0  0
   15.1656   -8.7018  -10.4455 C   0  0  0  0  0  0  0  0  0  0  0  0
   16.1604   -7.6561  -10.0799 C   0  0  2  0  0  0  0  0  0  0  0  0
   15.3869   -6.4830   -9.6644 N   0  0  0  0  0  0  0  0  0  0  0  0
   17.0224   -7.2357  -11.1935 C   0  0  0  0  0  0  0  0  0  0  0  0
   16.6234   -6.3644  -11.9895 O   0  0  0  0  0  0  0  0  0  0  0  0
   11.8251  -11.1805   -9.5225 N   0  0  0  0  0  0  0  0  0  0  0  0
   18.2994   -7.8053  -11.3771 C   0  0  2  0  0  0  0  0  0  0  0  0
   19.2376   -7.4112  -12.4289 C   0  0  0  0  0  0  0  0  0  0  0  0
   20.4237   -8.2807  -12.3244 C   0  0  0  0  0  0  0  0  0  0  0  0
   21.4799   -8.1377  -13.3153 O   0  0  0  0  0  0  0  0  0  0  0  0
   21.5527   -7.3251  -14.2499 C   0  0  0  0  0  0  0  0  0  0  0  0
   18.5594   -7.3773  -13.7460 O   0  0  0  0  0  0  0  0  0  0  0  0
   18.5905   -6.3703  -14.4711 O   0  0  0  0  0  0  0  0  0  0  0  0
   22.5560   -9.0493  -13.1830 O   0  0  0  0  0  0  0  0  0  0  0  0
  2  1  1  6
  2  3  1  0
  2  7  1  0
  3  4  1  0
  4  5  1  0
  5  9  1  0
  6  5  2  0
  7  8  2  0
 11 10  1  0
 12 11  2  0
 13 11  1  0
 14 13  1  0
 15 14  1  0
 15 16  1  0
 17 16  1  6
 18  7  1  0
 18 17  1  0
 19 17  1  0
 19 20  2  0
 21 19  1  0
 22 21  1  0
 22 23  1  1
 24 25  2  0
 24 23  1  0
 26 22  1  0
 26 29  1  0
 27 26  2  0
 28 24  1  0
M  END
$$$$
