ERD.pdb
     RDKit          3D

 29 28  0  0  1  0  0  0  0  0999 V2000
   16.2863  -14.1346  -15.3277 N   0  0  0  0  0  0  0  0  0  0  0  0
   17.0528  -13.0715  -14.7540 C   0  0  1  0  0  0  0  0  0  0  0  0
   18.2846  -12.7369  -15.5610 C   0  0  0  0  0  0  0  0  0  0  0  0
   19.1828  -13.9335  -15.7791 C   0  0  0  0  0  0  0  0  0  0  0  0
   20.3760  -13.4597  -16.5024 C   0  0  0  0  0  0  0  0  0  0  0  0
   20.4673  -12.2602  -16.8129 O   0  0  0  0  0  0  0  0  0  0  0  0
   16.2037  -11.9055  -14.4624 C   0  0  0  0  0  0  0  0  0  0  0  0
   15.2376  -11.5521  -15.1908 O   0  0  0  0  0  0  0  0  0  0  0  0
   21.3736  -14.3403  -16.8275 O   0  0  0  0  0  0  0  0  0  0  0  0
   12.1039   -9.4383   -7.4738 N   0  0  0  0  0  0  0  0  0  0  0  0
   11.8445   -8.4149   -8.4154 C   0  0  0  0  0  0  0  0  0  0  0  0
   10.8520   -7.6192   -8.2345 N   0  0  0  0  0  0  0  0  0  0  0  0
   12.6985   -8.2886   -9.5547 N   0  0  0  0  0  0  0  0  0  0  0  0
   13.5353   -9.3977   -9.9387 C   0  0  0  0  0  0  0  0  0  0  0  0
   14.2452   -9.0186  -11.2496 C   0  0  0  0  0  0  0  0  0  0  0  0
   15.1076  -10.1617  -11.6547 C   0  0  0  0  0  0  0  0  0  0  0  0
   15.7436   -9.9230  -12.9795 C   0  0  2  0  0  0  0  0  0  0  0  0
   16.4916  -11.1416  -13.2997 N   0  0  0  0  0  0  0  0  0  0  0  0
   16.7026   -8.8094  -12.9902 C   0  0  0  0  0  0  0  0  0  0  0  0
   17.7328   -8.8738  -12.2928 O   0  0  0  0  0  0  0  0  0  0  0  0
   10.7208   -6.8306   -8.8991 N   0  0  0  0  0  0  0  0  0  0  0  0
   16.4745   -7.6636  -13.7802 C   0  0  2  0  0  0  0  0  0  0  0  0
   17.3464   -6.4884  -13.8043 C   0  0  0  0  0  0  0  0  0  0  0  0
   18.2611   -6.6288  -14.9520 C   0  0  0  0  0  0  0  0  0  0  0  0
   19.1886   -5.5445  -15.2383 O   0  0  0  0  0  0  0  0  0  0  0  0
   19.3447   -4.4819  -14.6174 C   0  0  0  0  0  0  0  0  0  0  0  0
   16.5443   -5.2435  -13.7493 O   0  0  0  0  0  0  0  0  0  0  0  0
   15.4060   -5.1777  -14.2399 O   0  0  0  0  0  0  0  0  0  0  0  0
   20.0124   -5.7418  -16.3737 O   0  0  0  0  0  0  0  0  0  0  0  0
  2  1  1  6
  2  3  1  0
  2  7  1  0
  3  4  1  0
  4  5  1  0
  5  9  1  0
  6  5  2  0
  7  8  2  0
 11 10  1  0
 12 11  2  0
 13 11  1  0
 14 13  1  0
 15 14  1  0
 15 16  1  0
 17 16  1  1
 18  7  1  0
 18 17  1  0
 19 17  1  0
 19 20  2  0
 21 19  1  0
 22 21  1  0
 22 23  1  6
 24 25  2  0
 24 23  1  0
 26 22  1  0
 26 29  1  0
 27 26  2  0
 28 24  1  0
M  END
$$$$
