ERD.pdb
     RDKit          3D

 29 28  0  0  1  0  0  0  0  0999 V2000
   20.0674  -13.3751  -17.5882 N   0  0  0  0  0  0  0  0  0  0  0  0
   19.2297  -12.2170  -17.5260 C   0  0  1  0  0  0  0  0  0  0  0  0
   18.2067  -12.2937  -16.4177 C   0  0  0  0  0  0  0  0  0  0  0  0
   17.3045  -13.5012  -16.5383 C   0  0  0  0  0  0  0  0  0  0  0  0
   16.2885  -13.3968  -15.4763 C   0  0  0  0  0  0  0  0  0  0  0  0
   15.7007  -12.3173  -15.2956 O   0  0  0  0  0  0  0  0  0  0  0  0
   20.0332  -10.9842  -17.5028 C   0  0  0  0  0  0  0  0  0  0  0  0
   21.0490  -10.8326  -16.7722 O   0  0  0  0  0  0  0  0  0  0  0  0
   15.9989  -14.4855  -14.6970 O   0  0  0  0  0  0  0  0  0  0  0  0
   19.2703   -6.9286  -24.6448 N   0  0  0  0  0  0  0  0  0  0  0  0
   19.9360   -8.1728  -24.5447 C   0  0  0  0  0  0  0  0  0  0  0  0
   20.2537   -8.8132  -25.6123 N   0  0  0  0  0  0  0  0  0  0  0  0
   20.2422   -8.6927  -23.2489 N   0  0  0  0  0  0  0  0  0  0  0  0
   19.9098   -7.9191  -22.0789 C   0  0  0  0  0  0  0  0  0  0  0  0
   20.3653   -8.7156  -20.8442 C   0  0  0  0  0  0  0  0  0  0  0  0
   19.9635   -7.9545  -19.6302 C   0  0  0  0  0  0  0  0  0  0  0  0
   20.3855   -8.6519  -18.3843 C   0  0  2  0  0  0  0  0  0  0  0  0
   19.6397   -9.9126  -18.3485 N   0  0  0  0  0  0  0  0  0  0  0  0
   20.0619   -7.9208  -17.1512 C   0  0  0  0  0  0  0  0  0  0  0  0
   18.8901   -7.5551  -16.9385 O   0  0  0  0  0  0  0  0  0  0  0  0
   20.7318   -9.7314  -25.5164 N   0  0  0  0  0  0  0  0  0  0  0  0
   21.0606   -7.6245  -16.2005 C   0  0  1  0  0  0  0  0  0  0  0  0
   20.8622   -6.7653  -15.0325 C   0  0  0  0  0  0  0  0  0  0  0  0
   20.8201   -7.6295  -13.8387 C   0  0  0  0  0  0  0  0  0  0  0  0
   20.6409   -7.0066  -12.5357 O   0  0  0  0  0  0  0  0  0  0  0  0
   20.5719   -5.7982  -12.2639 C   0  0  0  0  0  0  0  0  0  0  0  0
   21.8586   -5.6685  -15.0173 O   0  0  0  0  0  0  0  0  0  0  0  0
   21.5892   -4.5476  -14.5571 O   0  0  0  0  0  0  0  0  0  0  0  0
   20.5325   -7.9079  -11.4482 O   0  0  0  0  0  0  0  0  0  0  0  0
  2  1  1  1
  2  3  1  0
  2  7  1  0
  3  4  1  0
  4  5  1  0
  5  9  1  0
  6  5  2  0
  7  8  2  0
 11 10  1  0
 12 11  2  0
 13 11  1  0
 14 13  1  0
 15 14  1  0
 15 16  1  0
 17 16  1  6
 18  7  1  0
 18 17  1  0
 19 17  1  0
 19 20  2  0
 21 19  1  0
 22 21  1  0
 22 23  1  6
 24 25  2  0
 24 23  1  0
 26 22  1  0
 26 29  1  0
 27 26  2  0
 28 24  1  0
M  END
$$$$
