ERD.pdb
     RDKit          3D

 29 28  0  0  1  0  0  0  0  0999 V2000
   24.9594  -18.4438  -18.1786 N   0  0  0  0  0  0  0  0  0  0  0  0
   25.4814  -19.7374  -18.4967 C   0  0  1  0  0  0  0  0  0  0  0  0
   26.8695  -19.6787  -19.0889 C   0  0  0  0  0  0  0  0  0  0  0  0
   27.9537  -19.9031  -18.0591 C   0  0  0  0  0  0  0  0  0  0  0  0
   29.2484  -19.7419  -18.7438 C   0  0  0  0  0  0  0  0  0  0  0  0
   29.6335  -18.6053  -19.0650 O   0  0  0  0  0  0  0  0  0  0  0  0
   25.3682  -20.6500  -17.3479 C   0  0  0  0  0  0  0  0  0  0  0  0
   25.6216  -21.8829  -17.4145 O   0  0  0  0  0  0  0  0  0  0  0  0
   30.0169  -20.8412  -19.0217 O   0  0  0  0  0  0  0  0  0  0  0  0
   23.8316  -20.1392  -10.1053 N   0  0  0  0  0  0  0  0  0  0  0  0
   24.9886  -20.6673   -9.4858 C   0  0  0  0  0  0  0  0  0  0  0  0
   24.9211  -21.1089   -8.2811 N   0  0  0  0  0  0  0  0  0  0  0  0
   26.2150  -20.6976  -10.2195 N   0  0  0  0  0  0  0  0  0  0  0  0
   26.2975  -20.0198  -11.4890 C   0  0  0  0  0  0  0  0  0  0  0  0
   25.4517  -20.8122  -12.5004 C   0  0  0  0  0  0  0  0  0  0  0  0
   25.6223  -20.1828  -13.8380 C   0  0  0  0  0  0  0  0  0  0  0  0
   24.8873  -20.9341  -14.8925 C   0  0  2  0  0  0  0  0  0  0  0  0
   24.9510  -20.1095  -16.1020 N   0  0  0  0  0  0  0  0  0  0  0  0
   23.4657  -21.1522  -14.5900 C   0  0  0  0  0  0  0  0  0  0  0  0
   23.1412  -21.7915  -13.5712 O   0  0  0  0  0  0  0  0  0  0  0  0
   25.7657  -21.5517   -7.8670 N   0  0  0  0  0  0  0  0  0  0  0  0
   22.4582  -20.6478  -15.4383 C   0  0  1  0  0  0  0  0  0  0  0  0
   21.0262  -20.8889  -15.2563 C   0  0  0  0  0  0  0  0  0  0  0  0
   20.3371  -19.5875  -15.3264 C   0  0  0  0  0  0  0  0  0  0  0  0
   20.1020  -18.8580  -14.0892 O   0  0  0  0  0  0  0  0  0  0  0  0
   20.4653  -19.1544  -12.9407 C   0  0  0  0  0  0  0  0  0  0  0  0
   20.5516  -21.9370  -16.1903 O   0  0  0  0  0  0  0  0  0  0  0  0
   19.4602  -22.5068  -16.0327 O   0  0  0  0  0  0  0  0  0  0  0  0
   19.3628  -17.6578  -14.2300 O   0  0  0  0  0  0  0  0  0  0  0  0
  2  1  1  1
  2  3  1  0
  2  7  1  0
  3  4  1  0
  4  5  1  0
  5  9  1  0
  6  5  2  0
  7  8  2  0
 11 10  1  0
 12 11  2  0
 13 11  1  0
 14 13  1  0
 15 14  1  0
 15 16  1  0
 17 16  1  1
 18  7  1  0
 18 17  1  0
 19 17  1  0
 19 20  2  0
 21 19  1  0
 22 21  1  0
 22 23  1  1
 24 25  2  0
 24 23  1  0
 26 22  1  0
 26 29  1  0
 27 26  2  0
 28 24  1  0
M  END
$$$$
