ERD.pdb
     RDKit          3D

 29 28  0  0  1  0  0  0  0  0999 V2000
   26.9890  -18.7278  -17.5252 N   0  0  0  0  0  0  0  0  0  0  0  0
   26.2739  -19.8927  -17.9478 C   0  0  1  0  0  0  0  0  0  0  0  0
   27.1511  -20.8882  -18.6690 C   0  0  0  0  0  0  0  0  0  0  0  0
   28.4123  -21.2178  -17.9028 C   0  0  0  0  0  0  0  0  0  0  0  0
   28.5366  -22.6858  -17.8743 C   0  0  0  0  0  0  0  0  0  0  0  0
   29.4730  -23.2086  -17.2472 O   0  0  0  0  0  0  0  0  0  0  0  0
   25.5107  -20.4774  -16.8336 C   0  0  0  0  0  0  0  0  0  0  0  0
   24.6932  -21.4261  -16.9760 O   0  0  0  0  0  0  0  0  0  0  0  0
   27.6233  -23.4628  -18.5365 O   0  0  0  0  0  0  0  0  0  0  0  0
   23.6535  -20.0922   -9.9179 N   0  0  0  0  0  0  0  0  0  0  0  0
   24.5496  -20.8327   -9.1118 C   0  0  0  0  0  0  0  0  0  0  0  0
   24.1724  -21.2485   -7.9560 N   0  0  0  0  0  0  0  0  0  0  0  0
   25.8638  -21.1032   -9.6050 N   0  0  0  0  0  0  0  0  0  0  0  0
   26.3256  -20.4326  -10.7944 C   0  0  0  0  0  0  0  0  0  0  0  0
   25.3823  -20.8174  -11.9469 C   0  0  0  0  0  0  0  0  0  0  0  0
   25.8726  -20.1541  -13.1855 C   0  0  0  0  0  0  0  0  0  0  0  0
   25.0297  -20.5035  -14.3620 C   0  0  2  0  0  0  0  0  0  0  0  0
   25.7083  -19.9415  -15.5328 N   0  0  0  0  0  0  0  0  0  0  0  0
   23.6795  -19.9242  -14.3231 C   0  0  0  0  0  0  0  0  0  0  0  0
   23.5373  -18.6980  -14.1556 O   0  0  0  0  0  0  0  0  0  0  0  0
   24.8727  -21.7106   -7.3422 N   0  0  0  0  0  0  0  0  0  0  0  0
   22.5370  -20.7375  -14.4724 C   0  0  2  0  0  0  0  0  0  0  0  0
   21.1602  -20.2416  -14.4527 C   0  0  0  0  0  0  0  0  0  0  0  0
   20.5924  -20.4331  -15.7997 C   0  0  0  0  0  0  0  0  0  0  0  0
   19.4492  -19.6232  -16.1936 O   0  0  0  0  0  0  0  0  0  0  0  0
   18.8074  -19.6632  -17.2546 C   0  0  0  0  0  0  0  0  0  0  0  0
   20.4059  -20.8433  -13.3279 O   0  0  0  0  0  0  0  0  0  0  0  0
   19.4309  -20.2712  -12.8151 O   0  0  0  0  0  0  0  0  0  0  0  0
   19.0261  -18.6723  -15.2326 O   0  0  0  0  0  0  0  0  0  0  0  0
  2  1  1  1
  2  3  1  0
  2  7  1  0
  3  4  1  0
  4  5  1  0
  5  9  1  0
  6  5  2  0
  7  8  2  0
 11 10  1  0
 12 11  2  0
 13 11  1  0
 14 13  1  0
 15 14  1  0
 15 16  1  0
 17 16  1  1
 18  7  1  0
 18 17  1  0
 19 17  1  0
 19 20  2  0
 21 19  1  0
 22 21  1  0
 22 23  1  6
 24 25  2  0
 24 23  1  0
 26 22  1  0
 26 29  1  0
 27 26  2  0
 28 24  1  0
M  END
$$$$
