ERD.pdb
     RDKit          3D

 29 28  0  0  1  0  0  0  0  0999 V2000
   31.0378  -33.5039    2.8585 N   0  0  0  0  0  0  0  0  0  0  0  0
   32.2370  -34.0278    2.2803 C   0  0  1  0  0  0  0  0  0  0  0  0
   33.2130  -34.5340    3.3156 C   0  0  0  0  0  0  0  0  0  0  0  0
   34.3708  -33.5874    3.5388 C   0  0  0  0  0  0  0  0  0  0  0  0
   35.1596  -34.1178    4.6647 C   0  0  0  0  0  0  0  0  0  0  0  0
   34.8297  -35.1944    5.1896 O   0  0  0  0  0  0  0  0  0  0  0  0
   31.9310  -35.0099    1.2279 C   0  0  0  0  0  0  0  0  0  0  0  0
   31.0984  -35.9449    1.3734 O   0  0  0  0  0  0  0  0  0  0  0  0
   36.2473  -33.4240    5.1250 O   0  0  0  0  0  0  0  0  0  0  0  0
   32.2918  -32.5026   -6.5361 N   0  0  0  0  0  0  0  0  0  0  0  0
   32.3818  -33.9052   -6.3757 C   0  0  0  0  0  0  0  0  0  0  0  0
   32.7786  -34.6346   -7.3562 N   0  0  0  0  0  0  0  0  0  0  0  0
   32.0265  -34.4831   -5.1175 N   0  0  0  0  0  0  0  0  0  0  0  0
   31.6477  -33.6226   -4.0248 C   0  0  0  0  0  0  0  0  0  0  0  0
   31.3359  -34.5145   -2.8109 C   0  0  0  0  0  0  0  0  0  0  0  0
   32.6072  -35.1451   -2.3630 C   0  0  0  0  0  0  0  0  0  0  0  0
   32.4293  -35.8815   -1.0814 C   0  0  2  0  0  0  0  0  0  0  0  0
   32.6117  -34.8947   -0.0137 N   0  0  0  0  0  0  0  0  0  0  0  0
   33.4179  -36.9466   -0.8618 C   0  0  0  0  0  0  0  0  0  0  0  0
   34.6235  -36.6563   -0.7423 O   0  0  0  0  0  0  0  0  0  0  0  0
   32.7510  -35.6682   -7.2487 N   0  0  0  0  0  0  0  0  0  0  0  0
   33.0226  -38.2982   -0.7843 C   0  0  1  0  0  0  0  0  0  0  0  0
   33.9405  -39.4177   -0.5699 C   0  0  0  0  0  0  0  0  0  0  0  0
   33.3970  -40.2438    0.5235 C   0  0  0  0  0  0  0  0  0  0  0  0
   33.5905  -39.7965    1.8948 O   0  0  0  0  0  0  0  0  0  0  0  0
   34.1629  -38.7716    2.2959 C   0  0  0  0  0  0  0  0  0  0  0  0
   34.2185  -40.1154   -1.8474 O   0  0  0  0  0  0  0  0  0  0  0  0
   34.9619  -41.1080   -1.9013 O   0  0  0  0  0  0  0  0  0  0  0  0
   33.0507  -40.6506    2.8877 O   0  0  0  0  0  0  0  0  0  0  0  0
  2  1  1  1
  2  3  1  0
  2  7  1  0
  3  4  1  0
  4  5  1  0
  5  9  1  0
  6  5  2  0
  7  8  2  0
 11 10  1  0
 12 11  2  0
 13 11  1  0
 14 13  1  0
 15 14  1  0
 15 16  1  0
 17 16  1  6
 18  7  1  0
 18 17  1  0
 19 17  1  0
 19 20  2  0
 21 19  1  0
 22 21  1  0
 22 23  1  6
 24 25  2  0
 24 23  1  0
 26 22  1  0
 26 29  1  0
 27 26  2  0
 28 24  1  0
M  END
$$$$
