ERD.pdb
     RDKit          3D

 29 28  0  0  1  0  0  0  0  0999 V2000
   26.4924  -20.1937  -14.1735 N   0  0  0  0  0  0  0  0  0  0  0  0
   25.9804  -20.1853  -15.5093 C   0  0  1  0  0  0  0  0  0  0  0  0
   26.6899  -21.1644  -16.4141 C   0  0  0  0  0  0  0  0  0  0  0  0
   26.8614  -22.5265  -15.7804 C   0  0  0  0  0  0  0  0  0  0  0  0
   28.0295  -23.1614  -16.4157 C   0  0  0  0  0  0  0  0  0  0  0  0
   28.6392  -22.5596  -17.3155 O   0  0  0  0  0  0  0  0  0  0  0  0
   24.5160  -20.3314  -15.5149 C   0  0  0  0  0  0  0  0  0  0  0  0
   23.8375  -20.4723  -16.5677 O   0  0  0  0  0  0  0  0  0  0  0  0
   28.4349  -24.4064  -16.0130 O   0  0  0  0  0  0  0  0  0  0  0  0
   20.0259  -24.1687   -9.3855 N   0  0  0  0  0  0  0  0  0  0  0  0
   19.5442  -24.4295  -10.6897 C   0  0  0  0  0  0  0  0  0  0  0  0
   18.9309  -25.5319  -10.9340 N   0  0  0  0  0  0  0  0  0  0  0  0
   19.7522  -23.4537  -11.7134 N   0  0  0  0  0  0  0  0  0  0  0  0
   20.5006  -22.2593  -11.4115 C   0  0  0  0  0  0  0  0  0  0  0  0
   20.6714  -21.4688  -12.7200 C   0  0  0  0  0  0  0  0  0  0  0  0
   22.1287  -21.3124  -12.9777 C   0  0  0  0  0  0  0  0  0  0  0  0
   22.3831  -20.4784  -14.1844 C   0  0  2  0  0  0  0  0  0  0  0  0
   23.8365  -20.3115  -14.2674 N   0  0  0  0  0  0  0  0  0  0  0  0
   21.7948  -19.1333  -14.1162 C   0  0  0  0  0  0  0  0  0  0  0  0
   22.1178  -18.3632  -13.1917 O   0  0  0  0  0  0  0  0  0  0  0  0
   18.5924  -25.7075  -11.9011 N   0  0  0  0  0  0  0  0  0  0  0  0
   20.8661  -18.6981  -15.0842 C   0  0  2  0  0  0  0  0  0  0  0  0
   20.2237  -17.3831  -15.0820 C   0  0  0  0  0  0  0  0  0  0  0  0
   20.7292  -16.6322  -16.2457 C   0  0  0  0  0  0  0  0  0  0  0  0
   20.2032  -15.2981  -16.4940 O   0  0  0  0  0  0  0  0  0  0  0  0
   19.4659  -14.6146  -15.7672 C   0  0  0  0  0  0  0  0  0  0  0  0
   18.7522  -17.5224  -14.9761 O   0  0  0  0  0  0  0  0  0  0  0  0
   18.1362  -18.4183  -15.5749 O   0  0  0  0  0  0  0  0  0  0  0  0
   20.5914  -14.7185  -17.7268 O   0  0  0  0  0  0  0  0  0  0  0  0
  2  1  1  1
  2  3  1  0
  2  7  1  0
  3  4  1  0
  4  5  1  0
  5  9  1  0
  6  5  2  0
  7  8  2  0
 11 10  1  0
 12 11  2  0
 13 11  1  0
 14 13  1  0
 15 14  1  0
 15 16  1  0
 17 16  1  1
 18  7  1  0
 18 17  1  0
 19 17  1  0
 19 20  2  0
 21 19  1  0
 22 21  1  0
 22 23  1  6
 24 25  2  0
 24 23  1  0
 26 22  1  0
 26 29  1  0
 27 26  2  0
 28 24  1  0
M  END
$$$$
