ERD.pdb
     RDKit          3D

 29 28  0  0  1  0  0  0  0  0999 V2000
   27.3189  -25.8960  -16.5596 N   0  0  0  0  0  0  0  0  0  0  0  0
   27.3870  -24.4938  -16.8353 C   0  0  1  0  0  0  0  0  0  0  0  0
   27.2211  -24.1773  -18.3026 C   0  0  0  0  0  0  0  0  0  0  0  0
   25.8847  -24.6261  -18.8494 C   0  0  0  0  0  0  0  0  0  0  0  0
   25.8995  -24.3770  -20.3016 C   0  0  0  0  0  0  0  0  0  0  0  0
   26.8766  -23.8066  -20.8148 O   0  0  0  0  0  0  0  0  0  0  0  0
   26.4745  -23.7386  -15.9620 C   0  0  0  0  0  0  0  0  0  0  0  0
   25.4067  -24.2184  -15.4948 O   0  0  0  0  0  0  0  0  0  0  0  0
   24.8404  -24.7734  -21.0746 O   0  0  0  0  0  0  0  0  0  0  0  0
   26.2947  -21.0806   -9.3234 N   0  0  0  0  0  0  0  0  0  0  0  0
   25.0995  -20.6369   -9.9363 C   0  0  0  0  0  0  0  0  0  0  0  0
   24.0009  -20.6441   -9.2700 N   0  0  0  0  0  0  0  0  0  0  0  0
   25.1416  -20.1876  -11.2927 N   0  0  0  0  0  0  0  0  0  0  0  0
   26.4169  -20.0126  -11.9413 C   0  0  0  0  0  0  0  0  0  0  0  0
   26.1510  -19.5310  -13.3778 C   0  0  0  0  0  0  0  0  0  0  0  0
   26.8681  -20.4425  -14.3103 C   0  0  0  0  0  0  0  0  0  0  0  0
   26.0361  -21.6249  -14.6653 C   0  0  2  0  0  0  0  0  0  0  0  0
   26.8184  -22.4003  -15.6316 N   0  0  0  0  0  0  0  0  0  0  0  0
   24.7605  -21.2859  -15.3117 C   0  0  0  0  0  0  0  0  0  0  0  0
   24.7597  -20.7711  -16.4461 O   0  0  0  0  0  0  0  0  0  0  0  0
   23.1287  -20.3414   -9.7480 N   0  0  0  0  0  0  0  0  0  0  0  0
   23.5317  -21.5345  -14.6657 C   0  0  2  0  0  0  0  0  0  0  0  0
   22.2227  -21.1690  -15.2089 C   0  0  0  0  0  0  0  0  0  0  0  0
   21.2396  -22.1507  -14.7155 C   0  0  0  0  0  0  0  0  0  0  0  0
   19.8530  -22.0177  -15.1371 O   0  0  0  0  0  0  0  0  0  0  0  0
   19.3582  -21.1721  -15.8981 C   0  0  0  0  0  0  0  0  0  0  0  0
   21.9248  -19.7434  -14.9353 O   0  0  0  0  0  0  0  0  0  0  0  0
   21.1678  -19.0828  -15.6642 O   0  0  0  0  0  0  0  0  0  0  0  0
   18.9666  -22.9848  -14.6025 O   0  0  0  0  0  0  0  0  0  0  0  0
  2  1  1  6
  2  3  1  0
  2  7  1  0
  3  4  1  0
  4  5  1  0
  5  9  1  0
  6  5  2  0
  7  8  2  0
 11 10  1  0
 12 11  2  0
 13 11  1  0
 14 13  1  0
 15 14  1  0
 15 16  1  0
 17 16  1  6
 18  7  1  0
 18 17  1  0
 19 17  1  0
 19 20  2  0
 21 19  1  0
 22 21  1  0
 22 23  1  1
 24 25  2  0
 24 23  1  0
 26 22  1  0
 26 29  1  0
 27 26  2  0
 28 24  1  0
M  END
$$$$
