ERD.pdb
     RDKit          3D

 29 28  0  0  1  0  0  0  0  0999 V2000
   26.3686  -21.2699  -14.7273 N   0  0  0  0  0  0  0  0  0  0  0  0
   24.9880  -21.3678  -15.0898 C   0  0  1  0  0  0  0  0  0  0  0  0
   24.6658  -22.6461  -15.8265 C   0  0  0  0  0  0  0  0  0  0  0  0
   25.0712  -23.8823  -15.0559 C   0  0  0  0  0  0  0  0  0  0  0  0
   24.2933  -25.0107  -15.5971 C   0  0  0  0  0  0  0  0  0  0  0  0
   23.4620  -24.8051  -16.4972 O   0  0  0  0  0  0  0  0  0  0  0  0
   24.1180  -21.1205  -13.9289 C   0  0  0  0  0  0  0  0  0  0  0  0
   24.5198  -21.1831  -12.7359 O   0  0  0  0  0  0  0  0  0  0  0  0
   24.4895  -26.2746  -15.1068 O   0  0  0  0  0  0  0  0  0  0  0  0
   18.4198  -15.8842  -16.1940 N   0  0  0  0  0  0  0  0  0  0  0  0
   18.4825  -17.0823  -16.9435 C   0  0  0  0  0  0  0  0  0  0  0  0
   17.9098  -17.1462  -18.0919 N   0  0  0  0  0  0  0  0  0  0  0  0
   19.1865  -18.2024  -16.4023 N   0  0  0  0  0  0  0  0  0  0  0  0
   19.7870  -18.0974  -15.0961 C   0  0  0  0  0  0  0  0  0  0  0  0
   20.4651  -19.4418  -14.7814 C   0  0  0  0  0  0  0  0  0  0  0  0
   21.0408  -19.3588  -13.4117 C   0  0  0  0  0  0  0  0  0  0  0  0
   21.8128  -20.5848  -13.0689 C   0  0  2  0  0  0  0  0  0  0  0  0
   22.7562  -20.7955  -14.1700 N   0  0  0  0  0  0  0  0  0  0  0  0
   20.9908  -21.7985  -12.9630 C   0  0  0  0  0  0  0  0  0  0  0  0
   20.8755  -22.5549  -13.9462 O   0  0  0  0  0  0  0  0  0  0  0  0
   17.9357  -18.0472  -18.6099 N   0  0  0  0  0  0  0  0  0  0  0  0
   20.3271  -22.1224  -11.7616 C   0  0  2  0  0  0  0  0  0  0  0  0
   19.5816  -23.3615  -11.5362 C   0  0  0  0  0  0  0  0  0  0  0  0
   19.6718  -23.6876  -10.1013 C   0  0  0  0  0  0  0  0  0  0  0  0
   19.1094  -24.9474   -9.6381 O   0  0  0  0  0  0  0  0  0  0  0  0
   18.4911  -25.8006  -10.2930 C   0  0  0  0  0  0  0  0  0  0  0  0
   18.2168  -23.2589  -12.1042 O   0  0  0  0  0  0  0  0  0  0  0  0
   17.5840  -22.1910  -12.0949 O   0  0  0  0  0  0  0  0  0  0  0  0
   19.3004  -25.2212   -8.2615 O   0  0  0  0  0  0  0  0  0  0  0  0
  2  1  1  1
  2  3  1  0
  2  7  1  0
  3  4  1  0
  4  5  1  0
  5  9  1  0
  6  5  2  0
  7  8  2  0
 11 10  1  0
 12 11  2  0
 13 11  1  0
 14 13  1  0
 15 14  1  0
 15 16  1  0
 17 16  1  6
 18  7  1  0
 18 17  1  0
 19 17  1  0
 19 20  2  0
 21 19  1  0
 22 21  1  0
 22 23  1  1
 24 25  2  0
 24 23  1  0
 26 22  1  0
 26 29  1  0
 27 26  2  0
 28 24  1  0
M  END
$$$$
