EWG.pdb
     RDKit          3D

 28 29  0  0  1  0  0  0  0  0999 V2000
    9.6207  -18.6918   21.8619 N   0  0  0  0  0  0  0  0  0  0  0  0
   10.6469  -17.6749   21.9732 C   0  0  1  0  0  0  0  0  0  0  0  0
   10.6328  -16.8088   20.7485 C   0  0  0  0  0  0  0  0  0  0  0  0
   10.5917  -17.6602   19.4723 C   0  0  0  0  0  0  0  0  0  0  0  0
   10.6766  -16.8072   18.2699 C   0  0  0  0  0  0  0  0  0  0  0  0
   10.0465  -17.1094   17.2320 O   0  0  0  0  0  0  0  0  0  0  0  0
   10.5222  -16.8926   23.2283 C   0  0  0  0  0  0  0  0  0  0  0  0
   11.2417  -15.8987   23.4842 O   0  0  0  0  0  0  0  0  0  0  0  0
   11.4477  -15.6713   18.2747 O   0  0  0  0  0  0  0  0  0  0  0  0
    9.5640  -17.2712   24.1748 N   0  0  0  0  0  0  0  0  0  0  0  0
    9.2939  -16.6327   25.4230 C   0  0  1  0  0  0  0  0  0  0  0  0
    7.8629  -16.2945   25.5424 C   0  0  0  0  0  0  0  0  0  0  0  0
    7.5116  -14.9773   24.9615 C   0  0  0  0  0  0  0  0  0  0  0  0
    7.3827  -14.8054   23.5797 C   0  0  0  0  0  0  0  0  0  0  0  0
    7.0308  -13.5270   23.3761 N   0  0  0  0  0  0  0  0  0  0  0  0
    6.9252  -12.8662   24.5264 C   0  0  0  0  0  0  0  0  0  0  0  0
    6.6066  -11.5628   24.8909 C   0  0  0  0  0  0  0  0  0  0  0  0
    6.5872  -11.1634   26.2097 C   0  0  0  0  0  0  0  0  0  0  0  0
    6.8871  -12.0582   27.2110 C   0  0  0  0  0  0  0  0  0  0  0  0
    7.2077  -13.3714   26.8427 C   0  0  0  0  0  0  0  0  0  0  0  0
    7.2268  -13.7726   25.5272 C   0  0  0  0  0  0  0  0  0  0  0  0
    9.9004  -17.3066   26.5760 C   0  0  0  0  0  0  0  0  0  0  0  0
    9.6013  -16.8560   27.7133 O   0  0  0  0  0  0  0  0  0  0  0  0
   10.7731  -18.3956   26.5118 N   0  0  0  0  0  0  0  0  0  0  0  0
   11.3719  -19.0446   27.6683 C   0  0  0  0  0  0  0  0  0  0  0  0
   12.2762  -20.1349   27.2851 C   0  0  0  0  0  0  0  0  0  0  0  0
   12.4686  -20.4157   26.0837 O   0  0  0  0  0  0  0  0  0  0  0  0
   12.9286  -20.8673   28.2563 O   0  0  0  0  0  0  0  0  0  0  0  0
  2  1  1  6
  3  4  1  0
  3  2  1  0
  5  6  2  0
  5  4  1  0
  7  2  1  0
  7 10  1  0
  8  7  2  0
  9  5  1  0
 11 10  1  0
 11 12  1  1
 13 14  2  0
 13 12  1  0
 15 14  1  0
 16 21  2  0
 16 15  1  0
 17 16  1  0
 18 19  1  0
 18 17  2  0
 19 20  2  0
 20 21  1  0
 21 13  1  0
 22 11  1  0
 23 22  2  0
 24 22  1  0
 25 24  1  0
 26 25  1  0
 27 26  2  0
 28 26  1  0
M  END
$$$$
