EWG.pdb
     RDKit          3D

 28 29  0  0  1  0  0  0  0  0999 V2000
    6.7316  -16.3624   21.7263 N   0  0  0  0  0  0  0  0  0  0  0  0
    8.1469  -16.5130   21.4549 C   0  0  1  0  0  0  0  0  0  0  0  0
    8.4668  -15.9301   20.1102 C   0  0  0  0  0  0  0  0  0  0  0  0
    8.7143  -17.0360   19.0754 C   0  0  0  0  0  0  0  0  0  0  0  0
    9.8402  -16.6814   18.1881 C   0  0  0  0  0  0  0  0  0  0  0  0
   11.0175  -16.7227   18.6098 O   0  0  0  0  0  0  0  0  0  0  0  0
    8.9858  -15.9439   22.5391 C   0  0  0  0  0  0  0  0  0  0  0  0
    9.6151  -14.8668   22.4174 O   0  0  0  0  0  0  0  0  0  0  0  0
    9.6103  -16.3016   16.8889 O   0  0  0  0  0  0  0  0  0  0  0  0
    9.0867  -16.6302   23.7540 N   0  0  0  0  0  0  0  0  0  0  0  0
    9.8838  -16.2646   24.8808 C   0  0  1  0  0  0  0  0  0  0  0  0
    9.0654  -16.2030   26.1067 C   0  0  0  0  0  0  0  0  0  0  0  0
    7.8747  -15.3293   25.9847 C   0  0  0  0  0  0  0  0  0  0  0  0
    6.6098  -15.8611   25.7152 C   0  0  0  0  0  0  0  0  0  0  0  0
    5.7488  -14.8324   25.6986 N   0  0  0  0  0  0  0  0  0  0  0  0
    6.3693  -13.6796   25.9371 C   0  0  0  0  0  0  0  0  0  0  0  0
    5.9788  -12.3482   26.0277 C   0  0  0  0  0  0  0  0  0  0  0  0
    6.8852  -11.3434   26.2886 C   0  0  0  0  0  0  0  0  0  0  0  0
    8.2172  -11.6387   26.4679 C   0  0  0  0  0  0  0  0  0  0  0  0
    8.6095  -12.9806   26.3767 C   0  0  0  0  0  0  0  0  0  0  0  0
    7.7066  -13.9852   26.1174 C   0  0  0  0  0  0  0  0  0  0  0  0
   11.1456  -17.0060   24.9788 C   0  0  0  0  0  0  0  0  0  0  0  0
   11.8149  -16.8418   26.0328 O   0  0  0  0  0  0  0  0  0  0  0  0
   11.6564  -17.8691   24.0063 N   0  0  0  0  0  0  0  0  0  0  0  0
   12.9336  -18.5597   24.1024 C   0  0  0  0  0  0  0  0  0  0  0  0
   14.0530  -17.7168   23.6666 C   0  0  0  0  0  0  0  0  0  0  0  0
   14.5219  -16.8358   24.4170 O   0  0  0  0  0  0  0  0  0  0  0  0
   14.6036  -17.8906   22.4129 O   0  0  0  0  0  0  0  0  0  0  0  0
  2  1  1  1
  3  4  1  0
  3  2  1  0
  5  6  2  0
  5  4  1  0
  7  2  1  0
  7 10  1  0
  8  7  2  0
  9  5  1  0
 11 10  1  0
 11 12  1  1
 13 14  2  0
 13 12  1  0
 15 14  1  0
 16 21  2  0
 16 15  1  0
 17 16  1  0
 18 19  1  0
 18 17  2  0
 19 20  2  0
 20 21  1  0
 21 13  1  0
 22 11  1  0
 23 22  2  0
 24 22  1  0
 25 24  1  0
 26 25  1  0
 27 26  2  0
 28 26  1  0
M  END
$$$$
