EWG.pdb
     RDKit          3D

 28 29  0  0  1  0  0  0  0  0999 V2000
    7.5449  -17.2971   21.4779 N   0  0  0  0  0  0  0  0  0  0  0  0
    8.9808  -17.2839   21.6716 C   0  0  1  0  0  0  0  0  0  0  0  0
    9.6597  -16.9251   20.3829 C   0  0  0  0  0  0  0  0  0  0  0  0
    8.9601  -17.5882   19.1887 C   0  0  0  0  0  0  0  0  0  0  0  0
    9.7390  -17.3921   17.9497 C   0  0  0  0  0  0  0  0  0  0  0  0
   10.8081  -16.7422   17.9686 O   0  0  0  0  0  0  0  0  0  0  0  0
    9.3834  -16.4014   22.7950 C   0  0  0  0  0  0  0  0  0  0  0  0
    9.8130  -15.2364   22.6240 O   0  0  0  0  0  0  0  0  0  0  0  0
    9.3008  -17.9200   16.7605 O   0  0  0  0  0  0  0  0  0  0  0  0
    9.2838  -16.8792   24.1062 N   0  0  0  0  0  0  0  0  0  0  0  0
    9.9200  -16.3398   25.2650 C   0  0  1  0  0  0  0  0  0  0  0  0
    8.9625  -16.2131   26.3802 C   0  0  0  0  0  0  0  0  0  0  0  0
    7.7627  -15.4096   26.0468 C   0  0  0  0  0  0  0  0  0  0  0  0
    6.6124  -16.0075   25.5228 C   0  0  0  0  0  0  0  0  0  0  0  0
    5.7047  -15.0331   25.3608 N   0  0  0  0  0  0  0  0  0  0  0  0
    6.1891  -13.8538   25.7421 C   0  0  0  0  0  0  0  0  0  0  0  0
    5.7010  -12.5525   25.7842 C   0  0  0  0  0  0  0  0  0  0  0  0
    6.4707  -11.5043   26.2401 C   0  0  0  0  0  0  0  0  0  0  0  0
    7.7591  -11.7242   26.6703 C   0  0  0  0  0  0  0  0  0  0  0  0
    8.2499  -13.0357   26.6278 C   0  0  0  0  0  0  0  0  0  0  0  0
    7.4833  -14.0837   26.1741 C   0  0  0  0  0  0  0  0  0  0  0  0
   11.2060  -16.9701   25.5817 C   0  0  0  0  0  0  0  0  0  0  0  0
   11.9041  -16.4111   26.4683 O   0  0  0  0  0  0  0  0  0  0  0  0
   11.7106  -18.1275   24.9839 N   0  0  0  0  0  0  0  0  0  0  0  0
   13.0157  -18.7040   25.2696 C   0  0  0  0  0  0  0  0  0  0  0  0
   13.0743  -19.3066   26.6064 C   0  0  0  0  0  0  0  0  0  0  0  0
   12.0762  -19.3005   27.3565 O   0  0  0  0  0  0  0  0  0  0  0  0
   14.2427  -19.8912   27.0518 O   0  0  0  0  0  0  0  0  0  0  0  0
  2  1  1  6
  3  4  1  0
  3  2  1  0
  5  6  2  0
  5  4  1  0
  7  2  1  0
  7 10  1  0
  8  7  2  0
  9  5  1  0
 11 10  1  0
 11 12  1  1
 13 14  2  0
 13 12  1  0
 15 14  1  0
 16 21  2  0
 16 15  1  0
 17 16  1  0
 18 19  1  0
 18 17  2  0
 19 20  2  0
 20 21  1  0
 21 13  1  0
 22 11  1  0
 23 22  2  0
 24 22  1  0
 25 24  1  0
 26 25  1  0
 27 26  2  0
 28 26  1  0
M  END
$$$$
