EWG.pdb
     RDKit          3D

 28 29  0  0  1  0  0  0  0  0999 V2000
    8.2811  -15.9953   20.3509 N   0  0  0  0  0  0  0  0  0  0  0  0
    8.7524  -16.9021   21.3782 C   0  0  1  0  0  0  0  0  0  0  0  0
    9.7151  -17.8846   20.7798 C   0  0  0  0  0  0  0  0  0  0  0  0
    9.0943  -18.5974   19.5709 C   0  0  0  0  0  0  0  0  0  0  0  0
   10.0057  -19.6358   19.0495 C   0  0  0  0  0  0  0  0  0  0  0  0
   10.3113  -20.6235   19.7542 O   0  0  0  0  0  0  0  0  0  0  0  0
    9.3232  -16.1780   22.5413 C   0  0  0  0  0  0  0  0  0  0  0  0
    9.7541  -15.0034   22.4660 O   0  0  0  0  0  0  0  0  0  0  0  0
   10.5298  -19.5313   17.7848 O   0  0  0  0  0  0  0  0  0  0  0  0
    9.3888  -16.8239   23.7806 N   0  0  0  0  0  0  0  0  0  0  0  0
    9.9269  -16.2970   24.9937 C   0  0  1  0  0  0  0  0  0  0  0  0
    8.9324  -16.3600   26.0816 C   0  0  0  0  0  0  0  0  0  0  0  0
    7.7550  -15.4869   25.8637 C   0  0  0  0  0  0  0  0  0  0  0  0
    6.5457  -16.0053   25.3901 C   0  0  0  0  0  0  0  0  0  0  0  0
    5.6787  -14.9833   25.3315 N   0  0  0  0  0  0  0  0  0  0  0  0
    6.2438  -13.8472   25.7324 C   0  0  0  0  0  0  0  0  0  0  0  0
    5.8240  -12.5283   25.8643 C   0  0  0  0  0  0  0  0  0  0  0  0
    6.6717  -11.5396   26.3150 C   0  0  0  0  0  0  0  0  0  0  0  0
    7.9724  -11.8391   26.6497 C   0  0  0  0  0  0  0  0  0  0  0  0
    8.3943  -13.1685   26.5167 C   0  0  0  0  0  0  0  0  0  0  0  0
    7.5498  -14.1571   26.0680 C   0  0  0  0  0  0  0  0  0  0  0  0
   11.2694  -16.7952   25.3113 C   0  0  0  0  0  0  0  0  0  0  0  0
   11.7014  -16.5513   26.4688 O   0  0  0  0  0  0  0  0  0  0  0  0
   12.0958  -17.5099   24.4409 N   0  0  0  0  0  0  0  0  0  0  0  0
   13.3862  -18.0760   24.8039 C   0  0  0  0  0  0  0  0  0  0  0  0
   14.0637  -18.6909   23.6566 C   0  0  0  0  0  0  0  0  0  0  0  0
   13.5685  -18.6305   22.5120 O   0  0  0  0  0  0  0  0  0  0  0  0
   15.2649  -19.3477   23.8323 O   0  0  0  0  0  0  0  0  0  0  0  0
  2  1  1  6
  3  4  1  0
  3  2  1  0
  5  6  2  0
  5  4  1  0
  7  2  1  0
  7 10  1  0
  8  7  2  0
  9  5  1  0
 11 10  1  0
 11 12  1  1
 13 14  2  0
 13 12  1  0
 15 14  1  0
 16 21  2  0
 16 15  1  0
 17 16  1  0
 18 19  1  0
 18 17  2  0
 19 20  2  0
 20 21  1  0
 21 13  1  0
 22 11  1  0
 23 22  2  0
 24 22  1  0
 25 24  1  0
 26 25  1  0
 27 26  2  0
 28 26  1  0
M  END
$$$$
