EWG.pdb
     RDKit          3D

 28 29  0  0  1  0  0  0  0  0999 V2000
    9.2260  -16.9711   18.7017 N   0  0  0  0  0  0  0  0  0  0  0  0
    8.4244  -17.3524   19.8470 C   0  0  1  0  0  0  0  0  0  0  0  0
    8.2943  -18.8460   19.8961 C   0  0  0  0  0  0  0  0  0  0  0  0
    7.1278  -19.3262   19.0222 C   0  0  0  0  0  0  0  0  0  0  0  0
    6.4152  -20.4467   19.6682 C   0  0  0  0  0  0  0  0  0  0  0  0
    5.3408  -20.8747   19.1908 O   0  0  0  0  0  0  0  0  0  0  0  0
    8.9528  -16.7825   21.1115 C   0  0  0  0  0  0  0  0  0  0  0  0
   10.1779  -16.6328   21.3300 O   0  0  0  0  0  0  0  0  0  0  0  0
    6.9220  -21.0337   20.8012 O   0  0  0  0  0  0  0  0  0  0  0  0
    8.0547  -16.3919   22.1106 N   0  0  0  0  0  0  0  0  0  0  0  0
    8.3807  -15.8798   23.4029 C   0  0  1  0  0  0  0  0  0  0  0  0
    7.8375  -14.5199   23.5825 C   0  0  0  0  0  0  0  0  0  0  0  0
    7.9520  -14.0112   24.9696 C   0  0  0  0  0  0  0  0  0  0  0  0
    9.0360  -14.3581   25.7820 C   0  0  0  0  0  0  0  0  0  0  0  0
    8.8684  -13.7207   26.9505 N   0  0  0  0  0  0  0  0  0  0  0  0
    7.7557  -12.9908   26.9470 C   0  0  0  0  0  0  0  0  0  0  0  0
    7.1147  -12.1633   27.8622 C   0  0  0  0  0  0  0  0  0  0  0  0
    5.9294  -11.5289   27.5592 C   0  0  0  0  0  0  0  0  0  0  0  0
    5.3441  -11.7023   26.3260 C   0  0  0  0  0  0  0  0  0  0  0  0
    5.9910  -12.5361   25.4045 C   0  0  0  0  0  0  0  0  0  0  0  0
    7.1745  -13.1696   25.7043 C   0  0  0  0  0  0  0  0  0  0  0  0
    8.1333  -16.8274   24.4948 C   0  0  0  0  0  0  0  0  0  0  0  0
    6.9397  -17.1906   24.6658 O   0  0  0  0  0  0  0  0  0  0  0  0
    9.1062  -17.3518   25.3492 N   0  0  0  0  0  0  0  0  0  0  0  0
    8.8697  -18.4071   26.3227 C   0  0  0  0  0  0  0  0  0  0  0  0
   10.0688  -18.7111   27.1121 C   0  0  0  0  0  0  0  0  0  0  0  0
   11.1763  -18.2197   26.8106 O   0  0  0  0  0  0  0  0  0  0  0  0
    9.9841  -19.5501   28.2049 O   0  0  0  0  0  0  0  0  0  0  0  0
  2  1  1  6
  3  4  1  0
  3  2  1  0
  5  6  2  0
  5  4  1  0
  7  2  1  0
  7 10  1  0
  8  7  2  0
  9  5  1  0
 11 10  1  0
 11 12  1  1
 13 14  2  0
 13 12  1  0
 15 14  1  0
 16 21  2  0
 16 15  1  0
 17 16  1  0
 18 19  1  0
 18 17  2  0
 19 20  2  0
 20 21  1  0
 21 13  1  0
 22 11  1  0
 23 22  2  0
 24 22  1  0
 25 24  1  0
 26 25  1  0
 27 26  2  0
 28 26  1  0
M  END
$$$$
