EWG.pdb
     RDKit          3D

 28 29  0  0  1  0  0  0  0  0999 V2000
    7.5175  -15.3999   20.3205 N   0  0  0  0  0  0  0  0  0  0  0  0
    8.0153  -16.3796   21.2650 C   0  0  1  0  0  0  0  0  0  0  0  0
    8.8160  -17.4189   20.5378 C   0  0  0  0  0  0  0  0  0  0  0  0
    8.3790  -17.5237   19.0704 C   0  0  0  0  0  0  0  0  0  0  0  0
    9.1483  -18.5701   18.3677 C   0  0  0  0  0  0  0  0  0  0  0  0
    9.9437  -18.2651   17.4512 O   0  0  0  0  0  0  0  0  0  0  0  0
    8.7714  -15.7487   22.3755 C   0  0  0  0  0  0  0  0  0  0  0  0
    9.2691  -14.6012   22.2933 O   0  0  0  0  0  0  0  0  0  0  0  0
    9.0010  -19.8914   18.7103 O   0  0  0  0  0  0  0  0  0  0  0  0
    8.9432  -16.4553   23.5707 N   0  0  0  0  0  0  0  0  0  0  0  0
    9.6809  -16.0322   24.7176 C   0  0  1  0  0  0  0  0  0  0  0  0
    8.8544  -16.1189   25.9365 C   0  0  0  0  0  0  0  0  0  0  0  0
    7.6580  -15.2449   25.9083 C   0  0  0  0  0  0  0  0  0  0  0  0
    6.3913  -15.7590   25.6142 C   0  0  0  0  0  0  0  0  0  0  0  0
    5.5256  -14.7377   25.6992 N   0  0  0  0  0  0  0  0  0  0  0  0
    6.1448  -13.6059   26.0257 C   0  0  0  0  0  0  0  0  0  0  0  0
    5.7500  -12.2894   26.2359 C   0  0  0  0  0  0  0  0  0  0  0  0
    6.6560  -11.3054   26.5674 C   0  0  0  0  0  0  0  0  0  0  0  0
    7.9920  -11.6072   26.6999 C   0  0  0  0  0  0  0  0  0  0  0  0
    8.3887  -12.9341   26.4882 C   0  0  0  0  0  0  0  0  0  0  0  0
    7.4862  -13.9181   26.1582 C   0  0  0  0  0  0  0  0  0  0  0  0
   11.0261  -16.6107   24.8025 C   0  0  0  0  0  0  0  0  0  0  0  0
   11.2126  -17.4734   25.7007 O   0  0  0  0  0  0  0  0  0  0  0  0
   12.1032  -16.2831   23.9753 N   0  0  0  0  0  0  0  0  0  0  0  0
   13.4393  -16.8467   24.0956 C   0  0  0  0  0  0  0  0  0  0  0  0
   14.3352  -16.3796   23.0313 C   0  0  0  0  0  0  0  0  0  0  0  0
   13.8853  -15.7849   22.0298 O   0  0  0  0  0  0  0  0  0  0  0  0
   15.6953  -16.5943   23.1271 O   0  0  0  0  0  0  0  0  0  0  0  0
  2  1  1  6
  3  4  1  0
  3  2  1  0
  5  6  2  0
  5  4  1  0
  7  2  1  0
  7 10  1  0
  8  7  2  0
  9  5  1  0
 11 10  1  0
 11 12  1  1
 13 14  2  0
 13 12  1  0
 15 14  1  0
 16 21  2  0
 16 15  1  0
 17 16  1  0
 18 19  1  0
 18 17  2  0
 19 20  2  0
 20 21  1  0
 21 13  1  0
 22 11  1  0
 23 22  2  0
 24 22  1  0
 25 24  1  0
 26 25  1  0
 27 26  2  0
 28 26  1  0
M  END
$$$$
