EWG.pdb
     RDKit          3D

 28 29  0  0  1  0  0  0  0  0999 V2000
    6.3504  -15.8421   20.2493 N   0  0  0  0  0  0  0  0  0  0  0  0
    7.2492  -16.6411   21.0576 C   0  0  1  0  0  0  0  0  0  0  0  0
    7.9789  -17.6178   20.1837 C   0  0  0  0  0  0  0  0  0  0  0  0
    7.4292  -17.5926   18.7512 C   0  0  0  0  0  0  0  0  0  0  0  0
    8.2074  -18.4912   17.8751 C   0  0  0  0  0  0  0  0  0  0  0  0
    9.4099  -18.2504   17.6270 O   0  0  0  0  0  0  0  0  0  0  0  0
    8.1671  -15.8006   21.8663 C   0  0  0  0  0  0  0  0  0  0  0  0
    8.4938  -14.6370   21.5339 O   0  0  0  0  0  0  0  0  0  0  0  0
    7.6220  -19.6026   17.3210 O   0  0  0  0  0  0  0  0  0  0  0  0
    8.6974  -16.3183   23.0530 N   0  0  0  0  0  0  0  0  0  0  0  0
    9.5285  -15.6333   23.9903 C   0  0  1  0  0  0  0  0  0  0  0  0
    9.0578  -15.8543   25.3709 C   0  0  0  0  0  0  0  0  0  0  0  0
    7.7957  -15.1465   25.6904 C   0  0  0  0  0  0  0  0  0  0  0  0
    6.5686  -15.8171   25.6918 C   0  0  0  0  0  0  0  0  0  0  0  0
    5.6345  -14.9220   26.0467 N   0  0  0  0  0  0  0  0  0  0  0  0
    6.1729  -13.7261   26.2725 C   0  0  0  0  0  0  0  0  0  0  0  0
    5.6861  -12.4791   26.6482 C   0  0  0  0  0  0  0  0  0  0  0  0
    6.5190  -11.3915   26.7992 C   0  0  0  0  0  0  0  0  0  0  0  0
    7.8714  -11.5164   26.5782 C   0  0  0  0  0  0  0  0  0  0  0  0
    8.3609  -12.7735   26.2000 C   0  0  0  0  0  0  0  0  0  0  0  0
    7.5317  -13.8605   26.0496 C   0  0  0  0  0  0  0  0  0  0  0  0
   10.9643  -15.8208   23.7558 C   0  0  0  0  0  0  0  0  0  0  0  0
   11.7460  -15.2224   24.5411 O   0  0  0  0  0  0  0  0  0  0  0  0
   11.5250  -16.6014   22.7421 N   0  0  0  0  0  0  0  0  0  0  0  0
   12.9488  -16.6832   22.4532 C   0  0  0  0  0  0  0  0  0  0  0  0
   13.6327  -17.6581   23.3107 C   0  0  0  0  0  0  0  0  0  0  0  0
   13.0075  -18.2906   24.1871 O   0  0  0  0  0  0  0  0  0  0  0  0
   14.9849  -17.8878   23.1561 O   0  0  0  0  0  0  0  0  0  0  0  0
  2  1  1  6
  3  4  1  0
  3  2  1  0
  5  6  2  0
  5  4  1  0
  7  2  1  0
  7 10  1  0
  8  7  2  0
  9  5  1  0
 11 10  1  0
 11 12  1  1
 13 14  2  0
 13 12  1  0
 15 14  1  0
 16 21  2  0
 16 15  1  0
 17 16  1  0
 18 19  1  0
 18 17  2  0
 19 20  2  0
 20 21  1  0
 21 13  1  0
 22 11  1  0
 23 22  2  0
 24 22  1  0
 25 24  1  0
 26 25  1  0
 27 26  2  0
 28 26  1  0
M  END
$$$$
