EWG.pdb
     RDKit          3D

 28 29  0  0  1  0  0  0  0  0999 V2000
   10.1071  -19.0210   21.3226 N   0  0  0  0  0  0  0  0  0  0  0  0
   10.9199  -17.8219   21.2874 C   0  0  1  0  0  0  0  0  0  0  0  0
   10.9983  -17.3076   19.8805 C   0  0  0  0  0  0  0  0  0  0  0  0
   11.2785  -18.4477   18.8922 C   0  0  0  0  0  0  0  0  0  0  0  0
   11.6594  -17.9132   17.5694 C   0  0  0  0  0  0  0  0  0  0  0  0
   12.7073  -17.2431   17.4337 O   0  0  0  0  0  0  0  0  0  0  0  0
   10.4399  -16.7952   22.2457 C   0  0  0  0  0  0  0  0  0  0  0  0
   10.9708  -15.6649   22.3536 O   0  0  0  0  0  0  0  0  0  0  0  0
   10.8689  -18.1443   16.4708 O   0  0  0  0  0  0  0  0  0  0  0  0
    9.3485  -17.0898   23.0700 N   0  0  0  0  0  0  0  0  0  0  0  0
    8.7495  -16.2286   24.0387 C   0  0  1  0  0  0  0  0  0  0  0  0
    7.3423  -15.9486   23.6953 C   0  0  0  0  0  0  0  0  0  0  0  0
    7.1516  -15.4744   22.3043 C   0  0  0  0  0  0  0  0  0  0  0  0
    6.6303  -16.3158   21.3165 C   0  0  0  0  0  0  0  0  0  0  0  0
    6.5511  -15.5928   20.1893 N   0  0  0  0  0  0  0  0  0  0  0  0
    6.9841  -14.3493   20.3819 C   0  0  0  0  0  0  0  0  0  0  0  0
    7.1242  -13.2180   19.5858 C   0  0  0  0  0  0  0  0  0  0  0  0
    7.6273  -12.0369   20.0871 C   0  0  0  0  0  0  0  0  0  0  0  0
    8.0083  -11.9486   21.4063 C   0  0  0  0  0  0  0  0  0  0  0  0
    7.8664  -13.0890   22.2077 C   0  0  0  0  0  0  0  0  0  0  0  0
    7.3637  -14.2685   21.7099 C   0  0  0  0  0  0  0  0  0  0  0  0
    9.0131  -16.6246   25.4262 C   0  0  0  0  0  0  0  0  0  0  0  0
    8.1785  -16.2436   26.2888 O   0  0  0  0  0  0  0  0  0  0  0  0
   10.1040  -17.3818   25.8598 N   0  0  0  0  0  0  0  0  0  0  0  0
   10.3254  -17.8001   27.2358 C   0  0  0  0  0  0  0  0  0  0  0  0
   11.5183  -18.6437   27.3731 C   0  0  0  0  0  0  0  0  0  0  0  0
   12.1756  -18.9923   26.3703 O   0  0  0  0  0  0  0  0  0  0  0  0
   11.9293  -19.0639   28.6219 O   0  0  0  0  0  0  0  0  0  0  0  0
  2  1  1  6
  3  4  1  0
  3  2  1  0
  5  6  2  0
  5  4  1  0
  7  2  1  0
  7 10  1  0
  8  7  2  0
  9  5  1  0
 11 10  1  0
 11 12  1  6
 13 14  2  0
 13 12  1  0
 15 14  1  0
 16 21  2  0
 16 15  1  0
 17 16  1  0
 18 19  1  0
 18 17  2  0
 19 20  2  0
 20 21  1  0
 21 13  1  0
 22 11  1  0
 23 22  2  0
 24 22  1  0
 25 24  1  0
 26 25  1  0
 27 26  2  0
 28 26  1  0
M  END
$$$$
