EWG.pdb
     RDKit          3D

 28 29  0  0  1  0  0  0  0  0999 V2000
    7.7413  -17.5961   21.9985 N   0  0  0  0  0  0  0  0  0  0  0  0
    9.1429  -17.2286   21.9968 C   0  0  1  0  0  0  0  0  0  0  0  0
    9.4290  -16.3390   20.8233 C   0  0  0  0  0  0  0  0  0  0  0  0
    9.2005  -17.0822   19.5002 C   0  0  0  0  0  0  0  0  0  0  0  0
    9.5355  -16.2194   18.3496 C   0  0  0  0  0  0  0  0  0  0  0  0
    8.9359  -16.3544   17.2597 O   0  0  0  0  0  0  0  0  0  0  0  0
    9.5625  -16.6263   23.2868 C   0  0  0  0  0  0  0  0  0  0  0  0
   10.2068  -15.5535   23.3584 O   0  0  0  0  0  0  0  0  0  0  0  0
   10.5090  -15.2577   18.4601 O   0  0  0  0  0  0  0  0  0  0  0  0
    9.2308  -17.2746   24.4814 N   0  0  0  0  0  0  0  0  0  0  0  0
    9.7076  -16.9572   25.7892 C   0  0  1  0  0  0  0  0  0  0  0  0
    8.6060  -16.4889   26.6517 C   0  0  0  0  0  0  0  0  0  0  0  0
    7.6549  -15.5839   25.9644 C   0  0  0  0  0  0  0  0  0  0  0  0
    6.5995  -16.0879   25.1978 C   0  0  0  0  0  0  0  0  0  0  0  0
    5.9094  -15.0321   24.7408 N   0  0  0  0  0  0  0  0  0  0  0  0
    6.4455  -13.8878   25.1579 C   0  0  0  0  0  0  0  0  0  0  0  0
    6.1525  -12.5395   24.9858 C   0  0  0  0  0  0  0  0  0  0  0  0
    6.9245  -11.5515   25.5578 C   0  0  0  0  0  0  0  0  0  0  0  0
    8.0192  -11.8812   26.3235 C   0  0  0  0  0  0  0  0  0  0  0  0
    8.3134  -13.2401   26.4965 C   0  0  0  0  0  0  0  0  0  0  0  0
    7.5439  -14.2279   25.9274 C   0  0  0  0  0  0  0  0  0  0  0  0
   10.5910  -17.9787   26.3614 C   0  0  0  0  0  0  0  0  0  0  0  0
   10.1092  -18.6872   27.2843 O   0  0  0  0  0  0  0  0  0  0  0  0
   11.9087  -18.2238   25.9674 N   0  0  0  0  0  0  0  0  0  0  0  0
   13.0667  -18.1167   26.8420 C   0  0  0  0  0  0  0  0  0  0  0  0
   12.9937  -19.0479   27.9739 C   0  0  0  0  0  0  0  0  0  0  0  0
   11.8959  -19.4947   28.3666 O   0  0  0  0  0  0  0  0  0  0  0  0
   14.1471  -19.4428   28.6211 O   0  0  0  0  0  0  0  0  0  0  0  0
  2  1  1  1
  3  4  1  0
  3  2  1  0
  5  6  2  0
  5  4  1  0
  7  2  1  0
  7 10  1  0
  8  7  2  0
  9  5  1  0
 11 10  1  0
 11 12  1  1
 13 14  2  0
 13 12  1  0
 15 14  1  0
 16 21  2  0
 16 15  1  0
 17 16  1  0
 18 19  1  0
 18 17  2  0
 19 20  2  0
 20 21  1  0
 21 13  1  0
 22 11  1  0
 23 22  2  0
 24 22  1  0
 25 24  1  0
 26 25  1  0
 27 26  2  0
 28 26  1  0
M  END
$$$$
