EWG.pdb
     RDKit          3D

 28 29  0  0  1  0  0  0  0  0999 V2000
    8.2518  -15.6955   20.6641 N   0  0  0  0  0  0  0  0  0  0  0  0
    9.2982  -16.4212   21.3556 C   0  0  1  0  0  0  0  0  0  0  0  0
   10.4789  -16.5910   20.4461 C   0  0  0  0  0  0  0  0  0  0  0  0
   10.1167  -17.4515   19.2281 C   0  0  0  0  0  0  0  0  0  0  0  0
   11.2513  -18.3124   18.8383 C   0  0  0  0  0  0  0  0  0  0  0  0
   12.1003  -17.9078   18.0130 O   0  0  0  0  0  0  0  0  0  0  0  0
    9.6580  -15.7842   22.6470 C   0  0  0  0  0  0  0  0  0  0  0  0
    9.9838  -14.5777   22.7424 O   0  0  0  0  0  0  0  0  0  0  0  0
   11.3898  -19.5681   19.3759 O   0  0  0  0  0  0  0  0  0  0  0  0
    9.6365  -16.5534   23.8155 N   0  0  0  0  0  0  0  0  0  0  0  0
   10.0470  -16.1419   25.1196 C   0  0  1  0  0  0  0  0  0  0  0  0
    8.9712  -16.3638   26.1044 C   0  0  0  0  0  0  0  0  0  0  0  0
    7.7802  -15.5090   25.8884 C   0  0  0  0  0  0  0  0  0  0  0  0
    6.5794  -16.0453   25.4133 C   0  0  0  0  0  0  0  0  0  0  0  0
    5.6962  -15.0370   25.3570 N   0  0  0  0  0  0  0  0  0  0  0  0
    6.2433  -13.8931   25.7607 C   0  0  0  0  0  0  0  0  0  0  0  0
    5.8025  -12.5813   25.8957 C   0  0  0  0  0  0  0  0  0  0  0  0
    6.6345  -11.5804   26.3489 C   0  0  0  0  0  0  0  0  0  0  0  0
    7.9396  -11.8601   26.6831 C   0  0  0  0  0  0  0  0  0  0  0  0
    8.3826  -13.1823   26.5470 C   0  0  0  0  0  0  0  0  0  0  0  0
    7.5539  -14.1831   26.0958 C   0  0  0  0  0  0  0  0  0  0  0  0
   11.3820  -16.6178   25.4976 C   0  0  0  0  0  0  0  0  0  0  0  0
   11.6824  -16.5414   26.7181 O   0  0  0  0  0  0  0  0  0  0  0  0
   12.3341  -17.1425   24.6203 N   0  0  0  0  0  0  0  0  0  0  0  0
   13.6384  -17.6476   25.0214 C   0  0  0  0  0  0  0  0  0  0  0  0
   14.7361  -16.8363   24.4825 C   0  0  0  0  0  0  0  0  0  0  0  0
   14.5062  -15.8575   23.7423 O   0  0  0  0  0  0  0  0  0  0  0  0
   16.0446  -17.1494   24.7909 O   0  0  0  0  0  0  0  0  0  0  0  0
  2  1  1  6
  3  4  1  0
  3  2  1  0
  5  6  2  0
  5  4  1  0
  7  2  1  0
  7 10  1  0
  8  7  2  0
  9  5  1  0
 11 10  1  0
 11 12  1  1
 13 14  2  0
 13 12  1  0
 15 14  1  0
 16 21  2  0
 16 15  1  0
 17 16  1  0
 18 19  1  0
 18 17  2  0
 19 20  2  0
 20 21  1  0
 21 13  1  0
 22 11  1  0
 23 22  2  0
 24 22  1  0
 25 24  1  0
 26 25  1  0
 27 26  2  0
 28 26  1  0
M  END
$$$$
