TRQ.pdb
     RDKit          3D

 28 27  0  0  1  0  0  0  0  0999 V2000
   22.9469  -26.0138  -15.0280 C   0  0  0  0  0  0  0  0  0  0  0  0
   23.9142  -25.1505  -15.8179 C   0  0  1  0  0  0  0  0  0  0  0  0
   24.6336  -25.9222  -16.6987 O   0  0  0  0  0  0  0  0  0  0  0  0
   23.1162  -24.1066  -16.5500 C   0  0  2  0  0  0  0  0  0  0  0  0
   23.9734  -23.3084  -17.4013 N   0  0  0  0  0  0  0  0  0  0  0  0
   22.4506  -23.1921  -15.5747 C   0  0  0  0  0  0  0  0  0  0  0  0
   21.6009  -23.6533  -14.7421 O   0  0  0  0  0  0  0  0  0  0  0  0
   26.0900  -21.3523  -10.6693 N   0  0  0  0  0  0  0  0  0  0  0  0
   26.8680  -20.9588  -11.7768 C   0  0  0  0  0  0  0  0  0  0  0  0
   28.0216  -21.4912  -11.9931 N   0  0  0  0  0  0  0  0  0  0  0  0
   26.4127  -19.9694  -12.6878 N   0  0  0  0  0  0  0  0  0  0  0  0
   25.0585  -19.4563  -12.6523 C   0  0  0  0  0  0  0  0  0  0  0  0
   24.0704  -20.5353  -13.0075 C   0  0  0  0  0  0  0  0  0  0  0  0
   23.1497  -20.0415  -14.0602 C   0  0  0  0  0  0  0  0  0  0  0  0
   22.0859  -21.0013  -14.5130 C   0  0  2  0  0  0  0  0  0  0  0  0
   22.7545  -21.8051  -15.5626 N   0  0  0  0  0  0  0  0  0  0  0  0
   20.9532  -20.3140  -15.1494 C   0  0  0  0  0  0  0  0  0  0  0  0
   21.1903  -19.5655  -16.1420 O   0  0  0  0  0  0  0  0  0  0  0  0
   28.6356  -21.1056  -12.7615 N   0  0  0  0  0  0  0  0  0  0  0  0
   15.6932  -22.3693  -17.1641 C   0  0  0  0  0  0  0  0  0  0  0  0
   16.8957  -22.0800  -17.8510 O   0  0  0  0  0  0  0  0  0  0  0  0
   17.1268  -22.6137  -18.9955 C   0  0  0  0  0  0  0  0  0  0  0  0
   17.8979  -21.1671  -17.2843 C   0  0  0  0  0  0  0  0  0  0  0  0
   17.5901  -20.5351  -15.9906 C   0  0  2  0  0  0  0  0  0  0  0  0
   18.5709  -19.6099  -15.3720 N   0  0  0  0  0  0  0  0  0  0  0  0
   19.6090  -20.4296  -14.7348 C   0  0  0  0  0  0  0  0  0  0  0  0
   18.0683  -18.5831  -14.4787 O   0  0  0  0  0  0  0  0  0  0  0  0
   18.3677  -18.5300  -13.2431 O   0  0  0  0  0  0  0  0  0  0  0  0
  2  1  1  6
  2  3  1  0
  4  2  1  0
  4  5  1  6
  6  4  1  0
  7  6  2  0
  9  8  1  0
 10  9  2  0
 11  9  1  0
 12 11  1  0
 13 14  1  0
 13 12  1  0
 15 14  1  6
 15 16  1  0
 16  6  1  0
 17 18  2  0
 17 15  1  0
 19 20  1  0
 20 22  1  0
 21 20  2  0
 22 23  1  0
 24 23  1  6
 24 25  1  0
 25 17  1  0
 26 28  1  0
 26 24  1  0
 27 26  2  0
M  END
$$$$
