TRQ.pdb
     RDKit          3D

 28 27  0  0  1  0  0  0  0  0999 V2000
   25.2234  -16.8558  -19.7047 C   0  0  0  0  0  0  0  0  0  0  0  0
   24.8597  -18.1607  -19.0194 C   0  0  1  0  0  0  0  0  0  0  0  0
   25.9963  -18.8460  -18.6625 O   0  0  0  0  0  0  0  0  0  0  0  0
   24.0292  -17.8353  -17.8083 C   0  0  2  0  0  0  0  0  0  0  0  0
   24.7593  -16.9749  -16.9009 N   0  0  0  0  0  0  0  0  0  0  0  0
   23.6769  -19.0883  -17.0759 C   0  0  0  0  0  0  0  0  0  0  0  0
   22.9289  -19.9628  -17.6269 O   0  0  0  0  0  0  0  0  0  0  0  0
   26.3575  -19.6483  -11.0933 N   0  0  0  0  0  0  0  0  0  0  0  0
   25.6972  -20.6712  -10.3829 C   0  0  0  0  0  0  0  0  0  0  0  0
   25.3347  -20.4938   -9.1589 N   0  0  0  0  0  0  0  0  0  0  0  0
   25.4092  -21.9243  -10.9853 N   0  0  0  0  0  0  0  0  0  0  0  0
   25.8000  -22.2314  -12.3458 C   0  0  0  0  0  0  0  0  0  0  0  0
   24.6317  -22.0790  -13.2832 C   0  0  0  0  0  0  0  0  0  0  0  0
   24.8137  -20.8638  -14.1136 C   0  0  0  0  0  0  0  0  0  0  0  0
   23.7336  -20.5811  -15.1194 C   0  0  2  0  0  0  0  0  0  0  0  0
   24.1682  -19.3200  -15.7640 N   0  0  0  0  0  0  0  0  0  0  0  0
   22.4365  -20.3165  -14.4806 C   0  0  0  0  0  0  0  0  0  0  0  0
   22.1217  -19.1137  -14.2442 O   0  0  0  0  0  0  0  0  0  0  0  0
   24.8448  -21.2757   -8.6441 N   0  0  0  0  0  0  0  0  0  0  0  0
   19.3049  -19.5612  -18.2680 C   0  0  0  0  0  0  0  0  0  0  0  0
   19.0531  -18.7187  -17.1597 O   0  0  0  0  0  0  0  0  0  0  0  0
   18.6111  -17.5277  -17.3448 C   0  0  0  0  0  0  0  0  0  0  0  0
   19.2809  -19.1795  -15.7832 C   0  0  0  0  0  0  0  0  0  0  0  0
   19.8182  -20.5379  -15.5992 C   0  0  2  0  0  0  0  0  0  0  0  0
   20.0664  -21.0516  -14.2298 N   0  0  0  0  0  0  0  0  0  0  0  0
   21.5064  -21.3118  -14.1109 C   0  0  0  0  0  0  0  0  0  0  0  0
   19.2737  -22.1767  -13.7709 O   0  0  0  0  0  0  0  0  0  0  0  0
   18.2884  -22.0536  -12.9752 O   0  0  0  0  0  0  0  0  0  0  0  0
  2  1  1  1
  2  3  1  0
  4  2  1  0
  4  5  1  1
  6  4  1  0
  7  6  2  0
  9  8  1  0
 10  9  2  0
 11  9  1  0
 12 11  1  0
 13 14  1  0
 13 12  1  0
 15 14  1  1
 15 16  1  0
 16  6  1  0
 17 18  2  0
 17 15  1  0
 19 20  1  0
 20 22  1  0
 21 20  2  0
 22 23  1  0
 24 23  1  1
 24 25  1  0
 25 17  1  0
 26 28  1  0
 26 24  1  0
 27 26  2  0
M  END
$$$$
