TRQ.pdb
     RDKit          3D

 28 27  0  0  1  0  0  0  0  0999 V2000
   27.0921  -11.9627  -15.0252 C   0  0  0  0  0  0  0  0  0  0  0  0
   27.5424  -12.4675  -16.3842 C   0  0  1  0  0  0  0  0  0  0  0  0
   28.6824  -13.2249  -16.2591 O   0  0  0  0  0  0  0  0  0  0  0  0
   26.4225  -13.2802  -16.9740 C   0  0  2  0  0  0  0  0  0  0  0  0
   26.8361  -13.8994  -18.2159 N   0  0  0  0  0  0  0  0  0  0  0  0
   25.2485  -12.4032  -17.2621 C   0  0  0  0  0  0  0  0  0  0  0  0
   25.2907  -11.5756  -18.2323 O   0  0  0  0  0  0  0  0  0  0  0  0
   17.4010  -12.1281  -14.1535 N   0  0  0  0  0  0  0  0  0  0  0  0
   17.1194  -11.7412  -15.4793 C   0  0  0  0  0  0  0  0  0  0  0  0
   16.0281  -11.1181  -15.7653 N   0  0  0  0  0  0  0  0  0  0  0  0
   18.0209  -12.0214  -16.5399 N   0  0  0  0  0  0  0  0  0  0  0  0
   19.3040  -12.6536  -16.3118 C   0  0  0  0  0  0  0  0  0  0  0  0
   20.4290  -11.6960  -16.6020 C   0  0  0  0  0  0  0  0  0  0  0  0
   21.7281  -12.4012  -16.4805 C   0  0  0  0  0  0  0  0  0  0  0  0
   22.9465  -11.6185  -16.8816 C   0  0  2  0  0  0  0  0  0  0  0  0
   24.0770  -12.4800  -16.4635 N   0  0  0  0  0  0  0  0  0  0  0  0
   23.0649  -10.3567  -16.1373 C   0  0  0  0  0  0  0  0  0  0  0  0
   23.3237  -10.4155  -14.8998 O   0  0  0  0  0  0  0  0  0  0  0  0
   15.8591  -10.7954  -16.7570 N   0  0  0  0  0  0  0  0  0  0  0  0
   25.7831   -6.4593  -18.8759 C   0  0  0  0  0  0  0  0  0  0  0  0
   24.4898   -5.8877  -18.8318 O   0  0  0  0  0  0  0  0  0  0  0  0
   24.0882   -5.1312  -19.7882 C   0  0  0  0  0  0  0  0  0  0  0  0
   23.5790   -6.1458  -17.7080 C   0  0  0  0  0  0  0  0  0  0  0  0
   24.0724   -6.9965  -16.6123 C   0  0  1  0  0  0  0  0  0  0  0  0
   23.1277   -7.8765  -15.8816 N   0  0  0  0  0  0  0  0  0  0  0  0
   22.9136   -9.0732  -16.7048 C   0  0  0  0  0  0  0  0  0  0  0  0
   21.8757   -7.3018  -15.4265 O   0  0  0  0  0  0  0  0  0  0  0  0
   20.7408   -7.6726  -15.8664 O   0  0  0  0  0  0  0  0  0  0  0  0
  2  1  1  1
  2  3  1  0
  4  2  1  0
  4  5  1  6
  6  4  1  0
  7  6  2  0
  9  8  1  0
 10  9  2  0
 11  9  1  0
 12 11  1  0
 13 14  1  0
 13 12  1  0
 15 14  1  1
 15 16  1  0
 16  6  1  0
 17 18  2  0
 17 15  1  0
 19 20  1  0
 20 22  1  0
 21 20  2  0
 22 23  1  0
 24 23  1  1
 24 25  1  0
 25 17  1  0
 26 28  1  0
 26 24  1  0
 27 26  2  0
M  END
$$$$
