TRQ.pdb
     RDKit          3D

 28 27  0  0  1  0  0  0  0  0999 V2000
   14.7854   -7.2125  -15.7467 C   0  0  0  0  0  0  0  0  0  0  0  0
   14.1345   -8.1208  -14.7191 C   0  0  1  0  0  0  0  0  0  0  0  0
   12.7655   -8.0354  -14.8048 O   0  0  0  0  0  0  0  0  0  0  0  0
   14.5999   -9.5273  -14.9790 C   0  0  2  0  0  0  0  0  0  0  0  0
   13.9525  -10.4573  -14.0775 N   0  0  0  0  0  0  0  0  0  0  0  0
   16.0748   -9.6273  -14.7670 C   0  0  0  0  0  0  0  0  0  0  0  0
   16.5507   -9.6558  -13.5834 O   0  0  0  0  0  0  0  0  0  0  0  0
   20.1898  -15.0182  -19.2968 N   0  0  0  0  0  0  0  0  0  0  0  0
   19.6669  -15.3643  -18.0344 C   0  0  0  0  0  0  0  0  0  0  0  0
   19.5382  -16.6001  -17.6919 N   0  0  0  0  0  0  0  0  0  0  0  0
   19.2664  -14.3720  -17.1012 N   0  0  0  0  0  0  0  0  0  0  0  0
   19.3945  -12.9566  -17.3813 C   0  0  0  0  0  0  0  0  0  0  0  0
   18.8218  -12.1367  -16.2558 C   0  0  0  0  0  0  0  0  0  0  0  0
   18.9720  -10.6937  -16.5634 C   0  0  0  0  0  0  0  0  0  0  0  0
   18.4056   -9.7383  -15.5511 C   0  0  2  0  0  0  0  0  0  0  0  0
   16.9606   -9.6916  -15.8748 N   0  0  0  0  0  0  0  0  0  0  0  0
   18.9315   -8.3761  -15.7192 C   0  0  0  0  0  0  0  0  0  0  0  0
   18.5396   -7.7037  -16.7172 O   0  0  0  0  0  0  0  0  0  0  0  0
   19.1560  -16.8367  -16.7358 N   0  0  0  0  0  0  0  0  0  0  0  0
   16.7073   -4.0041  -15.9350 C   0  0  0  0  0  0  0  0  0  0  0  0
   17.9442   -3.3465  -15.7373 O   0  0  0  0  0  0  0  0  0  0  0  0
   18.0137   -2.0676  -15.8254 C   0  0  0  0  0  0  0  0  0  0  0  0
   19.1668   -4.0984  -15.4229 C   0  0  0  0  0  0  0  0  0  0  0  0
   19.0650   -5.5653  -15.3494 C   0  0  1  0  0  0  0  0  0  0  0  0
   20.2806   -6.3750  -15.0898 N   0  0  0  0  0  0  0  0  0  0  0  0
   19.8461   -7.7553  -14.8415 C   0  0  0  0  0  0  0  0  0  0  0  0
   21.2054   -5.9080  -14.0741 O   0  0  0  0  0  0  0  0  0  0  0  0
   21.3613   -6.4930  -12.9549 O   0  0  0  0  0  0  0  0  0  0  0  0
  2  1  1  6
  2  3  1  0
  4  2  1  0
  4  5  1  1
  6  4  1  0
  7  6  2  0
  9  8  1  0
 10  9  2  0
 11  9  1  0
 12 11  1  0
 13 14  1  0
 13 12  1  0
 15 14  1  6
 15 16  1  0
 16  6  1  0
 17 18  2  0
 17 15  1  0
 19 20  1  0
 20 22  1  0
 21 20  2  0
 22 23  1  0
 24 23  1  6
 24 25  1  0
 25 17  1  0
 26 28  1  0
 26 24  1  0
 27 26  2  0
M  END
$$$$
