TRQ.pdb
     RDKit          3D

 28 27  0  0  1  0  0  0  0  0999 V2000
   16.4331  -13.5097  -14.3403 C   0  0  0  0  0  0  0  0  0  0  0  0
   16.3888  -13.5237  -15.8577 C   0  0  1  0  0  0  0  0  0  0  0  0
   15.1086  -13.7634  -16.2963 O   0  0  0  0  0  0  0  0  0  0  0  0
   16.8820  -12.1909  -16.3505 C   0  0  2  0  0  0  0  0  0  0  0  0
   16.8122  -12.1196  -17.7951 N   0  0  0  0  0  0  0  0  0  0  0  0
   18.3051  -11.9884  -15.9450 C   0  0  0  0  0  0  0  0  0  0  0  0
   18.6354  -12.0544  -14.7143 O   0  0  0  0  0  0  0  0  0  0  0  0
   20.9871  -16.3764  -19.5873 N   0  0  0  0  0  0  0  0  0  0  0  0
   21.0510  -15.4359  -20.6353 C   0  0  0  0  0  0  0  0  0  0  0  0
   20.6436  -15.7413  -21.8193 N   0  0  0  0  0  0  0  0  0  0  0  0
   21.5619  -14.1277  -20.4263 N   0  0  0  0  0  0  0  0  0  0  0  0
   22.0319  -13.6836  -19.1301 C   0  0  0  0  0  0  0  0  0  0  0  0
   21.0053  -12.8077  -18.4624 C   0  0  0  0  0  0  0  0  0  0  0  0
   21.5786  -12.2199  -17.2274 C   0  0  0  0  0  0  0  0  0  0  0  0
   20.6469  -11.3809  -16.3990 C   0  0  2  0  0  0  0  0  0  0  0  0
   19.3024  -11.7216  -16.9197 N   0  0  0  0  0  0  0  0  0  0  0  0
   20.8472   -9.9423  -16.6247 C   0  0  0  0  0  0  0  0  0  0  0  0
   20.2004   -9.3892  -17.5614 O   0  0  0  0  0  0  0  0  0  0  0  0
   20.6533  -15.0056  -22.5775 N   0  0  0  0  0  0  0  0  0  0  0  0
   22.4138   -5.6581  -12.3400 C   0  0  0  0  0  0  0  0  0  0  0  0
   22.5196   -4.9210  -13.5429 O   0  0  0  0  0  0  0  0  0  0  0  0
   22.8871   -3.6913  -13.5132 C   0  0  0  0  0  0  0  0  0  0  0  0
   22.2222   -5.5361  -14.8437 C   0  0  0  0  0  0  0  0  0  0  0  0
   21.9139   -6.9756  -14.8625 C   0  0  1  0  0  0  0  0  0  0  0  0
   21.8088   -7.6886  -16.1592 N   0  0  0  0  0  0  0  0  0  0  0  0
   21.7119   -9.1240  -15.8665 C   0  0  0  0  0  0  0  0  0  0  0  0
   22.8089   -7.4094  -17.1725 O   0  0  0  0  0  0  0  0  0  0  0  0
   23.8595   -8.1113  -17.3234 O   0  0  0  0  0  0  0  0  0  0  0  0
  2  1  1  1
  2  3  1  0
  4  2  1  0
  4  5  1  6
  6  4  1  0
  7  6  2  0
  9  8  1  0
 10  9  2  0
 11  9  1  0
 12 11  1  0
 13 14  1  0
 13 12  1  0
 15 14  1  6
 15 16  1  0
 16  6  1  0
 17 18  2  0
 17 15  1  0
 19 20  1  0
 20 22  1  0
 21 20  2  0
 22 23  1  0
 24 23  1  1
 24 25  1  0
 25 17  1  0
 26 28  1  0
 26 24  1  0
 27 26  2  0
M  END
$$$$
