TRQ.pdb
     RDKit          3D

 28 27  0  0  1  0  0  0  0  0999 V2000
   25.6277  -16.5754  -17.5382 C   0  0  0  0  0  0  0  0  0  0  0  0
   26.2720  -17.4527  -18.5964 C   0  0  1  0  0  0  0  0  0  0  0  0
   26.9572  -16.6812  -19.5044 O   0  0  0  0  0  0  0  0  0  0  0  0
   27.1991  -18.4135  -17.9039 C   0  0  2  0  0  0  0  0  0  0  0  0
   27.8794  -19.2548  -18.8664 N   0  0  0  0  0  0  0  0  0  0  0  0
   26.4262  -19.2973  -16.9809 C   0  0  0  0  0  0  0  0  0  0  0  0
   25.6263  -20.1722  -17.4529 O   0  0  0  0  0  0  0  0  0  0  0  0
   26.4098  -19.8093   -8.4623 N   0  0  0  0  0  0  0  0  0  0  0  0
   25.6803  -20.9546   -8.8405 C   0  0  0  0  0  0  0  0  0  0  0  0
   24.7459  -21.4190   -8.0840 N   0  0  0  0  0  0  0  0  0  0  0  0
   25.9460  -21.6329  -10.0592 N   0  0  0  0  0  0  0  0  0  0  0  0
   26.6405  -20.9951  -11.1587 C   0  0  0  0  0  0  0  0  0  0  0  0
   25.7127  -20.7868  -12.3261 C   0  0  0  0  0  0  0  0  0  0  0  0
   26.4652  -20.2041  -13.4634 C   0  0  0  0  0  0  0  0  0  0  0  0
   25.7056  -20.0510  -14.7510 C   0  0  2  0  0  0  0  0  0  0  0  0
   26.5720  -19.1751  -15.5738 N   0  0  0  0  0  0  0  0  0  0  0  0
   24.4304  -19.3449  -14.5620 C   0  0  0  0  0  0  0  0  0  0  0  0
   24.4637  -18.0959  -14.3604 O   0  0  0  0  0  0  0  0  0  0  0  0
   24.1788  -22.2488   -8.4095 N   0  0  0  0  0  0  0  0  0  0  0  0
   21.7441  -16.2604  -17.7463 C   0  0  0  0  0  0  0  0  0  0  0  0
   21.0757  -17.5007  -17.8745 O   0  0  0  0  0  0  0  0  0  0  0  0
   20.4027  -17.7616  -18.9362 C   0  0  0  0  0  0  0  0  0  0  0  0
   21.1376  -18.5145  -16.8128 C   0  0  0  0  0  0  0  0  0  0  0  0
   21.9298  -18.1975  -15.6129 C   0  0  1  0  0  0  0  0  0  0  0  0
   21.9461  -19.1442  -14.4709 N   0  0  0  0  0  0  0  0  0  0  0  0
   23.1605  -19.9602  -14.5920 C   0  0  0  0  0  0  0  0  0  0  0  0
   20.7670  -19.9590  -14.2454 O   0  0  0  0  0  0  0  0  0  0  0  0
   20.7669  -21.2265  -14.3570 O   0  0  0  0  0  0  0  0  0  0  0  0
  2  1  1  1
  2  3  1  0
  4  2  1  0
  4  5  1  6
  6  4  1  0
  7  6  2  0
  9  8  1  0
 10  9  2  0
 11  9  1  0
 12 11  1  0
 13 14  1  0
 13 12  1  0
 15 14  1  1
 15 16  1  0
 16  6  1  0
 17 18  2  0
 17 15  1  0
 19 20  1  0
 20 22  1  0
 21 20  2  0
 22 23  1  0
 24 23  1  1
 24 25  1  0
 25 17  1  0
 26 28  1  0
 26 24  1  0
 27 26  2  0
M  END
$$$$
