TRQ.pdb
     RDKit          3D

 28 27  0  0  1  0  0  0  0  0999 V2000
   25.1679  -19.1065  -17.0755 C   0  0  0  0  0  0  0  0  0  0  0  0
   25.5689  -20.3946  -17.7716 C   0  0  1  0  0  0  0  0  0  0  0  0
   25.9934  -20.1336  -19.0525 O   0  0  0  0  0  0  0  0  0  0  0  0
   26.6641  -21.0382  -16.9662 C   0  0  2  0  0  0  0  0  0  0  0  0
   27.0811  -22.2859  -17.5711 N   0  0  0  0  0  0  0  0  0  0  0  0
   26.1797  -21.3325  -15.5844 C   0  0  0  0  0  0  0  0  0  0  0  0
   25.4252  -22.3391  -15.3716 O   0  0  0  0  0  0  0  0  0  0  0  0
   30.3381  -21.2923   -8.8016 N   0  0  0  0  0  0  0  0  0  0  0  0
   30.7530  -21.9619   -9.9705 C   0  0  0  0  0  0  0  0  0  0  0  0
   31.8761  -22.5934  -10.0036 N   0  0  0  0  0  0  0  0  0  0  0  0
   29.9550  -21.9655  -11.1449 N   0  0  0  0  0  0  0  0  0  0  0  0
   29.1686  -20.8163  -11.5438 C   0  0  0  0  0  0  0  0  0  0  0  0
   27.7019  -21.0693  -11.3168 C   0  0  0  0  0  0  0  0  0  0  0  0
   26.9010  -20.1814  -12.1940 C   0  0  0  0  0  0  0  0  0  0  0  0
   25.9908  -20.8652  -13.1749 C   0  0  2  0  0  0  0  0  0  0  0  0
   26.5517  -20.4994  -14.4964 N   0  0  0  0  0  0  0  0  0  0  0  0
   24.6211  -20.3345  -13.1236 C   0  0  0  0  0  0  0  0  0  0  0  0
   24.3597  -19.2912  -13.7907 O   0  0  0  0  0  0  0  0  0  0  0  0
   32.1874  -23.0521  -10.9030 N   0  0  0  0  0  0  0  0  0  0  0  0
   21.6239  -21.4411  -17.0187 C   0  0  0  0  0  0  0  0  0  0  0  0
   20.8598  -20.4241  -16.3995 O   0  0  0  0  0  0  0  0  0  0  0  0
   19.9438  -19.8149  -17.0614 C   0  0  0  0  0  0  0  0  0  0  0  0
   21.0854  -20.0461  -14.9977 C   0  0  0  0  0  0  0  0  0  0  0  0
   22.0676  -20.8295  -14.2300 C   0  0  2  0  0  0  0  0  0  0  0  0
   22.1726  -20.6422  -12.7622 N   0  0  0  0  0  0  0  0  0  0  0  0
   23.5657  -20.9079  -12.3824 C   0  0  0  0  0  0  0  0  0  0  0  0
   21.2355  -21.3570  -11.9161 O   0  0  0  0  0  0  0  0  0  0  0  0
   21.4741  -22.5107  -11.4354 O   0  0  0  0  0  0  0  0  0  0  0  0
  2  1  1  1
  2  3  1  0
  4  2  1  0
  4  5  1  6
  6  4  1  0
  7  6  2  0
  9  8  1  0
 10  9  2  0
 11  9  1  0
 12 11  1  0
 13 14  1  0
 13 12  1  0
 15 14  1  1
 15 16  1  0
 16  6  1  0
 17 18  2  0
 17 15  1  0
 19 20  1  0
 20 22  1  0
 21 20  2  0
 22 23  1  0
 24 23  1  6
 24 25  1  0
 25 17  1  0
 26 28  1  0
 26 24  1  0
 27 26  2  0
M  END
$$$$
