TRQ.pdb
     RDKit          3D

 28 27  0  0  1  0  0  0  0  0999 V2000
   27.0202  -18.4343  -17.7353 C   0  0  0  0  0  0  0  0  0  0  0  0
   27.5752  -19.7019  -18.3597 C   0  0  1  0  0  0  0  0  0  0  0  0
   28.5113  -19.3927  -19.3174 O   0  0  0  0  0  0  0  0  0  0  0  0
   28.1854  -20.5325  -17.2642 C   0  0  2  0  0  0  0  0  0  0  0  0
   28.7956  -21.7287  -17.8059 N   0  0  0  0  0  0  0  0  0  0  0  0
   27.1331  -20.9498  -16.2900 C   0  0  0  0  0  0  0  0  0  0  0  0
   26.3130  -21.8792  -16.5929 O   0  0  0  0  0  0  0  0  0  0  0  0
   23.2276  -20.1683   -9.7561 N   0  0  0  0  0  0  0  0  0  0  0  0
   24.1595  -20.7672   -8.8843 C   0  0  0  0  0  0  0  0  0  0  0  0
   23.7771  -21.2867   -7.7685 N   0  0  0  0  0  0  0  0  0  0  0  0
   25.5425  -20.8198   -9.2012 N   0  0  0  0  0  0  0  0  0  0  0  0
   26.0963  -20.1252  -10.3454 C   0  0  0  0  0  0  0  0  0  0  0  0
   25.5138  -20.6600  -11.6267 C   0  0  0  0  0  0  0  0  0  0  0  0
   26.4557  -20.4109  -12.7449 C   0  0  0  0  0  0  0  0  0  0  0  0
   26.0027  -20.8614  -14.1050 C   0  0  2  0  0  0  0  0  0  0  0  0
   27.0335  -20.3202  -15.0212 N   0  0  0  0  0  0  0  0  0  0  0  0
   24.7198  -20.2566  -14.4908 C   0  0  0  0  0  0  0  0  0  0  0  0
   24.6217  -18.9951  -14.4619 O   0  0  0  0  0  0  0  0  0  0  0  0
   24.4820  -21.7847   -7.1592 N   0  0  0  0  0  0  0  0  0  0  0  0
   21.2185  -21.0526  -19.3309 C   0  0  0  0  0  0  0  0  0  0  0  0
   22.3930  -20.3152  -19.0511 O   0  0  0  0  0  0  0  0  0  0  0  0
   23.1191  -19.8731  -20.0132 C   0  0  0  0  0  0  0  0  0  0  0  0
   22.8058  -20.0323  -17.6696 C   0  0  0  0  0  0  0  0  0  0  0  0
   21.9577  -20.5529  -16.5846 C   0  0  2  0  0  0  0  0  0  0  0  0
   22.3207  -20.2810  -15.1721 N   0  0  0  0  0  0  0  0  0  0  0  0
   23.5803  -20.9834  -14.8976 C   0  0  0  0  0  0  0  0  0  0  0  0
   21.3230  -20.5400  -14.1511 O   0  0  0  0  0  0  0  0  0  0  0  0
   20.2252  -19.9013  -14.0748 O   0  0  0  0  0  0  0  0  0  0  0  0
  2  1  1  1
  2  3  1  0
  4  2  1  0
  4  5  1  6
  6  4  1  0
  7  6  2  0
  9  8  1  0
 10  9  2  0
 11  9  1  0
 12 11  1  0
 13 14  1  0
 13 12  1  0
 15 14  1  1
 15 16  1  0
 16  6  1  0
 17 18  2  0
 17 15  1  0
 19 20  1  0
 20 22  1  0
 21 20  2  0
 22 23  1  0
 24 23  1  6
 24 25  1  0
 25 17  1  0
 26 28  1  0
 26 24  1  0
 27 26  2  0
M  END
$$$$
