TRQ.pdb
     RDKit          3D

 28 27  0  0  1  0  0  0  0  0999 V2000
   17.9429  -24.7246  -10.5513 C   0  0  0  0  0  0  0  0  0  0  0  0
   18.4578  -24.0489  -11.8095 C   0  0  1  0  0  0  0  0  0  0  0  0
   17.6389  -24.3356  -12.8753 O   0  0  0  0  0  0  0  0  0  0  0  0
   18.5064  -22.5670  -11.5560 C   0  0  2  0  0  0  0  0  0  0  0  0
   17.1700  -22.0147  -11.4808 N   0  0  0  0  0  0  0  0  0  0  0  0
   19.2298  -21.8798  -12.6674 C   0  0  0  0  0  0  0  0  0  0  0  0
   18.5885  -21.1460  -13.4910 O   0  0  0  0  0  0  0  0  0  0  0  0
   24.7391  -23.7463  -13.7687 N   0  0  0  0  0  0  0  0  0  0  0  0
   25.5488  -23.2710  -14.8202 C   0  0  0  0  0  0  0  0  0  0  0  0
   26.1423  -24.0924  -15.6165 N   0  0  0  0  0  0  0  0  0  0  0  0
   25.7383  -21.8810  -15.0389 N   0  0  0  0  0  0  0  0  0  0  0  0
   25.0372  -20.8780  -14.2639 C   0  0  0  0  0  0  0  0  0  0  0  0
   23.6024  -20.7687  -14.7072 C   0  0  0  0  0  0  0  0  0  0  0  0
   22.7196  -21.4072  -13.7010 C   0  0  0  0  0  0  0  0  0  0  0  0
   21.2436  -21.3341  -13.9736 C   0  0  2  0  0  0  0  0  0  0  0  0
   20.6330  -22.0342  -12.8196 N   0  0  0  0  0  0  0  0  0  0  0  0
   20.8653  -22.0799  -15.1824 C   0  0  0  0  0  0  0  0  0  0  0  0
   20.2096  -23.1531  -15.0411 O   0  0  0  0  0  0  0  0  0  0  0  0
   26.7795  -23.7157  -16.3703 N   0  0  0  0  0  0  0  0  0  0  0  0
   18.5647  -25.1925  -17.5750 C   0  0  0  0  0  0  0  0  0  0  0  0
   17.9292  -24.3102  -18.4801 O   0  0  0  0  0  0  0  0  0  0  0  0
   17.1350  -24.7714  -19.3771 C   0  0  0  0  0  0  0  0  0  0  0  0
   18.1522  -22.8593  -18.4154 C   0  0  0  0  0  0  0  0  0  0  0  0
   19.0728  -22.3565  -17.3823 C   0  0  1  0  0  0  0  0  0  0  0  0
   20.5338  -22.3484  -17.6397 N   0  0  0  0  0  0  0  0  0  0  0  0
   21.1785  -21.6837  -16.5004 C   0  0  0  0  0  0  0  0  0  0  0  0
   20.9983  -21.8194  -18.9083 O   0  0  0  0  0  0  0  0  0  0  0  0
   21.1333  -20.5745  -19.1342 O   0  0  0  0  0  0  0  0  0  0  0  0
  2  1  1  1
  2  3  1  0
  4  2  1  0
  4  5  1  6
  6  4  1  0
  7  6  2  0
  9  8  1  0
 10  9  2  0
 11  9  1  0
 12 11  1  0
 13 14  1  0
 13 12  1  0
 15 14  1  1
 15 16  1  0
 16  6  1  0
 17 18  2  0
 17 15  1  0
 19 20  1  0
 20 22  1  0
 21 20  2  0
 22 23  1  0
 24 23  1  1
 24 25  1  0
 25 17  1  0
 26 28  1  0
 26 24  1  0
 27 26  2  0
M  END
$$$$
