TRQ.pdb
     RDKit          3D

 28 27  0  0  1  0  0  0  0  0999 V2000
   26.3705  -23.8621  -18.2659 C   0  0  0  0  0  0  0  0  0  0  0  0
   25.8406  -25.2697  -18.0596 C   0  0  1  0  0  0  0  0  0  0  0  0
   26.5981  -26.1737  -18.7653 O   0  0  0  0  0  0  0  0  0  0  0  0
   25.8820  -25.5720  -16.5867 C   0  0  2  0  0  0  0  0  0  0  0  0
   25.2701  -26.8544  -16.3082 N   0  0  0  0  0  0  0  0  0  0  0  0
   25.1331  -24.5267  -15.8271 C   0  0  0  0  0  0  0  0  0  0  0  0
   23.8657  -24.6092  -15.7050 O   0  0  0  0  0  0  0  0  0  0  0  0
   23.7660  -20.2513  -10.3326 N   0  0  0  0  0  0  0  0  0  0  0  0
   24.7892  -20.8470   -9.5676 C   0  0  0  0  0  0  0  0  0  0  0  0
   24.5932  -21.1529   -8.3311 N   0  0  0  0  0  0  0  0  0  0  0  0
   26.0631  -21.1299  -10.1272 N   0  0  0  0  0  0  0  0  0  0  0  0
   26.4616  -20.6268  -11.4258 C   0  0  0  0  0  0  0  0  0  0  0  0
   25.4255  -20.9583  -12.4667 C   0  0  0  0  0  0  0  0  0  0  0  0
   25.9270  -22.0465  -13.3407 C   0  0  0  0  0  0  0  0  0  0  0  0
   24.9939  -22.5089  -14.4240 C   0  0  2  0  0  0  0  0  0  0  0  0
   25.8196  -23.4341  -15.2345 N   0  0  0  0  0  0  0  0  0  0  0  0
   24.5815  -21.4091  -15.3076 C   0  0  0  0  0  0  0  0  0  0  0  0
   25.4764  -20.8097  -15.9723 O   0  0  0  0  0  0  0  0  0  0  0  0
   25.3761  -21.5930   -7.7748 N   0  0  0  0  0  0  0  0  0  0  0  0
   18.7054  -18.0430  -18.4905 C   0  0  0  0  0  0  0  0  0  0  0  0
   19.4205  -19.0768  -17.8414 O   0  0  0  0  0  0  0  0  0  0  0  0
   18.8084  -20.1368  -17.4539 C   0  0  0  0  0  0  0  0  0  0  0  0
   20.8663  -18.9709  -17.6017 C   0  0  0  0  0  0  0  0  0  0  0  0
   21.4918  -19.9917  -16.7446 C   0  0  1  0  0  0  0  0  0  0  0  0
   22.9425  -19.9122  -16.4449 N   0  0  0  0  0  0  0  0  0  0  0  0
   23.2506  -20.9696  -15.4741 C   0  0  0  0  0  0  0  0  0  0  0  0
   23.4841  -18.6293  -16.0377 O   0  0  0  0  0  0  0  0  0  0  0  0
   23.5549  -18.2596  -14.8222 O   0  0  0  0  0  0  0  0  0  0  0  0
  2  1  1  1
  2  3  1  0
  4  2  1  0
  4  5  1  6
  6  4  1  0
  7  6  2  0
  9  8  1  0
 10  9  2  0
 11  9  1  0
 12 11  1  0
 13 14  1  0
 13 12  1  0
 15 14  1  1
 15 16  1  0
 16  6  1  0
 17 18  2  0
 17 15  1  0
 19 20  1  0
 20 22  1  0
 21 20  2  0
 22 23  1  0
 24 23  1  6
 24 25  1  0
 25 17  1  0
 26 28  1  0
 26 24  1  0
 27 26  2  0
M  END
$$$$
