TRQ.pdb
     RDKit          3D

 28 27  0  0  1  0  0  0  0  0999 V2000
   22.1608  -21.7614  -12.0493 C   0  0  0  0  0  0  0  0  0  0  0  0
   22.6132  -20.8859  -10.8945 C   0  0  1  0  0  0  0  0  0  0  0  0
   22.2524  -21.4523   -9.6954 O   0  0  0  0  0  0  0  0  0  0  0  0
   24.1066  -20.7307  -10.9847 C   0  0  2  0  0  0  0  0  0  0  0  0
   24.6232  -20.0465   -9.8178 N   0  0  0  0  0  0  0  0  0  0  0  0
   24.4671  -19.9266  -12.1905 C   0  0  0  0  0  0  0  0  0  0  0  0
   24.2552  -18.6685  -12.2075 O   0  0  0  0  0  0  0  0  0  0  0  0
   29.8637  -22.6477  -18.0141 N   0  0  0  0  0  0  0  0  0  0  0  0
   28.8839  -22.9228  -17.0388 C   0  0  0  0  0  0  0  0  0  0  0  0
   28.7243  -24.1186  -16.5854 N   0  0  0  0  0  0  0  0  0  0  0  0
   28.0438  -21.9004  -16.5240 N   0  0  0  0  0  0  0  0  0  0  0  0
   28.1697  -20.5189  -16.9410 C   0  0  0  0  0  0  0  0  0  0  0  0
   27.0653  -19.6818  -16.3524 C   0  0  0  0  0  0  0  0  0  0  0  0
   26.5341  -20.3416  -15.1350 C   0  0  0  0  0  0  0  0  0  0  0  0
   25.3789  -19.6565  -14.4610 C   0  0  2  0  0  0  0  0  0  0  0  0
   25.0473  -20.5499  -13.3267 N   0  0  0  0  0  0  0  0  0  0  0  0
   24.1911  -19.5934  -15.3244 C   0  0  0  0  0  0  0  0  0  0  0  0
   23.2078  -20.3387  -15.0426 O   0  0  0  0  0  0  0  0  0  0  0  0
   27.9838  -24.3022  -15.8546 N   0  0  0  0  0  0  0  0  0  0  0  0
   19.7782  -16.4390  -14.4912 C   0  0  0  0  0  0  0  0  0  0  0  0
   19.8323  -17.8527  -14.4762 O   0  0  0  0  0  0  0  0  0  0  0  0
   18.8872  -18.5264  -13.9275 C   0  0  0  0  0  0  0  0  0  0  0  0
   20.9538  -18.5802  -15.0860 C   0  0  0  0  0  0  0  0  0  0  0  0
   22.0124  -17.7852  -15.7302 C   0  0  2  0  0  0  0  0  0  0  0  0
   22.7315  -18.3333  -16.9063 N   0  0  0  0  0  0  0  0  0  0  0  0
   24.0626  -18.7544  -16.4522 C   0  0  0  0  0  0  0  0  0  0  0  0
   22.8016  -17.5159  -18.1029 O   0  0  0  0  0  0  0  0  0  0  0  0
   23.8123  -16.8014  -18.3977 O   0  0  0  0  0  0  0  0  0  0  0  0
  2  1  1  6
  2  3  1  0
  4  2  1  0
  4  5  1  1
  6  4  1  0
  7  6  2  0
  9  8  1  0
 10  9  2  0
 11  9  1  0
 12 11  1  0
 13 14  1  0
 13 12  1  0
 15 14  1  6
 15 16  1  0
 16  6  1  0
 17 18  2  0
 17 15  1  0
 19 20  1  0
 20 22  1  0
 21 20  2  0
 22 23  1  0
 24 23  1  1
 24 25  1  0
 25 17  1  0
 26 28  1  0
 26 24  1  0
 27 26  2  0
M  END
$$$$
