TRQ.pdb
     RDKit          3D

 28 27  0  0  1  0  0  0  0  0999 V2000
   25.7567  -22.2406  -14.2591 C   0  0  0  0  0  0  0  0  0  0  0  0
   25.2841  -22.3329  -12.8193 C   0  0  1  0  0  0  0  0  0  0  0  0
   25.7156  -23.5066  -12.2490 O   0  0  0  0  0  0  0  0  0  0  0  0
   25.8271  -21.1449  -12.0736 C   0  0  2  0  0  0  0  0  0  0  0  0
   25.5150  -21.2377  -10.6627 N   0  0  0  0  0  0  0  0  0  0  0  0
   25.2192  -19.8866  -12.6006 C   0  0  0  0  0  0  0  0  0  0  0  0
   24.0998  -19.4771  -12.1454 O   0  0  0  0  0  0  0  0  0  0  0  0
   25.6442  -15.3759  -18.7686 N   0  0  0  0  0  0  0  0  0  0  0  0
   25.8543  -14.1320  -18.1397 C   0  0  0  0  0  0  0  0  0  0  0  0
   25.4927  -13.0356  -18.7126 N   0  0  0  0  0  0  0  0  0  0  0  0
   26.4669  -14.0422  -16.8619 N   0  0  0  0  0  0  0  0  0  0  0  0
   26.9037  -15.2161  -16.1343 C   0  0  0  0  0  0  0  0  0  0  0  0
   25.7229  -15.9794  -15.5959 C   0  0  0  0  0  0  0  0  0  0  0  0
   26.1981  -17.1175  -14.7723 C   0  0  0  0  0  0  0  0  0  0  0  0
   25.1326  -17.9703  -14.1434 C   0  0  2  0  0  0  0  0  0  0  0  0
   25.8770  -19.1347  -13.6096 N   0  0  0  0  0  0  0  0  0  0  0  0
   24.1769  -18.4844  -15.1347 C   0  0  0  0  0  0  0  0  0  0  0  0
   24.4531  -19.5704  -15.7230 O   0  0  0  0  0  0  0  0  0  0  0  0
   25.7077  -12.1116  -18.2477 N   0  0  0  0  0  0  0  0  0  0  0  0
   22.0676  -22.4016  -13.5742 C   0  0  0  0  0  0  0  0  0  0  0  0
   20.9137  -22.1437  -14.3511 O   0  0  0  0  0  0  0  0  0  0  0  0
   19.9794  -23.0211  -14.4254 C   0  0  0  0  0  0  0  0  0  0  0  0
   20.7512  -20.8783  -15.0799 C   0  0  0  0  0  0  0  0  0  0  0  0
   21.8766  -19.9292  -15.0572 C   0  0  1  0  0  0  0  0  0  0  0  0
   21.7871  -18.6634  -15.8256 N   0  0  0  0  0  0  0  0  0  0  0  0
   22.9622  -17.8540  -15.4802 C   0  0  0  0  0  0  0  0  0  0  0  0
   20.5577  -17.8982  -15.7358 O   0  0  0  0  0  0  0  0  0  0  0  0
   19.4165  -18.3808  -16.0254 O   0  0  0  0  0  0  0  0  0  0  0  0
  2  1  1  6
  2  3  1  0
  4  2  1  0
  4  5  1  1
  6  4  1  0
  7  6  2  0
  9  8  1  0
 10  9  2  0
 11  9  1  0
 12 11  1  0
 13 14  1  0
 13 12  1  0
 15 14  1  6
 15 16  1  0
 16  6  1  0
 17 18  2  0
 17 15  1  0
 19 20  1  0
 20 22  1  0
 21 20  2  0
 22 23  1  0
 24 23  1  6
 24 25  1  0
 25 17  1  0
 26 28  1  0
 26 24  1  0
 27 26  2  0
M  END
$$$$
