MWV.pdb
     RDKit          3D

 30 31  0  0  1  0  0  0  0  0999 V2000
   28.0417  -18.4941  -19.0508 C   0  0  0  0  0  0  0  0  0  0  0  0
   26.9834  -19.0015  -17.6744 S   0  0  0  0  0  0  0  0  0  0  0  0
   27.7974  -20.2122  -16.6161 C   0  0  0  0  0  0  0  0  0  0  0  0
   26.9118  -20.5749  -15.4274 C   0  0  0  0  0  0  0  0  0  0  0  0
   27.6351  -21.5377  -14.5031 C   0  0  2  0  0  0  0  0  0  0  0  0
   27.6682  -22.8215  -15.1747 N   0  0  0  0  0  0  0  0  0  0  0  0
   26.9773  -21.6339  -13.1883 C   0  0  0  0  0  0  0  0  0  0  0  0
   25.9116  -22.3322  -13.0887 O   0  0  0  0  0  0  0  0  0  0  0  0
   27.4834  -20.9816  -12.0326 N   0  0  0  0  0  0  0  0  0  0  0  0
   26.6913  -20.9887  -10.8361 C   0  0  1  0  0  0  0  0  0  0  0  0
   27.5155  -20.3414   -9.7367 C   0  0  0  0  0  0  0  0  0  0  0  0
   26.7933  -20.3179   -8.4526 C   0  0  0  0  0  0  0  0  0  0  0  0
   25.4795  -20.6888   -8.2789 C   0  0  0  0  0  0  0  0  0  0  0  0
   25.1524  -20.5390   -6.9634 N   0  0  0  0  0  0  0  0  0  0  0  0
   26.2223  -20.0798   -6.2785 C   0  0  0  0  0  0  0  0  0  0  0  0
   26.4099  -19.7704   -4.9547 C   0  0  0  0  0  0  0  0  0  0  0  0
   27.6479  -19.3123   -4.5458 C   0  0  0  0  0  0  0  0  0  0  0  0
   28.6701  -19.1701   -5.4503 C   0  0  0  0  0  0  0  0  0  0  0  0
   28.4609  -19.4858   -6.7721 C   0  0  0  0  0  0  0  0  0  0  0  0
   27.2384  -19.9435   -7.2044 C   0  0  0  0  0  0  0  0  0  0  0  0
   25.3821  -20.3186  -10.9985 C   0  0  0  0  0  0  0  0  0  0  0  0
   25.3802  -19.0625  -11.0764 O   0  0  0  0  0  0  0  0  0  0  0  0
   22.1277  -21.7543  -13.0510 C   0  0  0  0  0  0  0  0  0  0  0  0
   22.4094  -20.3050  -12.6717 C   0  0  2  0  0  0  0  0  0  0  0  0
   23.4283  -19.7656  -13.6475 C   0  0  0  0  0  0  0  0  0  0  0  0
   22.9161  -20.2188  -11.2421 C   0  0  2  0  0  0  0  0  0  0  0  0
   24.1366  -20.9809  -11.0727 N   0  0  0  0  0  0  0  0  0  0  0  0
   21.8540  -20.6697  -10.3093 C   0  0  0  0  0  0  0  0  0  0  0  0
   20.7927  -20.0223  -10.1851 O   0  0  0  0  0  0  0  0  0  0  0  0
   22.0369  -21.8296   -9.5592 O   0  0  0  0  0  0  0  0  0  0  0  0
  1  2  1  0
  3  2  1  0
  4  3  1  0
  5  7  1  0
  5  6  1  6
  5  4  1  0
  7  8  2  0
  9 10  1  0
  9  7  1  0
 10 11  1  1
 12 11  1  0
 12 13  2  0
 14 13  1  0
 15 14  1  0
 16 15  2  0
 17 16  1  0
 18 17  2  0
 18 19  1  0
 19 20  2  0
 20 15  1  0
 20 12  1  0
 21 10  1  0
 21 22  2  0
 24 23  1  6
 24 26  1  0
 25 24  1  0
 26 27  1  6
 26 28  1  0
 27 21  1  0
 28 29  2  0
 28 30  1  0
M  END
$$$$
