MWV.pdb
     RDKit          3D

 30 31  0  0  1  0  0  0  0  0999 V2000
   29.6040  -26.3583  -18.3949 C   0  0  0  0  0  0  0  0  0  0  0  0
   28.4507  -25.8225  -17.1085 S   0  0  0  0  0  0  0  0  0  0  0  0
   26.7734  -25.6484  -17.7446 C   0  0  0  0  0  0  0  0  0  0  0  0
   25.8101  -25.2501  -16.6300 C   0  0  0  0  0  0  0  0  0  0  0  0
   25.9905  -23.7856  -16.2731 C   0  0  2  0  0  0  0  0  0  0  0  0
   27.3368  -23.6409  -15.7567 N   0  0  0  0  0  0  0  0  0  0  0  0
   24.9862  -23.3321  -15.2951 C   0  0  0  0  0  0  0  0  0  0  0  0
   24.9522  -23.8964  -14.1490 O   0  0  0  0  0  0  0  0  0  0  0  0
   24.0591  -22.2944  -15.5793 N   0  0  0  0  0  0  0  0  0  0  0  0
   23.1254  -21.9079  -14.5605 C   0  0  1  0  0  0  0  0  0  0  0  0
   23.2202  -20.4005  -14.3996 C   0  0  0  0  0  0  0  0  0  0  0  0
   22.3731  -19.9131  -13.2969 C   0  0  0  0  0  0  0  0  0  0  0  0
   22.3489  -20.4423  -12.0267 C   0  0  0  0  0  0  0  0  0  0  0  0
   21.4514  -19.7406  -11.2770 N   0  0  0  0  0  0  0  0  0  0  0  0
   20.8920  -18.7684  -12.0297 C   0  0  0  0  0  0  0  0  0  0  0  0
   19.9507  -17.8094  -11.7514 C   0  0  0  0  0  0  0  0  0  0  0  0
   19.5725  -16.9356  -12.7530 C   0  0  0  0  0  0  0  0  0  0  0  0
   20.1304  -17.0279  -14.0034 C   0  0  0  0  0  0  0  0  0  0  0  0
   21.0719  -17.9962  -14.2611 C   0  0  0  0  0  0  0  0  0  0  0  0
   21.4653  -18.8777  -13.2818 C   0  0  0  0  0  0  0  0  0  0  0  0
   21.7384  -22.3367  -14.8464 C   0  0  0  0  0  0  0  0  0  0  0  0
   21.2821  -22.0937  -15.9938 O   0  0  0  0  0  0  0  0  0  0  0  0
   19.4020  -25.1478  -12.6560 C   0  0  0  0  0  0  0  0  0  0  0  0
   19.1433  -24.7063  -14.0919 C   0  0  2  0  0  0  0  0  0  0  0  0
   19.9703  -25.5871  -14.9983 C   0  0  0  0  0  0  0  0  0  0  0  0
   19.5022  -23.2410  -14.2701 C   0  0  2  0  0  0  0  0  0  0  0  0
   20.8894  -22.9970  -13.9306 N   0  0  0  0  0  0  0  0  0  0  0  0
   18.5839  -22.4015  -13.4617 C   0  0  0  0  0  0  0  0  0  0  0  0
   18.9919  -21.8012  -12.4449 O   0  0  0  0  0  0  0  0  0  0  0  0
   17.2477  -22.2772  -13.8367 O   0  0  0  0  0  0  0  0  0  0  0  0
  1  2  1  0
  3  2  1  0
  4  3  1  0
  5  7  1  0
  5  6  1  1
  5  4  1  0
  7  8  2  0
  9 10  1  0
  9  7  1  0
 10 11  1  6
 12 11  1  0
 12 13  2  0
 14 13  1  0
 15 14  1  0
 16 15  2  0
 17 16  1  0
 18 17  2  0
 18 19  1  0
 19 20  2  0
 20 15  1  0
 20 12  1  0
 21 10  1  0
 21 22  2  0
 24 23  1  1
 24 26  1  0
 25 24  1  0
 26 27  1  1
 26 28  1  0
 27 21  1  0
 28 29  2  0
 28 30  1  0
M  END
$$$$
