MWV.pdb
     RDKit          3D

 30 31  0  0  1  0  0  0  0  0999 V2000
   26.2815  -14.3055  -15.5004 C   0  0  0  0  0  0  0  0  0  0  0  0
   27.5945  -15.0170  -16.5212 S   0  0  0  0  0  0  0  0  0  0  0  0
   26.9285  -15.9614  -17.9043 C   0  0  0  0  0  0  0  0  0  0  0  0
   26.2548  -17.2395  -17.4130 C   0  0  0  0  0  0  0  0  0  0  0  0
   27.2599  -18.1277  -16.7021 C   0  0  2  0  0  0  0  0  0  0  0  0
   27.9311  -18.9057  -17.7241 N   0  0  0  0  0  0  0  0  0  0  0  0
   26.6137  -18.9952  -15.7017 C   0  0  0  0  0  0  0  0  0  0  0  0
   25.9277  -19.9927  -16.1110 O   0  0  0  0  0  0  0  0  0  0  0  0
   26.7259  -18.7635  -14.3050 N   0  0  0  0  0  0  0  0  0  0  0  0
   26.0905  -19.6803  -13.4022 C   0  0  1  0  0  0  0  0  0  0  0  0
   26.7339  -19.5007  -12.0381 C   0  0  0  0  0  0  0  0  0  0  0  0
   26.1886  -20.4447  -11.0469 C   0  0  0  0  0  0  0  0  0  0  0  0
   25.6824  -21.6908  -11.3387 C   0  0  0  0  0  0  0  0  0  0  0  0
   25.2715  -22.2790  -10.1789 N   0  0  0  0  0  0  0  0  0  0  0  0
   25.4985  -21.4450   -9.1409 C   0  0  0  0  0  0  0  0  0  0  0  0
   25.2690  -21.5620   -7.7929 C   0  0  0  0  0  0  0  0  0  0  0  0
   25.6179  -20.5131   -6.9635 C   0  0  0  0  0  0  0  0  0  0  0  0
   26.1841  -19.3755   -7.4818 C   0  0  0  0  0  0  0  0  0  0  0  0
   26.4055  -19.2789   -8.8353 C   0  0  0  0  0  0  0  0  0  0  0  0
   26.0672  -20.3083   -9.6820 C   0  0  0  0  0  0  0  0  0  0  0  0
   24.6220  -19.5110  -13.3357 C   0  0  0  0  0  0  0  0  0  0  0  0
   24.1823  -18.3546  -13.1051 O   0  0  0  0  0  0  0  0  0  0  0  0
   21.6944  -22.4734  -14.4469 C   0  0  0  0  0  0  0  0  0  0  0  0
   21.4919  -20.9650  -14.5322 C   0  0  2  0  0  0  0  0  0  0  0  0
   21.9612  -20.5159  -15.8958 C   0  0  0  0  0  0  0  0  0  0  0  0
   22.2603  -20.2624  -13.4260 C   0  0  2  0  0  0  0  0  0  0  0  0
   23.6783  -20.5473  -13.5114 N   0  0  0  0  0  0  0  0  0  0  0  0
   21.7013  -20.6503  -12.1074 C   0  0  0  0  0  0  0  0  0  0  0  0
   22.2411  -21.5427  -11.4198 O   0  0  0  0  0  0  0  0  0  0  0  0
   20.5594  -20.0144  -11.6245 O   0  0  0  0  0  0  0  0  0  0  0  0
  1  2  1  0
  3  2  1  0
  4  3  1  0
  5  7  1  0
  5  6  1  6
  5  4  1  0
  7  8  2  0
  9 10  1  0
  9  7  1  0
 10 11  1  1
 12 11  1  0
 12 13  2  0
 14 13  1  0
 15 14  1  0
 16 15  2  0
 17 16  1  0
 18 17  2  0
 18 19  1  0
 19 20  2  0
 20 15  1  0
 20 12  1  0
 21 10  1  0
 21 22  2  0
 24 23  1  6
 24 26  1  0
 25 24  1  0
 26 27  1  1
 26 28  1  0
 27 21  1  0
 28 29  2  0
 28 30  1  0
M  END
$$$$
