MWV.pdb
     RDKit          3D

 30 31  0  0  1  0  0  0  0  0999 V2000
   26.8707  -16.4878  -15.1499 C   0  0  0  0  0  0  0  0  0  0  0  0
   28.2829  -17.5732  -15.4657 S   0  0  0  0  0  0  0  0  0  0  0  0
   27.8300  -18.9747  -16.5044 C   0  0  0  0  0  0  0  0  0  0  0  0
   26.9929  -19.9816  -15.7206 C   0  0  0  0  0  0  0  0  0  0  0  0
   27.7314  -20.4237  -14.4701 C   0  0  2  0  0  0  0  0  0  0  0  0
   28.7049  -21.4142  -14.8839 N   0  0  0  0  0  0  0  0  0  0  0  0
   26.8123  -20.9633  -13.4527 C   0  0  0  0  0  0  0  0  0  0  0  0
   26.3655  -22.1511  -13.6027 O   0  0  0  0  0  0  0  0  0  0  0  0
   26.4075  -20.2138  -12.3163 N   0  0  0  0  0  0  0  0  0  0  0  0
   25.4087  -20.7673  -11.4472 C   0  0  1  0  0  0  0  0  0  0  0  0
   25.5676  -20.1084  -10.0879 C   0  0  0  0  0  0  0  0  0  0  0  0
   26.8344  -20.4899   -9.4392 C   0  0  0  0  0  0  0  0  0  0  0  0
   27.8056  -21.2816  -10.0083 C   0  0  0  0  0  0  0  0  0  0  0  0
   28.8325  -21.4205   -9.1216 N   0  0  0  0  0  0  0  0  0  0  0  0
   28.5516  -20.7380   -7.9903 C   0  0  0  0  0  0  0  0  0  0  0  0
   29.2453  -20.5631   -6.8191 C   0  0  0  0  0  0  0  0  0  0  0  0
   28.6836  -19.7907   -5.8203 C   0  0  0  0  0  0  0  0  0  0  0  0
   27.4532  -19.2099   -5.9994 C   0  0  0  0  0  0  0  0  0  0  0  0
   26.7750  -19.3979   -7.1806 C   0  0  0  0  0  0  0  0  0  0  0  0
   27.3120  -20.1620   -8.1899 C   0  0  0  0  0  0  0  0  0  0  0  0
   24.0320  -20.6132  -11.9669 C   0  0  0  0  0  0  0  0  0  0  0  0
   23.6093  -19.4418  -12.1486 O   0  0  0  0  0  0  0  0  0  0  0  0
   22.6226  -22.4594  -15.0316 C   0  0  0  0  0  0  0  0  0  0  0  0
   21.5474  -22.4486  -13.9511 C   0  0  2  0  0  0  0  0  0  0  0  0
   20.2272  -22.1495  -14.6211 C   0  0  0  0  0  0  0  0  0  0  0  0
   21.8728  -21.4133  -12.8880 C   0  0  2  0  0  0  0  0  0  0  0  0
   23.1579  -21.6796  -12.2742 N   0  0  0  0  0  0  0  0  0  0  0  0
   20.7825  -21.3726  -11.8824 C   0  0  0  0  0  0  0  0  0  0  0  0
   20.7063  -22.2375  -10.9842 O   0  0  0  0  0  0  0  0  0  0  0  0
   19.8282  -20.3588  -11.9356 O   0  0  0  0  0  0  0  0  0  0  0  0
  1  2  1  0
  3  2  1  0
  4  3  1  0
  5  7  1  0
  5  6  1  6
  5  4  1  0
  7  8  2  0
  9 10  1  0
  9  7  1  0
 10 11  1  1
 12 11  1  0
 12 13  2  0
 14 13  1  0
 15 14  1  0
 16 15  2  0
 17 16  1  0
 18 17  2  0
 18 19  1  0
 19 20  2  0
 20 15  1  0
 20 12  1  0
 21 10  1  0
 21 22  2  0
 24 23  1  6
 24 26  1  0
 25 24  1  0
 26 27  1  1
 26 28  1  0
 27 21  1  0
 28 29  2  0
 28 30  1  0
M  END
$$$$
