MWV.pdb
     RDKit          3D

 30 31  0  0  1  0  0  0  0  0999 V2000
   25.4490  -19.1544  -17.7474 C   0  0  0  0  0  0  0  0  0  0  0  0
   26.4841  -20.5528  -18.2424 S   0  0  0  0  0  0  0  0  0  0  0  0
   28.1008  -20.5025  -17.4473 C   0  0  0  0  0  0  0  0  0  0  0  0
   27.9671  -20.1407  -15.9708 C   0  0  0  0  0  0  0  0  0  0  0  0
   28.4824  -21.2724  -15.1000 C   0  0  2  0  0  0  0  0  0  0  0  0
   28.4476  -22.4749  -15.9082 N   0  0  0  0  0  0  0  0  0  0  0  0
   27.6842  -21.4255  -13.8711 C   0  0  0  0  0  0  0  0  0  0  0  0
   26.5752  -22.0569  -13.9384 O   0  0  0  0  0  0  0  0  0  0  0  0
   28.1019  -20.8992  -12.6198 N   0  0  0  0  0  0  0  0  0  0  0  0
   27.2679  -21.1110  -11.4714 C   0  0  1  0  0  0  0  0  0  0  0  0
   28.0797  -20.7438  -10.2412 C   0  0  0  0  0  0  0  0  0  0  0  0
   27.2523  -20.7339   -9.0220 C   0  0  0  0  0  0  0  0  0  0  0  0
   25.9419  -21.1489   -8.9539 C   0  0  0  0  0  0  0  0  0  0  0  0
   25.5011  -20.9987   -7.6721 N   0  0  0  0  0  0  0  0  0  0  0  0
   26.4937  -20.4960   -6.9061 C   0  0  0  0  0  0  0  0  0  0  0  0
   26.5593  -20.1683   -5.5750 C   0  0  0  0  0  0  0  0  0  0  0  0
   27.7424  -19.6634   -5.0701 C   0  0  0  0  0  0  0  0  0  0  0  0
   28.8313  -19.4939   -5.8880 C   0  0  0  0  0  0  0  0  0  0  0  0
   28.7441  -19.8287   -7.2187 C   0  0  0  0  0  0  0  0  0  0  0  0
   27.5784  -20.3328   -7.7457 C   0  0  0  0  0  0  0  0  0  0  0  0
   25.9958  -20.3573  -11.5265 C   0  0  0  0  0  0  0  0  0  0  0  0
   26.0675  -19.1011  -11.5504 O   0  0  0  0  0  0  0  0  0  0  0  0
   22.7680  -21.4243  -13.6877 C   0  0  0  0  0  0  0  0  0  0  0  0
   23.0987  -20.0328  -13.1604 C   0  0  2  0  0  0  0  0  0  0  0  0
   24.1906  -19.4596  -14.0326 C   0  0  0  0  0  0  0  0  0  0  0  0
   23.5353  -20.1051  -11.7072 C   0  0  2  0  0  0  0  0  0  0  0  0
   24.7093  -20.9402  -11.5544 N   0  0  0  0  0  0  0  0  0  0  0  0
   22.4074  -20.5865  -10.8718 C   0  0  0  0  0  0  0  0  0  0  0  0
   22.4469  -21.7102  -10.3274 O   0  0  0  0  0  0  0  0  0  0  0  0
   21.2868  -19.7790  -10.6885 O   0  0  0  0  0  0  0  0  0  0  0  0
  1  2  1  0
  3  2  1  0
  4  3  1  0
  5  7  1  0
  5  6  1  6
  5  4  1  0
  7  8  2  0
  9 10  1  0
  9  7  1  0
 10 11  1  1
 12 11  1  0
 12 13  2  0
 14 13  1  0
 15 14  1  0
 16 15  2  0
 17 16  1  0
 18 17  2  0
 18 19  1  0
 19 20  2  0
 20 15  1  0
 20 12  1  0
 21 10  1  0
 21 22  2  0
 24 23  1  6
 24 26  1  0
 25 24  1  0
 26 27  1  6
 26 28  1  0
 27 21  1  0
 28 29  2  0
 28 30  1  0
M  END
$$$$
