MWV.pdb
     RDKit          3D

 30 31  0  0  1  0  0  0  0  0999 V2000
   26.0756  -19.2186  -19.6460 C   0  0  0  0  0  0  0  0  0  0  0  0
   27.8358  -18.9524  -19.3250 S   0  0  0  0  0  0  0  0  0  0  0  0
   28.5110  -20.2059  -18.2200 C   0  0  0  0  0  0  0  0  0  0  0  0
   27.5470  -20.4920  -17.0721 C   0  0  0  0  0  0  0  0  0  0  0  0
   28.1533  -21.4981  -16.1104 C   0  0  2  0  0  0  0  0  0  0  0  0
   28.2519  -22.7558  -16.8237 N   0  0  0  0  0  0  0  0  0  0  0  0
   27.3500  -21.6360  -14.8830 C   0  0  0  0  0  0  0  0  0  0  0  0
   26.2618  -22.3037  -14.9377 O   0  0  0  0  0  0  0  0  0  0  0  0
   27.7406  -21.0562  -13.6467 N   0  0  0  0  0  0  0  0  0  0  0  0
   26.8644  -21.1873  -12.5179 C   0  0  1  0  0  0  0  0  0  0  0  0
   27.6493  -20.7904  -11.2796 C   0  0  0  0  0  0  0  0  0  0  0  0
   26.8284  -20.8790  -10.0592 C   0  0  0  0  0  0  0  0  0  0  0  0
   25.6424  -21.5692   -9.9539 C   0  0  0  0  0  0  0  0  0  0  0  0
   25.1666  -21.4310   -8.6833 N   0  0  0  0  0  0  0  0  0  0  0  0
   26.0151  -20.6676   -7.9608 C   0  0  0  0  0  0  0  0  0  0  0  0
   25.9930  -20.2406   -6.6567 C   0  0  0  0  0  0  0  0  0  0  0  0
   27.0293  -19.4511   -6.1959 C   0  0  0  0  0  0  0  0  0  0  0  0
   28.0613  -19.1016   -7.0303 C   0  0  0  0  0  0  0  0  0  0  0  0
   28.0639  -19.5401   -8.3335 C   0  0  0  0  0  0  0  0  0  0  0  0
   27.0446  -20.3266   -8.8165 C   0  0  0  0  0  0  0  0  0  0  0  0
   25.6210  -20.3959  -12.6488 C   0  0  0  0  0  0  0  0  0  0  0  0
   25.7401  -19.1583  -12.8434 O   0  0  0  0  0  0  0  0  0  0  0  0
   22.3079  -21.6320  -14.5228 C   0  0  0  0  0  0  0  0  0  0  0  0
   22.6384  -20.1801  -14.1968 C   0  0  2  0  0  0  0  0  0  0  0  0
   23.6597  -19.7054  -15.2034 C   0  0  0  0  0  0  0  0  0  0  0  0
   23.1671  -20.0612  -12.7776 C   0  0  2  0  0  0  0  0  0  0  0  0
   24.3129  -20.9237  -12.5720 N   0  0  0  0  0  0  0  0  0  0  0  0
   22.0781  -20.3569  -11.8142 C   0  0  0  0  0  0  0  0  0  0  0  0
   22.0781  -21.4163  -11.1521 O   0  0  0  0  0  0  0  0  0  0  0  0
   21.0390  -19.4448  -11.6414 O   0  0  0  0  0  0  0  0  0  0  0  0
  1  2  1  0
  3  2  1  0
  4  3  1  0
  5  7  1  0
  5  6  1  6
  5  4  1  0
  7  8  2  0
  9 10  1  0
  9  7  1  0
 10 11  1  1
 12 11  1  0
 12 13  2  0
 14 13  1  0
 15 14  1  0
 16 15  2  0
 17 16  1  0
 18 17  2  0
 18 19  1  0
 19 20  2  0
 20 15  1  0
 20 12  1  0
 21 10  1  0
 21 22  2  0
 24 23  1  6
 24 26  1  0
 25 24  1  0
 26 27  1  6
 26 28  1  0
 27 21  1  0
 28 29  2  0
 28 30  1  0
M  END
$$$$
