MWV.pdb
     RDKit          3D

 30 31  0  0  1  0  0  0  0  0999 V2000
   25.5619  -22.5366  -20.4788 C   0  0  0  0  0  0  0  0  0  0  0  0
   26.6725  -23.3881  -19.3328 S   0  0  0  0  0  0  0  0  0  0  0  0
   25.9739  -24.9474  -18.7591 C   0  0  0  0  0  0  0  0  0  0  0  0
   24.9073  -24.7042  -17.6952 C   0  0  0  0  0  0  0  0  0  0  0  0
   25.5252  -24.0705  -16.4618 C   0  0  2  0  0  0  0  0  0  0  0  0
   26.3614  -25.0800  -15.8438 N   0  0  0  0  0  0  0  0  0  0  0  0
   24.4992  -23.5747  -15.5279 C   0  0  0  0  0  0  0  0  0  0  0  0
   24.0200  -24.3834  -14.6622 O   0  0  0  0  0  0  0  0  0  0  0  0
   24.0263  -22.2357  -15.5550 N   0  0  0  0  0  0  0  0  0  0  0  0
   23.0736  -21.8223  -14.5647 C   0  0  1  0  0  0  0  0  0  0  0  0
   23.5518  -20.4991  -13.9926 C   0  0  0  0  0  0  0  0  0  0  0  0
   24.5677  -20.6916  -12.9428 C   0  0  0  0  0  0  0  0  0  0  0  0
   25.9103  -20.8907  -13.1706 C   0  0  0  0  0  0  0  0  0  0  0  0
   26.5424  -21.0282  -11.9700 N   0  0  0  0  0  0  0  0  0  0  0  0
   25.6427  -20.9232  -10.9679 C   0  0  0  0  0  0  0  0  0  0  0  0
   25.7670  -20.9877   -9.6027 C   0  0  0  0  0  0  0  0  0  0  0  0
   24.6361  -20.8394   -8.8224 C   0  0  0  0  0  0  0  0  0  0  0  0
   23.4114  -20.6313   -9.4055 C   0  0  0  0  0  0  0  0  0  0  0  0
   23.3091  -20.5700  -10.7753 C   0  0  0  0  0  0  0  0  0  0  0  0
   24.4190  -20.7146  -11.5740 C   0  0  0  0  0  0  0  0  0  0  0  0
   21.6937  -21.7194  -15.0890 C   0  0  0  0  0  0  0  0  0  0  0  0
   21.5217  -21.0465  -16.1385 O   0  0  0  0  0  0  0  0  0  0  0  0
   19.1610  -24.4794  -15.9340 C   0  0  0  0  0  0  0  0  0  0  0  0
   18.4530  -23.4219  -15.0948 C   0  0  2  0  0  0  0  0  0  0  0  0
   17.0760  -23.2180  -15.6810 C   0  0  0  0  0  0  0  0  0  0  0  0
   19.2475  -22.1271  -15.0909 C   0  0  2  0  0  0  0  0  0  0  0  0
   20.5572  -22.3185  -14.5017 N   0  0  0  0  0  0  0  0  0  0  0  0
   18.4776  -21.0727  -14.3859 C   0  0  0  0  0  0  0  0  0  0  0  0
   17.8167  -20.2263  -15.0242 O   0  0  0  0  0  0  0  0  0  0  0  0
   18.4882  -21.0207  -12.9935 O   0  0  0  0  0  0  0  0  0  0  0  0
  1  2  1  0
  3  2  1  0
  4  3  1  0
  5  7  1  0
  5  6  1  1
  5  4  1  0
  7  8  2  0
  9 10  1  0
  9  7  1  0
 10 11  1  6
 12 11  1  0
 12 13  2  0
 14 13  1  0
 15 14  1  0
 16 15  2  0
 17 16  1  0
 18 17  2  0
 18 19  1  0
 19 20  2  0
 20 15  1  0
 20 12  1  0
 21 10  1  0
 21 22  2  0
 24 23  1  6
 24 26  1  0
 25 24  1  0
 26 27  1  1
 26 28  1  0
 27 21  1  0
 28 29  2  0
 28 30  1  0
M  END
$$$$
