MWV.pdb
     RDKit          3D

 30 31  0  0  1  0  0  0  0  0999 V2000
   21.2667  -19.9985  -16.1104 C   0  0  0  0  0  0  0  0  0  0  0  0
   22.8369  -19.5607  -16.8944 S   0  0  0  0  0  0  0  0  0  0  0  0
   23.9785  -18.7994  -15.7257 C   0  0  0  0  0  0  0  0  0  0  0  0
   24.1163  -19.6535  -14.4686 C   0  0  0  0  0  0  0  0  0  0  0  0
   25.5805  -19.9120  -14.1626 C   0  0  2  0  0  0  0  0  0  0  0  0
   26.0637  -20.8379  -15.1673 N   0  0  0  0  0  0  0  0  0  0  0  0
   25.7703  -20.4454  -12.8023 C   0  0  0  0  0  0  0  0  0  0  0  0
   25.5564  -21.6887  -12.5990 O   0  0  0  0  0  0  0  0  0  0  0  0
   26.1813  -19.6306  -11.7140 N   0  0  0  0  0  0  0  0  0  0  0  0
   26.3436  -20.2367  -10.4235 C   0  0  1  0  0  0  0  0  0  0  0  0
   27.4512  -19.4889   -9.7016 C   0  0  0  0  0  0  0  0  0  0  0  0
   27.9078  -20.2114   -8.5014 C   0  0  0  0  0  0  0  0  0  0  0  0
   28.3251  -21.5226   -8.4805 C   0  0  0  0  0  0  0  0  0  0  0  0
   28.6733  -21.8510   -7.2034 N   0  0  0  0  0  0  0  0  0  0  0  0
   28.4921  -20.7845   -6.3944 C   0  0  0  0  0  0  0  0  0  0  0  0
   28.6917  -20.5994   -5.0493 C   0  0  0  0  0  0  0  0  0  0  0  0
   28.4086  -19.3647   -4.4968 C   0  0  0  0  0  0  0  0  0  0  0  0
   27.9361  -18.3434   -5.2823 C   0  0  0  0  0  0  0  0  0  0  0  0
   27.7433  -18.5502   -6.6278 C   0  0  0  0  0  0  0  0  0  0  0  0
   28.0172  -19.7693   -7.2019 C   0  0  0  0  0  0  0  0  0  0  0  0
   25.0963  -20.2591   -9.6278 C   0  0  0  0  0  0  0  0  0  0  0  0
   24.3921  -19.2162   -9.6255 O   0  0  0  0  0  0  0  0  0  0  0  0
   22.7873  -23.5922   -8.6371 C   0  0  0  0  0  0  0  0  0  0  0  0
   22.3299  -22.1384   -8.6091 C   0  0  2  0  0  0  0  0  0  0  0  0
   21.9474  -21.7511  -10.0181 C   0  0  0  0  0  0  0  0  0  0  0  0
   23.4345  -21.2441   -8.0725 C   0  0  2  0  0  0  0  0  0  0  0  0
   24.6371  -21.3608   -8.8721 N   0  0  0  0  0  0  0  0  0  0  0  0
   23.6897  -21.5686   -6.6473 C   0  0  0  0  0  0  0  0  0  0  0  0
   22.8285  -21.3360   -5.7728 O   0  0  0  0  0  0  0  0  0  0  0  0
   24.9041  -22.1403   -6.2735 O   0  0  0  0  0  0  0  0  0  0  0  0
  1  2  1  0
  3  2  1  0
  4  3  1  0
  5  7  1  0
  5  6  1  6
  5  4  1  0
  7  8  2  0
  9 10  1  0
  9  7  1  0
 10 11  1  1
 12 11  1  0
 12 13  2  0
 14 13  1  0
 15 14  1  0
 16 15  2  0
 17 16  1  0
 18 17  2  0
 18 19  1  0
 19 20  2  0
 20 15  1  0
 20 12  1  0
 21 10  1  0
 21 22  2  0
 24 23  1  6
 24 26  1  0
 25 24  1  0
 26 27  1  6
 26 28  1  0
 27 21  1  0
 28 29  2  0
 28 30  1  0
M  END
$$$$
