MWV.pdb
     RDKit          3D

 30 31  0  0  1  0  0  0  0  0999 V2000
   28.0835  -26.3047  -15.5668 C   0  0  0  0  0  0  0  0  0  0  0  0
   29.0016  -26.3631  -17.1242 S   0  0  0  0  0  0  0  0  0  0  0  0
   30.2143  -25.0344  -17.2357 C   0  0  0  0  0  0  0  0  0  0  0  0
   29.7220  -23.7889  -16.5041 C   0  0  0  0  0  0  0  0  0  0  0  0
   29.1022  -22.8098  -17.4848 C   0  0  2  0  0  0  0  0  0  0  0  0
   30.1943  -22.0849  -18.1030 N   0  0  0  0  0  0  0  0  0  0  0  0
   28.1552  -21.8959  -16.8223 C   0  0  0  0  0  0  0  0  0  0  0  0
   28.6160  -21.0231  -16.0105 O   0  0  0  0  0  0  0  0  0  0  0  0
   26.7549  -21.9499  -17.0531 N   0  0  0  0  0  0  0  0  0  0  0  0
   25.9098  -21.0046  -16.3813 C   0  0  1  0  0  0  0  0  0  0  0  0
   24.7440  -20.6947  -17.3043 C   0  0  0  0  0  0  0  0  0  0  0  0
   23.8129  -19.7237  -16.7034 C   0  0  0  0  0  0  0  0  0  0  0  0
   24.1537  -18.4575  -16.2856 C   0  0  0  0  0  0  0  0  0  0  0  0
   23.0414  -17.8473  -15.7852 N   0  0  0  0  0  0  0  0  0  0  0  0
   21.9864  -18.6868  -15.8678 C   0  0  0  0  0  0  0  0  0  0  0  0
   20.6688  -18.5547  -15.5074 C   0  0  0  0  0  0  0  0  0  0  0  0
   19.8090  -19.6149  -15.7229 C   0  0  0  0  0  0  0  0  0  0  0  0
   20.2677  -20.7785  -16.2877 C   0  0  0  0  0  0  0  0  0  0  0  0
   21.5917  -20.8898  -16.6414 C   0  0  0  0  0  0  0  0  0  0  0  0
   22.4676  -19.8496  -16.4375 C   0  0  0  0  0  0  0  0  0  0  0  0
   25.4437  -21.4751  -15.0581 C   0  0  0  0  0  0  0  0  0  0  0  0
   25.0483  -22.6669  -14.9737 O   0  0  0  0  0  0  0  0  0  0  0  0
   27.0936  -21.2849  -11.5229 C   0  0  0  0  0  0  0  0  0  0  0  0
   25.6608  -20.7698  -11.4502 C   0  0  2  0  0  0  0  0  0  0  0  0
   25.0545  -21.2812  -10.1648 C   0  0  0  0  0  0  0  0  0  0  0  0
   24.8664  -21.2366  -12.6581 C   0  0  2  0  0  0  0  0  0  0  0  0
   25.4093  -20.6893  -13.8848 N   0  0  0  0  0  0  0  0  0  0  0  0
   23.4373  -20.8784  -12.4828 C   0  0  0  0  0  0  0  0  0  0  0  0
   23.0661  -19.6861  -12.5196 O   0  0  0  0  0  0  0  0  0  0  0  0
   22.4921  -21.8806  -12.2742 O   0  0  0  0  0  0  0  0  0  0  0  0
  1  2  1  0
  3  2  1  0
  4  3  1  0
  5  7  1  0
  5  6  1  1
  5  4  1  0
  7  8  2  0
  9 10  1  0
  9  7  1  0
 10 11  1  6
 12 11  1  0
 12 13  2  0
 14 13  1  0
 15 14  1  0
 16 15  2  0
 17 16  1  0
 18 17  2  0
 18 19  1  0
 19 20  2  0
 20 15  1  0
 20 12  1  0
 21 10  1  0
 21 22  2  0
 24 23  1  6
 24 26  1  0
 25 24  1  0
 26 27  1  6
 26 28  1  0
 27 21  1  0
 28 29  2  0
 28 30  1  0
M  END
$$$$
