MWV.pdb
     RDKit          3D

 30 31  0  0  1  0  0  0  0  0999 V2000
   21.0677  -19.0325  -19.5145 C   0  0  0  0  0  0  0  0  0  0  0  0
   21.8748  -17.5403  -20.1421 S   0  0  0  0  0  0  0  0  0  0  0  0
   23.5200  -17.8917  -20.7888 C   0  0  0  0  0  0  0  0  0  0  0  0
   24.2424  -18.9078  -19.9086 C   0  0  0  0  0  0  0  0  0  0  0  0
   25.1076  -18.1984  -18.8827 C   0  0  2  0  0  0  0  0  0  0  0  0
   26.2979  -17.7472  -19.5754 N   0  0  0  0  0  0  0  0  0  0  0  0
   25.4443  -19.0765  -17.7484 C   0  0  0  0  0  0  0  0  0  0  0  0
   26.1516  -20.1172  -17.9714 O   0  0  0  0  0  0  0  0  0  0  0  0
   25.0129  -18.8085  -16.4221 N   0  0  0  0  0  0  0  0  0  0  0  0
   25.3670  -19.7330  -15.3833 C   0  0  1  0  0  0  0  0  0  0  0  0
   25.2479  -19.0010  -14.0578 C   0  0  0  0  0  0  0  0  0  0  0  0
   25.6495  -19.8522  -12.9241 C   0  0  0  0  0  0  0  0  0  0  0  0
   26.8429  -20.5313  -12.8308 C   0  0  0  0  0  0  0  0  0  0  0  0
   26.8686  -21.2111  -11.6488 N   0  0  0  0  0  0  0  0  0  0  0  0
   25.7206  -20.9900  -10.9722 C   0  0  0  0  0  0  0  0  0  0  0  0
   25.2627  -21.4343   -9.7572 C   0  0  0  0  0  0  0  0  0  0  0  0
   24.0163  -21.0241   -9.3236 C   0  0  0  0  0  0  0  0  0  0  0  0
   23.2519  -20.1869  -10.0970 C   0  0  0  0  0  0  0  0  0  0  0  0
   23.7297  -19.7535  -11.3112 C   0  0  0  0  0  0  0  0  0  0  0  0
   24.9664  -20.1471  -11.7653 C   0  0  0  0  0  0  0  0  0  0  0  0
   24.5507  -20.9670  -15.3966 C   0  0  0  0  0  0  0  0  0  0  0  0
   23.3165  -20.8427  -15.6093 O   0  0  0  0  0  0  0  0  0  0  0  0
   25.1210  -24.2899  -17.3428 C   0  0  0  0  0  0  0  0  0  0  0  0
   24.8003  -24.6058  -15.8865 C   0  0  2  0  0  0  0  0  0  0  0  0
   23.8837  -25.8062  -15.8689 C   0  0  0  0  0  0  0  0  0  0  0  0
   24.1525  -23.4080  -15.2131 C   0  0  2  0  0  0  0  0  0  0  0  0
   25.0511  -22.2717  -15.1893 N   0  0  0  0  0  0  0  0  0  0  0  0
   23.7077  -23.7842  -13.8485 C   0  0  0  0  0  0  0  0  0  0  0  0
   24.4044  -23.5094  -12.8486 O   0  0  0  0  0  0  0  0  0  0  0  0
   22.4979  -24.4530  -13.6736 O   0  0  0  0  0  0  0  0  0  0  0  0
  1  2  1  0
  3  2  1  0
  4  3  1  0
  5  7  1  0
  5  6  1  6
  5  4  1  0
  7  8  2  0
  9 10  1  0
  9  7  1  0
 10 11  1  1
 12 11  1  0
 12 13  2  0
 14 13  1  0
 15 14  1  0
 16 15  2  0
 17 16  1  0
 18 17  2  0
 18 19  1  0
 19 20  2  0
 20 15  1  0
 20 12  1  0
 21 10  1  0
 21 22  2  0
 24 23  1  6
 24 26  1  0
 25 24  1  0
 26 27  1  1
 26 28  1  0
 27 21  1  0
 28 29  2  0
 28 30  1  0
M  END
$$$$
