MWV.pdb
     RDKit          3D

 30 31  0  0  1  0  0  0  0  0999 V2000
   30.2925  -21.6933  -20.9515 C   0  0  0  0  0  0  0  0  0  0  0  0
   29.0358  -20.3923  -20.9650 S   0  0  0  0  0  0  0  0  0  0  0  0
   28.4593  -20.0022  -19.3026 C   0  0  0  0  0  0  0  0  0  0  0  0
   27.6142  -21.1420  -18.7410 C   0  0  0  0  0  0  0  0  0  0  0  0
   28.3127  -21.7843  -17.5560 C   0  0  2  0  0  0  0  0  0  0  0  0
   28.8049  -23.0715  -18.0043 N   0  0  0  0  0  0  0  0  0  0  0  0
   27.4116  -21.9249  -16.3988 C   0  0  0  0  0  0  0  0  0  0  0  0
   26.4808  -22.7988  -16.4529 O   0  0  0  0  0  0  0  0  0  0  0  0
   27.5403  -21.1276  -15.2305 N   0  0  0  0  0  0  0  0  0  0  0  0
   26.6697  -21.3886  -14.1201 C   0  0  1  0  0  0  0  0  0  0  0  0
   27.3791  -20.9203  -12.8613 C   0  0  0  0  0  0  0  0  0  0  0  0
   26.5871  -21.1989  -11.6505 C   0  0  0  0  0  0  0  0  0  0  0  0
   25.9789  -22.3998  -11.3640 C   0  0  0  0  0  0  0  0  0  0  0  0
   25.3384  -22.2912  -10.1649 N   0  0  0  0  0  0  0  0  0  0  0  0
   25.5160  -21.0486   -9.6656 C   0  0  0  0  0  0  0  0  0  0  0  0
   25.0846  -20.4454   -8.5109 C   0  0  0  0  0  0  0  0  0  0  0  0
   25.4378  -19.1306   -8.2732 C   0  0  0  0  0  0  0  0  0  0  0  0
   26.2068  -18.4428   -9.1782 C   0  0  0  0  0  0  0  0  0  0  0  0
   26.6285  -19.0662  -10.3288 C   0  0  0  0  0  0  0  0  0  0  0  0
   26.2906  -20.3735  -10.5889 C   0  0  0  0  0  0  0  0  0  0  0  0
   25.3393  -20.7563  -14.2599 C   0  0  0  0  0  0  0  0  0  0  0  0
   25.3070  -19.5404  -14.5831 O   0  0  0  0  0  0  0  0  0  0  0  0
   22.6058  -21.0596  -16.5501 C   0  0  0  0  0  0  0  0  0  0  0  0
   21.9420  -21.1813  -15.1833 C   0  0  2  0  0  0  0  0  0  0  0  0
   20.6530  -20.3953  -15.2281 C   0  0  0  0  0  0  0  0  0  0  0  0
   22.8665  -20.6620  -14.0954 C   0  0  2  0  0  0  0  0  0  0  0  0
   24.1049  -21.4131  -14.0585 N   0  0  0  0  0  0  0  0  0  0  0  0
   22.1654  -20.6957  -12.7882 C   0  0  0  0  0  0  0  0  0  0  0  0
   21.9925  -21.7738  -12.1812 O   0  0  0  0  0  0  0  0  0  0  0  0
   21.6914  -19.5126  -12.2252 O   0  0  0  0  0  0  0  0  0  0  0  0
  1  2  1  0
  3  2  1  0
  4  3  1  0
  5  7  1  0
  5  6  1  6
  5  4  1  0
  7  8  2  0
  9 10  1  0
  9  7  1  0
 10 11  1  1
 12 11  1  0
 12 13  2  0
 14 13  1  0
 15 14  1  0
 16 15  2  0
 17 16  1  0
 18 17  2  0
 18 19  1  0
 19 20  2  0
 20 15  1  0
 20 12  1  0
 21 10  1  0
 21 22  2  0
 24 23  1  6
 24 26  1  0
 25 24  1  0
 26 27  1  1
 26 28  1  0
 27 21  1  0
 28 29  2  0
 28 30  1  0
M  END
$$$$
