DWL.pdb
     RDKit          3D

 31 32  0  0  1  0  0  0  0  0999 V2000
   27.9835  -20.4136  -17.8740 N   0  0  0  0  0  0  0  0  0  0  0  0
   27.5544  -19.3696  -16.9958 C   0  0  1  0  0  0  0  0  0  0  0  0
   26.5019  -18.4742  -17.6713 C   0  0  0  0  0  0  0  0  0  0  0  0
   27.0985  -17.6206  -18.7218 C   0  0  0  0  0  0  0  0  0  0  0  0
   28.2043  -17.0524  -18.5660 O   0  0  0  0  0  0  0  0  0  0  0  0
   26.8814  -19.9754  -15.8172 C   0  0  0  0  0  0  0  0  0  0  0  0
   26.0960  -20.9530  -16.0337 O   0  0  0  0  0  0  0  0  0  0  0  0
   26.4355  -17.4179  -19.9437 O   0  0  0  0  0  0  0  0  0  0  0  0
   27.0884  -19.5010  -14.4955 N   0  0  0  0  0  0  0  0  0  0  0  0
   26.3985  -20.0763  -13.3737 C   0  0  1  0  0  0  0  0  0  0  0  0
   26.9256  -19.5978  -12.0318 C   0  0  0  0  0  0  0  0  0  0  0  0
   26.1735  -20.2496  -10.9368 C   0  0  0  0  0  0  0  0  0  0  0  0
   25.3463  -21.3505  -11.1371 C   0  0  0  0  0  0  0  0  0  0  0  0
   24.8457  -21.7100   -9.9626 N   0  0  0  0  0  0  0  0  0  0  0  0
   25.2976  -20.9025   -8.9891 C   0  0  0  0  0  0  0  0  0  0  0  0
   25.0352  -20.9092   -7.6443 C   0  0  0  0  0  0  0  0  0  0  0  0
   25.6369  -19.9452   -6.8590 C   0  0  0  0  0  0  0  0  0  0  0  0
   26.4676  -19.0283   -7.4640 C   0  0  0  0  0  0  0  0  0  0  0  0
   26.7260  -19.0335   -8.8359 C   0  0  0  0  0  0  0  0  0  0  0  0
   26.1245  -19.9946   -9.6043 C   0  0  0  0  0  0  0  0  0  0  0  0
   24.9530  -19.8760  -13.5074 C   0  0  0  0  0  0  0  0  0  0  0  0
   24.5314  -18.6704  -13.5877 O   0  0  0  0  0  0  0  0  0  0  0  0
   19.9701  -22.7665  -15.3668 C   0  0  0  0  0  0  0  0  0  0  0  0
   20.5079  -21.3917  -14.9456 C   0  0  2  0  0  0  0  0  0  0  0  0
   20.1364  -20.3776  -15.9771 C   0  0  0  0  0  0  0  0  0  0  0  0
   21.9760  -21.5144  -14.6987 C   0  0  0  0  0  0  0  0  0  0  0  0
   22.5416  -20.5541  -13.6940 C   0  0  2  0  0  0  0  0  0  0  0  0
   23.9657  -20.8901  -13.5581 N   0  0  0  0  0  0  0  0  0  0  0  0
   21.8411  -20.4517  -12.4248 C   0  0  0  0  0  0  0  0  0  0  0  0
   22.0881  -21.4276  -11.4603 O   0  0  0  0  0  0  0  0  0  0  0  0
   21.0230  -19.5640  -12.1002 O   0  0  0  0  0  0  0  0  0  0  0  0
  2  1  1  6
  2  3  1  0
  3  4  1  0
  4  8  1  0
  5  4  2  0
  6  7  2  0
  6  2  1  0
  9  6  1  0
 10  9  1  0
 10 11  1  1
 11 12  1  0
 12 13  2  0
 12 20  1  0
 13 14  1  0
 14 15  1  0
 15 16  2  0
 16 17  1  0
 18 17  2  0
 19 18  1  0
 20 19  2  0
 20 15  1  0
 21 10  1  0
 22 21  2  0
 24 23  1  6
 24 26  1  0
 25 24  1  0
 27 26  1  6
 27 28  1  0
 28 21  1  0
 29 30  1  0
 29 27  1  0
 31 29  2  0
M  END
$$$$
