DWL.pdb
     RDKit          3D

 31 32  0  0  1  0  0  0  0  0999 V2000
   28.5262  -21.0635  -15.0942 N   0  0  0  0  0  0  0  0  0  0  0  0
   27.7775  -20.0567  -14.4078 C   0  0  1  0  0  0  0  0  0  0  0  0
   26.9273  -19.2322  -15.3890 C   0  0  0  0  0  0  0  0  0  0  0  0
   27.7648  -18.3785  -16.2596 C   0  0  0  0  0  0  0  0  0  0  0  0
   28.3717  -17.3749  -15.8185 O   0  0  0  0  0  0  0  0  0  0  0  0
   26.8158  -20.7144  -13.4849 C   0  0  0  0  0  0  0  0  0  0  0  0
   26.3328  -21.8343  -13.8484 O   0  0  0  0  0  0  0  0  0  0  0  0
   27.9087  -18.6703  -17.6263 O   0  0  0  0  0  0  0  0  0  0  0  0
   26.4350  -20.1378  -12.2451 N   0  0  0  0  0  0  0  0  0  0  0  0
   25.4706  -20.7694  -11.3870 C   0  0  1  0  0  0  0  0  0  0  0  0
   25.5913  -20.3491   -9.9322 C   0  0  0  0  0  0  0  0  0  0  0  0
   26.9183  -20.7388   -9.4066 C   0  0  0  0  0  0  0  0  0  0  0  0
   27.7950  -21.5664  -10.1017 C   0  0  0  0  0  0  0  0  0  0  0  0
   28.8992  -21.6983   -9.3789 N   0  0  0  0  0  0  0  0  0  0  0  0
   28.8019  -21.0001   -8.2355 C   0  0  0  0  0  0  0  0  0  0  0  0
   29.6968  -20.8619   -7.2072 C   0  0  0  0  0  0  0  0  0  0  0  0
   29.3334  -20.0780   -6.1294 C   0  0  0  0  0  0  0  0  0  0  0  0
   28.0945  -19.4766   -6.1414 C   0  0  0  0  0  0  0  0  0  0  0  0
   27.1927  -19.6263   -7.1964 C   0  0  0  0  0  0  0  0  0  0  0  0
   27.5642  -20.4051   -8.2601 C   0  0  0  0  0  0  0  0  0  0  0  0
   24.1165  -20.5744  -11.9122 C   0  0  0  0  0  0  0  0  0  0  0  0
   23.6250  -19.3947  -11.8475 O   0  0  0  0  0  0  0  0  0  0  0  0
   22.2806  -21.1501  -15.8697 C   0  0  0  0  0  0  0  0  0  0  0  0
   22.3637  -22.4648  -15.0812 C   0  0  2  0  0  0  0  0  0  0  0  0
   22.0014  -23.6032  -15.9775 C   0  0  0  0  0  0  0  0  0  0  0  0
   21.5085  -22.3395  -13.8630 C   0  0  0  0  0  0  0  0  0  0  0  0
   21.9121  -21.2600  -12.9022 C   0  0  2  0  0  0  0  0  0  0  0  0
   23.2888  -21.5676  -12.4902 N   0  0  0  0  0  0  0  0  0  0  0  0
   21.0113  -21.0080  -11.7899 C   0  0  0  0  0  0  0  0  0  0  0  0
   21.3031  -21.6032  -10.5634 O   0  0  0  0  0  0  0  0  0  0  0  0
   19.9809  -20.3008  -11.8174 O   0  0  0  0  0  0  0  0  0  0  0  0
  2  1  1  6
  2  3  1  0
  3  4  1  0
  4  8  1  0
  5  4  2  0
  6  7  2  0
  6  2  1  0
  9  6  1  0
 10  9  1  0
 10 11  1  1
 11 12  1  0
 12 13  2  0
 12 20  1  0
 13 14  1  0
 14 15  1  0
 15 16  2  0
 16 17  1  0
 18 17  2  0
 19 18  1  0
 20 19  2  0
 20 15  1  0
 21 10  1  0
 22 21  2  0
 24 23  1  6
 24 26  1  0
 25 24  1  0
 27 26  1  1
 27 28  1  0
 28 21  1  0
 29 30  1  0
 29 27  1  0
 31 29  2  0
M  END
$$$$
