DWL.pdb
     RDKit          3D

 31 32  0  0  1  0  0  0  0  0999 V2000
   28.5490  -21.7867  -13.8522 N   0  0  0  0  0  0  0  0  0  0  0  0
   27.7938  -20.6560  -13.4087 C   0  0  1  0  0  0  0  0  0  0  0  0
   26.8287  -20.1699  -14.5032 C   0  0  0  0  0  0  0  0  0  0  0  0
   27.5501  -19.5612  -15.6421 C   0  0  0  0  0  0  0  0  0  0  0  0
   27.3704  -19.9436  -16.8217 O   0  0  0  0  0  0  0  0  0  0  0  0
   26.9410  -21.0639  -12.2619 C   0  0  0  0  0  0  0  0  0  0  0  0
   26.3111  -22.1647  -12.3671 O   0  0  0  0  0  0  0  0  0  0  0  0
   28.4711  -18.5209  -15.4343 O   0  0  0  0  0  0  0  0  0  0  0  0
   26.8165  -20.2759  -11.0879 N   0  0  0  0  0  0  0  0  0  0  0  0
   25.8035  -20.5462  -10.1050 C   0  0  1  0  0  0  0  0  0  0  0  0
   26.0584  -19.8625   -8.7727 C   0  0  0  0  0  0  0  0  0  0  0  0
   27.2848  -20.4124   -8.1539 C   0  0  0  0  0  0  0  0  0  0  0  0
   28.2244  -21.1535   -8.8641 C   0  0  0  0  0  0  0  0  0  0  0  0
   29.2105  -21.4720   -8.0362 N   0  0  0  0  0  0  0  0  0  0  0  0
   28.9745  -20.9805   -6.8087 C   0  0  0  0  0  0  0  0  0  0  0  0
   29.7187  -21.0752   -5.6622 C   0  0  0  0  0  0  0  0  0  0  0  0
   29.2314  -20.4730   -4.5185 C   0  0  0  0  0  0  0  0  0  0  0  0
   28.0262  -19.8099   -4.5866 C   0  0  0  0  0  0  0  0  0  0  0  0
   27.2785  -19.7215   -5.7622 C   0  0  0  0  0  0  0  0  0  0  0  0
   27.7720  -20.3216   -6.8901 C   0  0  0  0  0  0  0  0  0  0  0  0
   24.4760  -20.2381  -10.6438 C   0  0  0  0  0  0  0  0  0  0  0  0
   24.3160  -19.0942  -11.1946 O   0  0  0  0  0  0  0  0  0  0  0  0
   23.3975  -22.5653  -12.7721 C   0  0  0  0  0  0  0  0  0  0  0  0
   22.4837  -21.5701  -13.5011 C   0  0  2  0  0  0  0  0  0  0  0  0
   23.0450  -21.2831  -14.8551 C   0  0  0  0  0  0  0  0  0  0  0  0
   22.3107  -20.3658  -12.6346 C   0  0  0  0  0  0  0  0  0  0  0  0
   22.0574  -20.6490  -11.1831 C   0  0  2  0  0  0  0  0  0  0  0  0
   23.3415  -21.0854  -10.6173 N   0  0  0  0  0  0  0  0  0  0  0  0
   20.9505  -21.5397  -10.8768 C   0  0  0  0  0  0  0  0  0  0  0  0
   19.6824  -21.1910  -11.3394 O   0  0  0  0  0  0  0  0  0  0  0  0
   21.0163  -22.6062  -10.2281 O   0  0  0  0  0  0  0  0  0  0  0  0
  2  1  1  6
  2  3  1  0
  3  4  1  0
  4  8  1  0
  5  4  2  0
  6  7  2  0
  6  2  1  0
  9  6  1  0
 10  9  1  0
 10 11  1  1
 11 12  1  0
 12 13  2  0
 12 20  1  0
 13 14  1  0
 14 15  1  0
 15 16  2  0
 16 17  1  0
 18 17  2  0
 19 18  1  0
 20 19  2  0
 20 15  1  0
 21 10  1  0
 22 21  2  0
 24 23  1  1
 24 26  1  0
 25 24  1  0
 27 26  1  6
 27 28  1  0
 28 21  1  0
 29 30  1  0
 29 27  1  0
 31 29  2  0
M  END
$$$$
