DWL.pdb
     RDKit          3D

 31 32  0  0  1  0  0  0  0  0999 V2000
   27.7837  -22.2660  -15.1051 N   0  0  0  0  0  0  0  0  0  0  0  0
   27.5169  -20.9741  -14.5527 C   0  0  1  0  0  0  0  0  0  0  0  0
   26.4736  -20.2169  -15.3916 C   0  0  0  0  0  0  0  0  0  0  0  0
   27.0339  -19.7552  -16.6804 C   0  0  0  0  0  0  0  0  0  0  0  0
   26.5401  -20.0989  -17.7795 O   0  0  0  0  0  0  0  0  0  0  0  0
   26.9160  -21.1399  -13.2036 C   0  0  0  0  0  0  0  0  0  0  0  0
   25.9047  -21.9064  -13.1067 O   0  0  0  0  0  0  0  0  0  0  0  0
   28.1519  -18.9050  -16.7131 O   0  0  0  0  0  0  0  0  0  0  0  0
   27.4289  -20.4811  -12.0557 N   0  0  0  0  0  0  0  0  0  0  0  0
   26.7864  -20.5926  -10.7751 C   0  0  1  0  0  0  0  0  0  0  0  0
   27.5162  -19.8516   -9.6678 C   0  0  0  0  0  0  0  0  0  0  0  0
   26.9603  -20.2416   -8.3532 C   0  0  0  0  0  0  0  0  0  0  0  0
   25.7884  -20.9791   -8.2152 C   0  0  0  0  0  0  0  0  0  0  0  0
   25.5801  -21.1852   -6.9216 N   0  0  0  0  0  0  0  0  0  0  0  0
   26.5549  -20.6208   -6.1901 C   0  0  0  0  0  0  0  0  0  0  0  0
   26.7307  -20.5852   -4.8317 C   0  0  0  0  0  0  0  0  0  0  0  0
   27.8345  -19.9191   -4.3356 C   0  0  0  0  0  0  0  0  0  0  0  0
   28.7004  -19.3258   -5.2272 C   0  0  0  0  0  0  0  0  0  0  0  0
   28.5087  -19.3702   -6.6093 C   0  0  0  0  0  0  0  0  0  0  0  0
   27.4113  -20.0343   -7.0896 C   0  0  0  0  0  0  0  0  0  0  0  0
   25.3788  -20.1975  -10.8753 C   0  0  0  0  0  0  0  0  0  0  0  0
   25.1197  -18.9445  -10.8943 O   0  0  0  0  0  0  0  0  0  0  0  0
   22.6676  -19.4079  -13.8983 C   0  0  0  0  0  0  0  0  0  0  0  0
   22.9328  -20.8911  -13.6039 C   0  0  2  0  0  0  0  0  0  0  0  0
   22.4521  -21.7172  -14.7515 C   0  0  0  0  0  0  0  0  0  0  0  0
   22.3064  -21.2312  -12.2912 C   0  0  0  0  0  0  0  0  0  0  0  0
   22.9007  -20.5431  -11.0975 C   0  0  2  0  0  0  0  0  0  0  0  0
   24.2654  -21.0692  -10.9548 N   0  0  0  0  0  0  0  0  0  0  0  0
   22.1261  -20.5856   -9.8686 C   0  0  0  0  0  0  0  0  0  0  0  0
   20.9824  -19.7923   -9.7879 O   0  0  0  0  0  0  0  0  0  0  0  0
   22.3826  -21.2710   -8.8552 O   0  0  0  0  0  0  0  0  0  0  0  0
  2  1  1  6
  2  3  1  0
  3  4  1  0
  4  8  1  0
  5  4  2  0
  6  7  2  0
  6  2  1  0
  9  6  1  0
 10  9  1  0
 10 11  1  1
 11 12  1  0
 12 13  2  0
 12 20  1  0
 13 14  1  0
 14 15  1  0
 15 16  2  0
 16 17  1  0
 18 17  2  0
 19 18  1  0
 20 19  2  0
 20 15  1  0
 21 10  1  0
 22 21  2  0
 24 23  1  6
 24 26  1  0
 25 24  1  0
 27 26  1  6
 27 28  1  0
 28 21  1  0
 29 30  1  0
 29 27  1  0
 31 29  2  0
M  END
$$$$
