DWL.pdb
     RDKit          3D

 31 32  0  0  1  0  0  0  0  0999 V2000
   26.9917  -23.0030  -15.5812 N   0  0  0  0  0  0  0  0  0  0  0  0
   26.9685  -21.6736  -15.0543 C   0  0  1  0  0  0  0  0  0  0  0  0
   25.9980  -20.7804  -15.8455 C   0  0  0  0  0  0  0  0  0  0  0  0
   26.5477  -20.4065  -17.1669 C   0  0  0  0  0  0  0  0  0  0  0  0
   27.7717  -20.2048  -17.3431 O   0  0  0  0  0  0  0  0  0  0  0  0
   26.4467  -21.7141  -13.6632 C   0  0  0  0  0  0  0  0  0  0  0  0
   25.3125  -22.2624  -13.4823 O   0  0  0  0  0  0  0  0  0  0  0  0
   25.7035  -20.2646  -18.2809 O   0  0  0  0  0  0  0  0  0  0  0  0
   27.1633  -21.1700  -12.5655 N   0  0  0  0  0  0  0  0  0  0  0  0
   26.5814  -21.0889  -11.2539 C   0  0  1  0  0  0  0  0  0  0  0  0
   27.5477  -20.5847  -10.1958 C   0  0  0  0  0  0  0  0  0  0  0  0
   26.8691  -20.5319   -8.8820 C   0  0  0  0  0  0  0  0  0  0  0  0
   25.5801  -21.0140   -8.6756 C   0  0  0  0  0  0  0  0  0  0  0  0
   25.2767  -20.8464   -7.3953 N   0  0  0  0  0  0  0  0  0  0  0  0
   26.2994  -20.2755   -6.7379 C   0  0  0  0  0  0  0  0  0  0  0  0
   26.4130  -19.9217   -5.4191 C   0  0  0  0  0  0  0  0  0  0  0  0
   27.5918  -19.3346   -5.0021 C   0  0  0  0  0  0  0  0  0  0  0  0
   28.5908  -19.1344   -5.9288 C   0  0  0  0  0  0  0  0  0  0  0  0
   28.4611  -19.5001   -7.2698 C   0  0  0  0  0  0  0  0  0  0  0  0
   27.2882  -20.0823   -7.6715 C   0  0  0  0  0  0  0  0  0  0  0  0
   25.3424  -20.3075  -11.2938 C   0  0  0  0  0  0  0  0  0  0  0  0
   25.3912  -19.1558  -11.8496 O   0  0  0  0  0  0  0  0  0  0  0  0
   21.5845  -20.3878  -14.8550 C   0  0  0  0  0  0  0  0  0  0  0  0
   21.6811  -19.6968  -13.4875 C   0  0  2  0  0  0  0  0  0  0  0  0
   21.6961  -18.2159  -13.6812 C   0  0  0  0  0  0  0  0  0  0  0  0
   22.8722  -20.2391  -12.7676 C   0  0  0  0  0  0  0  0  0  0  0  0
   22.8392  -20.1000  -11.2739 C   0  0  2  0  0  0  0  0  0  0  0  0
   24.0844  -20.7007  -10.7757 N   0  0  0  0  0  0  0  0  0  0  0  0
   21.6458  -20.5849  -10.6009 C   0  0  0  0  0  0  0  0  0  0  0  0
   20.7736  -19.6437  -10.0558 O   0  0  0  0  0  0  0  0  0  0  0  0
   21.3126  -21.7808  -10.4549 O   0  0  0  0  0  0  0  0  0  0  0  0
  2  1  1  6
  2  3  1  0
  3  4  1  0
  4  8  1  0
  5  4  2  0
  6  7  2  0
  6  2  1  0
  9  6  1  0
 10  9  1  0
 10 11  1  1
 11 12  1  0
 12 13  2  0
 12 20  1  0
 13 14  1  0
 14 15  1  0
 15 16  2  0
 16 17  1  0
 18 17  2  0
 19 18  1  0
 20 19  2  0
 20 15  1  0
 21 10  1  0
 22 21  2  0
 24 23  1  6
 24 26  1  0
 25 24  1  0
 27 26  1  6
 27 28  1  0
 28 21  1  0
 29 30  1  0
 29 27  1  0
 31 29  2  0
M  END
$$$$
