DWL.pdb
     RDKit          3D

 31 32  0  0  1  0  0  0  0  0999 V2000
   28.5780  -21.3103  -17.3875 N   0  0  0  0  0  0  0  0  0  0  0  0
   28.0951  -20.1360  -16.7293 C   0  0  1  0  0  0  0  0  0  0  0  0
   27.0770  -19.3876  -17.6063 C   0  0  0  0  0  0  0  0  0  0  0  0
   27.6696  -18.1862  -18.2337 C   0  0  0  0  0  0  0  0  0  0  0  0
   27.9927  -17.1786  -17.5627 O   0  0  0  0  0  0  0  0  0  0  0  0
   27.3609  -20.5377  -15.5011 C   0  0  0  0  0  0  0  0  0  0  0  0
   26.4439  -21.4106  -15.6300 O   0  0  0  0  0  0  0  0  0  0  0  0
   27.8922  -18.1368  -19.6200 O   0  0  0  0  0  0  0  0  0  0  0  0
   27.6505  -19.9848  -14.2262 N   0  0  0  0  0  0  0  0  0  0  0  0
   26.9259  -20.3847  -13.0513 C   0  0  1  0  0  0  0  0  0  0  0  0
   27.6143  -19.9915  -11.7555 C   0  0  0  0  0  0  0  0  0  0  0  0
   26.8581  -20.5295  -10.6032 C   0  0  0  0  0  0  0  0  0  0  0  0
   26.0436  -21.6545  -10.6906 C   0  0  0  0  0  0  0  0  0  0  0  0
   25.5352  -21.8906   -9.4885 N   0  0  0  0  0  0  0  0  0  0  0  0
   25.9697  -20.9781   -8.6039 C   0  0  0  0  0  0  0  0  0  0  0  0
   25.6943  -20.8427   -7.2686 C   0  0  0  0  0  0  0  0  0  0  0  0
   26.2789  -19.7931   -6.5868 C   0  0  0  0  0  0  0  0  0  0  0  0
   27.1064  -18.9379   -7.2800 C   0  0  0  0  0  0  0  0  0  0  0  0
   27.3782  -19.0882   -8.6410 C   0  0  0  0  0  0  0  0  0  0  0  0
   26.7936  -20.1329   -9.3064 C   0  0  0  0  0  0  0  0  0  0  0  0
   25.5439  -19.9016  -13.1162 C   0  0  0  0  0  0  0  0  0  0  0  0
   25.3664  -18.6371  -13.1997 O   0  0  0  0  0  0  0  0  0  0  0  0
   22.8146  -18.6462  -15.7779 C   0  0  0  0  0  0  0  0  0  0  0  0
   22.9741  -20.1658  -15.6284 C   0  0  2  0  0  0  0  0  0  0  0  0
   22.4112  -20.8436  -16.8344 C   0  0  0  0  0  0  0  0  0  0  0  0
   22.3495  -20.5813  -14.3368 C   0  0  0  0  0  0  0  0  0  0  0  0
   23.0388  -20.0846  -13.1000 C   0  0  2  0  0  0  0  0  0  0  0  0
   24.3737  -20.6990  -13.0964 N   0  0  0  0  0  0  0  0  0  0  0  0
   22.3199  -20.2404  -11.8466 C   0  0  0  0  0  0  0  0  0  0  0  0
   21.2510  -19.3817  -11.5939 O   0  0  0  0  0  0  0  0  0  0  0  0
   22.5643  -21.0790  -10.9523 O   0  0  0  0  0  0  0  0  0  0  0  0
  2  1  1  6
  2  3  1  0
  3  4  1  0
  4  8  1  0
  5  4  2  0
  6  7  2  0
  6  2  1  0
  9  6  1  0
 10  9  1  0
 10 11  1  1
 11 12  1  0
 12 13  2  0
 12 20  1  0
 13 14  1  0
 14 15  1  0
 15 16  2  0
 16 17  1  0
 18 17  2  0
 19 18  1  0
 20 19  2  0
 20 15  1  0
 21 10  1  0
 22 21  2  0
 24 23  1  6
 24 26  1  0
 25 24  1  0
 27 26  1  6
 27 28  1  0
 28 21  1  0
 29 30  1  0
 29 27  1  0
 31 29  2  0
M  END
$$$$
