DWL.pdb
     RDKit          3D

 31 32  0  0  1  0  0  0  0  0999 V2000
   28.5124  -20.8263  -16.8222 N   0  0  0  0  0  0  0  0  0  0  0  0
   27.1940  -20.2731  -16.7898 C   0  0  1  0  0  0  0  0  0  0  0  0
   26.3331  -20.8240  -17.9391 C   0  0  0  0  0  0  0  0  0  0  0  0
   26.9523  -20.5740  -19.2590 C   0  0  0  0  0  0  0  0  0  0  0  0
   28.0429  -19.9682  -19.3759 O   0  0  0  0  0  0  0  0  0  0  0  0
   26.5220  -20.6982  -15.5342 C   0  0  0  0  0  0  0  0  0  0  0  0
   25.3635  -21.2142  -15.6395 O   0  0  0  0  0  0  0  0  0  0  0  0
   26.3292  -21.0144  -20.4387 O   0  0  0  0  0  0  0  0  0  0  0  0
   27.1253  -20.5448  -14.2586 N   0  0  0  0  0  0  0  0  0  0  0  0
   26.4303  -20.8971  -13.0511 C   0  0  1  0  0  0  0  0  0  0  0  0
   27.3249  -20.9140  -11.8235 C   0  0  0  0  0  0  0  0  0  0  0  0
   26.4960  -20.9959  -10.6006 C   0  0  0  0  0  0  0  0  0  0  0  0
   25.4716  -21.9241  -10.4409 C   0  0  0  0  0  0  0  0  0  0  0  0
   24.9467  -21.7563   -9.2344 N   0  0  0  0  0  0  0  0  0  0  0  0
   25.5701  -20.7615   -8.5819 C   0  0  0  0  0  0  0  0  0  0  0  0
   25.3501  -20.2547   -7.3281 C   0  0  0  0  0  0  0  0  0  0  0  0
   26.1445  -19.2087   -6.9004 C   0  0  0  0  0  0  0  0  0  0  0  0
   27.1144  -18.7284   -7.7520 C   0  0  0  0  0  0  0  0  0  0  0  0
   27.3274  -19.2547   -9.0273 C   0  0  0  0  0  0  0  0  0  0  0  0
   26.5343  -20.2923   -9.4402 C   0  0  0  0  0  0  0  0  0  0  0  0
   25.2550  -20.0404  -12.8715 C   0  0  0  0  0  0  0  0  0  0  0  0
   25.3738  -18.8058  -13.1863 O   0  0  0  0  0  0  0  0  0  0  0  0
   20.3804  -19.6950  -14.3329 C   0  0  0  0  0  0  0  0  0  0  0  0
   21.6526  -19.3005  -15.0963 C   0  0  2  0  0  0  0  0  0  0  0  0
   21.5296  -19.7334  -16.5204 C   0  0  0  0  0  0  0  0  0  0  0  0
   22.8310  -19.8694  -14.3760 C   0  0  0  0  0  0  0  0  0  0  0  0
   22.7524  -19.8242  -12.8782 C   0  0  2  0  0  0  0  0  0  0  0  0
   23.9890  -20.4434  -12.3811 N   0  0  0  0  0  0  0  0  0  0  0  0
   21.5452  -20.3611  -12.2729 C   0  0  0  0  0  0  0  0  0  0  0  0
   21.2801  -21.7201  -12.4354 O   0  0  0  0  0  0  0  0  0  0  0  0
   20.7016  -19.7201  -11.6095 O   0  0  0  0  0  0  0  0  0  0  0  0
  2  1  1  1
  2  3  1  0
  3  4  1  0
  4  8  1  0
  5  4  2  0
  6  7  2  0
  6  2  1  0
  9  6  1  0
 10  9  1  0
 10 11  1  1
 11 12  1  0
 12 13  2  0
 12 20  1  0
 13 14  1  0
 14 15  1  0
 15 16  2  0
 16 17  1  0
 18 17  2  0
 19 18  1  0
 20 19  2  0
 20 15  1  0
 21 10  1  0
 22 21  2  0
 24 23  1  1
 24 26  1  0
 25 24  1  0
 27 26  1  6
 27 28  1  0
 28 21  1  0
 29 30  1  0
 29 27  1  0
 31 29  2  0
M  END
$$$$
