DWL.pdb
     RDKit          3D

 31 32  0  0  1  0  0  0  0  0999 V2000
   25.6738  -30.5859   11.2095 N   0  0  0  0  0  0  0  0  0  0  0  0
   25.8399  -29.6404   10.1494 C   0  0  1  0  0  0  0  0  0  0  0  0
   25.2839  -28.2616   10.5439 C   0  0  0  0  0  0  0  0  0  0  0  0
   25.4354  -28.0013   11.9921 C   0  0  0  0  0  0  0  0  0  0  0  0
   26.5493  -28.0578   12.5632 O   0  0  0  0  0  0  0  0  0  0  0  0
   27.2918  -29.4414    9.9023 C   0  0  0  0  0  0  0  0  0  0  0  0
   28.1010  -30.1466   10.5860 O   0  0  0  0  0  0  0  0  0  0  0  0
   24.3205  -27.6774   12.7832 O   0  0  0  0  0  0  0  0  0  0  0  0
   27.7810  -28.5093    8.9501 N   0  0  0  0  0  0  0  0  0  0  0  0
   29.1798  -28.4245    8.6311 C   0  0  1  0  0  0  0  0  0  0  0  0
   29.4466  -28.0945    7.1726 C   0  0  0  0  0  0  0  0  0  0  0  0
   29.1696  -29.2801    6.3319 C   0  0  0  0  0  0  0  0  0  0  0  0
   29.9312  -30.4433    6.3886 C   0  0  0  0  0  0  0  0  0  0  0  0
   29.4111  -31.3193    5.5393 N   0  0  0  0  0  0  0  0  0  0  0  0
   28.3406  -30.7973    4.9183 C   0  0  0  0  0  0  0  0  0  0  0  0
   27.5154  -31.3454    3.9717 C   0  0  0  0  0  0  0  0  0  0  0  0
   26.4764  -30.5737    3.4889 C   0  0  0  0  0  0  0  0  0  0  0  0
   26.3218  -29.2966    3.9806 C   0  0  0  0  0  0  0  0  0  0  0  0
   27.1705  -28.7511    4.9455 C   0  0  0  0  0  0  0  0  0  0  0  0
   28.1966  -29.5258    5.4175 C   0  0  0  0  0  0  0  0  0  0  0  0
   29.8551  -27.4982    9.5440 C   0  0  0  0  0  0  0  0  0  0  0  0
   29.2976  -26.3649    9.7502 O   0  0  0  0  0  0  0  0  0  0  0  0
   30.4595  -27.4995   13.8028 C   0  0  0  0  0  0  0  0  0  0  0  0
   31.4661  -28.3638   13.0305 C   0  0  2  0  0  0  0  0  0  0  0  0
   32.2019  -29.2422   13.9885 C   0  0  0  0  0  0  0  0  0  0  0  0
   32.3397  -27.4620   12.2213 C   0  0  0  0  0  0  0  0  0  0  0  0
   31.6472  -26.7145   11.1199 C   0  0  2  0  0  0  0  0  0  0  0  0
   31.0729  -27.7316   10.2282 N   0  0  0  0  0  0  0  0  0  0  0  0
   32.4289  -25.7038   10.4272 C   0  0  0  0  0  0  0  0  0  0  0  0
   32.6425  -25.8654    9.0591 O   0  0  0  0  0  0  0  0  0  0  0  0
   32.9414  -24.6849   10.9390 O   0  0  0  0  0  0  0  0  0  0  0  0
  2  1  1  1
  2  3  1  0
  3  4  1  0
  4  8  1  0
  5  4  2  0
  6  7  2  0
  6  2  1  0
  9  6  1  0
 10  9  1  0
 10 11  1  6
 11 12  1  0
 12 13  2  0
 12 20  1  0
 13 14  1  0
 14 15  1  0
 15 16  2  0
 16 17  1  0
 18 17  2  0
 19 18  1  0
 20 19  2  0
 20 15  1  0
 21 10  1  0
 22 21  2  0
 24 23  1  1
 24 26  1  0
 25 24  1  0
 27 26  1  1
 27 28  1  0
 28 21  1  0
 29 30  1  0
 29 27  1  0
 31 29  2  0
M  END
$$$$
