TDF.pdb
     RDKit          3D

 27 27  0  0  1  0  0  0  0  0999 V2000
   16.4579   -9.4733  -18.7229 C   0  0  0  0  0  0  0  0  0  0  0  0
   16.1596  -10.8749  -19.1482 C   0  0  1  0  0  0  0  0  0  0  0  0
   15.0401  -10.9065  -19.9701 O   0  0  0  0  0  0  0  0  0  0  0  0
   17.3542  -11.5436  -19.8113 C   0  0  2  0  0  0  0  0  0  0  0  0
   17.0446  -12.9154  -20.1608 N   0  0  0  0  0  0  0  0  0  0  0  0
   18.5587  -11.4463  -18.9650 C   0  0  0  0  0  0  0  0  0  0  0  0
   19.0008  -12.4818  -18.4076 O   0  0  0  0  0  0  0  0  0  0  0  0
   19.2707  -10.2442  -18.7284 N   0  0  0  0  0  0  0  0  0  0  0  0
   20.5199  -10.1567  -17.9897 C   0  0  1  0  0  0  0  0  0  0  0  0
   21.6192  -10.9007  -18.7191 C   0  0  0  0  0  0  0  0  0  0  0  0
   22.8753  -10.9181  -17.9382 C   0  0  0  0  0  0  0  0  0  0  0  0
   24.0124  -10.8479  -18.5159 O   0  0  0  0  0  0  0  0  0  0  0  0
   20.9541   -8.7779  -17.7656 C   0  0  0  0  0  0  0  0  0  0  0  0
   21.1031   -8.0033  -18.7310 O   0  0  0  0  0  0  0  0  0  0  0  0
   22.8100  -11.0118  -16.5685 O   0  0  0  0  0  0  0  0  0  0  0  0
   21.1978   -8.3523  -16.4331 N   0  0  0  0  0  0  0  0  0  0  0  0
   21.5887   -6.9897  -16.1231 C   0  0  1  0  0  0  0  0  0  0  0  0
   20.5343   -6.3686  -15.2535 C   0  0  0  0  0  0  0  0  0  0  0  0
   20.7784   -4.9382  -14.9843 C   0  0  0  0  0  0  0  0  0  0  0  0
   20.4909   -3.9568  -15.9058 C   0  0  0  0  0  0  0  0  0  0  0  0
   20.7138   -2.6190  -15.6688 C   0  0  0  0  0  0  0  0  0  0  0  0
   21.2536   -2.2726  -14.4356 C   0  0  0  0  0  0  0  0  0  0  0  0
   21.5405   -3.2387  -13.5198 C   0  0  0  0  0  0  0  0  0  0  0  0
   21.3100   -4.5622  -13.7783 C   0  0  0  0  0  0  0  0  0  0  0  0
   22.8982   -6.9229  -15.4548 C   0  0  0  0  0  0  0  0  0  0  0  0
   23.5686   -5.8618  -15.4438 O   0  0  0  0  0  0  0  0  0  0  0  0
   23.4334   -8.0290  -14.8152 O   0  0  0  0  0  0  0  0  0  0  0  0
  2  1  1  6
  2  3  1  0
  4  2  1  0
  4  5  1  1
  6  7  2  0
  6  4  1  0
  8  6  1  0
  9 10  1  6
  9  8  1  0
 11 15  1  0
 11 10  1  0
 12 11  2  0
 13  9  1  0
 14 13  2  0
 16 13  1  0
 17 16  1  0
 18 19  1  0
 17 18  1  1
 19 20  2  0
 20 21  1  0
 22 21  2  0
 23 22  1  0
 24 19  1  0
 24 23  2  0
 25 27  1  0
 25 17  1  0
 26 25  2  0
M  END
$$$$
