TDF.pdb
     RDKit          3D

 27 27  0  0  1  0  0  0  0  0999 V2000
   18.7594   -8.7458  -20.9893 C   0  0  0  0  0  0  0  0  0  0  0  0
   19.6980   -8.2493  -22.0414 C   0  0  1  0  0  0  0  0  0  0  0  0
   19.1114   -8.3364  -23.2976 O   0  0  0  0  0  0  0  0  0  0  0  0
   20.1915   -6.8391  -21.7556 C   0  0  2  0  0  0  0  0  0  0  0  0
   21.0155   -6.3542  -22.8446 N   0  0  0  0  0  0  0  0  0  0  0  0
   20.8915   -6.7705  -20.4588 C   0  0  0  0  0  0  0  0  0  0  0  0
   21.8501   -7.5519  -20.2381 O   0  0  0  0  0  0  0  0  0  0  0  0
   20.5555   -5.8679  -19.4193 N   0  0  0  0  0  0  0  0  0  0  0  0
   21.1802   -5.8516  -18.1065 C   0  0  1  0  0  0  0  0  0  0  0  0
   20.8783   -4.5501  -17.3930 C   0  0  0  0  0  0  0  0  0  0  0  0
   21.4844   -4.5158  -16.0441 C   0  0  0  0  0  0  0  0  0  0  0  0
   20.7693   -4.6602  -14.9956 O   0  0  0  0  0  0  0  0  0  0  0  0
   20.7521   -6.9633  -17.2578 C   0  0  0  0  0  0  0  0  0  0  0  0
   19.5423   -7.2492  -17.1627 O   0  0  0  0  0  0  0  0  0  0  0  0
   22.8402   -4.3247  -15.9249 O   0  0  0  0  0  0  0  0  0  0  0  0
   21.7419   -7.6988  -16.5540 N   0  0  0  0  0  0  0  0  0  0  0  0
   21.3962   -8.7880  -15.6597 C   0  0  1  0  0  0  0  0  0  0  0  0
   22.0171  -10.0541  -16.1746 C   0  0  0  0  0  0  0  0  0  0  0  0
   23.4924  -10.0234  -16.1515 C   0  0  0  0  0  0  0  0  0  0  0  0
   24.2308   -9.4060  -17.1357 C   0  0  0  0  0  0  0  0  0  0  0  0
   25.6070   -9.3700  -17.1275 C   0  0  0  0  0  0  0  0  0  0  0  0
   26.2535   -9.9923  -16.0660 C   0  0  0  0  0  0  0  0  0  0  0  0
   25.5289  -10.6050  -15.0894 C   0  0  0  0  0  0  0  0  0  0  0  0
   24.1613  -10.6277  -15.1192 C   0  0  0  0  0  0  0  0  0  0  0  0
   21.8348   -8.5362  -14.2776 C   0  0  0  0  0  0  0  0  0  0  0  0
   21.4213   -9.2425  -13.3259 O   0  0  0  0  0  0  0  0  0  0  0  0
   22.7192   -7.5118  -13.9821 O   0  0  0  0  0  0  0  0  0  0  0  0
  2  1  1  1
  2  3  1  0
  4  2  1  0
  4  5  1  6
  6  7  2  0
  6  4  1  0
  8  6  1  0
  9 10  1  1
  9  8  1  0
 11 15  1  0
 11 10  1  0
 12 11  2  0
 13  9  1  0
 14 13  2  0
 16 13  1  0
 17 16  1  0
 18 19  1  0
 17 18  1  6
 19 20  2  0
 20 21  1  0
 22 21  2  0
 23 22  1  0
 24 19  1  0
 24 23  2  0
 25 27  1  0
 25 17  1  0
 26 25  2  0
M  END
$$$$
