TDF.pdb
     RDKit          3D

 27 27  0  0  1  0  0  0  0  0999 V2000
   17.9992  -20.2132  -11.6697 C   0  0  0  0  0  0  0  0  0  0  0  0
   19.4248  -20.6499  -11.7772 C   0  0  1  0  0  0  0  0  0  0  0  0
   19.8704  -21.1605  -10.5646 O   0  0  0  0  0  0  0  0  0  0  0  0
   19.6408  -21.6416  -12.9102 C   0  0  2  0  0  0  0  0  0  0  0  0
   18.8916  -22.8594  -12.6748 N   0  0  0  0  0  0  0  0  0  0  0  0
   21.0766  -21.9071  -13.1214 C   0  0  0  0  0  0  0  0  0  0  0  0
   21.5270  -23.0571  -12.8919 O   0  0  0  0  0  0  0  0  0  0  0  0
   22.0071  -20.9391  -13.5745 N   0  0  0  0  0  0  0  0  0  0  0  0
   23.4258  -21.1877  -13.7730 C   0  0  1  0  0  0  0  0  0  0  0  0
   23.8815  -20.6211  -15.1016 C   0  0  0  0  0  0  0  0  0  0  0  0
   25.3225  -20.8635  -15.3310 C   0  0  0  0  0  0  0  0  0  0  0  0
   25.8737  -21.9571  -14.9677 O   0  0  0  0  0  0  0  0  0  0  0  0
   24.2575  -20.6224  -12.7107 C   0  0  0  0  0  0  0  0  0  0  0  0
   23.9638  -19.5220  -12.2037 O   0  0  0  0  0  0  0  0  0  0  0  0
   26.0747  -19.8911  -15.9458 O   0  0  0  0  0  0  0  0  0  0  0  0
   25.3950  -21.3541  -12.2788 N   0  0  0  0  0  0  0  0  0  0  0  0
   26.3621  -20.7923  -11.3543 C   0  0  1  0  0  0  0  0  0  0  0  0
   26.1485  -21.4018   -9.9991 C   0  0  0  0  0  0  0  0  0  0  0  0
   26.9996  -20.7985   -8.9552 C   0  0  0  0  0  0  0  0  0  0  0  0
   26.6089  -19.6913   -8.2366 C   0  0  0  0  0  0  0  0  0  0  0  0
   27.3924  -19.1176   -7.2607 C   0  0  0  0  0  0  0  0  0  0  0  0
   28.6279  -19.7033   -7.0105 C   0  0  0  0  0  0  0  0  0  0  0  0
   29.0204  -20.7985   -7.7181 C   0  0  0  0  0  0  0  0  0  0  0  0
   28.2240  -21.3511   -8.6837 C   0  0  0  0  0  0  0  0  0  0  0  0
   27.7489  -21.0133  -11.7945 C   0  0  0  0  0  0  0  0  0  0  0  0
   28.0757  -22.0546  -12.4145 O   0  0  0  0  0  0  0  0  0  0  0  0
   28.7391  -20.0786  -11.5396 O   0  0  0  0  0  0  0  0  0  0  0  0
  2  1  1  1
  2  3  1  0
  4  2  1  0
  4  5  1  1
  6  7  2  0
  6  4  1  0
  8  6  1  0
  9 10  1  6
  9  8  1  0
 11 15  1  0
 11 10  1  0
 12 11  2  0
 13  9  1  0
 14 13  2  0
 16 13  1  0
 17 16  1  0
 18 19  1  0
 17 18  1  1
 19 20  2  0
 20 21  1  0
 22 21  2  0
 23 22  1  0
 24 19  1  0
 24 23  2  0
 25 27  1  0
 25 17  1  0
 26 25  2  0
M  END
$$$$
