TDF.pdb
     RDKit          3D

 27 27  0  0  1  0  0  0  0  0999 V2000
   23.6999  -12.9762  -15.1232 C   0  0  0  0  0  0  0  0  0  0  0  0
   23.4848  -13.7209  -16.4013 C   0  0  1  0  0  0  0  0  0  0  0  0
   23.6792  -15.0830  -16.2098 O   0  0  0  0  0  0  0  0  0  0  0  0
   22.1218  -13.4353  -17.0134 C   0  0  2  0  0  0  0  0  0  0  0  0
   21.8969  -14.2711  -18.1756 N   0  0  0  0  0  0  0  0  0  0  0  0
   21.9655  -12.0015  -17.3241 C   0  0  0  0  0  0  0  0  0  0  0  0
   22.5787  -11.5176  -18.3080 O   0  0  0  0  0  0  0  0  0  0  0  0
   21.1565  -11.1088  -16.5780 N   0  0  0  0  0  0  0  0  0  0  0  0
   21.0118   -9.6907  -16.8644 C   0  0  1  0  0  0  0  0  0  0  0  0
   19.6520   -9.1964  -16.4165 C   0  0  0  0  0  0  0  0  0  0  0  0
   18.5595  -10.0007  -17.0058 C   0  0  0  0  0  0  0  0  0  0  0  0
   17.8458  -10.7747  -16.2823 O   0  0  0  0  0  0  0  0  0  0  0  0
   22.0430   -8.8724  -16.2266 C   0  0  0  0  0  0  0  0  0  0  0  0
   22.1195   -8.8180  -14.9834 O   0  0  0  0  0  0  0  0  0  0  0  0
   18.3141   -9.9088  -18.3550 O   0  0  0  0  0  0  0  0  0  0  0  0
   22.9435   -8.1509  -17.0539 N   0  0  0  0  0  0  0  0  0  0  0  0
   24.0353   -7.3711  -16.5010 C   0  0  1  0  0  0  0  0  0  0  0  0
   25.3050   -7.7435  -17.2103 C   0  0  0  0  0  0  0  0  0  0  0  0
   25.6669   -9.1636  -17.0365 C   0  0  0  0  0  0  0  0  0  0  0  0
   25.4429  -10.1049  -18.0157 C   0  0  0  0  0  0  0  0  0  0  0  0
   25.7746  -11.4329  -17.8673 C   0  0  0  0  0  0  0  0  0  0  0  0
   26.3609  -11.8118  -16.6654 C   0  0  0  0  0  0  0  0  0  0  0  0
   26.5850  -10.8856  -15.6926 C   0  0  0  0  0  0  0  0  0  0  0  0
   26.2464   -9.5711  -15.8633 C   0  0  0  0  0  0  0  0  0  0  0  0
   23.8000   -5.9228  -16.6137 C   0  0  0  0  0  0  0  0  0  0  0  0
   24.5807   -5.0946  -16.0844 O   0  0  0  0  0  0  0  0  0  0  0  0
   22.7094   -5.4261  -17.3085 O   0  0  0  0  0  0  0  0  0  0  0  0
  2  1  1  1
  2  3  1  0
  4  2  1  0
  4  5  1  6
  6  7  2  0
  6  4  1  0
  8  6  1  0
  9 10  1  1
  9  8  1  0
 11 15  1  0
 11 10  1  0
 12 11  2  0
 13  9  1  0
 14 13  2  0
 16 13  1  0
 17 16  1  0
 18 19  1  0
 17 18  1  6
 19 20  2  0
 20 21  1  0
 22 21  2  0
 23 22  1  0
 24 19  1  0
 24 23  2  0
 25 27  1  0
 25 17  1  0
 26 25  2  0
M  END
$$$$
