TDF.pdb
     RDKit          3D

 27 27  0  0  1  0  0  0  0  0999 V2000
   28.8820  -18.8961  -15.4735 C   0  0  0  0  0  0  0  0  0  0  0  0
   27.9663  -17.8048  -15.9263 C   0  0  1  0  0  0  0  0  0  0  0  0
   28.6360  -16.9247  -16.7670 O   0  0  0  0  0  0  0  0  0  0  0  0
   26.7037  -18.3450  -16.5803 C   0  0  2  0  0  0  0  0  0  0  0  0
   25.8719  -17.2605  -17.0618 N   0  0  0  0  0  0  0  0  0  0  0  0
   25.9702  -19.2415  -15.6665 C   0  0  0  0  0  0  0  0  0  0  0  0
   25.0171  -18.7804  -14.9904 O   0  0  0  0  0  0  0  0  0  0  0  0
   26.2675  -20.6158  -15.4906 N   0  0  0  0  0  0  0  0  0  0  0  0
   25.5649  -21.5017  -14.5765 C   0  0  1  0  0  0  0  0  0  0  0  0
   25.5814  -22.9229  -15.0996 C   0  0  0  0  0  0  0  0  0  0  0  0
   24.7496  -23.8189  -14.2669 C   0  0  0  0  0  0  0  0  0  0  0  0
   24.0228  -23.3567  -13.3237 O   0  0  0  0  0  0  0  0  0  0  0  0
   26.1283  -21.4909  -13.2266 C   0  0  0  0  0  0  0  0  0  0  0  0
   27.3515  -21.6620  -13.0569 O   0  0  0  0  0  0  0  0  0  0  0  0
   24.7644  -25.1701  -14.5181 O   0  0  0  0  0  0  0  0  0  0  0  0
   25.2526  -21.2824  -12.1286 N   0  0  0  0  0  0  0  0  0  0  0  0
   25.7347  -21.2434  -10.7604 C   0  0  1  0  0  0  0  0  0  0  0  0
   26.7294  -20.1268  -10.6284 C   0  0  0  0  0  0  0  0  0  0  0  0
   27.2978  -20.0189   -9.2707 C   0  0  0  0  0  0  0  0  0  0  0  0
   28.3349  -20.8162   -8.8420 C   0  0  0  0  0  0  0  0  0  0  0  0
   28.8746  -20.7272   -7.5786 C   0  0  0  0  0  0  0  0  0  0  0  0
   28.3289  -19.7812   -6.7187 C   0  0  0  0  0  0  0  0  0  0  0  0
   27.3028  -18.9896   -7.1366 C   0  0  0  0  0  0  0  0  0  0  0  0
   26.7828  -19.0966   -8.3976 C   0  0  0  0  0  0  0  0  0  0  0  0
   24.6437  -21.0654   -9.7890 C   0  0  0  0  0  0  0  0  0  0  0  0
   23.6102  -20.4171  -10.0842 O   0  0  0  0  0  0  0  0  0  0  0  0
   24.7214  -21.6082   -8.5169 O   0  0  0  0  0  0  0  0  0  0  0  0
  2  1  1  6
  2  3  1  0
  4  2  1  0
  4  5  1  1
  6  7  2  0
  6  4  1  0
  8  6  1  0
  9 10  1  6
  9  8  1  0
 11 15  1  0
 11 10  1  0
 12 11  2  0
 13  9  1  0
 14 13  2  0
 16 13  1  0
 17 16  1  0
 18 19  1  0
 17 18  1  6
 19 20  2  0
 20 21  1  0
 22 21  2  0
 23 22  1  0
 24 19  1  0
 24 23  2  0
 25 27  1  0
 25 17  1  0
 26 25  2  0
M  END
$$$$
