TDF.pdb
     RDKit          3D

 27 27  0  0  1  0  0  0  0  0999 V2000
   38.6051  -39.2567   -6.2091 C   0  0  0  0  0  0  0  0  0  0  0  0
   38.9727  -39.2566   -7.6580 C   0  0  1  0  0  0  0  0  0  0  0  0
   40.1698  -39.9328   -7.8566 O   0  0  0  0  0  0  0  0  0  0  0  0
   37.8647  -39.8202   -8.5346 C   0  0  2  0  0  0  0  0  0  0  0  0
   38.2749  -39.8483   -9.9241 N   0  0  0  0  0  0  0  0  0  0  0  0
   36.6036  -39.0785   -8.3446 C   0  0  0  0  0  0  0  0  0  0  0  0
   35.9603  -38.6956   -9.3535 O   0  0  0  0  0  0  0  0  0  0  0  0
   36.0509  -38.7582   -7.0797 N   0  0  0  0  0  0  0  0  0  0  0  0
   34.7665  -38.1064   -6.8814 C   0  0  1  0  0  0  0  0  0  0  0  0
   33.6485  -38.9572   -7.4471 C   0  0  0  0  0  0  0  0  0  0  0  0
   32.8553  -38.2157   -8.4516 C   0  0  0  0  0  0  0  0  0  0  0  0
   31.8836  -38.7720   -9.0665 O   0  0  0  0  0  0  0  0  0  0  0  0
   34.4798  -37.8283   -5.4742 C   0  0  0  0  0  0  0  0  0  0  0  0
   34.5638  -38.7382   -4.6260 O   0  0  0  0  0  0  0  0  0  0  0  0
   33.1751  -36.9068   -8.7227 O   0  0  0  0  0  0  0  0  0  0  0  0
   34.1077  -36.5084   -5.1064 N   0  0  0  0  0  0  0  0  0  0  0  0
   33.8051  -36.1519   -3.7327 C   0  0  1  0  0  0  0  0  0  0  0  0
   33.6753  -34.6594   -3.6363 C   0  0  0  0  0  0  0  0  0  0  0  0
   32.7367  -34.0974   -4.6269 C   0  0  0  0  0  0  0  0  0  0  0  0
   33.1354  -33.7302   -5.8923 C   0  0  0  0  0  0  0  0  0  0  0  0
   32.2714  -33.2042   -6.8262 C   0  0  0  0  0  0  0  0  0  0  0  0
   30.9431  -33.0484   -6.4475 C   0  0  0  0  0  0  0  0  0  0  0  0
   30.5423  -33.4093   -5.1972 C   0  0  0  0  0  0  0  0  0  0  0  0
   31.4198  -33.9301   -4.2859 C   0  0  0  0  0  0  0  0  0  0  0  0
   32.5757  -36.7982   -3.2461 C   0  0  0  0  0  0  0  0  0  0  0  0
   31.8819  -37.5246   -3.9988 O   0  0  0  0  0  0  0  0  0  0  0  0
   32.1445  -36.6266   -1.9409 O   0  0  0  0  0  0  0  0  0  0  0  0
  2  1  1  1
  2  3  1  0
  4  2  1  0
  4  5  1  6
  6  7  2  0
  6  4  1  0
  8  6  1  0
  9 10  1  1
  9  8  1  0
 11 15  1  0
 11 10  1  0
 12 11  2  0
 13  9  1  0
 14 13  2  0
 16 13  1  0
 17 16  1  0
 18 19  1  0
 17 18  1  6
 19 20  2  0
 20 21  1  0
 22 21  2  0
 23 22  1  0
 24 19  1  0
 24 23  2  0
 25 27  1  0
 25 17  1  0
 26 25  2  0
M  END
$$$$
