TDF.pdb
     RDKit          3D

 27 27  0  0  1  0  0  0  0  0999 V2000
   28.9120  -21.3218  -16.2163 C   0  0  0  0  0  0  0  0  0  0  0  0
   28.1622  -21.1391  -14.9361 C   0  0  1  0  0  0  0  0  0  0  0  0
   29.0226  -21.2364  -13.8498 O   0  0  0  0  0  0  0  0  0  0  0  0
   27.3774  -19.8364  -14.9077 C   0  0  2  0  0  0  0  0  0  0  0  0
   28.2471  -18.7084  -15.1750 N   0  0  0  0  0  0  0  0  0  0  0  0
   26.6449  -19.6814  -13.6365 C   0  0  0  0  0  0  0  0  0  0  0  0
   26.9309  -18.7218  -12.8778 O   0  0  0  0  0  0  0  0  0  0  0  0
   25.6189  -20.5546  -13.1972 N   0  0  0  0  0  0  0  0  0  0  0  0
   24.8875  -20.4066  -11.9494 C   0  0  1  0  0  0  0  0  0  0  0  0
   23.5651  -21.1415  -12.0208 C   0  0  0  0  0  0  0  0  0  0  0  0
   22.6090  -20.6408  -11.0093 C   0  0  0  0  0  0  0  0  0  0  0  0
   22.9185  -19.6786  -10.2282 O   0  0  0  0  0  0  0  0  0  0  0  0
   25.6343  -20.8942  -10.7899 C   0  0  0  0  0  0  0  0  0  0  0  0
   26.0356  -22.0740  -10.7541 O   0  0  0  0  0  0  0  0  0  0  0  0
   21.3689  -21.2257  -10.9140 O   0  0  0  0  0  0  0  0  0  0  0  0
   25.8861  -19.9960   -9.7195 N   0  0  0  0  0  0  0  0  0  0  0  0
   26.5838  -20.4126   -8.5173 C   0  0  1  0  0  0  0  0  0  0  0  0
   27.2687  -19.2197   -7.9159 C   0  0  0  0  0  0  0  0  0  0  0  0
   27.9605  -19.5299   -6.6498 C   0  0  0  0  0  0  0  0  0  0  0  0
   27.5485  -19.0154   -5.4412 C   0  0  0  0  0  0  0  0  0  0  0  0
   28.1844  -19.2955   -4.2527 C   0  0  0  0  0  0  0  0  0  0  0  0
   29.2884  -20.1385   -4.3048 C   0  0  0  0  0  0  0  0  0  0  0  0
   29.7012  -20.6505   -5.4972 C   0  0  0  0  0  0  0  0  0  0  0  0
   29.0528  -20.3575   -6.6658 C   0  0  0  0  0  0  0  0  0  0  0  0
   25.6798  -21.0262   -7.5313 C   0  0  0  0  0  0  0  0  0  0  0  0
   26.1280  -21.6316   -6.5273 O   0  0  0  0  0  0  0  0  0  0  0  0
   24.3042  -20.9548   -7.6788 O   0  0  0  0  0  0  0  0  0  0  0  0
  2  1  1  6
  2  3  1  0
  4  2  1  0
  4  5  1  1
  6  7  2  0
  6  4  1  0
  8  6  1  0
  9 10  1  6
  9  8  1  0
 11 15  1  0
 11 10  1  0
 12 11  2  0
 13  9  1  0
 14 13  2  0
 16 13  1  0
 17 16  1  0
 18 19  1  0
 17 18  1  1
 19 20  2  0
 20 21  1  0
 22 21  2  0
 23 22  1  0
 24 19  1  0
 24 23  2  0
 25 27  1  0
 25 17  1  0
 26 25  2  0
M  END
$$$$
