TDF.pdb
     RDKit          3D

 27 27  0  0  1  0  0  0  0  0999 V2000
   30.3544  -34.4592  -15.2669 C   0  0  0  0  0  0  0  0  0  0  0  0
   31.1895  -33.5842  -16.1452 C   0  0  1  0  0  0  0  0  0  0  0  0
   32.3283  -34.2601  -16.5645 O   0  0  0  0  0  0  0  0  0  0  0  0
   30.4042  -33.0339  -17.3259 C   0  0  2  0  0  0  0  0  0  0  0  0
   31.2039  -32.0867  -18.0764 N   0  0  0  0  0  0  0  0  0  0  0  0
   29.1210  -32.4513  -16.8893 C   0  0  0  0  0  0  0  0  0  0  0  0
   29.0465  -31.2130  -16.6910 O   0  0  0  0  0  0  0  0  0  0  0  0
   27.9388  -33.2017  -16.6718 N   0  0  0  0  0  0  0  0  0  0  0  0
   26.6921  -32.6497  -16.1669 C   0  0  1  0  0  0  0  0  0  0  0  0
   25.5958  -32.7840  -17.2032 C   0  0  0  0  0  0  0  0  0  0  0  0
   24.3389  -32.1482  -16.7513 C   0  0  0  0  0  0  0  0  0  0  0  0
   24.3437  -30.9967  -16.1985 O   0  0  0  0  0  0  0  0  0  0  0  0
   26.2477  -33.2863  -14.9271 C   0  0  0  0  0  0  0  0  0  0  0  0
   26.3930  -34.5141  -14.7663 O   0  0  0  0  0  0  0  0  0  0  0  0
   23.1501  -32.8137  -16.9324 O   0  0  0  0  0  0  0  0  0  0  0  0
   25.6536  -32.4756  -13.9242 N   0  0  0  0  0  0  0  0  0  0  0  0
   25.2672  -33.0136  -12.6331 C   0  0  1  0  0  0  0  0  0  0  0  0
   25.9167  -32.1972  -11.5535 C   0  0  0  0  0  0  0  0  0  0  0  0
   25.6159  -32.6929  -10.1964 C   0  0  0  0  0  0  0  0  0  0  0  0
   26.2904  -33.7532   -9.6343 C   0  0  0  0  0  0  0  0  0  0  0  0
   26.0202  -34.2267   -8.3701 C   0  0  0  0  0  0  0  0  0  0  0  0
   25.0171  -33.5864   -7.6517 C   0  0  0  0  0  0  0  0  0  0  0  0
   24.3460  -32.5373   -8.2021 C   0  0  0  0  0  0  0  0  0  0  0  0
   24.6324  -32.0845   -9.4610 C   0  0  0  0  0  0  0  0  0  0  0  0
   23.8073  -33.0260  -12.4477 C   0  0  0  0  0  0  0  0  0  0  0  0
   23.0588  -32.2894  -13.1352 O   0  0  0  0  0  0  0  0  0  0  0  0
   23.2114  -33.8519  -11.5087 O   0  0  0  0  0  0  0  0  0  0  0  0
  2  1  1  6
  2  3  1  0
  4  2  1  0
  4  5  1  1
  6  7  2  0
  6  4  1  0
  8  6  1  0
  9 10  1  6
  9  8  1  0
 11 15  1  0
 11 10  1  0
 12 11  2  0
 13  9  1  0
 14 13  2  0
 16 13  1  0
 17 16  1  0
 18 19  1  0
 17 18  1  1
 19 20  2  0
 20 21  1  0
 22 21  2  0
 23 22  1  0
 24 19  1  0
 24 23  2  0
 25 27  1  0
 25 17  1  0
 26 25  2  0
M  END
$$$$
