TDF.pdb
     RDKit          3D

 27 27  0  0  1  0  0  0  0  0999 V2000
   17.9805  -13.8126  -15.7895 C   0  0  0  0  0  0  0  0  0  0  0  0
   17.4607  -13.8685  -17.1899 C   0  0  1  0  0  0  0  0  0  0  0  0
   16.8377  -15.0867  -17.4298 O   0  0  0  0  0  0  0  0  0  0  0  0
   16.5398  -12.7011  -17.5107 C   0  0  2  0  0  0  0  0  0  0  0  0
   15.9821  -12.8392  -18.8411 N   0  0  0  0  0  0  0  0  0  0  0  0
   17.2312  -11.4102  -17.3316 C   0  0  0  0  0  0  0  0  0  0  0  0
   18.0443  -11.0241  -18.2080 O   0  0  0  0  0  0  0  0  0  0  0  0
   17.0420  -10.5533  -16.2189 N   0  0  0  0  0  0  0  0  0  0  0  0
   17.7857   -9.3257  -15.9870 C   0  0  1  0  0  0  0  0  0  0  0  0
   16.9921   -8.3851  -15.1040 C   0  0  0  0  0  0  0  0  0  0  0  0
   17.7241   -7.1238  -14.8563 C   0  0  0  0  0  0  0  0  0  0  0  0
   18.1934   -6.4326  -15.8226 O   0  0  0  0  0  0  0  0  0  0  0  0
   19.0920   -9.5584  -15.3714 C   0  0  0  0  0  0  0  0  0  0  0  0
   19.2161  -10.4080  -14.4673 O   0  0  0  0  0  0  0  0  0  0  0  0
   17.8985   -6.6949  -13.5622 O   0  0  0  0  0  0  0  0  0  0  0  0
   20.2012   -8.7985  -15.8276 N   0  0  0  0  0  0  0  0  0  0  0  0
   21.5245   -8.9524  -15.2523 C   0  0  1  0  0  0  0  0  0  0  0  0
   22.3787   -9.7385  -16.2041 C   0  0  0  0  0  0  0  0  0  0  0  0
   23.7679   -9.9001  -15.7329 C   0  0  0  0  0  0  0  0  0  0  0  0
   24.7845   -9.0661  -16.1403 C   0  0  0  0  0  0  0  0  0  0  0  0
   26.0847   -9.2053  -15.7097 C   0  0  0  0  0  0  0  0  0  0  0  0
   26.3542  -10.2422  -14.8241 C   0  0  0  0  0  0  0  0  0  0  0  0
   25.3531  -11.0708  -14.4174 C   0  0  0  0  0  0  0  0  0  0  0  0
   24.0680  -10.9127  -14.8594 C   0  0  0  0  0  0  0  0  0  0  0  0
   22.1585   -7.6578  -14.9560 C   0  0  0  0  0  0  0  0  0  0  0  0
   23.0206   -7.5486  -14.0503 O   0  0  0  0  0  0  0  0  0  0  0  0
   21.8250   -6.5172  -15.6679 O   0  0  0  0  0  0  0  0  0  0  0  0
  2  1  1  1
  2  3  1  0
  4  2  1  0
  4  5  1  6
  6  7  2  0
  6  4  1  0
  8  6  1  0
  9 10  1  1
  9  8  1  0
 11 15  1  0
 11 10  1  0
 12 11  2  0
 13  9  1  0
 14 13  2  0
 16 13  1  0
 17 16  1  0
 18 19  1  0
 17 18  1  6
 19 20  2  0
 20 21  1  0
 22 21  2  0
 23 22  1  0
 24 19  1  0
 24 23  2  0
 25 27  1  0
 25 17  1  0
 26 25  2  0
M  END
$$$$
