TDF.pdb
     RDKit          3D

 27 27  0  0  1  0  0  0  0  0999 V2000
   15.9043  -12.0210  -14.7012 C   0  0  0  0  0  0  0  0  0  0  0  0
   16.6178  -13.3238  -14.8689 C   0  0  1  0  0  0  0  0  0  0  0  0
   15.7202  -14.3822  -14.8057 O   0  0  0  0  0  0  0  0  0  0  0  0
   17.4418  -13.3703  -16.1466 C   0  0  2  0  0  0  0  0  0  0  0  0
   18.0708  -14.6663  -16.3037 N   0  0  0  0  0  0  0  0  0  0  0  0
   18.4234  -12.2698  -16.1898 C   0  0  0  0  0  0  0  0  0  0  0  0
   19.5084  -12.3921  -15.5686 O   0  0  0  0  0  0  0  0  0  0  0  0
   18.2290  -11.0567  -16.8961 N   0  0  0  0  0  0  0  0  0  0  0  0
   19.2017   -9.9785  -16.9677 C   0  0  1  0  0  0  0  0  0  0  0  0
   18.9997   -9.1666  -18.2302 C   0  0  0  0  0  0  0  0  0  0  0  0
   20.0242   -8.1083  -18.3663 C   0  0  0  0  0  0  0  0  0  0  0  0
   21.2696   -8.3922  -18.3700 O   0  0  0  0  0  0  0  0  0  0  0  0
   19.1415   -9.0792  -15.8156 C   0  0  0  0  0  0  0  0  0  0  0  0
   18.0387   -8.7258  -15.3537 O   0  0  0  0  0  0  0  0  0  0  0  0
   19.6217   -6.8000  -18.4903 O   0  0  0  0  0  0  0  0  0  0  0  0
   20.3602   -8.6259  -15.2454 N   0  0  0  0  0  0  0  0  0  0  0  0
   20.3860   -7.7328  -14.1020 C   0  0  1  0  0  0  0  0  0  0  0  0
   21.6616   -7.9545  -13.3421 C   0  0  0  0  0  0  0  0  0  0  0  0
   22.8634   -7.8594  -14.1933 C   0  0  0  0  0  0  0  0  0  0  0  0
   23.3176   -6.6599  -14.6933 C   0  0  0  0  0  0  0  0  0  0  0  0
   24.4364   -6.5562  -15.4889 C   0  0  0  0  0  0  0  0  0  0  0  0
   25.1185   -7.7308  -15.7839 C   0  0  0  0  0  0  0  0  0  0  0  0
   24.6743   -8.9206  -15.2927 C   0  0  0  0  0  0  0  0  0  0  0  0
   23.5592   -8.9986  -14.5038 C   0  0  0  0  0  0  0  0  0  0  0  0
   20.2714   -6.3192  -14.4950 C   0  0  0  0  0  0  0  0  0  0  0  0
   20.3890   -5.9666  -15.6939 O   0  0  0  0  0  0  0  0  0  0  0  0
   20.0291   -5.3315  -13.5544 O   0  0  0  0  0  0  0  0  0  0  0  0
  2  1  1  6
  2  3  1  0
  4  2  1  0
  4  5  1  1
  6  7  2  0
  6  4  1  0
  8  6  1  0
  9 10  1  6
  9  8  1  0
 11 15  1  0
 11 10  1  0
 12 11  2  0
 13  9  1  0
 14 13  2  0
 16 13  1  0
 17 16  1  0
 18 19  1  0
 17 18  1  6
 19 20  2  0
 20 21  1  0
 22 21  2  0
 23 22  1  0
 24 19  1  0
 24 23  2  0
 25 27  1  0
 25 17  1  0
 26 25  2  0
M  END
$$$$
