TDF.pdb
     RDKit          3D

 27 27  0  0  1  0  0  0  0  0999 V2000
   18.8867  -12.7246  -18.1456 C   0  0  0  0  0  0  0  0  0  0  0  0
   18.8767  -12.4119  -19.6073 C   0  0  1  0  0  0  0  0  0  0  0  0
   18.4052  -13.4976  -20.3343 O   0  0  0  0  0  0  0  0  0  0  0  0
   18.0896  -11.1489  -19.9219 C   0  0  2  0  0  0  0  0  0  0  0  0
   17.9602  -10.9693  -21.3541 N   0  0  0  0  0  0  0  0  0  0  0  0
   18.6880   -9.9695  -19.2681 C   0  0  0  0  0  0  0  0  0  0  0  0
   19.6930   -9.4245  -19.7888 O   0  0  0  0  0  0  0  0  0  0  0  0
   18.2024   -9.3922  -18.0685 N   0  0  0  0  0  0  0  0  0  0  0  0
   18.8228   -8.2705  -17.3823 C   0  0  1  0  0  0  0  0  0  0  0  0
   17.8159   -7.5720  -16.4923 C   0  0  0  0  0  0  0  0  0  0  0  0
   16.7686   -6.8918  -17.2850 C   0  0  0  0  0  0  0  0  0  0  0  0
   17.0560   -6.2733  -18.3651 O   0  0  0  0  0  0  0  0  0  0  0  0
   19.9738   -8.6652  -16.5704 C   0  0  0  0  0  0  0  0  0  0  0  0
   19.9969   -9.7825  -16.0176 O   0  0  0  0  0  0  0  0  0  0  0  0
   15.4668   -6.9300  -16.8458 O   0  0  0  0  0  0  0  0  0  0  0  0
   21.0509   -7.7506  -16.4317 N   0  0  0  0  0  0  0  0  0  0  0  0
   22.3079   -8.1342  -15.8165 C   0  0  1  0  0  0  0  0  0  0  0  0
   22.9061   -9.2661  -16.6004 C   0  0  0  0  0  0  0  0  0  0  0  0
   24.2715   -9.6133  -16.1609 C   0  0  0  0  0  0  0  0  0  0  0  0
   25.3935   -9.0935  -16.7660 C   0  0  0  0  0  0  0  0  0  0  0  0
   26.6729   -9.4087  -16.3672 C   0  0  0  0  0  0  0  0  0  0  0  0
   26.8082  -10.2933  -15.3036 C   0  0  0  0  0  0  0  0  0  0  0  0
   25.7024  -10.8113  -14.7010 C   0  0  0  0  0  0  0  0  0  0  0  0
   24.4405  -10.4830  -15.1152 C   0  0  0  0  0  0  0  0  0  0  0  0
   23.2584   -7.0131  -15.7428 C   0  0  0  0  0  0  0  0  0  0  0  0
   24.0744   -6.9144  -14.7941 O   0  0  0  0  0  0  0  0  0  0  0  0
   23.2842   -6.0304  -16.7187 O   0  0  0  0  0  0  0  0  0  0  0  0
  2  1  1  1
  2  3  1  0
  4  2  1  0
  4  5  1  6
  6  7  2  0
  6  4  1  0
  8  6  1  0
  9 10  1  1
  9  8  1  0
 11 15  1  0
 11 10  1  0
 12 11  2  0
 13  9  1  0
 14 13  2  0
 16 13  1  0
 17 16  1  0
 18 19  1  0
 17 18  1  6
 19 20  2  0
 20 21  1  0
 22 21  2  0
 23 22  1  0
 24 19  1  0
 24 23  2  0
 25 27  1  0
 25 17  1  0
 26 25  2  0
M  END
$$$$
