TDF.pdb
     RDKit          3D

 27 27  0  0  1  0  0  0  0  0999 V2000
   16.9201  -21.8679    4.5566 C   0  0  0  0  0  0  0  0  0  0  0  0
   17.1191  -21.5987    3.0997 C   0  0  1  0  0  0  0  0  0  0  0  0
   17.2964  -22.7882    2.4046 O   0  0  0  0  0  0  0  0  0  0  0  0
   15.9890  -20.7717    2.5059 C   0  0  2  0  0  0  0  0  0  0  0  0
   16.1628  -20.6191    1.0754 N   0  0  0  0  0  0  0  0  0  0  0  0
   15.8623  -19.4707    3.1900 C   0  0  0  0  0  0  0  0  0  0  0  0
   16.5843  -18.5115    2.8203 O   0  0  0  0  0  0  0  0  0  0  0  0
   14.9661  -19.2166    4.2579 N   0  0  0  0  0  0  0  0  0  0  0  0
   14.9140  -17.9758    5.0139 C   0  0  1  0  0  0  0  0  0  0  0  0
   13.7477  -17.9932    5.9800 C   0  0  0  0  0  0  0  0  0  0  0  0
   12.4601  -17.7844    5.2824 C   0  0  0  0  0  0  0  0  0  0  0  0
   12.4157  -17.2359    4.1296 O   0  0  0  0  0  0  0  0  0  0  0  0
   16.1421  -17.7137    5.7642 C   0  0  0  0  0  0  0  0  0  0  0  0
   16.8222  -18.6617    6.2036 O   0  0  0  0  0  0  0  0  0  0  0  0
   11.2964  -18.1897    5.8910 O   0  0  0  0  0  0  0  0  0  0  0  0
   16.5326  -16.3650    5.9751 N   0  0  0  0  0  0  0  0  0  0  0  0
   17.7182  -16.0205    6.7377 C   0  0  1  0  0  0  0  0  0  0  0  0
   18.8622  -15.8127    5.7881 C   0  0  0  0  0  0  0  0  0  0  0  0
   18.6623  -14.6601    4.8884 C   0  0  0  0  0  0  0  0  0  0  0  0
   18.1430  -14.7977    3.6209 C   0  0  0  0  0  0  0  0  0  0  0  0
   17.9516  -13.7319    2.7707 C   0  0  0  0  0  0  0  0  0  0  0  0
   18.3068  -12.4723    3.2392 C   0  0  0  0  0  0  0  0  0  0  0  0
   18.8213  -12.3295    4.4919 C   0  0  0  0  0  0  0  0  0  0  0  0
   19.0024  -13.4042    5.3190 C   0  0  0  0  0  0  0  0  0  0  0  0
   17.5215  -14.8176    7.5624 C   0  0  0  0  0  0  0  0  0  0  0  0
   16.5162  -14.0819    7.4091 O   0  0  0  0  0  0  0  0  0  0  0  0
   18.4394  -14.4585    8.5358 O   0  0  0  0  0  0  0  0  0  0  0  0
  2  1  1  1
  2  3  1  0
  4  2  1  0
  4  5  1  6
  6  7  2  0
  6  4  1  0
  8  6  1  0
  9 10  1  1
  9  8  1  0
 11 15  1  0
 11 10  1  0
 12 11  2  0
 13  9  1  0
 14 13  2  0
 16 13  1  0
 17 16  1  0
 18 19  1  0
 17 18  1  6
 19 20  2  0
 20 21  1  0
 22 21  2  0
 23 22  1  0
 24 19  1  0
 24 23  2  0
 25 27  1  0
 25 17  1  0
 26 25  2  0
M  END
$$$$
