TDF.pdb
     RDKit          3D

 27 27  0  0  1  0  0  0  0  0999 V2000
   20.2028  -11.3468  -15.0568 C   0  0  0  0  0  0  0  0  0  0  0  0
   19.9023  -12.2500  -16.2093 C   0  0  1  0  0  0  0  0  0  0  0  0
   19.5631  -13.5192  -15.7578 O   0  0  0  0  0  0  0  0  0  0  0  0
   18.8284  -11.6808  -17.1239 C   0  0  2  0  0  0  0  0  0  0  0  0
   18.5471  -12.5935  -18.2138 N   0  0  0  0  0  0  0  0  0  0  0  0
   19.1966  -10.3368  -17.6085 C   0  0  0  0  0  0  0  0  0  0  0  0
   19.3214  -10.1440  -18.8436 O   0  0  0  0  0  0  0  0  0  0  0  0
   19.4253   -9.2213  -16.7651 N   0  0  0  0  0  0  0  0  0  0  0  0
   19.5706   -7.8514  -17.2299 C   0  0  1  0  0  0  0  0  0  0  0  0
   18.4042   -7.4668  -18.1162 C   0  0  0  0  0  0  0  0  0  0  0  0
   18.6072   -6.1398  -18.7374 C   0  0  0  0  0  0  0  0  0  0  0  0
   19.4538   -5.9749  -19.6796 O   0  0  0  0  0  0  0  0  0  0  0  0
   19.6680   -6.8856  -16.1356 C   0  0  0  0  0  0  0  0  0  0  0  0
   18.7556   -6.8029  -15.2899 O   0  0  0  0  0  0  0  0  0  0  0  0
   17.8690   -5.0711  -18.2879 O   0  0  0  0  0  0  0  0  0  0  0  0
   20.8174   -6.0551  -16.0650 N   0  0  0  0  0  0  0  0  0  0  0  0
   21.1246   -5.2702  -14.8838 C   0  0  1  0  0  0  0  0  0  0  0  0
   22.5029   -5.6279  -14.4086 C   0  0  0  0  0  0  0  0  0  0  0  0
   22.6457   -7.0597  -14.0803 C   0  0  0  0  0  0  0  0  0  0  0  0
   21.9720   -7.6447  -13.0320 C   0  0  0  0  0  0  0  0  0  0  0  0
   22.0960   -8.9784  -12.7138 C   0  0  0  0  0  0  0  0  0  0  0  0
   22.9456   -9.7447  -13.5032 C   0  0  0  0  0  0  0  0  0  0  0  0
   23.6151   -9.1719  -14.5414 C   0  0  0  0  0  0  0  0  0  0  0  0
   23.4757   -7.8437  -14.8384 C   0  0  0  0  0  0  0  0  0  0  0  0
   21.0375   -3.8230  -15.1370 C   0  0  0  0  0  0  0  0  0  0  0  0
   20.8681   -3.3755  -16.2975 O   0  0  0  0  0  0  0  0  0  0  0  0
   21.1388   -2.9073  -14.1025 O   0  0  0  0  0  0  0  0  0  0  0  0
  2  1  1  1
  2  3  1  0
  4  2  1  0
  4  5  1  6
  6  7  2  0
  6  4  1  0
  8  6  1  0
  9 10  1  6
  9  8  1  0
 11 15  1  0
 11 10  1  0
 12 11  2  0
 13  9  1  0
 14 13  2  0
 16 13  1  0
 17 16  1  0
 18 19  1  0
 17 18  1  6
 19 20  2  0
 20 21  1  0
 22 21  2  0
 23 22  1  0
 24 19  1  0
 24 23  2  0
 25 27  1  0
 25 17  1  0
 26 25  2  0
M  END
$$$$
