RCC.pdb
     RDKit          3D

 24 23  0  0  1  0  0  0  0  0999 V2000
    6.3504  -14.2261   14.8500 N   0  0  0  0  0  0  0  0  0  0  0  0
    7.5061  -13.4719   14.5335 C   0  0  0  0  0  0  0  0  0  0  0  0
    7.8616  -13.3025   13.3043 N   0  0  0  0  0  0  0  0  0  0  0  0
    8.2811  -12.9063   15.5731 N   0  0  0  0  0  0  0  0  0  0  0  0
    8.3304  -13.4692   16.8842 C   0  0  0  0  0  0  0  0  0  0  0  0
    8.3468  -14.9672   16.9138 C   0  0  0  0  0  0  0  0  0  0  0  0
    8.3267  -15.5175   18.2865 C   0  0  0  0  0  0  0  0  0  0  0  0
    9.7156  -15.6449   18.9241 C   0  0  2  0  0  0  0  0  0  0  0  0
   10.1813  -17.0084   18.7119 N   0  0  0  0  0  0  0  0  0  0  0  0
    9.7566  -15.2493   20.3296 C   0  0  0  0  0  0  0  0  0  0  0  0
    9.2668  -14.1652   20.6901 O   0  0  0  0  0  0  0  0  0  0  0  0
    8.7775  -12.8987   13.0766 N   0  0  0  0  0  0  0  0  0  0  0  0
   10.3359  -16.0374   21.3649 C   0  0  1  0  0  0  0  0  0  0  0  0
   10.2327  -15.7445   22.7474 C   0  0  0  0  0  0  0  0  0  0  0  0
    8.8293  -15.6822   23.2769 S   0  0  0  0  0  0  0  0  0  0  0  0
    8.7146  -15.6386   25.0633 C   0  0  0  0  0  0  0  0  0  0  0  0
   11.0416  -16.6953   23.5740 O   0  0  0  0  0  0  0  0  0  0  0  0
   10.7736  -17.9213   23.4870 N   0  0  0  0  0  0  0  0  0  0  0  0
   12.0807  -16.2760   24.4369 C   0  0  1  0  0  0  0  0  0  0  0  0
   13.2002  -17.1391   24.8171 C   0  0  0  0  0  0  0  0  0  0  0  0
   14.4937  -16.3477   24.8476 S   0  0  0  0  0  0  0  0  0  0  0  0
   14.7840  -15.4889   23.2826 C   0  0  0  0  0  0  0  0  0  0  0  0
   12.9531  -17.6305   26.1939 O   0  0  0  0  0  0  0  0  0  0  0  0
   13.8644  -18.4858   26.8306 O   0  0  0  0  0  0  0  0  0  0  0  0
  1  2  1  0
  2  4  1  0
  3  2  2  0
  4  5  1  0
  6  7  1  0
  6  5  1  0
  7  8  1  0
  8 10  1  0
  8  9  1  1
 10 12  1  0
 11 10  2  0
 12 13  1  0
 13 16  1  0
 13 14  1  1
 14 15  1  0
 16 18  1  0
 16 17  2  0
 18 19  1  0
 19 22  1  0
 19 20  1  1
 21 20  1  0
 22 23  1  0
 24 22  2  0
M  END
$$$$
