RCC.pdb
     RDKit          3D

 24 23  0  0  1  0  0  0  0  0999 V2000
    7.9342  -15.7872   13.9582 N   0  0  0  0  0  0  0  0  0  0  0  0
    7.9673  -15.6946   15.3706 C   0  0  0  0  0  0  0  0  0  0  0  0
    6.9644  -15.2044   16.0187 N   0  0  0  0  0  0  0  0  0  0  0  0
    9.1115  -16.1357   16.0759 N   0  0  0  0  0  0  0  0  0  0  0  0
    9.2027  -16.0775   17.4995 C   0  0  0  0  0  0  0  0  0  0  0  0
    8.5742  -14.8622   18.1103 C   0  0  0  0  0  0  0  0  0  0  0  0
    8.6508  -14.8533   19.5873 C   0  0  0  0  0  0  0  0  0  0  0  0
    8.0079  -13.6205   20.2344 C   0  0  2  0  0  0  0  0  0  0  0  0
    8.3924  -12.4537   19.4523 N   0  0  0  0  0  0  0  0  0  0  0  0
    8.3173  -13.4723   21.6542 C   0  0  0  0  0  0  0  0  0  0  0  0
    9.4581  -13.1353   22.0153 O   0  0  0  0  0  0  0  0  0  0  0  0
    6.9328  -15.2498   17.0437 N   0  0  0  0  0  0  0  0  0  0  0  0
    7.3793  -13.6910   22.7035 C   0  0  2  0  0  0  0  0  0  0  0  0
    7.6950  -13.6383   24.0839 C   0  0  0  0  0  0  0  0  0  0  0  0
    6.6918  -12.9141   24.9341 S   0  0  0  0  0  0  0  0  0  0  0  0
    7.1266  -12.8158   26.6684 C   0  0  0  0  0  0  0  0  0  0  0  0
    7.9395  -15.0043   24.6457 O   0  0  0  0  0  0  0  0  0  0  0  0
    7.4474  -15.9865   24.0326 N   0  0  0  0  0  0  0  0  0  0  0  0
    8.6912  -15.2317   25.8219 C   0  0  1  0  0  0  0  0  0  0  0  0
    9.3668  -16.4989   26.1054 C   0  0  0  0  0  0  0  0  0  0  0  0
   10.4315  -16.7776   25.0618 S   0  0  0  0  0  0  0  0  0  0  0  0
   11.4305  -18.2199   25.5008 C   0  0  0  0  0  0  0  0  0  0  0  0
   10.0556  -16.3688   27.4119 O   0  0  0  0  0  0  0  0  0  0  0  0
   10.6517  -17.4787   28.0284 O   0  0  0  0  0  0  0  0  0  0  0  0
  1  2  1  0
  2  4  1  0
  3  2  2  0
  4  5  1  0
  6  7  1  0
  6  5  1  0
  7  8  1  0
  8 10  1  0
  8  9  1  6
 10 12  1  0
 11 10  2  0
 12 13  1  0
 13 16  1  0
 13 14  1  6
 14 15  1  0
 16 18  1  0
 16 17  2  0
 18 19  1  0
 19 22  1  0
 19 20  1  1
 21 20  1  0
 22 23  1  0
 24 22  2  0
M  END
$$$$
