RCC.pdb
     RDKit          3D

 24 23  0  0  1  0  0  0  0  0999 V2000
   13.6856  -15.0892   17.8281 N   0  0  0  0  0  0  0  0  0  0  0  0
   12.8795  -15.4030   18.9490 C   0  0  0  0  0  0  0  0  0  0  0  0
   13.0114  -14.7496   20.0544 N   0  0  0  0  0  0  0  0  0  0  0  0
   11.9278  -16.4458   18.8588 N   0  0  0  0  0  0  0  0  0  0  0  0
   10.6336  -16.2535   18.2875 C   0  0  0  0  0  0  0  0  0  0  0  0
    9.6227  -15.6717   19.2280 C   0  0  0  0  0  0  0  0  0  0  0  0
    9.2219  -14.2951   18.8650 C   0  0  0  0  0  0  0  0  0  0  0  0
    8.1801  -13.6829   19.8094 C   0  0  2  0  0  0  0  0  0  0  0  0
    7.8402  -12.3605   19.3027 N   0  0  0  0  0  0  0  0  0  0  0  0
    8.5970  -13.6584   21.2091 C   0  0  0  0  0  0  0  0  0  0  0  0
    9.5268  -12.9181   21.5734 O   0  0  0  0  0  0  0  0  0  0  0  0
   12.5488  -15.0744   20.9112 N   0  0  0  0  0  0  0  0  0  0  0  0
    8.0000  -14.4463   22.2345 C   0  0  2  0  0  0  0  0  0  0  0  0
    8.4089  -14.4383   23.5912 C   0  0  0  0  0  0  0  0  0  0  0  0
    7.3633  -13.9741   24.5634 S   0  0  0  0  0  0  0  0  0  0  0  0
    5.8282  -14.8934   24.4925 C   0  0  0  0  0  0  0  0  0  0  0  0
    8.9347  -15.7741   24.0161 O   0  0  0  0  0  0  0  0  0  0  0  0
    8.2015  -16.7790   23.8281 N   0  0  0  0  0  0  0  0  0  0  0  0
   10.2052  -15.9492   24.6121 C   0  0  1  0  0  0  0  0  0  0  0  0
   10.7103  -17.2522   25.0476 C   0  0  0  0  0  0  0  0  0  0  0  0
   12.2093  -17.1924   25.2712 S   0  0  0  0  0  0  0  0  0  0  0  0
   13.0604  -16.4330   23.8676 C   0  0  0  0  0  0  0  0  0  0  0  0
   10.0839  -17.5738   26.3524 O   0  0  0  0  0  0  0  0  0  0  0  0
   10.3446  -18.7910   26.9988 O   0  0  0  0  0  0  0  0  0  0  0  0
  1  2  1  0
  2  4  1  0
  3  2  2  0
  4  5  1  0
  6  7  1  0
  6  5  1  0
  7  8  1  0
  8 10  1  0
  8  9  1  6
 10 12  1  0
 11 10  2  0
 12 13  1  0
 13 16  1  0
 13 14  1  6
 14 15  1  0
 16 18  1  0
 16 17  2  0
 18 19  1  0
 19 22  1  0
 19 20  1  1
 21 20  1  0
 22 23  1  0
 24 22  2  0
M  END
$$$$
