RCC.pdb
     RDKit          3D

 24 23  0  0  1  0  0  0  0  0999 V2000
    7.5084  -13.1576   18.3801 N   0  0  0  0  0  0  0  0  0  0  0  0
    8.2955  -13.1361   19.5568 C   0  0  0  0  0  0  0  0  0  0  0  0
    9.3797  -12.4374   19.6071 N   0  0  0  0  0  0  0  0  0  0  0  0
    7.8943  -13.8923   20.6831 N   0  0  0  0  0  0  0  0  0  0  0  0
    6.6330  -14.5577   20.7484 C   0  0  0  0  0  0  0  0  0  0  0  0
    6.5719  -15.8439   19.9821 C   0  0  0  0  0  0  0  0  0  0  0  0
    7.3588  -16.9276   20.6097 C   0  0  0  0  0  0  0  0  0  0  0  0
    6.5101  -17.9375   21.3917 C   0  0  2  0  0  0  0  0  0  0  0  0
    5.2191  -18.0461   20.7265 N   0  0  0  0  0  0  0  0  0  0  0  0
    6.3855  -17.6258   22.8133 C   0  0  0  0  0  0  0  0  0  0  0  0
    5.3256  -17.1555   23.2613 O   0  0  0  0  0  0  0  0  0  0  0  0
    9.9147  -12.3660   20.4803 N   0  0  0  0  0  0  0  0  0  0  0  0
    7.4226  -17.8254   23.7689 C   0  0  2  0  0  0  0  0  0  0  0  0
    7.2970  -17.5575   25.1547 C   0  0  0  0  0  0  0  0  0  0  0  0
    7.2809  -18.7740   26.0343 S   0  0  0  0  0  0  0  0  0  0  0  0
    8.8545  -19.6200   26.1545 C   0  0  0  0  0  0  0  0  0  0  0  0
    8.3508  -16.6059   25.6297 O   0  0  0  0  0  0  0  0  0  0  0  0
    9.2727  -16.3053   24.8281 N   0  0  0  0  0  0  0  0  0  0  0  0
    8.3515  -16.0394   26.9255 C   0  0  1  0  0  0  0  0  0  0  0  0
    9.3815  -15.1087   27.3896 C   0  0  0  0  0  0  0  0  0  0  0  0
    8.7915  -13.7279   27.6035 S   0  0  0  0  0  0  0  0  0  0  0  0
   10.0393  -12.5553   28.1858 C   0  0  0  0  0  0  0  0  0  0  0  0
    9.8712  -15.5859   28.7052 O   0  0  0  0  0  0  0  0  0  0  0  0
   11.0899  -15.1322   29.2307 O   0  0  0  0  0  0  0  0  0  0  0  0
  1  2  1  0
  2  4  1  0
  3  2  2  0
  4  5  1  0
  6  7  1  0
  6  5  1  0
  7  8  1  0
  8 10  1  0
  8  9  1  6
 10 12  1  0
 11 10  2  0
 12 13  1  0
 13 16  1  0
 13 14  1  6
 14 15  1  0
 16 18  1  0
 16 17  2  0
 18 19  1  0
 19 22  1  0
 19 20  1  1
 21 20  1  0
 22 23  1  0
 24 22  2  0
M  END
$$$$
