RCC.pdb
     RDKit          3D

 24 23  0  0  1  0  0  0  0  0999 V2000
    7.3989  -14.7257   15.4736 N   0  0  0  0  0  0  0  0  0  0  0  0
    8.4891  -15.5805   15.7662 C   0  0  0  0  0  0  0  0  0  0  0  0
    8.9468  -16.3887   14.8699 N   0  0  0  0  0  0  0  0  0  0  0  0
    9.0758  -15.5537   17.0532 N   0  0  0  0  0  0  0  0  0  0  0  0
    8.7107  -14.5897   18.0409 C   0  0  0  0  0  0  0  0  0  0  0  0
    8.1582  -15.1770   19.3038 C   0  0  0  0  0  0  0  0  0  0  0  0
    7.0606  -14.3722   19.8827 C   0  0  0  0  0  0  0  0  0  0  0  0
    7.5405  -13.1878   20.7305 C   0  0  2  0  0  0  0  0  0  0  0  0
    8.5341  -12.4572   19.9558 N   0  0  0  0  0  0  0  0  0  0  0  0
    8.0290  -13.5702   22.0529 C   0  0  0  0  0  0  0  0  0  0  0  0
    9.2348  -13.8160   22.2288 O   0  0  0  0  0  0  0  0  0  0  0  0
    9.6929  -17.0551   15.1001 N   0  0  0  0  0  0  0  0  0  0  0  0
    7.2021  -13.6893   23.2065 C   0  0  1  0  0  0  0  0  0  0  0  0
    7.6662  -14.0771   24.4880 C   0  0  0  0  0  0  0  0  0  0  0  0
    6.6858  -13.8666   25.6052 S   0  0  0  0  0  0  0  0  0  0  0  0
    6.2953  -12.1499   25.9321 C   0  0  0  0  0  0  0  0  0  0  0  0
    8.1417  -15.4968   24.4954 O   0  0  0  0  0  0  0  0  0  0  0  0
    7.3521  -16.3812   24.0746 N   0  0  0  0  0  0  0  0  0  0  0  0
    9.4254  -15.8781   24.9503 C   0  0  1  0  0  0  0  0  0  0  0  0
    9.9154  -17.2563   24.8949 C   0  0  0  0  0  0  0  0  0  0  0  0
   11.3253  -17.2960   24.3373 S   0  0  0  0  0  0  0  0  0  0  0  0
   12.3539  -15.9836   25.0378 C   0  0  0  0  0  0  0  0  0  0  0  0
    9.9765  -17.7772   26.2817 O   0  0  0  0  0  0  0  0  0  0  0  0
   10.4247  -19.0798   26.5454 O   0  0  0  0  0  0  0  0  0  0  0  0
  1  2  1  0
  2  4  1  0
  3  2  2  0
  4  5  1  0
  6  7  1  0
  6  5  1  0
  7  8  1  0
  8 10  1  0
  8  9  1  6
 10 12  1  0
 11 10  2  0
 12 13  1  0
 13 16  1  0
 13 14  1  1
 14 15  1  0
 16 18  1  0
 16 17  2  0
 18 19  1  0
 19 22  1  0
 19 20  1  1
 21 20  1  0
 22 23  1  0
 24 22  2  0
M  END
$$$$
