RCC.pdb
     RDKit          3D

 24 23  0  0  1  0  0  0  0  0999 V2000
    8.9042  -14.4523   16.2744 N   0  0  0  0  0  0  0  0  0  0  0  0
    8.3199  -13.9868   17.4772 C   0  0  0  0  0  0  0  0  0  0  0  0
    8.5562  -12.7905   17.9002 N   0  0  0  0  0  0  0  0  0  0  0  0
    7.4768  -14.8424   18.2245 N   0  0  0  0  0  0  0  0  0  0  0  0
    7.8682  -15.3963   19.4808 C   0  0  0  0  0  0  0  0  0  0  0  0
    7.5764  -14.5202   20.6608 C   0  0  0  0  0  0  0  0  0  0  0  0
    6.5629  -15.0965   21.5709 C   0  0  0  0  0  0  0  0  0  0  0  0
    6.8933  -16.5161   22.0478 C   0  0  2  0  0  0  0  0  0  0  0  0
    6.0815  -17.4470   21.2761 N   0  0  0  0  0  0  0  0  0  0  0  0
    6.7451  -16.7023   23.4890 C   0  0  0  0  0  0  0  0  0  0  0  0
    5.6147  -16.8181   23.9931 O   0  0  0  0  0  0  0  0  0  0  0  0
    8.1080  -12.4410   18.7550 N   0  0  0  0  0  0  0  0  0  0  0  0
    7.8357  -16.7652   24.4029 C   0  0  2  0  0  0  0  0  0  0  0  0
    7.7088  -17.0658   25.7818 C   0  0  0  0  0  0  0  0  0  0  0  0
    7.1342  -18.4197   26.0830 S   0  0  0  0  0  0  0  0  0  0  0  0
    8.0368  -19.7841   25.3550 C   0  0  0  0  0  0  0  0  0  0  0  0
    9.0094  -16.8980   26.5043 O   0  0  0  0  0  0  0  0  0  0  0  0
   10.0683  -17.1269   25.8648 N   0  0  0  0  0  0  0  0  0  0  0  0
    9.0940  -16.4982   27.8582 C   0  0  1  0  0  0  0  0  0  0  0  0
   10.0824  -15.5352   28.3462 C   0  0  0  0  0  0  0  0  0  0  0  0
    9.3938  -14.3011   28.8970 S   0  0  0  0  0  0  0  0  0  0  0  0
    8.8277  -13.2090   27.5711 C   0  0  0  0  0  0  0  0  0  0  0  0
   10.8201  -16.1642   29.4680 O   0  0  0  0  0  0  0  0  0  0  0  0
   11.9294  -15.5318   30.0484 O   0  0  0  0  0  0  0  0  0  0  0  0
  1  2  1  0
  2  4  1  0
  3  2  2  0
  4  5  1  0
  6  7  1  0
  6  5  1  0
  7  8  1  0
  8 10  1  0
  8  9  1  6
 10 12  1  0
 11 10  2  0
 12 13  1  0
 13 16  1  0
 13 14  1  6
 14 15  1  0
 16 18  1  0
 16 17  2  0
 18 19  1  0
 19 22  1  0
 19 20  1  1
 21 20  1  0
 22 23  1  0
 24 22  2  0
M  END
$$$$
