RCC.pdb
     RDKit          3D

 24 23  0  0  1  0  0  0  0  0999 V2000
    9.2314  -15.0099   17.0400 N   0  0  0  0  0  0  0  0  0  0  0  0
    8.2402  -14.0269   16.8036 C   0  0  0  0  0  0  0  0  0  0  0  0
    7.6806  -13.9263   15.6448 N   0  0  0  0  0  0  0  0  0  0  0  0
    7.8663  -13.1434   17.8433 N   0  0  0  0  0  0  0  0  0  0  0  0
    8.2926  -13.3264   19.1935 C   0  0  0  0  0  0  0  0  0  0  0  0
    7.2804  -13.9895   20.0771 C   0  0  0  0  0  0  0  0  0  0  0  0
    7.4119  -15.4625   20.1010 C   0  0  0  0  0  0  0  0  0  0  0  0
    8.4911  -15.9734   21.0634 C   0  0  2  0  0  0  0  0  0  0  0  0
    8.6352  -17.4072   20.8527 N   0  0  0  0  0  0  0  0  0  0  0  0
    8.2416  -15.6330   22.4617 C   0  0  0  0  0  0  0  0  0  0  0  0
    8.0304  -14.4532   22.7917 O   0  0  0  0  0  0  0  0  0  0  0  0
    6.9368  -13.2377   15.4823 N   0  0  0  0  0  0  0  0  0  0  0  0
    8.2189  -16.5823   23.5233 C   0  0  1  0  0  0  0  0  0  0  0  0
    7.8594  -16.2802   24.8603 C   0  0  0  0  0  0  0  0  0  0  0  0
    6.9348  -17.2718   25.5051 S   0  0  0  0  0  0  0  0  0  0  0  0
    7.6531  -18.8913   25.7654 C   0  0  0  0  0  0  0  0  0  0  0  0
    9.0661  -16.0806   25.7237 O   0  0  0  0  0  0  0  0  0  0  0  0
   10.1372  -16.6385   25.3713 N   0  0  0  0  0  0  0  0  0  0  0  0
    9.0504  -15.3008   26.9034 C   0  0  1  0  0  0  0  0  0  0  0  0
   10.2172  -15.1448   27.7733 C   0  0  0  0  0  0  0  0  0  0  0  0
   10.0159  -13.9835   28.7278 S   0  0  0  0  0  0  0  0  0  0  0  0
    8.9420  -12.7153   28.0138 C   0  0  0  0  0  0  0  0  0  0  0  0
   10.3435  -16.3723   28.5952 O   0  0  0  0  0  0  0  0  0  0  0  0
   11.4721  -16.5912   29.3987 O   0  0  0  0  0  0  0  0  0  0  0  0
  1  2  1  0
  2  4  1  0
  3  2  2  0
  4  5  1  0
  6  7  1  0
  6  5  1  0
  7  8  1  0
  8 10  1  0
  8  9  1  1
 10 12  1  0
 11 10  2  0
 12 13  1  0
 13 16  1  0
 13 14  1  1
 14 15  1  0
 16 18  1  0
 16 17  2  0
 18 19  1  0
 19 22  1  0
 19 20  1  1
 21 20  1  0
 22 23  1  0
 24 22  2  0
M  END
$$$$
