RCC.pdb
     RDKit          3D

 24 23  0  0  1  0  0  0  0  0999 V2000
    7.5046  -13.2362   17.8000 N   0  0  0  0  0  0  0  0  0  0  0  0
    7.8243  -13.3809   19.1717 C   0  0  0  0  0  0  0  0  0  0  0  0
    7.5171  -12.4551   20.0171 N   0  0  0  0  0  0  0  0  0  0  0  0
    8.4922  -14.5456   19.6173 N   0  0  0  0  0  0  0  0  0  0  0  0
    9.1201  -15.4593   18.7178 C   0  0  0  0  0  0  0  0  0  0  0  0
    9.7190  -16.6638   19.3779 C   0  0  0  0  0  0  0  0  0  0  0  0
   10.9831  -16.3656   20.0853 C   0  0  0  0  0  0  0  0  0  0  0  0
   11.1706  -17.1614   21.3827 C   0  0  2  0  0  0  0  0  0  0  0  0
   10.6902  -18.5164   21.1491 N   0  0  0  0  0  0  0  0  0  0  0  0
   10.5510  -16.5389   22.5498 C   0  0  0  0  0  0  0  0  0  0  0  0
   10.8439  -15.3734   22.8681 O   0  0  0  0  0  0  0  0  0  0  0  0
    7.8380  -12.5099   20.9907 N   0  0  0  0  0  0  0  0  0  0  0  0
    9.5981  -17.1848   23.3885 C   0  0  1  0  0  0  0  0  0  0  0  0
    8.9540  -16.5696   24.4905 C   0  0  0  0  0  0  0  0  0  0  0  0
    7.7281  -17.2821   24.9840 S   0  0  0  0  0  0  0  0  0  0  0  0
    6.2868  -17.0822   23.9405 C   0  0  0  0  0  0  0  0  0  0  0  0
    9.9009  -16.3481   25.6289 O   0  0  0  0  0  0  0  0  0  0  0  0
   10.9182  -17.0851   25.6963 N   0  0  0  0  0  0  0  0  0  0  0  0
    9.7003  -15.3573   26.6178 C   0  0  1  0  0  0  0  0  0  0  0  0
   10.5614  -15.2160   27.7930 C   0  0  0  0  0  0  0  0  0  0  0  0
   10.1655  -13.9921   28.5967 S   0  0  0  0  0  0  0  0  0  0  0  0
    9.2206  -12.8180   27.5969 C   0  0  0  0  0  0  0  0  0  0  0  0
   10.3498  -16.3991   28.6612 O   0  0  0  0  0  0  0  0  0  0  0  0
    9.3557  -17.3436   28.3662 O   0  0  0  0  0  0  0  0  0  0  0  0
  1  2  1  0
  2  4  1  0
  3  2  2  0
  4  5  1  0
  6  7  1  0
  6  5  1  0
  7  8  1  0
  8 10  1  0
  8  9  1  6
 10 12  1  0
 11 10  2  0
 12 13  1  0
 13 16  1  0
 13 14  1  1
 14 15  1  0
 16 18  1  0
 16 17  2  0
 18 19  1  0
 19 22  1  0
 19 20  1  1
 21 20  1  0
 22 23  1  0
 24 22  2  0
M  END
$$$$
