RCC.pdb
     RDKit          3D

 24 23  0  0  1  0  0  0  0  0999 V2000
    8.2574  -14.1841   18.6695 N   0  0  0  0  0  0  0  0  0  0  0  0
    7.9269  -13.1565   19.5857 C   0  0  0  0  0  0  0  0  0  0  0  0
    8.2854  -11.9372   19.3598 N   0  0  0  0  0  0  0  0  0  0  0  0
    7.2051  -13.4701   20.7612 N   0  0  0  0  0  0  0  0  0  0  0  0
    6.8598  -14.8099   21.1128 C   0  0  0  0  0  0  0  0  0  0  0  0
    8.0346  -15.7110   21.3437 C   0  0  0  0  0  0  0  0  0  0  0  0
    8.4306  -15.7897   22.7666 C   0  0  0  0  0  0  0  0  0  0  0  0
    9.9479  -15.8202   22.9873 C   0  0  2  0  0  0  0  0  0  0  0  0
   10.5009  -16.8722   22.1456 N   0  0  0  0  0  0  0  0  0  0  0  0
   10.3361  -15.9593   24.3886 C   0  0  0  0  0  0  0  0  0  0  0  0
   11.0612  -16.9031   24.7474 O   0  0  0  0  0  0  0  0  0  0  0  0
    7.9982  -11.1827   19.9938 N   0  0  0  0  0  0  0  0  0  0  0  0
    9.9355  -15.0640   25.4213 C   0  0  1  0  0  0  0  0  0  0  0  0
   10.3394  -15.1710   26.7754 C   0  0  0  0  0  0  0  0  0  0  0  0
    9.8059  -14.0986   27.6804 S   0  0  0  0  0  0  0  0  0  0  0  0
   10.2390  -14.3045   29.4056 C   0  0  0  0  0  0  0  0  0  0  0  0
   10.0136  -16.5177   27.3428 O   0  0  0  0  0  0  0  0  0  0  0  0
    8.8225  -16.9145   27.2625 N   0  0  0  0  0  0  0  0  0  0  0  0
   10.9780  -17.3500   27.9570 C   0  0  1  0  0  0  0  0  0  0  0  0
   10.6548  -18.6564   28.5329 C   0  0  0  0  0  0  0  0  0  0  0  0
   11.1506  -19.7708   27.6315 S   0  0  0  0  0  0  0  0  0  0  0  0
   10.9016  -21.3957   28.3858 C   0  0  0  0  0  0  0  0  0  0  0  0
   11.3764  -18.7801   29.8222 O   0  0  0  0  0  0  0  0  0  0  0  0
   10.8863  -19.6004   30.8489 O   0  0  0  0  0  0  0  0  0  0  0  0
  1  2  1  0
  2  4  1  0
  3  2  2  0
  4  5  1  0
  6  7  1  0
  6  5  1  0
  7  8  1  0
  8 10  1  0
  8  9  1  6
 10 12  1  0
 11 10  2  0
 12 13  1  0
 13 16  1  0
 13 14  1  6
 14 15  1  0
 16 18  1  0
 16 17  2  0
 18 19  1  0
 19 22  1  0
 19 20  1  1
 21 20  1  0
 22 23  1  0
 24 22  2  0
M  END
$$$$
