RCC.pdb
     RDKit          3D

 24 23  0  0  1  0  0  0  0  0999 V2000
    8.7776  -15.7836   16.9485 N   0  0  0  0  0  0  0  0  0  0  0  0
    8.0699  -14.5603   16.8632 C   0  0  0  0  0  0  0  0  0  0  0  0
    8.2402  -13.7738   15.8539 N   0  0  0  0  0  0  0  0  0  0  0  0
    7.1752  -14.1939   17.8960 N   0  0  0  0  0  0  0  0  0  0  0  0
    6.9274  -15.0300   19.0263 C   0  0  0  0  0  0  0  0  0  0  0  0
    7.3059  -14.4201   20.3416 C   0  0  0  0  0  0  0  0  0  0  0  0
    8.7430  -14.5728   20.6563 C   0  0  0  0  0  0  0  0  0  0  0  0
    9.0148  -15.1384   22.0556 C   0  0  2  0  0  0  0  0  0  0  0  0
    8.2526  -16.3716   22.1949 N   0  0  0  0  0  0  0  0  0  0  0  0
    8.7518  -14.1901   23.1350 C   0  0  0  0  0  0  0  0  0  0  0  0
    9.3988  -13.1313   23.2106 O   0  0  0  0  0  0  0  0  0  0  0  0
    7.7883  -12.8525   15.8279 N   0  0  0  0  0  0  0  0  0  0  0  0
    7.7731  -14.3871   24.1508 C   0  0  1  0  0  0  0  0  0  0  0  0
    7.5780  -13.5195   25.2540 C   0  0  0  0  0  0  0  0  0  0  0  0
    6.2417  -13.6440   25.9269 S   0  0  0  0  0  0  0  0  0  0  0  0
    6.0174  -12.5563   27.3316 C   0  0  0  0  0  0  0  0  0  0  0  0
    8.6690  -13.6648   26.2690 O   0  0  0  0  0  0  0  0  0  0  0  0
    9.0828  -12.6215   26.8374 N   0  0  0  0  0  0  0  0  0  0  0  0
    9.2451  -14.9106   26.6096 C   0  0  1  0  0  0  0  0  0  0  0  0
   10.3597  -15.0450   27.5488 C   0  0  0  0  0  0  0  0  0  0  0  0
    9.9373  -14.6099   28.9390 S   0  0  0  0  0  0  0  0  0  0  0  0
    9.1350  -15.9564   29.8414 C   0  0  0  0  0  0  0  0  0  0  0  0
   10.7213  -16.4807   27.6287 O   0  0  0  0  0  0  0  0  0  0  0  0
   11.8598  -16.9012   28.3317 O   0  0  0  0  0  0  0  0  0  0  0  0
  1  2  1  0
  2  4  1  0
  3  2  2  0
  4  5  1  0
  6  7  1  0
  6  5  1  0
  7  8  1  0
  8 10  1  0
  8  9  1  1
 10 12  1  0
 11 10  2  0
 12 13  1  0
 13 16  1  0
 13 14  1  1
 14 15  1  0
 16 18  1  0
 16 17  2  0
 18 19  1  0
 19 22  1  0
 19 20  1  1
 21 20  1  0
 22 23  1  0
 24 22  2  0
M  END
$$$$
