RCC.pdb
     RDKit          3D

 24 23  0  0  1  0  0  0  0  0999 V2000
    8.5785  -17.4387   15.9919 N   0  0  0  0  0  0  0  0  0  0  0  0
    7.4768  -17.6338   16.8596 C   0  0  0  0  0  0  0  0  0  0  0  0
    6.2716  -17.6369   16.3977 N   0  0  0  0  0  0  0  0  0  0  0  0
    7.6987  -17.8191   18.2444 N   0  0  0  0  0  0  0  0  0  0  0  0
    8.5027  -16.9273   19.0168 C   0  0  0  0  0  0  0  0  0  0  0  0
    8.0239  -15.5075   19.0189 C   0  0  0  0  0  0  0  0  0  0  0  0
    7.0841  -15.2170   20.1234 C   0  0  0  0  0  0  0  0  0  0  0  0
    7.2366  -13.8098   20.7137 C   0  0  2  0  0  0  0  0  0  0  0  0
    7.8657  -12.9681   19.7054 N   0  0  0  0  0  0  0  0  0  0  0  0
    7.9444  -13.7810   21.9911 C   0  0  0  0  0  0  0  0  0  0  0  0
    9.1870  -13.8041   22.0198 O   0  0  0  0  0  0  0  0  0  0  0  0
    5.4806  -17.8815   17.0045 N   0  0  0  0  0  0  0  0  0  0  0  0
    7.3005  -13.7257   23.2603 C   0  0  2  0  0  0  0  0  0  0  0  0
    7.9651  -13.8761   24.5028 C   0  0  0  0  0  0  0  0  0  0  0  0
    7.2346  -13.3044   25.6832 S   0  0  0  0  0  0  0  0  0  0  0  0
    5.5141  -12.9183   25.3713 C   0  0  0  0  0  0  0  0  0  0  0  0
    8.3147  -15.3070   24.7710 O   0  0  0  0  0  0  0  0  0  0  0  0
    8.0166  -16.1572   23.8930 N   0  0  0  0  0  0  0  0  0  0  0  0
    8.9578  -15.7352   25.9556 C   0  0  1  0  0  0  0  0  0  0  0  0
    9.6984  -16.9940   26.0519 C   0  0  0  0  0  0  0  0  0  0  0  0
   10.8306  -17.0219   25.0431 S   0  0  0  0  0  0  0  0  0  0  0  0
   11.9162  -18.4451   25.3022 C   0  0  0  0  0  0  0  0  0  0  0  0
   10.3100  -17.0639   27.4008 O   0  0  0  0  0  0  0  0  0  0  0  0
   10.5722  -18.2986   28.0124 O   0  0  0  0  0  0  0  0  0  0  0  0
  1  2  1  0
  2  4  1  0
  3  2  2  0
  4  5  1  0
  6  7  1  0
  6  5  1  0
  7  8  1  0
  8 10  1  0
  8  9  1  6
 10 12  1  0
 11 10  2  0
 12 13  1  0
 13 16  1  0
 13 14  1  6
 14 15  1  0
 16 18  1  0
 16 17  2  0
 18 19  1  0
 19 22  1  0
 19 20  1  1
 21 20  1  0
 22 23  1  0
 24 22  2  0
M  END
$$$$
