RCC.pdb
     RDKit          3D

 24 23  0  0  1  0  0  0  0  0999 V2000
   10.0469  -12.6461   20.1572 N   0  0  0  0  0  0  0  0  0  0  0  0
    9.5521  -13.2315   18.9668 C   0  0  0  0  0  0  0  0  0  0  0  0
    8.7783  -12.5619   18.1800 N   0  0  0  0  0  0  0  0  0  0  0  0
    9.9024  -14.5629   18.6414 N   0  0  0  0  0  0  0  0  0  0  0  0
    9.1526  -15.6864   19.1036 C   0  0  0  0  0  0  0  0  0  0  0  0
    7.7204  -15.3844   19.4244 C   0  0  0  0  0  0  0  0  0  0  0  0
    6.9663  -16.5746   19.8741 C   0  0  0  0  0  0  0  0  0  0  0  0
    7.6508  -17.3519   21.0051 C   0  0  2  0  0  0  0  0  0  0  0  0
    7.2704  -18.7520   20.8789 N   0  0  0  0  0  0  0  0  0  0  0  0
    7.3812  -16.8139   22.3360 C   0  0  0  0  0  0  0  0  0  0  0  0
    6.2641  -16.3400   22.6061 O   0  0  0  0  0  0  0  0  0  0  0  0
    8.5006  -12.9463   17.2696 N   0  0  0  0  0  0  0  0  0  0  0  0
    8.3333  -16.7870   23.3949 C   0  0  1  0  0  0  0  0  0  0  0  0
    8.0489  -16.3643   24.7172 C   0  0  0  0  0  0  0  0  0  0  0  0
    6.8609  -17.0284   25.3508 S   0  0  0  0  0  0  0  0  0  0  0  0
    7.1336  -17.5835   27.0313 C   0  0  0  0  0  0  0  0  0  0  0  0
    9.2422  -16.5073   25.6100 O   0  0  0  0  0  0  0  0  0  0  0  0
   10.0434  -17.4473   25.3708 N   0  0  0  0  0  0  0  0  0  0  0  0
    9.5012  -15.6400   26.6967 C   0  0  2  0  0  0  0  0  0  0  0  0
   10.7718  -15.6276   27.4232 C   0  0  0  0  0  0  0  0  0  0  0  0
   10.9973  -14.2765   28.0745 S   0  0  0  0  0  0  0  0  0  0  0  0
    9.4919  -13.6611   28.8659 C   0  0  0  0  0  0  0  0  0  0  0  0
   10.6875  -16.6312   28.5113 O   0  0  0  0  0  0  0  0  0  0  0  0
   11.8074  -16.9413   29.2969 O   0  0  0  0  0  0  0  0  0  0  0  0
  1  2  1  0
  2  4  1  0
  3  2  2  0
  4  5  1  0
  6  7  1  0
  6  5  1  0
  7  8  1  0
  8 10  1  0
  8  9  1  1
 10 12  1  0
 11 10  2  0
 12 13  1  0
 13 16  1  0
 13 14  1  1
 14 15  1  0
 16 18  1  0
 16 17  2  0
 18 19  1  0
 19 22  1  0
 19 20  1  1
 21 20  1  0
 22 23  1  0
 24 22  2  0
M  END
$$$$
