RCC.pdb
     RDKit          3D

 24 23  0  0  1  0  0  0  0  0999 V2000
    9.4693  -17.1619   15.1398 N   0  0  0  0  0  0  0  0  0  0  0  0
    8.0946  -17.1064   14.8053 C   0  0  0  0  0  0  0  0  0  0  0  0
    7.5547  -18.0403   14.0965 N   0  0  0  0  0  0  0  0  0  0  0  0
    7.3091  -16.0152   15.2450 N   0  0  0  0  0  0  0  0  0  0  0  0
    7.8031  -15.0353   16.1582 C   0  0  0  0  0  0  0  0  0  0  0  0
    8.3532  -15.5994   17.4327 C   0  0  0  0  0  0  0  0  0  0  0  0
    8.9358  -14.5668   18.3169 C   0  0  0  0  0  0  0  0  0  0  0  0
    7.9732  -14.0614   19.3985 C   0  0  2  0  0  0  0  0  0  0  0  0
    7.5414  -12.7224   19.0221 N   0  0  0  0  0  0  0  0  0  0  0  0
    8.5257  -14.1148   20.7496 C   0  0  0  0  0  0  0  0  0  0  0  0
    9.6057  -13.5560   21.0077 O   0  0  0  0  0  0  0  0  0  0  0  0
    6.5429  -18.0455   13.9235 N   0  0  0  0  0  0  0  0  0  0  0  0
    7.9019  -14.7825   21.8421 C   0  0  2  0  0  0  0  0  0  0  0  0
    8.4625  -14.8930   23.1388 C   0  0  0  0  0  0  0  0  0  0  0  0
    7.5021  -14.6440   24.2656 S   0  0  0  0  0  0  0  0  0  0  0  0
    6.9819  -12.9385   24.4299 C   0  0  0  0  0  0  0  0  0  0  0  0
    9.1391  -16.2140   23.3358 O   0  0  0  0  0  0  0  0  0  0  0  0
    8.5090  -17.2504   23.0018 N   0  0  0  0  0  0  0  0  0  0  0  0
   10.4403  -16.3417   23.8749 C   0  0  1  0  0  0  0  0  0  0  0  0
   11.0960  -17.6339   24.0812 C   0  0  0  0  0  0  0  0  0  0  0  0
   12.5883  -17.5167   23.8366 S   0  0  0  0  0  0  0  0  0  0  0  0
   12.9439  -16.9712   22.1492 C   0  0  0  0  0  0  0  0  0  0  0  0
   10.9125  -18.0196   25.5011 O   0  0  0  0  0  0  0  0  0  0  0  0
   10.1623  -17.2202   26.3759 O   0  0  0  0  0  0  0  0  0  0  0  0
  1  2  1  0
  2  4  1  0
  3  2  2  0
  4  5  1  0
  6  7  1  0
  6  5  1  0
  7  8  1  0
  8 10  1  0
  8  9  1  6
 10 12  1  0
 11 10  2  0
 12 13  1  0
 13 16  1  0
 13 14  1  6
 14 15  1  0
 16 18  1  0
 16 17  2  0
 18 19  1  0
 19 22  1  0
 19 20  1  1
 21 20  1  0
 22 23  1  0
 24 22  2  0
M  END
$$$$
