PEV.pdb
     RDKit          3D

 24 24  0  0  1  0  0  0  0  0999 V2000
   16.9685  -11.9177  -16.2726 N   0  0  0  0  0  0  0  0  0  0  0  0
   16.7674  -13.2582  -16.8384 C   0  0  0  0  0  0  0  0  0  0  0  0
   17.9660  -13.3080  -17.7856 C   0  0  0  0  0  0  0  0  0  0  0  0
   19.0609  -12.7939  -16.8493 C   0  0  0  0  0  0  0  0  0  0  0  0
   18.3440  -11.9372  -15.8262 C   0  0  1  0  0  0  0  0  0  0  0  0
   18.9202  -10.5528  -15.7991 C   0  0  0  0  0  0  0  0  0  0  0  0
   20.1224  -10.3892  -15.5632 O   0  0  0  0  0  0  0  0  0  0  0  0
   18.1005   -9.4230  -16.0424 N   0  0  0  0  0  0  0  0  0  0  0  0
   18.5246   -8.0741  -15.9947 C   0  0  1  0  0  0  0  0  0  0  0  0
   17.4587   -7.0379  -16.1236 C   0  0  0  0  0  0  0  0  0  0  0  0
   16.7332   -7.1390  -17.4420 C   0  0  0  0  0  0  0  0  0  0  0  0
   15.6536   -6.1260  -17.5504 C   0  0  0  0  0  0  0  0  0  0  0  0
   14.4566   -6.4048  -17.2823 O   0  0  0  0  0  0  0  0  0  0  0  0
   19.4421   -7.7357  -14.8632 C   0  0  0  0  0  0  0  0  0  0  0  0
   18.9803   -7.9140  -13.7249 O   0  0  0  0  0  0  0  0  0  0  0  0
   15.9656   -4.8377  -17.9570 O   0  0  0  0  0  0  0  0  0  0  0  0
   22.5440   -9.1725  -13.7188 C   0  0  0  0  0  0  0  0  0  0  0  0
   22.9348   -7.7393  -14.0137 C   0  0  1  0  0  0  0  0  0  0  0  0
   23.7381   -7.7206  -15.2783 C   0  0  0  0  0  0  0  0  0  0  0  0
   21.7085   -6.8907  -14.0624 C   0  0  2  0  0  0  0  0  0  0  0  0
   20.7423   -7.2462  -15.0417 N   0  0  0  0  0  0  0  0  0  0  0  0
   22.0469   -5.4569  -13.9279 C   0  0  0  0  0  0  0  0  0  0  0  0
   22.7127   -4.9957  -12.8003 O   0  0  0  0  0  0  0  0  0  0  0  0
   21.7580   -4.6282  -14.7925 O   0  0  0  0  0  0  0  0  0  0  0  0
  1  5  1  0
  1  2  1  0
  2  3  1  0
  4  3  1  0
  5  4  1  0
  6  8  1  0
  5  6  1  6
  7  6  2  0
  9  8  1  0
 10 11  1  0
  9 10  1  1
 12 16  1  0
 12 11  1  0
 13 12  2  0
 14  9  1  0
 14 21  1  0
 15 14  2  0
 18 17  1  6
 18 20  1  0
 19 18  1  0
 20 21  1  6
 20 22  1  0
 22 23  1  0
 24 22  2  0
M  END
$$$$
