PEV.pdb
     RDKit          3D

 24 24  0  0  1  0  0  0  0  0999 V2000
   27.3397  -18.0045  -15.8382 N   0  0  0  0  0  0  0  0  0  0  0  0
   28.5808  -17.7637  -16.5860 C   0  0  0  0  0  0  0  0  0  0  0  0
   29.2264  -19.1417  -16.4417 C   0  0  0  0  0  0  0  0  0  0  0  0
   28.0298  -20.0289  -16.7889 C   0  0  0  0  0  0  0  0  0  0  0  0
   26.8063  -19.2076  -16.4380 C   0  0  1  0  0  0  0  0  0  0  0  0
   25.9319  -19.9485  -15.4708 C   0  0  0  0  0  0  0  0  0  0  0  0
   25.3504  -20.9788  -15.8288 O   0  0  0  0  0  0  0  0  0  0  0  0
   25.7627  -19.4813  -14.1439 N   0  0  0  0  0  0  0  0  0  0  0  0
   24.8733  -20.0259  -13.1878 C   0  0  1  0  0  0  0  0  0  0  0  0
   25.0617  -19.5805  -11.7762 C   0  0  0  0  0  0  0  0  0  0  0  0
   24.9062  -20.7209  -10.8015 C   0  0  0  0  0  0  0  0  0  0  0  0
   25.8519  -21.8259  -11.0985 C   0  0  0  0  0  0  0  0  0  0  0  0
   25.4507  -22.9971  -11.3210 O   0  0  0  0  0  0  0  0  0  0  0  0
   23.4261  -19.9686  -13.5605 C   0  0  0  0  0  0  0  0  0  0  0  0
   22.9905  -18.8437  -13.8531 O   0  0  0  0  0  0  0  0  0  0  0  0
   27.2137  -21.5673  -11.1330 O   0  0  0  0  0  0  0  0  0  0  0  0
   21.3348  -23.3442  -15.0703 C   0  0  0  0  0  0  0  0  0  0  0  0
   20.8950  -21.9002  -15.1932 C   0  0  1  0  0  0  0  0  0  0  0  0
   19.4418  -21.8797  -15.5577 C   0  0  0  0  0  0  0  0  0  0  0  0
   21.2125  -21.1755  -13.9283 C   0  0  2  0  0  0  0  0  0  0  0  0
   22.5891  -21.0914  -13.5861 N   0  0  0  0  0  0  0  0  0  0  0  0
   20.2640  -21.5395  -12.8530 C   0  0  0  0  0  0  0  0  0  0  0  0
   18.9566  -21.0736  -12.8830 O   0  0  0  0  0  0  0  0  0  0  0  0
   20.5873  -22.2563  -11.9045 O   0  0  0  0  0  0  0  0  0  0  0  0
  1  5  1  0
  1  2  1  0
  2  3  1  0
  4  3  1  0
  5  4  1  0
  6  8  1  0
  5  6  1  1
  7  6  2  0
  9  8  1  0
 10 11  1  0
  9 10  1  1
 12 16  1  0
 12 11  1  0
 13 12  2  0
 14  9  1  0
 14 21  1  0
 15 14  2  0
 18 17  1  1
 18 20  1  0
 19 18  1  0
 20 21  1  1
 20 22  1  0
 22 23  1  0
 24 22  2  0
M  END
$$$$
