PEV.pdb
     RDKit          3D

 24 24  0  0  1  0  0  0  0  0999 V2000
   22.8574  -12.5236  -16.8181 N   0  0  0  0  0  0  0  0  0  0  0  0
   23.0298  -13.7870  -17.5475 C   0  0  0  0  0  0  0  0  0  0  0  0
   22.0324  -13.5542  -18.6821 C   0  0  0  0  0  0  0  0  0  0  0  0
   22.4204  -12.1302  -19.0837 C   0  0  0  0  0  0  0  0  0  0  0  0
   23.0246  -11.5131  -17.8392 C   0  0  1  0  0  0  0  0  0  0  0  0
   22.3021  -10.2516  -17.4706 C   0  0  0  0  0  0  0  0  0  0  0  0
   22.4365   -9.2380  -18.1651 O   0  0  0  0  0  0  0  0  0  0  0  0
   21.4618  -10.2057  -16.3307 N   0  0  0  0  0  0  0  0  0  0  0  0
   20.6872   -9.0936  -15.9247 C   0  0  1  0  0  0  0  0  0  0  0  0
   19.3913   -9.3975  -15.2505 C   0  0  0  0  0  0  0  0  0  0  0  0
   18.3606   -9.9162  -16.2218 C   0  0  0  0  0  0  0  0  0  0  0  0
   17.1271  -10.3588  -15.5246 C   0  0  0  0  0  0  0  0  0  0  0  0
   16.9021  -11.5733  -15.2867 O   0  0  0  0  0  0  0  0  0  0  0  0
   21.4325   -8.0428  -15.1651 C   0  0  0  0  0  0  0  0  0  0  0  0
   22.0912   -8.4471  -14.1938 O   0  0  0  0  0  0  0  0  0  0  0  0
   16.1948   -9.4144  -15.1226 O   0  0  0  0  0  0  0  0  0  0  0  0
   23.7196   -5.4611  -16.7098 C   0  0  0  0  0  0  0  0  0  0  0  0
   22.8039   -4.6658  -15.8028 C   0  0  1  0  0  0  0  0  0  0  0  0
   21.8971   -3.8359  -16.6595 C   0  0  0  0  0  0  0  0  0  0  0  0
   22.0855   -5.5961  -14.8839 C   0  0  2  0  0  0  0  0  0  0  0  0
   21.4089   -6.6830  -15.5003 N   0  0  0  0  0  0  0  0  0  0  0  0
   21.3608   -4.8512  -13.8310 C   0  0  0  0  0  0  0  0  0  0  0  0
   22.0549   -4.0524  -12.9324 O   0  0  0  0  0  0  0  0  0  0  0  0
   20.1361   -4.9072  -13.7091 O   0  0  0  0  0  0  0  0  0  0  0  0
  1  5  1  0
  1  2  1  0
  2  3  1  0
  4  3  1  0
  5  4  1  0
  6  8  1  0
  5  6  1  1
  7  6  2  0
  9  8  1  0
 10 11  1  0
  9 10  1  1
 12 16  1  0
 12 11  1  0
 13 12  2  0
 14  9  1  0
 14 21  1  0
 15 14  2  0
 18 17  1  6
 18 20  1  0
 19 18  1  0
 20 21  1  6
 20 22  1  0
 22 23  1  0
 24 22  2  0
M  END
$$$$
