PEV.pdb
     RDKit          3D

 24 24  0  0  1  0  0  0  0  0999 V2000
   27.7421  -23.0400  -17.0411 N   0  0  0  0  0  0  0  0  0  0  0  0
   28.7853  -23.3360  -18.0318 C   0  0  0  0  0  0  0  0  0  0  0  0
   29.0554  -21.9185  -18.5359 C   0  0  0  0  0  0  0  0  0  0  0  0
   29.1541  -21.1801  -17.2000 C   0  0  0  0  0  0  0  0  0  0  0  0
   28.3278  -21.9970  -16.2281 C   0  0  1  0  0  0  0  0  0  0  0  0
   27.2655  -21.1488  -15.5945 C   0  0  0  0  0  0  0  0  0  0  0  0
   27.5821  -20.2453  -14.8126 O   0  0  0  0  0  0  0  0  0  0  0  0
   25.8958  -21.3698  -15.8821 N   0  0  0  0  0  0  0  0  0  0  0  0
   24.8128  -20.6460  -15.3301 C   0  0  1  0  0  0  0  0  0  0  0  0
   23.6592  -20.3812  -16.2387 C   0  0  0  0  0  0  0  0  0  0  0  0
   22.6239  -19.4972  -15.5895 C   0  0  0  0  0  0  0  0  0  0  0  0
   21.4037  -19.3797  -16.4266 C   0  0  0  0  0  0  0  0  0  0  0  0
   21.4578  -18.9964  -17.6234 O   0  0  0  0  0  0  0  0  0  0  0  0
   24.3262  -21.1413  -14.0056 C   0  0  0  0  0  0  0  0  0  0  0  0
   23.7943  -22.2628  -14.0135 O   0  0  0  0  0  0  0  0  0  0  0  0
   20.1694  -19.6990  -15.8814 O   0  0  0  0  0  0  0  0  0  0  0  0
   24.5368  -20.9742   -9.0961 C   0  0  0  0  0  0  0  0  0  0  0  0
   25.0104  -20.3886  -10.4099 C   0  0  1  0  0  0  0  0  0  0  0  0
   26.4227  -20.8323  -10.6417 C   0  0  0  0  0  0  0  0  0  0  0  0
   24.0663  -20.7804  -11.4968 C   0  0  2  0  0  0  0  0  0  0  0  0
   24.4458  -20.4121  -12.8157 N   0  0  0  0  0  0  0  0  0  0  0  0
   22.6630  -20.5352  -11.0978 C   0  0  0  0  0  0  0  0  0  0  0  0
   21.8412  -19.7339  -11.8787 O   0  0  0  0  0  0  0  0  0  0  0  0
   22.1742  -21.0212  -10.0767 O   0  0  0  0  0  0  0  0  0  0  0  0
  1  5  1  0
  1  2  1  0
  2  3  1  0
  4  3  1  0
  5  4  1  0
  6  8  1  0
  5  6  1  6
  7  6  2  0
  9  8  1  0
 10 11  1  0
  9 10  1  6
 12 16  1  0
 12 11  1  0
 13 12  2  0
 14  9  1  0
 14 21  1  0
 15 14  2  0
 18 17  1  1
 18 20  1  0
 19 18  1  0
 20 21  1  6
 20 22  1  0
 22 23  1  0
 24 22  2  0
M  END
$$$$
