PEV.pdb
     RDKit          3D

 24 24  0  0  1  0  0  0  0  0999 V2000
   23.0817  -18.5413  -16.5918 N   0  0  0  0  0  0  0  0  0  0  0  0
   22.1944  -18.4579  -17.7594 C   0  0  0  0  0  0  0  0  0  0  0  0
   21.9491  -19.9490  -17.9892 C   0  0  0  0  0  0  0  0  0  0  0  0
   21.6439  -20.3879  -16.5561 C   0  0  0  0  0  0  0  0  0  0  0  0
   22.3559  -19.3868  -15.6698 C   0  0  1  0  0  0  0  0  0  0  0  0
   23.2927  -20.0855  -14.7298 C   0  0  0  0  0  0  0  0  0  0  0  0
   22.8441  -20.8348  -13.8551 O   0  0  0  0  0  0  0  0  0  0  0  0
   24.6934  -19.8979  -14.8317 N   0  0  0  0  0  0  0  0  0  0  0  0
   25.6652  -20.4879  -13.9896 C   0  0  1  0  0  0  0  0  0  0  0  0
   27.0526  -20.5702  -14.5327 C   0  0  0  0  0  0  0  0  0  0  0  0
   27.3934  -21.9649  -14.9947 C   0  0  0  0  0  0  0  0  0  0  0  0
   28.0380  -21.9551  -16.3318 C   0  0  0  0  0  0  0  0  0  0  0  0
   28.2919  -20.8809  -16.9350 O   0  0  0  0  0  0  0  0  0  0  0  0
   25.6879  -19.9720  -12.5861 C   0  0  0  0  0  0  0  0  0  0  0  0
   25.6079  -18.7393  -12.4651 O   0  0  0  0  0  0  0  0  0  0  0  0
   28.3713  -23.1573  -16.9370 O   0  0  0  0  0  0  0  0  0  0  0  0
   25.1193  -20.4892   -7.7718 C   0  0  0  0  0  0  0  0  0  0  0  0
   24.9713  -21.1011   -9.1492 C   0  0  1  0  0  0  0  0  0  0  0  0
   23.5336  -20.9984   -9.5583 C   0  0  0  0  0  0  0  0  0  0  0  0
   25.9183  -20.4368  -10.0915 C   0  0  2  0  0  0  0  0  0  0  0  0
   25.7931  -20.7983  -11.4600 N   0  0  0  0  0  0  0  0  0  0  0  0
   27.2832  -20.3800   -9.5238 C   0  0  0  0  0  0  0  0  0  0  0  0
   27.5352  -19.6428   -8.3746 O   0  0  0  0  0  0  0  0  0  0  0  0
   28.2346  -20.9718  -10.0360 O   0  0  0  0  0  0  0  0  0  0  0  0
  1  5  1  0
  1  2  1  0
  2  3  1  0
  4  3  1  0
  5  4  1  0
  6  8  1  0
  5  6  1  1
  7  6  2  0
  9  8  1  0
 10 11  1  0
  9 10  1  6
 12 16  1  0
 12 11  1  0
 13 12  2  0
 14  9  1  0
 14 21  1  0
 15 14  2  0
 18 17  1  1
 18 20  1  0
 19 18  1  0
 20 21  1  6
 20 22  1  0
 22 23  1  0
 24 22  2  0
M  END
$$$$
