PEV.pdb
     RDKit          3D

 24 24  0  0  1  0  0  0  0  0999 V2000
   18.6669  -28.4476   -0.0441 N   0  0  0  0  0  0  0  0  0  0  0  0
   18.6372  -27.2445   -0.8863 C   0  0  0  0  0  0  0  0  0  0  0  0
   19.2742  -26.2494    0.0835 C   0  0  0  0  0  0  0  0  0  0  0  0
   20.4656  -27.0792    0.5648 C   0  0  0  0  0  0  0  0  0  0  0  0
   20.0426  -28.5239    0.3957 C   0  0  1  0  0  0  0  0  0  0  0  0
   20.1509  -29.2622    1.6967 C   0  0  0  0  0  0  0  0  0  0  0  0
   19.2212  -29.2189    2.5100 O   0  0  0  0  0  0  0  0  0  0  0  0
   21.3110  -30.0138    2.0077 N   0  0  0  0  0  0  0  0  0  0  0  0
   21.5510  -30.6879    3.2283 C   0  0  1  0  0  0  0  0  0  0  0  0
   22.5395  -31.8048    3.1868 C   0  0  0  0  0  0  0  0  0  0  0  0
   22.5198  -32.6200    4.4556 C   0  0  0  0  0  0  0  0  0  0  0  0
   23.5205  -33.7157    4.4163 C   0  0  0  0  0  0  0  0  0  0  0  0
   23.6854  -34.4952    5.3897 O   0  0  0  0  0  0  0  0  0  0  0  0
   21.8200  -29.8011    4.4021 C   0  0  0  0  0  0  0  0  0  0  0  0
   22.4977  -28.7883    4.1665 O   0  0  0  0  0  0  0  0  0  0  0  0
   24.2967  -33.8900    3.2806 O   0  0  0  0  0  0  0  0  0  0  0  0
   19.9696  -30.5164    8.3507 C   0  0  0  0  0  0  0  0  0  0  0  0
   20.3113  -29.1695    7.7483 C   0  0  1  0  0  0  0  0  0  0  0  0
   20.4694  -28.1812    8.8633 C   0  0  0  0  0  0  0  0  0  0  0  0
   21.5192  -29.3051    6.8831 C   0  0  2  0  0  0  0  0  0  0  0  0
   21.3538  -30.0679    5.6957 N   0  0  0  0  0  0  0  0  0  0  0  0
   22.7298  -29.5606    7.6941 C   0  0  0  0  0  0  0  0  0  0  0  0
   23.3568  -28.5202    8.3662 O   0  0  0  0  0  0  0  0  0  0  0  0
   23.2229  -30.6842    7.8051 O   0  0  0  0  0  0  0  0  0  0  0  0
  1  5  1  0
  1  2  1  0
  2  3  1  0
  4  3  1  0
  5  4  1  0
  6  8  1  0
  5  6  1  1
  7  6  2  0
  9  8  1  0
 10 11  1  0
  9 10  1  6
 12 16  1  0
 12 11  1  0
 13 12  2  0
 14  9  1  0
 14 21  1  0
 15 14  2  0
 18 17  1  1
 18 20  1  0
 19 18  1  0
 20 21  1  6
 20 22  1  0
 22 23  1  0
 24 22  2  0
M  END
$$$$
