PEV.pdb
     RDKit          3D

 24 24  0  0  1  0  0  0  0  0999 V2000
   26.9704  -21.2663  -13.9779 N   0  0  0  0  0  0  0  0  0  0  0  0
   27.2787  -20.9840  -15.3861 C   0  0  0  0  0  0  0  0  0  0  0  0
   27.2891  -19.4564  -15.3343 C   0  0  0  0  0  0  0  0  0  0  0  0
   28.1421  -19.2428  -14.0828 C   0  0  0  0  0  0  0  0  0  0  0  0
   27.9538  -20.4945  -13.2506 C   0  0  1  0  0  0  0  0  0  0  0  0
   27.4574  -20.1474  -11.8786 C   0  0  0  0  0  0  0  0  0  0  0  0
   28.0904  -19.3511  -11.1765 O   0  0  0  0  0  0  0  0  0  0  0  0
   26.2652  -20.7227  -11.3735 N   0  0  0  0  0  0  0  0  0  0  0  0
   25.6573  -20.4016  -10.1369 C   0  0  1  0  0  0  0  0  0  0  0  0
   24.2012  -20.7036  -10.0145 C   0  0  0  0  0  0  0  0  0  0  0  0
   23.4216  -20.2039  -11.2050 C   0  0  0  0  0  0  0  0  0  0  0  0
   21.9640  -20.4290  -11.0370 C   0  0  0  0  0  0  0  0  0  0  0  0
   21.4951  -20.9830  -10.0096 O   0  0  0  0  0  0  0  0  0  0  0  0
   26.3898  -20.8817   -8.9247 C   0  0  0  0  0  0  0  0  0  0  0  0
   26.6262  -22.0997   -8.8868 O   0  0  0  0  0  0  0  0  0  0  0  0
   21.0915  -20.0206  -12.0342 O   0  0  0  0  0  0  0  0  0  0  0  0
   28.1335  -18.0656   -5.9993 C   0  0  0  0  0  0  0  0  0  0  0  0
   28.7065  -19.3912   -6.4555 C   0  0  1  0  0  0  0  0  0  0  0  0
   29.6627  -19.8763   -5.4090 C   0  0  0  0  0  0  0  0  0  0  0  0
   27.5921  -20.3403   -6.7445 C   0  0  2  0  0  0  0  0  0  0  0  0
   26.7953  -20.0391   -7.8819 N   0  0  0  0  0  0  0  0  0  0  0  0
   26.8882  -20.7296   -5.5030 C   0  0  0  0  0  0  0  0  0  0  0  0
   27.6045  -21.1746   -4.4001 O   0  0  0  0  0  0  0  0  0  0  0  0
   25.6618  -20.6771   -5.3972 O   0  0  0  0  0  0  0  0  0  0  0  0
  1  5  1  0
  1  2  1  0
  2  3  1  0
  4  3  1  0
  5  4  1  0
  6  8  1  0
  5  6  1  1
  7  6  2  0
  9  8  1  0
 10 11  1  0
  9 10  1  6
 12 16  1  0
 12 11  1  0
 13 12  2  0
 14  9  1  0
 14 21  1  0
 15 14  2  0
 18 17  1  1
 18 20  1  0
 19 18  1  0
 20 21  1  6
 20 22  1  0
 22 23  1  0
 24 22  2  0
M  END
$$$$
