PEV.pdb
     RDKit          3D

 24 24  0  0  1  0  0  0  0  0999 V2000
   26.6992  -19.1427  -16.5381 N   0  0  0  0  0  0  0  0  0  0  0  0
   27.9001  -18.5296  -17.1209 C   0  0  0  0  0  0  0  0  0  0  0  0
   27.3001  -17.2007  -17.5797 C   0  0  0  0  0  0  0  0  0  0  0  0
   26.5170  -16.8192  -16.3223 C   0  0  0  0  0  0  0  0  0  0  0  0
   26.2032  -18.1305  -15.6319 C   0  0  1  0  0  0  0  0  0  0  0  0
   24.7256  -18.2760  -15.4201 C   0  0  0  0  0  0  0  0  0  0  0  0
   24.1227  -17.4699  -14.7028 O   0  0  0  0  0  0  0  0  0  0  0  0
   24.0068  -19.3307  -16.0353 N   0  0  0  0  0  0  0  0  0  0  0  0
   22.6142  -19.5526  -15.9209 C   0  0  1  0  0  0  0  0  0  0  0  0
   21.9309  -20.1171  -17.1212 C   0  0  0  0  0  0  0  0  0  0  0  0
   22.1001  -19.2334  -18.3317 C   0  0  0  0  0  0  0  0  0  0  0  0
   21.4597  -19.8246  -19.5333 C   0  0  0  0  0  0  0  0  0  0  0  0
   22.0710  -20.6342  -20.2770 O   0  0  0  0  0  0  0  0  0  0  0  0
   22.1861  -20.2843  -14.6889 C   0  0  0  0  0  0  0  0  0  0  0  0
   23.0597  -20.9784  -14.1450 O   0  0  0  0  0  0  0  0  0  0  0  0
   20.1545  -19.4797  -19.8499 O   0  0  0  0  0  0  0  0  0  0  0  0
   21.0442  -18.8802  -11.4803 C   0  0  0  0  0  0  0  0  0  0  0  0
   21.1491  -20.3742  -11.7055 C   0  0  1  0  0  0  0  0  0  0  0  0
   20.6736  -21.0717  -10.4677 C   0  0  0  0  0  0  0  0  0  0  0  0
   20.3934  -20.7444  -12.9376 C   0  0  2  0  0  0  0  0  0  0  0  0
   20.8917  -20.2140  -14.1581 N   0  0  0  0  0  0  0  0  0  0  0  0
   18.9336  -20.6730  -12.7092 C   0  0  0  0  0  0  0  0  0  0  0  0
   18.1272  -19.9207  -13.5526 O   0  0  0  0  0  0  0  0  0  0  0  0
   18.3827  -21.2653  -11.7799 O   0  0  0  0  0  0  0  0  0  0  0  0
  1  5  1  0
  1  2  1  0
  2  3  1  0
  4  3  1  0
  5  4  1  0
  6  8  1  0
  5  6  1  6
  7  6  2  0
  9  8  1  0
 10 11  1  0
  9 10  1  6
 12 16  1  0
 12 11  1  0
 13 12  2  0
 14  9  1  0
 14 21  1  0
 15 14  2  0
 18 17  1  1
 18 20  1  0
 19 18  1  0
 20 21  1  6
 20 22  1  0
 22 23  1  0
 24 22  2  0
M  END
$$$$
