PEV.pdb
     RDKit          3D

 24 24  0  0  1  0  0  0  0  0999 V2000
   26.8671  -20.3375  -16.5931 N   0  0  0  0  0  0  0  0  0  0  0  0
   28.1022  -20.0436  -17.3320 C   0  0  0  0  0  0  0  0  0  0  0  0
   28.1688  -18.5329  -17.1091 C   0  0  0  0  0  0  0  0  0  0  0  0
   27.8894  -18.4775  -15.6062 C   0  0  0  0  0  0  0  0  0  0  0  0
   27.0871  -19.7256  -15.3012 C   0  0  1  0  0  0  0  0  0  0  0  0
   25.7856  -19.3704  -14.6460 C   0  0  0  0  0  0  0  0  0  0  0  0
   25.7822  -18.8024  -13.5482 O   0  0  0  0  0  0  0  0  0  0  0  0
   24.5524  -19.6781  -15.2722 N   0  0  0  0  0  0  0  0  0  0  0  0
   23.2704  -19.3738  -14.7571 C   0  0  1  0  0  0  0  0  0  0  0  0
   22.1987  -19.1043  -15.7597 C   0  0  0  0  0  0  0  0  0  0  0  0
   20.9025  -18.7013  -15.1022 C   0  0  0  0  0  0  0  0  0  0  0  0
   19.8040  -18.5744  -16.0926 C   0  0  0  0  0  0  0  0  0  0  0  0
   19.3949  -19.5619  -16.7557 O   0  0  0  0  0  0  0  0  0  0  0  0
   22.7704  -20.3091  -13.7027 C   0  0  0  0  0  0  0  0  0  0  0  0
   22.5225  -21.4644  -14.0827 O   0  0  0  0  0  0  0  0  0  0  0  0
   19.2095  -17.3385  -16.2969 O   0  0  0  0  0  0  0  0  0  0  0  0
   21.9629  -21.3326   -8.9251 C   0  0  0  0  0  0  0  0  0  0  0  0
   22.5517  -20.3667   -9.9321 C   0  0  1  0  0  0  0  0  0  0  0  0
   24.0448  -20.4195   -9.8183 C   0  0  0  0  0  0  0  0  0  0  0  0
   22.0360  -20.6937  -11.2934 C   0  0  2  0  0  0  0  0  0  0  0  0
   22.5815  -19.9373  -12.3655 N   0  0  0  0  0  0  0  0  0  0  0  0
   20.5700  -20.8905  -11.2749 C   0  0  0  0  0  0  0  0  0  0  0  0
   19.7447  -20.0920  -12.0552 O   0  0  0  0  0  0  0  0  0  0  0  0
   20.0300  -21.7531  -10.5805 O   0  0  0  0  0  0  0  0  0  0  0  0
  1  5  1  0
  1  2  1  0
  2  3  1  0
  4  3  1  0
  5  4  1  0
  6  8  1  0
  5  6  1  6
  7  6  2  0
  9  8  1  0
 10 11  1  0
  9 10  1  6
 12 16  1  0
 12 11  1  0
 13 12  2  0
 14  9  1  0
 14 21  1  0
 15 14  2  0
 18 17  1  1
 18 20  1  0
 19 18  1  0
 20 21  1  6
 20 22  1  0
 22 23  1  0
 24 22  2  0
M  END
$$$$
