PEV.pdb
     RDKit          3D

 24 24  0  0  1  0  0  0  0  0999 V2000
   17.1342  -12.3480  -14.2871 N   0  0  0  0  0  0  0  0  0  0  0  0
   16.1857  -13.1091  -15.1108 C   0  0  0  0  0  0  0  0  0  0  0  0
   14.9100  -12.3243  -14.8058 C   0  0  0  0  0  0  0  0  0  0  0  0
   15.4327  -10.8974  -14.9792 C   0  0  0  0  0  0  0  0  0  0  0  0
   16.9184  -10.9772  -14.6945 C   0  0  1  0  0  0  0  0  0  0  0  0
   17.2987  -10.0249  -13.6000 C   0  0  0  0  0  0  0  0  0  0  0  0
   16.9481  -10.2503  -12.4364 O   0  0  0  0  0  0  0  0  0  0  0  0
   18.0597   -8.8637  -13.8832 N   0  0  0  0  0  0  0  0  0  0  0  0
   18.5108   -7.9232  -12.9274 C   0  0  1  0  0  0  0  0  0  0  0  0
   19.6891   -7.0944  -13.3161 C   0  0  0  0  0  0  0  0  0  0  0  0
   20.1589   -6.2185  -12.1817 C   0  0  0  0  0  0  0  0  0  0  0  0
   21.2637   -5.3221  -12.6052 C   0  0  0  0  0  0  0  0  0  0  0  0
   21.7980   -5.4223  -13.7396 O   0  0  0  0  0  0  0  0  0  0  0  0
   17.4443   -7.0605  -12.3317 C   0  0  0  0  0  0  0  0  0  0  0  0
   16.6768   -6.5178  -13.1424 O   0  0  0  0  0  0  0  0  0  0  0  0
   21.7234   -4.3473  -11.7329 O   0  0  0  0  0  0  0  0  0  0  0  0
   14.7334   -5.7927   -8.4160 C   0  0  0  0  0  0  0  0  0  0  0  0
   15.9212   -6.5872   -8.9174 C   0  0  1  0  0  0  0  0  0  0  0  0
   15.5588   -8.0409   -8.8953 C   0  0  0  0  0  0  0  0  0  0  0  0
   16.3228   -6.0834  -10.2631 C   0  0  2  0  0  0  0  0  0  0  0  0
   17.2946   -6.8561  -10.9542 N   0  0  0  0  0  0  0  0  0  0  0  0
   16.5027   -4.6151  -10.2505 C   0  0  0  0  0  0  0  0  0  0  0  0
   15.4330   -3.7793   -9.9598 O   0  0  0  0  0  0  0  0  0  0  0  0
   17.5869   -4.0824  -10.4928 O   0  0  0  0  0  0  0  0  0  0  0  0
  1  5  1  0
  1  2  1  0
  2  3  1  0
  4  3  1  0
  5  4  1  0
  6  8  1  0
  5  6  1  1
  7  6  2  0
  9  8  1  0
 10 11  1  0
  9 10  1  6
 12 16  1  0
 12 11  1  0
 13 12  2  0
 14  9  1  0
 14 21  1  0
 15 14  2  0
 18 17  1  6
 18 20  1  0
 19 18  1  0
 20 21  1  1
 20 22  1  0
 22 23  1  0
 24 22  2  0
M  END
$$$$
