PEV.pdb
     RDKit          3D

 24 24  0  0  1  0  0  0  0  0999 V2000
   16.4469  -11.1937  -16.2025 N   0  0  0  0  0  0  0  0  0  0  0  0
   15.8576  -12.3802  -16.8367 C   0  0  0  0  0  0  0  0  0  0  0  0
   16.5744  -12.3200  -18.1854 C   0  0  0  0  0  0  0  0  0  0  0  0
   18.0069  -12.0730  -17.7096 C   0  0  0  0  0  0  0  0  0  0  0  0
   17.8706  -11.3902  -16.3643 C   0  0  1  0  0  0  0  0  0  0  0  0
   18.5982  -10.0788  -16.3609 C   0  0  0  0  0  0  0  0  0  0  0  0
   19.8148  -10.0475  -16.5766 O   0  0  0  0  0  0  0  0  0  0  0  0
   17.9057   -8.8677  -16.1131 N   0  0  0  0  0  0  0  0  0  0  0  0
   18.4897   -7.5796  -16.0767 C   0  0  1  0  0  0  0  0  0  0  0  0
   17.5735   -6.4279  -16.3230 C   0  0  0  0  0  0  0  0  0  0  0  0
   18.3323   -5.1431  -16.5426 C   0  0  0  0  0  0  0  0  0  0  0  0
   17.4152   -4.0028  -16.7913 C   0  0  0  0  0  0  0  0  0  0  0  0
   16.1653   -4.1414  -16.7614 O   0  0  0  0  0  0  0  0  0  0  0  0
   19.3560   -7.3076  -14.8884 C   0  0  0  0  0  0  0  0  0  0  0  0
   18.8093   -7.4430  -13.7823 O   0  0  0  0  0  0  0  0  0  0  0  0
   17.9431   -2.7500  -17.0642 O   0  0  0  0  0  0  0  0  0  0  0  0
   22.2235   -9.1345  -13.8718 C   0  0  0  0  0  0  0  0  0  0  0  0
   22.7817   -7.7276  -13.9236 C   0  0  1  0  0  0  0  0  0  0  0  0
   23.6996   -7.6282  -15.1037 C   0  0  0  0  0  0  0  0  0  0  0  0
   21.6566   -6.7481  -13.9471 C   0  0  2  0  0  0  0  0  0  0  0  0
   20.6993   -6.9221  -14.9826 N   0  0  0  0  0  0  0  0  0  0  0  0
   22.1409   -5.3740  -13.6905 C   0  0  0  0  0  0  0  0  0  0  0  0
   22.8276   -5.0788  -12.5206 O   0  0  0  0  0  0  0  0  0  0  0  0
   21.9589   -4.4521  -14.4874 O   0  0  0  0  0  0  0  0  0  0  0  0
  1  5  1  0
  1  2  1  0
  2  3  1  0
  4  3  1  0
  5  4  1  0
  6  8  1  0
  5  6  1  6
  7  6  2  0
  9  8  1  0
 10 11  1  0
  9 10  1  1
 12 16  1  0
 12 11  1  0
 13 12  2  0
 14  9  1  0
 14 21  1  0
 15 14  2  0
 18 17  1  6
 18 20  1  0
 19 18  1  0
 20 21  1  6
 20 22  1  0
 22 23  1  0
 24 22  2  0
M  END
$$$$
