PEV.pdb
     RDKit          3D

 24 24  0  0  1  0  0  0  0  0999 V2000
   19.4838  -12.8387  -15.9548 N   0  0  0  0  0  0  0  0  0  0  0  0
   19.3496  -14.2192  -16.4383 C   0  0  0  0  0  0  0  0  0  0  0  0
   19.1188  -13.9386  -17.9231 C   0  0  0  0  0  0  0  0  0  0  0  0
   20.2297  -12.9169  -18.1720 C   0  0  0  0  0  0  0  0  0  0  0  0
   20.4840  -12.2655  -16.8282 C   0  0  1  0  0  0  0  0  0  0  0  0
   20.3252  -10.7773  -16.9238 C   0  0  0  0  0  0  0  0  0  0  0  0
   21.1234  -10.1133  -17.5944 O   0  0  0  0  0  0  0  0  0  0  0  0
   19.2659  -10.1180  -16.2523 N   0  0  0  0  0  0  0  0  0  0  0  0
   18.9947   -8.7306  -16.3078 C   0  0  1  0  0  0  0  0  0  0  0  0
   17.5589   -8.3312  -16.2356 C   0  0  0  0  0  0  0  0  0  0  0  0
   16.8235   -8.6444  -17.5146 C   0  0  0  0  0  0  0  0  0  0  0  0
   15.3805   -8.3119  -17.4104 C   0  0  0  0  0  0  0  0  0  0  0  0
   14.8473   -7.4443  -18.1489 O   0  0  0  0  0  0  0  0  0  0  0  0
   19.8147   -7.8850  -15.3863 C   0  0  0  0  0  0  0  0  0  0  0  0
   19.9048   -8.2948  -14.2181 O   0  0  0  0  0  0  0  0  0  0  0  0
   14.5946   -8.9707  -16.4772 O   0  0  0  0  0  0  0  0  0  0  0  0
   22.6831   -5.1632  -16.9009 C   0  0  0  0  0  0  0  0  0  0  0  0
   22.6663   -5.6527  -15.4678 C   0  0  1  0  0  0  0  0  0  0  0  0
   23.4657   -4.6980  -14.6345 C   0  0  0  0  0  0  0  0  0  0  0  0
   21.2538   -5.8153  -15.0156 C   0  0  2  0  0  0  0  0  0  0  0  0
   20.4512   -6.7020  -15.7829 N   0  0  0  0  0  0  0  0  0  0  0  0
   20.6614   -4.5131  -14.6390 C   0  0  0  0  0  0  0  0  0  0  0  0
   19.5319   -4.0403  -15.2932 O   0  0  0  0  0  0  0  0  0  0  0  0
   21.1356   -3.8072  -13.7475 O   0  0  0  0  0  0  0  0  0  0  0  0
  1  5  1  0
  1  2  1  0
  2  3  1  0
  4  3  1  0
  5  4  1  0
  6  8  1  0
  5  6  1  6
  7  6  2  0
  9  8  1  0
 10 11  1  0
  9 10  1  1
 12 16  1  0
 12 11  1  0
 13 12  2  0
 14  9  1  0
 14 21  1  0
 15 14  2  0
 18 17  1  6
 18 20  1  0
 19 18  1  0
 20 21  1  6
 20 22  1  0
 22 23  1  0
 24 22  2  0
M  END
$$$$
