PEV.pdb
     RDKit          3D

 24 24  0  0  1  0  0  0  0  0999 V2000
   27.7016  -19.9844  -17.5807 N   0  0  0  0  0  0  0  0  0  0  0  0
   28.5317  -19.5491  -18.7116 C   0  0  0  0  0  0  0  0  0  0  0  0
   28.2317  -18.0507  -18.6747 C   0  0  0  0  0  0  0  0  0  0  0  0
   28.3996  -17.7870  -17.1774 C   0  0  0  0  0  0  0  0  0  0  0  0
   28.1073  -19.1109  -16.5017 C   0  0  1  0  0  0  0  0  0  0  0  0
   27.0091  -18.9579  -15.4919 C   0  0  0  0  0  0  0  0  0  0  0  0
   27.1540  -18.1903  -14.5340 O   0  0  0  0  0  0  0  0  0  0  0  0
   25.7999  -19.6850  -15.6221 N   0  0  0  0  0  0  0  0  0  0  0  0
   24.6599  -19.5387  -14.7971 C   0  0  1  0  0  0  0  0  0  0  0  0
   23.3464  -19.4185  -15.4948 C   0  0  0  0  0  0  0  0  0  0  0  0
   22.2441  -19.0080  -14.5507 C   0  0  0  0  0  0  0  0  0  0  0  0
   20.9300  -18.9482  -15.2385 C   0  0  0  0  0  0  0  0  0  0  0  0
   20.6746  -18.0680  -16.1000 O   0  0  0  0  0  0  0  0  0  0  0  0
   24.5606  -20.5170  -13.6704 C   0  0  0  0  0  0  0  0  0  0  0  0
   24.2932  -21.6849  -13.9945 O   0  0  0  0  0  0  0  0  0  0  0  0
   19.9546  -19.8834  -14.9279 O   0  0  0  0  0  0  0  0  0  0  0  0
   26.9282  -20.9301  -10.7083 C   0  0  0  0  0  0  0  0  0  0  0  0
   25.5493  -20.8458  -10.0878 C   0  0  1  0  0  0  0  0  0  0  0  0
   25.4708  -19.5838   -9.2839 C   0  0  0  0  0  0  0  0  0  0  0  0
   24.5160  -20.9467  -11.1593 C   0  0  2  0  0  0  0  0  0  0  0  0
   24.7496  -20.1705  -12.3264 N   0  0  0  0  0  0  0  0  0  0  0  0
   23.1516  -20.9244  -10.5879 C   0  0  0  0  0  0  0  0  0  0  0  0
   22.7986  -21.8107   -9.5793 O   0  0  0  0  0  0  0  0  0  0  0  0
   22.2884  -20.1351  -10.9749 O   0  0  0  0  0  0  0  0  0  0  0  0
  1  5  1  0
  1  2  1  0
  2  3  1  0
  4  3  1  0
  5  4  1  0
  6  8  1  0
  5  6  1  1
  7  6  2  0
  9  8  1  0
 10 11  1  0
  9 10  1  6
 12 16  1  0
 12 11  1  0
 13 12  2  0
 14  9  1  0
 14 21  1  0
 15 14  2  0
 18 17  1  6
 18 20  1  0
 19 18  1  0
 20 21  1  6
 20 22  1  0
 22 23  1  0
 24 22  2  0
M  END
$$$$
