PEV.pdb
     RDKit          3D

 24 24  0  0  1  0  0  0  0  0999 V2000
   19.3021  -14.3809  -18.6273 N   0  0  0  0  0  0  0  0  0  0  0  0
   18.1308  -15.2400  -18.8454 C   0  0  0  0  0  0  0  0  0  0  0  0
   17.1996  -14.6617  -17.7800 C   0  0  0  0  0  0  0  0  0  0  0  0
   17.3839  -13.1682  -18.0541 C   0  0  0  0  0  0  0  0  0  0  0  0
   18.7587  -13.0415  -18.6776 C   0  0  1  0  0  0  0  0  0  0  0  0
   19.6087  -12.0866  -17.8934 C   0  0  0  0  0  0  0  0  0  0  0  0
   19.7483  -12.2420  -16.6752 O   0  0  0  0  0  0  0  0  0  0  0  0
   20.2585  -11.0026  -18.5340 N   0  0  0  0  0  0  0  0  0  0  0  0
   21.0547  -10.0256  -17.8912 C   0  0  1  0  0  0  0  0  0  0  0  0
   22.0470   -9.3104  -18.7457 C   0  0  0  0  0  0  0  0  0  0  0  0
   22.9726   -8.4450  -17.9277 C   0  0  0  0  0  0  0  0  0  0  0  0
   23.9836   -7.7695  -18.7793 C   0  0  0  0  0  0  0  0  0  0  0  0
   25.0128   -8.3685  -19.1845 O   0  0  0  0  0  0  0  0  0  0  0  0
   20.3027   -9.0500  -17.0431 C   0  0  0  0  0  0  0  0  0  0  0  0
   19.3700   -8.4554  -17.6064 O   0  0  0  0  0  0  0  0  0  0  0  0
   23.7947   -6.4443  -19.1410 O   0  0  0  0  0  0  0  0  0  0  0  0
   20.4829   -9.1893  -12.7244 C   0  0  0  0  0  0  0  0  0  0  0  0
   19.3630   -8.6206  -13.5706 C   0  0  1  0  0  0  0  0  0  0  0  0
   18.5349   -7.7160  -12.7098 C   0  0  0  0  0  0  0  0  0  0  0  0
   19.9401   -7.9516  -14.7728 C   0  0  2  0  0  0  0  0  0  0  0  0
   20.6061   -8.7990  -15.6989 N   0  0  0  0  0  0  0  0  0  0  0  0
   20.6079   -6.6830  -14.4079 C   0  0  0  0  0  0  0  0  0  0  0  0
   19.8698   -5.6219  -13.9013 O   0  0  0  0  0  0  0  0  0  0  0  0
   21.8220   -6.5175  -14.5355 O   0  0  0  0  0  0  0  0  0  0  0  0
  1  5  1  0
  1  2  1  0
  2  3  1  0
  4  3  1  0
  5  4  1  0
  6  8  1  0
  5  6  1  1
  7  6  2  0
  9  8  1  0
 10 11  1  0
  9 10  1  6
 12 16  1  0
 12 11  1  0
 13 12  2  0
 14  9  1  0
 14 21  1  0
 15 14  2  0
 18 17  1  1
 18 20  1  0
 19 18  1  0
 20 21  1  1
 20 22  1  0
 22 23  1  0
 24 22  2  0
M  END
$$$$
