PEV.pdb
     RDKit          3D

 24 24  0  0  1  0  0  0  0  0999 V2000
   19.6631  -12.7227  -15.9720 N   0  0  0  0  0  0  0  0  0  0  0  0
   19.3279  -14.0510  -16.5018 C   0  0  0  0  0  0  0  0  0  0  0  0
   18.5825  -13.6300  -17.7681 C   0  0  0  0  0  0  0  0  0  0  0  0
   19.5533  -12.5773  -18.3055 C   0  0  0  0  0  0  0  0  0  0  0  0
   20.2934  -12.0569  -17.0905 C   0  0  1  0  0  0  0  0  0  0  0  0
   20.1486  -10.5681  -16.9811 C   0  0  0  0  0  0  0  0  0  0  0  0
   20.7077   -9.8318  -17.8015 O   0  0  0  0  0  0  0  0  0  0  0  0
   19.3745   -9.9906  -15.9444 N   0  0  0  0  0  0  0  0  0  0  0  0
   19.0713   -8.6149  -15.8136 C   0  0  1  0  0  0  0  0  0  0  0  0
   17.6799   -8.2786  -15.3924 C   0  0  0  0  0  0  0  0  0  0  0  0
   17.4004   -6.8008  -15.5049 C   0  0  0  0  0  0  0  0  0  0  0  0
   16.0107   -6.4753  -15.0970 C   0  0  0  0  0  0  0  0  0  0  0  0
   15.1331   -6.1537  -15.9389 O   0  0  0  0  0  0  0  0  0  0  0  0
   20.0591   -7.8185  -15.0221 C   0  0  0  0  0  0  0  0  0  0  0  0
   20.3730   -8.2942  -13.9195 O   0  0  0  0  0  0  0  0  0  0  0  0
   15.6645   -6.5249  -13.7553 O   0  0  0  0  0  0  0  0  0  0  0  0
   21.9609   -4.3008  -16.7707 C   0  0  0  0  0  0  0  0  0  0  0  0
   22.6437   -5.2449  -15.8032 C   0  0  1  0  0  0  0  0  0  0  0  0
   23.7482   -4.4996  -15.1179 C   0  0  0  0  0  0  0  0  0  0  0  0
   21.6300   -5.8182  -14.8706 C   0  0  2  0  0  0  0  0  0  0  0  0
   20.6119   -6.6105  -15.4662 N   0  0  0  0  0  0  0  0  0  0  0  0
   21.2144   -4.8230  -13.8580 C   0  0  0  0  0  0  0  0  0  0  0  0
   22.1346   -4.3225  -12.9469 O   0  0  0  0  0  0  0  0  0  0  0  0
   20.0580   -4.4050  -13.7815 O   0  0  0  0  0  0  0  0  0  0  0  0
  1  5  1  0
  1  2  1  0
  2  3  1  0
  4  3  1  0
  5  4  1  0
  6  8  1  0
  5  6  1  1
  7  6  2  0
  9  8  1  0
 10 11  1  0
  9 10  1  1
 12 16  1  0
 12 11  1  0
 13 12  2  0
 14  9  1  0
 14 21  1  0
 15 14  2  0
 18 17  1  6
 18 20  1  0
 19 18  1  0
 20 21  1  6
 20 22  1  0
 22 23  1  0
 24 22  2  0
M  END
$$$$
