IAC.pdb
     RDKit          3D

 20 19  0  0  1  0  0  0  0  0999 V2000
    5.7688  -11.5212   26.8056 C   0  0  0  0  0  0  0  0  0  0  0  0
    5.6289  -12.8407   26.1147 C   0  0  0  0  0  0  0  0  0  0  0  0
    6.9402  -13.5154   25.8572 C   0  0  2  0  0  0  0  0  0  0  0  0
    7.7868  -12.6059   25.0068 C   0  0  0  0  0  0  0  0  0  0  0  0
    6.6939  -14.8366   25.1735 C   0  0  2  0  0  0  0  0  0  0  0  0
    5.6497  -15.5644   25.8207 N   0  0  0  0  0  0  0  0  0  0  0  0
    7.9144  -15.6692   25.1000 C   0  0  0  0  0  0  0  0  0  0  0  0
    8.2442  -16.3759   26.1036 O   0  0  0  0  0  0  0  0  0  0  0  0
   10.6870  -16.2521   22.5796 C   0  0  0  0  0  0  0  0  0  0  0  0
    9.9869  -16.4928   23.9103 C   0  0  2  0  0  0  0  0  0  0  0  0
    8.7534  -15.7307   23.9643 N   0  0  0  0  0  0  0  0  0  0  0  0
   10.8846  -16.1915   25.0359 C   0  0  0  0  0  0  0  0  0  0  0  0
   11.9090  -15.5020   24.7969 O   0  0  0  0  0  0  0  0  0  0  0  0
   10.6815  -16.6204   26.3714 N   0  0  0  0  0  0  0  0  0  0  0  0
   11.5984  -16.3432   27.4564 C   0  0  1  0  0  0  0  0  0  0  0  0
   10.8316  -15.4364   28.4296 C   0  0  0  0  0  0  0  0  0  0  0  0
   10.4361  -13.8654   27.6458 S   0  0  0  0  0  0  0  0  0  0  0  0
   11.8442  -17.6084   28.1883 C   0  0  0  0  0  0  0  0  0  0  0  0
   11.3108  -18.7007   27.8496 O   0  0  0  0  0  0  0  0  0  0  0  0
   12.6765  -17.6256   29.2774 O   0  0  0  0  0  0  0  0  0  0  0  0
  2  1  1  0
  3  2  1  0
  3  5  1  0
  3  4  1  6
  5  7  1  0
  5  6  1  1
  7 11  1  0
  7  8  2  0
 10  9  1  6
 10 12  1  0
 11 10  1  0
 12 14  1  0
 13 12  2  0
 14 15  1  0
 15 18  1  0
 15 16  1  1
 16 17  1  0
 18 20  1  0
 19 18  2  0
M  END
$$$$
