IAC.pdb
     RDKit          3D

 20 19  0  0  1  0  0  0  0  0999 V2000
    7.5549  -12.1666   27.6210 C   0  0  0  0  0  0  0  0  0  0  0  0
    6.7487  -13.2712   27.0146 C   0  0  0  0  0  0  0  0  0  0  0  0
    7.3872  -13.8719   25.8010 C   0  0  2  0  0  0  0  0  0  0  0  0
    7.6420  -12.7744   24.8022 C   0  0  0  0  0  0  0  0  0  0  0  0
    6.4775  -14.9321   25.2336 C   0  0  2  0  0  0  0  0  0  0  0  0
    6.2045  -15.9472   26.2000 N   0  0  0  0  0  0  0  0  0  0  0  0
    7.0249  -15.5449   24.0035 C   0  0  0  0  0  0  0  0  0  0  0  0
    7.3587  -16.7711   24.0174 O   0  0  0  0  0  0  0  0  0  0  0  0
    7.6022  -14.4518   20.4207 C   0  0  0  0  0  0  0  0  0  0  0  0
    7.6906  -15.4503   21.5670 C   0  0  2  0  0  0  0  0  0  0  0  0
    7.2039  -14.8415   22.7908 N   0  0  0  0  0  0  0  0  0  0  0  0
    9.0597  -15.9710   21.7030 C   0  0  0  0  0  0  0  0  0  0  0  0
    9.5666  -16.5468   20.7064 O   0  0  0  0  0  0  0  0  0  0  0  0
    9.8512  -15.8722   22.8745 N   0  0  0  0  0  0  0  0  0  0  0  0
   11.1672  -16.4591   23.0112 C   0  0  1  0  0  0  0  0  0  0  0  0
   11.7115  -15.9550   24.3553 C   0  0  0  0  0  0  0  0  0  0  0  0
   12.0362  -14.1865   24.2785 S   0  0  0  0  0  0  0  0  0  0  0  0
   11.0060  -17.9248   23.1623 C   0  0  0  0  0  0  0  0  0  0  0  0
   11.9911  -18.7075   23.2581 O   0  0  0  0  0  0  0  0  0  0  0  0
    9.7539  -18.4812   23.2027 O   0  0  0  0  0  0  0  0  0  0  0  0
  2  1  1  0
  3  2  1  0
  3  5  1  0
  3  4  1  6
  5  7  1  0
  5  6  1  1
  7 11  1  0
  7  8  2  0
 10  9  1  6
 10 12  1  0
 11 10  1  0
 12 14  1  0
 13 12  2  0
 14 15  1  0
 15 18  1  0
 15 16  1  1
 16 17  1  0
 18 20  1  0
 19 18  2  0
M  END
$$$$
