IAC.pdb
     RDKit          3D

 20 19  0  0  1  0  0  0  0  0999 V2000
    6.3163  -11.1232   27.4092 C   0  0  0  0  0  0  0  0  0  0  0  0
    5.8508  -12.3946   26.7728 C   0  0  0  0  0  0  0  0  0  0  0  0
    6.9021  -13.0577   25.9383 C   0  0  2  0  0  0  0  0  0  0  0  0
    7.3270  -12.1010   24.8560 C   0  0  0  0  0  0  0  0  0  0  0  0
    6.3453  -14.3331   25.3580 C   0  0  2  0  0  0  0  0  0  0  0  0
    5.9618  -15.2434   26.3891 N   0  0  0  0  0  0  0  0  0  0  0  0
    7.2934  -14.9927   24.4338 C   0  0  0  0  0  0  0  0  0  0  0  0
    8.3022  -15.6012   24.9106 O   0  0  0  0  0  0  0  0  0  0  0  0
    7.7606  -15.2424   20.6854 C   0  0  0  0  0  0  0  0  0  0  0  0
    8.0564  -15.6623   22.1189 C   0  0  2  0  0  0  0  0  0  0  0  0
    7.1472  -14.9899   23.0281 N   0  0  0  0  0  0  0  0  0  0  0  0
    9.4682  -15.4212   22.4541 C   0  0  0  0  0  0  0  0  0  0  0  0
    9.8805  -14.2333   22.4238 O   0  0  0  0  0  0  0  0  0  0  0  0
   10.3999  -16.4284   22.8091 N   0  0  0  0  0  0  0  0  0  0  0  0
   11.7860  -16.1674   23.1340 C   0  0  1  0  0  0  0  0  0  0  0  0
   11.8961  -16.3321   24.6564 C   0  0  0  0  0  0  0  0  0  0  0  0
   10.8968  -17.7218   25.2122 S   0  0  0  0  0  0  0  0  0  0  0  0
   12.6100  -17.2510   22.5477 C   0  0  0  0  0  0  0  0  0  0  0  0
   12.1018  -18.2423   21.9548 O   0  0  0  0  0  0  0  0  0  0  0  0
   13.9772  -17.2036   22.6360 O   0  0  0  0  0  0  0  0  0  0  0  0
  2  1  1  0
  3  2  1  0
  3  5  1  0
  3  4  1  6
  5  7  1  0
  5  6  1  1
  7 11  1  0
  7  8  2  0
 10  9  1  6
 10 12  1  0
 11 10  1  0
 12 14  1  0
 13 12  2  0
 14 15  1  0
 15 18  1  0
 15 16  1  1
 16 17  1  0
 18 20  1  0
 19 18  2  0
M  END
$$$$
