IAC.pdb
     RDKit          3D

 20 19  0  0  1  0  0  0  0  0999 V2000
    7.6713  -12.1078   27.6724 C   0  0  0  0  0  0  0  0  0  0  0  0
    6.7903  -13.1485   27.0570 C   0  0  0  0  0  0  0  0  0  0  0  0
    7.4586  -13.9144   25.9579 C   0  0  2  0  0  0  0  0  0  0  0  0
    7.9713  -12.9346   24.9360 C   0  0  0  0  0  0  0  0  0  0  0  0
    6.4699  -14.8768   25.3499 C   0  0  2  0  0  0  0  0  0  0  0  0
    5.9870  -15.8025   26.3240 N   0  0  0  0  0  0  0  0  0  0  0  0
    7.0347  -15.6114   24.1968 C   0  0  0  0  0  0  0  0  0  0  0  0
    7.3612  -16.8314   24.3385 O   0  0  0  0  0  0  0  0  0  0  0  0
    7.5681  -14.9158   20.5139 C   0  0  0  0  0  0  0  0  0  0  0  0
    7.7099  -15.7705   21.7662 C   0  0  2  0  0  0  0  0  0  0  0  0
    7.2384  -15.0330   22.9234 N   0  0  0  0  0  0  0  0  0  0  0  0
    9.0945  -16.2412   21.9244 C   0  0  0  0  0  0  0  0  0  0  0  0
    9.5784  -16.9500   21.0051 O   0  0  0  0  0  0  0  0  0  0  0  0
    9.9251  -15.9556   23.0367 N   0  0  0  0  0  0  0  0  0  0  0  0
   11.2205  -16.5634   23.2538 C   0  0  1  0  0  0  0  0  0  0  0  0
   12.2222  -15.4014   23.3131 C   0  0  0  0  0  0  0  0  0  0  0  0
   13.0417  -15.1963   21.7240 S   0  0  0  0  0  0  0  0  0  0  0  0
   11.2246  -17.1724   24.6051 C   0  0  0  0  0  0  0  0  0  0  0  0
   12.2210  -17.7968   25.0630 O   0  0  0  0  0  0  0  0  0  0  0  0
   10.1207  -17.0710   25.4115 O   0  0  0  0  0  0  0  0  0  0  0  0
  2  1  1  0
  3  2  1  0
  3  5  1  0
  3  4  1  6
  5  7  1  0
  5  6  1  1
  7 11  1  0
  7  8  2  0
 10  9  1  6
 10 12  1  0
 11 10  1  0
 12 14  1  0
 13 12  2  0
 14 15  1  0
 15 18  1  0
 15 16  1  1
 16 17  1  0
 18 20  1  0
 19 18  2  0
M  END
$$$$
