IAC.pdb
     RDKit          3D

 20 19  0  0  1  0  0  0  0  0999 V2000
    5.6157  -11.4625   26.2651 C   0  0  0  0  0  0  0  0  0  0  0  0
    5.5513  -12.8937   25.8346 C   0  0  0  0  0  0  0  0  0  0  0  0
    6.8962  -13.4869   25.5505 C   0  0  2  0  0  0  0  0  0  0  0  0
    7.5925  -12.6256   24.5304 C   0  0  0  0  0  0  0  0  0  0  0  0
    6.7216  -14.8990   25.0514 C   0  0  2  0  0  0  0  0  0  0  0  0
    5.9135  -15.6648   25.9456 N   0  0  0  0  0  0  0  0  0  0  0  0
    8.0147  -15.5834   24.8329 C   0  0  0  0  0  0  0  0  0  0  0  0
    8.5277  -16.2568   25.7809 O   0  0  0  0  0  0  0  0  0  0  0  0
   10.6247  -15.7261   22.0975 C   0  0  0  0  0  0  0  0  0  0  0  0
    9.9876  -16.2232   23.3883 C   0  0  2  0  0  0  0  0  0  0  0  0
    8.7301  -15.5359   23.6150 N   0  0  0  0  0  0  0  0  0  0  0  0
   10.9180  -16.0823   24.5190 C   0  0  0  0  0  0  0  0  0  0  0  0
   12.0807  -15.6723   24.2704 O   0  0  0  0  0  0  0  0  0  0  0  0
   10.6018  -16.3743   25.8694 N   0  0  0  0  0  0  0  0  0  0  0  0
   11.3296  -15.8426   27.0018 C   0  0  1  0  0  0  0  0  0  0  0  0
   10.4963  -14.6599   27.5156 C   0  0  0  0  0  0  0  0  0  0  0  0
   11.1737  -14.0387   29.0629 S   0  0  0  0  0  0  0  0  0  0  0  0
   11.3062  -16.8559   28.0832 C   0  0  0  0  0  0  0  0  0  0  0  0
   11.9491  -16.7120   29.1595 O   0  0  0  0  0  0  0  0  0  0  0  0
   10.5688  -18.0025   27.9393 O   0  0  0  0  0  0  0  0  0  0  0  0
  2  1  1  0
  3  2  1  0
  3  5  1  0
  3  4  1  6
  5  7  1  0
  5  6  1  1
  7 11  1  0
  7  8  2  0
 10  9  1  6
 10 12  1  0
 11 10  1  0
 12 14  1  0
 13 12  2  0
 14 15  1  0
 15 18  1  0
 15 16  1  1
 16 17  1  0
 18 20  1  0
 19 18  2  0
M  END
$$$$
