IAC.pdb
     RDKit          3D

 20 19  0  0  1  0  0  0  0  0999 V2000
    6.7500  -12.2321   19.0602 C   0  0  0  0  0  0  0  0  0  0  0  0
    7.5109  -13.4929   19.3236 C   0  0  0  0  0  0  0  0  0  0  0  0
    7.5235  -13.8851   20.7683 C   0  0  2  0  0  0  0  0  0  0  0  0
    8.1550  -12.7712   21.5605 C   0  0  0  0  0  0  0  0  0  0  0  0
    8.2879  -15.1751   20.9268 C   0  0  2  0  0  0  0  0  0  0  0  0
    7.8000  -16.1758   20.0327 N   0  0  0  0  0  0  0  0  0  0  0  0
    8.2534  -15.6836   22.3155 C   0  0  0  0  0  0  0  0  0  0  0  0
    8.7306  -14.9667   23.2502 O   0  0  0  0  0  0  0  0  0  0  0  0
    6.6781  -18.5425   24.1881 C   0  0  0  0  0  0  0  0  0  0  0  0
    7.7572  -17.4809   24.0220 C   0  0  2  0  0  0  0  0  0  0  0  0
    7.7139  -16.9389   22.6768 N   0  0  0  0  0  0  0  0  0  0  0  0
    9.0806  -18.0212   24.3690 C   0  0  0  0  0  0  0  0  0  0  0  0
    9.2155  -18.5525   25.5010 O   0  0  0  0  0  0  0  0  0  0  0  0
   10.2166  -17.9878   23.5222 N   0  0  0  0  0  0  0  0  0  0  0  0
   11.4936  -18.5787   23.8613 C   0  0  1  0  0  0  0  0  0  0  0  0
   12.2407  -18.7500   22.5310 C   0  0  0  0  0  0  0  0  0  0  0  0
   11.3081  -19.8140   21.4188 S   0  0  0  0  0  0  0  0  0  0  0  0
   12.2710  -17.5845   24.6385 C   0  0  0  0  0  0  0  0  0  0  0  0
   11.8344  -16.4263   24.8841 O   0  0  0  0  0  0  0  0  0  0  0  0
   13.5132  -17.9043   25.1220 O   0  0  0  0  0  0  0  0  0  0  0  0
  2  1  1  0
  3  2  1  0
  3  5  1  0
  3  4  1  1
  5  7  1  0
  5  6  1  6
  7 11  1  0
  7  8  2  0
 10  9  1  6
 10 12  1  0
 11 10  1  0
 12 14  1  0
 13 12  2  0
 14 15  1  0
 15 18  1  0
 15 16  1  6
 16 17  1  0
 18 20  1  0
 19 18  2  0
M  END
$$$$
