IAC.pdb
     RDKit          3D

 20 19  0  0  1  0  0  0  0  0999 V2000
    5.5779  -11.3661   26.5328 C   0  0  0  0  0  0  0  0  0  0  0  0
    5.4654  -12.6668   25.8024 C   0  0  0  0  0  0  0  0  0  0  0  0
    6.7778  -13.3681   25.6381 C   0  0  2  0  0  0  0  0  0  0  0  0
    7.6877  -12.4933   24.8170 C   0  0  0  0  0  0  0  0  0  0  0  0
    6.5492  -14.7018   24.9729 C   0  0  2  0  0  0  0  0  0  0  0  0
    5.4951  -15.4220   25.6124 N   0  0  0  0  0  0  0  0  0  0  0  0
    7.7736  -15.5311   24.9375 C   0  0  0  0  0  0  0  0  0  0  0  0
    8.0786  -16.2302   25.9541 O   0  0  0  0  0  0  0  0  0  0  0  0
   10.5243  -16.2622   22.4299 C   0  0  0  0  0  0  0  0  0  0  0  0
    9.8117  -16.4547   23.7618 C   0  0  2  0  0  0  0  0  0  0  0  0
    8.6427  -15.5975   23.8249 N   0  0  0  0  0  0  0  0  0  0  0  0
   10.7343  -16.2322   24.8858 C   0  0  0  0  0  0  0  0  0  0  0  0
   11.5316  -15.2631   24.8031 O   0  0  0  0  0  0  0  0  0  0  0  0
   10.7920  -17.0291   26.0563 N   0  0  0  0  0  0  0  0  0  0  0  0
   11.4291  -16.6109   27.2868 C   0  0  1  0  0  0  0  0  0  0  0  0
   10.4956  -15.5598   27.9039 C   0  0  0  0  0  0  0  0  0  0  0  0
   11.2071  -13.9147   27.7420 S   0  0  0  0  0  0  0  0  0  0  0  0
   11.4233  -17.7594   28.2237 C   0  0  0  0  0  0  0  0  0  0  0  0
   10.7714  -18.8155   27.9955 O   0  0  0  0  0  0  0  0  0  0  0  0
   12.1423  -17.7032   29.3894 O   0  0  0  0  0  0  0  0  0  0  0  0
  2  1  1  0
  3  2  1  0
  3  5  1  0
  3  4  1  6
  5  7  1  0
  5  6  1  1
  7 11  1  0
  7  8  2  0
 10  9  1  6
 10 12  1  0
 11 10  1  0
 12 14  1  0
 13 12  2  0
 14 15  1  0
 15 18  1  0
 15 16  1  1
 16 17  1  0
 18 20  1  0
 19 18  2  0
M  END
$$$$
