IAC.pdb
     RDKit          3D

 20 19  0  0  1  0  0  0  0  0999 V2000
    8.0046  -12.0102   20.6177 C   0  0  0  0  0  0  0  0  0  0  0  0
    7.4451  -13.3516   20.9721 C   0  0  0  0  0  0  0  0  0  0  0  0
    8.2645  -14.4908   20.4505 C   0  0  2  0  0  0  0  0  0  0  0  0
    8.3295  -14.3849   18.9499 C   0  0  0  0  0  0  0  0  0  0  0  0
    7.6392  -15.7926   20.8838 C   0  0  2  0  0  0  0  0  0  0  0  0
    6.3102  -15.9191   20.3772 N   0  0  0  0  0  0  0  0  0  0  0  0
    7.6327  -15.9527   22.3544 C   0  0  0  0  0  0  0  0  0  0  0  0
    6.6258  -15.5504   23.0174 O   0  0  0  0  0  0  0  0  0  0  0  0
    9.6284  -17.8170   24.9308 C   0  0  0  0  0  0  0  0  0  0  0  0
    8.7000  -16.6794   24.5273 C   0  0  2  0  0  0  0  0  0  0  0  0
    8.6940  -16.5353   23.0836 N   0  0  0  0  0  0  0  0  0  0  0  0
    9.0695  -15.4331   25.2159 C   0  0  0  0  0  0  0  0  0  0  0  0
   10.0932  -14.8245   24.8116 O   0  0  0  0  0  0  0  0  0  0  0  0
    8.3574  -14.8662   26.3023 N   0  0  0  0  0  0  0  0  0  0  0  0
    8.7775  -13.6747   27.0087 C   0  0  1  0  0  0  0  0  0  0  0  0
    7.4934  -13.0474   27.5696 C   0  0  0  0  0  0  0  0  0  0  0  0
    6.2269  -12.9610   26.2939 S   0  0  0  0  0  0  0  0  0  0  0  0
    9.5735  -14.0927   28.1871 C   0  0  0  0  0  0  0  0  0  0  0  0
    9.7067  -15.3029   28.5190 O   0  0  0  0  0  0  0  0  0  0  0  0
   10.2003  -13.1542   28.9651 O   0  0  0  0  0  0  0  0  0  0  0  0
  2  1  1  0
  3  2  1  0
  3  5  1  0
  3  4  1  6
  5  7  1  0
  5  6  1  1
  7 11  1  0
  7  8  2  0
 10  9  1  6
 10 12  1  0
 11 10  1  0
 12 14  1  0
 13 12  2  0
 14 15  1  0
 15 18  1  0
 15 16  1  1
 16 17  1  0
 18 20  1  0
 19 18  2  0
M  END
$$$$
