QDA.pdb
     RDKit          3D

 23 22  0  0  1  0  0  0  0  0999 V2000
   10.2589  -13.2267   20.5087 N   0  0  0  0  0  0  0  0  0  0  0  0
    9.4244  -12.9565   19.3703 C   0  0  0  0  0  0  0  0  0  0  0  0
    9.9834  -12.7216   18.2649 O   0  0  0  0  0  0  0  0  0  0  0  0
    7.9595  -12.9743   19.5801 C   0  0  0  0  0  0  0  0  0  0  0  0
    7.5731  -13.3959   20.9783 C   0  0  0  0  0  0  0  0  0  0  0  0
    7.5050  -14.9266   21.0689 C   0  0  2  0  0  0  0  0  0  0  0  0
    6.2608  -15.2589   20.3510 N   0  0  0  0  0  0  0  0  0  0  0  0
    7.3130  -15.2906   22.4887 C   0  0  0  0  0  0  0  0  0  0  0  0
    6.3380  -14.8262   23.1187 O   0  0  0  0  0  0  0  0  0  0  0  0
    8.1815  -16.1596   23.2181 N   0  0  0  0  0  0  0  0  0  0  0  0
    8.0199  -16.3667   24.6511 C   0  0  1  0  0  0  0  0  0  0  0  0
    8.2423  -17.8342   24.9978 C   0  0  0  0  0  0  0  0  0  0  0  0
    7.1392  -18.6788   24.5033 C   0  0  0  0  0  0  0  0  0  0  0  0
    6.1026  -18.1729   24.0000 O   0  0  0  0  0  0  0  0  0  0  0  0
    8.8611  -15.4822   25.4613 C   0  0  0  0  0  0  0  0  0  0  0  0
   10.1126  -15.3702   25.2149 O   0  0  0  0  0  0  0  0  0  0  0  0
    7.2193  -20.0615   24.5827 O   0  0  0  0  0  0  0  0  0  0  0  0
    8.6557  -12.7341   28.0051 C   0  0  0  0  0  0  0  0  0  0  0  0
    9.3459  -13.9732   27.4155 C   0  0  2  0  0  0  0  0  0  0  0  0
    8.3982  -14.6901   26.5559 N   0  0  0  0  0  0  0  0  0  0  0  0
    9.7978  -14.8130   28.5422 C   0  0  0  0  0  0  0  0  0  0  0  0
   10.8751  -14.4272   29.3303 O   0  0  0  0  0  0  0  0  0  0  0  0
    9.1801  -15.8948   28.7738 O   0  0  0  0  0  0  0  0  0  0  0  0
  2  1  1  0
  2  3  2  0
  4  2  1  0
  5  4  1  0
  6  8  1  0
  6  5  1  0
  6  7  1  6
  8 10  1  0
  9  8  2  0
 11 10  1  0
 11 15  1  0
 11 12  1  6
 12 13  1  0
 13 14  2  0
 13 17  1  0
 15 16  2  0
 15 20  1  0
 19 21  1  0
 19 18  1  1
 20 19  1  0
 21 22  1  0
 23 21  2  0
M  END
$$$$
