QDA.pdb
     RDKit          3D

 23 22  0  0  1  0  0  0  0  0999 V2000
    7.6182  -12.8383   19.9628 N   0  0  0  0  0  0  0  0  0  0  0  0
    7.0488  -13.6003   18.8855 C   0  0  0  0  0  0  0  0  0  0  0  0
    6.2672  -13.0132   18.0894 O   0  0  0  0  0  0  0  0  0  0  0  0
    7.4245  -15.0284   18.7885 C   0  0  0  0  0  0  0  0  0  0  0  0
    8.3480  -15.4680   19.9002 C   0  0  0  0  0  0  0  0  0  0  0  0
    8.7605  -16.9324   19.6968 C   0  0  2  0  0  0  0  0  0  0  0  0
    7.5076  -17.6770   19.9196 N   0  0  0  0  0  0  0  0  0  0  0  0
    9.6963  -17.2967   20.7815 C   0  0  0  0  0  0  0  0  0  0  0  0
    9.4731  -18.3136   21.4739 O   0  0  0  0  0  0  0  0  0  0  0  0
   10.8725  -16.5544   21.1087 N   0  0  0  0  0  0  0  0  0  0  0  0
   11.7030  -16.9123   22.2510 C   0  0  1  0  0  0  0  0  0  0  0  0
   13.1135  -16.3649   22.0666 C   0  0  0  0  0  0  0  0  0  0  0  0
   13.6918  -16.7867   20.7773 C   0  0  0  0  0  0  0  0  0  0  0  0
   13.5740  -17.9691   20.3626 O   0  0  0  0  0  0  0  0  0  0  0  0
   11.1253  -16.5075   23.5349 C   0  0  0  0  0  0  0  0  0  0  0  0
   11.7450  -16.7445   24.6301 O   0  0  0  0  0  0  0  0  0  0  0  0
   14.3851  -15.8826   19.9856 O   0  0  0  0  0  0  0  0  0  0  0  0
    8.1110  -14.6155   24.8731 C   0  0  0  0  0  0  0  0  0  0  0  0
    9.4090  -15.4233   25.0216 C   0  0  2  0  0  0  0  0  0  0  0  0
    9.8736  -15.8383   23.6938 N   0  0  0  0  0  0  0  0  0  0  0  0
    9.1168  -16.5869   25.8815 C   0  0  0  0  0  0  0  0  0  0  0  0
    8.9510  -16.4349   27.2527 O   0  0  0  0  0  0  0  0  0  0  0  0
    9.0209  -17.7282   25.3398 O   0  0  0  0  0  0  0  0  0  0  0  0
  2  1  1  0
  2  3  2  0
  4  2  1  0
  5  4  1  0
  6  8  1  0
  6  5  1  0
  6  7  1  1
  8 10  1  0
  9  8  2  0
 11 10  1  0
 11 15  1  0
 11 12  1  6
 12 13  1  0
 13 14  2  0
 13 17  1  0
 15 16  2  0
 15 20  1  0
 19 21  1  0
 19 18  1  6
 20 19  1  0
 21 22  1  0
 23 21  2  0
M  END
$$$$
