QDA.pdb
     RDKit          3D

 23 22  0  0  1  0  0  0  0  0999 V2000
    7.1730  -12.9608   18.8563 N   0  0  0  0  0  0  0  0  0  0  0  0
    7.4990  -13.3678   17.5171 C   0  0  0  0  0  0  0  0  0  0  0  0
    7.0619  -12.6724   16.5606 O   0  0  0  0  0  0  0  0  0  0  0  0
    8.3303  -14.5818   17.3575 C   0  0  0  0  0  0  0  0  0  0  0  0
    8.7490  -15.1828   18.6788 C   0  0  0  0  0  0  0  0  0  0  0  0
    9.2977  -16.6001   18.4645 C   0  0  2  0  0  0  0  0  0  0  0  0
    8.1061  -17.3748   18.0723 N   0  0  0  0  0  0  0  0  0  0  0  0
    9.7545  -17.1142   19.7730 C   0  0  0  0  0  0  0  0  0  0  0  0
    8.9493  -17.7186   20.5142 O   0  0  0  0  0  0  0  0  0  0  0  0
   11.0862  -16.9701   20.2703 N   0  0  0  0  0  0  0  0  0  0  0  0
   11.4689  -17.4879   21.5773 C   0  0  1  0  0  0  0  0  0  0  0  0
   12.9362  -17.9000   21.5696 C   0  0  0  0  0  0  0  0  0  0  0  0
   13.2842  -18.6796   22.7721 C   0  0  0  0  0  0  0  0  0  0  0  0
   13.5218  -19.9137   22.7060 O   0  0  0  0  0  0  0  0  0  0  0  0
   11.1680  -16.5656   22.6750 C   0  0  0  0  0  0  0  0  0  0  0  0
   11.7728  -15.4404   22.7628 O   0  0  0  0  0  0  0  0  0  0  0  0
   13.3578  -18.0656   24.0139 O   0  0  0  0  0  0  0  0  0  0  0  0
    8.7032  -15.1400   24.6676 C   0  0  0  0  0  0  0  0  0  0  0  0
   10.0513  -15.8611   24.8169 C   0  0  2  0  0  0  0  0  0  0  0  0
   10.2158  -16.8102   23.7109 N   0  0  0  0  0  0  0  0  0  0  0  0
   10.0503  -16.5470   26.1240 C   0  0  0  0  0  0  0  0  0  0  0  0
   10.0957  -17.9336   26.2002 O   0  0  0  0  0  0  0  0  0  0  0  0
   10.0067  -15.8414   27.1754 O   0  0  0  0  0  0  0  0  0  0  0  0
  2  1  1  0
  2  3  2  0
  4  2  1  0
  5  4  1  0
  6  8  1  0
  6  5  1  0
  6  7  1  1
  8 10  1  0
  9  8  2  0
 11 10  1  0
 11 15  1  0
 11 12  1  6
 12 13  1  0
 13 14  2  0
 13 17  1  0
 15 16  2  0
 15 20  1  0
 19 21  1  0
 19 18  1  6
 20 19  1  0
 21 22  1  0
 23 21  2  0
M  END
$$$$
