QDA.pdb
     RDKit          3D

 23 22  0  0  1  0  0  0  0  0999 V2000
    9.1498  -12.2261   19.2221 N   0  0  0  0  0  0  0  0  0  0  0  0
    8.3493  -13.2112   18.5483 C   0  0  0  0  0  0  0  0  0  0  0  0
    8.5322  -13.3831   17.3128 O   0  0  0  0  0  0  0  0  0  0  0  0
    7.3620  -13.9575   19.3598 C   0  0  0  0  0  0  0  0  0  0  0  0
    7.4332  -13.6153   20.8294 C   0  0  0  0  0  0  0  0  0  0  0  0
    8.6919  -14.2314   21.4553 C   0  0  2  0  0  0  0  0  0  0  0  0
    8.9438  -15.4212   20.6216 N   0  0  0  0  0  0  0  0  0  0  0  0
    8.3422  -14.7020   22.8122 C   0  0  0  0  0  0  0  0  0  0  0  0
    7.8025  -13.9140   23.6190 O   0  0  0  0  0  0  0  0  0  0  0  0
    8.5796  -16.0287   23.2866 N   0  0  0  0  0  0  0  0  0  0  0  0
    8.3139  -16.3992   24.6704 C   0  0  1  0  0  0  0  0  0  0  0  0
    8.2274  -17.9153   24.8006 C   0  0  0  0  0  0  0  0  0  0  0  0
    6.9712  -18.4352   24.2293 C   0  0  0  0  0  0  0  0  0  0  0  0
    5.8818  -17.8230   24.3780 O   0  0  0  0  0  0  0  0  0  0  0  0
    9.2738  -15.8252   25.6167 C   0  0  0  0  0  0  0  0  0  0  0  0
   10.5329  -15.9663   25.4314 O   0  0  0  0  0  0  0  0  0  0  0  0
    6.9614  -19.6210   23.5093 O   0  0  0  0  0  0  0  0  0  0  0  0
    9.4339  -13.2797   28.3610 C   0  0  0  0  0  0  0  0  0  0  0  0
    9.9650  -14.5441   27.6691 C   0  0  2  0  0  0  0  0  0  0  0  0
    8.9252  -15.0840   26.7867 N   0  0  0  0  0  0  0  0  0  0  0  0
   10.3363  -15.5090   28.7226 C   0  0  0  0  0  0  0  0  0  0  0  0
    9.6820  -16.7299   28.8323 O   0  0  0  0  0  0  0  0  0  0  0  0
   11.2659  -15.1977   29.5252 O   0  0  0  0  0  0  0  0  0  0  0  0
  2  1  1  0
  2  3  2  0
  4  2  1  0
  5  4  1  0
  6  8  1  0
  6  5  1  0
  6  7  1  6
  8 10  1  0
  9  8  2  0
 11 10  1  0
 11 15  1  0
 11 12  1  6
 12 13  1  0
 13 14  2  0
 13 17  1  0
 15 16  2  0
 15 20  1  0
 19 21  1  0
 19 18  1  1
 20 19  1  0
 21 22  1  0
 23 21  2  0
M  END
$$$$
