QDA.pdb
     RDKit          3D

 23 22  0  0  1  0  0  0  0  0999 V2000
    6.7778  -13.4015   19.7632 N   0  0  0  0  0  0  0  0  0  0  0  0
    8.1511  -13.1989   19.3911 C   0  0  0  0  0  0  0  0  0  0  0  0
    8.4176  -12.2695   18.5819 O   0  0  0  0  0  0  0  0  0  0  0  0
    9.1593  -14.1020   19.9896 C   0  0  0  0  0  0  0  0  0  0  0  0
    8.5554  -15.0997   20.9499 C   0  0  0  0  0  0  0  0  0  0  0  0
    9.5376  -16.2518   21.2021 C   0  0  2  0  0  0  0  0  0  0  0  0
    8.8760  -17.4114   20.5764 N   0  0  0  0  0  0  0  0  0  0  0  0
    9.5869  -16.4974   22.6589 C   0  0  0  0  0  0  0  0  0  0  0  0
    8.5210  -16.6120   23.3022 O   0  0  0  0  0  0  0  0  0  0  0  0
   10.7958  -16.6188   23.4110 N   0  0  0  0  0  0  0  0  0  0  0  0
   10.7788  -16.9774   24.8230 C   0  0  1  0  0  0  0  0  0  0  0  0
   11.9559  -17.8897   25.1471 C   0  0  0  0  0  0  0  0  0  0  0  0
   11.8949  -19.1445   24.3747 C   0  0  0  0  0  0  0  0  0  0  0  0
   10.8152  -19.7762   24.2365 O   0  0  0  0  0  0  0  0  0  0  0  0
   10.7291  -15.8154   25.7137 C   0  0  0  0  0  0  0  0  0  0  0  0
   11.6147  -14.8943   25.6307 O   0  0  0  0  0  0  0  0  0  0  0  0
   13.0356  -19.6618   23.7783 O   0  0  0  0  0  0  0  0  0  0  0  0
    8.5755  -13.7136   27.7655 C   0  0  0  0  0  0  0  0  0  0  0  0
    9.8858  -14.5119   27.6940 C   0  0  2  0  0  0  0  0  0  0  0  0
    9.7373  -15.5965   26.7179 N   0  0  0  0  0  0  0  0  0  0  0  0
   10.1667  -15.0342   29.0457 C   0  0  0  0  0  0  0  0  0  0  0  0
   10.5121  -14.1763   30.0828 O   0  0  0  0  0  0  0  0  0  0  0  0
   10.0857  -16.2839   29.2384 O   0  0  0  0  0  0  0  0  0  0  0  0
  2  1  1  0
  2  3  2  0
  4  2  1  0
  5  4  1  0
  6  8  1  0
  6  5  1  0
  6  7  1  6
  8 10  1  0
  9  8  2  0
 11 10  1  0
 11 15  1  0
 11 12  1  1
 12 13  1  0
 13 14  2  0
 13 17  1  0
 15 16  2  0
 15 20  1  0
 19 21  1  0
 19 18  1  1
 20 19  1  0
 21 22  1  0
 23 21  2  0
M  END
$$$$
