QDA.pdb
     RDKit          3D

 23 22  0  0  1  0  0  0  0  0999 V2000
    9.0245  -12.2724   19.2921 N   0  0  0  0  0  0  0  0  0  0  0  0
    8.3848  -13.2210   18.4224 C   0  0  0  0  0  0  0  0  0  0  0  0
    8.5097  -13.0655   17.1775 O   0  0  0  0  0  0  0  0  0  0  0  0
    7.6212  -14.3190   19.0560 C   0  0  0  0  0  0  0  0  0  0  0  0
    7.5552  -14.1946   20.5601 C   0  0  0  0  0  0  0  0  0  0  0  0
    8.9492  -14.3990   21.1691 C   0  0  2  0  0  0  0  0  0  0  0  0
    9.5754  -15.3871   20.2716 N   0  0  0  0  0  0  0  0  0  0  0  0
    8.7795  -15.0393   22.4905 C   0  0  0  0  0  0  0  0  0  0  0  0
    7.8997  -14.6178   23.2724 O   0  0  0  0  0  0  0  0  0  0  0  0
    9.5666  -16.1370   22.9565 N   0  0  0  0  0  0  0  0  0  0  0  0
    9.4418  -16.6362   24.3195 C   0  0  1  0  0  0  0  0  0  0  0  0
    9.9414  -18.0740   24.3998 C   0  0  0  0  0  0  0  0  0  0  0  0
    9.0810  -18.9883   23.6262 C   0  0  0  0  0  0  0  0  0  0  0  0
    7.8673  -18.7272   23.4199 O   0  0  0  0  0  0  0  0  0  0  0  0
   10.0932  -15.7772   25.3115 C   0  0  0  0  0  0  0  0  0  0  0  0
   11.3692  -15.6775   25.3471 O   0  0  0  0  0  0  0  0  0  0  0  0
    9.5937  -20.1670   23.1043 O   0  0  0  0  0  0  0  0  0  0  0  0
    9.4261  -13.0325   27.7527 C   0  0  0  0  0  0  0  0  0  0  0  0
   10.1493  -14.3328   27.3711 C   0  0  2  0  0  0  0  0  0  0  0  0
    9.4091  -14.9982   26.2938 N   0  0  0  0  0  0  0  0  0  0  0  0
   10.2219  -15.1766   28.5800 C   0  0  0  0  0  0  0  0  0  0  0  0
   11.0156  -14.8074   29.6591 O   0  0  0  0  0  0  0  0  0  0  0  0
    9.5435  -16.2463   28.6106 O   0  0  0  0  0  0  0  0  0  0  0  0
  2  1  1  0
  2  3  2  0
  4  2  1  0
  5  4  1  0
  6  8  1  0
  6  5  1  0
  6  7  1  6
  8 10  1  0
  9  8  2  0
 11 10  1  0
 11 15  1  0
 11 12  1  6
 12 13  1  0
 13 14  2  0
 13 17  1  0
 15 16  2  0
 15 20  1  0
 19 21  1  0
 19 18  1  1
 20 19  1  0
 21 22  1  0
 23 21  2  0
M  END
$$$$
