QDA.pdb
     RDKit          3D

 23 22  0  0  1  0  0  0  0  0999 V2000
    8.7173  -12.5548   18.1566 N   0  0  0  0  0  0  0  0  0  0  0  0
    8.1064  -13.8308   17.9037 C   0  0  0  0  0  0  0  0  0  0  0  0
    8.1579  -14.2936   16.7321 O   0  0  0  0  0  0  0  0  0  0  0  0
    7.4573  -14.5134   19.0452 C   0  0  0  0  0  0  0  0  0  0  0  0
    7.3617  -13.6388   20.2732 C   0  0  0  0  0  0  0  0  0  0  0  0
    8.7140  -13.5959   20.9981 C   0  0  2  0  0  0  0  0  0  0  0  0
    9.6242  -14.2916   20.0701 N   0  0  0  0  0  0  0  0  0  0  0  0
    8.6027  -14.4220   22.2189 C   0  0  0  0  0  0  0  0  0  0  0  0
    7.6590  -14.2237   23.0147 O   0  0  0  0  0  0  0  0  0  0  0  0
    9.5177  -15.4619   22.5693 N   0  0  0  0  0  0  0  0  0  0  0  0
    9.3986  -16.1857   23.8281 C   0  0  1  0  0  0  0  0  0  0  0  0
   10.0883  -17.5408   23.7218 C   0  0  0  0  0  0  0  0  0  0  0  0
    9.5132  -18.3553   22.6353 C   0  0  0  0  0  0  0  0  0  0  0  0
    8.2750  -18.5686   22.5622 O   0  0  0  0  0  0  0  0  0  0  0  0
    9.8767  -15.4204   24.9822 C   0  0  0  0  0  0  0  0  0  0  0  0
   11.1096  -15.0877   25.0759 O   0  0  0  0  0  0  0  0  0  0  0  0
   10.3304  -18.9100   21.6612 O   0  0  0  0  0  0  0  0  0  0  0  0
    8.6579  -13.1588   27.6498 C   0  0  0  0  0  0  0  0  0  0  0  0
    9.6423  -14.2471   27.1957 C   0  0  2  0  0  0  0  0  0  0  0  0
    9.0600  -14.9851   26.0700 N   0  0  0  0  0  0  0  0  0  0  0  0
    9.8964  -15.1314   28.3500 C   0  0  0  0  0  0  0  0  0  0  0  0
   10.6016  -14.6732   29.4561 O   0  0  0  0  0  0  0  0  0  0  0  0
    9.4564  -16.3188   28.3085 O   0  0  0  0  0  0  0  0  0  0  0  0
  2  1  1  0
  2  3  2  0
  4  2  1  0
  5  4  1  0
  6  8  1  0
  6  5  1  0
  6  7  1  6
  8 10  1  0
  9  8  2  0
 11 10  1  0
 11 15  1  0
 11 12  1  6
 12 13  1  0
 13 14  2  0
 13 17  1  0
 15 16  2  0
 15 20  1  0
 19 21  1  0
 19 18  1  1
 20 19  1  0
 21 22  1  0
 23 21  2  0
M  END
$$$$
