QDA.pdb
     RDKit          3D

 23 22  0  0  1  0  0  0  0  0999 V2000
    6.5883  -13.2630   18.9031 N   0  0  0  0  0  0  0  0  0  0  0  0
    7.8084  -13.6219   18.2340 C   0  0  0  0  0  0  0  0  0  0  0  0
    7.8323  -13.5754   16.9743 O   0  0  0  0  0  0  0  0  0  0  0  0
    8.9560  -14.0223   19.0784 C   0  0  0  0  0  0  0  0  0  0  0  0
    8.5708  -14.2474   20.5217 C   0  0  0  0  0  0  0  0  0  0  0  0
    9.8148  -14.5882   21.3537 C   0  0  2  0  0  0  0  0  0  0  0  0
   10.3785  -15.7634   20.6646 N   0  0  0  0  0  0  0  0  0  0  0  0
    9.3621  -15.0281   22.6904 C   0  0  0  0  0  0  0  0  0  0  0  0
    8.7154  -14.2396   23.4137 O   0  0  0  0  0  0  0  0  0  0  0  0
    9.6133  -16.3248   23.2353 N   0  0  0  0  0  0  0  0  0  0  0  0
    9.2222  -16.6651   24.5969 C   0  0  1  0  0  0  0  0  0  0  0  0
    9.2581  -18.1764   24.7912 C   0  0  0  0  0  0  0  0  0  0  0  0
   10.6220  -18.7104   24.6196 C   0  0  0  0  0  0  0  0  0  0  0  0
   11.5729  -17.9716   24.2539 O   0  0  0  0  0  0  0  0  0  0  0  0
   10.0093  -15.9662   25.6159 C   0  0  0  0  0  0  0  0  0  0  0  0
   11.2437  -15.6947   25.4107 O   0  0  0  0  0  0  0  0  0  0  0  0
   10.8901  -20.0503   24.8588 O   0  0  0  0  0  0  0  0  0  0  0  0
    9.7001  -13.5910   28.3584 C   0  0  0  0  0  0  0  0  0  0  0  0
   10.3881  -14.8654   27.8466 C   0  0  2  0  0  0  0  0  0  0  0  0
    9.5088  -15.5341   26.8818 N   0  0  0  0  0  0  0  0  0  0  0  0
   10.6645  -15.7252   29.0142 C   0  0  0  0  0  0  0  0  0  0  0  0
   11.5383  -15.3111   30.0121 O   0  0  0  0  0  0  0  0  0  0  0  0
   10.0863  -16.8503   29.0851 O   0  0  0  0  0  0  0  0  0  0  0  0
  2  1  1  0
  2  3  2  0
  4  2  1  0
  5  4  1  0
  6  8  1  0
  6  5  1  0
  6  7  1  6
  8 10  1  0
  9  8  2  0
 11 10  1  0
 11 15  1  0
 11 12  1  1
 12 13  1  0
 13 14  2  0
 13 17  1  0
 15 16  2  0
 15 20  1  0
 19 21  1  0
 19 18  1  1
 20 19  1  0
 21 22  1  0
 23 21  2  0
M  END
$$$$
