QDA.pdb
     RDKit          3D

 23 22  0  0  1  0  0  0  0  0999 V2000
    6.9653  -12.9121   19.4280 N   0  0  0  0  0  0  0  0  0  0  0  0
    7.7668  -13.6893   18.5231 C   0  0  0  0  0  0  0  0  0  0  0  0
    7.8096  -13.3370   17.3133 O   0  0  0  0  0  0  0  0  0  0  0  0
    8.4887  -14.8544   19.0813 C   0  0  0  0  0  0  0  0  0  0  0  0
    8.2476  -15.0387   20.5612 C   0  0  0  0  0  0  0  0  0  0  0  0
    9.5746  -14.9527   21.3277 C   0  0  2  0  0  0  0  0  0  0  0  0
   10.4557  -15.8809   20.5956 N   0  0  0  0  0  0  0  0  0  0  0  0
    9.3576  -15.5133   22.6781 C   0  0  0  0  0  0  0  0  0  0  0  0
    8.3842  -15.1239   23.3592 O   0  0  0  0  0  0  0  0  0  0  0  0
   10.1997  -16.4966   23.2827 N   0  0  0  0  0  0  0  0  0  0  0  0
    9.9796  -16.9473   24.6506 C   0  0  1  0  0  0  0  0  0  0  0  0
   10.6553  -18.2951   24.8743 C   0  0  0  0  0  0  0  0  0  0  0  0
   10.2671  -19.2718   23.8399 C   0  0  0  0  0  0  0  0  0  0  0  0
    9.0746  -19.6546   23.7157 O   0  0  0  0  0  0  0  0  0  0  0  0
   10.3845  -15.9617   25.6559 C   0  0  0  0  0  0  0  0  0  0  0  0
   11.5932  -15.5419   25.7048 O   0  0  0  0  0  0  0  0  0  0  0  0
   11.2151  -19.7957   22.9731 O   0  0  0  0  0  0  0  0  0  0  0  0
    8.9832  -13.4469   28.0248 C   0  0  0  0  0  0  0  0  0  0  0  0
   10.0456  -14.4999   27.6758 C   0  0  2  0  0  0  0  0  0  0  0  0
    9.5180  -15.3920   26.6380 N   0  0  0  0  0  0  0  0  0  0  0  0
   10.3679  -15.2384   28.9126 C   0  0  0  0  0  0  0  0  0  0  0  0
   11.0561  -14.6223   29.9506 O   0  0  0  0  0  0  0  0  0  0  0  0
   10.0023  -16.4479   29.0055 O   0  0  0  0  0  0  0  0  0  0  0  0
  2  1  1  0
  2  3  2  0
  4  2  1  0
  5  4  1  0
  6  8  1  0
  6  5  1  0
  6  7  1  6
  8 10  1  0
  9  8  2  0
 11 10  1  0
 11 15  1  0
 11 12  1  1
 12 13  1  0
 13 14  2  0
 13 17  1  0
 15 16  2  0
 15 20  1  0
 19 21  1  0
 19 18  1  1
 20 19  1  0
 21 22  1  0
 23 21  2  0
M  END
$$$$
