QDA.pdb
     RDKit          3D

 23 22  0  0  1  0  0  0  0  0999 V2000
    9.5668  -13.5901   18.7726 N   0  0  0  0  0  0  0  0  0  0  0  0
    8.2285  -13.1196   18.5428 C   0  0  0  0  0  0  0  0  0  0  0  0
    7.9552  -12.6306   17.4133 O   0  0  0  0  0  0  0  0  0  0  0  0
    7.2618  -13.2446   19.6564 C   0  0  0  0  0  0  0  0  0  0  0  0
    7.8451  -13.9423   20.8627 C   0  0  0  0  0  0  0  0  0  0  0  0
    8.1304  -15.4145   20.5352 C   0  0  2  0  0  0  0  0  0  0  0  0
    6.7862  -15.9967   20.3680 N   0  0  0  0  0  0  0  0  0  0  0  0
    8.7419  -16.0363   21.7287 C   0  0  0  0  0  0  0  0  0  0  0  0
    8.0239  -16.3253   22.7107 O   0  0  0  0  0  0  0  0  0  0  0  0
   10.1322  -16.3428   21.8497 N   0  0  0  0  0  0  0  0  0  0  0  0
   10.6664  -16.9887   23.0414 C   0  0  1  0  0  0  0  0  0  0  0  0
   12.0759  -17.5028   22.7726 C   0  0  0  0  0  0  0  0  0  0  0  0
   12.0846  -18.5218   21.7066 C   0  0  0  0  0  0  0  0  0  0  0  0
   13.0482  -18.6203   20.9032 O   0  0  0  0  0  0  0  0  0  0  0  0
   10.6152  -16.1373   24.2324 C   0  0  0  0  0  0  0  0  0  0  0  0
   11.1781  -14.9871   24.2338 O   0  0  0  0  0  0  0  0  0  0  0  0
   11.0219  -19.4021   21.5635 O   0  0  0  0  0  0  0  0  0  0  0  0
    8.7744  -14.7115   26.6583 C   0  0  0  0  0  0  0  0  0  0  0  0
   10.0342  -15.5895   26.6185 C   0  0  2  0  0  0  0  0  0  0  0  0
    9.9643  -16.4813   25.4562 N   0  0  0  0  0  0  0  0  0  0  0  0
   10.0904  -16.3500   27.8824 C   0  0  0  0  0  0  0  0  0  0  0  0
    9.9837  -17.7354   27.8849 O   0  0  0  0  0  0  0  0  0  0  0  0
   10.2381  -15.7096   28.9656 O   0  0  0  0  0  0  0  0  0  0  0  0
  2  1  1  0
  2  3  2  0
  4  2  1  0
  5  4  1  0
  6  8  1  0
  6  5  1  0
  6  7  1  1
  8 10  1  0
  9  8  2  0
 11 10  1  0
 11 15  1  0
 11 12  1  6
 12 13  1  0
 13 14  2  0
 13 17  1  0
 15 16  2  0
 15 20  1  0
 19 21  1  0
 19 18  1  1
 20 19  1  0
 21 22  1  0
 23 21  2  0
M  END
$$$$
