QKC.pdb
     RDKit          3D

 25 24  0  0  1  0  0  0  0  0999 V2000
   18.0067  -14.5905  -14.0867 N   0  0  0  0  0  0  0  0  0  0  0  0
   16.8115  -14.1670  -14.7037 C   0  0  0  0  0  0  0  0  0  0  0  0
   16.6108  -14.3893  -15.9249 O   0  0  0  0  0  0  0  0  0  0  0  0
   15.7535  -13.4507  -13.9490 C   0  0  0  0  0  0  0  0  0  0  0  0
   16.1446  -13.2429  -12.5025 C   0  0  0  0  0  0  0  0  0  0  0  0
   15.0614  -12.4301  -11.8201 C   0  0  2  0  0  0  0  0  0  0  0  0
   13.7646  -12.7095  -12.4059 N   0  0  0  0  0  0  0  0  0  0  0  0
   15.3563  -10.9539  -11.9661 C   0  0  0  0  0  0  0  0  0  0  0  0
   15.2777  -10.4180  -13.0864 O   0  0  0  0  0  0  0  0  0  0  0  0
   15.7207  -10.1708  -10.8491 N   0  0  0  0  0  0  0  0  0  0  0  0
   15.9172   -8.6937  -10.9368 C   0  0  1  0  0  0  0  0  0  0  0  0
   15.3964   -8.0648   -9.6945 C   0  0  0  0  0  0  0  0  0  0  0  0
   15.5474   -6.6013   -9.6139 C   0  0  0  0  0  0  0  0  0  0  0  0
   14.9933   -5.9684   -8.3629 C   0  0  0  0  0  0  0  0  0  0  0  0
   15.2603   -4.4630   -8.3562 C   0  0  0  0  0  0  0  0  0  0  0  0
   14.6378   -3.8888   -7.1531 N   0  0  0  0  0  0  0  0  0  0  0  0
   17.3232   -8.4732  -11.2709 C   0  0  0  0  0  0  0  0  0  0  0  0
   18.1764   -8.9454  -10.4277 O   0  0  0  0  0  0  0  0  0  0  0  0
   17.8238   -7.8112  -12.4040 N   0  0  0  0  0  0  0  0  0  0  0  0
   19.2675   -7.6428  -12.5441 C   0  0  1  0  0  0  0  0  0  0  0  0
   19.8096   -8.5728  -13.6055 C   0  0  0  0  0  0  0  0  0  0  0  0
   21.5391   -8.1942  -13.8982 S   0  0  0  0  0  0  0  0  0  0  0  0
   19.5504   -6.2330  -12.8507 C   0  0  0  0  0  0  0  0  0  0  0  0
   18.5387   -5.3761  -13.2395 O   0  0  0  0  0  0  0  0  0  0  0  0
   20.7071   -5.7245  -12.7808 O   0  0  0  0  0  0  0  0  0  0  0  0
  2  1  1  0
  2  4  1  0
  3  2  2  0
  5  4  1  0
  6  5  1  0
  6  7  1  6
  8  6  1  0
  8 10  1  0
  9  8  2  0
 10 11  1  0
 11 12  1  1
 12 13  1  0
 13 14  1  0
 14 15  1  0
 15 16  1  0
 17 18  2  0
 17 11  1  0
 19 17  1  0
 20 19  1  0
 20 23  1  0
 20 21  1  6
 22 21  1  0
 23 24  1  0
 25 23  2  0
M  END
$$$$
