QKC.pdb
     RDKit          3D

 25 24  0  0  1  0  0  0  0  0999 V2000
   18.7529  -16.4267  -13.4781 N   0  0  0  0  0  0  0  0  0  0  0  0
   18.5411  -16.1379  -14.8420 C   0  0  0  0  0  0  0  0  0  0  0  0
   18.9161  -16.9449  -15.7304 O   0  0  0  0  0  0  0  0  0  0  0  0
   17.8757  -14.8866  -15.2819 C   0  0  0  0  0  0  0  0  0  0  0  0
   17.4974  -14.0137  -14.1057 C   0  0  0  0  0  0  0  0  0  0  0  0
   16.0754  -13.5250  -14.3031 C   0  0  2  0  0  0  0  0  0  0  0  0
   15.5906  -13.8776  -15.6235 N   0  0  0  0  0  0  0  0  0  0  0  0
   16.0215  -12.0216  -14.1475 C   0  0  0  0  0  0  0  0  0  0  0  0
   16.1810  -11.2932  -15.1438 O   0  0  0  0  0  0  0  0  0  0  0  0
   15.7926  -11.4283  -12.8868 N   0  0  0  0  0  0  0  0  0  0  0  0
   15.5459   -9.9652  -12.7235 C   0  0  1  0  0  0  0  0  0  0  0  0
   14.7664   -9.7454  -11.4768 C   0  0  0  0  0  0  0  0  0  0  0  0
   13.3531  -10.1583  -11.5322 C   0  0  0  0  0  0  0  0  0  0  0  0
   12.5645   -9.9129  -10.2709 C   0  0  0  0  0  0  0  0  0  0  0  0
   11.1786  -10.5512  -10.3686 C   0  0  0  0  0  0  0  0  0  0  0  0
   10.4099  -10.1713   -9.1730 N   0  0  0  0  0  0  0  0  0  0  0  0
   16.8438   -9.3022  -12.8380 C   0  0  0  0  0  0  0  0  0  0  0  0
   17.8445   -9.9486  -12.3454 O   0  0  0  0  0  0  0  0  0  0  0  0
   17.1000   -8.0526  -13.4258 N   0  0  0  0  0  0  0  0  0  0  0  0
   18.4840   -7.6110  -13.5731 C   0  0  1  0  0  0  0  0  0  0  0  0
   19.2681   -8.5938  -14.4124 C   0  0  0  0  0  0  0  0  0  0  0  0
   20.9076   -7.9334  -14.7220 S   0  0  0  0  0  0  0  0  0  0  0  0
   18.4889   -6.2616  -14.1569 C   0  0  0  0  0  0  0  0  0  0  0  0
   19.6146   -5.4637  -14.0865 O   0  0  0  0  0  0  0  0  0  0  0  0
   17.4901   -5.7552  -14.7464 O   0  0  0  0  0  0  0  0  0  0  0  0
  2  1  1  0
  2  4  1  0
  3  2  2  0
  5  4  1  0
  6  5  1  0
  6  7  1  6
  8  6  1  0
  8 10  1  0
  9  8  2  0
 10 11  1  0
 11 12  1  1
 12 13  1  0
 13 14  1  0
 14 15  1  0
 15 16  1  0
 17 18  2  0
 17 11  1  0
 19 17  1  0
 20 19  1  0
 20 23  1  0
 20 21  1  6
 22 21  1  0
 23 24  1  0
 25 23  2  0
M  END
$$$$
