QKC.pdb
     RDKit          3D

 25 24  0  0  1  0  0  0  0  0999 V2000
   13.5906  -13.6290  -11.1906 N   0  0  0  0  0  0  0  0  0  0  0  0
   12.8539  -12.4994  -10.7784 C   0  0  0  0  0  0  0  0  0  0  0  0
   11.7139  -12.6340  -10.2653 O   0  0  0  0  0  0  0  0  0  0  0  0
   13.3848  -11.1220  -10.9300 C   0  0  0  0  0  0  0  0  0  0  0  0
   14.7663  -11.1222  -11.5463 C   0  0  0  0  0  0  0  0  0  0  0  0
   15.2673   -9.6923  -11.6119 C   0  0  2  0  0  0  0  0  0  0  0  0
   14.3115   -8.8449  -12.2981 N   0  0  0  0  0  0  0  0  0  0  0  0
   16.5853   -9.6422  -12.3521 C   0  0  0  0  0  0  0  0  0  0  0  0
   17.5604  -10.2817  -11.9175 O   0  0  0  0  0  0  0  0  0  0  0  0
   16.7288   -8.8795  -13.5317 N   0  0  0  0  0  0  0  0  0  0  0  0
   17.9929   -8.8627  -14.3253 C   0  0  1  0  0  0  0  0  0  0  0  0
   17.6596   -9.0331  -15.7640 C   0  0  0  0  0  0  0  0  0  0  0  0
   18.7991   -8.9410  -16.6936 C   0  0  0  0  0  0  0  0  0  0  0  0
   19.5515  -10.2287  -16.9137 C   0  0  0  0  0  0  0  0  0  0  0  0
   20.6829  -10.0268  -17.9221 C   0  0  0  0  0  0  0  0  0  0  0  0
   21.3702  -11.3142  -18.1091 N   0  0  0  0  0  0  0  0  0  0  0  0
   18.7208   -7.6562  -13.9357 C   0  0  0  0  0  0  0  0  0  0  0  0
   17.9895   -6.6455  -13.6107 O   0  0  0  0  0  0  0  0  0  0  0  0
   20.1152   -7.4973  -13.8797 N   0  0  0  0  0  0  0  0  0  0  0  0
   20.6649   -6.1795  -13.5739 C   0  0  1  0  0  0  0  0  0  0  0  0
   21.7204   -6.2819  -12.4966 C   0  0  0  0  0  0  0  0  0  0  0  0
   22.4832   -4.6751  -12.2595 S   0  0  0  0  0  0  0  0  0  0  0  0
   21.1969   -5.5916  -14.8120 C   0  0  0  0  0  0  0  0  0  0  0  0
   21.1301   -4.2298  -15.0350 O   0  0  0  0  0  0  0  0  0  0  0  0
   21.7366   -6.2749  -15.7304 O   0  0  0  0  0  0  0  0  0  0  0  0
  2  1  1  0
  2  4  1  0
  3  2  2  0
  5  4  1  0
  6  5  1  0
  6  7  1  6
  8  6  1  0
  8 10  1  0
  9  8  2  0
 10 11  1  0
 11 12  1  6
 12 13  1  0
 13 14  1  0
 14 15  1  0
 15 16  1  0
 17 18  2  0
 17 11  1  0
 19 17  1  0
 20 19  1  0
 20 23  1  0
 20 21  1  1
 22 21  1  0
 23 24  1  0
 25 23  2  0
M  END
$$$$
