QKC.pdb
     RDKit          3D

 25 24  0  0  1  0  0  0  0  0999 V2000
   12.0582  -17.6536    4.3320 N   0  0  0  0  0  0  0  0  0  0  0  0
   12.3876  -18.1555    3.0560 C   0  0  0  0  0  0  0  0  0  0  0  0
   11.4877  -18.5732    2.2833 O   0  0  0  0  0  0  0  0  0  0  0  0
   13.7907  -18.2119    2.5765 C   0  0  0  0  0  0  0  0  0  0  0  0
   14.7496  -17.6267    3.5897 C   0  0  0  0  0  0  0  0  0  0  0  0
   16.1280  -17.5477    2.9624 C   0  0  2  0  0  0  0  0  0  0  0  0
   16.5036  -18.8247    2.3870 N   0  0  0  0  0  0  0  0  0  0  0  0
   17.1491  -17.1639    4.0100 C   0  0  0  0  0  0  0  0  0  0  0  0
   18.1383  -17.8940    4.2025 O   0  0  0  0  0  0  0  0  0  0  0  0
   16.9987  -15.9874    4.7761 N   0  0  0  0  0  0  0  0  0  0  0  0
   18.0209  -15.5421    5.7685 C   0  0  1  0  0  0  0  0  0  0  0  0
   18.2130  -14.0740    5.6350 C   0  0  0  0  0  0  0  0  0  0  0  0
   19.2201  -13.4826    6.5334 C   0  0  0  0  0  0  0  0  0  0  0  0
   19.4294  -11.9984    6.3718 C   0  0  0  0  0  0  0  0  0  0  0  0
   20.5427  -11.5068    7.2972 C   0  0  0  0  0  0  0  0  0  0  0  0
   20.7809  -10.0822    7.0170 N   0  0  0  0  0  0  0  0  0  0  0  0
   17.5978  -16.0554    7.0704 C   0  0  0  0  0  0  0  0  0  0  0  0
   16.3327  -15.9913    7.3097 O   0  0  0  0  0  0  0  0  0  0  0  0
   18.4230  -16.6045    8.0655 N   0  0  0  0  0  0  0  0  0  0  0  0
   17.8140  -17.0876    9.3017 C   0  0  1  0  0  0  0  0  0  0  0  0
   18.1168  -18.5548    9.5042 C   0  0  0  0  0  0  0  0  0  0  0  0
   17.4393  -19.4945    8.1338 S   0  0  0  0  0  0  0  0  0  0  0  0
   18.3002  -16.2656   10.4195 C   0  0  0  0  0  0  0  0  0  0  0  0
   17.9224  -16.5430   11.7192 O   0  0  0  0  0  0  0  0  0  0  0  0
   19.0756  -15.2768   10.2698 O   0  0  0  0  0  0  0  0  0  0  0  0
  2  1  1  0
  2  4  1  0
  3  2  2  0
  5  4  1  0
  6  5  1  0
  6  7  1  1
  8  6  1  0
  8 10  1  0
  9  8  2  0
 10 11  1  0
 11 12  1  1
 12 13  1  0
 13 14  1  0
 14 15  1  0
 15 16  1  0
 17 18  2  0
 17 11  1  0
 19 17  1  0
 20 19  1  0
 20 23  1  0
 20 21  1  1
 22 21  1  0
 23 24  1  0
 25 23  2  0
M  END
$$$$
