QKC.pdb
     RDKit          3D

 25 24  0  0  1  0  0  0  0  0999 V2000
   23.2393  -17.2987  -20.3515 N   0  0  0  0  0  0  0  0  0  0  0  0
   21.9036  -17.1089  -19.9411 C   0  0  0  0  0  0  0  0  0  0  0  0
   21.1731  -16.2639  -20.5185 O   0  0  0  0  0  0  0  0  0  0  0  0
   21.3105  -17.8871  -18.8255 C   0  0  0  0  0  0  0  0  0  0  0  0
   22.3194  -18.8276  -18.2042 C   0  0  0  0  0  0  0  0  0  0  0  0
   22.8321  -18.2072  -16.9189 C   0  0  2  0  0  0  0  0  0  0  0  0
   23.4988  -16.9478  -17.1875 N   0  0  0  0  0  0  0  0  0  0  0  0
   23.8108  -19.1457  -16.2490 C   0  0  0  0  0  0  0  0  0  0  0  0
   23.4232  -20.2599  -15.8532 O   0  0  0  0  0  0  0  0  0  0  0  0
   25.1615  -18.7779  -16.0643 N   0  0  0  0  0  0  0  0  0  0  0  0
   26.1458  -19.6645  -15.3764 C   0  0  1  0  0  0  0  0  0  0  0  0
   27.5193  -19.2566  -15.7728 C   0  0  0  0  0  0  0  0  0  0  0  0
   28.5924  -20.1925  -15.3938 C   0  0  0  0  0  0  0  0  0  0  0  0
   28.4931  -21.5643  -16.0110 C   0  0  0  0  0  0  0  0  0  0  0  0
   29.7101  -22.4122  -15.6399 C   0  0  0  0  0  0  0  0  0  0  0  0
   29.4801  -23.7845  -16.1180 N   0  0  0  0  0  0  0  0  0  0  0  0
   25.8148  -19.6394  -13.9527 C   0  0  0  0  0  0  0  0  0  0  0  0
   25.8480  -18.4781  -13.3939 O   0  0  0  0  0  0  0  0  0  0  0  0
   25.4673  -20.7392  -13.1513 N   0  0  0  0  0  0  0  0  0  0  0  0
   25.4091  -20.5679  -11.7023 C   0  0  1  0  0  0  0  0  0  0  0  0
   24.0874  -19.9594  -11.2927 C   0  0  0  0  0  0  0  0  0  0  0  0
   22.7544  -21.0639  -11.7653 S   0  0  0  0  0  0  0  0  0  0  0  0
   25.6363  -21.8725  -11.0636 C   0  0  0  0  0  0  0  0  0  0  0  0
   25.7142  -21.9838   -9.6887 O   0  0  0  0  0  0  0  0  0  0  0  0
   25.7717  -22.9504  -11.7127 O   0  0  0  0  0  0  0  0  0  0  0  0
  2  1  1  0
  2  4  1  0
  3  2  2  0
  5  4  1  0
  6  5  1  0
  6  7  1  6
  8  6  1  0
  8 10  1  0
  9  8  2  0
 10 11  1  0
 11 12  1  1
 12 13  1  0
 13 14  1  0
 14 15  1  0
 15 16  1  0
 17 18  2  0
 17 11  1  0
 19 17  1  0
 20 19  1  0
 20 23  1  0
 20 21  1  6
 22 21  1  0
 23 24  1  0
 25 23  2  0
M  END
$$$$
