QKC.pdb
     RDKit          3D

 25 24  0  0  1  0  0  0  0  0999 V2000
   15.8247  -13.5449  -15.5097 N   0  0  0  0  0  0  0  0  0  0  0  0
   15.5842  -13.0420  -14.2144 C   0  0  0  0  0  0  0  0  0  0  0  0
   14.5903  -13.4352  -13.5521 O   0  0  0  0  0  0  0  0  0  0  0  0
   16.4811  -12.0410  -13.5855 C   0  0  0  0  0  0  0  0  0  0  0  0
   16.2643  -10.6591  -14.1616 C   0  0  0  0  0  0  0  0  0  0  0  0
   17.2103   -9.6939  -13.4735 C   0  0  2  0  0  0  0  0  0  0  0  0
   18.0727  -10.3964  -12.5432 N   0  0  0  0  0  0  0  0  0  0  0  0
   16.4198   -8.6508  -12.7156 C   0  0  0  0  0  0  0  0  0  0  0  0
   15.5248   -8.0124  -13.2987 O   0  0  0  0  0  0  0  0  0  0  0  0
   16.6808   -8.3879  -11.3531 N   0  0  0  0  0  0  0  0  0  0  0  0
   15.8653   -7.4277  -10.5524 C   0  0  1  0  0  0  0  0  0  0  0  0
   16.0609   -7.7189   -9.1078 C   0  0  0  0  0  0  0  0  0  0  0  0
   15.3402   -6.8304   -8.1792 C   0  0  0  0  0  0  0  0  0  0  0  0
   13.8594   -7.0892   -8.0649 C   0  0  0  0  0  0  0  0  0  0  0  0
   13.2139   -6.1065   -7.0875 C   0  0  0  0  0  0  0  0  0  0  0  0
   11.7654   -6.3629   -7.0637 N   0  0  0  0  0  0  0  0  0  0  0  0
   16.2048   -6.0870  -11.0263 C   0  0  0  0  0  0  0  0  0  0  0  0
   17.4650   -5.8339  -11.1248 O   0  0  0  0  0  0  0  0  0  0  0  0
   15.3052   -5.0684  -11.3812 N   0  0  0  0  0  0  0  0  0  0  0  0
   15.8334   -3.7753  -11.8069 C   0  0  1  0  0  0  0  0  0  0  0  0
   15.2669   -3.3882  -13.1539 C   0  0  0  0  0  0  0  0  0  0  0  0
   15.9744   -4.4445  -14.4203 S   0  0  0  0  0  0  0  0  0  0  0  0
   15.5259   -2.7767  -10.7726 C   0  0  0  0  0  0  0  0  0  0  0  0
   16.0955   -1.5185  -10.8115 O   0  0  0  0  0  0  0  0  0  0  0  0
   14.7409   -2.9969   -9.8047 O   0  0  0  0  0  0  0  0  0  0  0  0
  2  1  1  0
  2  4  1  0
  3  2  2  0
  5  4  1  0
  6  5  1  0
  6  7  1  1
  8  6  1  0
  8 10  1  0
  9  8  2  0
 10 11  1  0
 11 12  1  1
 12 13  1  0
 13 14  1  0
 14 15  1  0
 15 16  1  0
 17 18  2  0
 17 11  1  0
 19 17  1  0
 20 19  1  0
 20 23  1  0
 20 21  1  6
 22 21  1  0
 23 24  1  0
 25 23  2  0
M  END
$$$$
