QKC.pdb
     RDKit          3D

 25 24  0  0  1  0  0  0  0  0999 V2000
   15.7900  -12.5835  -15.9427 N   0  0  0  0  0  0  0  0  0  0  0  0
   16.1810  -13.4641  -14.9130 C   0  0  0  0  0  0  0  0  0  0  0  0
   16.2074  -14.7055  -15.1114 O   0  0  0  0  0  0  0  0  0  0  0  0
   16.5729  -12.9709  -13.5695 C   0  0  0  0  0  0  0  0  0  0  0  0
   16.5779  -11.4593  -13.5106 C   0  0  0  0  0  0  0  0  0  0  0  0
   15.7260  -11.0177  -12.3363 C   0  0  2  0  0  0  0  0  0  0  0  0
   14.3207  -11.2542  -12.6044 N   0  0  0  0  0  0  0  0  0  0  0  0
   15.9329   -9.5422  -12.0763 C   0  0  0  0  0  0  0  0  0  0  0  0
   15.7020   -8.7192  -12.9807 O   0  0  0  0  0  0  0  0  0  0  0  0
   16.3850   -9.0810  -10.8207 N   0  0  0  0  0  0  0  0  0  0  0  0
   16.6221   -7.6348  -10.5370 C   0  0  1  0  0  0  0  0  0  0  0  0
   16.3221   -7.3702   -9.1052 C   0  0  0  0  0  0  0  0  0  0  0  0
   16.0477   -5.9631   -8.7649 C   0  0  0  0  0  0  0  0  0  0  0  0
   14.6376   -5.6764   -8.3153 C   0  0  0  0  0  0  0  0  0  0  0  0
   14.4740   -4.1977   -7.9627 C   0  0  0  0  0  0  0  0  0  0  0  0
   13.0418   -3.9260   -7.7637 N   0  0  0  0  0  0  0  0  0  0  0  0
   17.9679   -7.3249  -11.0168 C   0  0  0  0  0  0  0  0  0  0  0  0
   18.8803   -8.1811  -10.7066 O   0  0  0  0  0  0  0  0  0  0  0  0
   18.3535   -6.2054  -11.7724 N   0  0  0  0  0  0  0  0  0  0  0  0
   19.7608   -6.0419  -12.1260 C   0  0  1  0  0  0  0  0  0  0  0  0
   20.2542   -7.2386  -12.9068 C   0  0  0  0  0  0  0  0  0  0  0  0
   21.9102   -6.9086  -13.5140 S   0  0  0  0  0  0  0  0  0  0  0  0
   19.9148   -4.7900  -12.8814 C   0  0  0  0  0  0  0  0  0  0  0  0
   21.1349   -4.1445  -12.9411 O   0  0  0  0  0  0  0  0  0  0  0  0
   18.9664   -4.2357  -13.5098 O   0  0  0  0  0  0  0  0  0  0  0  0
  2  1  1  0
  2  4  1  0
  3  2  2  0
  5  4  1  0
  6  5  1  0
  6  7  1  6
  8  6  1  0
  8 10  1  0
  9  8  2  0
 10 11  1  0
 11 12  1  1
 12 13  1  0
 13 14  1  0
 14 15  1  0
 15 16  1  0
 17 18  2  0
 17 11  1  0
 19 17  1  0
 20 19  1  0
 20 23  1  0
 20 21  1  6
 22 21  1  0
 23 24  1  0
 25 23  2  0
M  END
$$$$
