QKC.pdb
     RDKit          3D

 25 24  0  0  1  0  0  0  0  0999 V2000
   29.2108  -23.2089  -19.6915 N   0  0  0  0  0  0  0  0  0  0  0  0
   29.9910  -22.3643  -18.8751 C   0  0  0  0  0  0  0  0  0  0  0  0
   31.2440  -22.3561  -18.9796 O   0  0  0  0  0  0  0  0  0  0  0  0
   29.3757  -21.4611  -17.8713 C   0  0  0  0  0  0  0  0  0  0  0  0
   27.8657  -21.5509  -17.8926 C   0  0  0  0  0  0  0  0  0  0  0  0
   27.2999  -20.3760  -17.1184 C   0  0  2  0  0  0  0  0  0  0  0  0
   28.3656  -19.5916  -16.5254 N   0  0  0  0  0  0  0  0  0  0  0  0
   26.3894  -20.8748  -16.0187 C   0  0  0  0  0  0  0  0  0  0  0  0
   25.4029  -21.5766  -16.3067 O   0  0  0  0  0  0  0  0  0  0  0  0
   26.6403  -20.5568  -14.6660 N   0  0  0  0  0  0  0  0  0  0  0  0
   25.7127  -20.9521  -13.5653 C   0  0  1  0  0  0  0  0  0  0  0  0
   26.3467  -20.6240  -12.2613 C   0  0  0  0  0  0  0  0  0  0  0  0
   25.5155  -20.8770  -11.0712 C   0  0  0  0  0  0  0  0  0  0  0  0
   26.1834  -20.5891   -9.7508 C   0  0  0  0  0  0  0  0  0  0  0  0
   25.2577  -20.9488   -8.5883 C   0  0  0  0  0  0  0  0  0  0  0  0
   25.8921  -20.5034   -7.3378 N   0  0  0  0  0  0  0  0  0  0  0  0
   24.4184  -20.3412  -13.8633 C   0  0  0  0  0  0  0  0  0  0  0  0
   24.4544  -19.0976  -14.2014 O   0  0  0  0  0  0  0  0  0  0  0  0
   23.1629  -20.9694  -13.8203 N   0  0  0  0  0  0  0  0  0  0  0  0
   21.9655  -20.1748  -14.0792 C   0  0  1  0  0  0  0  0  0  0  0  0
   21.6321  -20.1827  -15.5537 C   0  0  0  0  0  0  0  0  0  0  0  0
   19.9962  -19.4859  -15.7953 S   0  0  0  0  0  0  0  0  0  0  0  0
   20.8631  -20.7032  -13.2626 C   0  0  0  0  0  0  0  0  0  0  0  0
   19.9314  -19.8546  -12.6963 O   0  0  0  0  0  0  0  0  0  0  0  0
   20.6987  -21.9363  -13.0304 O   0  0  0  0  0  0  0  0  0  0  0  0
  2  1  1  0
  2  4  1  0
  3  2  2  0
  5  4  1  0
  6  5  1  0
  6  7  1  1
  8  6  1  0
  8 10  1  0
  9  8  2  0
 10 11  1  0
 11 12  1  1
 12 13  1  0
 13 14  1  0
 14 15  1  0
 15 16  1  0
 17 18  2  0
 17 11  1  0
 19 17  1  0
 20 19  1  0
 20 23  1  0
 20 21  1  6
 22 21  1  0
 23 24  1  0
 25 23  2  0
M  END
$$$$
