QKC.pdb
     RDKit          3D

 25 24  0  0  1  0  0  0  0  0999 V2000
   21.4803   -7.3232  -13.4710 N   0  0  0  0  0  0  0  0  0  0  0  0
   21.4175   -8.6858  -13.8286 C   0  0  0  0  0  0  0  0  0  0  0  0
   22.4095   -9.2539  -14.3525 O   0  0  0  0  0  0  0  0  0  0  0  0
   20.1953   -9.4971  -13.6054 C   0  0  0  0  0  0  0  0  0  0  0  0
   19.0790   -8.6697  -13.0074 C   0  0  0  0  0  0  0  0  0  0  0  0
   17.8569   -9.5524  -12.8427 C   0  0  2  0  0  0  0  0  0  0  0  0
   17.3503   -9.9732  -14.1347 N   0  0  0  0  0  0  0  0  0  0  0  0
   16.7694   -8.7951  -12.1139 C   0  0  0  0  0  0  0  0  0  0  0  0
   16.0456   -8.0006  -12.7412 O   0  0  0  0  0  0  0  0  0  0  0  0
   16.5604   -8.9748  -10.7290 N   0  0  0  0  0  0  0  0  0  0  0  0
   15.4756   -8.2695   -9.9848 C   0  0  1  0  0  0  0  0  0  0  0  0
   14.9039   -9.1978   -8.9742 C   0  0  0  0  0  0  0  0  0  0  0  0
   13.7916   -8.6561   -8.1739 C   0  0  0  0  0  0  0  0  0  0  0  0
   12.4300   -8.7688   -8.8111 C   0  0  0  0  0  0  0  0  0  0  0  0
   11.3457   -8.2615   -7.8600 C   0  0  0  0  0  0  0  0  0  0  0  0
   10.0460   -8.3713   -8.5406 N   0  0  0  0  0  0  0  0  0  0  0  0
   16.0416   -7.0097   -9.5055 C   0  0  0  0  0  0  0  0  0  0  0  0
   17.2069   -7.0946   -8.9607 O   0  0  0  0  0  0  0  0  0  0  0  0
   15.4490   -5.7387   -9.5837 N   0  0  0  0  0  0  0  0  0  0  0  0
   16.1701   -4.5882   -9.0464 C   0  0  1  0  0  0  0  0  0  0  0  0
   17.3153   -4.2075   -9.9567 C   0  0  0  0  0  0  0  0  0  0  0  0
   16.6661   -3.7451  -11.5645 S   0  0  0  0  0  0  0  0  0  0  0  0
   15.2210   -3.4805   -8.8628 C   0  0  0  0  0  0  0  0  0  0  0  0
   15.6074   -2.3144   -8.2306 O   0  0  0  0  0  0  0  0  0  0  0  0
   14.0202   -3.5203   -9.2606 O   0  0  0  0  0  0  0  0  0  0  0  0
  2  1  1  0
  2  4  1  0
  3  2  2  0
  5  4  1  0
  6  5  1  0
  6  7  1  6
  8  6  1  0
  8 10  1  0
  9  8  2  0
 10 11  1  0
 11 12  1  1
 12 13  1  0
 13 14  1  0
 14 15  1  0
 15 16  1  0
 17 18  2  0
 17 11  1  0
 19 17  1  0
 20 19  1  0
 20 23  1  0
 20 21  1  6
 22 21  1  0
 23 24  1  0
 25 23  2  0
M  END
$$$$
