GPD.pdb
     RDKit          3D

 20 20  0  0  1  0  0  0  0  0999 V2000
   14.6329  -22.6222   -2.7599 N   0  0  0  0  0  0  0  0  0  0  0  0
   14.9229  -23.4248   -1.5842 C   0  0  0  0  0  0  0  0  0  0  0  0
   14.3491  -22.8362   -0.3591 C   0  0  0  0  0  0  0  0  0  0  0  0
   13.7314  -21.7595   -0.4278 O   0  0  0  0  0  0  0  0  0  0  0  0
   14.5073  -23.4986    0.8689 N   0  0  0  0  0  0  0  0  0  0  0  0
   15.1827  -24.7693    1.0349 C   0  0  0  0  0  0  0  0  0  0  0  0
   15.0797  -25.1330    2.4928 C   0  0  0  0  0  0  0  0  0  0  0  0
   13.8765  -24.3323    2.9417 C   0  0  0  0  0  0  0  0  0  0  0  0
   14.0355  -23.0473    2.1768 C   0  0  1  0  0  0  0  0  0  0  0  0
   15.0106  -22.1320    2.8098 C   0  0  0  0  0  0  0  0  0  0  0  0
   16.2277  -22.3421    2.6283 O   0  0  0  0  0  0  0  0  0  0  0  0
   14.5586  -21.0487    3.5991 N   0  0  0  0  0  0  0  0  0  0  0  0
   15.4989  -20.0899    4.2079 C   0  0  1  0  0  0  0  0  0  0  0  0
   14.9465  -18.7309    3.9531 C   0  0  0  0  0  0  0  0  0  0  0  0
   15.5995  -17.6118    4.6132 C   0  0  0  0  0  0  0  0  0  0  0  0
   16.6699  -17.7097    5.2478 O   0  0  0  0  0  0  0  0  0  0  0  0
   15.7047  -20.4216    5.6290 C   0  0  0  0  0  0  0  0  0  0  0  0
   16.7410  -20.2353    6.2945 O   0  0  0  0  0  0  0  0  0  0  0  0
   14.9964  -16.3651    4.5317 O   0  0  0  0  0  0  0  0  0  0  0  0
   14.6381  -21.0116    6.3365 O   0  0  0  0  0  0  0  0  0  0  0  0
  2  1  1  0
  3  2  1  0
  4  3  2  0
  5  9  1  0
  5  3  1  0
  6  5  1  0
  7  6  1  0
  7  8  1  0
  8  9  1  0
  9 10  1  1
 10 12  1  0
 11 10  2  0
 13 12  1  0
 13 14  1  1
 14 15  1  0
 15 19  1  0
 16 15  2  0
 17 13  1  0
 18 17  2  0
 20 17  1  0
M  END
$$$$
