GPD.pdb
     RDKit          3D

 20 20  0  0  1  0  0  0  0  0999 V2000
   28.6032  -21.1854  -14.9330 N   0  0  0  0  0  0  0  0  0  0  0  0
   27.9181  -20.6627  -13.7634 C   0  0  0  0  0  0  0  0  0  0  0  0
   26.5763  -21.2540  -13.5998 C   0  0  0  0  0  0  0  0  0  0  0  0
   26.0880  -21.9299  -14.5219 O   0  0  0  0  0  0  0  0  0  0  0  0
   25.8675  -21.0465  -12.4056 N   0  0  0  0  0  0  0  0  0  0  0  0
   26.3413  -20.2399  -11.2995 C   0  0  0  0  0  0  0  0  0  0  0  0
   25.3000  -20.3287  -10.2150 C   0  0  0  0  0  0  0  0  0  0  0  0
   24.5876  -21.6197  -10.5555 C   0  0  0  0  0  0  0  0  0  0  0  0
   24.5547  -21.5879  -12.0587 C   0  0  1  0  0  0  0  0  0  0  0  0
   23.4681  -20.7297  -12.5803 C   0  0  0  0  0  0  0  0  0  0  0  0
   23.6299  -19.4919  -12.5670 O   0  0  0  0  0  0  0  0  0  0  0  0
   22.2800  -21.3131  -13.0790 N   0  0  0  0  0  0  0  0  0  0  0  0
   21.3125  -20.5368  -13.8761 C   0  0  1  0  0  0  0  0  0  0  0  0
   21.3921  -21.0578  -15.2686 C   0  0  0  0  0  0  0  0  0  0  0  0
   20.4291  -20.5427  -16.2288 C   0  0  0  0  0  0  0  0  0  0  0  0
   19.6853  -21.2673  -16.9215 O   0  0  0  0  0  0  0  0  0  0  0  0
   19.9766  -20.6136  -13.2584 C   0  0  0  0  0  0  0  0  0  0  0  0
   19.0992  -19.7295  -13.2698 O   0  0  0  0  0  0  0  0  0  0  0  0
   20.3335  -19.1673  -16.3819 O   0  0  0  0  0  0  0  0  0  0  0  0
   19.6247  -21.7961  -12.5771 O   0  0  0  0  0  0  0  0  0  0  0  0
  2  1  1  0
  3  2  1  0
  4  3  2  0
  5  9  1  0
  5  3  1  0
  6  5  1  0
  7  6  1  0
  7  8  1  0
  8  9  1  0
  9 10  1  1
 10 12  1  0
 11 10  2  0
 13 12  1  0
 13 14  1  6
 14 15  1  0
 15 19  1  0
 16 15  2  0
 17 13  1  0
 18 17  2  0
 20 17  1  0
M  END
$$$$
