GPD.pdb
     RDKit          3D

 20 20  0  0  1  0  0  0  0  0999 V2000
   17.8415  -23.9441  -11.9997 N   0  0  0  0  0  0  0  0  0  0  0  0
   18.3142  -23.8663  -10.6281 C   0  0  0  0  0  0  0  0  0  0  0  0
   17.3721  -24.4958   -9.6833 C   0  0  0  0  0  0  0  0  0  0  0  0
   16.2735  -24.9065  -10.0956 O   0  0  0  0  0  0  0  0  0  0  0  0
   17.7273  -24.6235   -8.3308 N   0  0  0  0  0  0  0  0  0  0  0  0
   18.9442  -24.0959   -7.7484 C   0  0  0  0  0  0  0  0  0  0  0  0
   18.9455  -24.4982   -6.2971 C   0  0  0  0  0  0  0  0  0  0  0  0
   18.0199  -25.6955   -6.2924 C   0  0  0  0  0  0  0  0  0  0  0  0
   16.9608  -25.2933   -7.2815 C   0  0  1  0  0  0  0  0  0  0  0  0
   15.9551  -24.3829   -6.6909 C   0  0  0  0  0  0  0  0  0  0  0  0
   16.2037  -23.1597   -6.6636 O   0  0  0  0  0  0  0  0  0  0  0  0
   14.7451  -24.9014   -6.1735 N   0  0  0  0  0  0  0  0  0  0  0  0
   13.6916  -24.0194   -5.6384 C   0  0  1  0  0  0  0  0  0  0  0  0
   12.3901  -24.5988   -6.0710 C   0  0  0  0  0  0  0  0  0  0  0  0
   12.0633  -24.5205   -7.4859 C   0  0  0  0  0  0  0  0  0  0  0  0
   12.4650  -23.6114   -8.2410 O   0  0  0  0  0  0  0  0  0  0  0  0
   13.8530  -23.8711   -4.1810 C   0  0  0  0  0  0  0  0  0  0  0  0
   14.5971  -24.5433   -3.4421 O   0  0  0  0  0  0  0  0  0  0  0  0
   11.2589  -25.5140   -8.0248 O   0  0  0  0  0  0  0  0  0  0  0  0
   13.1021  -22.8747   -3.5256 O   0  0  0  0  0  0  0  0  0  0  0  0
  2  1  1  0
  3  2  1  0
  4  3  2  0
  5  9  1  0
  5  3  1  0
  6  5  1  0
  7  6  1  0
  7  8  1  0
  8  9  1  0
  9 10  1  1
 10 12  1  0
 11 10  2  0
 13 12  1  0
 13 14  1  1
 14 15  1  0
 15 19  1  0
 16 15  2  0
 17 13  1  0
 18 17  2  0
 20 17  1  0
M  END
$$$$
