GPD.pdb
     RDKit          3D

 20 20  0  0  1  0  0  0  0  0999 V2000
   22.9514  -13.4996  -18.8273 N   0  0  0  0  0  0  0  0  0  0  0  0
   24.0054  -12.5760  -18.4444 C   0  0  0  0  0  0  0  0  0  0  0  0
   23.6253  -11.7584  -17.2766 C   0  0  0  0  0  0  0  0  0  0  0  0
   22.4276  -11.6680  -16.9557 O   0  0  0  0  0  0  0  0  0  0  0  0
   24.6199  -11.0929  -16.5422 N   0  0  0  0  0  0  0  0  0  0  0  0
   26.0421  -11.2141  -16.7892 C   0  0  0  0  0  0  0  0  0  0  0  0
   26.7402  -10.3773  -15.7496 C   0  0  0  0  0  0  0  0  0  0  0  0
   25.7037  -10.2968  -14.6498 C   0  0  0  0  0  0  0  0  0  0  0  0
   24.4181  -10.1770  -15.4207 C   0  0  1  0  0  0  0  0  0  0  0  0
   24.1724   -8.7973  -15.8954 C   0  0  0  0  0  0  0  0  0  0  0  0
   24.4471   -8.5187  -17.0810 O   0  0  0  0  0  0  0  0  0  0  0  0
   23.6383   -7.8280  -15.0146 N   0  0  0  0  0  0  0  0  0  0  0  0
   23.0273   -6.5824  -15.5136 C   0  0  1  0  0  0  0  0  0  0  0  0
   21.9283   -6.9855  -16.4337 C   0  0  0  0  0  0  0  0  0  0  0  0
   21.1084   -5.9248  -16.9973 C   0  0  0  0  0  0  0  0  0  0  0  0
   19.9695   -5.6321  -16.5785 O   0  0  0  0  0  0  0  0  0  0  0  0
   22.6114   -5.7376  -14.3799 C   0  0  0  0  0  0  0  0  0  0  0  0
   22.1525   -6.1279  -13.2896 O   0  0  0  0  0  0  0  0  0  0  0  0
   21.6236   -5.1984  -18.0609 O   0  0  0  0  0  0  0  0  0  0  0  0
   22.7330   -4.3397  -14.5110 O   0  0  0  0  0  0  0  0  0  0  0  0
  2  1  1  0
  3  2  1  0
  4  3  2  0
  5  9  1  0
  5  3  1  0
  6  5  1  0
  7  6  1  0
  7  8  1  0
  8  9  1  0
  9 10  1  6
 10 12  1  0
 11 10  2  0
 13 12  1  0
 13 14  1  6
 14 15  1  0
 15 19  1  0
 16 15  2  0
 17 13  1  0
 18 17  2  0
 20 17  1  0
M  END
$$$$
