GPD.pdb
     RDKit          3D

 20 20  0  0  1  0  0  0  0  0999 V2000
   21.0616  -12.4466  -19.0337 N   0  0  0  0  0  0  0  0  0  0  0  0
   22.2779  -11.7625  -18.6293 C   0  0  0  0  0  0  0  0  0  0  0  0
   22.1202  -11.0770  -17.3324 C   0  0  0  0  0  0  0  0  0  0  0  0
   20.9816  -10.9106  -16.8617 O   0  0  0  0  0  0  0  0  0  0  0  0
   23.2570  -10.6212  -16.6458 N   0  0  0  0  0  0  0  0  0  0  0  0
   24.6219  -10.8643  -17.0658 C   0  0  0  0  0  0  0  0  0  0  0  0
   25.5174  -10.2458  -16.0248 C   0  0  0  0  0  0  0  0  0  0  0  0
   24.6141  -10.1919  -14.8118 C   0  0  0  0  0  0  0  0  0  0  0  0
   23.2818   -9.8371  -15.4123 C   0  0  1  0  0  0  0  0  0  0  0  0
   23.1594   -8.3902  -15.6964 C   0  0  0  0  0  0  0  0  0  0  0  0
   23.3403   -7.9970  -16.8674 O   0  0  0  0  0  0  0  0  0  0  0  0
   22.8441   -7.4864  -14.6551 N   0  0  0  0  0  0  0  0  0  0  0  0
   22.1860   -6.1948  -14.9247 C   0  0  1  0  0  0  0  0  0  0  0  0
   20.8987   -6.5061  -15.6050 C   0  0  0  0  0  0  0  0  0  0  0  0
   19.9836   -5.4001  -15.8376 C   0  0  0  0  0  0  0  0  0  0  0  0
   20.2166   -4.4617  -16.6270 O   0  0  0  0  0  0  0  0  0  0  0  0
   22.0589   -5.4252  -13.6743 C   0  0  0  0  0  0  0  0  0  0  0  0
   22.0941   -5.8781  -12.5144 O   0  0  0  0  0  0  0  0  0  0  0  0
   18.7838   -5.3896  -15.1412 O   0  0  0  0  0  0  0  0  0  0  0  0
   21.8779   -4.0306  -13.7659 O   0  0  0  0  0  0  0  0  0  0  0  0
  2  1  1  0
  3  2  1  0
  4  3  2  0
  5  9  1  0
  5  3  1  0
  6  5  1  0
  7  6  1  0
  7  8  1  0
  8  9  1  0
  9 10  1  6
 10 12  1  0
 11 10  2  0
 13 12  1  0
 13 14  1  1
 14 15  1  0
 15 19  1  0
 16 15  2  0
 17 13  1  0
 18 17  2  0
 20 17  1  0
M  END
$$$$
