GPD.pdb
     RDKit          3D

 20 20  0  0  1  0  0  0  0  0999 V2000
   15.7574  -13.0518    5.3192 N   0  0  0  0  0  0  0  0  0  0  0  0
   16.9563  -12.3947    5.8103 C   0  0  0  0  0  0  0  0  0  0  0  0
   17.9244  -13.3580    6.3683 C   0  0  0  0  0  0  0  0  0  0  0  0
   17.6798  -14.5756    6.3106 O   0  0  0  0  0  0  0  0  0  0  0  0
   19.1095  -12.8887    6.9573 N   0  0  0  0  0  0  0  0  0  0  0  0
   19.4298  -11.4898    7.1546 C   0  0  0  0  0  0  0  0  0  0  0  0
   20.8043  -11.4375    7.7682 C   0  0  0  0  0  0  0  0  0  0  0  0
   21.3934  -12.7691    7.3562 C   0  0  0  0  0  0  0  0  0  0  0  0
   20.2150  -13.6966    7.4693 C   0  0  1  0  0  0  0  0  0  0  0  0
   19.9646  -14.1217    8.8642 C   0  0  0  0  0  0  0  0  0  0  0  0
   19.4240  -13.3111    9.6448 O   0  0  0  0  0  0  0  0  0  0  0  0
   20.3348  -15.4193    9.2883 N   0  0  0  0  0  0  0  0  0  0  0  0
   20.1024  -15.8771   10.6705 C   0  0  1  0  0  0  0  0  0  0  0  0
   18.8025  -16.6032   10.6661 C   0  0  0  0  0  0  0  0  0  0  0  0
   18.7244  -17.8250    9.8814 C   0  0  0  0  0  0  0  0  0  0  0  0
   19.5101  -18.1037    8.9523 O   0  0  0  0  0  0  0  0  0  0  0  0
   21.2550  -16.6673   11.1384 C   0  0  0  0  0  0  0  0  0  0  0  0
   22.2022  -17.0847   10.4453 O   0  0  0  0  0  0  0  0  0  0  0  0
   17.7185  -18.7309   10.1845 O   0  0  0  0  0  0  0  0  0  0  0  0
   21.3223  -17.0019   12.5058 O   0  0  0  0  0  0  0  0  0  0  0  0
  2  1  1  0
  3  2  1  0
  4  3  2  0
  5  9  1  0
  5  3  1  0
  6  5  1  0
  7  6  1  0
  7  8  1  0
  8  9  1  0
  9 10  1  1
 10 12  1  0
 11 10  2  0
 13 12  1  0
 13 14  1  6
 14 15  1  0
 15 19  1  0
 16 15  2  0
 17 13  1  0
 18 17  2  0
 20 17  1  0
M  END
$$$$
