GPD.pdb
     RDKit          3D

 20 20  0  0  1  0  0  0  0  0999 V2000
   19.1189  -12.7017  -17.7004 N   0  0  0  0  0  0  0  0  0  0  0  0
   20.5051  -12.3233  -17.4868 C   0  0  0  0  0  0  0  0  0  0  0  0
   20.6649  -11.4593  -16.3017 C   0  0  0  0  0  0  0  0  0  0  0  0
   19.6575  -11.0797  -15.6798 O   0  0  0  0  0  0  0  0  0  0  0  0
   21.9517  -11.0764  -15.8904 N   0  0  0  0  0  0  0  0  0  0  0  0
   23.1813  -11.6227  -16.4272 C   0  0  0  0  0  0  0  0  0  0  0  0
   24.3138  -10.9730  -15.6763 C   0  0  0  0  0  0  0  0  0  0  0  0
   23.6414  -10.5330  -14.3940 C   0  0  0  0  0  0  0  0  0  0  0  0
   22.2885  -10.0828  -14.8724 C   0  0  1  0  0  0  0  0  0  0  0  0
   22.3190   -8.7193  -15.4461 C   0  0  0  0  0  0  0  0  0  0  0  0
   22.3205   -8.5971  -16.6886 O   0  0  0  0  0  0  0  0  0  0  0  0
   22.3454   -7.5909  -14.5937 N   0  0  0  0  0  0  0  0  0  0  0  0
   21.9496   -6.2526  -15.0696 C   0  0  1  0  0  0  0  0  0  0  0  0
   20.5380   -6.3640  -15.5297 C   0  0  0  0  0  0  0  0  0  0  0  0
   19.8661   -5.1354  -15.9220 C   0  0  0  0  0  0  0  0  0  0  0  0
   20.3820   -4.2667  -16.6550 O   0  0  0  0  0  0  0  0  0  0  0  0
   22.1821   -5.2541  -14.0108 C   0  0  0  0  0  0  0  0  0  0  0  0
   21.9299   -5.3827  -12.7978 O   0  0  0  0  0  0  0  0  0  0  0  0
   18.5785   -4.9188  -15.4535 O   0  0  0  0  0  0  0  0  0  0  0  0
   22.7467   -4.0154  -14.3758 O   0  0  0  0  0  0  0  0  0  0  0  0
  2  1  1  0
  3  2  1  0
  4  3  2  0
  5  9  1  0
  5  3  1  0
  6  5  1  0
  7  6  1  0
  7  8  1  0
  8  9  1  0
  9 10  1  6
 10 12  1  0
 11 10  2  0
 13 12  1  0
 13 14  1  1
 14 15  1  0
 15 19  1  0
 16 15  2  0
 17 13  1  0
 18 17  2  0
 20 17  1  0
M  END
$$$$
