GPD.pdb
     RDKit          3D

 20 20  0  0  1  0  0  0  0  0999 V2000
   19.4190  -12.0819  -18.2186 N   0  0  0  0  0  0  0  0  0  0  0  0
   20.7093  -11.5368  -17.8332 C   0  0  0  0  0  0  0  0  0  0  0  0
   20.6181  -10.7133  -16.6125 C   0  0  0  0  0  0  0  0  0  0  0  0
   19.5082  -10.3017  -16.2326 O   0  0  0  0  0  0  0  0  0  0  0  0
   21.7848  -10.4046  -15.8949 N   0  0  0  0  0  0  0  0  0  0  0  0
   23.1160  -10.8385  -16.2666 C   0  0  0  0  0  0  0  0  0  0  0  0
   24.0551  -10.3296  -15.2048 C   0  0  0  0  0  0  0  0  0  0  0  0
   23.1307  -10.1322  -14.0229 C   0  0  0  0  0  0  0  0  0  0  0  0
   21.8784   -9.6099  -14.6714 C   0  0  1  0  0  0  0  0  0  0  0  0
   21.9636   -8.1649  -14.9783 C   0  0  0  0  0  0  0  0  0  0  0  0
   22.5212   -7.8143  -16.0389 O   0  0  0  0  0  0  0  0  0  0  0  0
   21.4213   -7.2155  -14.0811 N   0  0  0  0  0  0  0  0  0  0  0  0
   21.2951   -5.7920  -14.4442 C   0  0  1  0  0  0  0  0  0  0  0  0
   19.8427   -5.4674  -14.3980 C   0  0  0  0  0  0  0  0  0  0  0  0
   19.4589   -4.0904  -14.6646 C   0  0  0  0  0  0  0  0  0  0  0  0
   20.2404   -3.2276  -15.1152 O   0  0  0  0  0  0  0  0  0  0  0  0
   22.1444   -4.9715  -13.5626 C   0  0  0  0  0  0  0  0  0  0  0  0
   22.3561   -5.1571  -12.3492 O   0  0  0  0  0  0  0  0  0  0  0  0
   18.1489   -3.7166  -14.4025 O   0  0  0  0  0  0  0  0  0  0  0  0
   22.7987   -3.8543  -14.1193 O   0  0  0  0  0  0  0  0  0  0  0  0
  2  1  1  0
  3  2  1  0
  4  3  2  0
  5  9  1  0
  5  3  1  0
  6  5  1  0
  7  6  1  0
  7  8  1  0
  8  9  1  0
  9 10  1  6
 10 12  1  0
 11 10  2  0
 13 12  1  0
 13 14  1  1
 14 15  1  0
 15 19  1  0
 16 15  2  0
 17 13  1  0
 18 17  2  0
 20 17  1  0
M  END
$$$$
