GPD.pdb
     RDKit          3D

 20 20  0  0  1  0  0  0  0  0999 V2000
   15.4943  -20.1717    2.4522 N   0  0  0  0  0  0  0  0  0  0  0  0
   16.8120  -20.7167    2.7301 C   0  0  0  0  0  0  0  0  0  0  0  0
   16.9821  -21.0487    4.1575 C   0  0  0  0  0  0  0  0  0  0  0  0
   16.1201  -20.6877    4.9774 O   0  0  0  0  0  0  0  0  0  0  0  0
   18.1144  -21.7677    4.5725 N   0  0  0  0  0  0  0  0  0  0  0  0
   19.1635  -22.2297    3.6867 C   0  0  0  0  0  0  0  0  0  0  0  0
   20.1487  -22.9908    4.5342 C   0  0  0  0  0  0  0  0  0  0  0  0
   19.3088  -23.3884    5.7286 C   0  0  0  0  0  0  0  0  0  0  0  0
   18.4432  -22.1765    5.9371 C   0  0  1  0  0  0  0  0  0  0  0  0
   19.1498  -21.0975    6.6623 C   0  0  0  0  0  0  0  0  0  0  0  0
   19.8022  -20.2643    5.9999 O   0  0  0  0  0  0  0  0  0  0  0  0
   19.0780  -21.0252    8.0730 N   0  0  0  0  0  0  0  0  0  0  0  0
   19.6848  -19.9096    8.8222 C   0  0  1  0  0  0  0  0  0  0  0  0
   18.7358  -19.5651    9.9167 C   0  0  0  0  0  0  0  0  0  0  0  0
   18.0541  -18.2836    9.8287 C   0  0  0  0  0  0  0  0  0  0  0  0
   18.2570  -17.4512    8.9210 O   0  0  0  0  0  0  0  0  0  0  0  0
   21.0395  -20.2816    9.2674 C   0  0  0  0  0  0  0  0  0  0  0  0
   21.4544  -21.4309    9.5092 O   0  0  0  0  0  0  0  0  0  0  0  0
   17.1257  -17.9707   10.8108 O   0  0  0  0  0  0  0  0  0  0  0  0
   21.9871  -19.2539    9.4476 O   0  0  0  0  0  0  0  0  0  0  0  0
  2  1  1  0
  3  2  1  0
  4  3  2  0
  5  9  1  0
  5  3  1  0
  6  5  1  0
  7  6  1  0
  7  8  1  0
  8  9  1  0
  9 10  1  6
 10 12  1  0
 11 10  2  0
 13 12  1  0
 13 14  1  1
 14 15  1  0
 15 19  1  0
 16 15  2  0
 17 13  1  0
 18 17  2  0
 20 17  1  0
M  END
$$$$
