GPD.pdb
     RDKit          3D

 20 20  0  0  1  0  0  0  0  0999 V2000
   27.9107  -18.5184  -16.1670 N   0  0  0  0  0  0  0  0  0  0  0  0
   27.7594  -19.0297  -14.8156 C   0  0  0  0  0  0  0  0  0  0  0  0
   26.6383  -19.9828  -14.7085 C   0  0  0  0  0  0  0  0  0  0  0  0
   25.9663  -20.2543  -15.7186 O   0  0  0  0  0  0  0  0  0  0  0  0
   26.3440  -20.5713  -13.4681 N   0  0  0  0  0  0  0  0  0  0  0  0
   27.0588  -20.2958  -12.2386 C   0  0  0  0  0  0  0  0  0  0  0  0
   26.4512  -21.1700  -11.1734 C   0  0  0  0  0  0  0  0  0  0  0  0
   25.8217  -22.2805  -11.9863 C   0  0  0  0  0  0  0  0  0  0  0  0
   25.2915  -21.5461  -13.1868 C   0  0  1  0  0  0  0  0  0  0  0  0
   24.0016  -20.8752  -12.9122 C   0  0  0  0  0  0  0  0  0  0  0  0
   24.0190  -19.7611  -12.3491 O   0  0  0  0  0  0  0  0  0  0  0  0
   22.7858  -21.4944  -13.2852 N   0  0  0  0  0  0  0  0  0  0  0  0
   21.5356  -20.7246  -13.4213 C   0  0  1  0  0  0  0  0  0  0  0  0
   21.7813  -19.6942  -14.4677 C   0  0  0  0  0  0  0  0  0  0  0  0
   20.6322  -18.9406  -14.9434 C   0  0  0  0  0  0  0  0  0  0  0  0
   19.9949  -18.1301  -14.2397 O   0  0  0  0  0  0  0  0  0  0  0  0
   20.4117  -21.6368  -13.6980 C   0  0  0  0  0  0  0  0  0  0  0  0
   19.2246  -21.4813  -13.3543 O   0  0  0  0  0  0  0  0  0  0  0  0
   20.2227  -19.1352  -16.2545 O   0  0  0  0  0  0  0  0  0  0  0  0
   20.6739  -22.8157  -14.4244 O   0  0  0  0  0  0  0  0  0  0  0  0
  2  1  1  0
  3  2  1  0
  4  3  2  0
  5  9  1  0
  5  3  1  0
  6  5  1  0
  7  6  1  0
  7  8  1  0
  8  9  1  0
  9 10  1  1
 10 12  1  0
 11 10  2  0
 13 12  1  0
 13 14  1  6
 14 15  1  0
 15 19  1  0
 16 15  2  0
 17 13  1  0
 18 17  2  0
 20 17  1  0
M  END
$$$$
