GPD.pdb
     RDKit          3D

 20 20  0  0  1  0  0  0  0  0999 V2000
   28.2749  -21.6594  -15.2786 N   0  0  0  0  0  0  0  0  0  0  0  0
   27.7356  -20.9398  -14.1376 C   0  0  0  0  0  0  0  0  0  0  0  0
   26.4070  -21.4461  -13.7437 C   0  0  0  0  0  0  0  0  0  0  0  0
   25.8016  -22.2285  -14.4965 O   0  0  0  0  0  0  0  0  0  0  0  0
   25.8428  -21.0386  -12.5241 N   0  0  0  0  0  0  0  0  0  0  0  0
   26.4541  -20.0936  -11.6121 C   0  0  0  0  0  0  0  0  0  0  0  0
   25.5418  -19.9837  -10.4188 C   0  0  0  0  0  0  0  0  0  0  0  0
   24.7719  -21.2852  -10.4791 C   0  0  0  0  0  0  0  0  0  0  0  0
   24.5685  -21.4761  -11.9569 C   0  0  1  0  0  0  0  0  0  0  0  0
   23.4453  -20.6674  -12.4800 C   0  0  0  0  0  0  0  0  0  0  0  0
   23.6393  -19.4545  -12.7030 O   0  0  0  0  0  0  0  0  0  0  0  0
   22.1872  -21.2690  -12.7168 N   0  0  0  0  0  0  0  0  0  0  0  0
   21.1460  -20.5963  -13.5151 C   0  0  1  0  0  0  0  0  0  0  0  0
   20.5580  -21.6322  -14.4085 C   0  0  0  0  0  0  0  0  0  0  0  0
   19.4044  -21.2474  -15.2058 C   0  0  0  0  0  0  0  0  0  0  0  0
   19.4440  -20.3937  -16.1157 O   0  0  0  0  0  0  0  0  0  0  0  0
   20.1840  -19.9254  -12.6228 C   0  0  0  0  0  0  0  0  0  0  0  0
   19.3249  -19.0852  -12.9510 O   0  0  0  0  0  0  0  0  0  0  0  0
   18.1918  -21.8657  -14.9381 O   0  0  0  0  0  0  0  0  0  0  0  0
   20.2131  -20.2455  -11.2506 O   0  0  0  0  0  0  0  0  0  0  0  0
  2  1  1  0
  3  2  1  0
  4  3  2  0
  5  9  1  0
  5  3  1  0
  6  5  1  0
  7  6  1  0
  7  8  1  0
  8  9  1  0
  9 10  1  6
 10 12  1  0
 11 10  2  0
 13 12  1  0
 13 14  1  1
 14 15  1  0
 15 19  1  0
 16 15  2  0
 17 13  1  0
 18 17  2  0
 20 17  1  0
M  END
$$$$
