TVT.pdb
     RDKit          3D

 22 21  0  0  1  0  0  0  0  0999 V2000
   22.9030   -8.9810  -19.8606 C   0  0  0  0  0  0  0  0  0  0  0  0
   22.1215  -10.2109  -20.2967 C   0  0  1  0  0  0  0  0  0  0  0  0
   22.7208  -10.7245  -21.4415 O   0  0  0  0  0  0  0  0  0  0  0  0
   22.1674  -11.1891  -19.1532 C   0  0  2  0  0  0  0  0  0  0  0  0
   21.5099  -12.4312  -19.5154 N   0  0  0  0  0  0  0  0  0  0  0  0
   21.4758  -10.6706  -17.9424 C   0  0  0  0  0  0  0  0  0  0  0  0
   20.2277  -10.7220  -17.8105 O   0  0  0  0  0  0  0  0  0  0  0  0
   21.3865   -9.2364  -13.2197 C   0  0  0  0  0  0  0  0  0  0  0  0
   22.0523   -9.9907  -14.3728 C   0  0  2  0  0  0  0  0  0  0  0  0
   23.5176   -9.9724  -14.1041 C   0  0  0  0  0  0  0  0  0  0  0  0
   21.6141   -9.4829  -15.6976 C   0  0  2  0  0  0  0  0  0  0  0  0
   22.1941  -10.0782  -16.8475 N   0  0  0  0  0  0  0  0  0  0  0  0
   21.4745   -7.9907  -15.7657 C   0  0  0  0  0  0  0  0  0  0  0  0
   22.4484   -7.2299  -15.5303 O   0  0  0  0  0  0  0  0  0  0  0  0
   20.7029   -5.8896  -18.5746 C   0  0  0  0  0  0  0  0  0  0  0  0
   19.6476   -5.5288  -17.5492 C   0  0  1  0  0  0  0  0  0  0  0  0
   18.4990   -6.2664  -17.8416 O   0  0  0  0  0  0  0  0  0  0  0  0
   20.1943   -5.8674  -16.1825 C   0  0  2  0  0  0  0  0  0  0  0  0
   20.2569   -7.3344  -16.0911 N   0  0  0  0  0  0  0  0  0  0  0  0
   19.1974   -5.4249  -15.1751 C   0  0  0  0  0  0  0  0  0  0  0  0
   19.0313   -4.1904  -14.9869 O   0  0  0  0  0  0  0  0  0  0  0  0
   18.4474   -6.3119  -14.4385 O   0  0  0  0  0  0  0  0  0  0  0  0
  2  1  1  1
  2  3  1  0
  2  4  1  0
  4  5  1  6
  6  4  1  0
  6 12  1  0
  7  6  2  0
  9 11  1  0
  9  8  1  1
 10  9  1  0
 11 12  1  6
 11 13  1  0
 13 19  1  0
 14 13  2  0
 16 15  1  6
 17 16  1  0
 18 16  1  0
 18 19  1  6
 20 18  1  0
 20 22  1  0
 21 20  2  0
M  END
$$$$
