TVT.pdb
     RDKit          3D

 22 21  0  0  1  0  0  0  0  0999 V2000
   17.4706   -8.9755  -17.5290 C   0  0  0  0  0  0  0  0  0  0  0  0
   16.7076   -9.8070  -16.5092 C   0  0  1  0  0  0  0  0  0  0  0  0
   15.5984  -10.3596  -17.1400 O   0  0  0  0  0  0  0  0  0  0  0  0
   17.6536  -10.8663  -16.0095 C   0  0  2  0  0  0  0  0  0  0  0  0
   16.9626  -11.8011  -15.1407 N   0  0  0  0  0  0  0  0  0  0  0  0
   18.7755  -10.2904  -15.2203 C   0  0  0  0  0  0  0  0  0  0  0  0
   18.6084   -9.8077  -14.0727 O   0  0  0  0  0  0  0  0  0  0  0  0
   23.5866   -9.8282  -14.2017 C   0  0  0  0  0  0  0  0  0  0  0  0
   22.5096  -10.4599  -15.0865 C   0  0  2  0  0  0  0  0  0  0  0  0
   23.1288  -10.6732  -16.4247 C   0  0  0  0  0  0  0  0  0  0  0  0
   21.2412   -9.6883  -15.0576 C   0  0  2  0  0  0  0  0  0  0  0  0
   20.1214  -10.2507  -15.7229 N   0  0  0  0  0  0  0  0  0  0  0  0
   21.4175   -8.2126  -15.2627 C   0  0  0  0  0  0  0  0  0  0  0  0
   22.2322   -7.5476  -14.5722 O   0  0  0  0  0  0  0  0  0  0  0  0
   21.9661   -6.1778  -18.5375 C   0  0  0  0  0  0  0  0  0  0  0  0
   20.7352   -5.6672  -17.8168 C   0  0  1  0  0  0  0  0  0  0  0  0
   19.6206   -6.2863  -18.3853 O   0  0  0  0  0  0  0  0  0  0  0  0
   20.8783   -6.0123  -16.3533 C   0  0  2  0  0  0  0  0  0  0  0  0
   20.6914   -7.4664  -16.2297 N   0  0  0  0  0  0  0  0  0  0  0  0
   19.7482   -5.3794  -15.6276 C   0  0  0  0  0  0  0  0  0  0  0  0
   18.8631   -6.1181  -15.1195 O   0  0  0  0  0  0  0  0  0  0  0  0
   19.6301   -4.0161  -15.4884 O   0  0  0  0  0  0  0  0  0  0  0  0
  2  1  1  6
  2  3  1  0
  2  4  1  0
  4  5  1  1
  6  4  1  0
  6 12  1  0
  7  6  2  0
  9 11  1  0
  9  8  1  1
 10  9  1  0
 11 12  1  6
 11 13  1  0
 13 19  1  0
 14 13  2  0
 16 15  1  6
 17 16  1  0
 18 16  1  0
 18 19  1  6
 20 18  1  0
 20 22  1  0
 21 20  2  0
M  END
$$$$
