TVT.pdb
     RDKit          3D

 22 21  0  0  1  0  0  0  0  0999 V2000
   13.6322   -8.9004   -9.0182 C   0  0  0  0  0  0  0  0  0  0  0  0
   14.7436   -9.0100  -10.0509 C   0  0  1  0  0  0  0  0  0  0  0  0
   15.8580   -9.5675   -9.4339 O   0  0  0  0  0  0  0  0  0  0  0  0
   14.2250   -9.8810  -11.1640 C   0  0  2  0  0  0  0  0  0  0  0  0
   14.0323  -11.2429  -10.7010 N   0  0  0  0  0  0  0  0  0  0  0  0
   15.1676   -9.9441  -12.3133 C   0  0  0  0  0  0  0  0  0  0  0  0
   15.8172  -10.9829  -12.5903 O   0  0  0  0  0  0  0  0  0  0  0  0
   14.9461   -7.4674  -15.9256 C   0  0  0  0  0  0  0  0  0  0  0  0
   15.7005   -8.7678  -15.6393 C   0  0  2  0  0  0  0  0  0  0  0  0
   14.7700   -9.8824  -15.9730 C   0  0  0  0  0  0  0  0  0  0  0  0
   16.2907   -8.7814  -14.2769 C   0  0  2  0  0  0  0  0  0  0  0  0
   15.3932   -8.8190  -13.1787 N   0  0  0  0  0  0  0  0  0  0  0  0
   17.4551   -7.8511  -14.1047 C   0  0  0  0  0  0  0  0  0  0  0  0
   17.3613   -6.8050  -13.4120 O   0  0  0  0  0  0  0  0  0  0  0  0
   21.1721   -9.2173  -14.6706 C   0  0  0  0  0  0  0  0  0  0  0  0
   20.9449   -8.0063  -13.7891 C   0  0  1  0  0  0  0  0  0  0  0  0
   22.1493   -7.3050  -13.7090 O   0  0  0  0  0  0  0  0  0  0  0  0
   19.8552   -7.1718  -14.4196 C   0  0  2  0  0  0  0  0  0  0  0  0
   18.7261   -8.0722  -14.7002 N   0  0  0  0  0  0  0  0  0  0  0  0
   20.3533   -6.6984  -15.7358 C   0  0  0  0  0  0  0  0  0  0  0  0
   19.8990   -7.2297  -16.7838 O   0  0  0  0  0  0  0  0  0  0  0  0
   21.2929   -5.7009  -15.8551 O   0  0  0  0  0  0  0  0  0  0  0  0
  2  1  1  1
  2  3  1  0
  2  4  1  0
  4  5  1  1
  6  4  1  0
  6 12  1  0
  7  6  2  0
  9 11  1  0
  9  8  1  1
 10  9  1  0
 11 12  1  1
 11 13  1  0
 13 19  1  0
 14 13  2  0
 16 15  1  6
 17 16  1  0
 18 16  1  0
 18 19  1  6
 20 18  1  0
 20 22  1  0
 21 20  2  0
M  END
$$$$
