TVT.pdb
     RDKit          3D

 22 21  0  0  1  0  0  0  0  0999 V2000
   18.5091   -9.9510  -18.5498 C   0  0  0  0  0  0  0  0  0  0  0  0
   17.9077  -11.1317  -17.8029 C   0  0  1  0  0  0  0  0  0  0  0  0
   17.1614  -11.8829  -18.7043 O   0  0  0  0  0  0  0  0  0  0  0  0
   19.0553  -11.9208  -17.2311 C   0  0  2  0  0  0  0  0  0  0  0  0
   18.5841  -13.1695  -16.6609 N   0  0  0  0  0  0  0  0  0  0  0  0
   19.7557  -11.1857  -16.1437 C   0  0  0  0  0  0  0  0  0  0  0  0
   19.2016  -10.9249  -15.0470 O   0  0  0  0  0  0  0  0  0  0  0  0
   24.2218  -10.5028  -15.9411 C   0  0  0  0  0  0  0  0  0  0  0  0
   23.1421  -10.6126  -14.8621 C   0  0  2  0  0  0  0  0  0  0  0  0
   23.1082  -12.0402  -14.4371 C   0  0  0  0  0  0  0  0  0  0  0  0
   21.8533  -10.0201  -15.3010 C   0  0  2  0  0  0  0  0  0  0  0  0
   21.1112  -10.7283  -16.2812 N   0  0  0  0  0  0  0  0  0  0  0  0
   21.8990   -8.5338  -15.5005 C   0  0  0  0  0  0  0  0  0  0  0  0
   22.1524   -8.0311  -16.6256 O   0  0  0  0  0  0  0  0  0  0  0  0
   20.2744   -4.1511  -14.6176 C   0  0  0  0  0  0  0  0  0  0  0  0
   20.2524   -5.6657  -14.5945 C   0  0  1  0  0  0  0  0  0  0  0  0
   19.4600   -6.0972  -15.6597 O   0  0  0  0  0  0  0  0  0  0  0  0
   21.6763   -6.1521  -14.7265 C   0  0  2  0  0  0  0  0  0  0  0  0
   21.6680   -7.5983  -14.4563 N   0  0  0  0  0  0  0  0  0  0  0  0
   22.4702   -5.5252  -13.6398 C   0  0  0  0  0  0  0  0  0  0  0  0
   22.6020   -6.1433  -12.5500 O   0  0  0  0  0  0  0  0  0  0  0  0
   23.0681   -4.2941  -13.7771 O   0  0  0  0  0  0  0  0  0  0  0  0
  2  1  1  6
  2  3  1  0
  2  4  1  0
  4  5  1  1
  6  4  1  0
  6 12  1  0
  7  6  2  0
  9 11  1  0
  9  8  1  6
 10  9  1  0
 11 12  1  6
 11 13  1  0
 13 19  1  0
 14 13  2  0
 16 15  1  6
 17 16  1  0
 18 16  1  0
 18 19  1  1
 20 18  1  0
 20 22  1  0
 21 20  2  0
M  END
$$$$
