TVT.pdb
     RDKit          3D

 22 21  0  0  1  0  0  0  0  0999 V2000
   17.6642   -6.8483  -16.2766 C   0  0  0  0  0  0  0  0  0  0  0  0
   16.8289   -7.7416  -15.3722 C   0  0  1  0  0  0  0  0  0  0  0  0
   15.5971   -7.9497  -15.9829 O   0  0  0  0  0  0  0  0  0  0  0  0
   17.5923   -9.0275  -15.1979 C   0  0  2  0  0  0  0  0  0  0  0  0
   16.7707  -10.0251  -14.5374 N   0  0  0  0  0  0  0  0  0  0  0  0
   18.8106   -8.8487  -14.3631 C   0  0  0  0  0  0  0  0  0  0  0  0
   18.7500   -8.6406  -13.1258 O   0  0  0  0  0  0  0  0  0  0  0  0
   23.1238   -9.5399  -15.7950 C   0  0  0  0  0  0  0  0  0  0  0  0
   22.3949   -9.8216  -14.4793 C   0  0  2  0  0  0  0  0  0  0  0  0
   21.9487  -11.2420  -14.5351 C   0  0  0  0  0  0  0  0  0  0  0  0
   21.3481   -8.8079  -14.1939 C   0  0  2  0  0  0  0  0  0  0  0  0
   20.1338   -8.9030  -14.9216 N   0  0  0  0  0  0  0  0  0  0  0  0
   21.8750   -7.4126  -14.0314 C   0  0  0  0  0  0  0  0  0  0  0  0
   22.8059   -7.1534  -13.2257 O   0  0  0  0  0  0  0  0  0  0  0  0
   23.4366   -5.2138  -16.6080 C   0  0  0  0  0  0  0  0  0  0  0  0
   22.2451   -4.4695  -16.0410 C   0  0  1  0  0  0  0  0  0  0  0  0
   21.1513   -4.7192  -16.8718 O   0  0  0  0  0  0  0  0  0  0  0  0
   22.0064   -4.9763  -14.6384 C   0  0  2  0  0  0  0  0  0  0  0  0
   21.3725   -6.2987  -14.7564 N   0  0  0  0  0  0  0  0  0  0  0  0
   21.0051   -4.0849  -14.0003 C   0  0  0  0  0  0  0  0  0  0  0  0
   19.8648   -4.5474  -13.7307 O   0  0  0  0  0  0  0  0  0  0  0  0
   21.2749   -2.7719  -13.6918 O   0  0  0  0  0  0  0  0  0  0  0  0
  2  1  1  6
  2  3  1  0
  2  4  1  0
  4  5  1  1
  6  4  1  0
  6 12  1  0
  7  6  2  0
  9 11  1  0
  9  8  1  6
 10  9  1  0
 11 12  1  6
 11 13  1  0
 13 19  1  0
 14 13  2  0
 16 15  1  6
 17 16  1  0
 18 16  1  0
 18 19  1  6
 20 18  1  0
 20 22  1  0
 21 20  2  0
M  END
$$$$
