TVT.pdb
     RDKit          3D

 22 21  0  0  1  0  0  0  0  0999 V2000
   17.7169   -8.3505  -17.7034 C   0  0  0  0  0  0  0  0  0  0  0  0
   16.8164   -9.3391  -16.9785 C   0  0  1  0  0  0  0  0  0  0  0  0
   15.7999   -9.7204  -17.8475 O   0  0  0  0  0  0  0  0  0  0  0  0
   17.6781  -10.5066  -16.5777 C   0  0  2  0  0  0  0  0  0  0  0  0
   16.8882  -11.5161  -15.8969 N   0  0  0  0  0  0  0  0  0  0  0  0
   18.7664  -10.1074  -15.6452 C   0  0  0  0  0  0  0  0  0  0  0  0
   18.5423   -9.7932  -14.4498 O   0  0  0  0  0  0  0  0  0  0  0  0
   22.0738  -11.7489  -14.4581 C   0  0  0  0  0  0  0  0  0  0  0  0
   22.4158  -10.4169  -15.1297 C   0  0  2  0  0  0  0  0  0  0  0  0
   23.5635   -9.8412  -14.3740 C   0  0  0  0  0  0  0  0  0  0  0  0
   21.2215   -9.5486  -15.2857 C   0  0  2  0  0  0  0  0  0  0  0  0
   20.1430  -10.0565  -16.0551 N   0  0  0  0  0  0  0  0  0  0  0  0
   21.5428   -8.1039  -15.5320 C   0  0  0  0  0  0  0  0  0  0  0  0
   22.1258   -7.7321  -16.5830 O   0  0  0  0  0  0  0  0  0  0  0  0
   19.5391   -5.3667  -16.2743 C   0  0  0  0  0  0  0  0  0  0  0  0
   20.2498   -4.9097  -15.0168 C   0  0  1  0  0  0  0  0  0  0  0  0
   19.4153   -5.1835  -13.9317 O   0  0  0  0  0  0  0  0  0  0  0  0
   21.5543   -5.6651  -14.9210 C   0  0  2  0  0  0  0  0  0  0  0  0
   21.2236   -7.0658  -14.6158 N   0  0  0  0  0  0  0  0  0  0  0  0
   22.2941   -5.1413  -13.7452 C   0  0  0  0  0  0  0  0  0  0  0  0
   22.3499   -5.8436  -12.7008 O   0  0  0  0  0  0  0  0  0  0  0  0
   22.9217   -3.9174  -13.7521 O   0  0  0  0  0  0  0  0  0  0  0  0
  2  1  1  6
  2  3  1  0
  2  4  1  0
  4  5  1  1
  6  4  1  0
  6 12  1  0
  7  6  2  0
  9 11  1  0
  9  8  1  1
 10  9  1  0
 11 12  1  6
 11 13  1  0
 13 19  1  0
 14 13  2  0
 16 15  1  6
 17 16  1  0
 18 16  1  0
 18 19  1  1
 20 18  1  0
 20 22  1  0
 21 20  2  0
M  END
$$$$
