TVT.pdb
     RDKit          3D

 22 21  0  0  1  0  0  0  0  0999 V2000
   21.6570  -12.1773  -15.8064 C   0  0  0  0  0  0  0  0  0  0  0  0
   22.3206  -11.6602  -17.0735 C   0  0  1  0  0  0  0  0  0  0  0  0
   22.3304  -10.2706  -17.0241 O   0  0  0  0  0  0  0  0  0  0  0  0
   23.7140  -12.2296  -17.1038 C   0  0  2  0  0  0  0  0  0  0  0  0
   24.4366  -11.7529  -18.2687 N   0  0  0  0  0  0  0  0  0  0  0  0
   23.7120  -13.7156  -17.1741 C   0  0  0  0  0  0  0  0  0  0  0  0
   23.3856  -14.3363  -18.2163 O   0  0  0  0  0  0  0  0  0  0  0  0
   25.5563  -16.4651  -14.0702 C   0  0  0  0  0  0  0  0  0  0  0  0
   25.3186  -16.6308  -15.5729 C   0  0  2  0  0  0  0  0  0  0  0  0
   26.5803  -16.2219  -16.2514 C   0  0  0  0  0  0  0  0  0  0  0  0
   24.0754  -15.9521  -16.0187 C   0  0  2  0  0  0  0  0  0  0  0  0
   24.0840  -14.5337  -16.0525 N   0  0  0  0  0  0  0  0  0  0  0  0
   22.8168  -16.5596  -15.4730 C   0  0  0  0  0  0  0  0  0  0  0  0
   22.3438  -16.2016  -14.3635 O   0  0  0  0  0  0  0  0  0  0  0  0
   18.4223  -18.3013  -16.2353 C   0  0  0  0  0  0  0  0  0  0  0  0
   19.7659  -17.8161  -16.7397 C   0  0  1  0  0  0  0  0  0  0  0  0
   19.6340  -16.4673  -17.0746 O   0  0  0  0  0  0  0  0  0  0  0  0
   20.7767  -18.0199  -15.6360 C   0  0  2  0  0  0  0  0  0  0  0  0
   22.0786  -17.5671  -16.1504 N   0  0  0  0  0  0  0  0  0  0  0  0
   20.9014  -19.4808  -15.4021 C   0  0  0  0  0  0  0  0  0  0  0  0
   21.7869  -20.1224  -16.0276 O   0  0  0  0  0  0  0  0  0  0  0  0
   20.0864  -20.1615  -14.5278 O   0  0  0  0  0  0  0  0  0  0  0  0
  2  1  1  1
  2  3  1  0
  2  4  1  0
  4  5  1  6
  6  4  1  0
  6 12  1  0
  7  6  2  0
  9 11  1  0
  9  8  1  1
 10  9  1  0
 11 12  1  1
 11 13  1  0
 13 19  1  0
 14 13  2  0
 16 15  1  1
 17 16  1  0
 18 16  1  0
 18 19  1  6
 20 18  1  0
 20 22  1  0
 21 20  2  0
M  END
$$$$
