TVT.pdb
     RDKit          3D

 22 21  0  0  1  0  0  0  0  0999 V2000
   27.2009  -17.9819  -14.9530 C   0  0  0  0  0  0  0  0  0  0  0  0
   27.6210  -19.0340  -15.9680 C   0  0  1  0  0  0  0  0  0  0  0  0
   28.7011  -18.5368  -16.6890 O   0  0  0  0  0  0  0  0  0  0  0  0
   27.9869  -20.2715  -15.1927 C   0  0  2  0  0  0  0  0  0  0  0  0
   28.4977  -21.2996  -16.0807 N   0  0  0  0  0  0  0  0  0  0  0  0
   26.8174  -20.8555  -14.4824 C   0  0  0  0  0  0  0  0  0  0  0  0
   25.9928  -21.6090  -15.0570 O   0  0  0  0  0  0  0  0  0  0  0  0
   24.4372  -20.8359  -10.0726 C   0  0  0  0  0  0  0  0  0  0  0  0
   25.6194  -21.3195  -10.9156 C   0  0  2  0  0  0  0  0  0  0  0  0
   26.8486  -20.7618  -10.2850 C   0  0  0  0  0  0  0  0  0  0  0  0
   25.4271  -21.0351  -12.3602 C   0  0  2  0  0  0  0  0  0  0  0  0
   26.5586  -20.5931  -13.0932 N   0  0  0  0  0  0  0  0  0  0  0  0
   24.1517  -20.3114  -12.6773 C   0  0  0  0  0  0  0  0  0  0  0  0
   23.9913  -19.1015  -12.3718 O   0  0  0  0  0  0  0  0  0  0  0  0
   22.6441  -19.2505  -15.6601 C   0  0  0  0  0  0  0  0  0  0  0  0
   21.5748  -20.1351  -15.0523 C   0  0  1  0  0  0  0  0  0  0  0  0
   21.6918  -21.4020  -15.6268 O   0  0  0  0  0  0  0  0  0  0  0  0
   21.8012  -20.1771  -13.5595 C   0  0  2  0  0  0  0  0  0  0  0  0
   23.0481  -20.9235  -13.3303 N   0  0  0  0  0  0  0  0  0  0  0  0
   20.7100  -20.9858  -12.9599 C   0  0  0  0  0  0  0  0  0  0  0  0
   20.9892  -22.1103  -12.4651 O   0  0  0  0  0  0  0  0  0  0  0  0
   19.4045  -20.5543  -12.9237 O   0  0  0  0  0  0  0  0  0  0  0  0
  2  1  1  1
  2  3  1  0
  2  4  1  0
  4  5  1  6
  6  4  1  0
  6 12  1  0
  7  6  2  0
  9 11  1  0
  9  8  1  1
 10  9  1  0
 11 12  1  1
 11 13  1  0
 13 19  1  0
 14 13  2  0
 16 15  1  6
 17 16  1  0
 18 16  1  0
 18 19  1  6
 20 18  1  0
 20 22  1  0
 21 20  2  0
M  END
$$$$
