TVT.pdb
     RDKit          3D

 22 21  0  0  1  0  0  0  0  0999 V2000
   25.1626  -12.3424  -19.0411 C   0  0  0  0  0  0  0  0  0  0  0  0
   24.2395  -11.1566  -18.8063 C   0  0  1  0  0  0  0  0  0  0  0  0
   23.8503  -10.6558  -20.0439 O   0  0  0  0  0  0  0  0  0  0  0  0
   23.0650  -11.6640  -18.0128 C   0  0  2  0  0  0  0  0  0  0  0  0
   22.3070  -12.6328  -18.7830 N   0  0  0  0  0  0  0  0  0  0  0  0
   22.1234  -10.5731  -17.6432 C   0  0  0  0  0  0  0  0  0  0  0  0
   21.2890  -10.1045  -18.4568 O   0  0  0  0  0  0  0  0  0  0  0  0
   20.2342   -9.3017  -13.6492 C   0  0  0  0  0  0  0  0  0  0  0  0
   20.0281   -9.3108  -15.1656 C   0  0  2  0  0  0  0  0  0  0  0  0
   19.4282  -10.6314  -15.5060 C   0  0  0  0  0  0  0  0  0  0  0  0
   21.2636   -8.9346  -15.8983 C   0  0  2  0  0  0  0  0  0  0  0  0
   22.1105   -9.9875  -16.3307 N   0  0  0  0  0  0  0  0  0  0  0  0
   21.9799   -7.7488  -15.3224 C   0  0  0  0  0  0  0  0  0  0  0  0
   22.9375   -7.8885  -14.5186 O   0  0  0  0  0  0  0  0  0  0  0  0
   22.7525   -2.8680  -15.2376 C   0  0  0  0  0  0  0  0  0  0  0  0
   22.0423   -4.0508  -15.8635 C   0  0  1  0  0  0  0  0  0  0  0  0
   22.4586   -4.1437  -17.1927 O   0  0  0  0  0  0  0  0  0  0  0  0
   22.4142   -5.2847  -15.0757 C   0  0  2  0  0  0  0  0  0  0  0  0
   21.6379   -6.4045  -15.6305 N   0  0  0  0  0  0  0  0  0  0  0  0
   21.9380   -5.0916  -13.6827 C   0  0  0  0  0  0  0  0  0  0  0  0
   20.7196   -5.2823  -13.4256 O   0  0  0  0  0  0  0  0  0  0  0  0
   22.7769   -4.7121  -12.6608 O   0  0  0  0  0  0  0  0  0  0  0  0
  2  1  1  6
  2  3  1  0
  2  4  1  0
  4  5  1  6
  6  4  1  0
  6 12  1  0
  7  6  2  0
  9 11  1  0
  9  8  1  1
 10  9  1  0
 11 12  1  1
 11 13  1  0
 13 19  1  0
 14 13  2  0
 16 15  1  1
 17 16  1  0
 18 16  1  0
 18 19  1  6
 20 18  1  0
 20 22  1  0
 21 20  2  0
M  END
$$$$
