TVT.pdb
     RDKit          3D

 22 21  0  0  1  0  0  0  0  0999 V2000
   19.7678   -8.5672  -19.6787 C   0  0  0  0  0  0  0  0  0  0  0  0
   18.7136   -9.6293  -19.4062 C   0  0  1  0  0  0  0  0  0  0  0  0
   18.3232  -10.1777  -20.6229 O   0  0  0  0  0  0  0  0  0  0  0  0
   19.3468  -10.6565  -18.5060 C   0  0  2  0  0  0  0  0  0  0  0  0
   18.4357  -11.7611  -18.2694 N   0  0  0  0  0  0  0  0  0  0  0  0
   19.7008  -10.0948  -17.1747 C   0  0  0  0  0  0  0  0  0  0  0  0
   18.8292   -9.7942  -16.3215 O   0  0  0  0  0  0  0  0  0  0  0  0
   22.7421   -9.6051  -13.3704 C   0  0  0  0  0  0  0  0  0  0  0  0
   22.3298  -10.2652  -14.6881 C   0  0  2  0  0  0  0  0  0  0  0  0
   23.5783  -10.7845  -15.3134 C   0  0  0  0  0  0  0  0  0  0  0  0
   21.4932   -9.3668  -15.5236 C   0  0  2  0  0  0  0  0  0  0  0  0
   21.0635   -9.8611  -16.7822 N   0  0  0  0  0  0  0  0  0  0  0  0
   21.9502   -7.9379  -15.5329 C   0  0  0  0  0  0  0  0  0  0  0  0
   22.9001   -7.5583  -16.2653 O   0  0  0  0  0  0  0  0  0  0  0  0
   20.4785   -4.9118  -16.6727 C   0  0  0  0  0  0  0  0  0  0  0  0
   20.7299   -4.6574  -15.2005 C   0  0  1  0  0  0  0  0  0  0  0  0
   19.5540   -4.9548  -14.5094 O   0  0  0  0  0  0  0  0  0  0  0  0
   21.8717   -5.5451  -14.7650 C   0  0  2  0  0  0  0  0  0  0  0  0
   21.3608   -6.9243  -14.7302 N   0  0  0  0  0  0  0  0  0  0  0  0
   22.2134   -5.1872  -13.3652 C   0  0  0  0  0  0  0  0  0  0  0  0
   21.9334   -6.0007  -12.4449 O   0  0  0  0  0  0  0  0  0  0  0  0
   22.8245   -4.0002  -13.0339 O   0  0  0  0  0  0  0  0  0  0  0  0
  2  1  1  6
  2  3  1  0
  2  4  1  0
  4  5  1  1
  6  4  1  0
  6 12  1  0
  7  6  2  0
  9 11  1  0
  9  8  1  1
 10  9  1  0
 11 12  1  6
 11 13  1  0
 13 19  1  0
 14 13  2  0
 16 15  1  6
 17 16  1  0
 18 16  1  0
 18 19  1  1
 20 18  1  0
 20 22  1  0
 21 20  2  0
M  END
$$$$
