TVT.pdb
     RDKit          3D

 22 21  0  0  1  0  0  0  0  0999 V2000
   21.3376   -7.7807  -19.9631 C   0  0  0  0  0  0  0  0  0  0  0  0
   20.1154   -8.6687  -20.1399 C   0  0  1  0  0  0  0  0  0  0  0  0
   20.0397   -9.0446  -21.4765 O   0  0  0  0  0  0  0  0  0  0  0  0
   20.3002   -9.8565  -19.2335 C   0  0  2  0  0  0  0  0  0  0  0  0
   19.2337  -10.8210  -19.4296 N   0  0  0  0  0  0  0  0  0  0  0  0
   20.2791   -9.4746  -17.7958 C   0  0  0  0  0  0  0  0  0  0  0  0
   19.2290   -9.0983  -17.2182 O   0  0  0  0  0  0  0  0  0  0  0  0
   22.9326   -9.3546  -13.5808 C   0  0  0  0  0  0  0  0  0  0  0  0
   21.9840   -9.9884  -14.6008 C   0  0  2  0  0  0  0  0  0  0  0  0
   22.6386  -11.2420  -15.0697 C   0  0  0  0  0  0  0  0  0  0  0  0
   21.5690   -9.0238  -15.6506 C   0  0  2  0  0  0  0  0  0  0  0  0
   21.4605   -9.5126  -16.9781 N   0  0  0  0  0  0  0  0  0  0  0  0
   22.2109   -7.6732  -15.5293 C   0  0  0  0  0  0  0  0  0  0  0  0
   23.3942   -7.4737  -15.9069 O   0  0  0  0  0  0  0  0  0  0  0  0
   21.3239   -4.5824  -17.1287 C   0  0  0  0  0  0  0  0  0  0  0  0
   21.3102   -4.2459  -15.6516 C   0  0  1  0  0  0  0  0  0  0  0  0
   19.9916   -4.3443  -15.2039 O   0  0  0  0  0  0  0  0  0  0  0  0
   22.2136   -5.2280  -14.9440 C   0  0  2  0  0  0  0  0  0  0  0  0
   21.5479   -6.5393  -14.9872 N   0  0  0  0  0  0  0  0  0  0  0  0
   22.2761   -4.8345  -13.5137 C   0  0  0  0  0  0  0  0  0  0  0  0
   21.7214   -5.5720  -12.6562 O   0  0  0  0  0  0  0  0  0  0  0  0
   22.9171   -3.6942  -13.0883 O   0  0  0  0  0  0  0  0  0  0  0  0
  2  1  1  6
  2  3  1  0
  2  4  1  0
  4  5  1  1
  6  4  1  0
  6 12  1  0
  7  6  2  0
  9 11  1  0
  9  8  1  1
 10  9  1  0
 11 12  1  6
 11 13  1  0
 13 19  1  0
 14 13  2  0
 16 15  1  6
 17 16  1  0
 18 16  1  0
 18 19  1  1
 20 18  1  0
 20 22  1  0
 21 20  2  0
M  END
$$$$
