TVT.pdb
     RDKit          3D

 22 21  0  0  1  0  0  0  0  0999 V2000
   19.2277   -8.7939  -18.9291 C   0  0  0  0  0  0  0  0  0  0  0  0
   18.1654   -9.7338  -18.3798 C   0  0  1  0  0  0  0  0  0  0  0  0
   17.4969  -10.3108  -19.4539 O   0  0  0  0  0  0  0  0  0  0  0  0
   18.8788  -10.7639  -17.5452 C   0  0  2  0  0  0  0  0  0  0  0  0
   17.9409  -11.7443  -17.0301 N   0  0  0  0  0  0  0  0  0  0  0  0
   19.5618  -10.1593  -16.3699 C   0  0  0  0  0  0  0  0  0  0  0  0
   18.9275   -9.7322  -15.3733 O   0  0  0  0  0  0  0  0  0  0  0  0
   24.0058  -10.4796  -15.5098 C   0  0  0  0  0  0  0  0  0  0  0  0
   22.7738  -10.3601  -14.6100 C   0  0  2  0  0  0  0  0  0  0  0  0
   22.3684  -11.7494  -14.2561 C   0  0  0  0  0  0  0  0  0  0  0  0
   21.7264   -9.4959  -15.2109 C   0  0  2  0  0  0  0  0  0  0  0  0
   20.9913  -10.0266  -16.3022 N   0  0  0  0  0  0  0  0  0  0  0  0
   22.1323   -8.0599  -15.3662 C   0  0  0  0  0  0  0  0  0  0  0  0
   22.9406   -7.7005  -16.2607 O   0  0  0  0  0  0  0  0  0  0  0  0
   20.5917   -5.3035  -16.6252 C   0  0  0  0  0  0  0  0  0  0  0  0
   20.9058   -4.8409  -15.2173 C   0  0  1  0  0  0  0  0  0  0  0  0
   19.7756   -5.0703  -14.4307 O   0  0  0  0  0  0  0  0  0  0  0  0
   22.0965   -5.6291  -14.7250 C   0  0  2  0  0  0  0  0  0  0  0  0
   21.6485   -7.0170  -14.5312 N   0  0  0  0  0  0  0  0  0  0  0  0
   22.4565   -5.1113  -13.3809 C   0  0  0  0  0  0  0  0  0  0  0  0
   22.2405   -5.8359  -12.3733 O   0  0  0  0  0  0  0  0  0  0  0  0
   23.0174   -3.8695  -13.1932 O   0  0  0  0  0  0  0  0  0  0  0  0
  2  1  1  6
  2  3  1  0
  2  4  1  0
  4  5  1  1
  6  4  1  0
  6 12  1  0
  7  6  2  0
  9 11  1  0
  9  8  1  6
 10  9  1  0
 11 12  1  6
 11 13  1  0
 13 19  1  0
 14 13  2  0
 16 15  1  6
 17 16  1  0
 18 16  1  0
 18 19  1  1
 20 18  1  0
 20 22  1  0
 21 20  2  0
M  END
$$$$
