TVT.pdb
     RDKit          3D

 22 21  0  0  1  0  0  0  0  0999 V2000
   22.2333  -36.9293   -8.1642 C   0  0  0  0  0  0  0  0  0  0  0  0
   22.4587  -36.7689   -9.6599 C   0  0  1  0  0  0  0  0  0  0  0  0
   21.2470  -36.9813  -10.3082 O   0  0  0  0  0  0  0  0  0  0  0  0
   22.9741  -35.3715   -9.8795 C   0  0  2  0  0  0  0  0  0  0  0  0
   23.2208  -35.1325  -11.2896 N   0  0  0  0  0  0  0  0  0  0  0  0
   24.2581  -35.1284   -9.1684 C   0  0  0  0  0  0  0  0  0  0  0  0
   25.3535  -35.5729   -9.5932 O   0  0  0  0  0  0  0  0  0  0  0  0
   25.2064  -31.7342   -6.4727 C   0  0  0  0  0  0  0  0  0  0  0  0
   26.0581  -32.7374   -7.2539 C   0  0  2  0  0  0  0  0  0  0  0  0
   26.2590  -32.1590   -8.6121 C   0  0  0  0  0  0  0  0  0  0  0  0
   25.4968  -34.1108   -7.1939 C   0  0  2  0  0  0  0  0  0  0  0  0
   24.3244  -34.3688   -7.9500 N   0  0  0  0  0  0  0  0  0  0  0  0
   25.5044  -34.7159   -5.8210 C   0  0  0  0  0  0  0  0  0  0  0  0
   24.4462  -34.8333   -5.1507 O   0  0  0  0  0  0  0  0  0  0  0  0
   27.8122  -37.4342   -2.4329 C   0  0  0  0  0  0  0  0  0  0  0  0
   27.7499  -36.8636   -3.8349 C   0  0  1  0  0  0  0  0  0  0  0  0
   27.5472  -37.9249   -4.7188 O   0  0  0  0  0  0  0  0  0  0  0  0
   26.6100  -35.8737   -3.8823 C   0  0  2  0  0  0  0  0  0  0  0  0
   26.6822  -35.1902   -5.1832 N   0  0  0  0  0  0  0  0  0  0  0  0
   26.8668  -34.8394   -2.8485 C   0  0  0  0  0  0  0  0  0  0  0  0
   27.5086  -33.8045   -3.1713 O   0  0  0  0  0  0  0  0  0  0  0  0
   26.4306  -34.9678   -1.5504 O   0  0  0  0  0  0  0  0  0  0  0  0
  2  1  1  1
  2  3  1  0
  2  4  1  0
  4  5  1  6
  6  4  1  0
  6 12  1  0
  7  6  2  0
  9 11  1  0
  9  8  1  1
 10  9  1  0
 11 12  1  1
 11 13  1  0
 13 19  1  0
 14 13  2  0
 16 15  1  1
 17 16  1  0
 18 16  1  0
 18 19  1  6
 20 18  1  0
 20 22  1  0
 21 20  2  0
M  END
$$$$
