TVT.pdb
     RDKit          3D

 22 21  0  0  1  0  0  0  0  0999 V2000
   10.2440   -9.2233   -8.2559 C   0  0  0  0  0  0  0  0  0  0  0  0
   11.6849   -9.5495   -8.6177 C   0  0  1  0  0  0  0  0  0  0  0  0
   11.8870  -10.9106   -8.4167 O   0  0  0  0  0  0  0  0  0  0  0  0
   11.8746   -9.1620  -10.0600 C   0  0  2  0  0  0  0  0  0  0  0  0
   11.3384  -10.1843  -10.9396 N   0  0  0  0  0  0  0  0  0  0  0  0
   13.3104   -8.9970  -10.4131 C   0  0  0  0  0  0  0  0  0  0  0  0
   14.0761   -8.2395   -9.7668 O   0  0  0  0  0  0  0  0  0  0  0  0
   15.5464  -11.9757  -12.8222 C   0  0  0  0  0  0  0  0  0  0  0  0
   16.0229  -10.9699  -11.7719 C   0  0  2  0  0  0  0  0  0  0  0  0
   15.9816  -11.6732  -10.4591 C   0  0  0  0  0  0  0  0  0  0  0  0
   15.2875   -9.6829  -11.8586 C   0  0  2  0  0  0  0  0  0  0  0  0
   13.9105   -9.6952  -11.5167 N   0  0  0  0  0  0  0  0  0  0  0  0
   15.6264   -8.8644  -13.0694 C   0  0  0  0  0  0  0  0  0  0  0  0
   14.8875   -8.8633  -14.0877 O   0  0  0  0  0  0  0  0  0  0  0  0
   17.8826   -5.1772  -15.2682 C   0  0  0  0  0  0  0  0  0  0  0  0
   17.3804   -5.8912  -14.0300 C   0  0  1  0  0  0  0  0  0  0  0  0
   16.2234   -5.2385  -13.6009 O   0  0  0  0  0  0  0  0  0  0  0  0
   17.1033   -7.3282  -14.4037 C   0  0  2  0  0  0  0  0  0  0  0  0
   16.7850   -8.0468  -13.1600 N   0  0  0  0  0  0  0  0  0  0  0  0
   18.3680   -7.9134  -14.9162 C   0  0  0  0  0  0  0  0  0  0  0  0
   19.2047   -8.3680  -14.0914 O   0  0  0  0  0  0  0  0  0  0  0  0
   18.6616   -7.9783  -16.2584 O   0  0  0  0  0  0  0  0  0  0  0  0
  2  1  1  6
  2  3  1  0
  2  4  1  0
  4  5  1  6
  6  4  1  0
  6 12  1  0
  7  6  2  0
  9 11  1  0
  9  8  1  6
 10  9  1  0
 11 12  1  6
 11 13  1  0
 13 19  1  0
 14 13  2  0
 16 15  1  6
 17 16  1  0
 18 16  1  0
 18 19  1  1
 20 18  1  0
 20 22  1  0
 21 20  2  0
M  END
$$$$
