VVQ.pdb
     RDKit          3D

 24 23  0  0  1  0  0  0  0  0999 V2000
   27.4902  -18.1350  -13.9423 C   0  0  0  0  0  0  0  0  0  0  0  0
   27.1443  -18.8196  -15.2665 C   0  0  2  0  0  0  0  0  0  0  0  0
   27.4595  -17.8330  -16.3798 C   0  0  0  0  0  0  0  0  0  0  0  0
   25.6780  -19.1986  -15.2893 C   0  0  2  0  0  0  0  0  0  0  0  0
   24.9032  -17.9919  -15.1462 N   0  0  0  0  0  0  0  0  0  0  0  0
   25.4332  -20.1569  -14.1968 C   0  0  0  0  0  0  0  0  0  0  0  0
   25.8889  -21.3223  -14.3186 O   0  0  0  0  0  0  0  0  0  0  0  0
   24.7550  -19.2223  -10.1583 C   0  0  0  0  0  0  0  0  0  0  0  0
   25.2208  -20.5177  -10.7793 C   0  0  1  0  0  0  0  0  0  0  0  0
   25.1812  -21.6144   -9.7547 C   0  0  0  0  0  0  0  0  0  0  0  0
   24.4613  -20.8541  -12.0355 C   0  0  2  0  0  0  0  0  0  0  0  0
   24.7123  -19.8398  -13.0146 N   0  0  0  0  0  0  0  0  0  0  0  0
   22.9896  -20.9872  -11.7427 C   0  0  0  0  0  0  0  0  0  0  0  0
   22.2332  -19.9833  -11.7648 O   0  0  0  0  0  0  0  0  0  0  0  0
   19.8011  -23.7171   -7.4668 N   0  0  0  0  0  0  0  0  0  0  0  0
   18.8637  -23.2436   -8.4514 C   0  0  0  0  0  0  0  0  0  0  0  0
   17.7914  -23.8392   -8.5000 O   0  0  0  0  0  0  0  0  0  0  0  0
   19.2601  -22.1385   -9.2739 C   0  0  0  0  0  0  0  0  0  0  0  0
   20.6563  -22.0613   -9.7346 C   0  0  0  0  0  0  0  0  0  0  0  0
   20.9789  -22.3952  -11.1360 C   0  0  2  0  0  0  0  0  0  0  0  0
   22.4020  -22.2262  -11.4349 N   0  0  0  0  0  0  0  0  0  0  0  0
   20.1681  -21.8072  -12.1956 C   0  0  0  0  0  0  0  0  0  0  0  0
   19.3770  -22.5018  -13.0985 O   0  0  0  0  0  0  0  0  0  0  0  0
   20.1662  -20.5308  -12.3295 O   0  0  0  0  0  0  0  0  0  0  0  0
  2  1  1  1
  3  2  1  0
  4  2  1  0
  4  5  1  1
  6  7  2  0
  6  4  1  0
  9  8  1  1
  9 11  1  0
 10  9  1  0
 11 12  1  6
 12  6  1  0
 13 21  1  0
 13 11  1  0
 14 13  2  0
 16 15  1  0
 17 16  2  0
 18 16  1  0
 19 18  1  0
 20 19  1  1
 20 21  1  0
 20 22  1  0
 22 23  1  0
 24 22  2  0
M  END
$$$$
