VVQ.pdb
     RDKit          3D

 24 23  0  0  1  0  0  0  0  0999 V2000
   26.4788  -19.2247  -16.6321 C   0  0  0  0  0  0  0  0  0  0  0  0
   27.6425  -19.0378  -15.6561 C   0  0  2  0  0  0  0  0  0  0  0  0
   28.7885  -18.4122  -16.4354 C   0  0  0  0  0  0  0  0  0  0  0  0
   28.0577  -20.3752  -15.0787 C   0  0  2  0  0  0  0  0  0  0  0  0
   28.4213  -21.2397  -16.1730 N   0  0  0  0  0  0  0  0  0  0  0  0
   26.9305  -20.9072  -14.2925 C   0  0  0  0  0  0  0  0  0  0  0  0
   26.1557  -21.7265  -14.8486 O   0  0  0  0  0  0  0  0  0  0  0  0
   26.1163  -19.5466  -10.3771 C   0  0  0  0  0  0  0  0  0  0  0  0
   25.7086  -20.9409  -10.7897 C   0  0  1  0  0  0  0  0  0  0  0  0
   24.5090  -21.3739   -9.9977 C   0  0  0  0  0  0  0  0  0  0  0  0
   25.5096  -21.0607  -12.2778 C   0  0  2  0  0  0  0  0  0  0  0  0
   26.6692  -20.5480  -12.9433 N   0  0  0  0  0  0  0  0  0  0  0  0
   24.2612  -20.3329  -12.7034 C   0  0  0  0  0  0  0  0  0  0  0  0
   24.2684  -19.0887  -12.8831 O   0  0  0  0  0  0  0  0  0  0  0  0
   19.3217  -22.1157  -16.2195 N   0  0  0  0  0  0  0  0  0  0  0  0
   20.4779  -21.3467  -16.5992 C   0  0  0  0  0  0  0  0  0  0  0  0
   20.4048  -20.7673  -17.6790 O   0  0  0  0  0  0  0  0  0  0  0  0
   21.5928  -21.3277  -15.6984 C   0  0  0  0  0  0  0  0  0  0  0  0
   21.7812  -20.1563  -14.8266 C   0  0  0  0  0  0  0  0  0  0  0  0
   21.8200  -20.3389  -13.3620 C   0  0  2  0  0  0  0  0  0  0  0  0
   23.0454  -21.0046  -12.9166 N   0  0  0  0  0  0  0  0  0  0  0  0
   20.6594  -20.9259  -12.7032 C   0  0  0  0  0  0  0  0  0  0  0  0
   19.3763  -20.3997  -12.6892 O   0  0  0  0  0  0  0  0  0  0  0  0
   20.8082  -22.0319  -12.0696 O   0  0  0  0  0  0  0  0  0  0  0  0
  2  1  1  6
  3  2  1  0
  4  2  1  0
  4  5  1  6
  6  7  2  0
  6  4  1  0
  9  8  1  6
  9 11  1  0
 10  9  1  0
 11 12  1  6
 12  6  1  0
 13 21  1  0
 13 11  1  0
 14 13  2  0
 16 15  1  0
 17 16  2  0
 18 16  1  0
 19 18  1  0
 20 19  1  6
 20 21  1  0
 20 22  1  0
 22 23  1  0
 24 22  2  0
M  END
$$$$
