VVQ.pdb
     RDKit          3D

 24 23  0  0  1  0  0  0  0  0999 V2000
   20.5318  -14.4393  -17.7262 C   0  0  0  0  0  0  0  0  0  0  0  0
   21.6807  -14.6948  -18.7042 C   0  0  2  0  0  0  0  0  0  0  0  0
   21.2432  -15.8190  -19.6299 C   0  0  0  0  0  0  0  0  0  0  0  0
   22.9327  -15.0851  -17.9463 C   0  0  2  0  0  0  0  0  0  0  0  0
   22.7219  -16.3939  -17.3808 N   0  0  0  0  0  0  0  0  0  0  0  0
   23.1852  -14.0617  -16.9163 C   0  0  0  0  0  0  0  0  0  0  0  0
   22.6007  -14.1795  -15.8093 O   0  0  0  0  0  0  0  0  0  0  0  0
   26.2393  -13.1456  -15.2508 C   0  0  0  0  0  0  0  0  0  0  0  0
   25.6422  -11.8365  -15.7093 C   0  0  1  0  0  0  0  0  0  0  0  0
   26.4739  -11.2607  -16.8187 C   0  0  0  0  0  0  0  0  0  0  0  0
   24.1857  -11.9682  -16.0691 C   0  0  2  0  0  0  0  0  0  0  0  0
   24.0503  -12.9505  -17.1021 N   0  0  0  0  0  0  0  0  0  0  0  0
   23.6251  -10.6367  -16.4959 C   0  0  0  0  0  0  0  0  0  0  0  0
   23.5606  -10.3228  -17.7115 O   0  0  0  0  0  0  0  0  0  0  0  0
   18.3584   -6.9628  -18.4526 N   0  0  0  0  0  0  0  0  0  0  0  0
   19.2783   -8.0215  -18.1281 C   0  0  0  0  0  0  0  0  0  0  0  0
   19.0326   -9.1160  -18.6266 O   0  0  0  0  0  0  0  0  0  0  0  0
   20.3794   -7.7085  -17.2654 C   0  0  0  0  0  0  0  0  0  0  0  0
   21.3018   -8.7865  -16.8720 C   0  0  0  0  0  0  0  0  0  0  0  0
   22.4058   -8.4934  -15.9365 C   0  0  2  0  0  0  0  0  0  0  0  0
   23.1540   -9.6955  -15.5647 N   0  0  0  0  0  0  0  0  0  0  0  0
   22.1202   -7.6912  -14.7530 C   0  0  0  0  0  0  0  0  0  0  0  0
   21.9087   -6.3208  -14.7279 O   0  0  0  0  0  0  0  0  0  0  0  0
   22.0521   -8.2802  -13.6149 O   0  0  0  0  0  0  0  0  0  0  0  0
  2  1  1  1
  3  2  1  0
  4  2  1  0
  4  5  1  1
  6  7  2  0
  6  4  1  0
  9  8  1  6
  9 11  1  0
 10  9  1  0
 11 12  1  6
 12  6  1  0
 13 21  1  0
 13 11  1  0
 14 13  2  0
 16 15  1  0
 17 16  2  0
 18 16  1  0
 19 18  1  0
 20 19  1  1
 20 21  1  0
 20 22  1  0
 22 23  1  0
 24 22  2  0
M  END
$$$$
