VVQ.pdb
     RDKit          3D

 24 23  0  0  1  0  0  0  0  0999 V2000
   17.8765  -10.8363  -17.2962 C   0  0  0  0  0  0  0  0  0  0  0  0
   18.6657  -11.6635  -18.3134 C   0  0  2  0  0  0  0  0  0  0  0  0
   17.6543  -12.4038  -19.1743 C   0  0  0  0  0  0  0  0  0  0  0  0
   19.5735  -12.6417  -17.5971 C   0  0  2  0  0  0  0  0  0  0  0  0
   18.7477  -13.6591  -16.9970 N   0  0  0  0  0  0  0  0  0  0  0  0
   20.3593  -11.8945  -16.5990 C   0  0  0  0  0  0  0  0  0  0  0  0
   19.8560  -11.7192  -15.4602 O   0  0  0  0  0  0  0  0  0  0  0  0
   24.4632  -10.8699  -17.1505 C   0  0  0  0  0  0  0  0  0  0  0  0
   23.7958  -11.1217  -15.8195 C   0  0  1  0  0  0  0  0  0  0  0  0
   24.6116  -10.5078  -14.7188 C   0  0  0  0  0  0  0  0  0  0  0  0
   22.3573  -10.6759  -15.8088 C   0  0  2  0  0  0  0  0  0  0  0  0
   21.6517  -11.3612  -16.8494 N   0  0  0  0  0  0  0  0  0  0  0  0
   22.2669   -9.1810  -15.9717 C   0  0  0  0  0  0  0  0  0  0  0  0
   22.1702   -8.6602  -17.1119 O   0  0  0  0  0  0  0  0  0  0  0  0
   20.4871   -5.2541  -18.1227 N   0  0  0  0  0  0  0  0  0  0  0  0
   20.0634   -4.5498  -16.9409 C   0  0  0  0  0  0  0  0  0  0  0  0
   19.5838   -3.4348  -17.1249 O   0  0  0  0  0  0  0  0  0  0  0  0
   20.2377   -5.2017  -15.6763 C   0  0  0  0  0  0  0  0  0  0  0  0
   20.7496   -6.5820  -15.6537 C   0  0  0  0  0  0  0  0  0  0  0  0
   22.0234   -6.8737  -14.9666 C   0  0  2  0  0  0  0  0  0  0  0  0
   22.2865   -8.3105  -14.8687 N   0  0  0  0  0  0  0  0  0  0  0  0
   22.2890   -6.2244  -13.6884 C   0  0  0  0  0  0  0  0  0  0  0  0
   22.8384   -4.9631  -13.5126 O   0  0  0  0  0  0  0  0  0  0  0  0
   21.9977   -6.8539  -12.6087 O   0  0  0  0  0  0  0  0  0  0  0  0
  2  1  1  1
  3  2  1  0
  4  2  1  0
  4  5  1  1
  6  7  2  0
  6  4  1  0
  9  8  1  6
  9 11  1  0
 10  9  1  0
 11 12  1  6
 12  6  1  0
 13 21  1  0
 13 11  1  0
 14 13  2  0
 16 15  1  0
 17 16  2  0
 18 16  1  0
 19 18  1  0
 20 19  1  1
 20 21  1  0
 20 22  1  0
 22 23  1  0
 24 22  2  0
M  END
$$$$
