VVQ.pdb
     RDKit          3D

 24 23  0  0  1  0  0  0  0  0999 V2000
   18.6139  -12.9935  -16.6478 C   0  0  0  0  0  0  0  0  0  0  0  0
   17.7100  -11.8537  -17.1225 C   0  0  2  0  0  0  0  0  0  0  0  0
   16.9191  -12.3716  -18.3134 C   0  0  0  0  0  0  0  0  0  0  0  0
   18.5476  -10.6556  -17.5191 C   0  0  2  0  0  0  0  0  0  0  0  0
   19.3538  -11.0308  -18.6533 N   0  0  0  0  0  0  0  0  0  0  0  0
   19.3623  -10.2584  -16.3571 C   0  0  0  0  0  0  0  0  0  0  0  0
   18.7649   -9.9102  -15.3069 O   0  0  0  0  0  0  0  0  0  0  0  0
   22.5476  -11.9701  -15.6179 C   0  0  0  0  0  0  0  0  0  0  0  0
   22.6727  -10.6257  -14.9415 C   0  0  1  0  0  0  0  0  0  0  0  0
   23.9870   -9.9965  -15.3028 C   0  0  0  0  0  0  0  0  0  0  0  0
   21.4925   -9.7333  -15.2223 C   0  0  2  0  0  0  0  0  0  0  0  0
   20.7826  -10.2462  -16.3551 N   0  0  0  0  0  0  0  0  0  0  0  0
   21.9460   -8.3149  -15.4503 C   0  0  0  0  0  0  0  0  0  0  0  0
   22.2697   -7.9169  -16.5980 O   0  0  0  0  0  0  0  0  0  0  0  0
   19.6261   -4.4102  -17.6822 N   0  0  0  0  0  0  0  0  0  0  0  0
   19.1953   -4.2485  -16.3182 C   0  0  0  0  0  0  0  0  0  0  0  0
   18.1216   -3.6749  -16.1601 O   0  0  0  0  0  0  0  0  0  0  0  0
   20.0448   -4.7620  -15.2841 C   0  0  0  0  0  0  0  0  0  0  0  0
   21.3068   -5.4189  -15.6630 C   0  0  0  0  0  0  0  0  0  0  0  0
   22.1980   -5.9437  -14.6094 C   0  0  2  0  0  0  0  0  0  0  0  0
   22.0269   -7.3827  -14.4018 N   0  0  0  0  0  0  0  0  0  0  0  0
   22.2423   -5.2512  -13.3271 C   0  0  0  0  0  0  0  0  0  0  0  0
   21.8843   -5.7856  -12.0984 O   0  0  0  0  0  0  0  0  0  0  0  0
   22.6457   -4.0332  -13.3017 O   0  0  0  0  0  0  0  0  0  0  0  0
  2  1  1  6
  3  2  1  0
  4  2  1  0
  4  5  1  6
  6  7  2  0
  6  4  1  0
  9  8  1  6
  9 11  1  0
 10  9  1  0
 11 12  1  6
 12  6  1  0
 13 21  1  0
 13 11  1  0
 14 13  2  0
 16 15  1  0
 17 16  2  0
 18 16  1  0
 19 18  1  0
 20 19  1  6
 20 21  1  0
 20 22  1  0
 22 23  1  0
 24 22  2  0
M  END
$$$$
