VVQ.pdb
     RDKit          3D

 24 23  0  0  1  0  0  0  0  0999 V2000
   26.7056  -20.0362  -11.5453 C   0  0  0  0  0  0  0  0  0  0  0  0
   25.2492  -20.4508  -11.3246 C   0  0  2  0  0  0  0  0  0  0  0  0
   25.2583  -21.6472  -10.3862 C   0  0  0  0  0  0  0  0  0  0  0  0
   24.6054  -20.8149  -12.6464 C   0  0  2  0  0  0  0  0  0  0  0  0
   25.3489  -21.9091  -13.2182 N   0  0  0  0  0  0  0  0  0  0  0  0
   24.6136  -19.6189  -13.5074 C   0  0  0  0  0  0  0  0  0  0  0  0
   23.9195  -18.6315  -13.1553 O   0  0  0  0  0  0  0  0  0  0  0  0
   27.4331  -17.5238  -14.3152 C   0  0  0  0  0  0  0  0  0  0  0  0
   26.7617  -17.8156  -15.6360 C   0  0  1  0  0  0  0  0  0  0  0  0
   27.6111  -18.7571  -16.4398 C   0  0  0  0  0  0  0  0  0  0  0  0
   25.3457  -18.2982  -15.4623 C   0  0  2  0  0  0  0  0  0  0  0  0
   25.3602  -19.5175  -14.7115 N   0  0  0  0  0  0  0  0  0  0  0  0
   24.6829  -18.4825  -16.8025 C   0  0  0  0  0  0  0  0  0  0  0  0
   24.8035  -19.5592  -17.4401 O   0  0  0  0  0  0  0  0  0  0  0  0
   18.8851  -17.7040  -17.3340 N   0  0  0  0  0  0  0  0  0  0  0  0
   19.1671  -17.8287  -18.7402 C   0  0  0  0  0  0  0  0  0  0  0  0
   18.1890  -17.9104  -19.4775 O   0  0  0  0  0  0  0  0  0  0  0  0
   20.5416  -17.8475  -19.1466 C   0  0  0  0  0  0  0  0  0  0  0  0
   21.5872  -17.6919  -18.1218 C   0  0  0  0  0  0  0  0  0  0  0  0
   23.0073  -17.6971  -18.5255 C   0  0  2  0  0  0  0  0  0  0  0  0
   23.9082  -17.4702  -17.3941 N   0  0  0  0  0  0  0  0  0  0  0  0
   23.4102  -16.8783  -19.6627 C   0  0  0  0  0  0  0  0  0  0  0  0
   23.1415  -17.1461  -20.9967 O   0  0  0  0  0  0  0  0  0  0  0  0
   24.0763  -15.8043  -19.4396 O   0  0  0  0  0  0  0  0  0  0  0  0
  2  1  1  6
  3  2  1  0
  4  2  1  0
  4  5  1  6
  6  7  2  0
  6  4  1  0
  9  8  1  1
  9 11  1  0
 10  9  1  0
 11 12  1  6
 12  6  1  0
 13 21  1  0
 13 11  1  0
 14 13  2  0
 16 15  1  0
 17 16  2  0
 18 16  1  0
 19 18  1  0
 20 19  1  1
 20 21  1  0
 20 22  1  0
 22 23  1  0
 24 22  2  0
M  END
$$$$
