VVQ.pdb
     RDKit          3D

 24 23  0  0  1  0  0  0  0  0999 V2000
   24.4034  -21.0099  -17.5264 C   0  0  0  0  0  0  0  0  0  0  0  0
   23.7777  -20.9095  -16.1336 C   0  0  2  0  0  0  0  0  0  0  0  0
   23.1922  -22.2733  -15.8029 C   0  0  0  0  0  0  0  0  0  0  0  0
   22.6967  -19.8485  -16.1236 C   0  0  2  0  0  0  0  0  0  0  0  0
   23.3123  -18.5818  -16.4293 N   0  0  0  0  0  0  0  0  0  0  0  0
   22.0559  -19.8565  -14.7965 C   0  0  0  0  0  0  0  0  0  0  0  0
   22.7508  -19.5266  -13.8019 O   0  0  0  0  0  0  0  0  0  0  0  0
   19.9113  -17.7167  -13.2203 C   0  0  0  0  0  0  0  0  0  0  0  0
   19.2105  -19.0500  -13.1133 C   0  0  1  0  0  0  0  0  0  0  0  0
   18.0728  -19.1051  -14.0913 C   0  0  0  0  0  0  0  0  0  0  0  0
   20.1634  -20.2084  -13.2486 C   0  0  2  0  0  0  0  0  0  0  0  0
   20.6993  -20.2152  -14.5764 N   0  0  0  0  0  0  0  0  0  0  0  0
   19.4670  -21.5049  -12.9271 C   0  0  0  0  0  0  0  0  0  0  0  0
   19.0916  -22.2807  -13.8424 O   0  0  0  0  0  0  0  0  0  0  0  0
   19.3145  -24.3016   -7.1857 N   0  0  0  0  0  0  0  0  0  0  0  0
   18.5844  -25.2313   -8.0072 C   0  0  0  0  0  0  0  0  0  0  0  0
   18.2280  -26.2683   -7.4555 O   0  0  0  0  0  0  0  0  0  0  0  0
   18.3442  -24.8697   -9.3734 C   0  0  0  0  0  0  0  0  0  0  0  0
   18.8181  -23.5617   -9.8554 C   0  0  0  0  0  0  0  0  0  0  0  0
   18.5494  -23.1602  -11.2505 C   0  0  2  0  0  0  0  0  0  0  0  0
   19.2083  -21.9016  -11.6040 N   0  0  0  0  0  0  0  0  0  0  0  0
   17.1688  -23.1554  -11.7194 C   0  0  0  0  0  0  0  0  0  0  0  0
   16.4890  -24.2338  -12.2657 O   0  0  0  0  0  0  0  0  0  0  0  0
   16.4951  -22.0668  -11.6311 O   0  0  0  0  0  0  0  0  0  0  0  0
  2  1  1  6
  3  2  1  0
  4  2  1  0
  4  5  1  1
  6  7  2  0
  6  4  1  0
  9  8  1  6
  9 11  1  0
 10  9  1  0
 11 12  1  6
 12  6  1  0
 13 21  1  0
 13 11  1  0
 14 13  2  0
 16 15  1  0
 17 16  2  0
 18 16  1  0
 19 18  1  0
 20 19  1  1
 20 21  1  0
 20 22  1  0
 22 23  1  0
 24 22  2  0
M  END
$$$$
