VVQ.pdb
     RDKit          3D

 24 23  0  0  1  0  0  0  0  0999 V2000
   17.3217  -11.0279  -16.7212 C   0  0  0  0  0  0  0  0  0  0  0  0
   18.2691  -11.5459  -17.8056 C   0  0  2  0  0  0  0  0  0  0  0  0
   17.4406  -12.3872  -18.7637 C   0  0  0  0  0  0  0  0  0  0  0  0
   19.3701  -12.3778  -17.1811 C   0  0  2  0  0  0  0  0  0  0  0  0
   18.7692  -13.5571  -16.6108 N   0  0  0  0  0  0  0  0  0  0  0  0
   20.0550  -11.5514  -16.1712 C   0  0  0  0  0  0  0  0  0  0  0  0
   19.5815  -11.5269  -15.0067 O   0  0  0  0  0  0  0  0  0  0  0  0
   23.3664  -11.7901  -14.7599 C   0  0  0  0  0  0  0  0  0  0  0  0
   23.2236  -10.3549  -15.2075 C   0  0  1  0  0  0  0  0  0  0  0  0
   24.0768  -10.1142  -16.4191 C   0  0  0  0  0  0  0  0  0  0  0  0
   21.7843   -9.9604  -15.4097 C   0  0  2  0  0  0  0  0  0  0  0  0
   21.2186  -10.7815  -16.4374 N   0  0  0  0  0  0  0  0  0  0  0  0
   21.6814   -8.4971  -15.7524 C   0  0  0  0  0  0  0  0  0  0  0  0
   21.3460   -8.1258  -16.9057 O   0  0  0  0  0  0  0  0  0  0  0  0
   20.2779   -4.5481  -17.9541 N   0  0  0  0  0  0  0  0  0  0  0  0
   19.6948   -3.8589  -16.8329 C   0  0  0  0  0  0  0  0  0  0  0  0
   19.2658   -2.7316  -17.0612 O   0  0  0  0  0  0  0  0  0  0  0  0
   19.6690   -4.5385  -15.5710 C   0  0  0  0  0  0  0  0  0  0  0  0
   20.2309   -5.8966  -15.4845 C   0  0  0  0  0  0  0  0  0  0  0  0
   21.6165   -6.0812  -15.0093 C   0  0  2  0  0  0  0  0  0  0  0  0
   21.9527   -7.4918  -14.8086 N   0  0  0  0  0  0  0  0  0  0  0  0
   22.0744   -5.2876  -13.8750 C   0  0  0  0  0  0  0  0  0  0  0  0
   22.5344   -3.9803  -13.9266 O   0  0  0  0  0  0  0  0  0  0  0  0
   22.0619   -5.8217  -12.7082 O   0  0  0  0  0  0  0  0  0  0  0  0
  2  1  1  1
  3  2  1  0
  4  2  1  0
  4  5  1  1
  6  7  2  0
  6  4  1  0
  9  8  1  6
  9 11  1  0
 10  9  1  0
 11 12  1  6
 12  6  1  0
 13 21  1  0
 13 11  1  0
 14 13  2  0
 16 15  1  0
 17 16  2  0
 18 16  1  0
 19 18  1  0
 20 19  1  1
 20 21  1  0
 20 22  1  0
 22 23  1  0
 24 22  2  0
M  END
$$$$
