VVQ.pdb
     RDKit          3D

 24 23  0  0  1  0  0  0  0  0999 V2000
   22.1187  -12.6251  -21.5922 C   0  0  0  0  0  0  0  0  0  0  0  0
   22.2589  -11.9280  -20.2372 C   0  0  2  0  0  0  0  0  0  0  0  0
   22.7120  -10.5021  -20.5085 C   0  0  0  0  0  0  0  0  0  0  0  0
   23.2733  -12.6557  -19.3796 C   0  0  2  0  0  0  0  0  0  0  0  0
   22.7407  -13.9579  -19.0670 N   0  0  0  0  0  0  0  0  0  0  0  0
   23.5224  -11.8459  -18.1738 C   0  0  0  0  0  0  0  0  0  0  0  0
   22.6165  -11.7855  -17.3040 O   0  0  0  0  0  0  0  0  0  0  0  0
   27.3224  -10.2350  -17.2243 C   0  0  0  0  0  0  0  0  0  0  0  0
   26.2488  -10.5158  -16.2000 C   0  0  1  0  0  0  0  0  0  0  0  0
   26.5012   -9.7012  -14.9644 C   0  0  0  0  0  0  0  0  0  0  0  0
   24.8631  -10.3283  -16.7593 C   0  0  2  0  0  0  0  0  0  0  0  0
   24.7263  -11.1301  -17.9377 N   0  0  0  0  0  0  0  0  0  0  0  0
   24.6031   -8.8728  -17.0480 C   0  0  0  0  0  0  0  0  0  0  0  0
   25.2379   -8.2699  -17.9502 O   0  0  0  0  0  0  0  0  0  0  0  0
   19.6223   -6.1409  -18.6331 N   0  0  0  0  0  0  0  0  0  0  0  0
   20.7070   -6.7109  -19.3887 C   0  0  0  0  0  0  0  0  0  0  0  0
   20.4537   -7.0002  -20.5545 O   0  0  0  0  0  0  0  0  0  0  0  0
   21.9641   -6.8878  -18.7231 C   0  0  0  0  0  0  0  0  0  0  0  0
   22.0666   -6.5415  -17.2957 C   0  0  0  0  0  0  0  0  0  0  0  0
   23.3531   -6.7223  -16.5943 C   0  0  2  0  0  0  0  0  0  0  0  0
   23.6495   -8.1313  -16.3299 N   0  0  0  0  0  0  0  0  0  0  0  0
   23.6159   -5.9201  -15.4055 C   0  0  0  0  0  0  0  0  0  0  0  0
   23.7598   -4.5412  -15.3671 O   0  0  0  0  0  0  0  0  0  0  0  0
   23.7298   -6.5177  -14.2755 O   0  0  0  0  0  0  0  0  0  0  0  0
  2  1  1  6
  3  2  1  0
  4  2  1  0
  4  5  1  1
  6  7  2  0
  6  4  1  0
  9  8  1  6
  9 11  1  0
 10  9  1  0
 11 12  1  6
 12  6  1  0
 13 21  1  0
 13 11  1  0
 14 13  2  0
 16 15  1  0
 17 16  2  0
 18 16  1  0
 19 18  1  0
 20 19  1  1
 20 21  1  0
 20 22  1  0
 22 23  1  0
 24 22  2  0
M  END
$$$$
