VVQ.pdb
     RDKit          3D

 24 23  0  0  1  0  0  0  0  0999 V2000
   26.9491  -17.8639  -18.0591 C   0  0  0  0  0  0  0  0  0  0  0  0
   27.3476  -17.2976  -16.6945 C   0  0  2  0  0  0  0  0  0  0  0  0
   28.5177  -16.3536  -16.9225 C   0  0  0  0  0  0  0  0  0  0  0  0
   27.7436  -18.4216  -15.7597 C   0  0  2  0  0  0  0  0  0  0  0  0
   27.6573  -19.6607  -16.4905 N   0  0  0  0  0  0  0  0  0  0  0  0
   26.8408  -18.3916  -14.5952 C   0  0  0  0  0  0  0  0  0  0  0  0
   26.8610  -17.3741  -13.8569 O   0  0  0  0  0  0  0  0  0  0  0  0
   23.1162  -19.0329  -14.5090 C   0  0  0  0  0  0  0  0  0  0  0  0
   23.7537  -19.8309  -13.3966 C   0  0  1  0  0  0  0  0  0  0  0  0
   23.6922  -21.2950  -13.7230 C   0  0  0  0  0  0  0  0  0  0  0  0
   25.1462  -19.3540  -13.0775 C   0  0  2  0  0  0  0  0  0  0  0  0
   25.9497  -19.4454  -14.2592 N   0  0  0  0  0  0  0  0  0  0  0  0
   25.7330  -20.1578  -11.9467 C   0  0  0  0  0  0  0  0  0  0  0  0
   26.3378  -21.2375  -12.1677 O   0  0  0  0  0  0  0  0  0  0  0  0
   27.8819  -18.2718   -6.4864 N   0  0  0  0  0  0  0  0  0  0  0  0
   28.0653  -19.6953   -6.3750 C   0  0  0  0  0  0  0  0  0  0  0  0
   28.5126  -20.0956   -5.3042 O   0  0  0  0  0  0  0  0  0  0  0  0
   27.7164  -20.5042   -7.5059 C   0  0  0  0  0  0  0  0  0  0  0  0
   27.1502  -19.8515   -8.6979 C   0  0  0  0  0  0  0  0  0  0  0  0
   26.1006  -20.5406   -9.4745 C   0  0  2  0  0  0  0  0  0  0  0  0
   25.6320  -19.7416  -10.6082 N   0  0  0  0  0  0  0  0  0  0  0  0
   24.9667  -21.1119   -8.7576 C   0  0  0  0  0  0  0  0  0  0  0  0
   25.0136  -22.1824   -7.8772 O   0  0  0  0  0  0  0  0  0  0  0  0
   23.8050  -20.5973   -8.9380 O   0  0  0  0  0  0  0  0  0  0  0  0
  2  1  1  6
  3  2  1  0
  4  2  1  0
  4  5  1  6
  6  7  2  0
  6  4  1  0
  9  8  1  6
  9 11  1  0
 10  9  1  0
 11 12  1  6
 12  6  1  0
 13 21  1  0
 13 11  1  0
 14 13  2  0
 16 15  1  0
 17 16  2  0
 18 16  1  0
 19 18  1  0
 20 19  1  1
 20 21  1  0
 20 22  1  0
 22 23  1  0
 24 22  2  0
M  END
$$$$
