VVQ.pdb
     RDKit          3D

 24 23  0  0  1  0  0  0  0  0999 V2000
   19.5146  -15.7244  -17.8497 C   0  0  0  0  0  0  0  0  0  0  0  0
   18.7378  -16.1113  -16.5894 C   0  0  2  0  0  0  0  0  0  0  0  0
   17.9947  -17.4019  -16.8962 C   0  0  0  0  0  0  0  0  0  0  0  0
   17.7649  -15.0111  -16.2190 C   0  0  2  0  0  0  0  0  0  0  0  0
   16.7661  -14.9316  -17.2550 N   0  0  0  0  0  0  0  0  0  0  0  0
   18.5233  -13.7561  -16.0718 C   0  0  0  0  0  0  0  0  0  0  0  0
   19.4222  -13.7074  -15.1941 O   0  0  0  0  0  0  0  0  0  0  0  0
   20.1312   -9.4780  -17.7735 C   0  0  0  0  0  0  0  0  0  0  0  0
   19.6264  -10.8966  -17.8890 C   0  0  1  0  0  0  0  0  0  0  0  0
   20.7182  -11.7822  -18.4158 C   0  0  0  0  0  0  0  0  0  0  0  0
   19.0291  -11.3968  -16.6002 C   0  0  2  0  0  0  0  0  0  0  0  0
   18.2974  -12.5990  -16.8640 N   0  0  0  0  0  0  0  0  0  0  0  0
   18.1516  -10.3406  -15.9804 C   0  0  0  0  0  0  0  0  0  0  0  0
   16.9736  -10.1627  -16.3816 O   0  0  0  0  0  0  0  0  0  0  0  0
   16.4988   -9.8903  -10.3898 N   0  0  0  0  0  0  0  0  0  0  0  0
   16.1000   -8.5656  -10.7880 C   0  0  0  0  0  0  0  0  0  0  0  0
   15.4646   -7.9247   -9.9558 O   0  0  0  0  0  0  0  0  0  0  0  0
   16.4730   -8.1215  -12.0988 C   0  0  0  0  0  0  0  0  0  0  0  0
   17.2812   -9.0130  -12.9472 C   0  0  0  0  0  0  0  0  0  0  0  0
   17.7608   -8.5315  -14.2579 C   0  0  2  0  0  0  0  0  0  0  0  0
   18.6053   -9.5155  -14.9372 N   0  0  0  0  0  0  0  0  0  0  0  0
   18.3686   -7.2083  -14.3330 C   0  0  0  0  0  0  0  0  0  0  0  0
   17.7044   -5.9971  -14.2083 O   0  0  0  0  0  0  0  0  0  0  0  0
   19.6336   -7.1250  -14.5321 O   0  0  0  0  0  0  0  0  0  0  0  0
  2  1  1  6
  3  2  1  0
  4  2  1  0
  4  5  1  6
  6  7  2  0
  6  4  1  0
  9  8  1  1
  9 11  1  0
 10  9  1  0
 11 12  1  6
 12  6  1  0
 13 21  1  0
 13 11  1  0
 14 13  2  0
 16 15  1  0
 17 16  2  0
 18 16  1  0
 19 18  1  0
 20 19  1  1
 20 21  1  0
 20 22  1  0
 22 23  1  0
 24 22  2  0
M  END
$$$$
