VVQ.pdb
     RDKit          3D

 24 23  0  0  1  0  0  0  0  0999 V2000
   22.0377  -15.7109  -19.4303 C   0  0  0  0  0  0  0  0  0  0  0  0
   22.1412  -14.6648  -18.3182 C   0  0  2  0  0  0  0  0  0  0  0  0
   21.8092  -13.3156  -18.9361 C   0  0  0  0  0  0  0  0  0  0  0  0
   23.5410  -14.6563  -17.7398 C   0  0  2  0  0  0  0  0  0  0  0  0
   23.7845  -15.9451  -17.1426 N   0  0  0  0  0  0  0  0  0  0  0  0
   23.6283  -13.5577  -16.7614 C   0  0  0  0  0  0  0  0  0  0  0  0
   22.9641  -13.6578  -15.6985 O   0  0  0  0  0  0  0  0  0  0  0  0
   26.7720  -12.0940  -15.2799 C   0  0  0  0  0  0  0  0  0  0  0  0
   25.8902  -10.9546  -15.7324 C   0  0  1  0  0  0  0  0  0  0  0  0
   26.4871  -10.3024  -16.9459 C   0  0  0  0  0  0  0  0  0  0  0  0
   24.4610  -11.3842  -15.9345 C   0  0  2  0  0  0  0  0  0  0  0  0
   24.4192  -12.3930  -16.9498 N   0  0  0  0  0  0  0  0  0  0  0  0
   23.6005  -10.2014  -16.2951 C   0  0  0  0  0  0  0  0  0  0  0  0
   23.2476   -9.9981  -17.4845 O   0  0  0  0  0  0  0  0  0  0  0  0
   18.9722   -9.7741  -18.0423 N   0  0  0  0  0  0  0  0  0  0  0  0
   18.7066   -8.5568  -17.3211 C   0  0  0  0  0  0  0  0  0  0  0  0
   17.6685   -7.9733  -17.6191 O   0  0  0  0  0  0  0  0  0  0  0  0
   19.6626   -8.1412  -16.3372 C   0  0  0  0  0  0  0  0  0  0  0  0
   20.8820   -8.9445  -16.1484 C   0  0  0  0  0  0  0  0  0  0  0  0
   22.0829   -8.3163  -15.5627 C   0  0  2  0  0  0  0  0  0  0  0  0
   23.1580   -9.2819  -15.3288 N   0  0  0  0  0  0  0  0  0  0  0  0
   21.9190   -7.4528  -14.3994 C   0  0  0  0  0  0  0  0  0  0  0  0
   21.5344   -6.1204  -14.4200 O   0  0  0  0  0  0  0  0  0  0  0  0
   22.1446   -7.9432  -13.2351 O   0  0  0  0  0  0  0  0  0  0  0  0
  2  1  1  6
  3  2  1  0
  4  2  1  0
  4  5  1  1
  6  7  2  0
  6  4  1  0
  9  8  1  6
  9 11  1  0
 10  9  1  0
 11 12  1  6
 12  6  1  0
 13 21  1  0
 13 11  1  0
 14 13  2  0
 16 15  1  0
 17 16  2  0
 18 16  1  0
 19 18  1  0
 20 19  1  1
 20 21  1  0
 20 22  1  0
 22 23  1  0
 24 22  2  0
M  END
$$$$
