EGY.pdb
     RDKit          3D

 26 26  0  0  1  0  0  0  0  0999 V2000
   27.7680  -20.5950  -17.3783 N   0  0  0  0  0  0  0  0  0  0  0  0
   26.6523  -20.4225  -18.2965 C   0  0  1  0  0  0  0  0  0  0  0  0
   26.2968  -21.6896  -19.0026 C   0  0  0  0  0  0  0  0  0  0  0  0
   27.3432  -22.1055  -19.9666 C   0  0  0  0  0  0  0  0  0  0  0  0
   28.2840  -23.1302  -19.5127 C   0  0  0  0  0  0  0  0  0  0  0  0
   29.2610  -23.5913  -20.1290 O   0  0  0  0  0  0  0  0  0  0  0  0
   25.5070  -19.8843  -17.5016 C   0  0  0  0  0  0  0  0  0  0  0  0
   24.3852  -19.7599  -18.0119 O   0  0  0  0  0  0  0  0  0  0  0  0
   28.0656  -23.6581  -18.2368 O   0  0  0  0  0  0  0  0  0  0  0  0
   25.6943  -19.5122  -16.1587 N   0  0  0  0  0  0  0  0  0  0  0  0
   24.6786  -18.9170  -15.3276 C   0  0  0  0  0  0  0  0  0  0  0  0
   24.1947  -19.8920  -14.3256 C   0  0  0  0  0  0  0  0  0  0  0  0
   24.3837  -21.1327  -14.5215 O   0  0  0  0  0  0  0  0  0  0  0  0
   29.5270  -20.4332  -12.0469 O   0  0  0  0  0  0  0  0  0  0  0  0
   28.1702  -20.4102  -11.7607 C   0  0  0  0  0  0  0  0  0  0  0  0
   27.4355  -19.2947  -12.0944 C   0  0  0  0  0  0  0  0  0  0  0  0
   26.0912  -19.3093  -11.7943 C   0  0  0  0  0  0  0  0  0  0  0  0
   25.4749  -20.3771  -11.1867 C   0  0  0  0  0  0  0  0  0  0  0  0
   24.0308  -20.2954  -10.9079 C   0  0  0  0  0  0  0  0  0  0  0  0
   23.1764  -20.4324  -12.1498 C   0  0  2  0  0  0  0  0  0  0  0  0
   23.5243  -19.4651  -13.1518 N   0  0  0  0  0  0  0  0  0  0  0  0
   21.7409  -20.4223  -11.8223 C   0  0  0  0  0  0  0  0  0  0  0  0
   21.0478  -19.4418  -12.1566 O   0  0  0  0  0  0  0  0  0  0  0  0
   26.2332  -21.4790  -10.8641 C   0  0  0  0  0  0  0  0  0  0  0  0
   27.5903  -21.4965  -11.1528 C   0  0  0  0  0  0  0  0  0  0  0  0
   21.1560  -21.4710  -11.1576 O   0  0  0  0  0  0  0  0  0  0  0  0
  2  1  1  1
  2  3  1  0
  4  3  1  0
  4  5  1  0
  5  9  1  0
  5  6  2  0
  7  8  2  0
  7  2  1  0
 10  7  1  0
 11 12  1  0
 11 10  1  0
 12 21  1  0
 13 12  2  0
 15 14  1  0
 16 15  2  0
 17 16  1  0
 18 24  1  0
 18 17  2  0
 19 18  1  0
 20 19  1  1
 21 20  1  0
 22 26  1  0
 22 20  1  0
 23 22  2  0
 24 25  2  0
 25 15  1  0
M  END
$$$$
