EGY.pdb
     RDKit          3D

 26 26  0  0  1  0  0  0  0  0999 V2000
   22.0360  -21.4427  -13.2295 N   0  0  0  0  0  0  0  0  0  0  0  0
   22.8851  -21.4880  -14.4105 C   0  0  1  0  0  0  0  0  0  0  0  0
   22.2883  -20.7556  -15.5672 C   0  0  0  0  0  0  0  0  0  0  0  0
   21.9613  -19.3496  -15.2308 C   0  0  0  0  0  0  0  0  0  0  0  0
   22.0538  -18.3757  -16.3191 C   0  0  0  0  0  0  0  0  0  0  0  0
   21.3023  -18.2629  -17.3037 O   0  0  0  0  0  0  0  0  0  0  0  0
   24.2141  -20.9282  -14.0190 C   0  0  0  0  0  0  0  0  0  0  0  0
   24.6015  -19.8418  -14.4708 O   0  0  0  0  0  0  0  0  0  0  0  0
   23.1087  -17.4608  -16.2512 O   0  0  0  0  0  0  0  0  0  0  0  0
   25.0418  -21.6344  -13.1285 N   0  0  0  0  0  0  0  0  0  0  0  0
   26.2464  -21.1057  -12.5402 C   0  0  0  0  0  0  0  0  0  0  0  0
   26.2315  -21.2970  -11.0732 C   0  0  0  0  0  0  0  0  0  0  0  0
   25.1209  -21.4485  -10.4758 O   0  0  0  0  0  0  0  0  0  0  0  0
   28.6409  -19.6261   -2.8334 O   0  0  0  0  0  0  0  0  0  0  0  0
   28.6569  -19.8737   -4.1979 C   0  0  0  0  0  0  0  0  0  0  0  0
   29.1888  -21.0578   -4.6562 C   0  0  0  0  0  0  0  0  0  0  0  0
   29.1869  -21.2675   -6.0176 C   0  0  0  0  0  0  0  0  0  0  0  0
   28.6826  -20.3533   -6.9116 C   0  0  0  0  0  0  0  0  0  0  0  0
   28.7265  -20.6715   -8.3492 C   0  0  0  0  0  0  0  0  0  0  0  0
   27.3836  -21.0924   -8.9067 C   0  0  2  0  0  0  0  0  0  0  0  0
   27.4348  -21.3139  -10.3241 N   0  0  0  0  0  0  0  0  0  0  0  0
   26.3177  -20.1553   -8.5147 C   0  0  0  0  0  0  0  0  0  0  0  0
   25.5098  -20.4902   -7.6265 O   0  0  0  0  0  0  0  0  0  0  0  0
   28.1570  -19.1781   -6.4260 C   0  0  0  0  0  0  0  0  0  0  0  0
   28.1436  -18.9358   -5.0598 C   0  0  0  0  0  0  0  0  0  0  0  0
   26.1997  -18.9239   -9.1092 O   0  0  0  0  0  0  0  0  0  0  0  0
  2  1  1  1
  2  3  1  0
  4  3  1  0
  4  5  1  0
  5  9  1  0
  5  6  2  0
  7  8  2  0
  7  2  1  0
 10  7  1  0
 11 12  1  0
 11 10  1  0
 12 21  1  0
 13 12  2  0
 15 14  1  0
 16 15  2  0
 17 16  1  0
 18 24  1  0
 18 17  2  0
 19 18  1  0
 20 19  1  6
 21 20  1  0
 22 26  1  0
 22 20  1  0
 23 22  2  0
 24 25  2  0
 25 15  1  0
M  END
$$$$
