EGY.pdb
     RDKit          3D

 26 26  0  0  1  0  0  0  0  0999 V2000
   25.1105  -17.4135  -17.8149 N   0  0  0  0  0  0  0  0  0  0  0  0
   25.5883  -18.3515  -16.8101 C   0  0  1  0  0  0  0  0  0  0  0  0
   26.8678  -17.9068  -16.1811 C   0  0  0  0  0  0  0  0  0  0  0  0
   28.0240  -18.0607  -17.0959 C   0  0  0  0  0  0  0  0  0  0  0  0
   28.1505  -19.3462  -17.7834 C   0  0  0  0  0  0  0  0  0  0  0  0
   28.3667  -19.5433  -18.9923 O   0  0  0  0  0  0  0  0  0  0  0  0
   24.4959  -18.5124  -15.8032 C   0  0  0  0  0  0  0  0  0  0  0  0
   24.6865  -19.1504  -14.7587 O   0  0  0  0  0  0  0  0  0  0  0  0
   28.0133  -20.4928  -16.9954 O   0  0  0  0  0  0  0  0  0  0  0  0
   23.2339  -17.9371  -16.0343 N   0  0  0  0  0  0  0  0  0  0  0  0
   22.1356  -17.9774  -15.1022 C   0  0  0  0  0  0  0  0  0  0  0  0
   21.6756  -19.3698  -14.9062 C   0  0  0  0  0  0  0  0  0  0  0  0
   21.8773  -20.2273  -15.8212 O   0  0  0  0  0  0  0  0  0  0  0  0
   26.8330  -21.5882  -12.4922 O   0  0  0  0  0  0  0  0  0  0  0  0
   25.4473  -21.6295  -12.4545 C   0  0  0  0  0  0  0  0  0  0  0  0
   24.7871  -22.5925  -13.1839 C   0  0  0  0  0  0  0  0  0  0  0  0
   23.4111  -22.6014  -13.1211 C   0  0  0  0  0  0  0  0  0  0  0  0
   22.6935  -21.7006  -12.3710 C   0  0  0  0  0  0  0  0  0  0  0  0
   21.2235  -21.7936  -12.3695 C   0  0  0  0  0  0  0  0  0  0  0  0
   20.5836  -21.1237  -13.5666 C   0  0  2  0  0  0  0  0  0  0  0  0
   21.0142  -19.7624  -13.7154 N   0  0  0  0  0  0  0  0  0  0  0  0
   19.1176  -21.2580  -13.5419 C   0  0  0  0  0  0  0  0  0  0  0  0
   18.6099  -22.3948  -13.6021 O   0  0  0  0  0  0  0  0  0  0  0  0
   23.3790  -20.7487  -11.6517 C   0  0  0  0  0  0  0  0  0  0  0  0
   24.7655  -20.7122  -11.6931 C   0  0  0  0  0  0  0  0  0  0  0  0
   18.3042  -20.1560  -13.4539 O   0  0  0  0  0  0  0  0  0  0  0  0
  2  1  1  6
  2  3  1  0
  4  3  1  0
  4  5  1  0
  5  9  1  0
  5  6  2  0
  7  8  2  0
  7  2  1  0
 10  7  1  0
 11 12  1  0
 11 10  1  0
 12 21  1  0
 13 12  2  0
 15 14  1  0
 16 15  2  0
 17 16  1  0
 18 24  1  0
 18 17  2  0
 19 18  1  0
 20 19  1  1
 21 20  1  0
 22 26  1  0
 22 20  1  0
 23 22  2  0
 24 25  2  0
 25 15  1  0
M  END
$$$$
