EGY.pdb
     RDKit          3D

 26 26  0  0  1  0  0  0  0  0999 V2000
   25.4638  -18.8080  -16.0339 N   0  0  0  0  0  0  0  0  0  0  0  0
   26.7202  -19.4925  -16.2995 C   0  0  1  0  0  0  0  0  0  0  0  0
   27.8994  -18.7361  -15.7819 C   0  0  0  0  0  0  0  0  0  0  0  0
   28.0594  -17.4230  -16.4509 C   0  0  0  0  0  0  0  0  0  0  0  0
   28.6802  -17.4327  -17.7759 C   0  0  0  0  0  0  0  0  0  0  0  0
   28.4727  -16.6477  -18.7180 O   0  0  0  0  0  0  0  0  0  0  0  0
   26.6172  -20.8535  -15.6912 C   0  0  0  0  0  0  0  0  0  0  0  0
   27.6148  -21.5817  -15.5961 O   0  0  0  0  0  0  0  0  0  0  0  0
   29.6183  -18.4403  -18.0193 O   0  0  0  0  0  0  0  0  0  0  0  0
   25.3789  -21.3224  -15.2183 N   0  0  0  0  0  0  0  0  0  0  0  0
   25.1671  -22.6238  -14.6369 C   0  0  0  0  0  0  0  0  0  0  0  0
   25.3459  -22.5688  -13.1692 C   0  0  0  0  0  0  0  0  0  0  0  0
   25.9833  -23.4985  -12.5839 O   0  0  0  0  0  0  0  0  0  0  0  0
   28.3437  -19.6918   -5.7111 O   0  0  0  0  0  0  0  0  0  0  0  0
   27.9142  -19.9461   -7.0050 C   0  0  0  0  0  0  0  0  0  0  0  0
   28.6009  -20.8622   -7.7694 C   0  0  0  0  0  0  0  0  0  0  0  0
   28.1441  -21.0877   -9.0492 C   0  0  0  0  0  0  0  0  0  0  0  0
   27.0503  -20.4421   -9.5746 C   0  0  0  0  0  0  0  0  0  0  0  0
   26.6406  -20.7534  -10.9548 C   0  0  0  0  0  0  0  0  0  0  0  0
   25.2427  -21.3269  -11.0456 C   0  0  2  0  0  0  0  0  0  0  0  0
   24.8181  -21.4970  -12.4063 N   0  0  0  0  0  0  0  0  0  0  0  0
   24.2853  -20.5473  -10.2433 C   0  0  0  0  0  0  0  0  0  0  0  0
   23.6706  -19.6038  -10.7776 O   0  0  0  0  0  0  0  0  0  0  0  0
   26.3827  -19.5314   -8.7884 C   0  0  0  0  0  0  0  0  0  0  0  0
   26.8169  -19.2810   -7.4945 C   0  0  0  0  0  0  0  0  0  0  0  0
   24.0598  -20.8416   -8.9218 O   0  0  0  0  0  0  0  0  0  0  0  0
  2  1  1  1
  2  3  1  0
  4  3  1  0
  4  5  1  0
  5  9  1  0
  5  6  2  0
  7  8  2  0
  7  2  1  0
 10  7  1  0
 11 12  1  0
 11 10  1  0
 12 21  1  0
 13 12  2  0
 15 14  1  0
 16 15  2  0
 17 16  1  0
 18 24  1  0
 18 17  2  0
 19 18  1  0
 20 19  1  6
 21 20  1  0
 22 26  1  0
 22 20  1  0
 23 22  2  0
 24 25  2  0
 25 15  1  0
M  END
$$$$
