EGY.pdb
     RDKit          3D

 26 26  0  0  1  0  0  0  0  0999 V2000
   27.3642  -21.9750  -17.8840 N   0  0  0  0  0  0  0  0  0  0  0  0
   27.2050  -22.7962  -16.6932 C   0  0  1  0  0  0  0  0  0  0  0  0
   28.0693  -24.0138  -16.7235 C   0  0  0  0  0  0  0  0  0  0  0  0
   27.5461  -25.0485  -17.6471 C   0  0  0  0  0  0  0  0  0  0  0  0
   26.2694  -25.6656  -17.2860 C   0  0  0  0  0  0  0  0  0  0  0  0
   25.2321  -25.7215  -17.9700 O   0  0  0  0  0  0  0  0  0  0  0  0
   27.5043  -21.9265  -15.5154 C   0  0  0  0  0  0  0  0  0  0  0  0
   27.4130  -22.3691  -14.3621 O   0  0  0  0  0  0  0  0  0  0  0  0
   26.1994  -26.2652  -16.0250 O   0  0  0  0  0  0  0  0  0  0  0  0
   27.8946  -20.5895  -15.7075 N   0  0  0  0  0  0  0  0  0  0  0  0
   28.2315  -19.6768  -14.6444 C   0  0  0  0  0  0  0  0  0  0  0  0
   27.0503  -19.4190  -13.7917 C   0  0  0  0  0  0  0  0  0  0  0  0
   26.2607  -18.4702  -14.0911 O   0  0  0  0  0  0  0  0  0  0  0  0
   19.1756  -20.6634  -11.2094 O   0  0  0  0  0  0  0  0  0  0  0  0
   20.4717  -20.6379  -11.7021 C   0  0  0  0  0  0  0  0  0  0  0  0
   21.3145  -21.6895  -11.4209 C   0  0  0  0  0  0  0  0  0  0  0  0
   22.5939  -21.6281  -11.9276 C   0  0  0  0  0  0  0  0  0  0  0  0
   23.0448  -20.5750  -12.6871 C   0  0  0  0  0  0  0  0  0  0  0  0
   24.4314  -20.6034  -13.1833 C   0  0  0  0  0  0  0  0  0  0  0  0
   25.4515  -20.2606  -12.1188 C   0  0  2  0  0  0  0  0  0  0  0  0
   26.7853  -20.2124  -12.6472 N   0  0  0  0  0  0  0  0  0  0  0  0
   25.3333  -21.1492  -10.9506 C   0  0  0  0  0  0  0  0  0  0  0  0
   24.8415  -20.7041   -9.8953 O   0  0  0  0  0  0  0  0  0  0  0  0
   22.1812  -19.5373  -12.9528 C   0  0  0  0  0  0  0  0  0  0  0  0
   20.8855  -19.5682  -12.4572 C   0  0  0  0  0  0  0  0  0  0  0  0
   25.7543  -22.4544  -11.0048 O   0  0  0  0  0  0  0  0  0  0  0  0
  2  1  1  6
  2  3  1  0
  4  3  1  0
  4  5  1  0
  5  9  1  0
  5  6  2  0
  7  8  2  0
  7  2  1  0
 10  7  1  0
 11 12  1  0
 11 10  1  0
 12 21  1  0
 13 12  2  0
 15 14  1  0
 16 15  2  0
 17 16  1  0
 18 24  1  0
 18 17  2  0
 19 18  1  0
 20 19  1  6
 21 20  1  0
 22 26  1  0
 22 20  1  0
 23 22  2  0
 24 25  2  0
 25 15  1  0
M  END
$$$$
