EGY.pdb
     RDKit          3D

 26 26  0  0  1  0  0  0  0  0999 V2000
   23.4422  -13.1969  -19.7188 N   0  0  0  0  0  0  0  0  0  0  0  0
   22.3166  -12.3135  -19.9841 C   0  0  1  0  0  0  0  0  0  0  0  0
   21.1265  -13.0509  -20.5041 C   0  0  0  0  0  0  0  0  0  0  0  0
   20.8051  -14.2435  -19.6846 C   0  0  0  0  0  0  0  0  0  0  0  0
   19.7087  -15.0891  -20.1579 C   0  0  0  0  0  0  0  0  0  0  0  0
   18.5260  -15.0859  -19.7730 O   0  0  0  0  0  0  0  0  0  0  0  0
   22.0151  -11.5902  -18.7118 C   0  0  0  0  0  0  0  0  0  0  0  0
   21.0345  -10.8379  -18.6282 O   0  0  0  0  0  0  0  0  0  0  0  0
   20.0192  -16.0120  -21.1610 O   0  0  0  0  0  0  0  0  0  0  0  0
   22.8473  -11.7583  -17.5911 N   0  0  0  0  0  0  0  0  0  0  0  0
   22.6803  -11.0647  -16.3390 C   0  0  0  0  0  0  0  0  0  0  0  0
   22.9631   -9.6222  -16.5063 C   0  0  0  0  0  0  0  0  0  0  0  0
   24.0417   -9.2600  -17.0708 O   0  0  0  0  0  0  0  0  0  0  0  0
   17.4545   -6.7837  -20.3818 O   0  0  0  0  0  0  0  0  0  0  0  0
   18.6875   -6.8429  -19.7496 C   0  0  0  0  0  0  0  0  0  0  0  0
   19.0861   -5.7866  -18.9618 C   0  0  0  0  0  0  0  0  0  0  0  0
   20.3168   -5.8822  -18.3505 C   0  0  0  0  0  0  0  0  0  0  0  0
   21.1397   -6.9731  -18.4988 C   0  0  0  0  0  0  0  0  0  0  0  0
   22.4377   -6.9797  -17.8024 C   0  0  0  0  0  0  0  0  0  0  0  0
   22.3156   -7.2539  -16.3188 C   0  0  2  0  0  0  0  0  0  0  0  0
   22.0513   -8.6385  -16.0474 N   0  0  0  0  0  0  0  0  0  0  0  0
   21.3420   -6.3524  -15.6807 C   0  0  0  0  0  0  0  0  0  0  0  0
   20.3478   -6.8387  -15.1074 O   0  0  0  0  0  0  0  0  0  0  0  0
   20.7162   -8.0146  -19.2919 C   0  0  0  0  0  0  0  0  0  0  0  0
   19.4817   -7.9499  -19.9221 C   0  0  0  0  0  0  0  0  0  0  0  0
   21.5108   -4.9905  -15.7068 O   0  0  0  0  0  0  0  0  0  0  0  0
  2  1  1  1
  2  3  1  0
  4  3  1  0
  4  5  1  0
  5  9  1  0
  5  6  2  0
  7  8  2  0
  7  2  1  0
 10  7  1  0
 11 12  1  0
 11 10  1  0
 12 21  1  0
 13 12  2  0
 15 14  1  0
 16 15  2  0
 17 16  1  0
 18 24  1  0
 18 17  2  0
 19 18  1  0
 20 19  1  6
 21 20  1  0
 22 26  1  0
 22 20  1  0
 23 22  2  0
 24 25  2  0
 25 15  1  0
M  END
$$$$
