EGY.pdb
     RDKit          3D

 26 26  0  0  1  0  0  0  0  0999 V2000
   26.6813  -28.1553  -17.4815 N   0  0  0  0  0  0  0  0  0  0  0  0
   25.6312  -27.1699  -17.2718 C   0  0  1  0  0  0  0  0  0  0  0  0
   24.3516  -27.7916  -16.8173 C   0  0  0  0  0  0  0  0  0  0  0  0
   23.6078  -28.4213  -17.9342 C   0  0  0  0  0  0  0  0  0  0  0  0
   22.8387  -27.5252  -18.7984 C   0  0  0  0  0  0  0  0  0  0  0  0
   22.3077  -26.4434  -18.4907 O   0  0  0  0  0  0  0  0  0  0  0  0
   26.1516  -26.1751  -16.2856 C   0  0  0  0  0  0  0  0  0  0  0  0
   27.2111  -26.3809  -15.6777 O   0  0  0  0  0  0  0  0  0  0  0  0
   22.6774  -27.9252  -20.1282 O   0  0  0  0  0  0  0  0  0  0  0  0
   25.4383  -24.9890  -16.0376 N   0  0  0  0  0  0  0  0  0  0  0  0
   25.8965  -23.9254  -15.1801 C   0  0  0  0  0  0  0  0  0  0  0  0
   24.8988  -22.8339  -15.1334 C   0  0  0  0  0  0  0  0  0  0  0  0
   23.7168  -23.0521  -15.5439 O   0  0  0  0  0  0  0  0  0  0  0  0
   24.2516  -21.5006   -8.3131 O   0  0  0  0  0  0  0  0  0  0  0  0
   24.3354  -21.0011   -9.6041 C   0  0  0  0  0  0  0  0  0  0  0  0
   23.1747  -20.7537  -10.3018 C   0  0  0  0  0  0  0  0  0  0  0  0
   23.2986  -20.2580  -11.5810 C   0  0  0  0  0  0  0  0  0  0  0  0
   24.5158  -20.0087  -12.1688 C   0  0  0  0  0  0  0  0  0  0  0  0
   24.5424  -19.4779  -13.5426 C   0  0  0  0  0  0  0  0  0  0  0  0
   24.2353  -20.5254  -14.5913 C   0  0  2  0  0  0  0  0  0  0  0  0
   25.2397  -21.5499  -14.6387 N   0  0  0  0  0  0  0  0  0  0  0  0
   23.9814  -19.9152  -15.9070 C   0  0  0  0  0  0  0  0  0  0  0  0
   22.9540  -19.2289  -16.0710 O   0  0  0  0  0  0  0  0  0  0  0  0
   25.6598  -20.2650  -11.4486 C   0  0  0  0  0  0  0  0  0  0  0  0
   25.5700  -20.7648  -10.1573 C   0  0  0  0  0  0  0  0  0  0  0  0
   24.8544  -20.0892  -16.9517 O   0  0  0  0  0  0  0  0  0  0  0  0
  2  1  1  1
  2  3  1  0
  4  3  1  0
  4  5  1  0
  5  9  1  0
  5  6  2  0
  7  8  2  0
  7  2  1  0
 10  7  1  0
 11 12  1  0
 11 10  1  0
 12 21  1  0
 13 12  2  0
 15 14  1  0
 16 15  2  0
 17 16  1  0
 18 24  1  0
 18 17  2  0
 19 18  1  0
 20 19  1  1
 21 20  1  0
 22 26  1  0
 22 20  1  0
 23 22  2  0
 24 25  2  0
 25 15  1  0
M  END
$$$$
