EGY.pdb
     RDKit          3D

 26 26  0  0  1  0  0  0  0  0999 V2000
   20.6750  -17.4225  -17.0829 N   0  0  0  0  0  0  0  0  0  0  0  0
   20.7609  -18.1454  -18.3429 C   0  0  1  0  0  0  0  0  0  0  0  0
   19.5357  -18.9536  -18.6185 C   0  0  0  0  0  0  0  0  0  0  0  0
   18.3594  -18.4623  -17.8622 C   0  0  0  0  0  0  0  0  0  0  0  0
   17.0918  -19.1544  -18.0977 C   0  0  0  0  0  0  0  0  0  0  0  0
   15.9563  -18.6535  -18.1792 O   0  0  0  0  0  0  0  0  0  0  0  0
   21.0176  -17.1350  -19.4135 C   0  0  0  0  0  0  0  0  0  0  0  0
   20.6047  -17.3162  -20.5673 O   0  0  0  0  0  0  0  0  0  0  0  0
   17.1563  -20.5426  -18.2500 O   0  0  0  0  0  0  0  0  0  0  0  0
   21.7347  -15.9621  -19.1186 N   0  0  0  0  0  0  0  0  0  0  0  0
   22.0175  -14.9174  -20.0700 C   0  0  0  0  0  0  0  0  0  0  0  0
   22.6392  -13.7577  -19.3937 C   0  0  0  0  0  0  0  0  0  0  0  0
   22.5861  -13.6726  -18.1276 O   0  0  0  0  0  0  0  0  0  0  0  0
   27.7039  -16.3777  -17.8460 O   0  0  0  0  0  0  0  0  0  0  0  0
   27.1183  -15.1836  -18.2391 C   0  0  0  0  0  0  0  0  0  0  0  0
   26.8153  -14.9935  -19.5685 C   0  0  0  0  0  0  0  0  0  0  0  0
   26.2347  -13.7949  -19.9201 C   0  0  0  0  0  0  0  0  0  0  0  0
   25.9551  -12.8062  -19.0072 C   0  0  0  0  0  0  0  0  0  0  0  0
   25.3323  -11.5592  -19.4835 C   0  0  0  0  0  0  0  0  0  0  0  0
   23.8195  -11.5973  -19.4453 C   0  0  2  0  0  0  0  0  0  0  0  0
   23.2924  -12.7408  -20.1346 N   0  0  0  0  0  0  0  0  0  0  0  0
   23.2348  -10.3299  -19.9143 C   0  0  0  0  0  0  0  0  0  0  0  0
   22.4730  -10.3399  -20.9008 O   0  0  0  0  0  0  0  0  0  0  0  0
   26.2685  -13.0229  -17.6850 C   0  0  0  0  0  0  0  0  0  0  0  0
   26.8542  -14.2196  -17.2974 C   0  0  0  0  0  0  0  0  0  0  0  0
   23.5139   -9.1425  -19.2851 O   0  0  0  0  0  0  0  0  0  0  0  0
  2  1  1  1
  2  3  1  0
  4  3  1  0
  4  5  1  0
  5  9  1  0
  5  6  2  0
  7  8  2  0
  7  2  1  0
 10  7  1  0
 11 12  1  0
 11 10  1  0
 12 21  1  0
 13 12  2  0
 15 14  1  0
 16 15  2  0
 17 16  1  0
 18 24  1  0
 18 17  2  0
 19 18  1  0
 20 19  1  6
 21 20  1  0
 22 26  1  0
 22 20  1  0
 23 22  2  0
 24 25  2  0
 25 15  1  0
M  END
$$$$
