EGY.pdb
     RDKit          3D

 26 26  0  0  1  0  0  0  0  0999 V2000
   43.9962  -11.2085   -8.8628 N   0  0  0  0  0  0  0  0  0  0  0  0
   42.9142  -10.4139   -9.4245 C   0  0  1  0  0  0  0  0  0  0  0  0
   42.1197  -11.1717  -10.4370 C   0  0  0  0  0  0  0  0  0  0  0  0
   42.9128  -11.4864  -11.6491 C   0  0  0  0  0  0  0  0  0  0  0  0
   42.2435  -12.2736  -12.6853 C   0  0  0  0  0  0  0  0  0  0  0  0
   41.6382  -13.3515  -12.5486 O   0  0  0  0  0  0  0  0  0  0  0  0
   42.0692   -9.9508   -8.2823 C   0  0  0  0  0  0  0  0  0  0  0  0
   42.0505  -10.5772   -7.2138 O   0  0  0  0  0  0  0  0  0  0  0  0
   42.2850  -11.7601  -13.9849 O   0  0  0  0  0  0  0  0  0  0  0  0
   41.2829   -8.7924   -8.4115 N   0  0  0  0  0  0  0  0  0  0  0  0
   40.3683   -8.3107   -7.4075 C   0  0  0  0  0  0  0  0  0  0  0  0
   39.6654   -7.1005   -7.8874 C   0  0  0  0  0  0  0  0  0  0  0  0
   40.0107   -6.5760   -8.9914 O   0  0  0  0  0  0  0  0  0  0  0  0
   33.4880   -1.0670   -9.3294 O   0  0  0  0  0  0  0  0  0  0  0  0
   34.2318   -2.1249   -8.8287 C   0  0  0  0  0  0  0  0  0  0  0  0
   33.5763   -3.1879   -8.2493 C   0  0  0  0  0  0  0  0  0  0  0  0
   34.3492   -4.2195   -7.7637 C   0  0  0  0  0  0  0  0  0  0  0  0
   35.7217   -4.2209   -7.8376 C   0  0  0  0  0  0  0  0  0  0  0  0
   36.4584   -5.3725   -7.2891 C   0  0  0  0  0  0  0  0  0  0  0  0
   37.9254   -5.3729   -7.6624 C   0  0  2  0  0  0  0  0  0  0  0  0
   38.6142   -6.5172   -7.1363 N   0  0  0  0  0  0  0  0  0  0  0  0
   38.5752   -4.1016   -7.3025 C   0  0  0  0  0  0  0  0  0  0  0  0
   38.8766   -3.8883   -6.1120 O   0  0  0  0  0  0  0  0  0  0  0  0
   36.3509   -3.1457   -8.4218 C   0  0  0  0  0  0  0  0  0  0  0  0
   35.6016   -2.0900   -8.9211 C   0  0  0  0  0  0  0  0  0  0  0  0
   38.8533   -3.1514   -8.2530 O   0  0  0  0  0  0  0  0  0  0  0  0
  2  1  1  1
  2  3  1  0
  4  3  1  0
  4  5  1  0
  5  9  1  0
  5  6  2  0
  7  8  2  0
  7  2  1  0
 10  7  1  0
 11 12  1  0
 11 10  1  0
 12 21  1  0
 13 12  2  0
 15 14  1  0
 16 15  2  0
 17 16  1  0
 18 24  1  0
 18 17  2  0
 19 18  1  0
 20 19  1  1
 21 20  1  0
 22 26  1  0
 22 20  1  0
 23 22  2  0
 24 25  2  0
 25 15  1  0
M  END
$$$$
