EGY.pdb
     RDKit          3D

 26 26  0  0  1  0  0  0  0  0999 V2000
   26.2777  -27.3045  -19.5942 N   0  0  0  0  0  0  0  0  0  0  0  0
   26.3335  -27.4671  -21.0392 C   0  0  1  0  0  0  0  0  0  0  0  0
   27.4839  -26.7353  -21.6489 C   0  0  0  0  0  0  0  0  0  0  0  0
   27.1187  -25.3572  -22.0546 C   0  0  0  0  0  0  0  0  0  0  0  0
   27.9084  -24.2709  -21.4737 C   0  0  0  0  0  0  0  0  0  0  0  0
   27.8095  -23.0525  -21.7035 O   0  0  0  0  0  0  0  0  0  0  0  0
   26.3939  -28.9345  -21.3152 C   0  0  0  0  0  0  0  0  0  0  0  0
   26.2567  -29.3682  -22.4674 O   0  0  0  0  0  0  0  0  0  0  0  0
   28.8922  -24.6377  -20.5506 O   0  0  0  0  0  0  0  0  0  0  0  0
   26.6084  -29.8414  -20.2624 N   0  0  0  0  0  0  0  0  0  0  0  0
   26.1297  -31.2005  -20.2458 C   0  0  0  0  0  0  0  0  0  0  0  0
   25.6838  -31.5742  -18.8855 C   0  0  0  0  0  0  0  0  0  0  0  0
   26.1443  -32.6280  -18.3463 O   0  0  0  0  0  0  0  0  0  0  0  0
   28.4391  -25.8700  -17.0377 O   0  0  0  0  0  0  0  0  0  0  0  0
   27.8016  -27.0750  -16.7829 C   0  0  0  0  0  0  0  0  0  0  0  0
   28.5173  -28.2460  -16.8918 C   0  0  0  0  0  0  0  0  0  0  0  0
   27.8497  -29.4222  -16.6309 C   0  0  0  0  0  0  0  0  0  0  0  0
   26.5230  -29.4627  -16.2739 C   0  0  0  0  0  0  0  0  0  0  0  0
   25.8997  -30.7720  -16.0151 C   0  0  0  0  0  0  0  0  0  0  0  0
   24.5971  -30.9686  -16.7606 C   0  0  2  0  0  0  0  0  0  0  0  0
   24.7520  -30.7766  -18.1747 N   0  0  0  0  0  0  0  0  0  0  0  0
   23.5176  -30.1465  -16.1890 C   0  0  0  0  0  0  0  0  0  0  0  0
   23.1612  -30.3442  -15.0110 O   0  0  0  0  0  0  0  0  0  0  0  0
   25.8318  -28.2773  -16.1726 C   0  0  0  0  0  0  0  0  0  0  0  0
   26.4748  -27.0746  -16.4287 C   0  0  0  0  0  0  0  0  0  0  0  0
   22.8998  -29.1698  -16.9294 O   0  0  0  0  0  0  0  0  0  0  0  0
  2  1  1  1
  2  3  1  0
  4  3  1  0
  4  5  1  0
  5  9  1  0
  5  6  2  0
  7  8  2  0
  7  2  1  0
 10  7  1  0
 11 12  1  0
 11 10  1  0
 12 21  1  0
 13 12  2  0
 15 14  1  0
 16 15  2  0
 17 16  1  0
 18 24  1  0
 18 17  2  0
 19 18  1  0
 20 19  1  1
 21 20  1  0
 22 26  1  0
 22 20  1  0
 23 22  2  0
 24 25  2  0
 25 15  1  0
M  END
$$$$
