EGY.pdb
     RDKit          3D

 26 26  0  0  1  0  0  0  0  0999 V2000
   21.1636  -12.5169  -18.5388 N   0  0  0  0  0  0  0  0  0  0  0  0
   22.5711  -12.3116  -18.8457 C   0  0  1  0  0  0  0  0  0  0  0  0
   22.7810  -11.7993  -20.2328 C   0  0  0  0  0  0  0  0  0  0  0  0
   21.6465  -12.1282  -21.1283 C   0  0  0  0  0  0  0  0  0  0  0  0
   21.6941  -13.4287  -21.7975 C   0  0  0  0  0  0  0  0  0  0  0  0
   22.5473  -14.3232  -21.6600 O   0  0  0  0  0  0  0  0  0  0  0  0
   23.1145  -11.3757  -17.8152 C   0  0  0  0  0  0  0  0  0  0  0  0
   24.3064  -11.0387  -17.8316 O   0  0  0  0  0  0  0  0  0  0  0  0
   20.6624  -13.7059  -22.6992 O   0  0  0  0  0  0  0  0  0  0  0  0
   22.2719  -10.8663  -16.8114 N   0  0  0  0  0  0  0  0  0  0  0  0
   22.6401   -9.8220  -15.8892 C   0  0  0  0  0  0  0  0  0  0  0  0
   22.0157   -8.5403  -16.2845 C   0  0  0  0  0  0  0  0  0  0  0  0
   22.3038   -8.0279  -17.4104 O   0  0  0  0  0  0  0  0  0  0  0  0
   18.5042  -10.3678  -20.6924 O   0  0  0  0  0  0  0  0  0  0  0  0
   18.6301   -9.5097  -19.6101 C   0  0  0  0  0  0  0  0  0  0  0  0
   18.6621  -10.0373  -18.3390 C   0  0  0  0  0  0  0  0  0  0  0  0
   18.7880   -9.1535  -17.2900 C   0  0  0  0  0  0  0  0  0  0  0  0
   18.8806   -7.7938  -17.4682 C   0  0  0  0  0  0  0  0  0  0  0  0
   19.0131   -6.9321  -16.2809 C   0  0  0  0  0  0  0  0  0  0  0  0
   20.4526   -6.6799  -15.8863 C   0  0  2  0  0  0  0  0  0  0  0  0
   21.1023   -7.8753  -15.4284 N   0  0  0  0  0  0  0  0  0  0  0  0
   20.5635   -5.5681  -14.9274 C   0  0  0  0  0  0  0  0  0  0  0  0
   21.0043   -5.7934  -13.7834 O   0  0  0  0  0  0  0  0  0  0  0  0
   18.8460   -7.2936  -18.7496 C   0  0  0  0  0  0  0  0  0  0  0  0
   18.7199   -8.1569  -19.8286 C   0  0  0  0  0  0  0  0  0  0  0  0
   20.1909   -4.2928  -15.2715 O   0  0  0  0  0  0  0  0  0  0  0  0
  2  1  1  1
  2  3  1  0
  4  3  1  0
  4  5  1  0
  5  9  1  0
  5  6  2  0
  7  8  2  0
  7  2  1  0
 10  7  1  0
 11 12  1  0
 11 10  1  0
 12 21  1  0
 13 12  2  0
 15 14  1  0
 16 15  2  0
 17 16  1  0
 18 24  1  0
 18 17  2  0
 19 18  1  0
 20 19  1  1
 21 20  1  0
 22 26  1  0
 22 20  1  0
 23 22  2  0
 24 25  2  0
 25 15  1  0
M  END
$$$$
