HLP.pdb
     RDKit          3D

 26 27  0  0  1  0  0  0  0  0999 V2000
   20.0390  -12.5534  -18.2139 N   0  0  0  0  0  0  0  0  0  0  0  0
   20.6438  -11.3585  -18.7495 C   0  0  1  0  0  0  0  0  0  0  0  0
   19.6817  -10.4966  -19.5052 C   0  0  0  0  0  0  0  0  0  0  0  0
   19.1870  -11.1355  -20.7480 C   0  0  0  0  0  0  0  0  0  0  0  0
   17.9348  -11.5947  -21.0657 C   0  0  0  0  0  0  0  0  0  0  0  0
   17.9575  -12.0995  -22.3129 N   0  0  0  0  0  0  0  0  0  0  0  0
   19.2281  -11.9530  -22.7703 C   0  0  0  0  0  0  0  0  0  0  0  0
   19.9788  -11.3630  -21.8114 N   0  0  0  0  0  0  0  0  0  0  0  0
   21.1738  -10.5512  -17.6138 C   0  0  0  0  0  0  0  0  0  0  0  0
   20.4412  -10.3644  -16.6309 O   0  0  0  0  0  0  0  0  0  0  0  0
   24.6924  -11.6775  -16.0468 C   0  0  0  0  0  0  0  0  0  0  0  0
   25.0900  -10.2802  -15.7097 C   0  0  1  0  0  0  0  0  0  0  0  0
   26.6188  -10.2337  -15.6616 C   0  0  0  0  0  0  0  0  0  0  0  0
   24.5468   -9.2053  -16.5860 C   0  0  0  0  0  0  0  0  0  0  0  0
   23.0381   -9.1605  -16.6349 C   0  0  2  0  0  0  0  0  0  0  0  0
   22.4846   -9.9891  -17.6160 N   0  0  0  0  0  0  0  0  0  0  0  0
   22.5268   -7.7872  -16.4778 C   0  0  0  0  0  0  0  0  0  0  0  0
   22.5821   -7.1311  -17.6006 O   0  0  0  0  0  0  0  0  0  0  0  0
   22.0273   -7.1786  -15.3244 N   0  0  0  0  0  0  0  0  0  0  0  0
   21.4556   -7.8562  -14.1776 C   0  0  0  0  0  0  0  0  0  0  0  0
   22.0432   -7.0532  -13.0002 C   0  0  0  0  0  0  0  0  0  0  0  0
   22.7170   -5.8343  -13.6414 C   0  0  0  0  0  0  0  0  0  0  0  0
   21.8954   -5.8071  -14.9375 C   0  0  1  0  0  0  0  0  0  0  0  0
   22.1404   -4.7280  -15.8161 C   0  0  0  0  0  0  0  0  0  0  0  0
   22.6107   -4.6348  -16.9595 O   0  0  0  0  0  0  0  0  0  0  0  0
   21.7748   -3.4513  -15.2974 O   0  0  0  0  0  0  0  0  0  0  0  0
  2  9  1  0
  2  3  1  0
  2  1  1  1
  4  8  1  0
  4  3  1  0
  5  4  2  0
  6  5  1  0
  6  7  1  0
  7  8  2  0
  9 10  2  0
 12 11  1  6
 13 12  1  0
 14 12  1  0
 15 14  1  6
 16 15  1  0
 16  9  1  0
 17 18  2  0
 17 15  1  0
 19 17  1  0
 20 19  1  0
 21 20  1  0
 22 21  1  0
 22 23  1  0
 23 19  1  0
 23 24  1  6
 24 26  1  0
 25 24  2  0
M  END
$$$$
