HLP.pdb
     RDKit          3D

 26 27  0  0  1  0  0  0  0  0999 V2000
   41.5567   -5.1911   -4.1382 N   0  0  0  0  0  0  0  0  0  0  0  0
   41.8462   -5.4148   -5.5335 C   0  0  1  0  0  0  0  0  0  0  0  0
   43.1730   -4.8673   -5.9572 C   0  0  0  0  0  0  0  0  0  0  0  0
   43.1065   -4.1142   -7.2323 C   0  0  0  0  0  0  0  0  0  0  0  0
   42.2622   -3.1052   -7.6179 C   0  0  0  0  0  0  0  0  0  0  0  0
   42.5770   -2.7260   -8.8701 N   0  0  0  0  0  0  0  0  0  0  0  0
   43.6200   -3.5025   -9.2626 C   0  0  0  0  0  0  0  0  0  0  0  0
   43.9425   -4.3512   -8.2591 N   0  0  0  0  0  0  0  0  0  0  0  0
   41.8679   -6.8851   -5.7784 C   0  0  0  0  0  0  0  0  0  0  0  0
   42.5401   -7.5992   -5.0195 O   0  0  0  0  0  0  0  0  0  0  0  0
   37.4962   -9.1740   -8.0662 C   0  0  0  0  0  0  0  0  0  0  0  0
   38.7519   -8.9590   -7.2908 C   0  0  1  0  0  0  0  0  0  0  0  0
   38.5967   -9.6811   -5.9506 C   0  0  0  0  0  0  0  0  0  0  0  0
   40.0230   -9.3441   -7.9649 C   0  0  0  0  0  0  0  0  0  0  0  0
   41.2622   -8.8230   -7.2769 C   0  0  2  0  0  0  0  0  0  0  0  0
   41.1485   -7.4972   -6.8469 N   0  0  0  0  0  0  0  0  0  0  0  0
   42.4918   -9.2556   -7.9645 C   0  0  0  0  0  0  0  0  0  0  0  0
   42.5504   -8.7771   -9.1736 O   0  0  0  0  0  0  0  0  0  0  0  0
   43.5168  -10.0661   -7.4720 N   0  0  0  0  0  0  0  0  0  0  0  0
   43.8128  -10.3187   -6.0757 C   0  0  0  0  0  0  0  0  0  0  0  0
   44.1390  -11.8253   -6.0806 C   0  0  0  0  0  0  0  0  0  0  0  0
   44.2162  -12.2152   -7.5614 C   0  0  0  0  0  0  0  0  0  0  0  0
   44.5433  -10.8237   -8.1204 C   0  0  1  0  0  0  0  0  0  0  0  0
   44.8030  -10.7471   -9.5072 C   0  0  0  0  0  0  0  0  0  0  0  0
   45.7652  -10.3582  -10.1855 O   0  0  0  0  0  0  0  0  0  0  0  0
   43.7386  -11.2144  -10.3326 O   0  0  0  0  0  0  0  0  0  0  0  0
  2  9  1  0
  2  3  1  0
  2  1  1  1
  4  8  1  0
  4  3  1  0
  5  4  2  0
  6  5  1  0
  6  7  1  0
  7  8  2  0
  9 10  2  0
 12 11  1  6
 13 12  1  0
 14 12  1  0
 15 14  1  6
 16 15  1  0
 16  9  1  0
 17 18  2  0
 17 15  1  0
 19 17  1  0
 20 19  1  0
 21 20  1  0
 22 21  1  0
 22 23  1  0
 23 19  1  0
 23 24  1  6
 24 26  1  0
 25 24  2  0
M  END
$$$$
