HLP.pdb
     RDKit          3D

 26 27  0  0  1  0  0  0  0  0999 V2000
   19.9390  -17.2311  -14.6688 N   0  0  0  0  0  0  0  0  0  0  0  0
   20.1133  -16.2846  -15.7432 C   0  0  1  0  0  0  0  0  0  0  0  0
   18.8209  -15.7514  -16.2769 C   0  0  0  0  0  0  0  0  0  0  0  0
   17.9647  -16.8037  -16.8744 C   0  0  0  0  0  0  0  0  0  0  0  0
   16.9163  -17.5013  -16.3321 C   0  0  0  0  0  0  0  0  0  0  0  0
   16.4396  -18.3597  -17.2523 N   0  0  0  0  0  0  0  0  0  0  0  0
   17.1947  -18.1941  -18.3690 C   0  0  0  0  0  0  0  0  0  0  0  0
   18.1273  -17.2416  -18.1358 N   0  0  0  0  0  0  0  0  0  0  0  0
   20.8976  -15.1271  -15.2262 C   0  0  0  0  0  0  0  0  0  0  0  0
   20.6429  -14.7032  -14.0890 O   0  0  0  0  0  0  0  0  0  0  0  0
   26.0025  -14.7589  -16.6994 C   0  0  0  0  0  0  0  0  0  0  0  0
   24.8251  -14.4776  -15.8284 C   0  0  1  0  0  0  0  0  0  0  0  0
   25.3228  -14.4220  -14.3824 C   0  0  0  0  0  0  0  0  0  0  0  0
   24.0217  -13.2701  -16.1672 C   0  0  0  0  0  0  0  0  0  0  0  0
   22.6023  -13.3162  -15.6536 C   0  0  2  0  0  0  0  0  0  0  0  0
   21.9241  -14.4929  -15.9866 N   0  0  0  0  0  0  0  0  0  0  0  0
   21.9203  -12.0198  -15.8153 C   0  0  0  0  0  0  0  0  0  0  0  0
   21.4836  -11.8640  -17.0315 O   0  0  0  0  0  0  0  0  0  0  0  0
   21.7164  -11.0260  -14.8557 N   0  0  0  0  0  0  0  0  0  0  0  0
   21.7693  -11.2002  -13.4177 C   0  0  0  0  0  0  0  0  0  0  0  0
   22.5067   -9.9251  -12.9632 C   0  0  0  0  0  0  0  0  0  0  0  0
   22.5852   -9.0394  -14.2122 C   0  0  0  0  0  0  0  0  0  0  0  0
   21.3859   -9.6375  -14.9604 C   0  0  1  0  0  0  0  0  0  0  0  0
   21.0299   -9.0163  -16.1786 C   0  0  0  0  0  0  0  0  0  0  0  0
   21.1069   -9.3463  -17.3712 O   0  0  0  0  0  0  0  0  0  0  0  0
   20.4516   -7.7213  -16.0326 O   0  0  0  0  0  0  0  0  0  0  0  0
  2  9  1  0
  2  3  1  0
  2  1  1  1
  4  8  1  0
  4  3  1  0
  5  4  2  0
  6  5  1  0
  6  7  1  0
  7  8  2  0
  9 10  2  0
 12 11  1  6
 13 12  1  0
 14 12  1  0
 15 14  1  6
 16 15  1  0
 16  9  1  0
 17 18  2  0
 17 15  1  0
 19 17  1  0
 20 19  1  0
 21 20  1  0
 22 21  1  0
 22 23  1  0
 23 19  1  0
 23 24  1  6
 24 26  1  0
 25 24  2  0
M  END
$$$$
