HLP.pdb
     RDKit          3D

 26 27  0  0  1  0  0  0  0  0999 V2000
   27.7324  -20.4816  -16.5903 N   0  0  0  0  0  0  0  0  0  0  0  0
   26.9963  -19.5594  -15.7607 C   0  0  1  0  0  0  0  0  0  0  0  0
   26.3756  -18.4367  -16.5315 C   0  0  0  0  0  0  0  0  0  0  0  0
   27.3777  -17.5107  -17.1111 C   0  0  0  0  0  0  0  0  0  0  0  0
   28.7450  -17.5149  -17.0101 C   0  0  0  0  0  0  0  0  0  0  0  0
   29.2382  -16.4745  -17.7067 N   0  0  0  0  0  0  0  0  0  0  0  0
   28.1732  -15.8229  -18.2416 C   0  0  0  0  0  0  0  0  0  0  0  0
   27.0358  -16.4584  -17.8761 N   0  0  0  0  0  0  0  0  0  0  0  0
   25.8945  -20.3075  -15.0908 C   0  0  0  0  0  0  0  0  0  0  0  0
   25.3458  -21.2300  -15.7118 O   0  0  0  0  0  0  0  0  0  0  0  0
   25.7944  -20.5009   -9.5355 C   0  0  0  0  0  0  0  0  0  0  0  0
   25.6457  -20.7830  -10.9924 C   0  0  1  0  0  0  0  0  0  0  0  0
   25.9027  -22.2768  -11.2023 C   0  0  0  0  0  0  0  0  0  0  0  0
   24.3625  -20.3645  -11.6223 C   0  0  0  0  0  0  0  0  0  0  0  0
   24.3327  -20.5377  -13.1222 C   0  0  2  0  0  0  0  0  0  0  0  0
   25.4508  -20.0032  -13.7700 N   0  0  0  0  0  0  0  0  0  0  0  0
   22.9898  -20.2860  -13.6747 C   0  0  0  0  0  0  0  0  0  0  0  0
   22.6641  -19.0300  -13.5714 O   0  0  0  0  0  0  0  0  0  0  0  0
   22.1091  -21.2019  -14.2540 N   0  0  0  0  0  0  0  0  0  0  0  0
   22.4761  -22.3702  -15.0294 C   0  0  0  0  0  0  0  0  0  0  0  0
   21.4752  -23.4257  -14.5195 C   0  0  0  0  0  0  0  0  0  0  0  0
   20.4768  -22.6480  -13.6540 C   0  0  0  0  0  0  0  0  0  0  0  0
   20.6802  -21.2701  -14.2987 C   0  0  1  0  0  0  0  0  0  0  0  0
   19.8409  -20.2300  -13.8401 C   0  0  0  0  0  0  0  0  0  0  0  0
   20.0346  -19.1732  -13.2215 O   0  0  0  0  0  0  0  0  0  0  0  0
   18.4595  -20.4109  -14.1428 O   0  0  0  0  0  0  0  0  0  0  0  0
  2  9  1  0
  2  3  1  0
  2  1  1  6
  4  8  1  0
  4  3  1  0
  5  4  2  0
  6  5  1  0
  6  7  1  0
  7  8  2  0
  9 10  2  0
 12 11  1  1
 13 12  1  0
 14 12  1  0
 15 14  1  1
 16 15  1  0
 16  9  1  0
 17 18  2  0
 17 15  1  0
 19 17  1  0
 20 19  1  0
 21 20  1  0
 22 21  1  0
 22 23  1  0
 23 19  1  0
 23 24  1  1
 24 26  1  0
 25 24  2  0
M  END
$$$$
