HLP.pdb
     RDKit          3D

 26 27  0  0  1  0  0  0  0  0999 V2000
   27.5146  -21.0393  -16.3236 N   0  0  0  0  0  0  0  0  0  0  0  0
   26.6272  -20.0479  -15.7668 C   0  0  1  0  0  0  0  0  0  0  0  0
   25.8884  -19.2650  -16.8064 C   0  0  0  0  0  0  0  0  0  0  0  0
   26.7788  -18.4081  -17.6252 C   0  0  0  0  0  0  0  0  0  0  0  0
   27.6339  -18.7431  -18.6431 C   0  0  0  0  0  0  0  0  0  0  0  0
   28.2381  -17.6275  -19.0919 N   0  0  0  0  0  0  0  0  0  0  0  0
   27.7561  -16.5971  -18.3498 C   0  0  0  0  0  0  0  0  0  0  0  0
   26.8633  -17.0766  -17.4530 N   0  0  0  0  0  0  0  0  0  0  0  0
   25.6136  -20.7452  -14.9249 C   0  0  0  0  0  0  0  0  0  0  0  0
   25.1208  -21.8012  -15.3491 O   0  0  0  0  0  0  0  0  0  0  0  0
   25.9885  -20.3245   -9.4988 C   0  0  0  0  0  0  0  0  0  0  0  0
   25.6973  -20.7399  -10.9012 C   0  0  1  0  0  0  0  0  0  0  0  0
   26.0619  -22.2206  -11.0296 C   0  0  0  0  0  0  0  0  0  0  0  0
   24.3170  -20.4812  -11.3975 C   0  0  0  0  0  0  0  0  0  0  0  0
   24.1411  -20.7356  -12.8756 C   0  0  2  0  0  0  0  0  0  0  0  0
   25.1922  -20.2459  -13.6572 N   0  0  0  0  0  0  0  0  0  0  0  0
   22.7515  -20.5041  -13.3084 C   0  0  0  0  0  0  0  0  0  0  0  0
   22.4225  -19.2502  -13.1904 O   0  0  0  0  0  0  0  0  0  0  0  0
   21.8325  -21.4357  -13.7960 N   0  0  0  0  0  0  0  0  0  0  0  0
   22.1448  -22.6292  -14.5568 C   0  0  0  0  0  0  0  0  0  0  0  0
   21.1808  -23.6652  -13.9456 C   0  0  0  0  0  0  0  0  0  0  0  0
   20.2446  -22.8574  -13.0391 C   0  0  0  0  0  0  0  0  0  0  0  0
   20.4040  -21.5014  -13.7402 C   0  0  1  0  0  0  0  0  0  0  0  0
   19.5987  -20.4449  -13.2588 C   0  0  0  0  0  0  0  0  0  0  0  0
   19.8346  -19.3077  -12.8250 O   0  0  0  0  0  0  0  0  0  0  0  0
   18.2001  -20.7216  -13.2618 O   0  0  0  0  0  0  0  0  0  0  0  0
  2  9  1  0
  2  3  1  0
  2  1  1  6
  4  8  1  0
  4  3  1  0
  5  4  2  0
  6  5  1  0
  6  7  1  0
  7  8  2  0
  9 10  2  0
 12 11  1  1
 13 12  1  0
 14 12  1  0
 15 14  1  1
 16 15  1  0
 16  9  1  0
 17 18  2  0
 17 15  1  0
 19 17  1  0
 20 19  1  0
 21 20  1  0
 22 21  1  0
 22 23  1  0
 23 19  1  0
 23 24  1  1
 24 26  1  0
 25 24  2  0
M  END
$$$$
