HLP.pdb
     RDKit          3D

 26 27  0  0  1  0  0  0  0  0999 V2000
   28.0015  -19.1628  -17.9348 N   0  0  0  0  0  0  0  0  0  0  0  0
   26.9691  -18.5678  -17.1219 C   0  0  1  0  0  0  0  0  0  0  0  0
   25.8103  -18.0564  -17.9188 C   0  0  0  0  0  0  0  0  0  0  0  0
   26.1279  -16.8194  -18.6714 C   0  0  0  0  0  0  0  0  0  0  0  0
   25.8574  -15.5095  -18.3701 C   0  0  0  0  0  0  0  0  0  0  0  0
   26.3383  -14.7263  -19.3531 N   0  0  0  0  0  0  0  0  0  0  0  0
   26.9091  -15.5532  -20.2672 C   0  0  0  0  0  0  0  0  0  0  0  0
   26.7793  -16.8334  -19.8483 N   0  0  0  0  0  0  0  0  0  0  0  0
   26.4489  -19.6077  -16.1889 C   0  0  0  0  0  0  0  0  0  0  0  0
   26.1528  -20.7195  -16.6514 O   0  0  0  0  0  0  0  0  0  0  0  0
   26.6004  -22.0440  -10.8587 C   0  0  0  0  0  0  0  0  0  0  0  0
   25.7113  -21.0059  -11.4552 C   0  0  1  0  0  0  0  0  0  0  0  0
   25.1037  -20.2011  -10.3042 C   0  0  0  0  0  0  0  0  0  0  0  0
   26.3272  -20.1087  -12.4722 C   0  0  0  0  0  0  0  0  0  0  0  0
   25.7424  -20.2612  -13.8562 C   0  0  2  0  0  0  0  0  0  0  0  0
   26.2800  -19.3724  -14.7925 N   0  0  0  0  0  0  0  0  0  0  0  0
   24.2841  -20.4692  -13.8133 C   0  0  0  0  0  0  0  0  0  0  0  0
   23.6801  -19.4657  -13.2455 O   0  0  0  0  0  0  0  0  0  0  0  0
   23.5530  -21.5588  -14.2913 N   0  0  0  0  0  0  0  0  0  0  0  0
   23.9714  -22.4831  -15.3264 C   0  0  0  0  0  0  0  0  0  0  0  0
   23.4974  -23.8374  -14.7632 C   0  0  0  0  0  0  0  0  0  0  0  0
   22.6353  -23.4866  -13.5449 C   0  0  0  0  0  0  0  0  0  0  0  0
   22.2523  -22.0627  -13.9710 C   0  0  1  0  0  0  0  0  0  0  0  0
   21.3414  -21.3785  -13.1351 C   0  0  0  0  0  0  0  0  0  0  0  0
   21.4481  -20.7564  -12.0680 O   0  0  0  0  0  0  0  0  0  0  0  0
   19.9931  -21.3910  -13.5984 O   0  0  0  0  0  0  0  0  0  0  0  0
  2  9  1  0
  2  3  1  0
  2  1  1  6
  4  8  1  0
  4  3  1  0
  5  4  2  0
  6  5  1  0
  6  7  1  0
  7  8  2  0
  9 10  2  0
 12 11  1  1
 13 12  1  0
 14 12  1  0
 15 14  1  1
 16 15  1  0
 16  9  1  0
 17 18  2  0
 17 15  1  0
 19 17  1  0
 20 19  1  0
 21 20  1  0
 22 21  1  0
 22 23  1  0
 23 19  1  0
 23 24  1  1
 24 26  1  0
 25 24  2  0
M  END
$$$$
