HLP.pdb
     RDKit          3D

 26 27  0  0  1  0  0  0  0  0999 V2000
   25.5039  -20.0530  -13.6700 N   0  0  0  0  0  0  0  0  0  0  0  0
   26.5020  -20.6578  -12.8223 C   0  0  1  0  0  0  0  0  0  0  0  0
   27.9009  -20.4367  -13.3058 C   0  0  0  0  0  0  0  0  0  0  0  0
   28.1884  -21.1352  -14.5813 C   0  0  0  0  0  0  0  0  0  0  0  0
   28.5691  -20.6297  -15.7975 C   0  0  0  0  0  0  0  0  0  0  0  0
   28.7159  -21.6462  -16.6671 N   0  0  0  0  0  0  0  0  0  0  0  0
   28.4253  -22.7860  -15.9879 C   0  0  0  0  0  0  0  0  0  0  0  0
   28.1028  -22.4713  -14.7119 N   0  0  0  0  0  0  0  0  0  0  0  0
   26.3946  -20.0513  -11.4648 C   0  0  0  0  0  0  0  0  0  0  0  0
   26.5498  -18.8261  -11.3525 O   0  0  0  0  0  0  0  0  0  0  0  0
   22.1253  -20.3957   -8.9886 C   0  0  0  0  0  0  0  0  0  0  0  0
   23.5290  -20.1394   -9.4221 C   0  0  1  0  0  0  0  0  0  0  0  0
   23.6130  -18.6808   -9.8773 C   0  0  0  0  0  0  0  0  0  0  0  0
   24.5977  -20.4566   -8.4342 C   0  0  0  0  0  0  0  0  0  0  0  0
   25.9972  -20.3428   -8.9899 C   0  0  2  0  0  0  0  0  0  0  0  0
   26.1217  -20.8235  -10.2972 N   0  0  0  0  0  0  0  0  0  0  0  0
   27.0144  -20.7066   -7.9875 C   0  0  0  0  0  0  0  0  0  0  0  0
   27.0610  -21.9949   -7.8075 O   0  0  0  0  0  0  0  0  0  0  0  0
   27.8646  -19.8595   -7.2735 N   0  0  0  0  0  0  0  0  0  0  0  0
   28.6601  -18.7809   -7.8255 C   0  0  0  0  0  0  0  0  0  0  0  0
   28.4943  -17.6780   -6.7614 C   0  0  0  0  0  0  0  0  0  0  0  0
   27.7901  -18.3596   -5.5823 C   0  0  0  0  0  0  0  0  0  0  0  0
   28.2264  -19.7986   -5.8902 C   0  0  1  0  0  0  0  0  0  0  0  0
   27.8548  -20.7845   -4.9487 C   0  0  0  0  0  0  0  0  0  0  0  0
   26.9958  -21.6783   -4.9275 O   0  0  0  0  0  0  0  0  0  0  0  0
   28.6221  -20.7707   -3.7472 O   0  0  0  0  0  0  0  0  0  0  0  0
  2  9  1  0
  2  3  1  0
  2  1  1  6
  4  8  1  0
  4  3  1  0
  5  4  2  0
  6  5  1  0
  6  7  1  0
  7  8  2  0
  9 10  2  0
 12 11  1  1
 13 12  1  0
 14 12  1  0
 15 14  1  1
 16 15  1  0
 16  9  1  0
 17 18  2  0
 17 15  1  0
 19 17  1  0
 20 19  1  0
 21 20  1  0
 22 21  1  0
 22 23  1  0
 23 19  1  0
 23 24  1  1
 24 26  1  0
 25 24  2  0
M  END
$$$$
