HLP.pdb
     RDKit          3D

 26 27  0  0  1  0  0  0  0  0999 V2000
   20.4697  -20.4280  -13.4151 N   0  0  0  0  0  0  0  0  0  0  0  0
   21.4806  -21.2952  -13.9688 C   0  0  1  0  0  0  0  0  0  0  0  0
   21.2957  -21.5615  -15.4297 C   0  0  0  0  0  0  0  0  0  0  0  0
   20.1061  -22.3976  -15.7183 C   0  0  0  0  0  0  0  0  0  0  0  0
   19.9561  -23.7600  -15.6842 C   0  0  0  0  0  0  0  0  0  0  0  0
   18.6912  -24.0693  -16.0236 N   0  0  0  0  0  0  0  0  0  0  0  0
   18.0545  -22.8949  -16.2691 C   0  0  0  0  0  0  0  0  0  0  0  0
   18.9219  -21.8733  -16.0818 N   0  0  0  0  0  0  0  0  0  0  0  0
   22.8078  -20.6386  -13.7962 C   0  0  0  0  0  0  0  0  0  0  0  0
   22.9191  -19.4433  -14.1074 O   0  0  0  0  0  0  0  0  0  0  0  0
   25.6609  -21.2666   -9.3802 C   0  0  0  0  0  0  0  0  0  0  0  0
   25.1014  -20.8515  -10.6989 C   0  0  1  0  0  0  0  0  0  0  0  0
   24.7682  -19.3606  -10.6107 C   0  0  0  0  0  0  0  0  0  0  0  0
   25.9361  -21.1459  -11.8969 C   0  0  0  0  0  0  0  0  0  0  0  0
   25.2537  -20.8373  -13.2082 C   0  0  2  0  0  0  0  0  0  0  0  0
   23.9476  -21.3301  -13.2896 N   0  0  0  0  0  0  0  0  0  0  0  0
   26.1646  -21.0147  -14.3531 C   0  0  0  0  0  0  0  0  0  0  0  0
   26.3807  -22.2755  -14.5941 O   0  0  0  0  0  0  0  0  0  0  0  0
   26.7654  -20.0292  -15.1392 N   0  0  0  0  0  0  0  0  0  0  0  0
   26.3963  -18.6283  -15.1863 C   0  0  0  0  0  0  0  0  0  0  0  0
   27.7707  -17.9323  -15.2389 C   0  0  0  0  0  0  0  0  0  0  0  0
   28.7853  -19.0615  -15.4539 C   0  0  0  0  0  0  0  0  0  0  0  0
   27.8279  -20.0742  -16.0969 C   0  0  1  0  0  0  0  0  0  0  0  0
   28.4031  -21.2794  -16.5588 C   0  0  0  0  0  0  0  0  0  0  0  0
   28.2567  -21.9718  -17.5768 O   0  0  0  0  0  0  0  0  0  0  0  0
   29.3699  -21.8464  -15.6777 O   0  0  0  0  0  0  0  0  0  0  0  0
  2  9  1  0
  2  3  1  0
  2  1  1  6
  4  8  1  0
  4  3  1  0
  5  4  2  0
  6  5  1  0
  6  7  1  0
  7  8  2  0
  9 10  2  0
 12 11  1  1
 13 12  1  0
 14 12  1  0
 15 14  1  1
 16 15  1  0
 16  9  1  0
 17 18  2  0
 17 15  1  0
 19 17  1  0
 20 19  1  0
 21 20  1  0
 22 21  1  0
 22 23  1  0
 23 19  1  0
 23 24  1  1
 24 26  1  0
 25 24  2  0
M  END
$$$$
