QEF.pdb
     RDKit          3D

 30 30  0  0  1  0  0  0  0  0999 V2000
   14.8837  -14.4864   20.6336 N   0  0  0  0  0  0  0  0  0  0  0  0
   14.3120  -14.1570   19.3692 C   0  0  0  0  0  0  0  0  0  0  0  0
   14.9702  -13.4565   18.5859 O   0  0  0  0  0  0  0  0  0  0  0  0
   12.9633  -14.6761   19.0780 C   0  0  0  0  0  0  0  0  0  0  0  0
   12.4881  -15.6526   20.1147 C   0  0  0  0  0  0  0  0  0  0  0  0
   11.1563  -16.2825   19.8156 C   0  0  2  0  0  0  0  0  0  0  0  0
   10.5585  -15.4540   18.7649 N   0  0  0  0  0  0  0  0  0  0  0  0
   10.3203  -16.2132   21.0509 C   0  0  0  0  0  0  0  0  0  0  0  0
    9.4927  -15.2936   21.2509 O   0  0  0  0  0  0  0  0  0  0  0  0
   10.4144  -17.1927   22.0798 N   0  0  0  0  0  0  0  0  0  0  0  0
    9.6045  -17.1274   23.2550 C   0  0  1  0  0  0  0  0  0  0  0  0
    8.9944  -18.4597   23.6041 C   0  0  0  0  0  0  0  0  0  0  0  0
    9.9882  -19.5752   23.6518 C   0  0  0  0  0  0  0  0  0  0  0  0
    9.2464  -20.8589   23.5454 C   0  0  0  0  0  0  0  0  0  0  0  0
    8.7852  -21.4439   24.5585 O   0  0  0  0  0  0  0  0  0  0  0  0
   10.3509  -16.5532   24.4214 C   0  0  0  0  0  0  0  0  0  0  0  0
   11.4531  -17.0426   24.7748 O   0  0  0  0  0  0  0  0  0  0  0  0
    9.0248  -21.4800   22.3101 O   0  0  0  0  0  0  0  0  0  0  0  0
    9.8654  -15.4511   25.1733 N   0  0  0  0  0  0  0  0  0  0  0  0
    9.6016  -15.5649   26.6178 C   0  0  1  0  0  0  0  0  0  0  0  0
    8.1447  -15.4692   26.9104 C   0  0  0  0  0  0  0  0  0  0  0  0
    7.6011  -14.1778   26.4795 C   0  0  0  0  0  0  0  0  0  0  0  0
    6.3134  -14.1113   25.9919 C   0  0  0  0  0  0  0  0  0  0  0  0
    5.8355  -12.8816   25.5977 C   0  0  0  0  0  0  0  0  0  0  0  0
    6.6137  -11.7346   25.6823 C   0  0  0  0  0  0  0  0  0  0  0  0
    7.9104  -11.7838   26.1702 C   0  0  0  0  0  0  0  0  0  0  0  0
    8.3820  -13.0176   26.5628 C   0  0  0  0  0  0  0  0  0  0  0  0
   10.2819  -16.7503   27.1474 C   0  0  0  0  0  0  0  0  0  0  0  0
   10.6595  -16.8273   28.5063 O   0  0  0  0  0  0  0  0  0  0  0  0
   10.5811  -17.7660   26.4738 O   0  0  0  0  0  0  0  0  0  0  0  0
  2  1  1  0
  2  3  2  0
  4  2  1  0
  5  4  1  0
  6  5  1  0
  6  7  1  6
  8  9  2  0
  8  6  1  0
 10  8  1  0
 11 10  1  0
 11 12  1  1
 13 14  1  0
 13 12  1  0
 14 18  1  0
 15 14  2  0
 16 17  2  0
 16 11  1  0
 19 16  1  0
 20 21  1  6
 20 19  1  0
 22 21  1  0
 22 23  2  0
 24 23  1  0
 25 24  2  0
 26 27  2  0
 26 25  1  0
 27 22  1  0
 28 20  1  0
 29 28  1  0
 30 28  2  0
M  END
$$$$
