QEF.pdb
     RDKit          3D

 30 30  0  0  1  0  0  0  0  0999 V2000
    8.4988  -12.7376   18.7793 N   0  0  0  0  0  0  0  0  0  0  0  0
    8.1833  -13.4693   17.5964 C   0  0  0  0  0  0  0  0  0  0  0  0
    7.8843  -12.8384   16.5717 O   0  0  0  0  0  0  0  0  0  0  0  0
    8.2334  -14.9406   17.6746 C   0  0  0  0  0  0  0  0  0  0  0  0
    8.6038  -15.4301   19.0447 C   0  0  0  0  0  0  0  0  0  0  0  0
    8.7965  -16.9176   19.1457 C   0  0  2  0  0  0  0  0  0  0  0  0
    7.4824  -17.5026   18.8648 N   0  0  0  0  0  0  0  0  0  0  0  0
    9.2050  -17.2405   20.5452 C   0  0  0  0  0  0  0  0  0  0  0  0
    8.3946  -17.6707   21.3988 O   0  0  0  0  0  0  0  0  0  0  0  0
   10.5460  -17.0779   20.9948 N   0  0  0  0  0  0  0  0  0  0  0  0
   10.9295  -17.3795   22.3375 C   0  0  1  0  0  0  0  0  0  0  0  0
   12.4079  -17.6382   22.4659 C   0  0  0  0  0  0  0  0  0  0  0  0
   12.8854  -18.7866   21.6368 C   0  0  0  0  0  0  0  0  0  0  0  0
   14.3502  -18.6333   21.4361 C   0  0  0  0  0  0  0  0  0  0  0  0
   15.1818  -19.0339   22.2902 O   0  0  0  0  0  0  0  0  0  0  0  0
   10.4806  -16.3230   23.3017 C   0  0  0  0  0  0  0  0  0  0  0  0
   10.9492  -15.1590   23.2337 O   0  0  0  0  0  0  0  0  0  0  0  0
   14.8760  -18.0344   20.2847 O   0  0  0  0  0  0  0  0  0  0  0  0
    9.5240  -16.5730   24.3205 N   0  0  0  0  0  0  0  0  0  0  0  0
    9.0242  -15.4909   25.1855 C   0  0  1  0  0  0  0  0  0  0  0  0
    7.8905  -14.7676   24.5461 C   0  0  0  0  0  0  0  0  0  0  0  0
    7.3327  -13.7543   25.4466 C   0  0  0  0  0  0  0  0  0  0  0  0
    6.1483  -14.0083   26.1047 C   0  0  0  0  0  0  0  0  0  0  0  0
    5.6547  -13.0343   26.9436 C   0  0  0  0  0  0  0  0  0  0  0  0
    6.3172  -11.8284   27.1317 C   0  0  0  0  0  0  0  0  0  0  0  0
    7.5090  -11.5570   26.4776 C   0  0  0  0  0  0  0  0  0  0  0  0
    7.9970  -12.5361   25.6399 C   0  0  0  0  0  0  0  0  0  0  0  0
    8.7679  -16.0177   26.5292 C   0  0  0  0  0  0  0  0  0  0  0  0
    9.2848  -15.3734   27.6751 O   0  0  0  0  0  0  0  0  0  0  0  0
    8.0942  -17.0464   26.7795 O   0  0  0  0  0  0  0  0  0  0  0  0
  2  1  1  0
  2  3  2  0
  4  2  1  0
  5  4  1  0
  6  5  1  0
  6  7  1  1
  8  9  2  0
  8  6  1  0
 10  8  1  0
 11 10  1  0
 11 12  1  6
 13 14  1  0
 13 12  1  0
 14 18  1  0
 15 14  2  0
 16 17  2  0
 16 11  1  0
 19 16  1  0
 20 21  1  6
 20 19  1  0
 22 21  1  0
 22 23  2  0
 24 23  1  0
 25 24  2  0
 26 27  2  0
 26 25  1  0
 27 22  1  0
 28 20  1  0
 29 28  1  0
 30 28  2  0
M  END
$$$$
