QEF.pdb
     RDKit          3D

 30 30  0  0  1  0  0  0  0  0999 V2000
   11.1788  -14.1250   18.6100 N   0  0  0  0  0  0  0  0  0  0  0  0
   11.3045  -13.3689   19.8128 C   0  0  0  0  0  0  0  0  0  0  0  0
   12.3980  -13.3630   20.3973 O   0  0  0  0  0  0  0  0  0  0  0  0
   10.1129  -12.6400   20.2841 C   0  0  0  0  0  0  0  0  0  0  0  0
    8.9137  -12.8758   19.4120 C   0  0  0  0  0  0  0  0  0  0  0  0
    8.7356  -14.3005   18.9667 C   0  0  2  0  0  0  0  0  0  0  0  0
    7.6841  -14.2632   17.9465 N   0  0  0  0  0  0  0  0  0  0  0  0
    8.2737  -15.1010   20.1396 C   0  0  0  0  0  0  0  0  0  0  0  0
    7.0857  -15.0845   20.5378 O   0  0  0  0  0  0  0  0  0  0  0  0
    9.1604  -15.9345   20.8786 N   0  0  0  0  0  0  0  0  0  0  0  0
    8.6846  -16.8338   21.8815 C   0  0  1  0  0  0  0  0  0  0  0  0
    9.1256  -18.2526   21.6335 C   0  0  0  0  0  0  0  0  0  0  0  0
    8.5262  -18.8559   20.4042 C   0  0  0  0  0  0  0  0  0  0  0  0
    9.0670  -20.2324   20.2549 C   0  0  0  0  0  0  0  0  0  0  0  0
    8.3329  -21.2480   20.3602 O   0  0  0  0  0  0  0  0  0  0  0  0
    9.0589  -16.3857   23.2623 C   0  0  0  0  0  0  0  0  0  0  0  0
   10.2053  -15.9256   23.4930 O   0  0  0  0  0  0  0  0  0  0  0  0
   10.4220  -20.4653   19.9895 O   0  0  0  0  0  0  0  0  0  0  0  0
    8.1604  -16.4548   24.3594 N   0  0  0  0  0  0  0  0  0  0  0  0
    8.5889  -16.1065   25.7247 C   0  0  1  0  0  0  0  0  0  0  0  0
    7.4623  -15.5405   26.5170 C   0  0  0  0  0  0  0  0  0  0  0  0
    7.3193  -14.1007   26.2815 C   0  0  0  0  0  0  0  0  0  0  0  0
    6.0959  -13.4977   26.4815 C   0  0  0  0  0  0  0  0  0  0  0  0
    5.9989  -12.1435   26.2518 C   0  0  0  0  0  0  0  0  0  0  0  0
    7.0899  -11.3943   25.8316 C   0  0  0  0  0  0  0  0  0  0  0  0
    8.3271  -11.9849   25.6257 C   0  0  0  0  0  0  0  0  0  0  0  0
    8.4169  -13.3402   25.8575 C   0  0  0  0  0  0  0  0  0  0  0  0
    9.2808  -17.2499   26.3268 C   0  0  0  0  0  0  0  0  0  0  0  0
    9.3732  -18.4853   25.6482 O   0  0  0  0  0  0  0  0  0  0  0  0
    9.8333  -17.2414   27.4535 O   0  0  0  0  0  0  0  0  0  0  0  0
  2  1  1  0
  2  3  2  0
  4  2  1  0
  5  4  1  0
  6  5  1  0
  6  7  1  6
  8  9  2  0
  8  6  1  0
 10  8  1  0
 11 10  1  0
 11 12  1  6
 13 14  1  0
 13 12  1  0
 14 18  1  0
 15 14  2  0
 16 17  2  0
 16 11  1  0
 19 16  1  0
 20 21  1  1
 20 19  1  0
 22 21  1  0
 22 23  2  0
 24 23  1  0
 25 24  2  0
 26 27  2  0
 26 25  1  0
 27 22  1  0
 28 20  1  0
 29 28  1  0
 30 28  2  0
M  END
$$$$
