QEF.pdb
     RDKit          3D

 30 30  0  0  1  0  0  0  0  0999 V2000
    8.6714  -15.6668   17.6645 N   0  0  0  0  0  0  0  0  0  0  0  0
    7.9757  -14.6012   17.0205 C   0  0  0  0  0  0  0  0  0  0  0  0
    8.1037  -14.4655   15.7947 O   0  0  0  0  0  0  0  0  0  0  0  0
    7.1449  -13.7243   17.8656 C   0  0  0  0  0  0  0  0  0  0  0  0
    6.9434  -14.2803   19.2455 C   0  0  0  0  0  0  0  0  0  0  0  0
    7.8509  -13.6974   20.2927 C   0  0  2  0  0  0  0  0  0  0  0  0
    9.0195  -13.1971   19.5634 N   0  0  0  0  0  0  0  0  0  0  0  0
    8.2635  -14.7963   21.2157 C   0  0  0  0  0  0  0  0  0  0  0  0
    7.4401  -15.4274   21.9186 O   0  0  0  0  0  0  0  0  0  0  0  0
    9.6236  -15.1941   21.3523 N   0  0  0  0  0  0  0  0  0  0  0  0
   10.0270  -16.1723   22.3124 C   0  0  1  0  0  0  0  0  0  0  0  0
   11.4752  -16.5585   22.1618 C   0  0  0  0  0  0  0  0  0  0  0  0
   11.6747  -18.0025   21.8312 C   0  0  0  0  0  0  0  0  0  0  0  0
   12.8727  -18.1148   20.9584 C   0  0  0  0  0  0  0  0  0  0  0  0
   13.6001  -17.1220   20.7004 O   0  0  0  0  0  0  0  0  0  0  0  0
    9.7267  -15.7401   23.7161 C   0  0  0  0  0  0  0  0  0  0  0  0
    9.6609  -14.5190   24.0056 O   0  0  0  0  0  0  0  0  0  0  0  0
   13.2499  -19.3331   20.3804 O   0  0  0  0  0  0  0  0  0  0  0  0
    9.5053  -16.6644   24.7707 N   0  0  0  0  0  0  0  0  0  0  0  0
    8.7958  -16.2701   25.9997 C   0  0  1  0  0  0  0  0  0  0  0  0
    7.4625  -15.6840   25.6898 C   0  0  0  0  0  0  0  0  0  0  0  0
    7.3801  -14.2895   26.1340 C   0  0  0  0  0  0  0  0  0  0  0  0
    8.4512  -13.7207   26.7895 C   0  0  0  0  0  0  0  0  0  0  0  0
    8.3389  -12.4085   27.1911 C   0  0  0  0  0  0  0  0  0  0  0  0
    7.1894  -11.6673   26.9510 C   0  0  0  0  0  0  0  0  0  0  0  0
    6.1034  -12.2238   26.2933 C   0  0  0  0  0  0  0  0  0  0  0  0
    6.2227  -13.5372   25.8943 C   0  0  0  0  0  0  0  0  0  0  0  0
    8.7959  -17.3902   26.9452 C   0  0  0  0  0  0  0  0  0  0  0  0
    9.3266  -18.6484   26.5840 O   0  0  0  0  0  0  0  0  0  0  0  0
    8.3443  -17.3409   28.1150 O   0  0  0  0  0  0  0  0  0  0  0  0
  2  1  1  0
  2  3  2  0
  4  2  1  0
  5  4  1  0
  6  5  1  0
  6  7  1  6
  8  9  2  0
  8  6  1  0
 10  8  1  0
 11 10  1  0
 11 12  1  1
 13 14  1  0
 13 12  1  0
 14 18  1  0
 15 14  2  0
 16 17  2  0
 16 11  1  0
 19 16  1  0
 20 21  1  6
 20 19  1  0
 22 21  1  0
 22 23  2  0
 24 23  1  0
 25 24  2  0
 26 27  2  0
 26 25  1  0
 27 22  1  0
 28 20  1  0
 29 28  1  0
 30 28  2  0
M  END
$$$$
