QEF.pdb
     RDKit          3D

 30 30  0  0  1  0  0  0  0  0999 V2000
    8.1438  -12.0142   19.8663 N   0  0  0  0  0  0  0  0  0  0  0  0
    7.7141  -12.8325   18.7801 C   0  0  0  0  0  0  0  0  0  0  0  0
    7.4860  -12.2940   17.6868 O   0  0  0  0  0  0  0  0  0  0  0  0
    7.5677  -14.2772   19.0350 C   0  0  0  0  0  0  0  0  0  0  0  0
    7.9163  -14.6489   20.4472 C   0  0  0  0  0  0  0  0  0  0  0  0
    8.9350  -15.7475   20.5707 C   0  0  2  0  0  0  0  0  0  0  0  0
    8.4693  -16.8150   19.6811 N   0  0  0  0  0  0  0  0  0  0  0  0
    8.9313  -16.2295   21.9840 C   0  0  0  0  0  0  0  0  0  0  0  0
    7.9156  -16.1599   22.7145 O   0  0  0  0  0  0  0  0  0  0  0  0
   10.0876  -16.7997   22.5881 N   0  0  0  0  0  0  0  0  0  0  0  0
   10.0376  -17.4062   23.8807 C   0  0  1  0  0  0  0  0  0  0  0  0
   11.1206  -18.4356   24.0719 C   0  0  0  0  0  0  0  0  0  0  0  0
   10.9654  -19.2373   25.3239 C   0  0  0  0  0  0  0  0  0  0  0  0
   12.0382  -20.2658   25.3492 C   0  0  0  0  0  0  0  0  0  0  0  0
   11.8776  -21.4038   24.8389 O   0  0  0  0  0  0  0  0  0  0  0  0
   10.0600  -16.3883   24.9811 C   0  0  0  0  0  0  0  0  0  0  0  0
   10.8189  -15.3894   24.9085 O   0  0  0  0  0  0  0  0  0  0  0  0
   13.2816  -20.0170   25.9434 O   0  0  0  0  0  0  0  0  0  0  0  0
    9.2444  -16.4941   26.1383 N   0  0  0  0  0  0  0  0  0  0  0  0
    9.4319  -15.5995   27.2931 C   0  0  1  0  0  0  0  0  0  0  0  0
    8.1531  -14.9431   27.6817 C   0  0  0  0  0  0  0  0  0  0  0  0
    7.7996  -13.8736   26.7436 C   0  0  0  0  0  0  0  0  0  0  0  0
    6.6394  -13.9729   26.0057 C   0  0  0  0  0  0  0  0  0  0  0  0
    6.3387  -12.9491   25.1355 C   0  0  0  0  0  0  0  0  0  0  0  0
    7.1677  -11.8440   24.9939 C   0  0  0  0  0  0  0  0  0  0  0  0
    8.3378  -11.7284   25.7281 C   0  0  0  0  0  0  0  0  0  0  0  0
    8.6324  -12.7565   26.5969 C   0  0  0  0  0  0  0  0  0  0  0  0
   10.1294  -16.3202   28.3621 C   0  0  0  0  0  0  0  0  0  0  0  0
   10.4851  -15.6723   29.5658 O   0  0  0  0  0  0  0  0  0  0  0  0
   10.4628  -17.5290   28.3125 O   0  0  0  0  0  0  0  0  0  0  0  0
  2  1  1  0
  2  3  2  0
  4  2  1  0
  5  4  1  0
  6  5  1  0
  6  7  1  6
  8  9  2  0
  8  6  1  0
 10  8  1  0
 11 10  1  0
 11 12  1  1
 13 14  1  0
 13 12  1  0
 14 18  1  0
 15 14  2  0
 16 17  2  0
 16 11  1  0
 19 16  1  0
 20 21  1  1
 20 19  1  0
 22 21  1  0
 22 23  2  0
 24 23  1  0
 25 24  2  0
 26 27  2  0
 26 25  1  0
 27 22  1  0
 28 20  1  0
 29 28  1  0
 30 28  2  0
M  END
$$$$
