QEF.pdb
     RDKit          3D

 30 30  0  0  1  0  0  0  0  0999 V2000
    8.3321  -12.8062   19.2278 N   0  0  0  0  0  0  0  0  0  0  0  0
    8.0572  -12.6693   20.6206 C   0  0  0  0  0  0  0  0  0  0  0  0
    8.2422  -11.5660   21.1553 O   0  0  0  0  0  0  0  0  0  0  0  0
    7.5685  -13.8618   21.3364 C   0  0  0  0  0  0  0  0  0  0  0  0
    7.4740  -15.0670   20.4461 C   0  0  0  0  0  0  0  0  0  0  0  0
    6.9867  -16.3132   21.1313 C   0  0  2  0  0  0  0  0  0  0  0  0
    5.6121  -16.0197   21.5463 N   0  0  0  0  0  0  0  0  0  0  0  0
    7.8391  -16.5468   22.3348 C   0  0  0  0  0  0  0  0  0  0  0  0
    7.3662  -16.5896   23.4945 O   0  0  0  0  0  0  0  0  0  0  0  0
    9.2467  -16.7357   22.2354 N   0  0  0  0  0  0  0  0  0  0  0  0
   10.0137  -17.2524   23.3244 C   0  0  1  0  0  0  0  0  0  0  0  0
   11.4466  -17.5150   22.9412 C   0  0  0  0  0  0  0  0  0  0  0  0
   12.2524  -18.1328   24.0382 C   0  0  0  0  0  0  0  0  0  0  0  0
   13.6303  -18.3579   23.5280 C   0  0  0  0  0  0  0  0  0  0  0  0
   14.4650  -17.4216   23.4380 O   0  0  0  0  0  0  0  0  0  0  0  0
    9.9313  -16.3748   24.5369 C   0  0  0  0  0  0  0  0  0  0  0  0
   10.4043  -15.2108   24.5132 O   0  0  0  0  0  0  0  0  0  0  0  0
   14.0663  -19.6252   23.1223 O   0  0  0  0  0  0  0  0  0  0  0  0
    9.3288  -16.7999   25.7501 N   0  0  0  0  0  0  0  0  0  0  0  0
    9.5058  -16.0428   27.0009 C   0  0  1  0  0  0  0  0  0  0  0  0
    8.2123  -15.4840   27.4823 C   0  0  0  0  0  0  0  0  0  0  0  0
    7.9709  -14.1499   26.9250 C   0  0  0  0  0  0  0  0  0  0  0  0
    8.8476  -13.1252   27.2110 C   0  0  0  0  0  0  0  0  0  0  0  0
    8.5901  -11.8858   26.6692 C   0  0  0  0  0  0  0  0  0  0  0  0
    7.4860  -11.6585   25.8582 C   0  0  0  0  0  0  0  0  0  0  0  0
    6.5946  -12.6777   25.5608 C   0  0  0  0  0  0  0  0  0  0  0  0
    6.8585  -13.9152   26.1062 C   0  0  0  0  0  0  0  0  0  0  0  0
   10.2464  -16.8599   27.9666 C   0  0  0  0  0  0  0  0  0  0  0  0
   10.6986  -18.1550   27.6297 O   0  0  0  0  0  0  0  0  0  0  0  0
   10.5370  -16.5029   29.1340 O   0  0  0  0  0  0  0  0  0  0  0  0
  2  1  1  0
  2  3  2  0
  4  2  1  0
  5  4  1  0
  6  5  1  0
  6  7  1  1
  8  9  2  0
  8  6  1  0
 10  8  1  0
 11 10  1  0
 11 12  1  6
 13 14  1  0
 13 12  1  0
 14 18  1  0
 15 14  2  0
 16 17  2  0
 16 11  1  0
 19 16  1  0
 20 21  1  1
 20 19  1  0
 22 21  1  0
 22 23  2  0
 24 23  1  0
 25 24  2  0
 26 27  2  0
 26 25  1  0
 27 22  1  0
 28 20  1  0
 29 28  1  0
 30 28  2  0
M  END
$$$$
