QEF.pdb
     RDKit          3D

 30 30  0  0  1  0  0  0  0  0999 V2000
    3.2586  -18.3095   19.7993 N   0  0  0  0  0  0  0  0  0  0  0  0
    2.5873  -18.7903   20.9622 C   0  0  0  0  0  0  0  0  0  0  0  0
    1.4558  -19.2804   20.8328 O   0  0  0  0  0  0  0  0  0  0  0  0
    3.2917  -18.6689   22.2516 C   0  0  0  0  0  0  0  0  0  0  0  0
    4.5427  -17.8454   22.1468 C   0  0  0  0  0  0  0  0  0  0  0  0
    5.7058  -18.5545   21.5110 C   0  0  2  0  0  0  0  0  0  0  0  0
    5.4644  -19.9824   21.7361 N   0  0  0  0  0  0  0  0  0  0  0  0
    6.9513  -18.1345   22.2196 C   0  0  0  0  0  0  0  0  0  0  0  0
    7.3579  -18.7057   23.2582 O   0  0  0  0  0  0  0  0  0  0  0  0
    7.7545  -17.0548   21.7548 N   0  0  0  0  0  0  0  0  0  0  0  0
    9.0158  -16.7465   22.3508 C   0  0  1  0  0  0  0  0  0  0  0  0
    9.9370  -16.0272   21.4005 C   0  0  0  0  0  0  0  0  0  0  0  0
   11.2777  -15.7227   21.9873 C   0  0  0  0  0  0  0  0  0  0  0  0
   12.1468  -15.1949   20.9030 C   0  0  0  0  0  0  0  0  0  0  0  0
   12.0276  -15.5794   19.7116 O   0  0  0  0  0  0  0  0  0  0  0  0
    8.8612  -15.9852   23.6329 C   0  0  0  0  0  0  0  0  0  0  0  0
    7.8987  -15.1928   23.7903 O   0  0  0  0  0  0  0  0  0  0  0  0
   13.1418  -14.2426   21.1560 O   0  0  0  0  0  0  0  0  0  0  0  0
    9.7719  -16.1143   24.7144 N   0  0  0  0  0  0  0  0  0  0  0  0
    9.3632  -15.8264   26.0997 C   0  0  1  0  0  0  0  0  0  0  0  0
    7.8836  -15.7027   26.2122 C   0  0  0  0  0  0  0  0  0  0  0  0
    7.4691  -14.2968   26.2326 C   0  0  0  0  0  0  0  0  0  0  0  0
    8.2377  -13.3715   26.9060 C   0  0  0  0  0  0  0  0  0  0  0  0
    7.8185  -12.0599   26.9029 C   0  0  0  0  0  0  0  0  0  0  0  0
    6.6601  -11.6652   26.2467 C   0  0  0  0  0  0  0  0  0  0  0  0
    5.8757  -12.5827   25.5650 C   0  0  0  0  0  0  0  0  0  0  0  0
    6.3012  -13.8933   25.5722 C   0  0  0  0  0  0  0  0  0  0  0  0
    9.9933  -16.7909   27.0060 C   0  0  0  0  0  0  0  0  0  0  0  0
   10.8741  -17.7814   26.5178 O   0  0  0  0  0  0  0  0  0  0  0  0
    9.8184  -16.8276   28.2481 O   0  0  0  0  0  0  0  0  0  0  0  0
  2  1  1  0
  2  3  2  0
  4  2  1  0
  5  4  1  0
  6  5  1  0
  6  7  1  1
  8  9  2  0
  8  6  1  0
 10  8  1  0
 11 10  1  0
 11 12  1  6
 13 14  1  0
 13 12  1  0
 14 18  1  0
 15 14  2  0
 16 17  2  0
 16 11  1  0
 19 16  1  0
 20 21  1  6
 20 19  1  0
 22 21  1  0
 22 23  2  0
 24 23  1  0
 25 24  2  0
 26 27  2  0
 26 25  1  0
 27 22  1  0
 28 20  1  0
 29 28  1  0
 30 28  2  0
M  END
$$$$
