QEF.pdb
     RDKit          3D

 30 30  0  0  1  0  0  0  0  0999 V2000
    9.2256  -12.5555   18.9672 N   0  0  0  0  0  0  0  0  0  0  0  0
    7.9835  -12.7971   18.3091 C   0  0  0  0  0  0  0  0  0  0  0  0
    7.7060  -12.1275   17.3031 O   0  0  0  0  0  0  0  0  0  0  0  0
    7.1053  -13.8362   18.8768 C   0  0  0  0  0  0  0  0  0  0  0  0
    7.6449  -14.4076   20.1560 C   0  0  0  0  0  0  0  0  0  0  0  0
    8.2919  -15.7570   20.0136 C   0  0  2  0  0  0  0  0  0  0  0  0
    7.3126  -16.5882   19.3079 N   0  0  0  0  0  0  0  0  0  0  0  0
    8.5291  -16.3067   21.3815 C   0  0  0  0  0  0  0  0  0  0  0  0
    7.6838  -17.0153   21.9763 O   0  0  0  0  0  0  0  0  0  0  0  0
    9.7358  -16.0570   22.0946 N   0  0  0  0  0  0  0  0  0  0  0  0
   10.2028  -16.9428   23.1136 C   0  0  1  0  0  0  0  0  0  0  0  0
   11.6049  -17.4274   22.8520 C   0  0  0  0  0  0  0  0  0  0  0  0
   12.1040  -18.3892   23.8817 C   0  0  0  0  0  0  0  0  0  0  0  0
   13.5019  -18.7544   23.5327 C   0  0  0  0  0  0  0  0  0  0  0  0
   13.7621  -19.6409   22.6795 O   0  0  0  0  0  0  0  0  0  0  0  0
   10.0868  -16.3386   24.4807 C   0  0  0  0  0  0  0  0  0  0  0  0
   10.6676  -15.2572   24.7499 O   0  0  0  0  0  0  0  0  0  0  0  0
   14.5985  -18.1283   24.1379 O   0  0  0  0  0  0  0  0  0  0  0  0
    9.3323  -16.9403   25.5220 N   0  0  0  0  0  0  0  0  0  0  0  0
    9.2147  -16.3088   26.8473 C   0  0  1  0  0  0  0  0  0  0  0  0
    7.8168  -15.8715   27.1156 C   0  0  0  0  0  0  0  0  0  0  0  0
    7.5849  -14.5086   26.6283 C   0  0  0  0  0  0  0  0  0  0  0  0
    6.6726  -14.2945   25.6171 C   0  0  0  0  0  0  0  0  0  0  0  0
    6.4796  -13.0013   25.1856 C   0  0  0  0  0  0  0  0  0  0  0  0
    7.1742  -11.9349   25.7410 C   0  0  0  0  0  0  0  0  0  0  0  0
    8.0950  -12.1326   26.7583 C   0  0  0  0  0  0  0  0  0  0  0  0
    8.2831  -13.4291   27.1852 C   0  0  0  0  0  0  0  0  0  0  0  0
    9.8153  -17.1818   27.8601 C   0  0  0  0  0  0  0  0  0  0  0  0
   10.3763  -18.4291   27.5067 O   0  0  0  0  0  0  0  0  0  0  0  0
    9.8856  -16.9166   29.0847 O   0  0  0  0  0  0  0  0  0  0  0  0
  2  1  1  0
  2  3  2  0
  4  2  1  0
  5  4  1  0
  6  5  1  0
  6  7  1  6
  8  9  2  0
  8  6  1  0
 10  8  1  0
 11 10  1  0
 11 12  1  6
 13 14  1  0
 13 12  1  0
 14 18  1  0
 15 14  2  0
 16 17  2  0
 16 11  1  0
 19 16  1  0
 20 21  1  1
 20 19  1  0
 22 21  1  0
 22 23  2  0
 24 23  1  0
 25 24  2  0
 26 27  2  0
 26 25  1  0
 27 22  1  0
 28 20  1  0
 29 28  1  0
 30 28  2  0
M  END
$$$$
