QEF.pdb
     RDKit          3D

 30 30  0  0  1  0  0  0  0  0999 V2000
    9.6619  -13.3943   19.0098 N   0  0  0  0  0  0  0  0  0  0  0  0
    8.4111  -12.7886   18.6893 C   0  0  0  0  0  0  0  0  0  0  0  0
    8.3324  -12.1006   17.6607 O   0  0  0  0  0  0  0  0  0  0  0  0
    7.2866  -13.0233   19.6132 C   0  0  0  0  0  0  0  0  0  0  0  0
    7.6881  -13.8333   20.8118 C   0  0  0  0  0  0  0  0  0  0  0  0
    7.7848  -15.3126   20.5622 C   0  0  2  0  0  0  0  0  0  0  0  0
    6.4389  -15.7306   20.1600 N   0  0  0  0  0  0  0  0  0  0  0  0
    8.1584  -15.9782   21.8456 C   0  0  0  0  0  0  0  0  0  0  0  0
    7.3045  -16.3338   22.6910 O   0  0  0  0  0  0  0  0  0  0  0  0
    9.5139  -16.2495   22.1865 N   0  0  0  0  0  0  0  0  0  0  0  0
    9.8573  -17.1622   23.2305 C   0  0  1  0  0  0  0  0  0  0  0  0
   11.1304  -17.9126   22.9387 C   0  0  0  0  0  0  0  0  0  0  0  0
   11.4347  -18.9803   23.9395 C   0  0  0  0  0  0  0  0  0  0  0  0
   12.7170  -19.6243   23.5518 C   0  0  0  0  0  0  0  0  0  0  0  0
   13.2219  -20.5562   24.2285 O   0  0  0  0  0  0  0  0  0  0  0  0
    9.9224  -16.4884   24.5681 C   0  0  0  0  0  0  0  0  0  0  0  0
   10.5851  -15.4311   24.7163 O   0  0  0  0  0  0  0  0  0  0  0  0
   13.4260  -19.2239   22.4126 O   0  0  0  0  0  0  0  0  0  0  0  0
    9.2547  -16.9953   25.7139 N   0  0  0  0  0  0  0  0  0  0  0  0
    9.3708  -16.3336   27.0246 C   0  0  1  0  0  0  0  0  0  0  0  0
    8.0505  -15.8312   27.4953 C   0  0  0  0  0  0  0  0  0  0  0  0
    7.7013  -14.5659   26.8427 C   0  0  0  0  0  0  0  0  0  0  0  0
    6.5978  -14.5084   26.0185 C   0  0  0  0  0  0  0  0  0  0  0  0
    6.2992  -13.3032   25.4233 C   0  0  0  0  0  0  0  0  0  0  0  0
    7.0754  -12.1716   25.6364 C   0  0  0  0  0  0  0  0  0  0  0  0
    8.1883  -12.2121   26.4620 C   0  0  0  0  0  0  0  0  0  0  0  0
    8.4811  -13.4213   27.0542 C   0  0  0  0  0  0  0  0  0  0  0  0
   10.0873  -17.2118   27.9541 C   0  0  0  0  0  0  0  0  0  0  0  0
   10.4778  -16.7559   29.2327 O   0  0  0  0  0  0  0  0  0  0  0  0
   10.4085  -18.4009   27.7136 O   0  0  0  0  0  0  0  0  0  0  0  0
  2  1  1  0
  2  3  2  0
  4  2  1  0
  5  4  1  0
  6  5  1  0
  6  7  1  1
  8  9  2  0
  8  6  1  0
 10  8  1  0
 11 10  1  0
 11 12  1  6
 13 14  1  0
 13 12  1  0
 14 18  1  0
 15 14  2  0
 16 17  2  0
 16 11  1  0
 19 16  1  0
 20 21  1  1
 20 19  1  0
 22 21  1  0
 22 23  2  0
 24 23  1  0
 25 24  2  0
 26 27  2  0
 26 25  1  0
 27 22  1  0
 28 20  1  0
 29 28  1  0
 30 28  2  0
M  END
$$$$
