QEF.pdb
     RDKit          3D

 30 30  0  0  1  0  0  0  0  0999 V2000
    6.9885  -12.7682   17.2162 N   0  0  0  0  0  0  0  0  0  0  0  0
    7.7866  -13.9268   16.9815 C   0  0  0  0  0  0  0  0  0  0  0  0
    7.4906  -14.6677   16.0324 O   0  0  0  0  0  0  0  0  0  0  0  0
    8.9194  -14.1670   17.8939 C   0  0  0  0  0  0  0  0  0  0  0  0
    8.9765  -13.1681   19.0133 C   0  0  0  0  0  0  0  0  0  0  0  0
   10.0997  -13.3861   19.9884 C   0  0  2  0  0  0  0  0  0  0  0  0
   11.2679  -13.7242   19.1706 N   0  0  0  0  0  0  0  0  0  0  0  0
    9.7411  -14.5438   20.8608 C   0  0  0  0  0  0  0  0  0  0  0  0
    8.7158  -14.5495   21.5811 O   0  0  0  0  0  0  0  0  0  0  0  0
   10.5472  -15.7155   20.9260 N   0  0  0  0  0  0  0  0  0  0  0  0
   10.2536  -16.7792   21.8334 C   0  0  1  0  0  0  0  0  0  0  0  0
   11.0487  -18.0230   21.5335 C   0  0  0  0  0  0  0  0  0  0  0  0
   10.7620  -19.1528   22.4693 C   0  0  0  0  0  0  0  0  0  0  0  0
   11.6104  -20.3070   22.0727 C   0  0  0  0  0  0  0  0  0  0  0  0
   11.3338  -21.0212   21.0752 O   0  0  0  0  0  0  0  0  0  0  0  0
   10.4232  -16.3619   23.2633 C   0  0  0  0  0  0  0  0  0  0  0  0
   11.3235  -15.5467   23.5857 O   0  0  0  0  0  0  0  0  0  0  0  0
   12.7605  -20.6557   22.7914 O   0  0  0  0  0  0  0  0  0  0  0  0
    9.5957  -16.8529   24.3073 N   0  0  0  0  0  0  0  0  0  0  0  0
    9.0613  -15.9578   25.3476 C   0  0  1  0  0  0  0  0  0  0  0  0
    8.4118  -14.7595   24.7482 C   0  0  0  0  0  0  0  0  0  0  0  0
    7.8682  -13.8768   25.7847 C   0  0  0  0  0  0  0  0  0  0  0  0
    6.5848  -13.3897   25.6579 C   0  0  0  0  0  0  0  0  0  0  0  0
    6.1069  -12.5645   26.6512 C   0  0  0  0  0  0  0  0  0  0  0  0
    6.8809  -12.2239   27.7527 C   0  0  0  0  0  0  0  0  0  0  0  0
    8.1731  -12.7049   27.8957 C   0  0  0  0  0  0  0  0  0  0  0  0
    8.6448  -13.5301   26.8981 C   0  0  0  0  0  0  0  0  0  0  0  0
    8.2365  -16.7304   26.2811 C   0  0  0  0  0  0  0  0  0  0  0  0
    7.6697  -17.9671   25.9007 O   0  0  0  0  0  0  0  0  0  0  0  0
    7.9666  -16.3826   27.4562 O   0  0  0  0  0  0  0  0  0  0  0  0
  2  1  1  0
  2  3  2  0
  4  2  1  0
  5  4  1  0
  6  5  1  0
  6  7  1  6
  8  9  2  0
  8  6  1  0
 10  8  1  0
 11 10  1  0
 11 12  1  6
 13 14  1  0
 13 12  1  0
 14 18  1  0
 15 14  2  0
 16 17  2  0
 16 11  1  0
 19 16  1  0
 20 21  1  6
 20 19  1  0
 22 21  1  0
 22 23  2  0
 24 23  1  0
 25 24  2  0
 26 27  2  0
 26 25  1  0
 27 22  1  0
 28 20  1  0
 29 28  1  0
 30 28  2  0
M  END
$$$$
