QEF.pdb
     RDKit          3D

 30 30  0  0  1  0  0  0  0  0999 V2000
    8.2963  -11.8434   19.5732 N   0  0  0  0  0  0  0  0  0  0  0  0
    7.9387  -12.7584   18.5392 C   0  0  0  0  0  0  0  0  0  0  0  0
    7.1910  -12.3644   17.6320 O   0  0  0  0  0  0  0  0  0  0  0  0
    8.4872  -14.1244   18.6218 C   0  0  0  0  0  0  0  0  0  0  0  0
    8.2997  -14.7369   19.9797 C   0  0  0  0  0  0  0  0  0  0  0  0
    8.9045  -16.1041   20.1372 C   0  0  2  0  0  0  0  0  0  0  0  0
    8.1572  -16.9706   19.2214 N   0  0  0  0  0  0  0  0  0  0  0  0
    8.6871  -16.5502   21.5455 C   0  0  0  0  0  0  0  0  0  0  0  0
    7.6886  -17.2246   21.8897 O   0  0  0  0  0  0  0  0  0  0  0  0
    9.6062  -16.2342   22.5859 N   0  0  0  0  0  0  0  0  0  0  0  0
    9.6361  -16.9696   23.8104 C   0  0  1  0  0  0  0  0  0  0  0  0
   10.4689  -18.2204   23.7063 C   0  0  0  0  0  0  0  0  0  0  0  0
   11.7962  -18.1099   24.3849 C   0  0  0  0  0  0  0  0  0  0  0  0
   12.4989  -19.4116   24.2387 C   0  0  0  0  0  0  0  0  0  0  0  0
   12.5543  -20.2442   25.1795 O   0  0  0  0  0  0  0  0  0  0  0  0
   10.0775  -16.1217   24.9652 C   0  0  0  0  0  0  0  0  0  0  0  0
   11.1073  -15.4074   24.8732 O   0  0  0  0  0  0  0  0  0  0  0  0
   13.1343  -19.7743   23.0448 O   0  0  0  0  0  0  0  0  0  0  0  0
    9.3733  -16.0798   26.1973 N   0  0  0  0  0  0  0  0  0  0  0  0
    9.8246  -15.2270   27.3100 C   0  0  1  0  0  0  0  0  0  0  0  0
    8.6794  -14.5229   27.9503 C   0  0  0  0  0  0  0  0  0  0  0  0
    8.0036  -13.6356   26.9990 C   0  0  0  0  0  0  0  0  0  0  0  0
    8.6186  -12.4661   26.6058 C   0  0  0  0  0  0  0  0  0  0  0  0
    7.9550  -11.6579   25.7101 C   0  0  0  0  0  0  0  0  0  0  0  0
    6.7048  -11.9958   25.2090 C   0  0  0  0  0  0  0  0  0  0  0  0
    6.0725  -13.1679   25.5939 C   0  0  0  0  0  0  0  0  0  0  0  0
    6.7422  -13.9718   26.4903 C   0  0  0  0  0  0  0  0  0  0  0  0
   10.6769  -16.0085   28.2107 C   0  0  0  0  0  0  0  0  0  0  0  0
   10.8793  -17.3913   28.0049 O   0  0  0  0  0  0  0  0  0  0  0  0
   11.2821  -15.5445   29.2073 O   0  0  0  0  0  0  0  0  0  0  0  0
  2  1  1  0
  2  3  2  0
  4  2  1  0
  5  4  1  0
  6  5  1  0
  6  7  1  6
  8  9  2  0
  8  6  1  0
 10  8  1  0
 11 10  1  0
 11 12  1  6
 13 14  1  0
 13 12  1  0
 14 18  1  0
 15 14  2  0
 16 17  2  0
 16 11  1  0
 19 16  1  0
 20 21  1  1
 20 19  1  0
 22 21  1  0
 22 23  2  0
 24 23  1  0
 25 24  2  0
 26 27  2  0
 26 25  1  0
 27 22  1  0
 28 20  1  0
 29 28  1  0
 30 28  2  0
M  END
$$$$
