PMN.pdb
     RDKit          3D

 24 24  0  0  1  0  0  0  0  0999 V2000
    7.4443  -15.2033   19.9068 N   0  0  0  0  0  0  0  0  0  0  0  0
    6.4942  -14.1447   19.6594 C   0  0  0  0  0  0  0  0  0  0  0  0
    7.2565  -12.8467   19.5520 C   0  0  0  0  0  0  0  0  0  0  0  0
    8.7112  -13.2618   19.4071 C   0  0  0  0  0  0  0  0  0  0  0  0
    8.7318  -14.6177   20.0799 C   0  0  1  0  0  0  0  0  0  0  0  0
    9.0825  -14.4282   21.5185 C   0  0  0  0  0  0  0  0  0  0  0  0
   10.2251  -13.9971   21.7684 O   0  0  0  0  0  0  0  0  0  0  0  0
    6.7304  -11.3789   28.0602 C   0  0  0  0  0  0  0  0  0  0  0  0
    6.2251  -12.4649   26.7221 S   0  0  0  0  0  0  0  0  0  0  0  0
    7.7102  -13.1691   25.8840 C   0  0  0  0  0  0  0  0  0  0  0  0
    7.2204  -14.0504   24.7614 C   0  0  0  0  0  0  0  0  0  0  0  0
    8.3603  -14.6584   23.9614 C   0  0  2  0  0  0  0  0  0  0  0  0
    8.1843  -14.7159   22.5599 N   0  0  0  0  0  0  0  0  0  0  0  0
    8.9443  -15.8566   24.5556 C   0  0  0  0  0  0  0  0  0  0  0  0
    8.2967  -16.9545   24.5584 O   0  0  0  0  0  0  0  0  0  0  0  0
   13.2899  -16.0217   23.5724 N   0  0  0  0  0  0  0  0  0  0  0  0
   12.5913  -17.1248   24.1105 C   0  0  0  0  0  0  0  0  0  0  0  0
   12.2613  -18.0995   23.3631 O   0  0  0  0  0  0  0  0  0  0  0  0
   12.2517  -17.1298   25.5633 C   0  0  0  0  0  0  0  0  0  0  0  0
   10.7358  -17.1441   25.7518 C   0  0  2  0  0  0  0  0  0  0  0  0
   10.2458  -15.8968   25.1625 N   0  0  0  0  0  0  0  0  0  0  0  0
   10.4455  -17.1920   27.1993 C   0  0  0  0  0  0  0  0  0  0  0  0
   10.7115  -18.3072   27.9818 O   0  0  0  0  0  0  0  0  0  0  0  0
    9.9352  -16.1965   27.7806 O   0  0  0  0  0  0  0  0  0  0  0  0
  1  5  1  0
  1  2  1  0
  2  3  1  0
  4  3  1  0
  5  4  1  0
  5  6  1  1
  7  6  2  0
  8  9  1  0
  9 10  1  0
 11 10  1  0
 12 11  1  1
 12 13  1  0
 13  6  1  0
 14 12  1  0
 14 15  2  0
 17 16  1  0
 17 19  1  0
 18 17  2  0
 20 19  1  1
 20 21  1  0
 21 14  1  0
 22 20  1  0
 23 22  1  0
 24 22  2  0
M  END
$$$$
