PMN.pdb
     RDKit          3D

 24 24  0  0  1  0  0  0  0  0999 V2000
    7.2060  -14.9713   19.6310 N   0  0  0  0  0  0  0  0  0  0  0  0
    6.5584  -13.7155   19.3338 C   0  0  0  0  0  0  0  0  0  0  0  0
    7.6261  -12.6573   19.2025 C   0  0  0  0  0  0  0  0  0  0  0  0
    8.9295  -13.4319   19.0981 C   0  0  0  0  0  0  0  0  0  0  0  0
    8.5979  -14.7253   19.8113 C   0  0  1  0  0  0  0  0  0  0  0  0
    8.9693  -14.5824   21.2501 C   0  0  0  0  0  0  0  0  0  0  0  0
   10.1854  -14.5090   21.5141 O   0  0  0  0  0  0  0  0  0  0  0  0
    6.7530  -11.5266   28.1377 C   0  0  0  0  0  0  0  0  0  0  0  0
    6.2942  -12.0226   26.4736 S   0  0  0  0  0  0  0  0  0  0  0  0
    7.5151  -13.2403   25.8175 C   0  0  0  0  0  0  0  0  0  0  0  0
    7.1320  -13.5398   24.3890 C   0  0  0  0  0  0  0  0  0  0  0  0
    8.1745  -14.3820   23.6730 C   0  0  2  0  0  0  0  0  0  0  0  0
    8.0114  -14.5313   22.2767 N   0  0  0  0  0  0  0  0  0  0  0  0
    8.5564  -15.6007   24.3794 C   0  0  0  0  0  0  0  0  0  0  0  0
    7.7053  -16.5319   24.5622 O   0  0  0  0  0  0  0  0  0  0  0  0
   12.0167  -19.8848   24.6285 N   0  0  0  0  0  0  0  0  0  0  0  0
   12.1943  -18.7080   25.3888 C   0  0  0  0  0  0  0  0  0  0  0  0
   12.7992  -18.7538   26.5066 O   0  0  0  0  0  0  0  0  0  0  0  0
   11.6668  -17.4163   24.8603 C   0  0  0  0  0  0  0  0  0  0  0  0
   10.2395  -17.1868   25.3538 C   0  0  2  0  0  0  0  0  0  0  0  0
    9.8708  -15.8426   24.9062 N   0  0  0  0  0  0  0  0  0  0  0  0
   10.2361  -17.2698   26.8285 C   0  0  0  0  0  0  0  0  0  0  0  0
   10.0541  -16.1603   27.6425 O   0  0  0  0  0  0  0  0  0  0  0  0
   10.4023  -18.3785   27.4052 O   0  0  0  0  0  0  0  0  0  0  0  0
  1  5  1  0
  1  2  1  0
  2  3  1  0
  4  3  1  0
  5  4  1  0
  5  6  1  1
  7  6  2  0
  8  9  1  0
  9 10  1  0
 11 10  1  0
 12 11  1  1
 12 13  1  0
 13  6  1  0
 14 12  1  0
 14 15  2  0
 17 16  1  0
 17 19  1  0
 18 17  2  0
 20 19  1  1
 20 21  1  0
 21 14  1  0
 22 20  1  0
 23 22  1  0
 24 22  2  0
M  END
$$$$
