PMN.pdb
     RDKit          3D

 24 24  0  0  1  0  0  0  0  0999 V2000
    7.1943  -15.0782   20.2095 N   0  0  0  0  0  0  0  0  0  0  0  0
    6.3116  -13.9543   20.0036 C   0  0  0  0  0  0  0  0  0  0  0  0
    7.1597  -12.7192   19.8241 C   0  0  0  0  0  0  0  0  0  0  0  0
    8.5671  -13.2448   19.5946 C   0  0  0  0  0  0  0  0  0  0  0  0
    8.5303  -14.5891   20.2895 C   0  0  1  0  0  0  0  0  0  0  0  0
    8.9867  -14.4071   21.6992 C   0  0  0  0  0  0  0  0  0  0  0  0
   10.1723  -14.0612   21.8680 O   0  0  0  0  0  0  0  0  0  0  0  0
    5.7411  -12.7162   27.2093 C   0  0  0  0  0  0  0  0  0  0  0  0
    6.6161  -11.5467   26.1643 S   0  0  0  0  0  0  0  0  0  0  0  0
    7.3684  -12.4237   24.7259 C   0  0  0  0  0  0  0  0  0  0  0  0
    7.4733  -13.8840   25.0914 C   0  0  0  0  0  0  0  0  0  0  0  0
    8.4278  -14.6421   24.1842 C   0  0  2  0  0  0  0  0  0  0  0  0
    8.1386  -14.6109   22.8007 N   0  0  0  0  0  0  0  0  0  0  0  0
    8.8409  -15.9453   24.6949 C   0  0  0  0  0  0  0  0  0  0  0  0
    7.9883  -16.8833   24.8296 O   0  0  0  0  0  0  0  0  0  0  0  0
   12.9344  -17.1734   22.9865 N   0  0  0  0  0  0  0  0  0  0  0  0
   12.0046  -17.9838   23.6743 C   0  0  0  0  0  0  0  0  0  0  0  0
   11.2458  -18.7753   23.0297 O   0  0  0  0  0  0  0  0  0  0  0  0
   11.9298  -17.8996   25.1620 C   0  0  0  0  0  0  0  0  0  0  0  0
   10.4991  -17.5956   25.6030 C   0  0  2  0  0  0  0  0  0  0  0  0
   10.1891  -16.2666   25.0731 N   0  0  0  0  0  0  0  0  0  0  0  0
   10.4552  -17.5969   27.0794 C   0  0  0  0  0  0  0  0  0  0  0  0
   10.6913  -18.7361   27.8366 O   0  0  0  0  0  0  0  0  0  0  0  0
   10.1955  -16.5369   27.7106 O   0  0  0  0  0  0  0  0  0  0  0  0
  1  5  1  0
  1  2  1  0
  2  3  1  0
  4  3  1  0
  5  4  1  0
  5  6  1  1
  7  6  2  0
  8  9  1  0
  9 10  1  0
 11 10  1  0
 12 11  1  1
 12 13  1  0
 13  6  1  0
 14 12  1  0
 14 15  2  0
 17 16  1  0
 17 19  1  0
 18 17  2  0
 20 19  1  1
 20 21  1  0
 21 14  1  0
 22 20  1  0
 23 22  1  0
 24 22  2  0
M  END
$$$$
