PMN.pdb
     RDKit          3D

 24 24  0  0  1  0  0  0  0  0999 V2000
    7.3507  -15.2613   20.5385 N   0  0  0  0  0  0  0  0  0  0  0  0
    6.3956  -14.2151   20.2596 C   0  0  0  0  0  0  0  0  0  0  0  0
    7.1285  -12.8960   20.2731 C   0  0  0  0  0  0  0  0  0  0  0  0
    8.6010  -13.2697   20.2315 C   0  0  0  0  0  0  0  0  0  0  0  0
    8.6032  -14.6542   20.8435 C   0  0  1  0  0  0  0  0  0  0  0  0
    8.8295  -14.5229   22.3133 C   0  0  0  0  0  0  0  0  0  0  0  0
    9.9273  -14.0564   22.6754 O   0  0  0  0  0  0  0  0  0  0  0  0
    6.5726  -10.0843   26.7683 C   0  0  0  0  0  0  0  0  0  0  0  0
    6.3333  -11.8638   26.8094 S   0  0  0  0  0  0  0  0  0  0  0  0
    6.8418  -12.6075   25.1994 C   0  0  0  0  0  0  0  0  0  0  0  0
    6.7406  -14.1063   25.3418 C   0  0  0  0  0  0  0  0  0  0  0  0
    7.8973  -14.8319   24.6750 C   0  0  2  0  0  0  0  0  0  0  0  0
    7.8661  -14.9012   23.2633 N   0  0  0  0  0  0  0  0  0  0  0  0
    8.3010  -16.0663   25.3406 C   0  0  0  0  0  0  0  0  0  0  0  0
    7.6567  -16.4905   26.3554 O   0  0  0  0  0  0  0  0  0  0  0  0
    7.5444  -19.8604   27.1552 N   0  0  0  0  0  0  0  0  0  0  0  0
    7.3639  -19.1392   25.9546 C   0  0  0  0  0  0  0  0  0  0  0  0
    6.2601  -18.5525   25.7204 O   0  0  0  0  0  0  0  0  0  0  0  0
    8.4848  -19.0739   24.9720 C   0  0  0  0  0  0  0  0  0  0  0  0
    9.6131  -18.1985   25.5147 C   0  0  2  0  0  0  0  0  0  0  0  0
    9.4136  -16.8739   24.9240 N   0  0  0  0  0  0  0  0  0  0  0  0
   10.9019  -18.7779   25.0846 C   0  0  0  0  0  0  0  0  0  0  0  0
   11.3896  -19.9777   25.5840 O   0  0  0  0  0  0  0  0  0  0  0  0
   11.6142  -18.1848   24.2300 O   0  0  0  0  0  0  0  0  0  0  0  0
  1  5  1  0
  1  2  1  0
  2  3  1  0
  4  3  1  0
  5  4  1  0
  5  6  1  1
  7  6  2  0
  8  9  1  0
  9 10  1  0
 11 10  1  0
 12 11  1  1
 12 13  1  0
 13  6  1  0
 14 12  1  0
 14 15  2  0
 17 16  1  0
 17 19  1  0
 18 17  2  0
 20 19  1  6
 20 21  1  0
 21 14  1  0
 22 20  1  0
 23 22  1  0
 24 22  2  0
M  END
$$$$
