PMN.pdb
     RDKit          3D

 24 24  0  0  1  0  0  0  0  0999 V2000
    8.1511  -15.5616   20.5430 N   0  0  0  0  0  0  0  0  0  0  0  0
    6.8161  -15.2604   20.0829 C   0  0  0  0  0  0  0  0  0  0  0  0
    6.7512  -13.7863   19.7664 C   0  0  0  0  0  0  0  0  0  0  0  0
    8.2008  -13.3308   19.7398 C   0  0  0  0  0  0  0  0  0  0  0  0
    8.8758  -14.3390   20.6450 C   0  0  1  0  0  0  0  0  0  0  0  0
    8.8849  -13.7966   22.0358 C   0  0  0  0  0  0  0  0  0  0  0  0
    8.9649  -12.5587   22.1579 O   0  0  0  0  0  0  0  0  0  0  0  0
    6.5747  -11.1020   27.8844 C   0  0  0  0  0  0  0  0  0  0  0  0
    7.1366  -11.5996   26.2527 S   0  0  0  0  0  0  0  0  0  0  0  0
    6.4508  -13.2585   25.8265 C   0  0  0  0  0  0  0  0  0  0  0  0
    6.9185  -13.5964   24.4321 C   0  0  0  0  0  0  0  0  0  0  0  0
    8.2135  -14.3912   24.4312 C   0  0  2  0  0  0  0  0  0  0  0  0
    8.8085  -14.6225   23.1699 N   0  0  0  0  0  0  0  0  0  0  0  0
    8.2185  -15.5400   25.3313 C   0  0  0  0  0  0  0  0  0  0  0  0
    7.8316  -15.4127   26.5392 O   0  0  0  0  0  0  0  0  0  0  0  0
    6.6100  -21.1619   25.6574 N   0  0  0  0  0  0  0  0  0  0  0  0
    7.7706  -20.3714   25.8078 C   0  0  0  0  0  0  0  0  0  0  0  0
    8.6787  -20.7178   26.6282 O   0  0  0  0  0  0  0  0  0  0  0  0
    7.9152  -19.1319   24.9901 C   0  0  0  0  0  0  0  0  0  0  0  0
    8.4327  -17.9847   25.8561 C   0  0  2  0  0  0  0  0  0  0  0  0
    8.6428  -16.8574   24.9461 N   0  0  0  0  0  0  0  0  0  0  0  0
    9.7057  -18.4050   26.4761 C   0  0  0  0  0  0  0  0  0  0  0  0
    9.7734  -18.9732   27.7407 O   0  0  0  0  0  0  0  0  0  0  0  0
   10.7951  -18.2564   25.8591 O   0  0  0  0  0  0  0  0  0  0  0  0
  1  5  1  0
  1  2  1  0
  2  3  1  0
  4  3  1  0
  5  4  1  0
  5  6  1  1
  7  6  2  0
  8  9  1  0
  9 10  1  0
 11 10  1  0
 12 11  1  6
 12 13  1  0
 13  6  1  0
 14 12  1  0
 14 15  2  0
 17 16  1  0
 17 19  1  0
 18 17  2  0
 20 19  1  6
 20 21  1  0
 21 14  1  0
 22 20  1  0
 23 22  1  0
 24 22  2  0
M  END
$$$$
