PMN.pdb
     RDKit          3D

 24 24  0  0  1  0  0  0  0  0999 V2000
    7.2523  -15.0216   19.9908 N   0  0  0  0  0  0  0  0  0  0  0  0
    6.5093  -13.8008   19.7851 C   0  0  0  0  0  0  0  0  0  0  0  0
    7.4983  -12.6770   19.5946 C   0  0  0  0  0  0  0  0  0  0  0  0
    8.8309  -13.3686   19.3588 C   0  0  0  0  0  0  0  0  0  0  0  0
    8.6377  -14.6960   20.0603 C   0  0  1  0  0  0  0  0  0  0  0  0
    9.1221  -14.5646   21.4662 C   0  0  0  0  0  0  0  0  0  0  0  0
   10.3553  -14.4935   21.6335 O   0  0  0  0  0  0  0  0  0  0  0  0
    5.4305  -12.0822   26.8441 C   0  0  0  0  0  0  0  0  0  0  0  0
    7.2066  -11.8156   26.8452 S   0  0  0  0  0  0  0  0  0  0  0  0
    8.0689  -13.2982   26.1653 C   0  0  0  0  0  0  0  0  0  0  0  0
    7.6163  -13.4686   24.7360 C   0  0  0  0  0  0  0  0  0  0  0  0
    8.5228  -14.3986   23.9473 C   0  0  2  0  0  0  0  0  0  0  0  0
    8.2487  -14.5218   22.5659 N   0  0  0  0  0  0  0  0  0  0  0  0
    8.8383  -15.6527   24.6238 C   0  0  0  0  0  0  0  0  0  0  0  0
    7.9312  -16.5283   24.8117 O   0  0  0  0  0  0  0  0  0  0  0  0
   11.0365  -18.1454   23.2674 N   0  0  0  0  0  0  0  0  0  0  0  0
   12.1217  -18.0001   24.1593 C   0  0  0  0  0  0  0  0  0  0  0  0
   13.3110  -18.2068   23.7589 O   0  0  0  0  0  0  0  0  0  0  0  0
   11.8521  -17.5985   25.5707 C   0  0  0  0  0  0  0  0  0  0  0  0
   10.3682  -17.2874   25.7575 C   0  0  2  0  0  0  0  0  0  0  0  0
   10.1453  -15.9912   25.1145 N   0  0  0  0  0  0  0  0  0  0  0  0
   10.0853  -17.2123   27.2052 C   0  0  0  0  0  0  0  0  0  0  0  0
   10.0917  -18.3284   28.0304 O   0  0  0  0  0  0  0  0  0  0  0  0
    9.8233  -16.1045   27.7472 O   0  0  0  0  0  0  0  0  0  0  0  0
  1  5  1  0
  1  2  1  0
  2  3  1  0
  4  3  1  0
  5  4  1  0
  5  6  1  1
  7  6  2  0
  8  9  1  0
  9 10  1  0
 11 10  1  0
 12 11  1  1
 12 13  1  0
 13  6  1  0
 14 12  1  0
 14 15  2  0
 17 16  1  0
 17 19  1  0
 18 17  2  0
 20 19  1  1
 20 21  1  0
 21 14  1  0
 22 20  1  0
 23 22  1  0
 24 22  2  0
M  END
$$$$
