PMN.pdb
     RDKit          3D

 24 24  0  0  1  0  0  0  0  0999 V2000
    7.2210  -14.8281   19.5337 N   0  0  0  0  0  0  0  0  0  0  0  0
    6.5067  -13.5813   19.3921 C   0  0  0  0  0  0  0  0  0  0  0  0
    7.5193  -12.4630   19.3549 C   0  0  0  0  0  0  0  0  0  0  0  0
    8.8543  -13.1553   19.1360 C   0  0  0  0  0  0  0  0  0  0  0  0
    8.6042  -14.5340   19.7088 C   0  0  1  0  0  0  0  0  0  0  0  0
    9.0084  -14.5312   21.1459 C   0  0  0  0  0  0  0  0  0  0  0  0
   10.2230  -14.6687   21.3904 O   0  0  0  0  0  0  0  0  0  0  0  0
    6.9994  -11.6348   28.2081 C   0  0  0  0  0  0  0  0  0  0  0  0
    6.4388  -12.1484   26.5810 S   0  0  0  0  0  0  0  0  0  0  0  0
    7.6892  -13.2601   25.8033 C   0  0  0  0  0  0  0  0  0  0  0  0
    7.2732  -13.4745   24.3687 C   0  0  0  0  0  0  0  0  0  0  0  0
    8.2848  -14.2968   23.5880 C   0  0  2  0  0  0  0  0  0  0  0  0
    8.0818  -14.3828   22.1916 N   0  0  0  0  0  0  0  0  0  0  0  0
    8.6699  -15.5496   24.2298 C   0  0  0  0  0  0  0  0  0  0  0  0
    7.8578  -16.5316   24.2634 O   0  0  0  0  0  0  0  0  0  0  0  0
   12.1008  -19.7893   24.3014 N   0  0  0  0  0  0  0  0  0  0  0  0
   12.3203  -18.6257   25.0710 C   0  0  0  0  0  0  0  0  0  0  0  0
   13.0079  -18.6855   26.1393 O   0  0  0  0  0  0  0  0  0  0  0  0
   11.7385  -17.3311   24.6110 C   0  0  0  0  0  0  0  0  0  0  0  0
   10.3506  -17.1304   25.2169 C   0  0  2  0  0  0  0  0  0  0  0  0
    9.9456  -15.7717   24.8520 N   0  0  0  0  0  0  0  0  0  0  0  0
   10.4562  -17.2722   26.6834 C   0  0  0  0  0  0  0  0  0  0  0  0
   10.4845  -18.5062   27.3182 O   0  0  0  0  0  0  0  0  0  0  0  0
   10.5255  -16.2509   27.4194 O   0  0  0  0  0  0  0  0  0  0  0  0
  1  5  1  0
  1  2  1  0
  2  3  1  0
  4  3  1  0
  5  4  1  0
  5  6  1  1
  7  6  2  0
  8  9  1  0
  9 10  1  0
 11 10  1  0
 12 11  1  1
 12 13  1  0
 13  6  1  0
 14 12  1  0
 14 15  2  0
 17 16  1  0
 17 19  1  0
 18 17  2  0
 20 19  1  6
 20 21  1  0
 21 14  1  0
 22 20  1  0
 23 22  1  0
 24 22  2  0
M  END
$$$$
