PMN.pdb
     RDKit          3D

 24 24  0  0  1  0  0  0  0  0999 V2000
    7.2595  -15.0651   19.6021 N   0  0  0  0  0  0  0  0  0  0  0  0
    6.5339  -13.8636   19.2635 C   0  0  0  0  0  0  0  0  0  0  0  0
    7.5322  -12.7438   19.1002 C   0  0  0  0  0  0  0  0  0  0  0  0
    8.8829  -13.4362   19.0232 C   0  0  0  0  0  0  0  0  0  0  0  0
    8.6320  -14.7247   19.7771 C   0  0  1  0  0  0  0  0  0  0  0  0
    8.9878  -14.5123   21.2113 C   0  0  0  0  0  0  0  0  0  0  0  0
   10.1933  -14.3331   21.4728 O   0  0  0  0  0  0  0  0  0  0  0  0
    6.6732  -11.8265   28.2401 C   0  0  0  0  0  0  0  0  0  0  0  0
    6.2807  -12.1632   26.5202 S   0  0  0  0  0  0  0  0  0  0  0  0
    7.4585  -13.4068   25.8345 C   0  0  0  0  0  0  0  0  0  0  0  0
    7.1385  -13.5726   24.3692 C   0  0  0  0  0  0  0  0  0  0  0  0
    8.1838  -14.3970   23.6367 C   0  0  2  0  0  0  0  0  0  0  0  0
    8.0269  -14.5108   22.2364 N   0  0  0  0  0  0  0  0  0  0  0  0
    8.5619  -15.6334   24.3137 C   0  0  0  0  0  0  0  0  0  0  0  0
    7.7503  -16.6152   24.3611 O   0  0  0  0  0  0  0  0  0  0  0  0
   11.2340  -19.5680   26.1885 N   0  0  0  0  0  0  0  0  0  0  0  0
   12.0044  -18.8468   25.2500 C   0  0  0  0  0  0  0  0  0  0  0  0
   13.0640  -19.3566   24.7653 O   0  0  0  0  0  0  0  0  0  0  0  0
   11.5555  -17.4856   24.8357 C   0  0  0  0  0  0  0  0  0  0  0  0
   10.1908  -17.1706   25.4458 C   0  0  2  0  0  0  0  0  0  0  0  0
    9.8299  -15.8387   24.9570 N   0  0  0  0  0  0  0  0  0  0  0  0
   10.3249  -17.1730   26.9167 C   0  0  0  0  0  0  0  0  0  0  0  0
   10.3641  -18.3414   27.6652 O   0  0  0  0  0  0  0  0  0  0  0  0
   10.4100  -16.0869   27.5511 O   0  0  0  0  0  0  0  0  0  0  0  0
  1  5  1  0
  1  2  1  0
  2  3  1  0
  4  3  1  0
  5  4  1  0
  5  6  1  1
  7  6  2  0
  8  9  1  0
  9 10  1  0
 11 10  1  0
 12 11  1  1
 12 13  1  0
 13  6  1  0
 14 12  1  0
 14 15  2  0
 17 16  1  0
 17 19  1  0
 18 17  2  0
 20 19  1  6
 20 21  1  0
 21 14  1  0
 22 20  1  0
 23 22  1  0
 24 22  2  0
M  END
$$$$
