PMN.pdb
     RDKit          3D

 24 24  0  0  1  0  0  0  0  0999 V2000
    7.5003  -16.8416   20.4927 N   0  0  0  0  0  0  0  0  0  0  0  0
    6.5477  -15.9356   19.8956 C   0  0  0  0  0  0  0  0  0  0  0  0
    7.3154  -14.8136   19.2406 C   0  0  0  0  0  0  0  0  0  0  0  0
    8.7538  -15.3021   19.1955 C   0  0  0  0  0  0  0  0  0  0  0  0
    8.8022  -16.2802   20.3498 C   0  0  1  0  0  0  0  0  0  0  0  0
    9.2442  -15.5483   21.5736 C   0  0  0  0  0  0  0  0  0  0  0  0
   10.4139  -15.1176   21.5815 O   0  0  0  0  0  0  0  0  0  0  0  0
    5.9084  -12.4792   27.8583 C   0  0  0  0  0  0  0  0  0  0  0  0
    6.3818  -12.0649   26.1760 S   0  0  0  0  0  0  0  0  0  0  0  0
    7.8550  -13.0545   25.6718 C   0  0  0  0  0  0  0  0  0  0  0  0
    7.4857  -13.8081   24.4178 C   0  0  0  0  0  0  0  0  0  0  0  0
    8.6322  -14.6547   23.8908 C   0  0  2  0  0  0  0  0  0  0  0  0
    8.4000  -15.3427   22.6778 N   0  0  0  0  0  0  0  0  0  0  0  0
    9.3301  -15.4301   24.9114 C   0  0  0  0  0  0  0  0  0  0  0  0
    8.7759  -16.4521   25.4340 O   0  0  0  0  0  0  0  0  0  0  0  0
   11.5809  -15.6288   29.6952 N   0  0  0  0  0  0  0  0  0  0  0  0
   10.5316  -16.2106   28.9503 C   0  0  0  0  0  0  0  0  0  0  0  0
    9.9608  -17.2679   29.3672 O   0  0  0  0  0  0  0  0  0  0  0  0
   10.1034  -15.5660   27.6747 C   0  0  0  0  0  0  0  0  0  0  0  0
   11.1598  -15.7822   26.5926 C   0  0  2  0  0  0  0  0  0  0  0  0
   10.6474  -15.1184   25.3925 N   0  0  0  0  0  0  0  0  0  0  0  0
   11.3081  -17.2345   26.3680 C   0  0  0  0  0  0  0  0  0  0  0  0
   12.5039  -17.9080   26.5756 O   0  0  0  0  0  0  0  0  0  0  0  0
   10.3284  -17.9218   25.9715 O   0  0  0  0  0  0  0  0  0  0  0  0
  1  5  1  0
  1  2  1  0
  2  3  1  0
  4  3  1  0
  5  4  1  0
  5  6  1  1
  7  6  2  0
  8  9  1  0
  9 10  1  0
 11 10  1  0
 12 11  1  1
 12 13  1  0
 13  6  1  0
 14 12  1  0
 14 15  2  0
 17 16  1  0
 17 19  1  0
 18 17  2  0
 20 19  1  1
 20 21  1  0
 21 14  1  0
 22 20  1  0
 23 22  1  0
 24 22  2  0
M  END
$$$$
