PMN.pdb
     RDKit          3D

 24 24  0  0  1  0  0  0  0  0999 V2000
    7.4849  -15.2784   19.6593 N   0  0  0  0  0  0  0  0  0  0  0  0
    6.4969  -14.2518   19.4255 C   0  0  0  0  0  0  0  0  0  0  0  0
    7.2127  -12.9273   19.3235 C   0  0  0  0  0  0  0  0  0  0  0  0
    8.6801  -13.2902   19.1670 C   0  0  0  0  0  0  0  0  0  0  0  0
    8.7521  -14.6494   19.8294 C   0  0  1  0  0  0  0  0  0  0  0  0
    9.1048  -14.4584   21.2673 C   0  0  0  0  0  0  0  0  0  0  0  0
   10.2995  -14.2162   21.5277 O   0  0  0  0  0  0  0  0  0  0  0  0
    6.7879  -11.9949   28.3468 C   0  0  0  0  0  0  0  0  0  0  0  0
    6.3969  -12.3100   26.6224 S   0  0  0  0  0  0  0  0  0  0  0  0
    7.5734  -13.5472   25.9231 C   0  0  0  0  0  0  0  0  0  0  0  0
    7.2316  -13.7213   24.4637 C   0  0  0  0  0  0  0  0  0  0  0  0
    8.3130  -14.4667   23.6995 C   0  0  2  0  0  0  0  0  0  0  0  0
    8.1526  -14.5434   22.2970 N   0  0  0  0  0  0  0  0  0  0  0  0
    8.7590  -15.7030   24.3341 C   0  0  0  0  0  0  0  0  0  0  0  0
    8.0035  -16.7297   24.3446 O   0  0  0  0  0  0  0  0  0  0  0  0
   12.7231  -19.6134   24.9314 N   0  0  0  0  0  0  0  0  0  0  0  0
   12.2648  -18.3952   24.3834 C   0  0  0  0  0  0  0  0  0  0  0  0
   12.1299  -18.2704   23.1249 O   0  0  0  0  0  0  0  0  0  0  0  0
   11.9396  -17.2640   25.3003 C   0  0  0  0  0  0  0  0  0  0  0  0
   10.4288  -17.1662   25.5039 C   0  0  2  0  0  0  0  0  0  0  0  0
   10.0356  -15.8594   24.9740 N   0  0  0  0  0  0  0  0  0  0  0  0
   10.1458  -17.2542   26.9510 C   0  0  0  0  0  0  0  0  0  0  0  0
    9.5847  -16.2086   27.6712 O   0  0  0  0  0  0  0  0  0  0  0  0
   10.4122  -18.3078   27.5900 O   0  0  0  0  0  0  0  0  0  0  0  0
  1  5  1  0
  1  2  1  0
  2  3  1  0
  4  3  1  0
  5  4  1  0
  5  6  1  1
  7  6  2  0
  8  9  1  0
  9 10  1  0
 11 10  1  0
 12 11  1  1
 12 13  1  0
 13  6  1  0
 14 12  1  0
 14 15  2  0
 17 16  1  0
 17 19  1  0
 18 17  2  0
 20 19  1  1
 20 21  1  0
 21 14  1  0
 22 20  1  0
 23 22  1  0
 24 22  2  0
M  END
$$$$
