PMN.pdb
     RDKit          3D

 24 24  0  0  1  0  0  0  0  0999 V2000
    7.9396  -15.2634   20.2951 N   0  0  0  0  0  0  0  0  0  0  0  0
    6.6515  -14.6372   20.1127 C   0  0  0  0  0  0  0  0  0  0  0  0
    6.8612  -13.1442   20.0489 C   0  0  0  0  0  0  0  0  0  0  0  0
    8.3589  -12.9704   19.8586 C   0  0  0  0  0  0  0  0  0  0  0  0
    8.9144  -14.2389   20.4701 C   0  0  1  0  0  0  0  0  0  0  0  0
    9.2160  -13.9794   21.9089 C   0  0  0  0  0  0  0  0  0  0  0  0
    9.6769  -12.8571   22.1951 O   0  0  0  0  0  0  0  0  0  0  0  0
    6.1961  -12.2628   27.4218 C   0  0  0  0  0  0  0  0  0  0  0  0
    6.9479  -11.7554   25.8716 S   0  0  0  0  0  0  0  0  0  0  0  0
    7.3074  -13.2345   24.8292 C   0  0  0  0  0  0  0  0  0  0  0  0
    8.7814  -13.5307   24.9578 C   0  0  0  0  0  0  0  0  0  0  0  0
    9.1663  -14.8517   24.3129 C   0  0  2  0  0  0  0  0  0  0  0  0
    8.9999  -14.9394   22.9118 N   0  0  0  0  0  0  0  0  0  0  0  0
    8.7414  -16.0338   25.0559 C   0  0  0  0  0  0  0  0  0  0  0  0
    8.2134  -15.9131   26.2098 O   0  0  0  0  0  0  0  0  0  0  0  0
   11.9270  -19.6865   23.6066 N   0  0  0  0  0  0  0  0  0  0  0  0
   12.1609  -18.2956   23.5362 C   0  0  0  0  0  0  0  0  0  0  0  0
   13.1374  -17.8446   22.8575 O   0  0  0  0  0  0  0  0  0  0  0  0
   11.2463  -17.3684   24.2641 C   0  0  0  0  0  0  0  0  0  0  0  0
   10.0841  -18.1465   24.8784 C   0  0  2  0  0  0  0  0  0  0  0  0
    8.8773  -17.3781   24.5680 N   0  0  0  0  0  0  0  0  0  0  0  0
   10.2957  -18.2271   26.3380 C   0  0  0  0  0  0  0  0  0  0  0  0
   10.5599  -17.1120   27.1211 O   0  0  0  0  0  0  0  0  0  0  0  0
   10.2410  -19.3390   26.9298 O   0  0  0  0  0  0  0  0  0  0  0  0
  1  5  1  0
  1  2  1  0
  2  3  1  0
  4  3  1  0
  5  4  1  0
  5  6  1  1
  7  6  2  0
  8  9  1  0
  9 10  1  0
 11 10  1  0
 12 11  1  1
 12 13  1  0
 13  6  1  0
 14 12  1  0
 14 15  2  0
 17 16  1  0
 17 19  1  0
 18 17  2  0
 20 19  1  6
 20 21  1  0
 21 14  1  0
 22 20  1  0
 23 22  1  0
 24 22  2  0
M  END
$$$$
