PMN.pdb
     RDKit          3D

 24 24  0  0  1  0  0  0  0  0999 V2000
    7.2179  -15.2364   19.8546 N   0  0  0  0  0  0  0  0  0  0  0  0
    6.3694  -14.0963   19.5995 C   0  0  0  0  0  0  0  0  0  0  0  0
    7.2482  -12.8753   19.4817 C   0  0  0  0  0  0  0  0  0  0  0  0
    8.6582  -13.4242   19.3391 C   0  0  0  0  0  0  0  0  0  0  0  0
    8.5542  -14.7709   20.0224 C   0  0  1  0  0  0  0  0  0  0  0  0
    8.9228  -14.6037   21.4593 C   0  0  0  0  0  0  0  0  0  0  0  0
   10.1036  -14.2893   21.7058 O   0  0  0  0  0  0  0  0  0  0  0  0
    7.1827  -11.6047   28.1462 C   0  0  0  0  0  0  0  0  0  0  0  0
    6.7358  -12.0515   26.4650 S   0  0  0  0  0  0  0  0  0  0  0  0
    7.2876  -13.7738   26.1005 C   0  0  0  0  0  0  0  0  0  0  0  0
    6.9701  -14.0532   24.6520 C   0  0  0  0  0  0  0  0  0  0  0  0
    8.1562  -14.6326   23.8994 C   0  0  2  0  0  0  0  0  0  0  0  0
    8.0001  -14.7873   22.5029 N   0  0  0  0  0  0  0  0  0  0  0  0
    8.8104  -15.7512   24.5707 C   0  0  0  0  0  0  0  0  0  0  0  0
    8.2020  -16.8626   24.7106 O   0  0  0  0  0  0  0  0  0  0  0  0
   13.6619  -15.4748   24.0243 N   0  0  0  0  0  0  0  0  0  0  0  0
   12.7591  -16.5176   24.3277 C   0  0  0  0  0  0  0  0  0  0  0  0
   12.3961  -17.3333   23.4219 O   0  0  0  0  0  0  0  0  0  0  0  0
   12.2437  -16.6484   25.7217 C   0  0  0  0  0  0  0  0  0  0  0  0
   10.7356  -16.8916   25.7070 C   0  0  2  0  0  0  0  0  0  0  0  0
   10.1414  -15.6951   25.1083 N   0  0  0  0  0  0  0  0  0  0  0  0
   10.2770  -17.0661   27.1002 C   0  0  0  0  0  0  0  0  0  0  0  0
   10.3752  -18.2739   27.7771 O   0  0  0  0  0  0  0  0  0  0  0  0
    9.7706  -16.0990   27.7307 O   0  0  0  0  0  0  0  0  0  0  0  0
  1  5  1  0
  1  2  1  0
  2  3  1  0
  4  3  1  0
  5  4  1  0
  5  6  1  1
  7  6  2  0
  8  9  1  0
  9 10  1  0
 11 10  1  0
 12 11  1  1
 12 13  1  0
 13  6  1  0
 14 12  1  0
 14 15  2  0
 17 16  1  0
 17 19  1  0
 18 17  2  0
 20 19  1  1
 20 21  1  0
 21 14  1  0
 22 20  1  0
 23 22  1  0
 24 22  2  0
M  END
$$$$
