NYK.pdb
     RDKit          3D

 30 30  0  0  1  0  0  0  0  0999 V2000
    9.0497  -20.3734   17.4821 N   0  0  0  0  0  0  0  0  0  0  0  0
    8.2134  -19.3733   18.0400 C   0  0  0  0  0  0  0  0  0  0  0  0
    7.0829  -19.1818   17.5315 O   0  0  0  0  0  0  0  0  0  0  0  0
    8.6988  -18.5947   19.1939 C   0  0  0  0  0  0  0  0  0  0  0  0
    8.4230  -17.1118   18.9429 C   0  0  2  0  0  0  0  0  0  0  0  0
    9.2217  -16.6657   17.8061 N   0  0  0  0  0  0  0  0  0  0  0  0
    8.7861  -16.3569   20.1753 C   0  0  0  0  0  0  0  0  0  0  0  0
    9.9875  -16.1502   20.4059 O   0  0  0  0  0  0  0  0  0  0  0  0
    7.4781  -12.0111   27.9153 O   0  0  0  0  0  0  0  0  0  0  0  0
    7.3083  -12.6514   26.6959 C   0  0  0  0  0  0  0  0  0  0  0  0
    7.7863  -12.0642   25.5432 C   0  0  0  0  0  0  0  0  0  0  0  0
    7.6399  -12.6638   24.3140 C   0  0  0  0  0  0  0  0  0  0  0  0
    6.9985  -13.9004   24.1678 C   0  0  0  0  0  0  0  0  0  0  0  0
    6.8293  -14.5276   22.8413 C   0  0  0  0  0  0  0  0  0  0  0  0
    8.1044  -15.1793   22.3142 C   0  0  2  0  0  0  0  0  0  0  0  0
    7.8193  -15.8807   21.0664 N   0  0  0  0  0  0  0  0  0  0  0  0
    8.5696  -16.1555   23.3100 C   0  0  0  0  0  0  0  0  0  0  0  0
    7.9300  -17.2384   23.5335 O   0  0  0  0  0  0  0  0  0  0  0  0
    6.5333  -14.4548   25.3506 C   0  0  0  0  0  0  0  0  0  0  0  0
    6.6727  -13.8682   26.5833 C   0  0  0  0  0  0  0  0  0  0  0  0
    9.7433  -15.9915   24.0951 N   0  0  0  0  0  0  0  0  0  0  0  0
   10.2268  -17.0425   25.0169 C   0  0  1  0  0  0  0  0  0  0  0  0
   11.7015  -17.2445   24.8352 C   0  0  0  0  0  0  0  0  0  0  0  0
   12.3604  -18.2196   25.7199 C   0  0  0  0  0  0  0  0  0  0  0  0
   13.8329  -18.3986   25.4882 C   0  0  0  0  0  0  0  0  0  0  0  0
   14.4321  -19.4535   26.3895 C   0  0  0  0  0  0  0  0  0  0  0  0
   15.8283  -19.6935   26.1039 N   0  0  0  0  0  0  0  0  0  0  0  0
    9.9875  -16.6116   26.4213 C   0  0  0  0  0  0  0  0  0  0  0  0
    9.9127  -15.4160   26.7864 O   0  0  0  0  0  0  0  0  0  0  0  0
    9.8330  -17.5763   27.4117 O   0  0  0  0  0  0  0  0  0  0  0  0
  2  3  2  0
  2  1  1  0
  4  5  1  0
  4  2  1  0
  5  7  1  0
  5  6  1  6
  7  8  2  0
  9 10  1  0
 10 11  2  0
 11 12  1  0
 13 14  1  0
 13 12  2  0
 15 14  1  1
 15 17  1  0
 16 15  1  0
 16  7  1  0
 17 18  2  0
 19 13  1  0
 20 19  2  0
 20 10  1  0
 21 17  1  0
 21 22  1  0
 22 28  1  0
 22 23  1  1
 24 23  1  0
 25 24  1  0
 26 25  1  0
 26 27  1  0
 28 29  2  0
 28 30  1  0
M  END
$$$$
