NYK.pdb
     RDKit          3D

 30 30  0  0  1  0  0  0  0  0999 V2000
    8.5452  -17.2359   15.2806 N   0  0  0  0  0  0  0  0  0  0  0  0
    9.3424  -17.8983   16.2483 C   0  0  0  0  0  0  0  0  0  0  0  0
    9.6323  -19.1049   16.0655 O   0  0  0  0  0  0  0  0  0  0  0  0
    9.8014  -17.1501   17.4327 C   0  0  0  0  0  0  0  0  0  0  0  0
    9.8176  -18.0909   18.6381 C   0  0  2  0  0  0  0  0  0  0  0  0
    8.4993  -18.6991   18.7839 N   0  0  0  0  0  0  0  0  0  0  0  0
   10.1698  -17.2922   19.8458 C   0  0  0  0  0  0  0  0  0  0  0  0
   11.2073  -16.6124   19.8194 O   0  0  0  0  0  0  0  0  0  0  0  0
    6.6128  -11.7177   19.2334 O   0  0  0  0  0  0  0  0  0  0  0  0
    7.0191  -12.7449   20.0734 C   0  0  0  0  0  0  0  0  0  0  0  0
    8.1035  -12.5593   20.9050 C   0  0  0  0  0  0  0  0  0  0  0  0
    8.5399  -13.5501   21.7534 C   0  0  0  0  0  0  0  0  0  0  0  0
    7.9074  -14.7982   21.8175 C   0  0  0  0  0  0  0  0  0  0  0  0
    8.3947  -15.8626   22.7181 C   0  0  0  0  0  0  0  0  0  0  0  0
    9.6629  -16.5460   22.2149 C   0  0  2  0  0  0  0  0  0  0  0  0
    9.3702  -17.2887   20.9930 N   0  0  0  0  0  0  0  0  0  0  0  0
   10.1181  -17.4907   23.2450 C   0  0  0  0  0  0  0  0  0  0  0  0
    9.4455  -18.5369   23.5363 O   0  0  0  0  0  0  0  0  0  0  0  0
    6.8230  -14.9423   20.9654 C   0  0  0  0  0  0  0  0  0  0  0  0
    6.3766  -13.9626   20.1145 C   0  0  0  0  0  0  0  0  0  0  0  0
   11.3172  -17.3340   23.9924 N   0  0  0  0  0  0  0  0  0  0  0  0
   11.7762  -18.3488   24.9658 C   0  0  1  0  0  0  0  0  0  0  0  0
   13.2743  -18.4130   24.9711 C   0  0  0  0  0  0  0  0  0  0  0  0
   13.8908  -19.7397   24.8059 C   0  0  0  0  0  0  0  0  0  0  0  0
   15.3919  -19.7469   24.7765 C   0  0  0  0  0  0  0  0  0  0  0  0
   15.9562  -21.1366   24.5907 C   0  0  0  0  0  0  0  0  0  0  0  0
   17.3826  -21.1254   24.3590 N   0  0  0  0  0  0  0  0  0  0  0  0
   11.3241  -17.9604   26.3297 C   0  0  0  0  0  0  0  0  0  0  0  0
   10.7811  -16.8660   26.6049 O   0  0  0  0  0  0  0  0  0  0  0  0
   11.5028  -18.8499   27.3844 O   0  0  0  0  0  0  0  0  0  0  0  0
  2  3  2  0
  2  1  1  0
  4  5  1  0
  4  2  1  0
  5  7  1  0
  5  6  1  1
  7  8  2  0
  9 10  1  0
 10 11  2  0
 11 12  1  0
 13 14  1  0
 13 12  2  0
 15 14  1  1
 15 17  1  0
 16 15  1  0
 16  7  1  0
 17 18  2  0
 19 13  1  0
 20 19  2  0
 20 10  1  0
 21 17  1  0
 21 22  1  0
 22 28  1  0
 22 23  1  1
 24 23  1  0
 25 24  1  0
 26 25  1  0
 26 27  1  0
 28 29  2  0
 28 30  1  0
M  END
$$$$
