NYK.pdb
     RDKit          3D

 30 30  0  0  1  0  0  0  0  0999 V2000
    9.4350  -17.1246   16.4207 N   0  0  0  0  0  0  0  0  0  0  0  0
   10.3966  -17.3374   17.4408 C   0  0  0  0  0  0  0  0  0  0  0  0
   11.2276  -18.2664   17.3003 O   0  0  0  0  0  0  0  0  0  0  0  0
   10.3874  -16.4635   18.6281 C   0  0  0  0  0  0  0  0  0  0  0  0
   10.2234  -17.3278   19.8788 C   0  0  2  0  0  0  0  0  0  0  0  0
    8.9953  -18.1068   19.7603 N   0  0  0  0  0  0  0  0  0  0  0  0
   10.1667  -16.4250   21.0630 C   0  0  0  0  0  0  0  0  0  0  0  0
   11.2238  -15.9146   21.4646 O   0  0  0  0  0  0  0  0  0  0  0  0
    6.6204  -11.6818   27.7774 O   0  0  0  0  0  0  0  0  0  0  0  0
    6.8125  -12.4497   26.6375 C   0  0  0  0  0  0  0  0  0  0  0  0
    7.5564  -11.9458   25.5913 C   0  0  0  0  0  0  0  0  0  0  0  0
    7.7718  -12.6727   24.4436 C   0  0  0  0  0  0  0  0  0  0  0  0
    7.2480  -13.9609   24.2766 C   0  0  0  0  0  0  0  0  0  0  0  0
    7.4689  -14.7264   23.0329 C   0  0  0  0  0  0  0  0  0  0  0  0
    8.8532  -15.3635   22.9535 C   0  0  2  0  0  0  0  0  0  0  0  0
    8.9675  -16.1413   21.7238 N   0  0  0  0  0  0  0  0  0  0  0  0
    9.0118  -16.2679   24.1016 C   0  0  0  0  0  0  0  0  0  0  0  0
    8.2444  -17.2752   24.2696 O   0  0  0  0  0  0  0  0  0  0  0  0
    6.5069  -14.4285   25.3514 C   0  0  0  0  0  0  0  0  0  0  0  0
    6.2844  -13.7147   26.5021 C   0  0  0  0  0  0  0  0  0  0  0  0
   10.0072  -16.1116   25.1043 N   0  0  0  0  0  0  0  0  0  0  0  0
   10.1718  -17.0825   26.2080 C   0  0  1  0  0  0  0  0  0  0  0  0
   11.5845  -17.5843   26.2426 C   0  0  0  0  0  0  0  0  0  0  0  0
   11.9075  -18.7421   25.3924 C   0  0  0  0  0  0  0  0  0  0  0  0
   13.0490  -18.5355   24.4394 C   0  0  0  0  0  0  0  0  0  0  0  0
   13.2172  -19.6949   23.4846 C   0  0  0  0  0  0  0  0  0  0  0  0
   14.2808  -19.4736   22.5315 N   0  0  0  0  0  0  0  0  0  0  0  0
    9.8884  -16.4060   27.5031 C   0  0  0  0  0  0  0  0  0  0  0  0
    9.6504  -15.1821   27.6193 O   0  0  0  0  0  0  0  0  0  0  0  0
    9.8803  -17.1562   28.6748 O   0  0  0  0  0  0  0  0  0  0  0  0
  2  3  2  0
  2  1  1  0
  4  5  1  0
  4  2  1  0
  5  7  1  0
  5  6  1  6
  7  8  2  0
  9 10  1  0
 10 11  2  0
 11 12  1  0
 13 14  1  0
 13 12  2  0
 15 14  1  1
 15 17  1  0
 16 15  1  0
 16  7  1  0
 17 18  2  0
 19 13  1  0
 20 19  2  0
 20 10  1  0
 21 17  1  0
 21 22  1  0
 22 28  1  0
 22 23  1  1
 24 23  1  0
 25 24  1  0
 26 25  1  0
 26 27  1  0
 28 29  2  0
 28 30  1  0
M  END
$$$$
