NYK.pdb
     RDKit          3D

 30 30  0  0  1  0  0  0  0  0999 V2000
    9.6453  -16.3367   16.5029 N   0  0  0  0  0  0  0  0  0  0  0  0
   10.2317  -17.2582   17.4071 C   0  0  0  0  0  0  0  0  0  0  0  0
   10.3356  -18.4590   17.0597 O   0  0  0  0  0  0  0  0  0  0  0  0
   10.6972  -16.7765   18.7204 C   0  0  0  0  0  0  0  0  0  0  0  0
    9.8396  -17.4133   19.8146 C   0  0  2  0  0  0  0  0  0  0  0  0
    8.4786  -17.5794   19.3154 N   0  0  0  0  0  0  0  0  0  0  0  0
    9.8626  -16.5156   21.0039 C   0  0  0  0  0  0  0  0  0  0  0  0
   10.9637  -16.1910   21.4745 O   0  0  0  0  0  0  0  0  0  0  0  0
    6.6232  -11.7181   27.8530 O   0  0  0  0  0  0  0  0  0  0  0  0
    6.7695  -12.4527   26.6847 C   0  0  0  0  0  0  0  0  0  0  0  0
    7.3803  -11.8796   25.5890 C   0  0  0  0  0  0  0  0  0  0  0  0
    7.5462  -12.5714   24.4118 C   0  0  0  0  0  0  0  0  0  0  0  0
    7.1044  -13.8922   24.2634 C   0  0  0  0  0  0  0  0  0  0  0  0
    7.2702  -14.6207   22.9892 C   0  0  0  0  0  0  0  0  0  0  0  0
    8.6260  -15.3084   22.8585 C   0  0  2  0  0  0  0  0  0  0  0  0
    8.6896  -16.0352   21.5944 N   0  0  0  0  0  0  0  0  0  0  0  0
    8.7655  -16.2680   23.9634 C   0  0  0  0  0  0  0  0  0  0  0  0
    8.1291  -17.3756   23.9707 O   0  0  0  0  0  0  0  0  0  0  0  0
    6.4963  -14.4293   25.3880 C   0  0  0  0  0  0  0  0  0  0  0  0
    6.3245  -13.7511   26.5685 C   0  0  0  0  0  0  0  0  0  0  0  0
    9.5996  -16.0601   25.0956 N   0  0  0  0  0  0  0  0  0  0  0  0
   10.0058  -17.1677   25.9879 C   0  0  1  0  0  0  0  0  0  0  0  0
   11.1418  -17.9300   25.3738 C   0  0  0  0  0  0  0  0  0  0  0  0
   10.9213  -19.3596   25.0994 C   0  0  0  0  0  0  0  0  0  0  0  0
   12.1229  -20.1056   24.5957 C   0  0  0  0  0  0  0  0  0  0  0  0
   11.8692  -21.5909   24.4783 C   0  0  0  0  0  0  0  0  0  0  0  0
   13.0320  -22.3132   24.0149 N   0  0  0  0  0  0  0  0  0  0  0  0
   10.4718  -16.6069   27.2854 C   0  0  0  0  0  0  0  0  0  0  0  0
   10.9087  -17.2986   28.2336 O   0  0  0  0  0  0  0  0  0  0  0  0
   10.4314  -15.2306   27.4853 O   0  0  0  0  0  0  0  0  0  0  0  0
  2  3  2  0
  2  1  1  0
  4  5  1  0
  4  2  1  0
  5  7  1  0
  5  6  1  6
  7  8  2  0
  9 10  1  0
 10 11  2  0
 11 12  1  0
 13 14  1  0
 13 12  2  0
 15 14  1  1
 15 17  1  0
 16 15  1  0
 16  7  1  0
 17 18  2  0
 19 13  1  0
 20 19  2  0
 20 10  1  0
 21 17  1  0
 21 22  1  0
 22 28  1  0
 22 23  1  6
 24 23  1  0
 25 24  1  0
 26 25  1  0
 26 27  1  0
 28 29  2  0
 28 30  1  0
M  END
$$$$
