NYK.pdb
     RDKit          3D

 30 30  0  0  1  0  0  0  0  0999 V2000
    6.3035  -15.4646   18.0787 N   0  0  0  0  0  0  0  0  0  0  0  0
    6.7944  -16.6331   18.7146 C   0  0  0  0  0  0  0  0  0  0  0  0
    6.5619  -17.7476   18.1882 O   0  0  0  0  0  0  0  0  0  0  0  0
    7.5579  -16.4997   19.9686 C   0  0  0  0  0  0  0  0  0  0  0  0
    7.6544  -15.0183   20.3353 C   0  0  2  0  0  0  0  0  0  0  0  0
    8.1945  -14.2813   19.1977 N   0  0  0  0  0  0  0  0  0  0  0  0
    8.5467  -14.8908   21.5220 C   0  0  0  0  0  0  0  0  0  0  0  0
    9.7712  -14.9942   21.3509 O   0  0  0  0  0  0  0  0  0  0  0  0
   10.5545  -14.8527   30.2722 O   0  0  0  0  0  0  0  0  0  0  0  0
    9.9179  -14.7568   29.0428 C   0  0  0  0  0  0  0  0  0  0  0  0
    9.9256  -13.5581   28.3609 C   0  0  0  0  0  0  0  0  0  0  0  0
    9.3075  -13.4188   27.1400 C   0  0  0  0  0  0  0  0  0  0  0  0
    8.6384  -14.4850   26.5257 C   0  0  0  0  0  0  0  0  0  0  0  0
    7.9615  -14.3208   25.2232 C   0  0  0  0  0  0  0  0  0  0  0  0
    8.8300  -14.7256   24.0357 C   0  0  2  0  0  0  0  0  0  0  0  0
    8.0454  -14.6596   22.8067 N   0  0  0  0  0  0  0  0  0  0  0  0
    9.2737  -16.1121   24.2396 C   0  0  0  0  0  0  0  0  0  0  0  0
    8.4768  -17.0984   24.0848 O   0  0  0  0  0  0  0  0  0  0  0  0
    8.6547  -15.6704   27.2449 C   0  0  0  0  0  0  0  0  0  0  0  0
    9.2675  -15.8237   28.4632 C   0  0  0  0  0  0  0  0  0  0  0  0
   10.5952  -16.4759   24.6166 N   0  0  0  0  0  0  0  0  0  0  0  0
   10.9940  -17.8847   24.8269 C   0  0  1  0  0  0  0  0  0  0  0  0
   11.8753  -18.3410   23.7027 C   0  0  0  0  0  0  0  0  0  0  0  0
   12.3746  -19.7249   23.7593 C   0  0  0  0  0  0  0  0  0  0  0  0
   13.2011  -20.1539   22.5816 C   0  0  0  0  0  0  0  0  0  0  0  0
   13.6264  -21.6011   22.6750 C   0  0  0  0  0  0  0  0  0  0  0  0
   14.3252  -22.0473   21.4913 N   0  0  0  0  0  0  0  0  0  0  0  0
   11.7667  -17.9921   26.0945 C   0  0  0  0  0  0  0  0  0  0  0  0
   12.0909  -19.0767   26.6301 O   0  0  0  0  0  0  0  0  0  0  0  0
   12.1679  -16.8306   26.7469 O   0  0  0  0  0  0  0  0  0  0  0  0
  2  3  2  0
  2  1  1  0
  4  5  1  0
  4  2  1  0
  5  7  1  0
  5  6  1  6
  7  8  2  0
  9 10  1  0
 10 11  2  0
 11 12  1  0
 13 14  1  0
 13 12  2  0
 15 14  1  1
 15 17  1  0
 16 15  1  0
 16  7  1  0
 17 18  2  0
 19 13  1  0
 20 19  2  0
 20 10  1  0
 21 17  1  0
 21 22  1  0
 22 28  1  0
 22 23  1  6
 24 23  1  0
 25 24  1  0
 26 25  1  0
 26 27  1  0
 28 29  2  0
 28 30  1  0
M  END
$$$$
