NYK.pdb
     RDKit          3D

 30 30  0  0  1  0  0  0  0  0999 V2000
   12.3813  -19.0857   18.1913 N   0  0  0  0  0  0  0  0  0  0  0  0
   11.4864  -17.9950   18.0493 C   0  0  0  0  0  0  0  0  0  0  0  0
   10.8287  -17.8906   16.9864 O   0  0  0  0  0  0  0  0  0  0  0  0
   11.3598  -17.0236   19.1510 C   0  0  0  0  0  0  0  0  0  0  0  0
   10.2205  -17.4632   20.0713 C   0  0  2  0  0  0  0  0  0  0  0  0
    8.9680  -17.4360   19.3232 N   0  0  0  0  0  0  0  0  0  0  0  0
   10.1686  -16.5240   21.2271 C   0  0  0  0  0  0  0  0  0  0  0  0
   11.2385  -16.0881   21.6793 O   0  0  0  0  0  0  0  0  0  0  0  0
    6.6800  -11.2541   27.5513 O   0  0  0  0  0  0  0  0  0  0  0  0
    6.8394  -12.1389   26.4942 C   0  0  0  0  0  0  0  0  0  0  0  0
    7.6930  -11.8204   25.4589 C   0  0  0  0  0  0  0  0  0  0  0  0
    7.8809  -12.6681   24.3921 C   0  0  0  0  0  0  0  0  0  0  0  0
    7.2163  -13.8976   24.3005 C   0  0  0  0  0  0  0  0  0  0  0  0
    7.4101  -14.7928   23.1418 C   0  0  0  0  0  0  0  0  0  0  0  0
    8.8377  -15.3165   23.0152 C   0  0  2  0  0  0  0  0  0  0  0  0
    8.9599  -16.1259   21.8068 N   0  0  0  0  0  0  0  0  0  0  0  0
    9.1242  -16.1631   24.1824 C   0  0  0  0  0  0  0  0  0  0  0  0
    8.4457  -17.2178   24.4255 O   0  0  0  0  0  0  0  0  0  0  0  0
    6.3684  -14.1780   25.3613 C   0  0  0  0  0  0  0  0  0  0  0  0
    6.1717  -13.3422   26.4318 C   0  0  0  0  0  0  0  0  0  0  0  0
   10.1555  -15.8958   25.1235 N   0  0  0  0  0  0  0  0  0  0  0  0
   10.4721  -16.8257   26.2294 C   0  0  1  0  0  0  0  0  0  0  0  0
   11.9120  -17.2380   26.1558 C   0  0  0  0  0  0  0  0  0  0  0  0
   12.1928  -18.6385   25.7989 C   0  0  0  0  0  0  0  0  0  0  0  0
   13.6462  -18.9755   25.6313 C   0  0  0  0  0  0  0  0  0  0  0  0
   13.8596  -20.4197   25.2405 C   0  0  0  0  0  0  0  0  0  0  0  0
   15.2551  -20.7342   25.0352 N   0  0  0  0  0  0  0  0  0  0  0  0
   10.2537  -16.1348   27.5294 C   0  0  0  0  0  0  0  0  0  0  0  0
   10.4294  -16.6700   28.6479 O   0  0  0  0  0  0  0  0  0  0  0  0
    9.8281  -14.8102   27.5326 O   0  0  0  0  0  0  0  0  0  0  0  0
  2  3  2  0
  2  1  1  0
  4  5  1  0
  4  2  1  0
  5  7  1  0
  5  6  1  6
  7  8  2  0
  9 10  1  0
 10 11  2  0
 11 12  1  0
 13 14  1  0
 13 12  2  0
 15 14  1  1
 15 17  1  0
 16 15  1  0
 16  7  1  0
 17 18  2  0
 19 13  1  0
 20 19  2  0
 20 10  1  0
 21 17  1  0
 21 22  1  0
 22 28  1  0
 22 23  1  6
 24 23  1  0
 25 24  1  0
 26 25  1  0
 26 27  1  0
 28 29  2  0
 28 30  1  0
M  END
$$$$
