NYK.pdb
     RDKit          3D

 30 30  0  0  1  0  0  0  0  0999 V2000
   11.0804  -19.6600   16.8449 N   0  0  0  0  0  0  0  0  0  0  0  0
   10.7292  -18.3166   16.5576 C   0  0  0  0  0  0  0  0  0  0  0  0
   10.8952  -17.8875   15.3907 O   0  0  0  0  0  0  0  0  0  0  0  0
   10.1836  -17.4720   17.6358 C   0  0  0  0  0  0  0  0  0  0  0  0
   10.1552  -18.2810   18.9331 C   0  0  2  0  0  0  0  0  0  0  0  0
    8.8198  -18.8401   19.1153 N   0  0  0  0  0  0  0  0  0  0  0  0
   10.5060  -17.3680   20.0574 C   0  0  0  0  0  0  0  0  0  0  0  0
   11.6715  -16.9496   20.1336 O   0  0  0  0  0  0  0  0  0  0  0  0
    7.4104  -11.6919   18.1895 O   0  0  0  0  0  0  0  0  0  0  0  0
    7.6769  -12.5654   19.2343 C   0  0  0  0  0  0  0  0  0  0  0  0
    8.9416  -12.6097   19.7826 C   0  0  0  0  0  0  0  0  0  0  0  0
    9.2492  -13.4600   20.8191 C   0  0  0  0  0  0  0  0  0  0  0  0
    8.2960  -14.3249   21.3717 C   0  0  0  0  0  0  0  0  0  0  0  0
    8.6406  -15.2480   22.4721 C   0  0  0  0  0  0  0  0  0  0  0  0
    9.8513  -16.1254   22.1678 C   0  0  2  0  0  0  0  0  0  0  0  0
    9.5665  -16.9751   21.0158 N   0  0  0  0  0  0  0  0  0  0  0  0
   10.1063  -16.9814   23.3353 C   0  0  0  0  0  0  0  0  0  0  0  0
    9.1852  -17.7018   23.8496 O   0  0  0  0  0  0  0  0  0  0  0  0
    7.0390  -14.2484   20.7912 C   0  0  0  0  0  0  0  0  0  0  0  0
    6.7182  -13.4048   19.7575 C   0  0  0  0  0  0  0  0  0  0  0  0
   11.3673  -17.0863   23.9832 N   0  0  0  0  0  0  0  0  0  0  0  0
   11.6284  -18.0879   25.0399 C   0  0  1  0  0  0  0  0  0  0  0  0
   12.5616  -19.1433   24.5262 C   0  0  0  0  0  0  0  0  0  0  0  0
   12.8382  -20.2854   25.4131 C   0  0  0  0  0  0  0  0  0  0  0  0
   13.7855  -21.3096   24.8584 C   0  0  0  0  0  0  0  0  0  0  0  0
   13.9026  -22.5254   25.7485 C   0  0  0  0  0  0  0  0  0  0  0  0
   14.7717  -23.5356   25.1895 N   0  0  0  0  0  0  0  0  0  0  0  0
   12.2783  -17.4193   26.2000 C   0  0  0  0  0  0  0  0  0  0  0  0
   13.0328  -16.4243   26.1054 O   0  0  0  0  0  0  0  0  0  0  0  0
   12.0507  -17.9089   27.4823 O   0  0  0  0  0  0  0  0  0  0  0  0
  2  3  2  0
  2  1  1  0
  4  5  1  0
  4  2  1  0
  5  7  1  0
  5  6  1  1
  7  8  2  0
  9 10  1  0
 10 11  2  0
 11 12  1  0
 13 14  1  0
 13 12  2  0
 15 14  1  1
 15 17  1  0
 16 15  1  0
 16  7  1  0
 17 18  2  0
 19 13  1  0
 20 19  2  0
 20 10  1  0
 21 17  1  0
 21 22  1  0
 22 28  1  0
 22 23  1  6
 24 23  1  0
 25 24  1  0
 26 25  1  0
 26 27  1  0
 28 29  2  0
 28 30  1  0
M  END
$$$$
