NYK.pdb
     RDKit          3D

 30 30  0  0  1  0  0  0  0  0999 V2000
    9.4087  -19.9439   21.9814 N   0  0  0  0  0  0  0  0  0  0  0  0
    8.9513  -19.3208   20.7926 C   0  0  0  0  0  0  0  0  0  0  0  0
    7.7302  -19.3821   20.5124 O   0  0  0  0  0  0  0  0  0  0  0  0
    9.9223  -18.6250   19.9287 C   0  0  0  0  0  0  0  0  0  0  0  0
    9.5342  -17.1490   19.8349 C   0  0  2  0  0  0  0  0  0  0  0  0
   10.4578  -16.4713   18.9311 N   0  0  0  0  0  0  0  0  0  0  0  0
    9.6045  -16.5625   21.2030 C   0  0  0  0  0  0  0  0  0  0  0  0
   10.7024  -16.5468   21.7804 O   0  0  0  0  0  0  0  0  0  0  0  0
    6.8076  -11.9264   28.3369 O   0  0  0  0  0  0  0  0  0  0  0  0
    6.9115  -12.5465   27.0997 C   0  0  0  0  0  0  0  0  0  0  0  0
    6.2634  -13.7436   26.8787 C   0  0  0  0  0  0  0  0  0  0  0  0
    6.3392  -14.3921   25.6680 C   0  0  0  0  0  0  0  0  0  0  0  0
    7.0775  -13.8722   24.5973 C   0  0  0  0  0  0  0  0  0  0  0  0
    7.1684  -14.5853   23.3070 C   0  0  0  0  0  0  0  0  0  0  0  0
    8.5011  -15.3002   23.1044 C   0  0  2  0  0  0  0  0  0  0  0  0
    8.4789  -16.0352   21.8437 N   0  0  0  0  0  0  0  0  0  0  0  0
    8.6844  -16.2561   24.2060 C   0  0  0  0  0  0  0  0  0  0  0  0
    7.7835  -17.1107   24.5060 O   0  0  0  0  0  0  0  0  0  0  0  0
    7.7128  -12.6685   24.8623 C   0  0  0  0  0  0  0  0  0  0  0  0
    7.6455  -12.0105   26.0647 C   0  0  0  0  0  0  0  0  0  0  0  0
    9.8496  -16.3186   25.0179 N   0  0  0  0  0  0  0  0  0  0  0  0
    9.9360  -17.1978   26.2043 C   0  0  1  0  0  0  0  0  0  0  0  0
   11.1414  -18.0836   26.0989 C   0  0  0  0  0  0  0  0  0  0  0  0
   11.2747  -18.8948   24.8776 C   0  0  0  0  0  0  0  0  0  0  0  0
   12.4932  -19.7701   24.8225 C   0  0  0  0  0  0  0  0  0  0  0  0
   12.6096  -20.5107   23.5101 C   0  0  0  0  0  0  0  0  0  0  0  0
   13.8265  -21.2851   23.4209 N   0  0  0  0  0  0  0  0  0  0  0  0
   10.0815  -16.3605   27.4262 C   0  0  0  0  0  0  0  0  0  0  0  0
   10.0269  -16.8072   28.5948 O   0  0  0  0  0  0  0  0  0  0  0  0
   10.2930  -14.9919   27.2916 O   0  0  0  0  0  0  0  0  0  0  0  0
  2  3  2  0
  2  1  1  0
  4  5  1  0
  4  2  1  0
  5  7  1  0
  5  6  1  6
  7  8  2  0
  9 10  1  0
 10 11  2  0
 11 12  1  0
 13 14  1  0
 13 12  2  0
 15 14  1  1
 15 17  1  0
 16 15  1  0
 16  7  1  0
 17 18  2  0
 19 13  1  0
 20 19  2  0
 20 10  1  0
 21 17  1  0
 21 22  1  0
 22 28  1  0
 22 23  1  6
 24 23  1  0
 25 24  1  0
 26 25  1  0
 26 27  1  0
 28 29  2  0
 28 30  1  0
M  END
$$$$
