NYK.pdb
     RDKit          3D

 30 30  0  0  1  0  0  0  0  0999 V2000
   11.9994  -17.7674   16.9672 N   0  0  0  0  0  0  0  0  0  0  0  0
   10.8571  -16.9933   17.2939 C   0  0  0  0  0  0  0  0  0  0  0  0
    9.9273  -16.9095   16.4563 O   0  0  0  0  0  0  0  0  0  0  0  0
   10.8010  -16.3148   18.6015 C   0  0  0  0  0  0  0  0  0  0  0  0
   10.0583  -17.2107   19.5935 C   0  0  2  0  0  0  0  0  0  0  0  0
    8.7027  -17.4396   19.1043 N   0  0  0  0  0  0  0  0  0  0  0  0
   10.0362  -16.5219   20.9148 C   0  0  0  0  0  0  0  0  0  0  0  0
   11.1147  -16.3356   21.4991 O   0  0  0  0  0  0  0  0  0  0  0  0
    6.8358  -11.7695   27.7776 O   0  0  0  0  0  0  0  0  0  0  0  0
    6.9624  -12.5076   26.6092 C   0  0  0  0  0  0  0  0  0  0  0  0
    7.7354  -12.0230   25.5750 C   0  0  0  0  0  0  0  0  0  0  0  0
    7.8883  -12.7216   24.4001 C   0  0  0  0  0  0  0  0  0  0  0  0
    7.2680  -13.9600   24.1917 C   0  0  0  0  0  0  0  0  0  0  0  0
    7.4229  -14.6940   22.9194 C   0  0  0  0  0  0  0  0  0  0  0  0
    8.7455  -15.4476   22.8138 C   0  0  2  0  0  0  0  0  0  0  0  0
    8.8460  -16.0849   21.5046 N   0  0  0  0  0  0  0  0  0  0  0  0
    8.7669  -16.4900   23.8501 C   0  0  0  0  0  0  0  0  0  0  0  0
    7.9987  -17.5088   23.7891 O   0  0  0  0  0  0  0  0  0  0  0  0
    6.5007  -14.4096   25.2557 C   0  0  0  0  0  0  0  0  0  0  0  0
    6.3398  -13.7236   26.4332 C   0  0  0  0  0  0  0  0  0  0  0  0
    9.6218  -16.4638   24.9856 N   0  0  0  0  0  0  0  0  0  0  0  0
    9.6247  -17.5463   25.9937 C   0  0  1  0  0  0  0  0  0  0  0  0
   10.9293  -17.5544   26.7331 C   0  0  0  0  0  0  0  0  0  0  0  0
   11.0917  -18.5571   27.7988 C   0  0  0  0  0  0  0  0  0  0  0  0
   12.4387  -18.5718   28.4615 C   0  0  0  0  0  0  0  0  0  0  0  0
   12.5551  -19.6617   29.5021 C   0  0  0  0  0  0  0  0  0  0  0  0
   13.8941  -19.7748   30.0339 N   0  0  0  0  0  0  0  0  0  0  0  0
    8.5354  -17.3029   26.9783 C   0  0  0  0  0  0  0  0  0  0  0  0
    8.2500  -16.1769   27.4464 O   0  0  0  0  0  0  0  0  0  0  0  0
    7.7693  -18.3753   27.4240 O   0  0  0  0  0  0  0  0  0  0  0  0
  2  3  2  0
  2  1  1  0
  4  5  1  0
  4  2  1  0
  5  7  1  0
  5  6  1  6
  7  8  2  0
  9 10  1  0
 10 11  2  0
 11 12  1  0
 13 14  1  0
 13 12  2  0
 15 14  1  6
 15 17  1  0
 16 15  1  0
 16  7  1  0
 17 18  2  0
 19 13  1  0
 20 19  2  0
 20 10  1  0
 21 17  1  0
 21 22  1  0
 22 28  1  0
 22 23  1  1
 24 23  1  0
 25 24  1  0
 26 25  1  0
 26 27  1  0
 28 29  2  0
 28 30  1  0
M  END
$$$$
