NYK.pdb
     RDKit          3D

 30 30  0  0  1  0  0  0  0  0999 V2000
    7.7788  -16.6565   18.6802 N   0  0  0  0  0  0  0  0  0  0  0  0
    8.0292  -15.2823   18.9242 C   0  0  0  0  0  0  0  0  0  0  0  0
    7.8568  -14.4640   17.9894 O   0  0  0  0  0  0  0  0  0  0  0  0
    8.4826  -14.8630   20.2629 C   0  0  0  0  0  0  0  0  0  0  0  0
    8.6590  -16.1044   21.1382 C   0  0  2  0  0  0  0  0  0  0  0  0
    7.3775  -16.7934   21.2492 N   0  0  0  0  0  0  0  0  0  0  0  0
    9.1421  -15.6636   22.4771 C   0  0  0  0  0  0  0  0  0  0  0  0
   10.1316  -14.9170   22.5289 O   0  0  0  0  0  0  0  0  0  0  0  0
    6.0850  -10.1407   26.3653 O   0  0  0  0  0  0  0  0  0  0  0  0
    6.5375  -11.4491   26.2693 C   0  0  0  0  0  0  0  0  0  0  0  0
    5.6797  -12.4391   25.8380 C   0  0  0  0  0  0  0  0  0  0  0  0
    6.0865  -13.7484   25.7279 C   0  0  0  0  0  0  0  0  0  0  0  0
    7.3912  -14.1452   26.0476 C   0  0  0  0  0  0  0  0  0  0  0  0
    7.8134  -15.5568   25.9441 C   0  0  0  0  0  0  0  0  0  0  0  0
    8.9986  -15.7657   25.0061 C   0  0  2  0  0  0  0  0  0  0  0  0
    8.5157  -16.0642   23.6615 N   0  0  0  0  0  0  0  0  0  0  0  0
    9.7775  -16.9128   25.4944 C   0  0  0  0  0  0  0  0  0  0  0  0
    9.9630  -17.1118   26.7425 O   0  0  0  0  0  0  0  0  0  0  0  0
    8.2197  -13.1195   26.4767 C   0  0  0  0  0  0  0  0  0  0  0  0
    7.8275  -11.8094   26.5909 C   0  0  0  0  0  0  0  0  0  0  0  0
   10.3798  -17.8825   24.6471 N   0  0  0  0  0  0  0  0  0  0  0  0
   11.1192  -19.0458   25.1837 C   0  0  1  0  0  0  0  0  0  0  0  0
   10.9568  -20.2226   24.2686 C   0  0  0  0  0  0  0  0  0  0  0  0
    9.5995  -20.7717   24.1143 C   0  0  0  0  0  0  0  0  0  0  0  0
    9.4981  -21.9861   23.2373 C   0  0  0  0  0  0  0  0  0  0  0  0
    8.0719  -22.4583   23.0728 C   0  0  0  0  0  0  0  0  0  0  0  0
    7.9796  -23.6694   22.2896 N   0  0  0  0  0  0  0  0  0  0  0  0
   12.5682  -18.7140   25.2593 C   0  0  0  0  0  0  0  0  0  0  0  0
   13.0645  -17.6374   24.8556 O   0  0  0  0  0  0  0  0  0  0  0  0
   13.4500  -19.6392   25.8087 O   0  0  0  0  0  0  0  0  0  0  0  0
  2  3  2  0
  2  1  1  0
  4  5  1  0
  4  2  1  0
  5  7  1  0
  5  6  1  1
  7  8  2  0
  9 10  1  0
 10 11  2  0
 11 12  1  0
 13 14  1  0
 13 12  2  0
 15 14  1  1
 15 17  1  0
 16 15  1  0
 16  7  1  0
 17 18  2  0
 19 13  1  0
 20 19  2  0
 20 10  1  0
 21 17  1  0
 21 22  1  0
 22 28  1  0
 22 23  1  6
 24 23  1  0
 25 24  1  0
 26 25  1  0
 26 27  1  0
 28 29  2  0
 28 30  1  0
M  END
$$$$
