NYK.pdb
     RDKit          3D

 30 30  0  0  1  0  0  0  0  0999 V2000
   11.0644  -19.0237   17.8527 N   0  0  0  0  0  0  0  0  0  0  0  0
   11.2958  -17.6462   17.6090 C   0  0  0  0  0  0  0  0  0  0  0  0
   11.8763  -17.3118   16.5486 O   0  0  0  0  0  0  0  0  0  0  0  0
   10.8489  -16.6568   18.6064 C   0  0  0  0  0  0  0  0  0  0  0  0
   10.2277  -17.3947   19.7930 C   0  0  2  0  0  0  0  0  0  0  0  0
    8.8725  -17.8050   19.4408 N   0  0  0  0  0  0  0  0  0  0  0  0
   10.2151  -16.4687   20.9605 C   0  0  0  0  0  0  0  0  0  0  0  0
   11.2811  -16.2660   21.5620 O   0  0  0  0  0  0  0  0  0  0  0  0
    6.4422  -12.0983   27.8005 O   0  0  0  0  0  0  0  0  0  0  0  0
    6.7163  -12.6522   26.5580 C   0  0  0  0  0  0  0  0  0  0  0  0
    6.2460  -13.9122   26.2526 C   0  0  0  0  0  0  0  0  0  0  0  0
    6.4940  -14.4988   25.0334 C   0  0  0  0  0  0  0  0  0  0  0  0
    7.2362  -13.8489   24.0391 C   0  0  0  0  0  0  0  0  0  0  0  0
    7.5133  -14.4945   22.7399 C   0  0  0  0  0  0  0  0  0  0  0  0
    8.8791  -15.1722   22.6812 C   0  0  2  0  0  0  0  0  0  0  0  0
    9.0473  -15.8300   21.3891 N   0  0  0  0  0  0  0  0  0  0  0  0
    8.9357  -16.1897   23.7407 C   0  0  0  0  0  0  0  0  0  0  0  0
    8.2162  -17.2442   23.6935 O   0  0  0  0  0  0  0  0  0  0  0  0
    7.6897  -12.5857   24.3875 C   0  0  0  0  0  0  0  0  0  0  0  0
    7.4496  -11.9884   25.5994 C   0  0  0  0  0  0  0  0  0  0  0  0
    9.7740  -16.0990   24.8852 N   0  0  0  0  0  0  0  0  0  0  0  0
    9.8574  -17.1835   25.8876 C   0  0  1  0  0  0  0  0  0  0  0  0
   11.0784  -18.0178   25.6395 C   0  0  0  0  0  0  0  0  0  0  0  0
   11.3612  -19.0975   26.5996 C   0  0  0  0  0  0  0  0  0  0  0  0
   12.5595  -19.9421   26.2756 C   0  0  0  0  0  0  0  0  0  0  0  0
   12.7689  -21.0514   27.2804 C   0  0  0  0  0  0  0  0  0  0  0  0
   13.9916  -21.7848   27.0444 N   0  0  0  0  0  0  0  0  0  0  0  0
    9.9715  -16.5877   27.2468 C   0  0  0  0  0  0  0  0  0  0  0  0
    9.7653  -17.2174   28.3095 O   0  0  0  0  0  0  0  0  0  0  0  0
   10.3285  -15.2492   27.3749 O   0  0  0  0  0  0  0  0  0  0  0  0
  2  3  2  0
  2  1  1  0
  4  5  1  0
  4  2  1  0
  5  7  1  0
  5  6  1  6
  7  8  2  0
  9 10  1  0
 10 11  2  0
 11 12  1  0
 13 14  1  0
 13 12  2  0
 15 14  1  6
 15 17  1  0
 16 15  1  0
 16  7  1  0
 17 18  2  0
 19 13  1  0
 20 19  2  0
 20 10  1  0
 21 17  1  0
 21 22  1  0
 22 28  1  0
 22 23  1  6
 24 23  1  0
 25 24  1  0
 26 25  1  0
 26 27  1  0
 28 29  2  0
 28 30  1  0
M  END
$$$$
