NYK.pdb
     RDKit          3D

 30 30  0  0  1  0  0  0  0  0999 V2000
   11.4186  -17.3152   16.4196 N   0  0  0  0  0  0  0  0  0  0  0  0
   10.1891  -17.1407   17.1041 C   0  0  0  0  0  0  0  0  0  0  0  0
    9.1633  -17.7031   16.6517 O   0  0  0  0  0  0  0  0  0  0  0  0
   10.1574  -16.3069   18.3195 C   0  0  0  0  0  0  0  0  0  0  0  0
    9.6656  -17.1571   19.4915 C   0  0  2  0  0  0  0  0  0  0  0  0
    8.2882  -17.5659   19.2369 N   0  0  0  0  0  0  0  0  0  0  0  0
    9.7544  -16.3348   20.7311 C   0  0  0  0  0  0  0  0  0  0  0  0
   10.8798  -16.0599   21.1752 O   0  0  0  0  0  0  0  0  0  0  0  0
    6.9544  -11.5956   27.7977 O   0  0  0  0  0  0  0  0  0  0  0  0
    7.0143  -12.3197   26.6154 C   0  0  0  0  0  0  0  0  0  0  0  0
    7.8494  -11.9029   25.6001 C   0  0  0  0  0  0  0  0  0  0  0  0
    7.9398  -12.5907   24.4123 C   0  0  0  0  0  0  0  0  0  0  0  0
    7.1898  -13.7488   24.1711 C   0  0  0  0  0  0  0  0  0  0  0  0
    7.2796  -14.4700   22.8853 C   0  0  0  0  0  0  0  0  0  0  0  0
    8.6239  -15.1596   22.6720 C   0  0  2  0  0  0  0  0  0  0  0  0
    8.6160  -15.8703   21.3972 N   0  0  0  0  0  0  0  0  0  0  0  0
    8.8201  -16.1338   23.7554 C   0  0  0  0  0  0  0  0  0  0  0  0
    8.0518  -17.1451   23.8917 O   0  0  0  0  0  0  0  0  0  0  0  0
    6.3639  -14.1321   25.2170 C   0  0  0  0  0  0  0  0  0  0  0  0
    6.2640  -13.4560   26.4070 C   0  0  0  0  0  0  0  0  0  0  0  0
    9.8554  -16.0451   24.7255 N   0  0  0  0  0  0  0  0  0  0  0  0
   10.0391  -17.0697   25.7764 C   0  0  1  0  0  0  0  0  0  0  0  0
   11.2998  -17.8417   25.5245 C   0  0  0  0  0  0  0  0  0  0  0  0
   11.1661  -19.2889   25.2893 C   0  0  0  0  0  0  0  0  0  0  0  0
   12.2254  -19.8939   24.4142 C   0  0  0  0  0  0  0  0  0  0  0  0
   11.9368  -21.3389   24.0784 C   0  0  0  0  0  0  0  0  0  0  0  0
   12.9992  -21.9490   23.3117 N   0  0  0  0  0  0  0  0  0  0  0  0
   10.1627  -16.3992   27.0994 C   0  0  0  0  0  0  0  0  0  0  0  0
   10.2681  -15.1608   27.2524 O   0  0  0  0  0  0  0  0  0  0  0  0
   10.1634  -17.1722   28.2562 O   0  0  0  0  0  0  0  0  0  0  0  0
  2  3  2  0
  2  1  1  0
  4  5  1  0
  4  2  1  0
  5  7  1  0
  5  6  1  6
  7  8  2  0
  9 10  1  0
 10 11  2  0
 11 12  1  0
 13 14  1  0
 13 12  2  0
 15 14  1  1
 15 17  1  0
 16 15  1  0
 16  7  1  0
 17 18  2  0
 19 13  1  0
 20 19  2  0
 20 10  1  0
 21 17  1  0
 21 22  1  0
 22 28  1  0
 22 23  1  6
 24 23  1  0
 25 24  1  0
 26 25  1  0
 26 27  1  0
 28 29  2  0
 28 30  1  0
M  END
$$$$
