NYK.pdb
     RDKit          3D

 30 30  0  0  1  0  0  0  0  0999 V2000
    7.3339  -13.4242   16.1636 N   0  0  0  0  0  0  0  0  0  0  0  0
    8.3906  -14.2497   16.6249 C   0  0  0  0  0  0  0  0  0  0  0  0
    8.7521  -15.2179   15.9143 O   0  0  0  0  0  0  0  0  0  0  0  0
    9.0261  -13.9439   17.9196 C   0  0  0  0  0  0  0  0  0  0  0  0
    8.9103  -15.1670   18.8300 C   0  0  2  0  0  0  0  0  0  0  0  0
    7.5891  -15.7626   18.6599 N   0  0  0  0  0  0  0  0  0  0  0  0
    9.1134  -14.7196   20.2368 C   0  0  0  0  0  0  0  0  0  0  0  0
   10.2313  -14.2907   20.5620 O   0  0  0  0  0  0  0  0  0  0  0  0
    7.1925  -12.8110   28.7494 O   0  0  0  0  0  0  0  0  0  0  0  0
    7.1444  -13.0386   27.3813 C   0  0  0  0  0  0  0  0  0  0  0  0
    6.5971  -14.2102   26.9021 C   0  0  0  0  0  0  0  0  0  0  0  0
    6.5291  -14.4763   25.5543 C   0  0  0  0  0  0  0  0  0  0  0  0
    7.0114  -13.5731   24.5985 C   0  0  0  0  0  0  0  0  0  0  0  0
    6.9511  -13.8759   23.1541 C   0  0  0  0  0  0  0  0  0  0  0  0
    8.2476  -14.4649   22.6057 C   0  0  2  0  0  0  0  0  0  0  0  0
    8.0888  -14.7692   21.1871 N   0  0  0  0  0  0  0  0  0  0  0  0
    8.5296  -15.7135   23.3285 C   0  0  0  0  0  0  0  0  0  0  0  0
    7.7648  -16.7316   23.2270 O   0  0  0  0  0  0  0  0  0  0  0  0
    7.5532  -12.4094   25.1229 C   0  0  0  0  0  0  0  0  0  0  0  0
    7.6272  -12.1308   26.4646 C   0  0  0  0  0  0  0  0  0  0  0  0
    9.6495  -15.9006   24.1838 N   0  0  0  0  0  0  0  0  0  0  0  0
    9.8974  -17.1777   24.8879 C   0  0  1  0  0  0  0  0  0  0  0  0
   11.2080  -17.7590   24.4484 C   0  0  0  0  0  0  0  0  0  0  0  0
   11.3406  -18.1192   23.0271 C   0  0  0  0  0  0  0  0  0  0  0  0
   12.6422  -18.7662   22.6513 C   0  0  0  0  0  0  0  0  0  0  0  0
   12.6845  -19.1683   21.1950 C   0  0  0  0  0  0  0  0  0  0  0  0
   13.8954  -18.7318   20.5381 N   0  0  0  0  0  0  0  0  0  0  0  0
    9.9707  -16.9243   26.3527 C   0  0  0  0  0  0  0  0  0  0  0  0
   10.0746  -17.8244   27.2172 O   0  0  0  0  0  0  0  0  0  0  0  0
    9.9237  -15.6145   26.8196 O   0  0  0  0  0  0  0  0  0  0  0  0
  2  3  2  0
  2  1  1  0
  4  5  1  0
  4  2  1  0
  5  7  1  0
  5  6  1  1
  7  8  2  0
  9 10  1  0
 10 11  2  0
 11 12  1  0
 13 14  1  0
 13 12  2  0
 15 14  1  1
 15 17  1  0
 16 15  1  0
 16  7  1  0
 17 18  2  0
 19 13  1  0
 20 19  2  0
 20 10  1  0
 21 17  1  0
 21 22  1  0
 22 28  1  0
 22 23  1  6
 24 23  1  0
 25 24  1  0
 26 25  1  0
 26 27  1  0
 28 29  2  0
 28 30  1  0
M  END
$$$$
