AFP.pdb
     RDKit          3D

 24 25  0  0  1  0  0  0  0  0999 V2000
   23.4829  -20.5375  -11.2044 C   0  0  0  0  0  0  0  0  0  0  0  0
   24.9449  -20.1462  -11.3729 C   0  0  2  0  0  0  0  0  0  0  0  0
   25.4264  -20.7466  -12.6106 N   0  0  0  0  0  0  0  0  0  0  0  0
   25.6794  -20.6792  -10.1949 C   0  0  0  0  0  0  0  0  0  0  0  0
   25.9763  -21.8884  -10.2098 O   0  0  0  0  0  0  0  0  0  0  0  0
   26.0374  -19.8939   -9.1037 N   0  0  0  0  0  0  0  0  0  0  0  0
   26.8550  -20.3998   -7.9585 C   0  0  1  0  0  0  0  0  0  0  0  0
   27.7401  -19.2109   -7.6663 C   0  0  0  0  0  0  0  0  0  0  0  0
   28.5714  -19.2453   -6.4916 C   0  0  0  0  0  0  0  0  0  0  0  0
   29.6198  -20.1216   -6.3646 C   0  0  0  0  0  0  0  0  0  0  0  0
   30.4182  -20.1477   -5.2190 C   0  0  0  0  0  0  0  0  0  0  0  0
   30.1671  -19.2841   -4.1799 C   0  0  0  0  0  0  0  0  0  0  0  0
   29.1140  -18.3890   -4.2838 C   0  0  0  0  0  0  0  0  0  0  0  0
   28.3332  -18.3750   -5.4229 C   0  0  0  0  0  0  0  0  0  0  0  0
   25.8727  -20.6305   -6.8868 C   0  0  0  0  0  0  0  0  0  0  0  0
   24.8939  -19.8114   -6.7295 O   0  0  0  0  0  0  0  0  0  0  0  0
   25.9073  -21.7217   -5.9783 N   0  0  0  0  0  0  0  0  0  0  0  0
   26.7638  -22.8517   -6.1258 C   0  0  0  0  0  0  0  0  0  0  0  0
   26.9736  -23.3196   -4.7035 C   0  0  0  0  0  0  0  0  0  0  0  0
   25.7208  -22.9115   -3.9737 C   0  0  0  0  0  0  0  0  0  0  0  0
   25.0439  -21.9013   -4.8738 C   0  0  1  0  0  0  0  0  0  0  0  0
   24.7376  -20.6673   -4.0938 C   0  0  0  0  0  0  0  0  0  0  0  0
   23.7022  -20.5370   -3.1991 O   0  0  0  0  0  0  0  0  0  0  0  0
   25.5227  -19.6811   -4.3083 O   0  0  0  0  0  0  0  0  0  0  0  0
  2  1  1  1
  2  4  1  0
  2  3  1  0
  4  5  2  0
  6  7  1  0
  6  4  1  0
  7 15  1  0
  8  9  1  0
  7  8  1  1
  9 10  2  0
 10 11  1  0
 12 11  2  0
 13 12  1  0
 14 13  2  0
 14  9  1  0
 15 17  1  0
 15 16  2  0
 17 21  1  0
 18 17  1  0
 19 20  1  0
 19 18  1  0
 20 21  1  0
 21 22  1  1
 22 24  2  0
 22 23  1  0
M  END
$$$$
