AFP.pdb
     RDKit          3D

 24 25  0  0  1  0  0  0  0  0999 V2000
   27.5668  -20.7112  -18.3797 C   0  0  0  0  0  0  0  0  0  0  0  0
   28.4658  -21.4111  -17.3693 C   0  0  2  0  0  0  0  0  0  0  0  0
   28.9928  -22.6143  -18.0010 N   0  0  0  0  0  0  0  0  0  0  0  0
   27.6223  -21.7469  -16.1916 C   0  0  0  0  0  0  0  0  0  0  0  0
   27.1135  -22.8830  -16.1625 O   0  0  0  0  0  0  0  0  0  0  0  0
   27.3875  -20.8584  -15.1471 N   0  0  0  0  0  0  0  0  0  0  0  0
   26.5587  -21.1966  -13.9494 C   0  0  1  0  0  0  0  0  0  0  0  0
   27.2442  -20.3956  -12.8673 C   0  0  0  0  0  0  0  0  0  0  0  0
   26.6561  -20.3708  -11.5538 C   0  0  0  0  0  0  0  0  0  0  0  0
   26.6963  -21.4563  -10.7152 C   0  0  0  0  0  0  0  0  0  0  0  0
   26.1200  -21.4215   -9.4435 C   0  0  0  0  0  0  0  0  0  0  0  0
   25.4914  -20.2833   -8.9988 C   0  0  0  0  0  0  0  0  0  0  0  0
   25.4373  -19.1730   -9.8268 C   0  0  0  0  0  0  0  0  0  0  0  0
   26.0118  -19.2226  -11.0818 C   0  0  0  0  0  0  0  0  0  0  0  0
   25.2255  -20.6608  -14.2690 C   0  0  0  0  0  0  0  0  0  0  0  0
   25.1012  -19.4367  -14.6433 O   0  0  0  0  0  0  0  0  0  0  0  0
   24.0172  -21.4044  -14.2033 N   0  0  0  0  0  0  0  0  0  0  0  0
   23.9627  -22.8270  -14.1282 C   0  0  0  0  0  0  0  0  0  0  0  0
   22.6658  -23.0892  -13.3965 C   0  0  0  0  0  0  0  0  0  0  0  0
   21.7827  -21.9194  -13.7440 C   0  0  0  0  0  0  0  0  0  0  0  0
   22.7136  -20.8682  -14.3072 C   0  0  1  0  0  0  0  0  0  0  0  0
   22.4942  -19.5767  -13.5940 C   0  0  0  0  0  0  0  0  0  0  0  0
   21.4484  -18.7155  -13.8266 O   0  0  0  0  0  0  0  0  0  0  0  0
   23.3721  -19.2893  -12.7098 O   0  0  0  0  0  0  0  0  0  0  0  0
  2  1  1  6
  2  4  1  0
  2  3  1  0
  4  5  2  0
  6  7  1  0
  6  4  1  0
  7 15  1  0
  8  9  1  0
  7  8  1  1
  9 10  2  0
 10 11  1  0
 12 11  2  0
 13 12  1  0
 14 13  2  0
 14  9  1  0
 15 17  1  0
 15 16  2  0
 17 21  1  0
 18 17  1  0
 19 20  1  0
 19 18  1  0
 20 21  1  0
 21 22  1  1
 22 24  2  0
 22 23  1  0
M  END
$$$$
