AFP.pdb
     RDKit          3D

 24 25  0  0  1  0  0  0  0  0999 V2000
   26.7468  -18.0850  -19.0457 C   0  0  0  0  0  0  0  0  0  0  0  0
   27.9368  -18.2875  -18.1174 C   0  0  2  0  0  0  0  0  0  0  0  0
   29.0471  -18.7858  -18.9195 N   0  0  0  0  0  0  0  0  0  0  0  0
   27.5266  -19.2811  -17.0900 C   0  0  0  0  0  0  0  0  0  0  0  0
   27.7149  -20.4832  -17.3548 O   0  0  0  0  0  0  0  0  0  0  0  0
   26.9539  -18.9238  -15.8735 N   0  0  0  0  0  0  0  0  0  0  0  0
   26.6834  -19.8993  -14.7730 C   0  0  1  0  0  0  0  0  0  0  0  0
   27.0736  -19.0990  -13.5524 C   0  0  0  0  0  0  0  0  0  0  0  0
   26.8038  -19.6538  -12.2519 C   0  0  0  0  0  0  0  0  0  0  0  0
   25.7381  -19.2448  -11.4904 C   0  0  0  0  0  0  0  0  0  0  0  0
   25.4876  -19.7885  -10.2286 C   0  0  0  0  0  0  0  0  0  0  0  0
   26.3150  -20.7585   -9.7156 C   0  0  0  0  0  0  0  0  0  0  0  0
   27.3984  -21.1891  -10.4653 C   0  0  0  0  0  0  0  0  0  0  0  0
   27.6332  -20.6419  -11.7115 C   0  0  0  0  0  0  0  0  0  0  0  0
   25.2307  -20.1266  -14.8400 C   0  0  0  0  0  0  0  0  0  0  0  0
   24.4282  -19.1230  -14.8926 O   0  0  0  0  0  0  0  0  0  0  0  0
   24.6113  -21.4047  -14.8575 N   0  0  0  0  0  0  0  0  0  0  0  0
   25.3014  -22.6183  -15.1461 C   0  0  0  0  0  0  0  0  0  0  0  0
   24.5077  -23.6601  -14.3908 C   0  0  0  0  0  0  0  0  0  0  0  0
   23.1035  -23.1168  -14.3434 C   0  0  0  0  0  0  0  0  0  0  0  0
   23.2286  -21.6519  -14.7001 C   0  0  1  0  0  0  0  0  0  0  0  0
   22.5453  -20.8275  -13.6617 C   0  0  0  0  0  0  0  0  0  0  0  0
   21.1858  -20.6475  -13.5670 O   0  0  0  0  0  0  0  0  0  0  0  0
   23.3235  -20.2625  -12.8190 O   0  0  0  0  0  0  0  0  0  0  0  0
  2  1  1  6
  2  4  1  0
  2  3  1  0
  4  5  2  0
  6  7  1  0
  6  4  1  0
  7 15  1  0
  8  9  1  0
  7  8  1  1
  9 10  2  0
 10 11  1  0
 12 11  2  0
 13 12  1  0
 14 13  2  0
 14  9  1  0
 15 17  1  0
 15 16  2  0
 17 21  1  0
 18 17  1  0
 19 20  1  0
 19 18  1  0
 20 21  1  0
 21 22  1  1
 22 24  2  0
 22 23  1  0
M  END
$$$$
