AFP.pdb
     RDKit          3D

 24 25  0  0  1  0  0  0  0  0999 V2000
   14.7749  -21.9548    3.6232 C   0  0  0  0  0  0  0  0  0  0  0  0
   15.1517  -21.0368    2.4681 C   0  0  2  0  0  0  0  0  0  0  0  0
   15.4954  -21.8759    1.3269 N   0  0  0  0  0  0  0  0  0  0  0  0
   16.3184  -20.2293    2.9131 C   0  0  0  0  0  0  0  0  0  0  0  0
   17.4481  -20.7292    2.7574 O   0  0  0  0  0  0  0  0  0  0  0  0
   16.1950  -18.9663    3.4833 N   0  0  0  0  0  0  0  0  0  0  0  0
   17.3564  -18.0570    3.7287 C   0  0  1  0  0  0  0  0  0  0  0  0
   16.7662  -16.7087    3.3882 C   0  0  0  0  0  0  0  0  0  0  0  0
   17.5723  -15.5340    3.5936 C   0  0  0  0  0  0  0  0  0  0  0  0
   17.3781  -14.6926    4.6601 C   0  0  0  0  0  0  0  0  0  0  0  0
   18.1650  -13.5541    4.8479 C   0  0  0  0  0  0  0  0  0  0  0  0
   19.1646  -13.2481    3.9559 C   0  0  0  0  0  0  0  0  0  0  0  0
   19.3811  -14.0823    2.8703 C   0  0  0  0  0  0  0  0  0  0  0  0
   18.5948  -15.2045    2.6979 C   0  0  0  0  0  0  0  0  0  0  0  0
   17.6234  -18.1921    5.1699 C   0  0  0  0  0  0  0  0  0  0  0  0
   16.6589  -18.0756    6.0126 O   0  0  0  0  0  0  0  0  0  0  0  0
   18.8995  -18.4546    5.7356 N   0  0  0  0  0  0  0  0  0  0  0  0
   20.0293  -18.8871    4.9814 C   0  0  0  0  0  0  0  0  0  0  0  0
   21.2028  -18.3624    5.7773 C   0  0  0  0  0  0  0  0  0  0  0  0
   20.7161  -18.3220    7.2023 C   0  0  0  0  0  0  0  0  0  0  0  0
   19.2098  -18.4309    7.1143 C   0  0  1  0  0  0  0  0  0  0  0  0
   18.5851  -17.3217    7.8918 C   0  0  0  0  0  0  0  0  0  0  0  0
   18.4555  -17.2937    9.2600 O   0  0  0  0  0  0  0  0  0  0  0  0
   18.1492  -16.3458    7.1899 O   0  0  0  0  0  0  0  0  0  0  0  0
  2  1  1  1
  2  4  1  0
  2  3  1  0
  4  5  2  0
  6  7  1  0
  6  4  1  0
  7 15  1  0
  8  9  1  0
  7  8  1  1
  9 10  2  0
 10 11  1  0
 12 11  2  0
 13 12  1  0
 14 13  2  0
 14  9  1  0
 15 17  1  0
 15 16  2  0
 17 21  1  0
 18 17  1  0
 19 20  1  0
 19 18  1  0
 20 21  1  0
 21 22  1  6
 22 24  2  0
 22 23  1  0
M  END
$$$$
