AFP.pdb
     RDKit          3D

 24 25  0  0  1  0  0  0  0  0999 V2000
   43.6320   -9.2629   -5.3784 C   0  0  0  0  0  0  0  0  0  0  0  0
   42.4169   -8.6585   -4.6878 C   0  0  2  0  0  0  0  0  0  0  0  0
   42.3281   -9.2398   -3.3542 N   0  0  0  0  0  0  0  0  0  0  0  0
   41.2273   -9.0096   -5.5082 C   0  0  0  0  0  0  0  0  0  0  0  0
   40.6863  -10.1084   -5.2835 O   0  0  0  0  0  0  0  0  0  0  0  0
   40.7106   -8.1743   -6.4935 N   0  0  0  0  0  0  0  0  0  0  0  0
   39.4314   -8.4487   -7.2175 C   0  0  1  0  0  0  0  0  0  0  0  0
   38.7017   -7.1357   -7.0571 C   0  0  0  0  0  0  0  0  0  0  0  0
   37.8268   -6.9695   -5.9262 C   0  0  0  0  0  0  0  0  0  0  0  0
   37.9716   -5.9343   -5.0371 C   0  0  0  0  0  0  0  0  0  0  0  0
   37.1181   -5.7844   -3.9418 C   0  0  0  0  0  0  0  0  0  0  0  0
   36.1008   -6.6833   -3.7282 C   0  0  0  0  0  0  0  0  0  0  0  0
   35.9333   -7.7377   -4.6122 C   0  0  0  0  0  0  0  0  0  0  0  0
   36.7852   -7.8728   -5.6907 C   0  0  0  0  0  0  0  0  0  0  0  0
   39.8466   -8.6804   -8.6105 C   0  0  0  0  0  0  0  0  0  0  0  0
   40.5856   -7.8150   -9.2097 O   0  0  0  0  0  0  0  0  0  0  0  0
   39.4949   -9.8205   -9.3811 N   0  0  0  0  0  0  0  0  0  0  0  0
   39.0180  -11.0417   -8.8212 C   0  0  0  0  0  0  0  0  0  0  0  0
   38.1589  -11.6196   -9.9230 C   0  0  0  0  0  0  0  0  0  0  0  0
   38.7640  -11.0965  -11.1994 C   0  0  0  0  0  0  0  0  0  0  0  0
   39.6605   -9.9530  -10.7785 C   0  0  1  0  0  0  0  0  0  0  0  0
   39.3281   -8.7398  -11.5801 C   0  0  0  0  0  0  0  0  0  0  0  0
   38.4421   -7.7608  -11.1978 O   0  0  0  0  0  0  0  0  0  0  0  0
   39.9354   -8.6473  -12.7015 O   0  0  0  0  0  0  0  0  0  0  0  0
  2  1  1  6
  2  4  1  0
  2  3  1  0
  4  5  2  0
  6  7  1  0
  6  4  1  0
  7 15  1  0
  8  9  1  0
  7  8  1  6
  9 10  2  0
 10 11  1  0
 12 11  2  0
 13 12  1  0
 14 13  2  0
 14  9  1  0
 15 17  1  0
 15 16  2  0
 17 21  1  0
 18 17  1  0
 19 20  1  0
 19 18  1  0
 20 21  1  0
 21 22  1  6
 22 24  2  0
 22 23  1  0
M  END
$$$$
