AFP.pdb
     RDKit          3D

 24 25  0  0  1  0  0  0  0  0999 V2000
   26.1674  -18.2852  -19.1118 C   0  0  0  0  0  0  0  0  0  0  0  0
   26.9178  -17.8758  -17.8516 C   0  0  2  0  0  0  0  0  0  0  0  0
   28.3249  -17.7257  -18.2005 N   0  0  0  0  0  0  0  0  0  0  0  0
   26.7236  -18.9615  -16.8542 C   0  0  0  0  0  0  0  0  0  0  0  0
   27.0368  -20.1154  -17.2019 O   0  0  0  0  0  0  0  0  0  0  0  0
   26.2166  -18.7389  -15.5778 N   0  0  0  0  0  0  0  0  0  0  0  0
   26.1210  -19.8041  -14.5328 C   0  0  1  0  0  0  0  0  0  0  0  0
   26.4682  -19.0350  -13.2797 C   0  0  0  0  0  0  0  0  0  0  0  0
   26.3169  -19.6904  -12.0071 C   0  0  0  0  0  0  0  0  0  0  0  0
   25.2493  -19.4433  -11.1811 C   0  0  0  0  0  0  0  0  0  0  0  0
   25.1142  -20.0834   -9.9472 C   0  0  0  0  0  0  0  0  0  0  0  0
   26.0610  -20.9871   -9.5282 C   0  0  0  0  0  0  0  0  0  0  0  0
   27.1489  -21.2543  -10.3445 C   0  0  0  0  0  0  0  0  0  0  0  0
   27.2688  -20.6134  -11.5620 C   0  0  0  0  0  0  0  0  0  0  0  0
   24.7056  -20.2075  -14.5559 C   0  0  0  0  0  0  0  0  0  0  0  0
   23.7846  -19.3137  -14.4741 O   0  0  0  0  0  0  0  0  0  0  0  0
   24.2475  -21.5471  -14.6698 N   0  0  0  0  0  0  0  0  0  0  0  0
   25.0851  -22.6465  -15.0187 C   0  0  0  0  0  0  0  0  0  0  0  0
   24.4127  -23.8244  -14.3508 C   0  0  0  0  0  0  0  0  0  0  0  0
   22.9521  -23.4592  -14.3024 C   0  0  0  0  0  0  0  0  0  0  0  0
   22.9030  -21.9696  -14.5617 C   0  0  1  0  0  0  0  0  0  0  0  0
   22.1075  -21.3044  -13.4894 C   0  0  0  0  0  0  0  0  0  0  0  0
   22.6257  -20.8049  -12.3183 O   0  0  0  0  0  0  0  0  0  0  0  0
   20.8528  -21.2173  -13.7197 O   0  0  0  0  0  0  0  0  0  0  0  0
  2  1  1  6
  2  4  1  0
  2  3  1  0
  4  5  2  0
  6  7  1  0
  6  4  1  0
  7 15  1  0
  8  9  1  0
  7  8  1  1
  9 10  2  0
 10 11  1  0
 12 11  2  0
 13 12  1  0
 14 13  2  0
 14  9  1  0
 15 17  1  0
 15 16  2  0
 17 21  1  0
 18 17  1  0
 19 20  1  0
 19 18  1  0
 20 21  1  0
 21 22  1  1
 22 24  2  0
 22 23  1  0
M  END
$$$$
