AFP.pdb
     RDKit          3D

 24 25  0  0  1  0  0  0  0  0999 V2000
   24.6978  -20.8209  -11.5032 C   0  0  0  0  0  0  0  0  0  0  0  0
   25.4335  -19.5156  -11.2316 C   0  0  2  0  0  0  0  0  0  0  0  0
   26.0435  -19.0801  -12.4816 N   0  0  0  0  0  0  0  0  0  0  0  0
   26.4657  -19.8012  -10.1999 C   0  0  0  0  0  0  0  0  0  0  0  0
   27.4781  -20.4265  -10.5668 O   0  0  0  0  0  0  0  0  0  0  0  0
   26.3430  -19.4043   -8.8721 N   0  0  0  0  0  0  0  0  0  0  0  0
   27.4358  -19.5572   -7.8630 C   0  0  1  0  0  0  0  0  0  0  0  0
   27.1740  -18.3833   -6.9488 C   0  0  0  0  0  0  0  0  0  0  0  0
   27.9645  -18.2541   -5.7528 C   0  0  0  0  0  0  0  0  0  0  0  0
   29.1746  -17.6070   -5.7440 C   0  0  0  0  0  0  0  0  0  0  0  0
   29.9342  -17.4899   -4.5779 C   0  0  0  0  0  0  0  0  0  0  0  0
   29.4795  -18.0279   -3.3979 C   0  0  0  0  0  0  0  0  0  0  0  0
   28.2599  -18.6864   -3.3805 C   0  0  0  0  0  0  0  0  0  0  0  0
   27.5200  -18.7942   -4.5416 C   0  0  0  0  0  0  0  0  0  0  0  0
   27.1443  -20.8416   -7.2059 C   0  0  0  0  0  0  0  0  0  0  0  0
   25.9266  -21.2384   -7.0894 O   0  0  0  0  0  0  0  0  0  0  0  0
   28.1256  -21.7189   -6.6723 N   0  0  0  0  0  0  0  0  0  0  0  0
   29.5269  -21.5687   -6.8871 C   0  0  0  0  0  0  0  0  0  0  0  0
   30.1390  -22.1988   -5.6565 C   0  0  0  0  0  0  0  0  0  0  0  0
   29.1457  -23.2452   -5.2235 C   0  0  0  0  0  0  0  0  0  0  0  0
   27.8641  -22.9070   -5.9528 C   0  0  1  0  0  0  0  0  0  0  0  0
   26.7413  -22.8283   -4.9740 C   0  0  0  0  0  0  0  0  0  0  0  0
   26.1091  -23.9113   -4.4108 O   0  0  0  0  0  0  0  0  0  0  0  0
   26.3710  -21.6435   -4.6673 O   0  0  0  0  0  0  0  0  0  0  0  0
  2  1  1  6
  2  4  1  0
  2  3  1  0
  4  5  2  0
  6  7  1  0
  6  4  1  0
  7 15  1  0
  8  9  1  0
  7  8  1  1
  9 10  2  0
 10 11  1  0
 12 11  2  0
 13 12  1  0
 14 13  2  0
 14  9  1  0
 15 17  1  0
 15 16  2  0
 17 21  1  0
 18 17  1  0
 19 20  1  0
 19 18  1  0
 20 21  1  0
 21 22  1  1
 22 24  2  0
 22 23  1  0
M  END
$$$$
