AFP.pdb
     RDKit          3D

 24 25  0  0  1  0  0  0  0  0999 V2000
   25.5898  -29.0665  -21.6254 C   0  0  0  0  0  0  0  0  0  0  0  0
   25.9142  -27.8452  -20.7758 C   0  0  2  0  0  0  0  0  0  0  0  0
   26.3862  -26.7945  -21.6688 N   0  0  0  0  0  0  0  0  0  0  0  0
   26.9734  -28.2498  -19.8137 C   0  0  0  0  0  0  0  0  0  0  0  0
   28.1558  -28.1107  -20.1787 O   0  0  0  0  0  0  0  0  0  0  0  0
   26.6967  -28.7658  -18.5517 N   0  0  0  0  0  0  0  0  0  0  0  0
   27.7557  -29.1283  -17.5603 C   0  0  1  0  0  0  0  0  0  0  0  0
   27.4001  -28.2369  -16.3935 C   0  0  0  0  0  0  0  0  0  0  0  0
   27.7051  -26.8331  -16.4833 C   0  0  0  0  0  0  0  0  0  0  0  0
   26.7242  -25.8757  -16.5493 C   0  0  0  0  0  0  0  0  0  0  0  0
   27.0321  -24.5163  -16.6387 C   0  0  0  0  0  0  0  0  0  0  0  0
   28.3424  -24.1030  -16.6629 C   0  0  0  0  0  0  0  0  0  0  0  0
   29.3519  -25.0506  -16.5974 C   0  0  0  0  0  0  0  0  0  0  0  0
   29.0318  -26.3912  -16.5092 C   0  0  0  0  0  0  0  0  0  0  0  0
   27.5036  -30.5480  -17.2645 C   0  0  0  0  0  0  0  0  0  0  0  0
   26.3196  -30.9337  -16.9431 O   0  0  0  0  0  0  0  0  0  0  0  0
   28.4878  -31.5711  -17.3084 N   0  0  0  0  0  0  0  0  0  0  0  0
   29.7793  -31.4070  -17.8890 C   0  0  0  0  0  0  0  0  0  0  0  0
   30.6365  -32.3847  -17.1175 C   0  0  0  0  0  0  0  0  0  0  0  0
   29.6919  -33.4815  -16.7007 C   0  0  0  0  0  0  0  0  0  0  0  0
   28.3046  -32.9084  -16.8892 C   0  0  1  0  0  0  0  0  0  0  0  0
   27.5198  -33.0834  -15.6328 C   0  0  0  0  0  0  0  0  0  0  0  0
   27.1989  -32.0737  -14.7569 O   0  0  0  0  0  0  0  0  0  0  0  0
   27.1404  -34.2806  -15.3924 O   0  0  0  0  0  0  0  0  0  0  0  0
  2  1  1  6
  2  4  1  0
  2  3  1  0
  4  5  2  0
  6  7  1  0
  6  4  1  0
  7 15  1  0
  8  9  1  0
  7  8  1  1
  9 10  2  0
 10 11  1  0
 12 11  2  0
 13 12  1  0
 14 13  2  0
 14  9  1  0
 15 17  1  0
 15 16  2  0
 17 21  1  0
 18 17  1  0
 19 20  1  0
 19 18  1  0
 20 21  1  0
 21 22  1  1
 22 24  2  0
 22 23  1  0
M  END
$$$$
