AFP.pdb
     RDKit          3D

 24 25  0  0  1  0  0  0  0  0999 V2000
   23.6537  -20.4524  -12.1759 C   0  0  0  0  0  0  0  0  0  0  0  0
   25.1622  -20.2457  -12.1525 C   0  0  2  0  0  0  0  0  0  0  0  0
   25.7295  -20.9806  -13.2761 N   0  0  0  0  0  0  0  0  0  0  0  0
   25.6572  -20.7791  -10.8557 C   0  0  0  0  0  0  0  0  0  0  0  0
   25.8932  -22.0003  -10.7964 O   0  0  0  0  0  0  0  0  0  0  0  0
   25.8607  -19.9814   -9.7341 N   0  0  0  0  0  0  0  0  0  0  0  0
   26.4426  -20.4927   -8.4551 C   0  0  1  0  0  0  0  0  0  0  0  0
   27.3355  -19.3451   -8.0453 C   0  0  0  0  0  0  0  0  0  0  0  0
   28.0301  -19.4302   -6.7874 C   0  0  0  0  0  0  0  0  0  0  0  0
   28.9792  -20.3901   -6.5410 C   0  0  0  0  0  0  0  0  0  0  0  0
   29.6451  -20.4646   -5.3156 C   0  0  0  0  0  0  0  0  0  0  0  0
   29.3598  -19.5653   -4.3165 C   0  0  0  0  0  0  0  0  0  0  0  0
   28.4051  -18.5857   -4.5405 C   0  0  0  0  0  0  0  0  0  0  0  0
   27.7550  -18.5247   -5.7575 C   0  0  0  0  0  0  0  0  0  0  0  0
   25.2822  -20.6331   -7.5604 C   0  0  0  0  0  0  0  0  0  0  0  0
   24.4075  -19.6925   -7.4954 O   0  0  0  0  0  0  0  0  0  0  0  0
   25.0292  -21.7599   -6.7337 N   0  0  0  0  0  0  0  0  0  0  0  0
   25.7423  -22.9907   -6.8277 C   0  0  0  0  0  0  0  0  0  0  0  0
   25.6615  -23.5499   -5.4254 C   0  0  0  0  0  0  0  0  0  0  0  0
   24.3737  -23.0047   -4.8656 C   0  0  0  0  0  0  0  0  0  0  0  0
   23.9862  -21.8683   -5.7860 C   0  0  1  0  0  0  0  0  0  0  0  0
   23.7253  -20.6417   -4.9784 C   0  0  0  0  0  0  0  0  0  0  0  0
   22.5956  -20.4174   -4.2280 O   0  0  0  0  0  0  0  0  0  0  0  0
   24.6490  -19.7584   -5.0197 O   0  0  0  0  0  0  0  0  0  0  0  0
  2  1  1  1
  2  4  1  0
  2  3  1  0
  4  5  2  0
  6  7  1  0
  6  4  1  0
  7 15  1  0
  8  9  1  0
  7  8  1  1
  9 10  2  0
 10 11  1  0
 12 11  2  0
 13 12  1  0
 14 13  2  0
 14  9  1  0
 15 17  1  0
 15 16  2  0
 17 21  1  0
 18 17  1  0
 19 20  1  0
 19 18  1  0
 20 21  1  0
 21 22  1  1
 22 24  2  0
 22 23  1  0
M  END
$$$$
