AFP.pdb
     RDKit          3D

 24 25  0  0  1  0  0  0  0  0999 V2000
   23.1667  -18.0350  -14.1857 C   0  0  0  0  0  0  0  0  0  0  0  0
   23.8812  -19.3461  -14.4850 C   0  0  2  0  0  0  0  0  0  0  0  0
   23.0980  -20.0616  -15.4845 N   0  0  0  0  0  0  0  0  0  0  0  0
   23.9511  -20.1077  -13.2098 C   0  0  0  0  0  0  0  0  0  0  0  0
   22.9382  -20.7500  -12.8752 O   0  0  0  0  0  0  0  0  0  0  0  0
   25.0804  -20.1272  -12.3974 N   0  0  0  0  0  0  0  0  0  0  0  0
   25.2460  -21.0598  -11.2404 C   0  0  1  0  0  0  0  0  0  0  0  0
   26.3320  -21.9815  -11.7437 C   0  0  0  0  0  0  0  0  0  0  0  0
   27.6691  -21.4635  -11.8698 C   0  0  0  0  0  0  0  0  0  0  0  0
   28.6509  -21.7461  -10.9536 C   0  0  0  0  0  0  0  0  0  0  0  0
   29.9443  -21.2358  -11.0849 C   0  0  0  0  0  0  0  0  0  0  0  0
   30.2656  -20.4283  -12.1495 C   0  0  0  0  0  0  0  0  0  0  0  0
   29.2916  -20.1281  -13.0889 C   0  0  0  0  0  0  0  0  0  0  0  0
   28.0170  -20.6402  -12.9456 C   0  0  0  0  0  0  0  0  0  0  0  0
   25.7202  -20.1976  -10.1457 C   0  0  0  0  0  0  0  0  0  0  0  0
   26.5074  -19.2135  -10.4022 O   0  0  0  0  0  0  0  0  0  0  0  0
   25.3692  -20.3580   -8.7789 N   0  0  0  0  0  0  0  0  0  0  0  0
   24.2929  -21.1755   -8.3255 C   0  0  0  0  0  0  0  0  0  0  0  0
   24.7284  -21.5892   -6.9380 C   0  0  0  0  0  0  0  0  0  0  0  0
   25.6006  -20.4605   -6.4540 C   0  0  0  0  0  0  0  0  0  0  0  0
   25.9508  -19.6656   -7.6926 C   0  0  1  0  0  0  0  0  0  0  0  0
   27.4298  -19.4862   -7.7662 C   0  0  0  0  0  0  0  0  0  0  0  0
   28.1444  -18.5387   -7.0727 O   0  0  0  0  0  0  0  0  0  0  0  0
   28.0362  -20.2961   -8.5482 O   0  0  0  0  0  0  0  0  0  0  0  0
  2  1  1  1
  2  4  1  0
  2  3  1  0
  4  5  2  0
  6  7  1  0
  6  4  1  0
  7 15  1  0
  8  9  1  0
  7  8  1  6
  9 10  2  0
 10 11  1  0
 12 11  2  0
 13 12  1  0
 14 13  2  0
 14  9  1  0
 15 17  1  0
 15 16  2  0
 17 21  1  0
 18 17  1  0
 19 20  1  0
 19 18  1  0
 20 21  1  0
 21 22  1  6
 22 24  2  0
 22 23  1  0
M  END
$$$$
