AFP.pdb
     RDKit          3D

 24 25  0  0  1  0  0  0  0  0999 V2000
   24.4425  -21.4325  -12.9929 C   0  0  0  0  0  0  0  0  0  0  0  0
   24.0910  -20.3213  -12.0129 C   0  0  2  0  0  0  0  0  0  0  0  0
   23.6470  -19.1690  -12.7872 N   0  0  0  0  0  0  0  0  0  0  0  0
   25.3248  -20.0095  -11.2435 C   0  0  0  0  0  0  0  0  0  0  0  0
   26.1862  -19.3108  -11.8095 O   0  0  0  0  0  0  0  0  0  0  0  0
   25.5452  -20.4601   -9.9458 N   0  0  0  0  0  0  0  0  0  0  0  0
   26.7714  -20.1292   -9.1567 C   0  0  1  0  0  0  0  0  0  0  0  0
   26.2268  -20.0890   -7.7481 C   0  0  0  0  0  0  0  0  0  0  0  0
   27.1366  -19.8136   -6.6672 C   0  0  0  0  0  0  0  0  0  0  0  0
   27.4980  -20.7728   -5.7548 C   0  0  0  0  0  0  0  0  0  0  0  0
   28.3799  -20.4934   -4.7085 C   0  0  0  0  0  0  0  0  0  0  0  0
   28.9118  -19.2341   -4.5685 C   0  0  0  0  0  0  0  0  0  0  0  0
   28.5627  -18.2475   -5.4774 C   0  0  0  0  0  0  0  0  0  0  0  0
   27.6895  -18.5389   -6.5069 C   0  0  0  0  0  0  0  0  0  0  0  0
   27.6608  -21.2825   -9.3696 C   0  0  0  0  0  0  0  0  0  0  0  0
   27.1891  -22.4764   -9.2929 O   0  0  0  0  0  0  0  0  0  0  0  0
   29.0463  -21.1919   -9.6687 N   0  0  0  0  0  0  0  0  0  0  0  0
   29.7198  -19.9677   -9.9515 C   0  0  0  0  0  0  0  0  0  0  0  0
   31.1396  -20.2391   -9.5083 C   0  0  0  0  0  0  0  0  0  0  0  0
   31.3237  -21.7232   -9.6885 C   0  0  0  0  0  0  0  0  0  0  0  0
   29.9266  -22.2854   -9.8328 C   0  0  1  0  0  0  0  0  0  0  0  0
   29.7403  -23.4073   -8.8675 C   0  0  0  0  0  0  0  0  0  0  0  0
   30.2682  -24.6681   -9.0129 O   0  0  0  0  0  0  0  0  0  0  0  0
   29.0261  -23.1292   -7.8440 O   0  0  0  0  0  0  0  0  0  0  0  0
  2  1  1  6
  2  4  1  0
  2  3  1  0
  4  5  2  0
  6  7  1  0
  6  4  1  0
  7 15  1  0
  8  9  1  0
  7  8  1  1
  9 10  2  0
 10 11  1  0
 12 11  2  0
 13 12  1  0
 14 13  2  0
 14  9  1  0
 15 17  1  0
 15 16  2  0
 17 21  1  0
 18 17  1  0
 19 20  1  0
 19 18  1  0
 20 21  1  0
 21 22  1  1
 22 24  2  0
 22 23  1  0
M  END
$$$$
