AFP.pdb
     RDKit          3D

 24 25  0  0  1  0  0  0  0  0999 V2000
   14.5113  -22.4313    4.0346 C   0  0  0  0  0  0  0  0  0  0  0  0
   14.8082  -21.3750    2.9787 C   0  0  2  0  0  0  0  0  0  0  0  0
   14.8878  -22.0465    1.6875 N   0  0  0  0  0  0  0  0  0  0  0  0
   16.1072  -20.7478    3.3400 C   0  0  0  0  0  0  0  0  0  0  0  0
   17.1417  -21.3077    2.9317 O   0  0  0  0  0  0  0  0  0  0  0  0
   16.2048  -19.5863    4.0996 N   0  0  0  0  0  0  0  0  0  0  0  0
   17.4994  -18.8925    4.3800 C   0  0  1  0  0  0  0  0  0  0  0  0
   17.1015  -17.4405    4.2541 C   0  0  0  0  0  0  0  0  0  0  0  0
   17.8438  -16.6004    3.3513 C   0  0  0  0  0  0  0  0  0  0  0  0
   17.7257  -15.2333    3.3623 C   0  0  0  0  0  0  0  0  0  0  0  0
   18.4492  -14.4283    2.4797 C   0  0  0  0  0  0  0  0  0  0  0  0
   19.3069  -14.9963    1.5686 C   0  0  0  0  0  0  0  0  0  0  0  0
   19.4443  -16.3752    1.5374 C   0  0  0  0  0  0  0  0  0  0  0  0
   18.7221  -17.1582    2.4165 C   0  0  0  0  0  0  0  0  0  0  0  0
   17.8120  -19.2583    5.7711 C   0  0  0  0  0  0  0  0  0  0  0  0
   16.8713  -19.3048    6.6468 O   0  0  0  0  0  0  0  0  0  0  0  0
   19.1090  -19.5820    6.2509 N   0  0  0  0  0  0  0  0  0  0  0  0
   20.2195  -19.8723    5.4056 C   0  0  0  0  0  0  0  0  0  0  0  0
   21.4110  -19.4558    6.2379 C   0  0  0  0  0  0  0  0  0  0  0  0
   20.9700  -19.6447    7.6657 C   0  0  0  0  0  0  0  0  0  0  0  0
   19.4632  -19.7659    7.6068 C   0  0  1  0  0  0  0  0  0  0  0  0
   18.8493  -18.8015    8.5650 C   0  0  0  0  0  0  0  0  0  0  0  0
   18.7832  -18.9773    9.9267 O   0  0  0  0  0  0  0  0  0  0  0  0
   18.3579  -17.7474    8.0336 O   0  0  0  0  0  0  0  0  0  0  0  0
  2  1  1  1
  2  4  1  0
  2  3  1  0
  4  5  2  0
  6  7  1  0
  6  4  1  0
  7 15  1  0
  8  9  1  0
  7  8  1  1
  9 10  2  0
 10 11  1  0
 12 11  2  0
 13 12  1  0
 14 13  2  0
 14  9  1  0
 15 17  1  0
 15 16  2  0
 17 21  1  0
 18 17  1  0
 19 20  1  0
 19 18  1  0
 20 21  1  0
 21 22  1  1
 22 24  2  0
 22 23  1  0
M  END
$$$$
