AFP.pdb
     RDKit          3D

 24 25  0  0  1  0  0  0  0  0999 V2000
   26.2150  -17.6536  -18.1847 C   0  0  0  0  0  0  0  0  0  0  0  0
   27.4484  -17.8229  -17.3077 C   0  0  2  0  0  0  0  0  0  0  0  0
   28.5632  -18.1869  -18.1732 N   0  0  0  0  0  0  0  0  0  0  0  0
   27.1477  -18.9054  -16.3336 C   0  0  0  0  0  0  0  0  0  0  0  0
   27.2985  -20.0785  -16.7231 O   0  0  0  0  0  0  0  0  0  0  0  0
   26.7143  -18.6597  -15.0346 N   0  0  0  0  0  0  0  0  0  0  0  0
   26.4993  -19.7377  -14.0209 C   0  0  1  0  0  0  0  0  0  0  0  0
   26.9246  -19.0477  -12.7460 C   0  0  0  0  0  0  0  0  0  0  0  0
   26.7075  -19.7232  -11.4936 C   0  0  0  0  0  0  0  0  0  0  0  0
   27.5110  -20.7519  -11.0701 C   0  0  0  0  0  0  0  0  0  0  0  0
   27.2892  -21.4018   -9.8539 C   0  0  0  0  0  0  0  0  0  0  0  0
   26.2468  -21.0194   -9.0442 C   0  0  0  0  0  0  0  0  0  0  0  0
   25.4207  -19.9827   -9.4493 C   0  0  0  0  0  0  0  0  0  0  0  0
   25.6526  -19.3496  -10.6546 C   0  0  0  0  0  0  0  0  0  0  0  0
   25.0483  -19.9828  -14.0557 C   0  0  0  0  0  0  0  0  0  0  0  0
   24.2304  -18.9977  -13.9350 O   0  0  0  0  0  0  0  0  0  0  0  0
   24.4467  -21.2586  -14.2218 N   0  0  0  0  0  0  0  0  0  0  0  0
   25.1526  -22.4202  -14.6513 C   0  0  0  0  0  0  0  0  0  0  0  0
   24.3754  -23.5544  -14.0223 C   0  0  0  0  0  0  0  0  0  0  0  0
   22.9641  -23.0401  -13.9099 C   0  0  0  0  0  0  0  0  0  0  0  0
   23.0680  -21.5419  -14.0928 C   0  0  1  0  0  0  0  0  0  0  0  0
   22.3763  -20.8543  -12.9642 C   0  0  0  0  0  0  0  0  0  0  0  0
   21.0296  -20.5833  -12.9129 O   0  0  0  0  0  0  0  0  0  0  0  0
   23.1339  -20.5068  -11.9946 O   0  0  0  0  0  0  0  0  0  0  0  0
  2  1  1  6
  2  4  1  0
  2  3  1  0
  4  5  2  0
  6  7  1  0
  6  4  1  0
  7 15  1  0
  8  9  1  0
  7  8  1  1
  9 10  2  0
 10 11  1  0
 12 11  2  0
 13 12  1  0
 14 13  2  0
 14  9  1  0
 15 17  1  0
 15 16  2  0
 17 21  1  0
 18 17  1  0
 19 20  1  0
 19 18  1  0
 20 21  1  0
 21 22  1  1
 22 24  2  0
 22 23  1  0
M  END
$$$$
