AFP.pdb
     RDKit          3D

 24 25  0  0  1  0  0  0  0  0999 V2000
   21.9791  -19.7590  -16.0370 C   0  0  0  0  0  0  0  0  0  0  0  0
   22.1423  -18.4882  -15.2140 C   0  0  2  0  0  0  0  0  0  0  0  0
   22.2720  -17.3711  -16.1412 N   0  0  0  0  0  0  0  0  0  0  0  0
   23.3719  -18.6524  -14.3940 C   0  0  0  0  0  0  0  0  0  0  0  0
   24.4449  -18.2682  -14.8955 O   0  0  0  0  0  0  0  0  0  0  0  0
   23.3657  -19.2068  -13.1179 N   0  0  0  0  0  0  0  0  0  0  0  0
   24.5964  -19.3660  -12.2837 C   0  0  1  0  0  0  0  0  0  0  0  0
   24.0101  -19.5143  -10.8993 C   0  0  0  0  0  0  0  0  0  0  0  0
   24.9080  -19.6896   -9.7880 C   0  0  0  0  0  0  0  0  0  0  0  0
   25.1828  -20.9258   -9.2595 C   0  0  0  0  0  0  0  0  0  0  0  0
   26.0540  -21.0836   -8.1793 C   0  0  0  0  0  0  0  0  0  0  0  0
   26.6630  -19.9886   -7.6148 C   0  0  0  0  0  0  0  0  0  0  0  0
   26.4021  -18.7288   -8.1307 C   0  0  0  0  0  0  0  0  0  0  0  0
   25.5383  -18.5886   -9.1991 C   0  0  0  0  0  0  0  0  0  0  0  0
   25.1985  -20.6207  -12.7631 C   0  0  0  0  0  0  0  0  0  0  0  0
   24.4708  -21.6743  -12.8825 O   0  0  0  0  0  0  0  0  0  0  0  0
   26.5631  -20.7774  -13.1243 N   0  0  0  0  0  0  0  0  0  0  0  0
   27.4865  -19.6964  -13.2293 C   0  0  0  0  0  0  0  0  0  0  0  0
   28.8188  -20.3437  -12.9262 C   0  0  0  0  0  0  0  0  0  0  0  0
   28.6641  -21.7740  -13.3728 C   0  0  0  0  0  0  0  0  0  0  0  0
   27.1743  -21.9859  -13.5289 C   0  0  1  0  0  0  0  0  0  0  0  0
   26.7621  -23.1986  -12.7644 C   0  0  0  0  0  0  0  0  0  0  0  0
   26.9576  -24.4950  -13.1775 O   0  0  0  0  0  0  0  0  0  0  0  0
   26.1848  -22.9656  -11.6475 O   0  0  0  0  0  0  0  0  0  0  0  0
  2  1  1  6
  2  4  1  0
  2  3  1  0
  4  5  2  0
  6  7  1  0
  6  4  1  0
  7 15  1  0
  8  9  1  0
  7  8  1  1
  9 10  2  0
 10 11  1  0
 12 11  2  0
 13 12  1  0
 14 13  2  0
 14  9  1  0
 15 17  1  0
 15 16  2  0
 17 21  1  0
 18 17  1  0
 19 20  1  0
 19 18  1  0
 20 21  1  0
 21 22  1  1
 22 24  2  0
 22 23  1  0
M  END
$$$$
