AFP.pdb
     RDKit          3D

 24 25  0  0  1  0  0  0  0  0999 V2000
   26.3743  -17.0311  -14.3533 C   0  0  0  0  0  0  0  0  0  0  0  0
   27.6278  -17.0199  -13.4887 C   0  0  2  0  0  0  0  0  0  0  0  0
   28.7789  -17.1580  -14.3720 N   0  0  0  0  0  0  0  0  0  0  0  0
   27.5253  -18.1719  -12.5541 C   0  0  0  0  0  0  0  0  0  0  0  0
   28.0503  -19.2427  -12.9122 O   0  0  0  0  0  0  0  0  0  0  0  0
   26.8794  -18.0973  -11.3241 N   0  0  0  0  0  0  0  0  0  0  0  0
   26.8448  -19.2250  -10.3428 C   0  0  1  0  0  0  0  0  0  0  0  0
   26.8086  -18.4839   -9.0268 C   0  0  0  0  0  0  0  0  0  0  0  0
   27.0892  -19.2146   -7.8188 C   0  0  0  0  0  0  0  0  0  0  0  0
   28.3701  -19.4242   -7.3732 C   0  0  0  0  0  0  0  0  0  0  0  0
   28.6306  -20.1369   -6.2008 C   0  0  0  0  0  0  0  0  0  0  0  0
   27.5949  -20.6509   -5.4580 C   0  0  0  0  0  0  0  0  0  0  0  0
   26.2917  -20.4527   -5.8866 C   0  0  0  0  0  0  0  0  0  0  0  0
   26.0499  -19.7458   -7.0481 C   0  0  0  0  0  0  0  0  0  0  0  0
   25.5725  -19.9098  -10.6234 C   0  0  0  0  0  0  0  0  0  0  0  0
   24.4617  -19.2758  -10.4882 O   0  0  0  0  0  0  0  0  0  0  0  0
   25.4567  -21.2591  -11.0515 N   0  0  0  0  0  0  0  0  0  0  0  0
   26.5663  -22.0719  -11.4262 C   0  0  0  0  0  0  0  0  0  0  0  0
   26.0961  -23.4735  -11.1094 C   0  0  0  0  0  0  0  0  0  0  0  0
   24.5989  -23.4239  -11.2681 C   0  0  0  0  0  0  0  0  0  0  0  0
   24.2447  -21.9531  -11.2684 C   0  0  1  0  0  0  0  0  0  0  0  0
   23.1734  -21.6999  -10.2618 C   0  0  0  0  0  0  0  0  0  0  0  0
   21.8441  -22.0059  -10.4315 O   0  0  0  0  0  0  0  0  0  0  0  0
   23.5680  -21.1529   -9.1755 O   0  0  0  0  0  0  0  0  0  0  0  0
  2  1  1  6
  2  4  1  0
  2  3  1  0
  4  5  2  0
  6  7  1  0
  6  4  1  0
  7 15  1  0
  8  9  1  0
  7  8  1  1
  9 10  2  0
 10 11  1  0
 12 11  2  0
 13 12  1  0
 14 13  2  0
 14  9  1  0
 15 17  1  0
 15 16  2  0
 17 21  1  0
 18 17  1  0
 19 20  1  0
 19 18  1  0
 20 21  1  0
 21 22  1  1
 22 24  2  0
 22 23  1  0
M  END
$$$$
