TID.pdb
     RDKit          3D

 24 23  0  0  1  0  0  0  0  0999 V2000
   17.9706  -11.6834  -13.8506 C   0  0  0  0  0  0  0  0  0  0  0  0
   17.0239  -12.8231  -14.1680 C   0  0  1  0  0  0  0  0  0  0  0  0
   17.7241  -13.9575  -14.5408 O   0  0  0  0  0  0  0  0  0  0  0  0
   16.0539  -13.0732  -13.0368 C   0  0  2  0  0  0  0  0  0  0  0  0
   15.3079  -14.2668  -13.3412 N   0  0  0  0  0  0  0  0  0  0  0  0
   15.1715  -11.9106  -12.7876 C   0  0  0  0  0  0  0  0  0  0  0  0
   14.3800  -11.5744  -13.6744 O   0  0  0  0  0  0  0  0  0  0  0  0
   11.8961  -11.5093   -9.0931 C   0  0  0  0  0  0  0  0  0  0  0  0
   12.6589  -11.1442  -10.3237 C   0  0  0  0  0  0  0  0  0  0  0  0
   13.7572  -10.1218  -10.0428 C   0  0  2  0  0  0  0  0  0  0  0  0
   13.2240   -8.8895   -9.4083 C   0  0  0  0  0  0  0  0  0  0  0  0
   14.4962   -9.9611  -11.3248 C   0  0  2  0  0  0  0  0  0  0  0  0
   15.2512  -11.2164  -11.5539 N   0  0  0  0  0  0  0  0  0  0  0  0
   15.3923   -8.8019  -11.4183 C   0  0  0  0  0  0  0  0  0  0  0  0
   16.3222   -8.6013  -10.5493 O   0  0  0  0  0  0  0  0  0  0  0  0
   15.3174   -7.8477  -12.4270 N   0  0  0  0  0  0  0  0  0  0  0  0
   16.2280   -6.6576  -12.4555 C   0  0  1  0  0  0  0  0  0  0  0  0
   17.0496   -6.8356  -13.7107 C   0  0  0  0  0  0  0  0  0  0  0  0
   17.8966   -5.7166  -14.0884 C   0  0  0  0  0  0  0  0  0  0  0  0
   18.5719   -5.0902  -13.2642 O   0  0  0  0  0  0  0  0  0  0  0  0
   15.3957   -5.4415  -12.5013 C   0  0  0  0  0  0  0  0  0  0  0  0
   15.8694   -4.2321  -12.0662 O   0  0  0  0  0  0  0  0  0  0  0  0
   17.9226   -5.3619  -15.4571 O   0  0  0  0  0  0  0  0  0  0  0  0
   14.2225   -5.5000  -12.9462 O   0  0  0  0  0  0  0  0  0  0  0  0
  2  1  1  1
  2  3  1  0
  4  2  1  0
  4  6  1  0
  4  5  1  6
  6  7  2  0
  8  9  1  0
  9 10  1  0
 10 12  1  0
 10 11  1  6
 12 14  1  0
 12 13  1  1
 13  6  1  0
 14 16  1  0
 14 15  2  0
 16 17  1  0
 17 21  1  0
 17 18  1  6
 19 18  1  0
 20 19  2  0
 21 24  2  0
 21 22  1  0
 23 19  1  0
M  END
$$$$
