TID.pdb
     RDKit          3D

 24 23  0  0  1  0  0  0  0  0999 V2000
   28.2410  -18.6064  -16.3523 C   0  0  0  0  0  0  0  0  0  0  0  0
   27.0506  -19.3482  -15.7791 C   0  0  1  0  0  0  0  0  0  0  0  0
   26.1777  -19.7316  -16.7827 O   0  0  0  0  0  0  0  0  0  0  0  0
   27.4817  -20.4991  -14.9002 C   0  0  2  0  0  0  0  0  0  0  0  0
   28.1086  -21.4909  -15.7353 N   0  0  0  0  0  0  0  0  0  0  0  0
   26.3567  -21.0582  -14.1165 C   0  0  0  0  0  0  0  0  0  0  0  0
   25.8032  -22.0811  -14.5328 O   0  0  0  0  0  0  0  0  0  0  0  0
   26.7777  -20.4853   -9.0158 C   0  0  0  0  0  0  0  0  0  0  0  0
   26.2477  -21.1156  -10.2613 C   0  0  0  0  0  0  0  0  0  0  0  0
   24.9592  -20.4537  -10.7429 C   0  0  2  0  0  0  0  0  0  0  0  0
   23.8306  -20.6798   -9.8045 C   0  0  0  0  0  0  0  0  0  0  0  0
   24.7748  -20.9053  -12.1492 C   0  0  2  0  0  0  0  0  0  0  0  0
   25.9432  -20.4179  -12.9210 N   0  0  0  0  0  0  0  0  0  0  0  0
   23.5250  -20.4999  -12.8041 C   0  0  0  0  0  0  0  0  0  0  0  0
   23.2431  -19.2582  -13.0009 O   0  0  0  0  0  0  0  0  0  0  0  0
   22.5648  -21.3976  -13.2578 N   0  0  0  0  0  0  0  0  0  0  0  0
   21.2566  -20.9337  -13.8232 C   0  0  1  0  0  0  0  0  0  0  0  0
   20.7401  -22.1157  -14.6095 C   0  0  0  0  0  0  0  0  0  0  0  0
   19.3879  -22.0002  -15.1297 C   0  0  0  0  0  0  0  0  0  0  0  0
   18.7170  -20.9696  -15.0051 O   0  0  0  0  0  0  0  0  0  0  0  0
   20.3689  -20.5797  -12.7006 C   0  0  0  0  0  0  0  0  0  0  0  0
   20.2782  -21.3665  -11.5829 O   0  0  0  0  0  0  0  0  0  0  0  0
   18.8555  -23.1283  -15.7957 O   0  0  0  0  0  0  0  0  0  0  0  0
   19.6725  -19.5357  -12.7560 O   0  0  0  0  0  0  0  0  0  0  0  0
  2  1  1  6
  2  3  1  0
  4  2  1  0
  4  6  1  0
  4  5  1  6
  6  7  2  0
  8  9  1  0
  9 10  1  0
 10 12  1  0
 10 11  1  1
 12 14  1  0
 12 13  1  6
 13  6  1  0
 14 16  1  0
 14 15  2  0
 16 17  1  0
 17 21  1  0
 17 18  1  1
 19 18  1  0
 20 19  2  0
 21 24  2  0
 21 22  1  0
 23 19  1  0
M  END
$$$$
