TID.pdb
     RDKit          3D

 24 23  0  0  1  0  0  0  0  0999 V2000
   19.2027  -12.1155  -19.6710 C   0  0  0  0  0  0  0  0  0  0  0  0
   19.8208  -11.3388  -18.5261 C   0  0  1  0  0  0  0  0  0  0  0  0
   18.8472  -10.6860  -17.7897 O   0  0  0  0  0  0  0  0  0  0  0  0
   20.7152  -12.2131  -17.6784 C   0  0  2  0  0  0  0  0  0  0  0  0
   19.9252  -13.3055  -17.1721 N   0  0  0  0  0  0  0  0  0  0  0  0
   21.3780  -11.4528  -16.5944 C   0  0  0  0  0  0  0  0  0  0  0  0
   20.7554  -11.2655  -15.5441 O   0  0  0  0  0  0  0  0  0  0  0  0
   26.3511  -12.2585  -15.4201 C   0  0  0  0  0  0  0  0  0  0  0  0
   24.9362  -11.7858  -15.3567 C   0  0  0  0  0  0  0  0  0  0  0  0
   24.7885  -10.3360  -15.8113 C   0  0  2  0  0  0  0  0  0  0  0  0
   25.6658   -9.4173  -15.0421 C   0  0  0  0  0  0  0  0  0  0  0  0
   23.3270  -10.0544  -15.7933 C   0  0  2  0  0  0  0  0  0  0  0  0
   22.6951  -10.9623  -16.7806 N   0  0  0  0  0  0  0  0  0  0  0  0
   22.9291   -8.6646  -16.0495 C   0  0  0  0  0  0  0  0  0  0  0  0
   22.9460   -8.1707  -17.2394 O   0  0  0  0  0  0  0  0  0  0  0  0
   22.5091   -7.7864  -15.0567 N   0  0  0  0  0  0  0  0  0  0  0  0
   22.1015   -6.3786  -15.3703 C   0  0  1  0  0  0  0  0  0  0  0  0
   20.5949   -6.4304  -15.4692 C   0  0  0  0  0  0  0  0  0  0  0  0
   19.9158   -5.1533  -15.6106 C   0  0  0  0  0  0  0  0  0  0  0  0
   20.5231   -4.1042  -15.8516 O   0  0  0  0  0  0  0  0  0  0  0  0
   22.5588   -5.5104  -14.2701 C   0  0  0  0  0  0  0  0  0  0  0  0
   22.7919   -4.1741  -14.4612 O   0  0  0  0  0  0  0  0  0  0  0  0
   18.5097   -5.1514  -15.4601 O   0  0  0  0  0  0  0  0  0  0  0  0
   22.7445   -5.9928  -13.1253 O   0  0  0  0  0  0  0  0  0  0  0  0
  2  1  1  6
  2  3  1  0
  4  2  1  0
  4  6  1  0
  4  5  1  1
  6  7  2  0
  8  9  1  0
  9 10  1  0
 10 12  1  0
 10 11  1  1
 12 14  1  0
 12 13  1  6
 13  6  1  0
 14 16  1  0
 14 15  2  0
 16 17  1  0
 17 21  1  0
 17 18  1  1
 19 18  1  0
 20 19  2  0
 21 24  2  0
 21 22  1  0
 23 19  1  0
M  END
$$$$
