TID.pdb
     RDKit          3D

 24 23  0  0  1  0  0  0  0  0999 V2000
   28.9440   -8.4934  -21.9281 C   0  0  0  0  0  0  0  0  0  0  0  0
   27.6999   -8.5965  -21.0692 C   0  0  1  0  0  0  0  0  0  0  0  0
   26.5746   -8.2215  -21.7829 O   0  0  0  0  0  0  0  0  0  0  0  0
   27.5703   -9.9630  -20.4379 C   0  0  2  0  0  0  0  0  0  0  0  0
   27.3538  -10.9238  -21.4886 N   0  0  0  0  0  0  0  0  0  0  0  0
   26.5044  -10.0075  -19.4111 C   0  0  0  0  0  0  0  0  0  0  0  0
   25.3676  -10.3420  -19.7600 O   0  0  0  0  0  0  0  0  0  0  0  0
   27.9653  -12.1556  -15.3122 C   0  0  0  0  0  0  0  0  0  0  0  0
   26.7917  -11.6859  -16.1068 C   0  0  0  0  0  0  0  0  0  0  0  0
   26.4104  -10.2442  -15.7806 C   0  0  2  0  0  0  0  0  0  0  0  0
   25.6426  -10.1427  -14.5135 C   0  0  0  0  0  0  0  0  0  0  0  0
   25.7657   -9.7091  -17.0108 C   0  0  2  0  0  0  0  0  0  0  0  0
   26.8053   -9.6705  -18.0672 N   0  0  0  0  0  0  0  0  0  0  0  0
   25.1146   -8.3991  -16.8869 C   0  0  0  0  0  0  0  0  0  0  0  0
   25.8029   -7.3177  -16.7567 O   0  0  0  0  0  0  0  0  0  0  0  0
   23.7361   -8.2178  -16.9012 N   0  0  0  0  0  0  0  0  0  0  0  0
   23.1135   -6.8829  -16.6238 C   0  0  1  0  0  0  0  0  0  0  0  0
   22.7590   -6.3364  -17.9868 C   0  0  0  0  0  0  0  0  0  0  0  0
   22.0309   -5.0787  -18.0055 C   0  0  0  0  0  0  0  0  0  0  0  0
   21.9146   -4.3666  -17.0020 O   0  0  0  0  0  0  0  0  0  0  0  0
   21.9227   -7.0958  -15.7811 C   0  0  0  0  0  0  0  0  0  0  0  0
   21.2491   -8.2887  -15.7805 O   0  0  0  0  0  0  0  0  0  0  0  0
   21.4487   -4.6898  -19.2341 O   0  0  0  0  0  0  0  0  0  0  0  0
   21.5033   -6.1710  -15.0417 O   0  0  0  0  0  0  0  0  0  0  0  0
  2  1  1  6
  2  3  1  0
  4  2  1  0
  4  6  1  0
  4  5  1  6
  6  7  2  0
  8  9  1  0
  9 10  1  0
 10 12  1  0
 10 11  1  1
 12 14  1  0
 12 13  1  6
 13  6  1  0
 14 16  1  0
 14 15  2  0
 16 17  1  0
 17 21  1  0
 17 18  1  6
 19 18  1  0
 20 19  2  0
 21 24  2  0
 21 22  1  0
 23 19  1  0
M  END
$$$$
