TID.pdb
     RDKit          3D

 24 23  0  0  1  0  0  0  0  0999 V2000
   21.4293  -12.6829  -21.1260 C   0  0  0  0  0  0  0  0  0  0  0  0
   21.6309  -11.8906  -19.8503 C   0  0  1  0  0  0  0  0  0  0  0  0
   20.4182  -11.4644  -19.3367 O   0  0  0  0  0  0  0  0  0  0  0  0
   22.4619  -12.6541  -18.8456 C   0  0  2  0  0  0  0  0  0  0  0  0
   21.7908  -13.8958  -18.5597 N   0  0  0  0  0  0  0  0  0  0  0  0
   22.7247  -11.8654  -17.6203 C   0  0  0  0  0  0  0  0  0  0  0  0
   21.8841  -11.8901  -16.7155 O   0  0  0  0  0  0  0  0  0  0  0  0
   27.3623  -12.2409  -15.5711 C   0  0  0  0  0  0  0  0  0  0  0  0
   25.9242  -11.9356  -15.8321 C   0  0  0  0  0  0  0  0  0  0  0  0
   25.6757  -10.4430  -16.0336 C   0  0  2  0  0  0  0  0  0  0  0  0
   26.2417   -9.6284  -14.9285 C   0  0  0  0  0  0  0  0  0  0  0  0
   24.2173  -10.3090  -16.2991 C   0  0  2  0  0  0  0  0  0  0  0  0
   23.9187  -11.1087  -17.5113 N   0  0  0  0  0  0  0  0  0  0  0  0
   23.7067   -8.9409  -16.4512 C   0  0  0  0  0  0  0  0  0  0  0  0
   24.0988   -8.1822  -17.4159 O   0  0  0  0  0  0  0  0  0  0  0  0
   22.7795   -8.3629  -15.5912 N   0  0  0  0  0  0  0  0  0  0  0  0
   22.2699   -6.9693  -15.8026 C   0  0  1  0  0  0  0  0  0  0  0  0
   20.7735   -7.1265  -15.9375 C   0  0  0  0  0  0  0  0  0  0  0  0
   20.2994   -7.7315  -17.1710 C   0  0  0  0  0  0  0  0  0  0  0  0
   20.8113   -7.4843  -18.2685 O   0  0  0  0  0  0  0  0  0  0  0  0
   22.6422   -6.1594  -14.6283 C   0  0  0  0  0  0  0  0  0  0  0  0
   22.6097   -4.7903  -14.6625 O   0  0  0  0  0  0  0  0  0  0  0  0
   19.2118   -8.6297  -17.0712 O   0  0  0  0  0  0  0  0  0  0  0  0
   23.0005   -6.7234  -13.5646 O   0  0  0  0  0  0  0  0  0  0  0  0
  2  1  1  6
  2  3  1  0
  4  2  1  0
  4  6  1  0
  4  5  1  1
  6  7  2  0
  8  9  1  0
  9 10  1  0
 10 12  1  0
 10 11  1  1
 12 14  1  0
 12 13  1  6
 13  6  1  0
 14 16  1  0
 14 15  2  0
 16 17  1  0
 17 21  1  0
 17 18  1  1
 19 18  1  0
 20 19  2  0
 21 24  2  0
 21 22  1  0
 23 19  1  0
M  END
$$$$
