TID.pdb
     RDKit          3D

 24 23  0  0  1  0  0  0  0  0999 V2000
   22.2932  -13.8809  -21.1510 C   0  0  0  0  0  0  0  0  0  0  0  0
   22.3944  -13.0655  -19.8778 C   0  0  1  0  0  0  0  0  0  0  0  0
   21.1396  -12.6847  -19.4343 O   0  0  0  0  0  0  0  0  0  0  0  0
   23.2022  -13.7814  -18.8205 C   0  0  2  0  0  0  0  0  0  0  0  0
   22.5417  -15.0244  -18.5165 N   0  0  0  0  0  0  0  0  0  0  0  0
   23.4096  -12.9486  -17.6139 C   0  0  0  0  0  0  0  0  0  0  0  0
   22.5114  -12.9098  -16.7667 O   0  0  0  0  0  0  0  0  0  0  0  0
   28.1886  -12.7758  -15.6527 C   0  0  0  0  0  0  0  0  0  0  0  0
   26.7044  -12.6383  -15.7409 C   0  0  0  0  0  0  0  0  0  0  0  0
   26.2727  -11.2096  -16.0616 C   0  0  2  0  0  0  0  0  0  0  0  0
   26.7276  -10.2437  -15.0294 C   0  0  0  0  0  0  0  0  0  0  0  0
   24.8101  -11.2804  -16.3287 C   0  0  2  0  0  0  0  0  0  0  0  0
   24.6174  -12.2229  -17.4569 N   0  0  0  0  0  0  0  0  0  0  0  0
   24.1372  -10.0057  -16.6075 C   0  0  0  0  0  0  0  0  0  0  0  0
   24.2694   -9.4119  -17.7432 O   0  0  0  0  0  0  0  0  0  0  0  0
   23.3197   -9.3485  -15.6946 N   0  0  0  0  0  0  0  0  0  0  0  0
   22.6459   -8.0525  -16.0302 C   0  0  1  0  0  0  0  0  0  0  0  0
   21.7616   -8.3767  -17.2114 C   0  0  0  0  0  0  0  0  0  0  0  0
   20.8701   -7.3186  -17.6563 C   0  0  0  0  0  0  0  0  0  0  0  0
   19.6977   -7.2367  -17.2735 O   0  0  0  0  0  0  0  0  0  0  0  0
   21.8694   -7.6188  -14.8544 C   0  0  0  0  0  0  0  0  0  0  0  0
   21.3207   -6.3658  -14.7803 O   0  0  0  0  0  0  0  0  0  0  0  0
   21.3994   -6.3678  -18.5595 O   0  0  0  0  0  0  0  0  0  0  0  0
   21.6991   -8.4049  -13.8896 O   0  0  0  0  0  0  0  0  0  0  0  0
  2  1  1  6
  2  3  1  0
  4  2  1  0
  4  6  1  0
  4  5  1  1
  6  7  2  0
  8  9  1  0
  9 10  1  0
 10 12  1  0
 10 11  1  1
 12 14  1  0
 12 13  1  6
 13  6  1  0
 14 16  1  0
 14 15  2  0
 16 17  1  0
 17 21  1  0
 17 18  1  6
 19 18  1  0
 20 19  2  0
 21 24  2  0
 21 22  1  0
 23 19  1  0
M  END
$$$$
