TID.pdb
     RDKit          3D

 24 23  0  0  1  0  0  0  0  0999 V2000
   24.1226  -11.1006  -14.7937 C   0  0  0  0  0  0  0  0  0  0  0  0
   24.2346  -11.8758  -16.0907 C   0  0  1  0  0  0  0  0  0  0  0  0
   25.3257  -12.7273  -16.0645 O   0  0  0  0  0  0  0  0  0  0  0  0
   22.9429  -12.5818  -16.4312 C   0  0  2  0  0  0  0  0  0  0  0  0
   23.1697  -13.3938  -17.5986 N   0  0  0  0  0  0  0  0  0  0  0  0
   21.8192  -11.6358  -16.6177 C   0  0  0  0  0  0  0  0  0  0  0  0
   21.8521  -10.8698  -17.5863 O   0  0  0  0  0  0  0  0  0  0  0  0
   17.1339  -13.2907  -16.4977 C   0  0  0  0  0  0  0  0  0  0  0  0
   18.1730  -12.2471  -16.7440 C   0  0  0  0  0  0  0  0  0  0  0  0
   18.3761  -11.3351  -15.5368 C   0  0  2  0  0  0  0  0  0  0  0  0
   17.1785  -10.5024  -15.2583 C   0  0  0  0  0  0  0  0  0  0  0  0
   19.6587  -10.6207  -15.7821 C   0  0  2  0  0  0  0  0  0  0  0  0
   20.7433  -11.6279  -15.6945 N   0  0  0  0  0  0  0  0  0  0  0  0
   19.9475   -9.4815  -14.9023 C   0  0  0  0  0  0  0  0  0  0  0  0
   20.1585   -9.6442  -13.6417 O   0  0  0  0  0  0  0  0  0  0  0  0
   20.0179   -8.1644  -15.3427 N   0  0  0  0  0  0  0  0  0  0  0  0
   20.2488   -7.0273  -14.3942 C   0  0  1  0  0  0  0  0  0  0  0  0
   21.6571   -6.5657  -14.6871 C   0  0  0  0  0  0  0  0  0  0  0  0
   22.1159   -5.3970  -13.9550 C   0  0  0  0  0  0  0  0  0  0  0  0
   21.4080   -4.8168  -13.1245 O   0  0  0  0  0  0  0  0  0  0  0  0
   19.2489   -5.9813  -14.6764 C   0  0  0  0  0  0  0  0  0  0  0  0
   18.7972   -5.1383  -13.6957 O   0  0  0  0  0  0  0  0  0  0  0  0
   23.4245   -4.9373  -14.2304 O   0  0  0  0  0  0  0  0  0  0  0  0
   18.7903   -5.8483  -15.8383 O   0  0  0  0  0  0  0  0  0  0  0  0
  2  1  1  1
  2  3  1  0
  4  2  1  0
  4  6  1  0
  4  5  1  6
  6  7  2  0
  8  9  1  0
  9 10  1  0
 10 12  1  0
 10 11  1  6
 12 14  1  0
 12 13  1  1
 13  6  1  0
 14 16  1  0
 14 15  2  0
 16 17  1  0
 17 21  1  0
 17 18  1  6
 19 18  1  0
 20 19  2  0
 21 24  2  0
 21 22  1  0
 23 19  1  0
M  END
$$$$
