TID.pdb
     RDKit          3D

 24 23  0  0  1  0  0  0  0  0999 V2000
   24.1500   -5.4943  -18.6323 C   0  0  0  0  0  0  0  0  0  0  0  0
   23.9453   -6.6314  -19.6126 C   0  0  1  0  0  0  0  0  0  0  0  0
   24.9065   -6.6042  -20.6083 O   0  0  0  0  0  0  0  0  0  0  0  0
   23.8621   -7.9657  -18.9086 C   0  0  2  0  0  0  0  0  0  0  0  0
   23.7679   -8.9962  -19.9102 N   0  0  0  0  0  0  0  0  0  0  0  0
   22.7416   -8.0210  -17.9423 C   0  0  0  0  0  0  0  0  0  0  0  0
   21.5883   -8.0603  -18.3833 O   0  0  0  0  0  0  0  0  0  0  0  0
   23.3106  -11.0607  -13.9516 C   0  0  0  0  0  0  0  0  0  0  0  0
   22.6412  -10.1767  -14.9515 C   0  0  0  0  0  0  0  0  0  0  0  0
   22.3360   -8.7912  -14.3879 C   0  0  2  0  0  0  0  0  0  0  0  0
   21.4091   -8.8515  -13.2292 C   0  0  0  0  0  0  0  0  0  0  0  0
   21.9154   -7.9654  -15.5527 C   0  0  2  0  0  0  0  0  0  0  0  0
   23.0105   -8.0277  -16.5503 N   0  0  0  0  0  0  0  0  0  0  0  0
   21.5637   -6.5690  -15.2670 C   0  0  0  0  0  0  0  0  0  0  0  0
   22.3679   -5.7924  -14.6265 O   0  0  0  0  0  0  0  0  0  0  0  0
   20.3652   -5.9800  -15.6545 N   0  0  0  0  0  0  0  0  0  0  0  0
   20.0320   -4.5626  -15.2990 C   0  0  1  0  0  0  0  0  0  0  0  0
   20.3530   -3.7710  -16.5450 C   0  0  0  0  0  0  0  0  0  0  0  0
   20.0210   -2.3565  -16.5111 C   0  0  0  0  0  0  0  0  0  0  0  0
   19.5405   -1.8135  -15.5101 O   0  0  0  0  0  0  0  0  0  0  0  0
   18.6009   -4.4989  -14.9508 C   0  0  0  0  0  0  0  0  0  0  0  0
   18.1061   -3.5212  -14.1287 O   0  0  0  0  0  0  0  0  0  0  0  0
   20.2708   -1.6080  -17.6846 O   0  0  0  0  0  0  0  0  0  0  0  0
   17.8043   -5.3547  -15.4101 O   0  0  0  0  0  0  0  0  0  0  0  0
  2  1  1  1
  2  3  1  0
  4  2  1  0
  4  6  1  0
  4  5  1  6
  6  7  2  0
  8  9  1  0
  9 10  1  0
 10 12  1  0
 10 11  1  1
 12 14  1  0
 12 13  1  6
 13  6  1  0
 14 16  1  0
 14 15  2  0
 16 17  1  0
 17 21  1  0
 17 18  1  6
 19 18  1  0
 20 19  2  0
 21 24  2  0
 21 22  1  0
 23 19  1  0
M  END
$$$$
