TID.pdb
     RDKit          3D

 24 23  0  0  1  0  0  0  0  0999 V2000
   20.9054  -10.3203  -20.1937 C   0  0  0  0  0  0  0  0  0  0  0  0
   20.0518  -11.5572  -20.0004 C   0  0  1  0  0  0  0  0  0  0  0  0
   19.9532  -12.2783  -21.1779 O   0  0  0  0  0  0  0  0  0  0  0  0
   20.5344  -12.3908  -18.8363 C   0  0  2  0  0  0  0  0  0  0  0  0
   19.7413  -13.5918  -18.7853 N   0  0  0  0  0  0  0  0  0  0  0  0
   20.4997  -11.6431  -17.5587 C   0  0  0  0  0  0  0  0  0  0  0  0
   19.4005  -11.4108  -17.0449 O   0  0  0  0  0  0  0  0  0  0  0  0
   24.0033  -12.8715  -14.0845 C   0  0  0  0  0  0  0  0  0  0  0  0
   22.7831  -12.2865  -14.7156 C   0  0  0  0  0  0  0  0  0  0  0  0
   22.9099  -10.7814  -14.9370 C   0  0  2  0  0  0  0  0  0  0  0  0
   23.1552  -10.0491  -13.6687 C   0  0  0  0  0  0  0  0  0  0  0  0
   21.7124  -10.3878  -15.7286 C   0  0  2  0  0  0  0  0  0  0  0  0
   21.7109  -11.2150  -16.9590 N   0  0  0  0  0  0  0  0  0  0  0  0
   21.5972   -8.9645  -16.0699 C   0  0  0  0  0  0  0  0  0  0  0  0
   22.2512   -8.4566  -17.0569 O   0  0  0  0  0  0  0  0  0  0  0  0
   20.7923   -8.0671  -15.3768 N   0  0  0  0  0  0  0  0  0  0  0  0
   20.6773   -6.6307  -15.7886 C   0  0  1  0  0  0  0  0  0  0  0  0
   20.1708   -6.6807  -17.2110 C   0  0  0  0  0  0  0  0  0  0  0  0
   19.8286   -5.4046  -17.8166 C   0  0  0  0  0  0  0  0  0  0  0  0
   19.9959   -4.3287  -17.2317 O   0  0  0  0  0  0  0  0  0  0  0  0
   19.7252   -5.9656  -14.8804 C   0  0  0  0  0  0  0  0  0  0  0  0
   19.0865   -6.6537  -13.8829 O   0  0  0  0  0  0  0  0  0  0  0  0
   19.2873   -5.4361  -19.1227 O   0  0  0  0  0  0  0  0  0  0  0  0
   19.4830   -4.7402  -15.0125 O   0  0  0  0  0  0  0  0  0  0  0  0
  2  1  1  6
  2  3  1  0
  4  2  1  0
  4  6  1  0
  4  5  1  1
  6  7  2  0
  8  9  1  0
  9 10  1  0
 10 12  1  0
 10 11  1  1
 12 14  1  0
 12 13  1  6
 13  6  1  0
 14 16  1  0
 14 15  2  0
 16 17  1  0
 17 21  1  0
 17 18  1  6
 19 18  1  0
 20 19  2  0
 21 24  2  0
 21 22  1  0
 23 19  1  0
M  END
$$$$
