TID.pdb
     RDKit          3D

 24 23  0  0  1  0  0  0  0  0999 V2000
   26.6190  -18.7003  -15.8968 C   0  0  0  0  0  0  0  0  0  0  0  0
   27.2816  -19.9829  -16.3569 C   0  0  1  0  0  0  0  0  0  0  0  0
   28.3326  -19.7149  -17.2171 O   0  0  0  0  0  0  0  0  0  0  0  0
   27.6821  -20.8533  -15.1886 C   0  0  2  0  0  0  0  0  0  0  0  0
   28.4282  -21.9742  -15.6994 N   0  0  0  0  0  0  0  0  0  0  0  0
   26.5164  -21.2789  -14.3809 C   0  0  0  0  0  0  0  0  0  0  0  0
   25.7653  -22.1428  -14.8451 O   0  0  0  0  0  0  0  0  0  0  0  0
   27.1150  -20.8350   -9.1689 C   0  0  0  0  0  0  0  0  0  0  0  0
   26.6167  -21.2995  -10.4975 C   0  0  0  0  0  0  0  0  0  0  0  0
   25.3367  -20.5827  -10.9195 C   0  0  2  0  0  0  0  0  0  0  0  0
   24.2406  -20.7715   -9.9354 C   0  0  0  0  0  0  0  0  0  0  0  0
   25.0751  -21.0147  -12.3196 C   0  0  2  0  0  0  0  0  0  0  0  0
   26.2886  -20.6950  -13.1092 N   0  0  0  0  0  0  0  0  0  0  0  0
   23.8832  -20.4486  -12.9632 C   0  0  0  0  0  0  0  0  0  0  0  0
   23.8938  -19.2646  -13.4711 O   0  0  0  0  0  0  0  0  0  0  0  0
   22.6735  -21.1246  -13.0784 N   0  0  0  0  0  0  0  0  0  0  0  0
   21.5157  -20.5456  -13.8337 C   0  0  1  0  0  0  0  0  0  0  0  0
   21.9734  -20.5200  -15.2732 C   0  0  0  0  0  0  0  0  0  0  0  0
   20.9700  -20.1576  -16.2602 C   0  0  0  0  0  0  0  0  0  0  0  0
   20.0740  -19.3399  -16.0234 O   0  0  0  0  0  0  0  0  0  0  0  0
   20.3494  -21.4252  -13.6347 C   0  0  0  0  0  0  0  0  0  0  0  0
   20.4836  -22.6882  -13.1215 O   0  0  0  0  0  0  0  0  0  0  0  0
   21.0550  -20.7845  -17.5250 O   0  0  0  0  0  0  0  0  0  0  0  0
   19.1995  -21.0216  -13.9390 O   0  0  0  0  0  0  0  0  0  0  0  0
  2  1  1  1
  2  3  1  0
  4  2  1  0
  4  6  1  0
  4  5  1  6
  6  7  2  0
  8  9  1  0
  9 10  1  0
 10 12  1  0
 10 11  1  1
 12 14  1  0
 12 13  1  6
 13  6  1  0
 14 16  1  0
 14 15  2  0
 16 17  1  0
 17 21  1  0
 17 18  1  6
 19 18  1  0
 20 19  2  0
 21 24  2  0
 21 22  1  0
 23 19  1  0
M  END
$$$$
