TID.pdb
     RDKit          3D

 24 23  0  0  1  0  0  0  0  0999 V2000
   17.8703   -8.8662  -18.6037 C   0  0  0  0  0  0  0  0  0  0  0  0
   17.1535  -10.1211  -18.1481 C   0  0  1  0  0  0  0  0  0  0  0  0
   16.2814  -10.5733  -19.1234 O   0  0  0  0  0  0  0  0  0  0  0  0
   18.1258  -11.1820  -17.6877 C   0  0  2  0  0  0  0  0  0  0  0  0
   17.3734  -12.3599  -17.3410 N   0  0  0  0  0  0  0  0  0  0  0  0
   18.9785  -10.7144  -16.5711 C   0  0  0  0  0  0  0  0  0  0  0  0
   18.4506  -10.5215  -15.4711 O   0  0  0  0  0  0  0  0  0  0  0  0
   24.6011  -10.8299  -14.3695 C   0  0  0  0  0  0  0  0  0  0  0  0
   23.2915  -10.1320  -14.5347 C   0  0  0  0  0  0  0  0  0  0  0  0
   22.5126  -10.6398  -15.7454 C   0  0  2  0  0  0  0  0  0  0  0  0
   23.3175  -10.5808  -16.9920 C   0  0  0  0  0  0  0  0  0  0  0  0
   21.2215   -9.8992  -15.7342 C   0  0  2  0  0  0  0  0  0  0  0  0
   20.3639  -10.5007  -16.7835 N   0  0  0  0  0  0  0  0  0  0  0  0
   21.3043   -8.4445  -15.9140 C   0  0  0  0  0  0  0  0  0  0  0  0
   21.7473   -7.9282  -17.0082 O   0  0  0  0  0  0  0  0  0  0  0  0
   20.9201   -7.5238  -14.9455 N   0  0  0  0  0  0  0  0  0  0  0  0
   21.0421   -6.0469  -15.1692 C   0  0  1  0  0  0  0  0  0  0  0  0
   19.6169   -5.5474  -15.2066 C   0  0  0  0  0  0  0  0  0  0  0  0
   19.4424   -4.1055  -15.2601 C   0  0  0  0  0  0  0  0  0  0  0  0
   18.7382   -3.4938  -14.4492 O   0  0  0  0  0  0  0  0  0  0  0  0
   21.8054   -5.4722  -14.0464 C   0  0  0  0  0  0  0  0  0  0  0  0
   22.1739   -6.2313  -12.9673 O   0  0  0  0  0  0  0  0  0  0  0  0
   20.1182   -3.4129  -16.2912 O   0  0  0  0  0  0  0  0  0  0  0  0
   22.1319   -4.2594  -14.0648 O   0  0  0  0  0  0  0  0  0  0  0  0
  2  1  1  6
  2  3  1  0
  4  2  1  0
  4  6  1  0
  4  5  1  1
  6  7  2  0
  8  9  1  0
  9 10  1  0
 10 12  1  0
 10 11  1  6
 12 14  1  0
 12 13  1  6
 13  6  1  0
 14 16  1  0
 14 15  2  0
 16 17  1  0
 17 21  1  0
 17 18  1  1
 19 18  1  0
 20 19  2  0
 21 24  2  0
 21 22  1  0
 23 19  1  0
M  END
$$$$
