TID.pdb
     RDKit          3D

 24 23  0  0  1  0  0  0  0  0999 V2000
   18.3944   -8.1479  -18.6918 C   0  0  0  0  0  0  0  0  0  0  0  0
   17.5386   -9.2966  -18.1979 C   0  0  1  0  0  0  0  0  0  0  0  0
   16.6879   -9.7428  -19.1946 O   0  0  0  0  0  0  0  0  0  0  0  0
   18.3792  -10.4011  -17.6010 C   0  0  2  0  0  0  0  0  0  0  0  0
   17.5120  -11.5094  -17.2952 N   0  0  0  0  0  0  0  0  0  0  0  0
   19.1440   -9.9464  -16.4175 C   0  0  0  0  0  0  0  0  0  0  0  0
   18.5196   -9.6559  -15.3919 O   0  0  0  0  0  0  0  0  0  0  0  0
   21.5453  -11.7044  -13.5990 C   0  0  0  0  0  0  0  0  0  0  0  0
   22.1072  -11.5442  -14.9731 C   0  0  0  0  0  0  0  0  0  0  0  0
   22.5829  -10.1188  -15.2423 C   0  0  2  0  0  0  0  0  0  0  0  0
   23.6017   -9.6747  -14.2573 C   0  0  0  0  0  0  0  0  0  0  0  0
   21.3477   -9.2967  -15.3603 C   0  0  2  0  0  0  0  0  0  0  0  0
   20.5573   -9.8549  -16.4836 N   0  0  0  0  0  0  0  0  0  0  0  0
   21.5420   -7.8527  -15.5405 C   0  0  0  0  0  0  0  0  0  0  0  0
   22.2607   -7.3878  -16.5035 O   0  0  0  0  0  0  0  0  0  0  0  0
   20.9804   -6.8887  -14.7106 N   0  0  0  0  0  0  0  0  0  0  0  0
   21.2202   -5.4252  -14.9273 C   0  0  1  0  0  0  0  0  0  0  0  0
   19.8609   -4.7871  -14.7620 C   0  0  0  0  0  0  0  0  0  0  0  0
   18.8948   -5.0507  -15.8152 C   0  0  0  0  0  0  0  0  0  0  0  0
   19.1856   -4.9742  -17.0141 O   0  0  0  0  0  0  0  0  0  0  0  0
   22.1820   -4.9603  -13.9113 C   0  0  0  0  0  0  0  0  0  0  0  0
   22.8087   -3.7471  -14.0198 O   0  0  0  0  0  0  0  0  0  0  0  0
   17.5855   -5.4041  -15.4144 O   0  0  0  0  0  0  0  0  0  0  0  0
   22.4441   -5.6828  -12.9177 O   0  0  0  0  0  0  0  0  0  0  0  0
  2  1  1  6
  2  3  1  0
  4  2  1  0
  4  6  1  0
  4  5  1  1
  6  7  2  0
  8  9  1  0
  9 10  1  0
 10 12  1  0
 10 11  1  1
 12 14  1  0
 12 13  1  6
 13  6  1  0
 14 16  1  0
 14 15  2  0
 16 17  1  0
 17 21  1  0
 17 18  1  1
 19 18  1  0
 20 19  2  0
 21 24  2  0
 21 22  1  0
 23 19  1  0
M  END
$$$$
