FVQ.pdb
     RDKit          3D

 28 28  0  0  1  0  0  0  0  0999 V2000
   22.2755  -20.5695  -13.6692 N   0  0  0  0  0  0  0  0  0  0  0  0
   21.3083  -20.2459  -12.6639 C   0  0  1  0  0  0  0  0  0  0  0  0
   19.9189  -20.3216  -13.2562 C   0  0  0  0  0  0  0  0  0  0  0  0
   19.6429  -19.2819  -14.2737 C   0  0  0  0  0  0  0  0  0  0  0  0
   19.4764  -17.9617  -14.0053 C   0  0  0  0  0  0  0  0  0  0  0  0
   19.2254  -17.0148  -14.9999 C   0  0  0  0  0  0  0  0  0  0  0  0
   19.1444  -17.4357  -16.2951 C   0  0  0  0  0  0  0  0  0  0  0  0
   19.3114  -18.7811  -16.5896 C   0  0  0  0  0  0  0  0  0  0  0  0
   19.5590  -19.7034  -15.6012 C   0  0  0  0  0  0  0  0  0  0  0  0
   21.3374  -21.2705  -11.5736 C   0  0  0  0  0  0  0  0  0  0  0  0
   21.5893  -22.4520  -11.8666 O   0  0  0  0  0  0  0  0  0  0  0  0
   21.7716  -20.1084   -7.3702 C   0  0  0  0  0  0  0  0  0  0  0  0
   22.2047  -21.3665   -8.1127 C   0  0  2  0  0  0  0  0  0  0  0  0
   23.6090  -21.2364   -8.6011 C   0  0  0  0  0  0  0  0  0  0  0  0
   21.1896  -21.7658   -9.1095 C   0  0  2  0  0  0  0  0  0  0  0  0
   21.0828  -20.8924  -10.2233 N   0  0  0  0  0  0  0  0  0  0  0  0
   19.8652  -22.1659   -8.5568 C   0  0  0  0  0  0  0  0  0  0  0  0
   18.9002  -21.3621   -8.4777 O   0  0  0  0  0  0  0  0  0  0  0  0
   14.9839  -24.8634   -9.3558 N   0  0  0  0  0  0  0  0  0  0  0  0
   16.1507  -24.8982  -10.1898 C   0  0  0  0  0  0  0  0  0  0  0  0
   15.8806  -24.8701  -11.4365 O   0  0  0  0  0  0  0  0  0  0  0  0
   17.5183  -24.9607   -9.6401 C   0  0  0  0  0  0  0  0  0  0  0  0
   17.5988  -24.9500   -8.1535 C   0  0  0  0  0  0  0  0  0  0  0  0
   18.3114  -23.8292   -7.5166 C   0  0  2  0  0  0  0  0  0  0  0  0
   19.6089  -23.5003   -8.0666 N   0  0  0  0  0  0  0  0  0  0  0  0
   18.3499  -23.9170   -6.0112 C   0  0  0  0  0  0  0  0  0  0  0  0
   17.2309  -23.8900   -5.2063 O   0  0  0  0  0  0  0  0  0  0  0  0
   19.4715  -24.0179   -5.4745 O   0  0  0  0  0  0  0  0  0  0  0  0
  2  1  1  6
  2 10  1  0
  2  3  1  0
  4  9  2  0
  4  3  1  0
  5  4  1  0
  6  7  1  0
  6  5  2  0
  7  8  2  0
  8  9  1  0
 10 11  2  0
 13 12  1  6
 14 13  1  0
 15 13  1  0
 15 16  1  6
 16 10  1  0
 17 18  2  0
 17 15  1  0
 19 20  1  0
 20 21  2  0
 22 20  1  0
 22 23  1  0
 24 23  1  6
 24 26  1  0
 24 25  1  0
 25 17  1  0
 26 27  1  0
 28 26  2  0
M  END
$$$$
