FVQ.pdb
     RDKit          3D

 28 28  0  0  1  0  0  0  0  0999 V2000
   24.4365  -12.5556  -20.4770 N   0  0  0  0  0  0  0  0  0  0  0  0
   25.0840  -11.3867  -19.9618 C   0  0  1  0  0  0  0  0  0  0  0  0
   24.8602  -10.2271  -20.9065 C   0  0  0  0  0  0  0  0  0  0  0  0
   25.5551  -10.3694  -22.2064 C   0  0  0  0  0  0  0  0  0  0  0  0
   26.8455  -10.7637  -22.3547 C   0  0  0  0  0  0  0  0  0  0  0  0
   27.4572  -10.8915  -23.6029 C   0  0  0  0  0  0  0  0  0  0  0  0
   26.7260  -10.6081  -24.7192 C   0  0  0  0  0  0  0  0  0  0  0  0
   25.4055  -10.2033  -24.5883 C   0  0  0  0  0  0  0  0  0  0  0  0
   24.8145  -10.0822  -23.3535 C   0  0  0  0  0  0  0  0  0  0  0  0
   24.4541  -10.9784  -18.6672 C   0  0  0  0  0  0  0  0  0  0  0  0
   23.3096  -11.3845  -18.4020 O   0  0  0  0  0  0  0  0  0  0  0  0
   26.7878  -10.0044  -15.1663 C   0  0  0  0  0  0  0  0  0  0  0  0
   25.3600  -10.5019  -15.3544 C   0  0  2  0  0  0  0  0  0  0  0  0
   25.3202  -11.9932  -15.3995 C   0  0  0  0  0  0  0  0  0  0  0  0
   24.6943   -9.7863  -16.4627 C   0  0  2  0  0  0  0  0  0  0  0  0
   25.1601  -10.1404  -17.7560 N   0  0  0  0  0  0  0  0  0  0  0  0
   24.5444   -8.3150  -16.2827 C   0  0  0  0  0  0  0  0  0  0  0  0
   25.2144   -7.4852  -16.9505 O   0  0  0  0  0  0  0  0  0  0  0  0
   22.6019   -4.3106  -19.0264 N   0  0  0  0  0  0  0  0  0  0  0  0
   22.5567   -3.5702  -17.7984 C   0  0  0  0  0  0  0  0  0  0  0  0
   22.2126   -2.3517  -17.9565 O   0  0  0  0  0  0  0  0  0  0  0  0
   22.8802   -4.1765  -16.4929 C   0  0  0  0  0  0  0  0  0  0  0  0
   23.2021   -5.6294  -16.5377 C   0  0  0  0  0  0  0  0  0  0  0  0
   23.4461   -6.3142  -15.2566 C   0  0  2  0  0  0  0  0  0  0  0  0
   23.6269   -7.7484  -15.3216 N   0  0  0  0  0  0  0  0  0  0  0  0
   22.4757   -5.9231  -14.1699 C   0  0  0  0  0  0  0  0  0  0  0  0
   22.5022   -4.7139  -13.5080 O   0  0  0  0  0  0  0  0  0  0  0  0
   21.6012   -6.7568  -13.8593 O   0  0  0  0  0  0  0  0  0  0  0  0
  2  1  1  6
  2 10  1  0
  2  3  1  0
  4  9  2  0
  4  3  1  0
  5  4  1  0
  6  7  1  0
  6  5  2  0
  7  8  2  0
  8  9  1  0
 10 11  2  0
 13 12  1  6
 14 13  1  0
 15 13  1  0
 15 16  1  6
 16 10  1  0
 17 18  2  0
 17 15  1  0
 19 20  1  0
 20 21  2  0
 22 20  1  0
 22 23  1  0
 24 23  1  6
 24 26  1  0
 24 25  1  0
 25 17  1  0
 26 27  1  0
 28 26  2  0
M  END
$$$$
