FVQ.pdb
     RDKit          3D

 28 28  0  0  1  0  0  0  0  0999 V2000
   26.1655  -10.9455  -18.1667 N   0  0  0  0  0  0  0  0  0  0  0  0
   25.9159  -10.4563  -16.8441 C   0  0  1  0  0  0  0  0  0  0  0  0
   26.5882   -9.1133  -16.6667 C   0  0  0  0  0  0  0  0  0  0  0  0
   28.0187   -9.1032  -17.0489 C   0  0  0  0  0  0  0  0  0  0  0  0
   28.5945   -8.1853  -17.8665 C   0  0  0  0  0  0  0  0  0  0  0  0
   29.9515   -8.2109  -18.1932 C   0  0  0  0  0  0  0  0  0  0  0  0
   30.7298   -9.2004  -17.6678 C   0  0  0  0  0  0  0  0  0  0  0  0
   30.1597  -10.1481  -16.8301 C   0  0  0  0  0  0  0  0  0  0  0  0
   28.8223  -10.1113  -16.5155 C   0  0  0  0  0  0  0  0  0  0  0  0
   24.4530  -10.2019  -16.6575 C   0  0  0  0  0  0  0  0  0  0  0  0
   23.7199  -10.1509  -17.6601 O   0  0  0  0  0  0  0  0  0  0  0  0
   22.2924  -12.1974  -14.2898 C   0  0  0  0  0  0  0  0  0  0  0  0
   22.0255  -10.7293  -13.9811 C   0  0  2  0  0  0  0  0  0  0  0  0
   20.6060  -10.5245  -13.5681 C   0  0  0  0  0  0  0  0  0  0  0  0
   22.5333   -9.8623  -15.0645 C   0  0  2  0  0  0  0  0  0  0  0  0
   23.9142  -10.0246  -15.3502 N   0  0  0  0  0  0  0  0  0  0  0  0
   22.1195   -8.4328  -14.9941 C   0  0  0  0  0  0  0  0  0  0  0  0
   22.4844   -7.6735  -14.0592 O   0  0  0  0  0  0  0  0  0  0  0  0
   21.0193   -4.0780  -19.5266 N   0  0  0  0  0  0  0  0  0  0  0  0
   20.5359   -3.4890  -18.3110 C   0  0  0  0  0  0  0  0  0  0  0  0
   20.1185   -2.2927  -18.4615 O   0  0  0  0  0  0  0  0  0  0  0  0
   20.5311   -4.2121  -17.0251 C   0  0  0  0  0  0  0  0  0  0  0  0
   20.9559   -5.6368  -17.1041 C   0  0  0  0  0  0  0  0  0  0  0  0
   20.8870   -6.4389  -15.8705 C   0  0  2  0  0  0  0  0  0  0  0  0
   21.2639   -7.8309  -15.9902 N   0  0  0  0  0  0  0  0  0  0  0  0
   19.5908   -6.2750  -15.1167 C   0  0  0  0  0  0  0  0  0  0  0  0
   18.5667   -7.1981  -15.1296 O   0  0  0  0  0  0  0  0  0  0  0  0
   19.4493   -5.2329  -14.4456 O   0  0  0  0  0  0  0  0  0  0  0  0
  2  1  1  6
  2 10  1  0
  2  3  1  0
  4  9  2  0
  4  3  1  0
  5  4  1  0
  6  7  1  0
  6  5  2  0
  7  8  2  0
  8  9  1  0
 10 11  2  0
 13 12  1  6
 14 13  1  0
 15 13  1  0
 15 16  1  1
 16 10  1  0
 17 18  2  0
 17 15  1  0
 19 20  1  0
 20 21  2  0
 22 20  1  0
 22 23  1  0
 24 23  1  6
 24 26  1  0
 24 25  1  0
 25 17  1  0
 26 27  1  0
 28 26  2  0
M  END
$$$$
