FVQ.pdb
     RDKit          3D

 28 28  0  0  1  0  0  0  0  0999 V2000
   23.5268  -11.2183  -16.6831 N   0  0  0  0  0  0  0  0  0  0  0  0
   22.9597  -10.2017  -15.8489 C   0  0  1  0  0  0  0  0  0  0  0  0
   23.8925   -9.0125  -15.7963 C   0  0  0  0  0  0  0  0  0  0  0  0
   25.3280   -9.3738  -15.8345 C   0  0  0  0  0  0  0  0  0  0  0  0
   26.1699   -9.0908  -16.8610 C   0  0  0  0  0  0  0  0  0  0  0  0
   27.5203   -9.4446  -16.8495 C   0  0  0  0  0  0  0  0  0  0  0  0
   28.0126  -10.1020  -15.7602 C   0  0  0  0  0  0  0  0  0  0  0  0
   27.1678  -10.4004  -14.7009 C   0  0  0  0  0  0  0  0  0  0  0  0
   25.8402  -10.0458  -14.7241 C   0  0  0  0  0  0  0  0  0  0  0  0
   21.6895   -9.6905  -16.4527 C   0  0  0  0  0  0  0  0  0  0  0  0
   21.2452  -10.2430  -17.4738 O   0  0  0  0  0  0  0  0  0  0  0  0
   18.2012   -9.6320  -15.0446 C   0  0  0  0  0  0  0  0  0  0  0  0
   18.7033   -9.1800  -16.4104 C   0  0  2  0  0  0  0  0  0  0  0  0
   19.0622  -10.3547  -17.2582 C   0  0  0  0  0  0  0  0  0  0  0  0
   19.7271   -8.1235  -16.2722 C   0  0  2  0  0  0  0  0  0  0  0  0
   21.0031   -8.5904  -15.8613 N   0  0  0  0  0  0  0  0  0  0  0  0
   19.2953   -6.8981  -15.5432 C   0  0  0  0  0  0  0  0  0  0  0  0
   19.5535   -6.7155  -14.3252 O   0  0  0  0  0  0  0  0  0  0  0  0
   17.0387   -1.2009  -17.4726 N   0  0  0  0  0  0  0  0  0  0  0  0
   17.4637   -1.0470  -16.1111 C   0  0  0  0  0  0  0  0  0  0  0  0
   17.2013    0.1045  -15.6279 O   0  0  0  0  0  0  0  0  0  0  0  0
   18.1361   -2.1255  -15.3620 C   0  0  0  0  0  0  0  0  0  0  0  0
   18.3788   -3.3725  -16.1383 C   0  0  0  0  0  0  0  0  0  0  0  0
   18.1858   -4.6571  -15.4440 C   0  0  2  0  0  0  0  0  0  0  0  0
   18.5431   -5.8464  -16.1871 N   0  0  0  0  0  0  0  0  0  0  0  0
   16.8322   -4.7925  -14.7922 C   0  0  0  0  0  0  0  0  0  0  0  0
   15.8084   -5.5702  -15.2902 O   0  0  0  0  0  0  0  0  0  0  0  0
   16.6404   -4.1533  -13.7382 O   0  0  0  0  0  0  0  0  0  0  0  0
  2  1  1  6
  2 10  1  0
  2  3  1  0
  4  9  2  0
  4  3  1  0
  5  4  1  0
  6  7  1  0
  6  5  2  0
  7  8  2  0
  8  9  1  0
 10 11  2  0
 13 12  1  1
 14 13  1  0
 15 13  1  0
 15 16  1  1
 16 10  1  0
 17 18  2  0
 17 15  1  0
 19 20  1  0
 20 21  2  0
 22 20  1  0
 22 23  1  0
 24 23  1  6
 24 26  1  0
 24 25  1  0
 25 17  1  0
 26 27  1  0
 28 26  2  0
M  END
$$$$
