FVQ.pdb
     RDKit          3D

 28 28  0  0  1  0  0  0  0  0999 V2000
   28.9001  -23.4474  -16.5270 N   0  0  0  0  0  0  0  0  0  0  0  0
   28.6017  -22.2115  -17.1861 C   0  0  1  0  0  0  0  0  0  0  0  0
   27.8122  -22.4884  -18.4459 C   0  0  0  0  0  0  0  0  0  0  0  0
   28.6143  -23.0865  -19.5374 C   0  0  0  0  0  0  0  0  0  0  0  0
   29.4488  -22.3935  -20.3535 C   0  0  0  0  0  0  0  0  0  0  0  0
   30.1925  -23.0023  -21.3660 C   0  0  0  0  0  0  0  0  0  0  0  0
   30.0746  -24.3501  -21.5409 C   0  0  0  0  0  0  0  0  0  0  0  0
   29.2266  -25.0759  -20.7169 C   0  0  0  0  0  0  0  0  0  0  0  0
   28.5004  -24.4647  -19.7230 C   0  0  0  0  0  0  0  0  0  0  0  0
   27.7078  -21.3733  -16.3270 C   0  0  0  0  0  0  0  0  0  0  0  0
   27.1442  -21.9011  -15.3528 O   0  0  0  0  0  0  0  0  0  0  0  0
   26.4905  -16.8912  -14.7626 C   0  0  0  0  0  0  0  0  0  0  0  0
   27.4528  -17.8955  -15.3848 C   0  0  2  0  0  0  0  0  0  0  0  0
   28.3400  -17.2303  -16.3837 C   0  0  0  0  0  0  0  0  0  0  0  0
   26.7332  -19.1043  -15.8371 C   0  0  2  0  0  0  0  0  0  0  0  0
   27.5119  -19.9932  -16.6234 N   0  0  0  0  0  0  0  0  0  0  0  0
   25.3728  -18.8728  -16.3986 C   0  0  0  0  0  0  0  0  0  0  0  0
   25.1910  -18.5090  -17.5895 O   0  0  0  0  0  0  0  0  0  0  0  0
   23.5106  -21.8359  -19.6531 N   0  0  0  0  0  0  0  0  0  0  0  0
   22.1957  -21.8276  -19.0795 C   0  0  0  0  0  0  0  0  0  0  0  0
   21.3051  -22.3151  -19.8523 O   0  0  0  0  0  0  0  0  0  0  0  0
   21.9219  -21.3025  -17.7282 C   0  0  0  0  0  0  0  0  0  0  0  0
   23.1170  -20.8029  -16.9945 C   0  0  0  0  0  0  0  0  0  0  0  0
   22.9721  -19.5571  -16.2220 C   0  0  2  0  0  0  0  0  0  0  0  0
   24.1763  -19.0414  -15.6071 N   0  0  0  0  0  0  0  0  0  0  0  0
   21.8168  -19.5802  -15.2524 C   0  0  0  0  0  0  0  0  0  0  0  0
   21.9322  -19.3095  -13.9054 O   0  0  0  0  0  0  0  0  0  0  0  0
   20.6926  -19.8659  -15.7117 O   0  0  0  0  0  0  0  0  0  0  0  0
  2  1  1  1
  2 10  1  0
  2  3  1  0
  4  9  2  0
  4  3  1  0
  5  4  1  0
  6  7  1  0
  6  5  2  0
  7  8  2  0
  8  9  1  0
 10 11  2  0
 13 12  1  6
 14 13  1  0
 15 13  1  0
 15 16  1  6
 16 10  1  0
 17 18  2  0
 17 15  1  0
 19 20  1  0
 20 21  2  0
 22 20  1  0
 22 23  1  0
 24 23  1  1
 24 26  1  0
 24 25  1  0
 25 17  1  0
 26 27  1  0
 28 26  2  0
M  END
$$$$
