FVQ.pdb
     RDKit          3D

 28 28  0  0  1  0  0  0  0  0999 V2000
   27.1592  -22.2575  -10.9835 N   0  0  0  0  0  0  0  0  0  0  0  0
   26.2984  -21.2827  -10.3840 C   0  0  1  0  0  0  0  0  0  0  0  0
   27.0329  -19.9663  -10.2622 C   0  0  0  0  0  0  0  0  0  0  0  0
   27.6012  -19.7184   -8.9176 C   0  0  0  0  0  0  0  0  0  0  0  0
   27.0641  -18.8823   -7.9929 C   0  0  0  0  0  0  0  0  0  0  0  0
   27.6315  -18.6857   -6.7327 C   0  0  0  0  0  0  0  0  0  0  0  0
   28.7735  -19.3631   -6.4191 C   0  0  0  0  0  0  0  0  0  0  0  0
   29.3378  -20.2221   -7.3510 C   0  0  0  0  0  0  0  0  0  0  0  0
   28.7688  -20.4076   -8.5882 C   0  0  0  0  0  0  0  0  0  0  0  0
   25.1293  -21.0101  -11.2775 C   0  0  0  0  0  0  0  0  0  0  0  0
   25.1957  -21.3464  -12.4724 O   0  0  0  0  0  0  0  0  0  0  0  0
   21.3549  -19.3041   -9.5744 C   0  0  0  0  0  0  0  0  0  0  0  0
   21.6276  -20.6949  -10.1340 C   0  0  2  0  0  0  0  0  0  0  0  0
   21.8718  -21.6709   -9.0316 C   0  0  0  0  0  0  0  0  0  0  0  0
   22.6397  -20.6411  -11.2092 C   0  0  2  0  0  0  0  0  0  0  0  0
   23.9608  -20.3781  -10.7615 N   0  0  0  0  0  0  0  0  0  0  0  0
   22.2640  -19.8424  -12.4094 C   0  0  0  0  0  0  0  0  0  0  0  0
   22.5429  -18.6199  -12.5166 O   0  0  0  0  0  0  0  0  0  0  0  0
   21.9141  -21.1905  -18.5938 N   0  0  0  0  0  0  0  0  0  0  0  0
   23.0098  -20.8123  -17.7486 C   0  0  0  0  0  0  0  0  0  0  0  0
   24.1505  -20.9864  -18.2933 O   0  0  0  0  0  0  0  0  0  0  0  0
   22.8153  -20.2775  -16.3875 C   0  0  0  0  0  0  0  0  0  0  0  0
   21.3945  -20.1058  -15.9772 C   0  0  0  0  0  0  0  0  0  0  0  0
   21.1329  -19.5803  -14.6263 C   0  0  2  0  0  0  0  0  0  0  0  0
   21.5458  -20.4194  -13.5220 N   0  0  0  0  0  0  0  0  0  0  0  0
   19.7265  -19.0671  -14.4412 C   0  0  0  0  0  0  0  0  0  0  0  0
   19.2227  -17.9482  -15.0698 O   0  0  0  0  0  0  0  0  0  0  0  0
   18.9846  -19.7037  -13.6661 O   0  0  0  0  0  0  0  0  0  0  0  0
  2  1  1  6
  2 10  1  0
  2  3  1  0
  4  9  2  0
  4  3  1  0
  5  4  1  0
  6  7  1  0
  6  5  2  0
  7  8  2  0
  8  9  1  0
 10 11  2  0
 13 12  1  1
 14 13  1  0
 15 13  1  0
 15 16  1  1
 16 10  1  0
 17 18  2  0
 17 15  1  0
 19 20  1  0
 20 21  2  0
 22 20  1  0
 22 23  1  0
 24 23  1  6
 24 26  1  0
 24 25  1  0
 25 17  1  0
 26 27  1  0
 28 26  2  0
M  END
$$$$
