FVQ.pdb
     RDKit          3D

 28 28  0  0  1  0  0  0  0  0999 V2000
   27.7182  -21.1038  -16.3130 N   0  0  0  0  0  0  0  0  0  0  0  0
   27.1106  -20.1882  -15.3946 C   0  0  1  0  0  0  0  0  0  0  0  0
   26.3565  -19.1267  -16.1637 C   0  0  0  0  0  0  0  0  0  0  0  0
   27.2239  -18.2462  -16.9790 C   0  0  0  0  0  0  0  0  0  0  0  0
   28.1071  -17.3476  -16.4739 C   0  0  0  0  0  0  0  0  0  0  0  0
   28.9115  -16.5428  -17.2827 C   0  0  0  0  0  0  0  0  0  0  0  0
   28.8041  -16.6662  -18.6371 C   0  0  0  0  0  0  0  0  0  0  0  0
   27.9070  -17.5789  -19.1727 C   0  0  0  0  0  0  0  0  0  0  0  0
   27.1212  -18.3661  -18.3654 C   0  0  0  0  0  0  0  0  0  0  0  0
   26.0816  -20.8946  -14.5692 C   0  0  0  0  0  0  0  0  0  0  0  0
   25.5242  -21.9021  -15.0379 O   0  0  0  0  0  0  0  0  0  0  0  0
   25.0417  -19.7623  -10.2924 C   0  0  0  0  0  0  0  0  0  0  0  0
   25.2318  -21.1047  -10.9876 C   0  0  2  0  0  0  0  0  0  0  0  0
   26.5962  -21.6493  -10.7241 C   0  0  0  0  0  0  0  0  0  0  0  0
   24.8084  -21.0306  -12.4014 C   0  0  2  0  0  0  0  0  0  0  0  0
   25.7520  -20.4181  -13.2671 N   0  0  0  0  0  0  0  0  0  0  0  0
   23.4151  -20.5569  -12.6335 C   0  0  0  0  0  0  0  0  0  0  0  0
   23.1078  -19.3368  -12.6078 O   0  0  0  0  0  0  0  0  0  0  0  0
   19.1577  -20.3939  -17.2250 N   0  0  0  0  0  0  0  0  0  0  0  0
   18.9000  -19.8470  -15.9240 C   0  0  0  0  0  0  0  0  0  0  0  0
   18.5419  -18.6226  -15.9535 O   0  0  0  0  0  0  0  0  0  0  0  0
   19.0413  -20.6387  -14.6873 C   0  0  0  0  0  0  0  0  0  0  0  0
   20.4084  -21.1719  -14.4356 C   0  0  0  0  0  0  0  0  0  0  0  0
   20.9891  -20.9575  -13.0990 C   0  0  2  0  0  0  0  0  0  0  0  0
   22.3264  -21.4703  -12.8924 N   0  0  0  0  0  0  0  0  0  0  0  0
   20.0641  -21.3421  -11.9712 C   0  0  0  0  0  0  0  0  0  0  0  0
   20.2995  -22.3835  -11.0990 O   0  0  0  0  0  0  0  0  0  0  0  0
   19.0235  -20.6682  -11.8324 O   0  0  0  0  0  0  0  0  0  0  0  0
  2  1  1  6
  2 10  1  0
  2  3  1  0
  4  9  2  0
  4  3  1  0
  5  4  1  0
  6  7  1  0
  6  5  2  0
  7  8  2  0
  8  9  1  0
 10 11  2  0
 13 12  1  6
 14 13  1  0
 15 13  1  0
 15 16  1  6
 16 10  1  0
 17 18  2  0
 17 15  1  0
 19 20  1  0
 20 21  2  0
 22 20  1  0
 22 23  1  0
 24 23  1  6
 24 26  1  0
 24 25  1  0
 25 17  1  0
 26 27  1  0
 28 26  2  0
M  END
$$$$
