FVQ.pdb
     RDKit          3D

 28 28  0  0  1  0  0  0  0  0999 V2000
   28.1415  -21.0906   -8.6771 N   0  0  0  0  0  0  0  0  0  0  0  0
   26.7704  -20.6896   -8.5762 C   0  0  1  0  0  0  0  0  0  0  0  0
   26.6660  -19.4620   -7.6992 C   0  0  0  0  0  0  0  0  0  0  0  0
   27.5462  -19.4982   -6.5090 C   0  0  0  0  0  0  0  0  0  0  0  0
   28.8195  -19.0291   -6.4740 C   0  0  0  0  0  0  0  0  0  0  0  0
   29.6106  -19.0772   -5.3248 C   0  0  0  0  0  0  0  0  0  0  0  0
   29.0801  -19.6185   -4.1905 C   0  0  0  0  0  0  0  0  0  0  0  0
   27.7804  -20.1037   -4.2063 C   0  0  0  0  0  0  0  0  0  0  0  0
   27.0115  -20.0496   -5.3442 C   0  0  0  0  0  0  0  0  0  0  0  0
   26.2572  -20.2704   -9.9180 C   0  0  0  0  0  0  0  0  0  0  0  0
   26.4685  -19.1082  -10.3053 O   0  0  0  0  0  0  0  0  0  0  0  0
   27.3583  -21.7116  -12.9467 C   0  0  0  0  0  0  0  0  0  0  0  0
   25.8436  -21.8221  -13.0700 C   0  0  2  0  0  0  0  0  0  0  0  0
   25.4162  -21.6791  -14.4929 C   0  0  0  0  0  0  0  0  0  0  0  0
   25.1697  -20.9520  -12.0840 C   0  0  2  0  0  0  0  0  0  0  0  0
   25.5415  -21.1927  -10.7354 N   0  0  0  0  0  0  0  0  0  0  0  0
   23.6988  -20.7950  -12.2611 C   0  0  0  0  0  0  0  0  0  0  0  0
   22.8694  -21.5492  -11.6894 O   0  0  0  0  0  0  0  0  0  0  0  0
   19.4150  -17.8293  -11.1140 N   0  0  0  0  0  0  0  0  0  0  0  0
   18.8248  -18.0303  -12.4061 C   0  0  0  0  0  0  0  0  0  0  0  0
   17.5511  -17.9549  -12.3960 O   0  0  0  0  0  0  0  0  0  0  0  0
   19.6288  -18.2968  -13.6139 C   0  0  0  0  0  0  0  0  0  0  0  0
   21.0974  -18.3821  -13.3846 C   0  0  0  0  0  0  0  0  0  0  0  0
   21.7018  -19.7239  -13.3229 C   0  0  2  0  0  0  0  0  0  0  0  0
   23.1322  -19.7725  -13.1096 N   0  0  0  0  0  0  0  0  0  0  0  0
   21.2751  -20.6295  -14.4513 C   0  0  0  0  0  0  0  0  0  0  0  0
   21.8673  -20.6452  -15.6962 O   0  0  0  0  0  0  0  0  0  0  0  0
   20.3241  -21.4061  -14.2306 O   0  0  0  0  0  0  0  0  0  0  0  0
  2  1  1  6
  2 10  1  0
  2  3  1  0
  4  9  2  0
  4  3  1  0
  5  4  1  0
  6  7  1  0
  6  5  2  0
  7  8  2  0
  8  9  1  0
 10 11  2  0
 13 12  1  6
 14 13  1  0
 15 13  1  0
 15 16  1  1
 16 10  1  0
 17 18  2  0
 17 15  1  0
 19 20  1  0
 20 21  2  0
 22 20  1  0
 22 23  1  0
 24 23  1  6
 24 26  1  0
 24 25  1  0
 25 17  1  0
 26 27  1  0
 28 26  2  0
M  END
$$$$
