FVQ.pdb
     RDKit          3D

 28 28  0  0  1  0  0  0  0  0999 V2000
   22.8630  -20.5459  -16.2636 N   0  0  0  0  0  0  0  0  0  0  0  0
   23.5014  -19.6108  -15.3868 C   0  0  1  0  0  0  0  0  0  0  0  0
   22.4514  -18.8477  -14.6107 C   0  0  0  0  0  0  0  0  0  0  0  0
   21.6187  -17.9535  -15.4471 C   0  0  0  0  0  0  0  0  0  0  0  0
   20.4008  -18.2779  -15.9512 C   0  0  0  0  0  0  0  0  0  0  0  0
   19.6470  -17.3979  -16.7296 C   0  0  0  0  0  0  0  0  0  0  0  0
   20.1571  -16.1604  -16.9936 C   0  0  0  0  0  0  0  0  0  0  0  0
   21.4004  -15.8101  -16.4874 C   0  0  0  0  0  0  0  0  0  0  0  0
   22.1325  -16.6856  -15.7215 C   0  0  0  0  0  0  0  0  0  0  0  0
   24.3110  -20.3386  -14.3601 C   0  0  0  0  0  0  0  0  0  0  0  0
   23.8574  -21.3875  -13.8709 O   0  0  0  0  0  0  0  0  0  0  0  0
   28.2788  -20.8362  -14.4827 C   0  0  0  0  0  0  0  0  0  0  0  0
   27.8443  -20.2422  -13.1485 C   0  0  2  0  0  0  0  0  0  0  0  0
   28.7364  -20.7074  -12.0460 C   0  0  0  0  0  0  0  0  0  0  0  0
   26.3911  -20.4138  -12.9436 C   0  0  2  0  0  0  0  0  0  0  0  0
   25.5814  -19.8350  -13.9557 N   0  0  0  0  0  0  0  0  0  0  0  0
   25.8951  -20.1259  -11.5686 C   0  0  0  0  0  0  0  0  0  0  0  0
   25.4889  -18.9850  -11.2265 O   0  0  0  0  0  0  0  0  0  0  0  0
   21.8816  -20.4616   -6.2395 N   0  0  0  0  0  0  0  0  0  0  0  0
   22.6344  -21.4864   -6.9038 C   0  0  0  0  0  0  0  0  0  0  0  0
   21.9241  -22.4864   -7.2554 O   0  0  0  0  0  0  0  0  0  0  0  0
   24.0854  -21.3754   -7.1461 C   0  0  0  0  0  0  0  0  0  0  0  0
   24.5181  -21.7077   -8.5313 C   0  0  0  0  0  0  0  0  0  0  0  0
   25.4533  -20.7830   -9.1946 C   0  0  2  0  0  0  0  0  0  0  0  0
   25.8592  -21.1371  -10.5376 N   0  0  0  0  0  0  0  0  0  0  0  0
   26.6346  -20.4027   -8.3370 C   0  0  0  0  0  0  0  0  0  0  0  0
   26.6431  -19.3385   -7.4604 O   0  0  0  0  0  0  0  0  0  0  0  0
   27.6623  -21.1025   -8.4394 O   0  0  0  0  0  0  0  0  0  0  0  0
  2  1  1  6
  2 10  1  0
  2  3  1  0
  4  9  2  0
  4  3  1  0
  5  4  1  0
  6  7  1  0
  6  5  2  0
  7  8  2  0
  8  9  1  0
 10 11  2  0
 13 12  1  6
 14 13  1  0
 15 13  1  0
 15 16  1  6
 16 10  1  0
 17 18  2  0
 17 15  1  0
 19 20  1  0
 20 21  2  0
 22 20  1  0
 22 23  1  0
 24 23  1  1
 24 26  1  0
 24 25  1  0
 25 17  1  0
 26 27  1  0
 28 26  2  0
M  END
$$$$
