FVQ.pdb
     RDKit          3D

 28 28  0  0  1  0  0  0  0  0999 V2000
   19.0463  -12.4991  -17.7360 N   0  0  0  0  0  0  0  0  0  0  0  0
   19.8548  -11.3400  -17.9675 C   0  0  1  0  0  0  0  0  0  0  0  0
   19.0417  -10.2941  -18.6971 C   0  0  0  0  0  0  0  0  0  0  0  0
   18.6800  -10.6736  -20.0819 C   0  0  0  0  0  0  0  0  0  0  0  0
   17.4115  -10.8681  -20.5244 C   0  0  0  0  0  0  0  0  0  0  0  0
   17.1173  -11.2179  -21.8434 C   0  0  0  0  0  0  0  0  0  0  0  0
   18.1490  -11.3700  -22.7230 C   0  0  0  0  0  0  0  0  0  0  0  0
   19.4526  -11.1757  -22.2897 C   0  0  0  0  0  0  0  0  0  0  0  0
   19.7289  -10.8306  -20.9884 C   0  0  0  0  0  0  0  0  0  0  0  0
   20.2404  -10.7133  -16.6645 C   0  0  0  0  0  0  0  0  0  0  0  0
   19.4910  -10.8586  -15.6834 O   0  0  0  0  0  0  0  0  0  0  0  0
   24.3513   -9.7354  -15.6193 C   0  0  0  0  0  0  0  0  0  0  0  0
   23.1143  -10.0211  -14.7767 C   0  0  2  0  0  0  0  0  0  0  0  0
   23.0037  -11.4788  -14.4754 C   0  0  0  0  0  0  0  0  0  0  0  0
   21.9206   -9.3706  -15.3556 C   0  0  2  0  0  0  0  0  0  0  0  0
   21.4490   -9.9660  -16.5548 N   0  0  0  0  0  0  0  0  0  0  0  0
   21.9666   -7.8832  -15.4255 C   0  0  0  0  0  0  0  0  0  0  0  0
   22.5221   -7.2725  -16.3753 O   0  0  0  0  0  0  0  0  0  0  0  0
   16.7178   -4.7359  -15.6955 N   0  0  0  0  0  0  0  0  0  0  0  0
   17.8406   -5.4818  -15.2047 C   0  0  0  0  0  0  0  0  0  0  0  0
   17.5169   -6.3870  -14.3656 O   0  0  0  0  0  0  0  0  0  0  0  0
   19.2244   -5.2127  -15.6396 C   0  0  0  0  0  0  0  0  0  0  0  0
   20.1758   -4.8872  -14.5417 C   0  0  0  0  0  0  0  0  0  0  0  0
   21.4605   -5.6073  -14.5160 C   0  0  2  0  0  0  0  0  0  0  0  0
   21.3848   -7.0477  -14.4006 N   0  0  0  0  0  0  0  0  0  0  0  0
   22.4601   -5.0222  -13.5496 C   0  0  0  0  0  0  0  0  0  0  0  0
   22.9209   -3.7239  -13.6052 O   0  0  0  0  0  0  0  0  0  0  0  0
   22.8899   -5.7722  -12.6501 O   0  0  0  0  0  0  0  0  0  0  0  0
  2  1  1  1
  2 10  1  0
  2  3  1  0
  4  9  2  0
  4  3  1  0
  5  4  1  0
  6  7  1  0
  6  5  2  0
  7  8  2  0
  8  9  1  0
 10 11  2  0
 13 12  1  6
 14 13  1  0
 15 13  1  0
 15 16  1  6
 16 10  1  0
 17 18  2  0
 17 15  1  0
 19 20  1  0
 20 21  2  0
 22 20  1  0
 22 23  1  0
 24 23  1  1
 24 26  1  0
 24 25  1  0
 25 17  1  0
 26 27  1  0
 28 26  2  0
M  END
$$$$
