FVQ.pdb
     RDKit          3D

 28 28  0  0  1  0  0  0  0  0999 V2000
   28.5685  -20.2671   -8.8251 N   0  0  0  0  0  0  0  0  0  0  0  0
   27.2771  -20.8856   -8.8054 C   0  0  1  0  0  0  0  0  0  0  0  0
   26.5750  -20.5486   -7.5090 C   0  0  0  0  0  0  0  0  0  0  0  0
   27.4953  -20.2414   -6.3904 C   0  0  0  0  0  0  0  0  0  0  0  0
   27.4882  -19.0862   -5.6777 C   0  0  0  0  0  0  0  0  0  0  0  0
   28.3713  -18.8436   -4.6241 C   0  0  0  0  0  0  0  0  0  0  0  0
   29.2786  -19.8090   -4.2986 C   0  0  0  0  0  0  0  0  0  0  0  0
   29.3018  -20.9966   -5.0155 C   0  0  0  0  0  0  0  0  0  0  0  0
   28.4262  -21.2236   -6.0503 C   0  0  0  0  0  0  0  0  0  0  0  0
   26.4170  -20.3150   -9.8890 C   0  0  0  0  0  0  0  0  0  0  0  0
   25.8658  -19.2165   -9.7022 O   0  0  0  0  0  0  0  0  0  0  0  0
   27.1766  -21.3316  -14.0203 C   0  0  0  0  0  0  0  0  0  0  0  0
   26.6067  -20.0946  -13.3371 C   0  0  2  0  0  0  0  0  0  0  0  0
   27.6985  -19.1553  -12.9457 C   0  0  0  0  0  0  0  0  0  0  0  0
   25.6453  -20.4721  -12.2803 C   0  0  2  0  0  0  0  0  0  0  0  0
   26.2386  -21.0215  -11.1137 N   0  0  0  0  0  0  0  0  0  0  0  0
   24.4505  -21.2353  -12.7380 C   0  0  0  0  0  0  0  0  0  0  0  0
   24.4730  -22.4827  -12.9024 O   0  0  0  0  0  0  0  0  0  0  0  0
   18.7999  -21.6697  -10.5531 N   0  0  0  0  0  0  0  0  0  0  0  0
   18.6947  -22.3405  -11.8168 C   0  0  0  0  0  0  0  0  0  0  0  0
   17.5930  -22.9670  -11.9652 O   0  0  0  0  0  0  0  0  0  0  0  0
   19.7659  -22.2979  -12.8303 C   0  0  0  0  0  0  0  0  0  0  0  0
   20.9699  -21.5146  -12.4390 C   0  0  0  0  0  0  0  0  0  0  0  0
   22.0504  -21.3825  -13.4314 C   0  0  2  0  0  0  0  0  0  0  0  0
   23.1926  -20.5888  -13.0323 N   0  0  0  0  0  0  0  0  0  0  0  0
   21.5618  -21.0040  -14.8074 C   0  0  0  0  0  0  0  0  0  0  0  0
   20.8957  -21.8636  -15.6550 O   0  0  0  0  0  0  0  0  0  0  0  0
   21.7832  -19.8375  -15.1903 O   0  0  0  0  0  0  0  0  0  0  0  0
  2  1  1  1
  2 10  1  0
  2  3  1  0
  4  9  2  0
  4  3  1  0
  5  4  1  0
  6  7  1  0
  6  5  2  0
  7  8  2  0
  8  9  1  0
 10 11  2  0
 13 12  1  1
 14 13  1  0
 15 13  1  0
 15 16  1  1
 16 10  1  0
 17 18  2  0
 17 15  1  0
 19 20  1  0
 20 21  2  0
 22 20  1  0
 22 23  1  0
 24 23  1  1
 24 26  1  0
 24 25  1  0
 25 17  1  0
 26 27  1  0
 28 26  2  0
M  END
$$$$
