FVQ.pdb
     RDKit          3D

 28 28  0  0  1  0  0  0  0  0999 V2000
   23.9069  -20.9229  -15.2470 N   0  0  0  0  0  0  0  0  0  0  0  0
   22.8672  -20.3241  -14.4651 C   0  0  1  0  0  0  0  0  0  0  0  0
   21.5716  -20.3468  -15.2448 C   0  0  0  0  0  0  0  0  0  0  0  0
   21.5943  -19.5164  -16.4706 C   0  0  0  0  0  0  0  0  0  0  0  0
   21.6696  -18.1612  -16.4857 C   0  0  0  0  0  0  0  0  0  0  0  0
   21.6964  -17.4195  -17.6680 C   0  0  0  0  0  0  0  0  0  0  0  0
   21.6448  -18.0864  -18.8570 C   0  0  0  0  0  0  0  0  0  0  0  0
   21.5673  -19.4716  -18.8625 C   0  0  0  0  0  0  0  0  0  0  0  0
   21.5426  -20.1903  -17.6913 C   0  0  0  0  0  0  0  0  0  0  0  0
   22.6122  -21.1404  -13.2371 C   0  0  0  0  0  0  0  0  0  0  0  0
   22.9375  -22.3402  -13.2355 O   0  0  0  0  0  0  0  0  0  0  0  0
   21.4296  -19.2071   -9.4229 C   0  0  0  0  0  0  0  0  0  0  0  0
   22.3439  -20.3984   -9.6812 C   0  0  2  0  0  0  0  0  0  0  0  0
   23.7741  -19.9723   -9.7085 C   0  0  0  0  0  0  0  0  0  0  0  0
   21.8651  -21.1901  -10.8333 C   0  0  2  0  0  0  0  0  0  0  0  0
   22.0092  -20.5467  -12.0904 N   0  0  0  0  0  0  0  0  0  0  0  0
   20.5345  -21.8381  -10.6623 C   0  0  0  0  0  0  0  0  0  0  0  0
   19.5412  -21.5288  -11.3703 O   0  0  0  0  0  0  0  0  0  0  0  0
   18.4370  -26.0281   -6.0485 N   0  0  0  0  0  0  0  0  0  0  0  0
   17.3222  -25.7317   -6.9016 C   0  0  0  0  0  0  0  0  0  0  0  0
   16.2472  -26.3223   -6.5502 O   0  0  0  0  0  0  0  0  0  0  0  0
   17.4297  -24.8309   -8.0650 C   0  0  0  0  0  0  0  0  0  0  0  0
   18.7733  -24.2217   -8.2655 C   0  0  0  0  0  0  0  0  0  0  0  0
   18.9531  -23.3325   -9.4260 C   0  0  2  0  0  0  0  0  0  0  0  0
   20.2984  -22.8558   -9.6647 N   0  0  0  0  0  0  0  0  0  0  0  0
   17.9451  -22.2121   -9.4888 C   0  0  0  0  0  0  0  0  0  0  0  0
   18.1036  -20.9934   -8.8638 O   0  0  0  0  0  0  0  0  0  0  0  0
   16.9065  -22.4159  -10.1493 O   0  0  0  0  0  0  0  0  0  0  0  0
  2  1  1  6
  2 10  1  0
  2  3  1  0
  4  9  2  0
  4  3  1  0
  5  4  1  0
  6  7  1  0
  6  5  2  0
  7  8  2  0
  8  9  1  0
 10 11  2  0
 13 12  1  6
 14 13  1  0
 15 13  1  0
 15 16  1  6
 16 10  1  0
 17 18  2  0
 17 15  1  0
 19 20  1  0
 20 21  2  0
 22 20  1  0
 22 23  1  0
 24 23  1  1
 24 26  1  0
 24 25  1  0
 25 17  1  0
 26 27  1  0
 28 26  2  0
M  END
$$$$
