SPT.pdb
     RDKit          3D

 21 21  0  0  1  0  0  0  0  0999 V2000
    5.6264  -14.7200   19.9764 O   0  0  0  0  0  0  0  0  0  0  0  0
    6.4700  -14.9503   21.0788 C   0  0  0  0  0  0  0  0  0  0  0  0
    7.0840  -13.6189   21.4975 C   0  0  2  0  0  0  0  0  0  0  0  0
    7.9398  -13.2004   20.3593 N   0  0  0  0  0  0  0  0  0  0  0  0
    7.9612  -13.7630   22.6821 C   0  0  0  0  0  0  0  0  0  0  0  0
    9.1529  -14.1622   22.4483 O   0  0  0  0  0  0  0  0  0  0  0  0
    7.5401  -13.4840   24.0045 N   0  0  0  0  0  0  0  0  0  0  0  0
    6.2603  -12.9061   24.3181 C   0  0  0  0  0  0  0  0  0  0  0  0
    6.0476  -13.1611   25.7652 C   0  0  0  0  0  0  0  0  0  0  0  0
    7.4678  -12.9824   26.3050 C   0  0  0  0  0  0  0  0  0  0  0  0
    8.2627  -13.6959   25.2083 C   0  0  1  0  0  0  0  0  0  0  0  0
    8.4349  -15.1324   25.5547 C   0  0  0  0  0  0  0  0  0  0  0  0
    7.3976  -15.8340   25.6748 O   0  0  0  0  0  0  0  0  0  0  0  0
   12.2416  -16.8317   25.4146 C   0  0  0  0  0  0  0  0  0  0  0  0
   11.0172  -17.6885   25.1691 C   0  0  1  0  0  0  0  0  0  0  0  0
   11.3057  -19.0103   25.4070 O   0  0  0  0  0  0  0  0  0  0  0  0
    9.8285  -17.1968   25.9696 C   0  0  2  0  0  0  0  0  0  0  0  0
    9.6815  -15.7722   25.7590 N   0  0  0  0  0  0  0  0  0  0  0  0
   10.0780  -17.5369   27.3837 C   0  0  0  0  0  0  0  0  0  0  0  0
   10.0519  -18.8762   27.7426 O   0  0  0  0  0  0  0  0  0  0  0  0
   10.3130  -16.6926   28.2853 O   0  0  0  0  0  0  0  0  0  0  0  0
  2  1  1  0
  3  2  1  0
  3  4  1  6
  3  5  1  0
  5  6  2  0
  7  5  1  0
  7 11  1  0
  8  7  1  0
  9  8  1  0
  9 10  1  0
 10 11  1  0
 11 12  1  1
 12 18  1  0
 12 13  2  0
 15 14  1  1
 15 17  1  0
 16 15  1  0
 17 19  1  0
 17 18  1  1
 19 20  1  0
 21 19  2  0
M  END
$$$$
