SPT.pdb
     RDKit          3D

 21 21  0  0  1  0  0  0  0  0999 V2000
    7.1140  -17.4362   15.7558 O   0  0  0  0  0  0  0  0  0  0  0  0
    7.8452  -17.0227   16.8846 C   0  0  0  0  0  0  0  0  0  0  0  0
    8.5899  -15.7406   16.5287 C   0  0  2  0  0  0  0  0  0  0  0  0
    9.5582  -16.1239   15.4711 N   0  0  0  0  0  0  0  0  0  0  0  0
    9.3691  -15.2178   17.6747 C   0  0  0  0  0  0  0  0  0  0  0  0
   10.5317  -15.7244   17.8361 O   0  0  0  0  0  0  0  0  0  0  0  0
    8.8884  -14.2194   18.5555 N   0  0  0  0  0  0  0  0  0  0  0  0
    7.6930  -13.4582   18.3062 C   0  0  0  0  0  0  0  0  0  0  0  0
    7.3237  -12.8512   19.6098 C   0  0  0  0  0  0  0  0  0  0  0  0
    8.7045  -12.5252   20.1819 C   0  0  0  0  0  0  0  0  0  0  0  0
    9.4664  -13.7906   19.7795 C   0  0  1  0  0  0  0  0  0  0  0  0
    9.3826  -14.8041   20.8653 C   0  0  0  0  0  0  0  0  0  0  0  0
    8.2458  -15.0622   21.3387 O   0  0  0  0  0  0  0  0  0  0  0  0
    9.8382  -18.3566   20.9194 C   0  0  0  0  0  0  0  0  0  0  0  0
   10.8112  -17.8278   21.9525 C   0  0  1  0  0  0  0  0  0  0  0  0
   12.0869  -17.8168   21.4431 O   0  0  0  0  0  0  0  0  0  0  0  0
   10.3796  -16.4733   22.4764 C   0  0  2  0  0  0  0  0  0  0  0  0
   10.4881  -15.5035   21.4072 N   0  0  0  0  0  0  0  0  0  0  0  0
   11.2469  -16.1482   23.6253 C   0  0  0  0  0  0  0  0  0  0  0  0
   11.0880  -16.8883   24.7872 O   0  0  0  0  0  0  0  0  0  0  0  0
   12.1208  -15.2442   23.6206 O   0  0  0  0  0  0  0  0  0  0  0  0
  2  1  1  0
  3  2  1  0
  3  4  1  6
  3  5  1  0
  5  6  2  0
  7  5  1  0
  7 11  1  0
  8  7  1  0
  9  8  1  0
  9 10  1  0
 10 11  1  0
 11 12  1  1
 12 18  1  0
 12 13  2  0
 15 14  1  6
 15 17  1  0
 16 15  1  0
 17 19  1  0
 17 18  1  6
 19 20  1  0
 21 19  2  0
M  END
$$$$
