SPT.pdb
     RDKit          3D

 21 21  0  0  1  0  0  0  0  0999 V2000
    7.2323  -16.4020   22.5740 O   0  0  0  0  0  0  0  0  0  0  0  0
    6.5223  -15.2234   22.2797 C   0  0  0  0  0  0  0  0  0  0  0  0
    7.4920  -14.0491   22.3574 C   0  0  2  0  0  0  0  0  0  0  0  0
    8.4828  -14.2795   21.2766 N   0  0  0  0  0  0  0  0  0  0  0  0
    8.2322  -14.0276   23.6401 C   0  0  0  0  0  0  0  0  0  0  0  0
    9.3961  -14.5560   23.6211 O   0  0  0  0  0  0  0  0  0  0  0  0
    7.7146  -13.4647   24.8312 N   0  0  0  0  0  0  0  0  0  0  0  0
    6.3986  -12.8903   24.9240 C   0  0  0  0  0  0  0  0  0  0  0  0
    6.0978  -12.8064   26.3754 C   0  0  0  0  0  0  0  0  0  0  0  0
    7.4721  -12.4384   26.9377 C   0  0  0  0  0  0  0  0  0  0  0  0
    8.3614  -13.3520   26.0903 C   0  0  1  0  0  0  0  0  0  0  0  0
    8.5563  -14.6564   26.7786 C   0  0  0  0  0  0  0  0  0  0  0  0
    7.5380  -15.3642   26.9909 O   0  0  0  0  0  0  0  0  0  0  0  0
   10.3456  -17.5984   25.6468 C   0  0  0  0  0  0  0  0  0  0  0  0
   10.9277  -17.2856   27.0095 C   0  0  1  0  0  0  0  0  0  0  0  0
   12.1613  -16.6962   26.8762 O   0  0  0  0  0  0  0  0  0  0  0  0
    9.9713  -16.4569   27.8426 C   0  0  2  0  0  0  0  0  0  0  0  0
    9.8047  -15.1639   27.2133 N   0  0  0  0  0  0  0  0  0  0  0  0
   10.5420  -16.3563   29.1997 C   0  0  0  0  0  0  0  0  0  0  0  0
   10.9512  -15.1066   29.6398 O   0  0  0  0  0  0  0  0  0  0  0  0
   10.6821  -17.3292   29.9839 O   0  0  0  0  0  0  0  0  0  0  0  0
  2  1  1  0
  3  2  1  0
  3  4  1  6
  3  5  1  0
  5  6  2  0
  7  5  1  0
  7 11  1  0
  8  7  1  0
  9  8  1  0
  9 10  1  0
 10 11  1  0
 11 12  1  1
 12 18  1  0
 12 13  2  0
 15 14  1  6
 15 17  1  0
 16 15  1  0
 17 19  1  0
 17 18  1  6
 19 20  1  0
 21 19  2  0
M  END
$$$$
