SPT.pdb
     RDKit          3D

 21 21  0  0  1  0  0  0  0  0999 V2000
    7.0877  -17.3791   15.6868 O   0  0  0  0  0  0  0  0  0  0  0  0
    7.7972  -17.0700   16.8619 C   0  0  0  0  0  0  0  0  0  0  0  0
    8.6622  -15.8441   16.5898 C   0  0  2  0  0  0  0  0  0  0  0  0
    9.6867  -16.2893   15.6126 N   0  0  0  0  0  0  0  0  0  0  0  0
    9.3766  -15.3909   17.8056 C   0  0  0  0  0  0  0  0  0  0  0  0
   10.5079  -15.9437   18.0262 O   0  0  0  0  0  0  0  0  0  0  0  0
    8.8688  -14.4087   18.6894 N   0  0  0  0  0  0  0  0  0  0  0  0
    7.6425  -13.6942   18.4524 C   0  0  0  0  0  0  0  0  0  0  0  0
    7.2659  -13.0975   19.7587 C   0  0  0  0  0  0  0  0  0  0  0  0
    8.6401  -12.7175   20.3132 C   0  0  0  0  0  0  0  0  0  0  0  0
    9.4447  -13.9543   19.9052 C   0  0  1  0  0  0  0  0  0  0  0  0
    9.4123  -14.9669   20.9946 C   0  0  0  0  0  0  0  0  0  0  0  0
    8.2880  -15.3948   21.3629 O   0  0  0  0  0  0  0  0  0  0  0  0
   10.9198  -18.3177   20.8943 C   0  0  0  0  0  0  0  0  0  0  0  0
   11.4207  -17.6749   22.1707 C   0  0  1  0  0  0  0  0  0  0  0  0
   12.7221  -17.2626   22.0170 O   0  0  0  0  0  0  0  0  0  0  0  0
   10.5036  -16.5574   22.6242 C   0  0  2  0  0  0  0  0  0  0  0  0
   10.5543  -15.4880   21.6498 N   0  0  0  0  0  0  0  0  0  0  0  0
   10.9594  -16.1276   23.9602 C   0  0  0  0  0  0  0  0  0  0  0  0
   10.7157  -16.9737   25.0315 O   0  0  0  0  0  0  0  0  0  0  0  0
   11.5545  -15.0444   24.1919 O   0  0  0  0  0  0  0  0  0  0  0  0
  2  1  1  0
  3  2  1  0
  3  4  1  6
  3  5  1  0
  5  6  2  0
  7  5  1  0
  7 11  1  0
  8  7  1  0
  9  8  1  0
  9 10  1  0
 10 11  1  0
 11 12  1  1
 12 18  1  0
 12 13  2  0
 15 14  1  6
 15 17  1  0
 16 15  1  0
 17 19  1  0
 17 18  1  6
 19 20  1  0
 21 19  2  0
M  END
$$$$
