SPT.pdb
     RDKit          3D

 21 21  0  0  1  0  0  0  0  0999 V2000
    5.9033  -18.2753   16.9073 O   0  0  0  0  0  0  0  0  0  0  0  0
    6.8640  -17.9026   17.8654 C   0  0  0  0  0  0  0  0  0  0  0  0
    7.7387  -16.8075   17.2646 C   0  0  2  0  0  0  0  0  0  0  0  0
    8.6083  -17.4914   16.2752 N   0  0  0  0  0  0  0  0  0  0  0  0
    8.6230  -16.1881   18.2785 C   0  0  0  0  0  0  0  0  0  0  0  0
    9.7160  -16.8064   18.5176 O   0  0  0  0  0  0  0  0  0  0  0  0
    8.3098  -14.9869   18.9588 N   0  0  0  0  0  0  0  0  0  0  0  0
    7.1337  -14.2067   18.6788 C   0  0  0  0  0  0  0  0  0  0  0  0
    6.9639  -13.3027   19.8441 C   0  0  0  0  0  0  0  0  0  0  0  0
    8.4209  -12.9695   20.1701 C   0  0  0  0  0  0  0  0  0  0  0  0
    9.0593  -14.3482   19.9819 C   0  0  1  0  0  0  0  0  0  0  0  0
    9.0607  -15.0906   21.2710 C   0  0  0  0  0  0  0  0  0  0  0  0
    8.0136  -15.0560   21.9677 O   0  0  0  0  0  0  0  0  0  0  0  0
    9.3938  -18.6980   21.8591 C   0  0  0  0  0  0  0  0  0  0  0  0
   10.4593  -18.0365   22.7079 C   0  0  1  0  0  0  0  0  0  0  0  0
   11.6914  -18.1713   22.1154 O   0  0  0  0  0  0  0  0  0  0  0  0
   10.1103  -16.5930   23.0080 C   0  0  2  0  0  0  0  0  0  0  0  0
   10.1539  -15.8364   21.7746 N   0  0  0  0  0  0  0  0  0  0  0  0
   11.0801  -16.1033   24.0067 C   0  0  0  0  0  0  0  0  0  0  0  0
   12.0150  -15.1649   23.5964 O   0  0  0  0  0  0  0  0  0  0  0  0
   11.1150  -16.4807   25.2056 O   0  0  0  0  0  0  0  0  0  0  0  0
  2  1  1  0
  3  2  1  0
  3  4  1  6
  3  5  1  0
  5  6  2  0
  7  5  1  0
  7 11  1  0
  8  7  1  0
  9  8  1  0
  9 10  1  0
 10 11  1  0
 11 12  1  1
 12 18  1  0
 12 13  2  0
 15 14  1  6
 15 17  1  0
 16 15  1  0
 17 19  1  0
 17 18  1  6
 19 20  1  0
 21 19  2  0
M  END
$$$$
