SPT.pdb
     RDKit          3D

 21 21  0  0  1  0  0  0  0  0999 V2000
    5.2029  -18.6744   18.0748 O   0  0  0  0  0  0  0  0  0  0  0  0
    6.0240  -17.9491   18.9578 C   0  0  0  0  0  0  0  0  0  0  0  0
    6.8869  -16.9978   18.1360 C   0  0  2  0  0  0  0  0  0  0  0  0
    7.4651  -17.8250   17.0478 N   0  0  0  0  0  0  0  0  0  0  0  0
    8.0152  -16.4531   18.9260 C   0  0  0  0  0  0  0  0  0  0  0  0
    9.0926  -17.1410   18.9070 O   0  0  0  0  0  0  0  0  0  0  0  0
    7.9408  -15.2489   19.6663 N   0  0  0  0  0  0  0  0  0  0  0  0
    6.7801  -14.3987   19.6728 C   0  0  0  0  0  0  0  0  0  0  0  0
    6.9404  -13.5082   20.8499 C   0  0  0  0  0  0  0  0  0  0  0  0
    8.4504  -13.2637   20.8276 C   0  0  0  0  0  0  0  0  0  0  0  0
    8.9446  -14.6724   20.4887 C   0  0  1  0  0  0  0  0  0  0  0  0
    9.2028  -15.4374   21.7383 C   0  0  0  0  0  0  0  0  0  0  0  0
    8.2240  -15.6745   22.4924 O   0  0  0  0  0  0  0  0  0  0  0  0
   10.9071  -18.8274   21.8638 C   0  0  0  0  0  0  0  0  0  0  0  0
   11.5758  -17.9300   22.8841 C   0  0  1  0  0  0  0  0  0  0  0  0
   12.7948  -17.5033   22.4162 O   0  0  0  0  0  0  0  0  0  0  0  0
   10.6718  -16.7836   23.2893 C   0  0  2  0  0  0  0  0  0  0  0  0
   10.4700  -15.9215   22.1441 N   0  0  0  0  0  0  0  0  0  0  0  0
   11.3223  -16.0858   24.4151 C   0  0  0  0  0  0  0  0  0  0  0  0
   11.3771  -16.7384   25.6375 O   0  0  0  0  0  0  0  0  0  0  0  0
   11.8306  -14.9382   24.3396 O   0  0  0  0  0  0  0  0  0  0  0  0
  2  1  1  0
  3  2  1  0
  3  4  1  6
  3  5  1  0
  5  6  2  0
  7  5  1  0
  7 11  1  0
  8  7  1  0
  9  8  1  0
  9 10  1  0
 10 11  1  0
 11 12  1  1
 12 18  1  0
 12 13  2  0
 15 14  1  6
 15 17  1  0
 16 15  1  0
 17 19  1  0
 17 18  1  6
 19 20  1  0
 21 19  2  0
M  END
$$$$
