SPT.pdb
     RDKit          3D

 21 21  0  0  1  0  0  0  0  0999 V2000
    7.7087  -18.3480   18.3887 O   0  0  0  0  0  0  0  0  0  0  0  0
    6.9683  -17.3651   17.7064 C   0  0  0  0  0  0  0  0  0  0  0  0
    7.9418  -16.3257   17.1614 C   0  0  2  0  0  0  0  0  0  0  0  0
    8.7849  -17.0484   16.1766 N   0  0  0  0  0  0  0  0  0  0  0  0
    8.8411  -15.8041   18.2164 C   0  0  0  0  0  0  0  0  0  0  0  0
    9.9505  -16.4228   18.3596 O   0  0  0  0  0  0  0  0  0  0  0  0
    8.5246  -14.6917   19.0327 N   0  0  0  0  0  0  0  0  0  0  0  0
    7.3516  -13.8812   18.8393 C   0  0  0  0  0  0  0  0  0  0  0  0
    7.1747  -13.1220   20.1029 C   0  0  0  0  0  0  0  0  0  0  0  0
    8.6298  -12.8332   20.4763 C   0  0  0  0  0  0  0  0  0  0  0  0
    9.2676  -14.1810   20.1297 C   0  0  1  0  0  0  0  0  0  0  0  0
    9.2587  -15.0717   21.3213 C   0  0  0  0  0  0  0  0  0  0  0  0
    8.1569  -15.2710   21.8950 O   0  0  0  0  0  0  0  0  0  0  0  0
   10.0335  -18.6373   21.6146 C   0  0  0  0  0  0  0  0  0  0  0  0
   10.9219  -17.9395   22.6232 C   0  0  1  0  0  0  0  0  0  0  0  0
   12.2091  -17.8610   22.1497 O   0  0  0  0  0  0  0  0  0  0  0  0
   10.3597  -16.5879   23.0139 C   0  0  2  0  0  0  0  0  0  0  0  0
   10.3994  -15.7150   21.8598 N   0  0  0  0  0  0  0  0  0  0  0  0
   11.1725  -16.0798   24.1358 C   0  0  0  0  0  0  0  0  0  0  0  0
   11.0702  -16.7295   25.3567 O   0  0  0  0  0  0  0  0  0  0  0  0
   11.9522  -15.0964   24.0583 O   0  0  0  0  0  0  0  0  0  0  0  0
  2  1  1  0
  3  2  1  0
  3  4  1  6
  3  5  1  0
  5  6  2  0
  7  5  1  0
  7 11  1  0
  8  7  1  0
  9  8  1  0
  9 10  1  0
 10 11  1  0
 11 12  1  1
 12 18  1  0
 12 13  2  0
 15 14  1  6
 15 17  1  0
 16 15  1  0
 17 19  1  0
 17 18  1  6
 19 20  1  0
 21 19  2  0
M  END
$$$$
