SPT.pdb
     RDKit          3D

 21 21  0  0  1  0  0  0  0  0999 V2000
    6.9118  -18.3573   19.8653 O   0  0  0  0  0  0  0  0  0  0  0  0
    6.3327  -17.5129   18.9002 C   0  0  0  0  0  0  0  0  0  0  0  0
    7.4307  -16.6304   18.3164 C   0  0  2  0  0  0  0  0  0  0  0  0
    8.2212  -17.5161   17.4257 N   0  0  0  0  0  0  0  0  0  0  0  0
    8.3470  -16.1229   19.3636 C   0  0  0  0  0  0  0  0  0  0  0  0
    9.3694  -16.8498   19.6100 O   0  0  0  0  0  0  0  0  0  0  0  0
    8.1357  -14.9127   20.0668 N   0  0  0  0  0  0  0  0  0  0  0  0
    7.0383  -14.0235   19.7922 C   0  0  0  0  0  0  0  0  0  0  0  0
    6.9373  -13.1322   20.9753 C   0  0  0  0  0  0  0  0  0  0  0  0
    8.4145  -12.9393   21.3228 C   0  0  0  0  0  0  0  0  0  0  0  0
    8.9277  -14.3660   21.1108 C   0  0  1  0  0  0  0  0  0  0  0  0
    8.8469  -15.1322   22.3835 C   0  0  0  0  0  0  0  0  0  0  0  0
    7.7103  -15.2938   22.8983 O   0  0  0  0  0  0  0  0  0  0  0  0
    9.5949  -18.6342   23.1087 C   0  0  0  0  0  0  0  0  0  0  0  0
   10.4294  -17.8266   24.0807 C   0  0  1  0  0  0  0  0  0  0  0  0
   11.7392  -17.7906   23.6678 O   0  0  0  0  0  0  0  0  0  0  0  0
    9.8463  -16.4447   24.2951 C   0  0  2  0  0  0  0  0  0  0  0  0
    9.9551  -15.6960   23.0609 N   0  0  0  0  0  0  0  0  0  0  0  0
   10.5918  -15.8188   25.4041 C   0  0  0  0  0  0  0  0  0  0  0  0
   10.4442  -16.3610   26.6719 O   0  0  0  0  0  0  0  0  0  0  0  0
   11.3525  -14.8258   25.2759 O   0  0  0  0  0  0  0  0  0  0  0  0
  2  1  1  0
  3  2  1  0
  3  4  1  6
  3  5  1  0
  5  6  2  0
  7  5  1  0
  7 11  1  0
  8  7  1  0
  9  8  1  0
  9 10  1  0
 10 11  1  0
 11 12  1  1
 12 18  1  0
 12 13  2  0
 15 14  1  6
 15 17  1  0
 16 15  1  0
 17 19  1  0
 17 18  1  6
 19 20  1  0
 21 19  2  0
M  END
$$$$
