SPT.pdb
     RDKit          3D

 21 21  0  0  1  0  0  0  0  0999 V2000
    7.1721  -16.4333   22.9881 O   0  0  0  0  0  0  0  0  0  0  0  0
    6.5499  -15.3745   22.3012 C   0  0  0  0  0  0  0  0  0  0  0  0
    7.4514  -14.1483   22.3951 C   0  0  2  0  0  0  0  0  0  0  0  0
    8.4261  -14.2855   21.2841 N   0  0  0  0  0  0  0  0  0  0  0  0
    8.2217  -14.1242   23.6600 C   0  0  0  0  0  0  0  0  0  0  0  0
    9.3702  -14.6844   23.6243 O   0  0  0  0  0  0  0  0  0  0  0  0
    7.7472  -13.5263   24.8521 N   0  0  0  0  0  0  0  0  0  0  0  0
    6.4437  -12.9282   24.9686 C   0  0  0  0  0  0  0  0  0  0  0  0
    6.1856  -12.8069   26.4256 C   0  0  0  0  0  0  0  0  0  0  0  0
    7.5811  -12.4493   26.9406 C   0  0  0  0  0  0  0  0  0  0  0  0
    8.4312  -13.3963   26.0896 C   0  0  1  0  0  0  0  0  0  0  0  0
    8.6247  -14.6881   26.8017 C   0  0  0  0  0  0  0  0  0  0  0  0
    7.5993  -15.3597   27.0852 O   0  0  0  0  0  0  0  0  0  0  0  0
   10.7021  -17.6405   25.7389 C   0  0  0  0  0  0  0  0  0  0  0  0
   11.1154  -17.2890   27.1528 C   0  0  1  0  0  0  0  0  0  0  0  0
   12.3319  -16.6508   27.1483 O   0  0  0  0  0  0  0  0  0  0  0  0
   10.0398  -16.4911   27.8613 C   0  0  2  0  0  0  0  0  0  0  0  0
    9.8792  -15.2214   27.1849 N   0  0  0  0  0  0  0  0  0  0  0  0
   10.4609  -16.3342   29.2668 C   0  0  0  0  0  0  0  0  0  0  0  0
   10.5810  -17.4796   30.0393 O   0  0  0  0  0  0  0  0  0  0  0  0
   10.7183  -15.2302   29.8109 O   0  0  0  0  0  0  0  0  0  0  0  0
  2  1  1  0
  3  2  1  0
  3  4  1  6
  3  5  1  0
  5  6  2  0
  7  5  1  0
  7 11  1  0
  8  7  1  0
  9  8  1  0
  9 10  1  0
 10 11  1  0
 11 12  1  1
 12 18  1  0
 12 13  2  0
 15 14  1  6
 15 17  1  0
 16 15  1  0
 17 19  1  0
 17 18  1  6
 19 20  1  0
 21 19  2  0
M  END
$$$$
