SPT.pdb
     RDKit          3D

 21 21  0  0  1  0  0  0  0  0999 V2000
   10.3947  -18.6723   22.0147 O   0  0  0  0  0  0  0  0  0  0  0  0
    9.6399  -18.2610   20.9006 C   0  0  0  0  0  0  0  0  0  0  0  0
    9.9586  -16.7963   20.6214 C   0  0  2  0  0  0  0  0  0  0  0  0
   11.3291  -16.7892   20.0516 N   0  0  0  0  0  0  0  0  0  0  0  0
    9.9913  -15.9912   21.8642 C   0  0  0  0  0  0  0  0  0  0  0  0
   11.1462  -15.8115   22.3821 O   0  0  0  0  0  0  0  0  0  0  0  0
    8.8360  -15.4391   22.4678 N   0  0  0  0  0  0  0  0  0  0  0  0
    7.5159  -15.5736   21.9113 C   0  0  0  0  0  0  0  0  0  0  0  0
    6.5790  -15.2401   23.0137 C   0  0  0  0  0  0  0  0  0  0  0  0
    7.3399  -14.1118   23.7124 C   0  0  0  0  0  0  0  0  0  0  0  0
    8.7615  -14.6777   23.6640 C   0  0  1  0  0  0  0  0  0  0  0  0
    9.0379  -15.4699   24.8925 C   0  0  0  0  0  0  0  0  0  0  0  0
    8.7925  -16.7035   24.8612 O   0  0  0  0  0  0  0  0  0  0  0  0
   11.2760  -13.7221   28.0429 C   0  0  0  0  0  0  0  0  0  0  0  0
   10.3498  -14.8740   28.3724 C   0  0  1  0  0  0  0  0  0  0  0  0
    9.1844  -14.4040   28.9273 O   0  0  0  0  0  0  0  0  0  0  0  0
   10.1077  -15.7528   27.1622 C   0  0  2  0  0  0  0  0  0  0  0  0
    9.5588  -14.9397   26.0977 N   0  0  0  0  0  0  0  0  0  0  0  0
    9.1929  -16.8335   27.5779 C   0  0  0  0  0  0  0  0  0  0  0  0
    9.6850  -17.8050   28.4364 O   0  0  0  0  0  0  0  0  0  0  0  0
    7.9961  -16.9320   27.2051 O   0  0  0  0  0  0  0  0  0  0  0  0
  2  1  1  0
  3  2  1  0
  3  4  1  1
  3  5  1  0
  5  6  2  0
  7  5  1  0
  7 11  1  0
  8  7  1  0
  9  8  1  0
  9 10  1  0
 10 11  1  0
 11 12  1  1
 12 18  1  0
 12 13  2  0
 15 14  1  6
 15 17  1  0
 16 15  1  0
 17 19  1  0
 17 18  1  6
 19 20  1  0
 21 19  2  0
M  END
$$$$
