SPT.pdb
     RDKit          3D

 21 21  0  0  1  0  0  0  0  0999 V2000
    7.8027  -16.9988   15.3031 O   0  0  0  0  0  0  0  0  0  0  0  0
    8.6464  -16.8809   16.4230 C   0  0  0  0  0  0  0  0  0  0  0  0
    9.2677  -15.4885   16.4091 C   0  0  2  0  0  0  0  0  0  0  0  0
   10.4549  -15.5917   15.5242 N   0  0  0  0  0  0  0  0  0  0  0  0
    9.7486  -15.0845   17.7505 C   0  0  0  0  0  0  0  0  0  0  0  0
   10.9260  -15.4736   18.0614 O   0  0  0  0  0  0  0  0  0  0  0  0
    8.9802  -14.3149   18.6566 N   0  0  0  0  0  0  0  0  0  0  0  0
    7.6946  -13.7600   18.3256 C   0  0  0  0  0  0  0  0  0  0  0  0
    7.0633  -13.4065   19.6220 C   0  0  0  0  0  0  0  0  0  0  0  0
    8.2759  -12.9103   20.4117 C   0  0  0  0  0  0  0  0  0  0  0  0
    9.3155  -13.9510   19.9875 C   0  0  1  0  0  0  0  0  0  0  0  0
    9.3094  -15.0957   20.9376 C   0  0  0  0  0  0  0  0  0  0  0  0
    8.3078  -15.8570   20.9306 O   0  0  0  0  0  0  0  0  0  0  0  0
   12.2013  -17.6153   21.3747 C   0  0  0  0  0  0  0  0  0  0  0  0
   11.7629  -17.1310   22.7410 C   0  0  1  0  0  0  0  0  0  0  0  0
   12.6785  -16.2404   23.2466 O   0  0  0  0  0  0  0  0  0  0  0  0
   10.3577  -16.5657   22.7028 C   0  0  2  0  0  0  0  0  0  0  0  0
   10.3489  -15.3951   21.8513 N   0  0  0  0  0  0  0  0  0  0  0  0
    9.9686  -16.2575   24.0925 C   0  0  0  0  0  0  0  0  0  0  0  0
    9.8970  -17.3088   24.9940 O   0  0  0  0  0  0  0  0  0  0  0  0
    9.6974  -15.1042   24.5137 O   0  0  0  0  0  0  0  0  0  0  0  0
  2  1  1  0
  3  2  1  0
  3  4  1  6
  3  5  1  0
  5  6  2  0
  7  5  1  0
  7 11  1  0
  8  7  1  0
  9  8  1  0
  9 10  1  0
 10 11  1  0
 11 12  1  1
 12 18  1  0
 12 13  2  0
 15 14  1  6
 15 17  1  0
 16 15  1  0
 17 19  1  0
 17 18  1  6
 19 20  1  0
 21 19  2  0
M  END
$$$$
