SPT.pdb
     RDKit          3D

 21 21  0  0  1  0  0  0  0  0999 V2000
    8.3949  -17.6942   17.5831 O   0  0  0  0  0  0  0  0  0  0  0  0
    7.8072  -16.7911   16.6781 C   0  0  0  0  0  0  0  0  0  0  0  0
    8.7394  -15.5944   16.5236 C   0  0  2  0  0  0  0  0  0  0  0  0
    9.8043  -16.0378   15.5897 N   0  0  0  0  0  0  0  0  0  0  0  0
    9.3935  -15.2346   17.8029 C   0  0  0  0  0  0  0  0  0  0  0  0
   10.5035  -15.8203   18.0458 O   0  0  0  0  0  0  0  0  0  0  0  0
    8.8524  -14.3039   18.7221 N   0  0  0  0  0  0  0  0  0  0  0  0
    7.6316  -13.5805   18.4841 C   0  0  0  0  0  0  0  0  0  0  0  0
    7.2094  -13.0576   19.8079 C   0  0  0  0  0  0  0  0  0  0  0  0
    8.5628  -12.7054   20.4280 C   0  0  0  0  0  0  0  0  0  0  0  0
    9.3858  -13.9159   19.9795 C   0  0  1  0  0  0  0  0  0  0  0  0
    9.3217  -14.9870   21.0099 C   0  0  0  0  0  0  0  0  0  0  0  0
    8.2050  -15.5244   21.2271 O   0  0  0  0  0  0  0  0  0  0  0  0
   11.1089  -18.2026   20.9793 C   0  0  0  0  0  0  0  0  0  0  0  0
   11.4012  -17.5799   22.3285 C   0  0  1  0  0  0  0  0  0  0  0  0
   12.6760  -17.0684   22.3504 O   0  0  0  0  0  0  0  0  0  0  0  0
   10.3528  -16.5520   22.7022 C   0  0  2  0  0  0  0  0  0  0  0  0
   10.4256  -15.4501   21.7662 N   0  0  0  0  0  0  0  0  0  0  0  0
   10.6216  -16.1330   24.0914 C   0  0  0  0  0  0  0  0  0  0  0  0
   10.4087  -17.0599   25.1006 O   0  0  0  0  0  0  0  0  0  0  0  0
   11.0310  -14.9907   24.4209 O   0  0  0  0  0  0  0  0  0  0  0  0
  2  1  1  0
  3  2  1  0
  3  4  1  6
  3  5  1  0
  5  6  2  0
  7  5  1  0
  7 11  1  0
  8  7  1  0
  9  8  1  0
  9 10  1  0
 10 11  1  0
 11 12  1  1
 12 18  1  0
 12 13  2  0
 15 14  1  6
 15 17  1  0
 16 15  1  0
 17 19  1  0
 17 18  1  6
 19 20  1  0
 21 19  2  0
M  END
$$$$
