SPT.pdb
     RDKit          3D

 21 21  0  0  1  0  0  0  0  0999 V2000
    6.8585  -16.1429   22.3231 O   0  0  0  0  0  0  0  0  0  0  0  0
    6.2721  -14.8880   22.0758 C   0  0  0  0  0  0  0  0  0  0  0  0
    7.3540  -13.8211   22.2030 C   0  0  2  0  0  0  0  0  0  0  0  0
    8.2873  -14.0649   21.0749 N   0  0  0  0  0  0  0  0  0  0  0  0
    8.1279  -13.9656   23.4576 C   0  0  0  0  0  0  0  0  0  0  0  0
    9.2483  -14.5725   23.3549 O   0  0  0  0  0  0  0  0  0  0  0  0
    7.6856  -13.4738   24.7091 N   0  0  0  0  0  0  0  0  0  0  0  0
    6.4273  -12.8001   24.8905 C   0  0  0  0  0  0  0  0  0  0  0  0
    6.1642  -12.8262   26.3515 C   0  0  0  0  0  0  0  0  0  0  0  0
    7.5764  -12.6309   26.9061 C   0  0  0  0  0  0  0  0  0  0  0  0
    8.3649  -13.5345   25.9545 C   0  0  1  0  0  0  0  0  0  0  0  0
    8.4584  -14.9091   26.5156 C   0  0  0  0  0  0  0  0  0  0  0  0
    7.3857  -15.5392   26.7029 O   0  0  0  0  0  0  0  0  0  0  0  0
   11.9349  -17.0653   26.1539 C   0  0  0  0  0  0  0  0  0  0  0  0
   10.5991  -17.7376   26.3928 C   0  0  1  0  0  0  0  0  0  0  0  0
   10.7864  -19.0291   26.8219 O   0  0  0  0  0  0  0  0  0  0  0  0
    9.7334  -16.9281   27.3366 C   0  0  2  0  0  0  0  0  0  0  0  0
    9.6668  -15.5647   26.8549 N   0  0  0  0  0  0  0  0  0  0  0  0
   10.3361  -17.0247   28.6801 C   0  0  0  0  0  0  0  0  0  0  0  0
   10.3617  -18.2692   29.2912 O   0  0  0  0  0  0  0  0  0  0  0  0
   10.8284  -16.0528   29.3080 O   0  0  0  0  0  0  0  0  0  0  0  0
  2  1  1  0
  3  2  1  0
  3  4  1  6
  3  5  1  0
  5  6  2  0
  7  5  1  0
  7 11  1  0
  8  7  1  0
  9  8  1  0
  9 10  1  0
 10 11  1  0
 11 12  1  1
 12 18  1  0
 12 13  2  0
 15 14  1  1
 15 17  1  0
 16 15  1  0
 17 19  1  0
 17 18  1  6
 19 20  1  0
 21 19  2  0
M  END
$$$$
