FHA.pdb
     RDKit          3D

 27 28  0  0  1  0  0  0  0  0999 V2000
   28.5192  -21.2443   -8.7201 N   0  0  0  0  0  0  0  0  0  0  0  0
   27.1457  -20.8591   -8.8027 C   0  0  1  0  0  0  0  0  0  0  0  0
   26.9962  -19.5184   -8.1088 C   0  0  0  0  0  0  0  0  0  0  0  0
   27.4529  -19.5918   -6.7075 C   0  0  0  0  0  0  0  0  0  0  0  0
   28.6504  -18.9683   -6.3523 C   0  0  0  0  0  0  0  0  0  0  0  0
   29.0795  -19.0352   -5.0438 C   0  0  0  0  0  0  0  0  0  0  0  0
   28.3476  -19.7036   -4.0918 C   0  0  0  0  0  0  0  0  0  0  0  0
   27.1653  -20.3166   -4.4532 C   0  0  0  0  0  0  0  0  0  0  0  0
   26.7142  -20.2636   -5.7582 C   0  0  0  0  0  0  0  0  0  0  0  0
   26.6811  -20.6968  -10.2078 C   0  0  0  0  0  0  0  0  0  0  0  0
   27.4642  -20.1498  -11.0210 O   0  0  0  0  0  0  0  0  0  0  0  0
   25.4105  -21.1329  -10.6387 N   0  0  0  0  0  0  0  0  0  0  0  0
   25.0317  -21.2047  -12.0707 C   0  0  1  0  0  0  0  0  0  0  0  0
   24.9714  -22.6302  -12.4852 C   0  0  0  0  0  0  0  0  0  0  0  0
   24.6525  -22.8559  -13.8954 C   0  0  0  0  0  0  0  0  0  0  0  0
   25.6211  -23.0130  -14.8937 C   0  0  0  0  0  0  0  0  0  0  0  0
   25.0452  -23.2001  -16.0727 N   0  0  0  0  0  0  0  0  0  0  0  0
   23.7197  -23.1680  -15.8625 C   0  0  0  0  0  0  0  0  0  0  0  0
   23.4876  -22.9613  -14.5551 N   0  0  0  0  0  0  0  0  0  0  0  0
   23.8563  -20.3803  -12.2853 C   0  0  0  0  0  0  0  0  0  0  0  0
   22.9576  -20.3914  -11.3699 O   0  0  0  0  0  0  0  0  0  0  0  0
   22.2953  -17.9631  -14.7326 C   0  0  0  0  0  0  0  0  0  0  0  0
   22.3428  -18.7864  -13.4479 C   0  0  2  0  0  0  0  0  0  0  0  0
   23.5780  -19.5454  -13.4007 N   0  0  0  0  0  0  0  0  0  0  0  0
   21.1526  -19.6567  -13.4762 C   0  0  0  0  0  0  0  0  0  0  0  0
   21.2757  -20.8492  -13.8414 O   0  0  0  0  0  0  0  0  0  0  0  0
   19.9258  -19.1535  -13.1031 O   0  0  0  0  0  0  0  0  0  0  0  0
  2  1  1  6
  2  3  1  0
  3  4  1  0
  4  9  1  0
  5  4  2  0
  5  6  1  0
  6  7  2  0
  7  8  1  0
  9  8  2  0
 10 11  2  0
 10  2  1  0
 12 10  1  0
 13 20  1  0
 13 12  1  0
 13 14  1  1
 15 14  1  0
 16 15  2  0
 17 16  1  0
 18 17  1  0
 18 19  2  0
 19 15  1  0
 20 24  1  0
 21 20  2  0
 23 22  1  6
 23 25  1  0
 24 23  1  0
 25 26  2  0
 25 27  1  0
M  END
$$$$
