FHA.pdb
     RDKit          3D

 27 28  0  0  1  0  0  0  0  0999 V2000
   23.2991  -17.4028  -17.2561 N   0  0  0  0  0  0  0  0  0  0  0  0
   22.2897  -16.5635  -16.6919 C   0  0  1  0  0  0  0  0  0  0  0  0
   22.1808  -16.8951  -15.2157 C   0  0  0  0  0  0  0  0  0  0  0  0
   21.6618  -18.2618  -15.0152 C   0  0  0  0  0  0  0  0  0  0  0  0
   20.3160  -18.5206  -15.2814 C   0  0  0  0  0  0  0  0  0  0  0  0
   19.8283  -19.7966  -15.0949 C   0  0  0  0  0  0  0  0  0  0  0  0
   20.6453  -20.8096  -14.6533 C   0  0  0  0  0  0  0  0  0  0  0  0
   21.9742  -20.5433  -14.3930 C   0  0  0  0  0  0  0  0  0  0  0  0
   22.4865  -19.2726  -14.5722 C   0  0  0  0  0  0  0  0  0  0  0  0
   22.6188  -15.1163  -16.8086 C   0  0  0  0  0  0  0  0  0  0  0  0
   23.8002  -14.7664  -16.5727 O   0  0  0  0  0  0  0  0  0  0  0  0
   21.6571  -14.1493  -17.1698 N   0  0  0  0  0  0  0  0  0  0  0  0
   22.0049  -12.7306  -17.4258 C   0  0  1  0  0  0  0  0  0  0  0  0
   21.1461  -12.2111  -18.5214 C   0  0  0  0  0  0  0  0  0  0  0  0
   21.2698  -10.7768  -18.7830 C   0  0  0  0  0  0  0  0  0  0  0  0
   20.2852   -9.8399  -18.4478 C   0  0  0  0  0  0  0  0  0  0  0  0
   20.6654   -8.6209  -18.8033 N   0  0  0  0  0  0  0  0  0  0  0  0
   21.8789   -8.7449  -19.3639 C   0  0  0  0  0  0  0  0  0  0  0  0
   22.2385  -10.0396  -19.3501 N   0  0  0  0  0  0  0  0  0  0  0  0
   22.0092  -12.0149  -16.1629 C   0  0  0  0  0  0  0  0  0  0  0  0
   21.0171  -12.2125  -15.3740 O   0  0  0  0  0  0  0  0  0  0  0  0
   24.2263  -10.2541  -13.7677 C   0  0  0  0  0  0  0  0  0  0  0  0
   22.8486  -10.5029  -14.3764 C   0  0  2  0  0  0  0  0  0  0  0  0
   22.9963  -11.1120  -15.6844 N   0  0  0  0  0  0  0  0  0  0  0  0
   22.1882   -9.1860  -14.4443 C   0  0  0  0  0  0  0  0  0  0  0  0
   22.1118   -8.5965  -15.5475 O   0  0  0  0  0  0  0  0  0  0  0  0
   21.6652   -8.6211  -13.3019 O   0  0  0  0  0  0  0  0  0  0  0  0
  2  1  1  1
  2  3  1  0
  3  4  1  0
  4  9  1  0
  5  4  2  0
  5  6  1  0
  6  7  2  0
  7  8  1  0
  9  8  2  0
 10 11  2  0
 10  2  1  0
 12 10  1  0
 13 20  1  0
 13 12  1  0
 13 14  1  6
 15 14  1  0
 16 15  2  0
 17 16  1  0
 18 17  1  0
 18 19  2  0
 19 15  1  0
 20 24  1  0
 21 20  2  0
 23 22  1  6
 23 25  1  0
 24 23  1  0
 25 26  2  0
 25 27  1  0
M  END
$$$$
