FHA.pdb
     RDKit          3D

 27 28  0  0  1  0  0  0  0  0999 V2000
   37.8274  -10.4825   -5.7756 N   0  0  0  0  0  0  0  0  0  0  0  0
   38.8266   -9.9707   -6.6595 C   0  0  1  0  0  0  0  0  0  0  0  0
   39.0888   -8.5260   -6.2783 C   0  0  0  0  0  0  0  0  0  0  0  0
   38.0761   -7.6289   -6.8677 C   0  0  0  0  0  0  0  0  0  0  0  0
   38.1858   -7.2763   -8.2140 C   0  0  0  0  0  0  0  0  0  0  0  0
   37.2411   -6.4383   -8.7674 C   0  0  0  0  0  0  0  0  0  0  0  0
   36.2002   -5.9495   -8.0147 C   0  0  0  0  0  0  0  0  0  0  0  0
   36.1009   -6.3042   -6.6848 C   0  0  0  0  0  0  0  0  0  0  0  0
   37.0352   -7.1426   -6.1074 C   0  0  0  0  0  0  0  0  0  0  0  0
   40.1152  -10.7086   -6.5541 C   0  0  0  0  0  0  0  0  0  0  0  0
   40.4829  -11.0795   -5.4134 O   0  0  0  0  0  0  0  0  0  0  0  0
   40.9161  -10.9953   -7.6796 N   0  0  0  0  0  0  0  0  0  0  0  0
   42.1324  -11.8402   -7.6027 C   0  0  1  0  0  0  0  0  0  0  0  0
   42.1754  -12.7368   -8.7867 C   0  0  0  0  0  0  0  0  0  0  0  0
   43.3711  -13.5738   -8.8912 C   0  0  0  0  0  0  0  0  0  0  0  0
   44.3772  -13.6131   -7.9186 C   0  0  0  0  0  0  0  0  0  0  0  0
   45.3364  -14.4543   -8.2780 N   0  0  0  0  0  0  0  0  0  0  0  0
   44.9752  -14.9643   -9.4661 C   0  0  0  0  0  0  0  0  0  0  0  0
   43.7956  -14.4338   -9.8311 N   0  0  0  0  0  0  0  0  0  0  0  0
   43.2792  -10.9870   -7.3495 C   0  0  0  0  0  0  0  0  0  0  0  0
   43.4316   -9.9680   -8.1139 O   0  0  0  0  0  0  0  0  0  0  0  0
   46.2632  -10.5707   -5.0715 C   0  0  0  0  0  0  0  0  0  0  0  0
   45.3106  -10.1477   -6.1870 C   0  0  2  0  0  0  0  0  0  0  0  0
   44.2660  -11.1424   -6.3393 N   0  0  0  0  0  0  0  0  0  0  0  0
   46.1370  -10.0145   -7.4012 C   0  0  0  0  0  0  0  0  0  0  0  0
   46.5650   -8.8829   -7.7282 O   0  0  0  0  0  0  0  0  0  0  0  0
   46.4284  -11.1278   -8.1583 O   0  0  0  0  0  0  0  0  0  0  0  0
  2  1  1  1
  2  3  1  0
  3  4  1  0
  4  9  1  0
  5  4  2  0
  5  6  1  0
  6  7  2  0
  7  8  1  0
  9  8  2  0
 10 11  2  0
 10  2  1  0
 12 10  1  0
 13 20  1  0
 13 12  1  0
 13 14  1  6
 15 14  1  0
 16 15  2  0
 17 16  1  0
 18 17  1  0
 18 19  2  0
 19 15  1  0
 20 24  1  0
 21 20  2  0
 23 22  1  1
 23 25  1  0
 24 23  1  0
 25 26  2  0
 25 27  1  0
M  END
$$$$
