FHA.pdb
     RDKit          3D

 27 28  0  0  1  0  0  0  0  0999 V2000
   18.9984  -17.1859  -20.1861 N   0  0  0  0  0  0  0  0  0  0  0  0
   19.2271  -16.9421  -18.7969 C   0  0  1  0  0  0  0  0  0  0  0  0
   17.8998  -16.5661  -18.1660 C   0  0  0  0  0  0  0  0  0  0  0  0
   17.4579  -15.2313  -18.6141 C   0  0  0  0  0  0  0  0  0  0  0  0
   16.3279  -15.1302  -19.4275 C   0  0  0  0  0  0  0  0  0  0  0  0
   15.9127  -13.8844  -19.8477 C   0  0  0  0  0  0  0  0  0  0  0  0
   16.5933  -12.7491  -19.4780 C   0  0  0  0  0  0  0  0  0  0  0  0
   17.7092  -12.8599  -18.6737 C   0  0  0  0  0  0  0  0  0  0  0  0
   18.1449  -14.0973  -18.2397 C   0  0  0  0  0  0  0  0  0  0  0  0
   19.7445  -18.1420  -18.0836 C   0  0  0  0  0  0  0  0  0  0  0  0
   19.2515  -19.2560  -18.3836 O   0  0  0  0  0  0  0  0  0  0  0  0
   20.7531  -18.0603  -17.1005 N   0  0  0  0  0  0  0  0  0  0  0  0
   21.3162  -19.2569  -16.4296 C   0  0  1  0  0  0  0  0  0  0  0  0
   22.7826  -19.0782  -16.2703 C   0  0  0  0  0  0  0  0  0  0  0  0
   23.4778  -20.1868  -15.6154 C   0  0  0  0  0  0  0  0  0  0  0  0
   22.8222  -21.2856  -15.0475 C   0  0  0  0  0  0  0  0  0  0  0  0
   23.7003  -22.1298  -14.5251 N   0  0  0  0  0  0  0  0  0  0  0  0
   24.9159  -21.6028  -14.7414 C   0  0  0  0  0  0  0  0  0  0  0  0
   24.7787  -20.4370  -15.3957 N   0  0  0  0  0  0  0  0  0  0  0  0
   20.5296  -19.5416  -15.2432 C   0  0  0  0  0  0  0  0  0  0  0  0
   20.2798  -18.5597  -14.4563 O   0  0  0  0  0  0  0  0  0  0  0  0
   18.5542  -22.2867  -13.5660 C   0  0  0  0  0  0  0  0  0  0  0  0
   19.1056  -20.8691  -13.6965 C   0  0  2  0  0  0  0  0  0  0  0  0
   19.9897  -20.7936  -14.8439 N   0  0  0  0  0  0  0  0  0  0  0  0
   19.8071  -20.5856  -12.4306 C   0  0  0  0  0  0  0  0  0  0  0  0
   21.0569  -20.4933  -12.4316 O   0  0  0  0  0  0  0  0  0  0  0  0
   19.0862  -20.4259  -11.2677 O   0  0  0  0  0  0  0  0  0  0  0  0
  2  1  1  6
  2  3  1  0
  3  4  1  0
  4  9  1  0
  5  4  2  0
  5  6  1  0
  6  7  2  0
  7  8  1  0
  9  8  2  0
 10 11  2  0
 10  2  1  0
 12 10  1  0
 13 20  1  0
 13 12  1  0
 13 14  1  1
 15 14  1  0
 16 15  2  0
 17 16  1  0
 18 17  1  0
 18 19  2  0
 19 15  1  0
 20 24  1  0
 21 20  2  0
 23 22  1  1
 23 25  1  0
 24 23  1  0
 25 26  2  0
 25 27  1  0
M  END
$$$$
