FHA.pdb
     RDKit          3D

 27 28  0  0  1  0  0  0  0  0999 V2000
   24.5281  -17.7731  -15.9027 N   0  0  0  0  0  0  0  0  0  0  0  0
   25.5042  -18.3203  -15.0141 C   0  0  1  0  0  0  0  0  0  0  0  0
   26.4877  -17.2183  -14.6682 C   0  0  0  0  0  0  0  0  0  0  0  0
   27.4865  -17.0422  -15.7401 C   0  0  0  0  0  0  0  0  0  0  0  0
   27.5122  -15.8407  -16.4505 C   0  0  0  0  0  0  0  0  0  0  0  0
   28.4443  -15.6733  -17.4526 C   0  0  0  0  0  0  0  0  0  0  0  0
   29.3420  -16.6680  -17.7581 C   0  0  0  0  0  0  0  0  0  0  0  0
   29.3083  -17.8520  -17.0499 C   0  0  0  0  0  0  0  0  0  0  0  0
   28.3836  -18.0436  -16.0412 C   0  0  0  0  0  0  0  0  0  0  0  0
   24.9073  -18.8112  -13.7417 C   0  0  0  0  0  0  0  0  0  0  0  0
   24.1390  -18.0373  -13.1215 O   0  0  0  0  0  0  0  0  0  0  0  0
   25.1777  -20.0965  -13.2266 N   0  0  0  0  0  0  0  0  0  0  0  0
   24.4914  -20.6403  -12.0297 C   0  0  1  0  0  0  0  0  0  0  0  0
   23.9193  -21.9708  -12.3617 C   0  0  0  0  0  0  0  0  0  0  0  0
   22.6532  -21.9392  -13.0945 C   0  0  0  0  0  0  0  0  0  0  0  0
   21.9830  -20.7578  -13.4335 C   0  0  0  0  0  0  0  0  0  0  0  0
   20.8650  -21.0316  -14.0907 N   0  0  0  0  0  0  0  0  0  0  0  0
   20.7932  -22.3687  -14.1868 C   0  0  0  0  0  0  0  0  0  0  0  0
   21.8676  -22.9101  -13.5881 N   0  0  0  0  0  0  0  0  0  0  0  0
   25.3893  -20.5468  -10.8930 C   0  0  0  0  0  0  0  0  0  0  0  0
   26.5243  -21.1363  -10.9927 O   0  0  0  0  0  0  0  0  0  0  0  0
   25.9205  -18.8870   -7.5713 C   0  0  0  0  0  0  0  0  0  0  0  0
   26.0876  -20.0366   -8.5618 C   0  0  2  0  0  0  0  0  0  0  0  0
   25.1628  -19.8668   -9.6662 N   0  0  0  0  0  0  0  0  0  0  0  0
   25.8282  -21.2727   -7.8004 C   0  0  0  0  0  0  0  0  0  0  0  0
   24.8445  -21.9854   -8.1084 O   0  0  0  0  0  0  0  0  0  0  0  0
   26.6645  -21.6292   -6.7654 O   0  0  0  0  0  0  0  0  0  0  0  0
  2  1  1  6
  2  3  1  0
  3  4  1  0
  4  9  1  0
  5  4  2  0
  5  6  1  0
  6  7  2  0
  7  8  1  0
  9  8  2  0
 10 11  2  0
 10  2  1  0
 12 10  1  0
 13 20  1  0
 13 12  1  0
 13 14  1  6
 15 14  1  0
 16 15  2  0
 17 16  1  0
 18 17  1  0
 18 19  2  0
 19 15  1  0
 20 24  1  0
 21 20  2  0
 23 22  1  1
 23 25  1  0
 24 23  1  0
 25 26  2  0
 25 27  1  0
M  END
$$$$
