FHA.pdb
     RDKit          3D

 27 28  0  0  1  0  0  0  0  0999 V2000
   20.7936   -8.0079  -19.2184 N   0  0  0  0  0  0  0  0  0  0  0  0
   21.0748   -6.7011  -18.7135 C   0  0  1  0  0  0  0  0  0  0  0  0
   20.5839   -5.6925  -19.7347 C   0  0  0  0  0  0  0  0  0  0  0  0
   21.4298   -5.7061  -20.9438 C   0  0  0  0  0  0  0  0  0  0  0  0
   20.9226   -6.2644  -22.1185 C   0  0  0  0  0  0  0  0  0  0  0  0
   21.7107   -6.2785  -23.2497 C   0  0  0  0  0  0  0  0  0  0  0  0
   22.9805   -5.7531  -23.2347 C   0  0  0  0  0  0  0  0  0  0  0  0
   23.4725   -5.2035  -22.0684 C   0  0  0  0  0  0  0  0  0  0  0  0
   22.7020   -5.1776  -20.9217 C   0  0  0  0  0  0  0  0  0  0  0  0
   20.3766   -6.4223  -17.4287 C   0  0  0  0  0  0  0  0  0  0  0  0
   19.2325   -6.9116  -17.2690 O   0  0  0  0  0  0  0  0  0  0  0  0
   20.9558   -5.6389  -16.4083 N   0  0  0  0  0  0  0  0  0  0  0  0
   20.2716   -5.3677  -15.1209 C   0  0  1  0  0  0  0  0  0  0  0  0
   21.1980   -5.6850  -14.0034 C   0  0  0  0  0  0  0  0  0  0  0  0
   21.3976   -7.1115  -13.7457 C   0  0  0  0  0  0  0  0  0  0  0  0
   20.8008   -8.1269  -14.5023 C   0  0  0  0  0  0  0  0  0  0  0  0
   21.1570   -9.3178  -14.0424 N   0  0  0  0  0  0  0  0  0  0  0  0
   21.9747   -9.0986  -13.0004 C   0  0  0  0  0  0  0  0  0  0  0  0
   22.1169   -7.7739  -12.8252 N   0  0  0  0  0  0  0  0  0  0  0  0
   19.6910   -4.0382  -15.1707 C   0  0  0  0  0  0  0  0  0  0  0  0
   20.4753   -3.0670  -15.4665 O   0  0  0  0  0  0  0  0  0  0  0  0
   16.4329   -2.2007  -15.2751 C   0  0  0  0  0  0  0  0  0  0  0  0
   17.9345   -2.2854  -15.0133 C   0  0  2  0  0  0  0  0  0  0  0  0
   18.3378   -3.6764  -14.9334 N   0  0  0  0  0  0  0  0  0  0  0  0
   18.1703   -1.5615  -13.7502 C   0  0  0  0  0  0  0  0  0  0  0  0
   18.4949   -2.2076  -12.7267 O   0  0  0  0  0  0  0  0  0  0  0  0
   18.0326   -0.1915  -13.7087 O   0  0  0  0  0  0  0  0  0  0  0  0
  2  1  1  6
  2  3  1  0
  3  4  1  0
  4  9  1  0
  5  4  2  0
  5  6  1  0
  6  7  2  0
  7  8  1  0
  9  8  2  0
 10 11  2  0
 10  2  1  0
 12 10  1  0
 13 20  1  0
 13 12  1  0
 13 14  1  1
 15 14  1  0
 16 15  2  0
 17 16  1  0
 18 17  1  0
 18 19  2  0
 19 15  1  0
 20 24  1  0
 21 20  2  0
 23 22  1  1
 23 25  1  0
 24 23  1  0
 25 26  2  0
 25 27  1  0
M  END
$$$$
