FHA.pdb
     RDKit          3D

 27 28  0  0  1  0  0  0  0  0999 V2000
   28.1070  -20.2685  -10.6925 N   0  0  0  0  0  0  0  0  0  0  0  0
   26.8979  -21.0168  -10.5515 C   0  0  1  0  0  0  0  0  0  0  0  0
   26.2786  -20.6524   -9.2155 C   0  0  0  0  0  0  0  0  0  0  0  0
   27.3167  -20.4489   -8.1867 C   0  0  0  0  0  0  0  0  0  0  0  0
   27.1465  -19.4322   -7.2452 C   0  0  0  0  0  0  0  0  0  0  0  0
   28.1148  -19.2398   -6.2828 C   0  0  0  0  0  0  0  0  0  0  0  0
   29.2375  -20.0312   -6.2396 C   0  0  0  0  0  0  0  0  0  0  0  0
   29.3963  -21.0335   -7.1749 C   0  0  0  0  0  0  0  0  0  0  0  0
   28.4398  -21.2460   -8.1492 C   0  0  0  0  0  0  0  0  0  0  0  0
   25.9034  -20.7015  -11.6135 C   0  0  0  0  0  0  0  0  0  0  0  0
   25.6143  -19.4952  -11.8016 O   0  0  0  0  0  0  0  0  0  0  0  0
   25.2911  -21.7024  -12.3968 N   0  0  0  0  0  0  0  0  0  0  0  0
   24.4240  -21.3914  -13.5589 C   0  0  1  0  0  0  0  0  0  0  0  0
   24.5525  -22.4779  -14.5642 C   0  0  0  0  0  0  0  0  0  0  0  0
   23.7257  -22.3201  -15.7611 C   0  0  0  0  0  0  0  0  0  0  0  0
   22.8288  -21.2621  -15.9497 C   0  0  0  0  0  0  0  0  0  0  0  0
   22.2168  -21.3764  -17.1199 N   0  0  0  0  0  0  0  0  0  0  0  0
   22.6974  -22.4887  -17.6979 C   0  0  0  0  0  0  0  0  0  0  0  0
   23.6025  -23.0524  -16.8800 N   0  0  0  0  0  0  0  0  0  0  0  0
   23.0956  -21.0607  -13.0760 C   0  0  0  0  0  0  0  0  0  0  0  0
   22.6189  -21.7847  -12.1303 O   0  0  0  0  0  0  0  0  0  0  0  0
   20.3533  -18.4907  -13.4052 C   0  0  0  0  0  0  0  0  0  0  0  0
   20.9740  -19.7801  -12.8734 C   0  0  2  0  0  0  0  0  0  0  0  0
   22.2479  -20.0133  -13.5264 N   0  0  0  0  0  0  0  0  0  0  0  0
   19.9978  -20.8493  -13.1541 C   0  0  0  0  0  0  0  0  0  0  0  0
   19.1128  -21.1074  -12.3051 O   0  0  0  0  0  0  0  0  0  0  0  0
   20.0679  -21.5486  -14.3388 O   0  0  0  0  0  0  0  0  0  0  0  0
  2  1  1  6
  2  3  1  0
  3  4  1  0
  4  9  1  0
  5  4  2  0
  5  6  1  0
  6  7  2  0
  7  8  1  0
  9  8  2  0
 10 11  2  0
 10  2  1  0
 12 10  1  0
 13 20  1  0
 13 12  1  0
 13 14  1  6
 15 14  1  0
 16 15  2  0
 17 16  1  0
 18 17  1  0
 18 19  2  0
 19 15  1  0
 20 24  1  0
 21 20  2  0
 23 22  1  6
 23 25  1  0
 24 23  1  0
 25 26  2  0
 25 27  1  0
M  END
$$$$
