FHA.pdb
     RDKit          3D

 27 28  0  0  1  0  0  0  0  0999 V2000
   24.3277  -20.3302  -19.0003 N   0  0  0  0  0  0  0  0  0  0  0  0
   23.5222  -19.3133  -18.4013 C   0  0  1  0  0  0  0  0  0  0  0  0
   22.5720  -18.7885  -19.4609 C   0  0  0  0  0  0  0  0  0  0  0  0
   23.3051  -18.0802  -20.5280 C   0  0  0  0  0  0  0  0  0  0  0  0
   24.0445  -16.9422  -20.2006 C   0  0  0  0  0  0  0  0  0  0  0  0
   24.7305  -16.2784  -21.1955 C   0  0  0  0  0  0  0  0  0  0  0  0
   24.6952  -16.7206  -22.4963 C   0  0  0  0  0  0  0  0  0  0  0  0
   23.9613  -17.8466  -22.8094 C   0  0  0  0  0  0  0  0  0  0  0  0
   23.2653  -18.5290  -21.8299 C   0  0  0  0  0  0  0  0  0  0  0  0
   22.7015  -19.8265  -17.2702 C   0  0  0  0  0  0  0  0  0  0  0  0
   22.2656  -21.0000  -17.3519 O   0  0  0  0  0  0  0  0  0  0  0  0
   22.4079  -19.0440  -16.1336 N   0  0  0  0  0  0  0  0  0  0  0  0
   21.5720  -19.5405  -15.0138 C   0  0  1  0  0  0  0  0  0  0  0  0
   21.9942  -18.8672  -13.7583 C   0  0  0  0  0  0  0  0  0  0  0  0
   21.2624  -19.2725  -12.5577 C   0  0  0  0  0  0  0  0  0  0  0  0
   20.1279  -20.0922  -12.5811 C   0  0  0  0  0  0  0  0  0  0  0  0
   19.6746  -20.2912  -11.3516 N   0  0  0  0  0  0  0  0  0  0  0  0
   20.4917  -19.6170  -10.5269 C   0  0  0  0  0  0  0  0  0  0  0  0
   21.4432  -19.0070  -11.2538 N   0  0  0  0  0  0  0  0  0  0  0  0
   20.1751  -19.4545  -15.3990 C   0  0  0  0  0  0  0  0  0  0  0  0
   19.7926  -18.3762  -15.9794 O   0  0  0  0  0  0  0  0  0  0  0  0
   17.0592  -21.4483  -15.8944 C   0  0  0  0  0  0  0  0  0  0  0  0
   17.7941  -20.1460  -15.5872 C   0  0  2  0  0  0  0  0  0  0  0  0
   19.1652  -20.4365  -15.2135 N   0  0  0  0  0  0  0  0  0  0  0  0
   17.0419  -19.5002  -14.4954 C   0  0  0  0  0  0  0  0  0  0  0  0
   17.5437  -19.4598  -13.3477 O   0  0  0  0  0  0  0  0  0  0  0  0
   15.8036  -18.9513  -14.7465 O   0  0  0  0  0  0  0  0  0  0  0  0
  2  1  1  6
  2  3  1  0
  3  4  1  0
  4  9  1  0
  5  4  2  0
  5  6  1  0
  6  7  2  0
  7  8  1  0
  9  8  2  0
 10 11  2  0
 10  2  1  0
 12 10  1  0
 13 20  1  0
 13 12  1  0
 13 14  1  1
 15 14  1  0
 16 15  2  0
 17 16  1  0
 18 17  1  0
 18 19  2  0
 19 15  1  0
 20 24  1  0
 21 20  2  0
 23 22  1  1
 23 25  1  0
 24 23  1  0
 25 26  2  0
 25 27  1  0
M  END
$$$$
