FHA.pdb
     RDKit          3D

 27 28  0  0  1  0  0  0  0  0999 V2000
   24.3114  -11.1922  -16.6280 N   0  0  0  0  0  0  0  0  0  0  0  0
   23.2396  -10.3561  -17.0682 C   0  0  1  0  0  0  0  0  0  0  0  0
   21.9428  -10.9547  -16.5570 C   0  0  0  0  0  0  0  0  0  0  0  0
   21.5986  -12.1852  -17.2952 C   0  0  0  0  0  0  0  0  0  0  0  0
   21.7379  -13.4188  -16.6567 C   0  0  0  0  0  0  0  0  0  0  0  0
   21.4170  -14.5702  -17.3440 C   0  0  0  0  0  0  0  0  0  0  0  0
   20.9649  -14.5183  -18.6408 C   0  0  0  0  0  0  0  0  0  0  0  0
   20.8307  -13.2937  -19.2628 C   0  0  0  0  0  0  0  0  0  0  0  0
   21.1459  -12.1258  -18.5951 C   0  0  0  0  0  0  0  0  0  0  0  0
   23.3402   -8.9697  -16.5351 C   0  0  0  0  0  0  0  0  0  0  0  0
   24.0106   -8.7946  -15.4892 O   0  0  0  0  0  0  0  0  0  0  0  0
   22.7148   -7.8716  -17.1624 N   0  0  0  0  0  0  0  0  0  0  0  0
   22.9116   -6.4728  -16.7110 C   0  0  1  0  0  0  0  0  0  0  0  0
   23.9330   -5.8244  -17.5735 C   0  0  0  0  0  0  0  0  0  0  0  0
   24.2808   -4.4521  -17.2031 C   0  0  0  0  0  0  0  0  0  0  0  0
   23.6828   -3.7600  -16.1434 C   0  0  0  0  0  0  0  0  0  0  0  0
   24.1905   -2.5399  -16.0417 N   0  0  0  0  0  0  0  0  0  0  0  0
   25.1080   -2.4230  -17.0147 C   0  0  0  0  0  0  0  0  0  0  0  0
   25.1596   -3.5721  -17.7096 N   0  0  0  0  0  0  0  0  0  0  0  0
   21.6140   -5.8335  -16.5898 C   0  0  0  0  0  0  0  0  0  0  0  0
   20.8004   -5.9681  -17.5725 O   0  0  0  0  0  0  0  0  0  0  0  0
   19.4909   -3.8464  -16.8209 C   0  0  0  0  0  0  0  0  0  0  0  0
   19.7614   -4.5767  -15.5078 C   0  0  2  0  0  0  0  0  0  0  0  0
   21.1256   -5.0695  -15.4962 N   0  0  0  0  0  0  0  0  0  0  0  0
   18.7721   -5.6681  -15.4361 C   0  0  0  0  0  0  0  0  0  0  0  0
   19.1691   -6.8563  -15.4696 O   0  0  0  0  0  0  0  0  0  0  0  0
   17.4307   -5.3723  -15.3334 O   0  0  0  0  0  0  0  0  0  0  0  0
  2  1  1  1
  2  3  1  0
  3  4  1  0
  4  9  1  0
  5  4  2  0
  5  6  1  0
  6  7  2  0
  7  8  1  0
  9  8  2  0
 10 11  2  0
 10  2  1  0
 12 10  1  0
 13 20  1  0
 13 12  1  0
 13 14  1  6
 15 14  1  0
 16 15  2  0
 17 16  1  0
 18 17  1  0
 18 19  2  0
 19 15  1  0
 20 24  1  0
 21 20  2  0
 23 22  1  6
 23 25  1  0
 24 23  1  0
 25 26  2  0
 25 27  1  0
M  END
$$$$
