FHA.pdb
     RDKit          3D

 27 28  0  0  1  0  0  0  0  0999 V2000
   26.1988  -14.3311  -19.3080 N   0  0  0  0  0  0  0  0  0  0  0  0
   25.7552  -13.1135  -18.7061 C   0  0  1  0  0  0  0  0  0  0  0  0
   26.9329  -12.1582  -18.6670 C   0  0  0  0  0  0  0  0  0  0  0  0
   28.0042  -12.6713  -17.7914 C   0  0  0  0  0  0  0  0  0  0  0  0
   29.1488  -13.2199  -18.3727 C   0  0  0  0  0  0  0  0  0  0  0  0
   30.1514  -13.7001  -17.5571 C   0  0  0  0  0  0  0  0  0  0  0  0
   30.0381  -13.6456  -16.1886 C   0  0  0  0  0  0  0  0  0  0  0  0
   28.9026  -13.1013  -15.6239 C   0  0  0  0  0  0  0  0  0  0  0  0
   27.8841  -12.6135  -16.4202 C   0  0  0  0  0  0  0  0  0  0  0  0
   24.6648  -12.4578  -19.4792 C   0  0  0  0  0  0  0  0  0  0  0  0
   24.6559  -12.6167  -20.7236 O   0  0  0  0  0  0  0  0  0  0  0  0
   23.6633  -11.6795  -18.8617 N   0  0  0  0  0  0  0  0  0  0  0  0
   22.5705  -11.0289  -19.6244 C   0  0  1  0  0  0  0  0  0  0  0  0
   21.2815  -11.6803  -19.2757 C   0  0  0  0  0  0  0  0  0  0  0  0
   20.0961  -11.0871  -19.8953 C   0  0  0  0  0  0  0  0  0  0  0  0
   19.8944  -11.0234  -21.2791 C   0  0  0  0  0  0  0  0  0  0  0  0
   18.7395  -10.4333  -21.5524 N   0  0  0  0  0  0  0  0  0  0  0  0
   18.1841  -10.1109  -20.3734 C   0  0  0  0  0  0  0  0  0  0  0  0
   19.0006  -10.5046  -19.3813 N   0  0  0  0  0  0  0  0  0  0  0  0
   22.6764   -9.5907  -19.4586 C   0  0  0  0  0  0  0  0  0  0  0  0
   23.0949   -9.1608  -18.3247 O   0  0  0  0  0  0  0  0  0  0  0  0
   22.3794   -6.3152  -21.2924 C   0  0  0  0  0  0  0  0  0  0  0  0
   22.4274   -7.1859  -20.0393 C   0  0  2  0  0  0  0  0  0  0  0  0
   22.3732   -8.5856  -20.4159 N   0  0  0  0  0  0  0  0  0  0  0  0
   21.2711   -6.7828  -19.2175 C   0  0  0  0  0  0  0  0  0  0  0  0
   20.3668   -7.6182  -18.9830 O   0  0  0  0  0  0  0  0  0  0  0  0
   21.1973   -5.5008  -18.7189 O   0  0  0  0  0  0  0  0  0  0  0  0
  2  1  1  6
  2  3  1  0
  3  4  1  0
  4  9  1  0
  5  4  2  0
  5  6  1  0
  6  7  2  0
  7  8  1  0
  9  8  2  0
 10 11  2  0
 10  2  1  0
 12 10  1  0
 13 20  1  0
 13 12  1  0
 13 14  1  1
 15 14  1  0
 16 15  2  0
 17 16  1  0
 18 17  1  0
 18 19  2  0
 19 15  1  0
 20 24  1  0
 21 20  2  0
 23 22  1  6
 23 25  1  0
 24 23  1  0
 25 26  2  0
 25 27  1  0
M  END
$$$$
