FHA.pdb
     RDKit          3D

 27 28  0  0  1  0  0  0  0  0999 V2000
   28.0790  -23.2852  -18.1334 N   0  0  0  0  0  0  0  0  0  0  0  0
   27.0805  -23.5130  -17.1369 C   0  0  1  0  0  0  0  0  0  0  0  0
   27.7560  -24.1553  -15.9401 C   0  0  0  0  0  0  0  0  0  0  0  0
   28.0383  -25.5817  -16.1917 C   0  0  0  0  0  0  0  0  0  0  0  0
   27.0152  -26.5153  -16.0165 C   0  0  0  0  0  0  0  0  0  0  0  0
   27.2761  -27.8487  -16.2508 C   0  0  0  0  0  0  0  0  0  0  0  0
   28.5223  -28.2667  -16.6520 C   0  0  0  0  0  0  0  0  0  0  0  0
   29.5268  -27.3358  -16.8223 C   0  0  0  0  0  0  0  0  0  0  0  0
   29.2900  -25.9938  -16.5937 C   0  0  0  0  0  0  0  0  0  0  0  0
   26.4381  -22.2527  -16.6729 C   0  0  0  0  0  0  0  0  0  0  0  0
   27.0143  -21.1714  -16.9424 O   0  0  0  0  0  0  0  0  0  0  0  0
   25.2246  -22.2435  -15.9535 N   0  0  0  0  0  0  0  0  0  0  0  0
   24.4679  -20.9988  -15.6754 C   0  0  1  0  0  0  0  0  0  0  0  0
   24.0963  -20.3593  -16.9640 C   0  0  0  0  0  0  0  0  0  0  0  0
   23.2905  -19.1436  -16.8465 C   0  0  0  0  0  0  0  0  0  0  0  0
   23.6657  -17.9092  -17.3899 C   0  0  0  0  0  0  0  0  0  0  0  0
   22.7483  -16.9893  -17.1275 N   0  0  0  0  0  0  0  0  0  0  0  0
   21.7820  -17.6000  -16.4235 C   0  0  0  0  0  0  0  0  0  0  0  0
   22.1105  -18.8924  -16.2567 N   0  0  0  0  0  0  0  0  0  0  0  0
   23.4078  -21.2973  -14.7298 C   0  0  0  0  0  0  0  0  0  0  0  0
   22.6810  -22.3268  -14.9701 O   0  0  0  0  0  0  0  0  0  0  0  0
   21.8101  -20.0900  -11.5289 C   0  0  0  0  0  0  0  0  0  0  0  0
   21.8754  -20.9201  -12.8084 C   0  0  2  0  0  0  0  0  0  0  0  0
   23.0751  -20.5802  -13.5493 N   0  0  0  0  0  0  0  0  0  0  0  0
   20.6461  -20.6078  -13.5610 C   0  0  0  0  0  0  0  0  0  0  0  0
   20.7278  -19.9268  -14.6098 O   0  0  0  0  0  0  0  0  0  0  0  0
   19.4288  -21.0652  -13.1066 O   0  0  0  0  0  0  0  0  0  0  0  0
  2  1  1  6
  2  3  1  0
  3  4  1  0
  4  9  1  0
  5  4  2  0
  5  6  1  0
  6  7  2  0
  7  8  1  0
  9  8  2  0
 10 11  2  0
 10  2  1  0
 12 10  1  0
 13 20  1  0
 13 12  1  0
 13 14  1  6
 15 14  1  0
 16 15  2  0
 17 16  1  0
 18 17  1  0
 18 19  2  0
 19 15  1  0
 20 24  1  0
 21 20  2  0
 23 22  1  1
 23 25  1  0
 24 23  1  0
 25 26  2  0
 25 27  1  0
M  END
$$$$
