FHA.pdb
     RDKit          3D

 27 28  0  0  1  0  0  0  0  0999 V2000
   23.3273   -2.8789  -15.4165 N   0  0  0  0  0  0  0  0  0  0  0  0
   23.8162   -3.9823  -16.1815 C   0  0  1  0  0  0  0  0  0  0  0  0
   25.3177   -3.8200  -16.3246 C   0  0  0  0  0  0  0  0  0  0  0  0
   25.6493   -2.8923  -17.4232 C   0  0  0  0  0  0  0  0  0  0  0  0
   25.7864   -1.5318  -17.1421 C   0  0  0  0  0  0  0  0  0  0  0  0
   26.0962   -0.6627  -18.1666 C   0  0  0  0  0  0  0  0  0  0  0  0
   26.2704   -1.1166  -19.4521 C   0  0  0  0  0  0  0  0  0  0  0  0
   26.1327   -2.4634  -19.7194 C   0  0  0  0  0  0  0  0  0  0  0  0
   25.8226   -3.3542  -18.7096 C   0  0  0  0  0  0  0  0  0  0  0  0
   23.5626   -5.2925  -15.5215 C   0  0  0  0  0  0  0  0  0  0  0  0
   23.4458   -5.3028  -14.2724 O   0  0  0  0  0  0  0  0  0  0  0  0
   23.4526   -6.4963  -16.2488 N   0  0  0  0  0  0  0  0  0  0  0  0
   23.0020   -7.7669  -15.6309 C   0  0  1  0  0  0  0  0  0  0  0  0
   21.5431   -7.9276  -15.8619 C   0  0  0  0  0  0  0  0  0  0  0  0
   20.9628   -9.1659  -15.3414 C   0  0  0  0  0  0  0  0  0  0  0  0
   21.6930  -10.1251  -14.6297 C   0  0  0  0  0  0  0  0  0  0  0  0
   20.9129  -11.1398  -14.2855 N   0  0  0  0  0  0  0  0  0  0  0  0
   19.6880  -10.8609  -14.7589 C   0  0  0  0  0  0  0  0  0  0  0  0
   19.7215   -9.6759  -15.3919 N   0  0  0  0  0  0  0  0  0  0  0  0
   23.8842   -8.8356  -16.0630 C   0  0  0  0  0  0  0  0  0  0  0  0
   24.0717   -8.9664  -17.3253 O   0  0  0  0  0  0  0  0  0  0  0  0
   26.2702  -11.4559  -14.7864 C   0  0  0  0  0  0  0  0  0  0  0  0
   25.4050  -10.7917  -15.8545 C   0  0  2  0  0  0  0  0  0  0  0  0
   24.5804   -9.7657  -15.2452 N   0  0  0  0  0  0  0  0  0  0  0  0
   24.6005  -11.8706  -16.4575 C   0  0  0  0  0  0  0  0  0  0  0  0
   23.4280  -12.0565  -16.0559 O   0  0  0  0  0  0  0  0  0  0  0  0
   25.1422  -12.6577  -17.4497 O   0  0  0  0  0  0  0  0  0  0  0  0
  2  1  1  1
  2  3  1  0
  3  4  1  0
  4  9  1  0
  5  4  2  0
  5  6  1  0
  6  7  2  0
  7  8  1  0
  9  8  2  0
 10 11  2  0
 10  2  1  0
 12 10  1  0
 13 20  1  0
 13 12  1  0
 13 14  1  6
 15 14  1  0
 16 15  2  0
 17 16  1  0
 18 17  1  0
 18 19  2  0
 19 15  1  0
 20 24  1  0
 21 20  2  0
 23 22  1  1
 23 25  1  0
 24 23  1  0
 25 26  2  0
 25 27  1  0
M  END
$$$$
