ELN.pdb
     RDKit          3D

 26 25  0  0  1  0  0  0  0  0999 V2000
   22.7472  -18.7559  -13.6323 N   0  0  0  0  0  0  0  0  0  0  0  0
   22.4780  -20.1399  -13.9778 C   0  0  1  0  0  0  0  0  0  0  0  0
   23.5564  -20.6655  -14.9326 C   0  0  0  0  0  0  0  0  0  0  0  0
   23.6904  -19.7055  -16.1223 C   0  0  0  0  0  0  0  0  0  0  0  0
   23.7615  -20.4886  -17.3797 C   0  0  0  0  0  0  0  0  0  0  0  0
   22.7421  -20.8635  -18.0060 O   0  0  0  0  0  0  0  0  0  0  0  0
   22.5076  -20.9296  -12.7214 C   0  0  0  0  0  0  0  0  0  0  0  0
   22.2796  -22.1773  -12.7503 O   0  0  0  0  0  0  0  0  0  0  0  0
   25.0160  -20.8205  -17.8809 O   0  0  0  0  0  0  0  0  0  0  0  0
   25.8055  -21.6724   -9.6594 C   0  0  0  0  0  0  0  0  0  0  0  0
   25.1290  -20.3293   -9.4819 C   0  0  2  0  0  0  0  0  0  0  0  0
   25.9340  -19.4754   -8.5527 C   0  0  0  0  0  0  0  0  0  0  0  0
   23.6800  -20.4274   -9.1811 C   0  0  0  0  0  0  0  0  0  0  0  0
   22.7918  -20.9664  -10.2418 C   0  0  2  0  0  0  0  0  0  0  0  0
   22.7940  -20.2624  -11.4860 N   0  0  0  0  0  0  0  0  0  0  0  0
   21.4145  -21.2266   -9.7394 C   0  0  0  0  0  0  0  0  0  0  0  0
   20.5795  -20.2913   -9.7573 O   0  0  0  0  0  0  0  0  0  0  0  0
   16.6344  -22.8932  -10.5330 N   0  0  0  0  0  0  0  0  0  0  0  0
   17.5860  -23.8588  -10.0436 C   0  0  0  0  0  0  0  0  0  0  0  0
   17.1400  -24.8894   -9.5003 O   0  0  0  0  0  0  0  0  0  0  0  0
   19.0149  -23.5312  -10.2357 C   0  0  0  0  0  0  0  0  0  0  0  0
   19.5283  -22.7561   -9.0712 C   0  0  2  0  0  0  0  0  0  0  0  0
   20.9742  -22.4792   -9.2319 N   0  0  0  0  0  0  0  0  0  0  0  0
   19.3805  -23.5605   -7.8358 C   0  0  0  0  0  0  0  0  0  0  0  0
   18.2430  -23.9041   -7.3889 O   0  0  0  0  0  0  0  0  0  0  0  0
   20.4974  -23.9689   -7.1231 O   0  0  0  0  0  0  0  0  0  0  0  0
  2  1  1  1
  3  2  1  0
  4  3  1  0
  5  4  1  0
  5  6  2  0
  7  2  1  0
  7  8  2  0
  9  5  1  0
 11 10  1  1
 11 12  1  0
 14 13  1  1
 13 11  1  0
 14 15  1  0
 15  7  1  0
 16 14  1  0
 17 16  2  0
 18 19  1  0
 19 21  1  0
 20 19  2  0
 22 21  1  6
 22 23  1  0
 23 16  1  0
 24 26  1  0
 24 22  1  0
 25 24  2  0
M  END
$$$$
