ELN.pdb
     RDKit          3D

 26 25  0  0  1  0  0  0  0  0999 V2000
   27.5945  -21.6480  -15.9464 N   0  0  0  0  0  0  0  0  0  0  0  0
   26.8085  -20.4790  -15.5961 C   0  0  1  0  0  0  0  0  0  0  0  0
   26.2734  -19.8028  -16.8641 C   0  0  0  0  0  0  0  0  0  0  0  0
   27.4391  -19.1520  -17.6208 C   0  0  0  0  0  0  0  0  0  0  0  0
   27.9803  -20.1144  -18.6107 C   0  0  0  0  0  0  0  0  0  0  0  0
   27.2498  -20.8690  -19.2954 O   0  0  0  0  0  0  0  0  0  0  0  0
   25.6672  -20.9383  -14.7658 C   0  0  0  0  0  0  0  0  0  0  0  0
   24.9494  -21.9094  -15.1551 O   0  0  0  0  0  0  0  0  0  0  0  0
   29.3593  -20.1802  -18.7821 O   0  0  0  0  0  0  0  0  0  0  0  0
   25.9996  -22.4236  -10.7729 C   0  0  0  0  0  0  0  0  0  0  0  0
   25.7673  -20.9337  -10.6343 C   0  0  2  0  0  0  0  0  0  0  0  0
   26.0181  -20.5112   -9.2205 C   0  0  0  0  0  0  0  0  0  0  0  0
   24.4914  -20.4716  -11.2326 C   0  0  0  0  0  0  0  0  0  0  0  0
   24.3041  -20.6694  -12.6921 C   0  0  2  0  0  0  0  0  0  0  0  0
   25.3922  -20.2695  -13.5287 N   0  0  0  0  0  0  0  0  0  0  0  0
   22.9977  -20.1349  -13.1662 C   0  0  0  0  0  0  0  0  0  0  0  0
   22.9931  -19.1208  -13.9036 O   0  0  0  0  0  0  0  0  0  0  0  0
   18.6792  -20.7905  -15.5993 N   0  0  0  0  0  0  0  0  0  0  0  0
   19.8965  -21.4410  -16.0144 C   0  0  0  0  0  0  0  0  0  0  0  0
   19.9373  -21.9146  -17.1678 O   0  0  0  0  0  0  0  0  0  0  0  0
   20.9919  -21.4840  -15.0223 C   0  0  0  0  0  0  0  0  0  0  0  0
   20.6281  -20.6878  -13.8164 C   0  0  2  0  0  0  0  0  0  0  0  0
   21.7369  -20.7013  -12.8347 N   0  0  0  0  0  0  0  0  0  0  0  0
   19.4575  -21.3044  -13.1494 C   0  0  0  0  0  0  0  0  0  0  0  0
   19.5552  -22.3741  -12.4728 O   0  0  0  0  0  0  0  0  0  0  0  0
   18.2037  -20.7204  -13.2450 O   0  0  0  0  0  0  0  0  0  0  0  0
  2  1  1  6
  3  2  1  0
  4  3  1  0
  5  4  1  0
  5  6  2  0
  7  2  1  0
  7  8  2  0
  9  5  1  0
 11 10  1  1
 11 12  1  0
 14 13  1  1
 13 11  1  0
 14 15  1  0
 15  7  1  0
 16 14  1  0
 17 16  2  0
 18 19  1  0
 19 21  1  0
 20 19  2  0
 22 21  1  6
 22 23  1  0
 23 16  1  0
 24 26  1  0
 24 22  1  0
 25 24  2  0
M  END
$$$$
