ELN.pdb
     RDKit          3D

 26 25  0  0  1  0  0  0  0  0999 V2000
   19.3214  -13.5470  -16.7493 N   0  0  0  0  0  0  0  0  0  0  0  0
   19.8487  -12.4277  -17.5085 C   0  0  1  0  0  0  0  0  0  0  0  0
   18.7052  -11.5147  -17.9668 C   0  0  0  0  0  0  0  0  0  0  0  0
   17.8323  -12.2669  -18.9804 C   0  0  0  0  0  0  0  0  0  0  0  0
   16.7512  -11.3711  -19.4577 C   0  0  0  0  0  0  0  0  0  0  0  0
   15.6095  -11.3472  -18.9400 O   0  0  0  0  0  0  0  0  0  0  0  0
   20.7560  -11.6666  -16.6139 C   0  0  0  0  0  0  0  0  0  0  0  0
   20.4471  -11.4926  -15.3956 O   0  0  0  0  0  0  0  0  0  0  0  0
   17.0198  -10.5238  -20.5278 O   0  0  0  0  0  0  0  0  0  0  0  0
   26.7473  -10.3707  -15.9450 C   0  0  0  0  0  0  0  0  0  0  0  0
   25.3062  -10.0150  -15.6458 C   0  0  2  0  0  0  0  0  0  0  0  0
   25.0791  -10.0222  -14.1663 C   0  0  0  0  0  0  0  0  0  0  0  0
   24.3243  -10.7758  -16.4562 C   0  0  0  0  0  0  0  0  0  0  0  0
   22.8919  -10.4074  -16.3260 C   0  0  2  0  0  0  0  0  0  0  0  0
   21.9752  -11.1350  -17.1470 N   0  0  0  0  0  0  0  0  0  0  0  0
   22.6829   -8.9355  -16.4091 C   0  0  0  0  0  0  0  0  0  0  0  0
   22.8867   -8.3584  -17.5035 O   0  0  0  0  0  0  0  0  0  0  0  0
   21.4886   -4.1026  -15.7290 N   0  0  0  0  0  0  0  0  0  0  0  0
   20.3206   -4.9468  -15.7068 C   0  0  0  0  0  0  0  0  0  0  0  0
   19.2045   -4.3956  -15.7904 O   0  0  0  0  0  0  0  0  0  0  0  0
   20.5606   -6.4007  -15.5865 C   0  0  0  0  0  0  0  0  0  0  0  0
   22.0226   -6.6781  -15.5081 C   0  0  2  0  0  0  0  0  0  0  0  0
   22.2640   -8.1267  -15.3178 N   0  0  0  0  0  0  0  0  0  0  0  0
   22.5956   -5.9893  -14.3281 C   0  0  0  0  0  0  0  0  0  0  0  0
   23.1032   -4.8284  -14.4077 O   0  0  0  0  0  0  0  0  0  0  0  0
   22.5918   -6.6015  -13.0842 O   0  0  0  0  0  0  0  0  0  0  0  0
  2  1  1  1
  3  2  1  0
  4  3  1  0
  5  4  1  0
  5  6  2  0
  7  2  1  0
  7  8  2  0
  9  5  1  0
 11 10  1  1
 11 12  1  0
 14 13  1  6
 13 11  1  0
 14 15  1  0
 15  7  1  0
 16 14  1  0
 17 16  2  0
 18 19  1  0
 19 21  1  0
 20 19  2  0
 22 21  1  1
 22 23  1  0
 23 16  1  0
 24 26  1  0
 24 22  1  0
 25 24  2  0
M  END
$$$$
