ELN.pdb
     RDKit          3D

 26 25  0  0  1  0  0  0  0  0999 V2000
   21.7244  -15.8268  -17.5079 N   0  0  0  0  0  0  0  0  0  0  0  0
   21.0562  -15.3089  -16.3279 C   0  0  1  0  0  0  0  0  0  0  0  0
   20.8793  -16.4229  -15.2892 C   0  0  0  0  0  0  0  0  0  0  0  0
   20.2108  -17.6335  -15.9544 C   0  0  0  0  0  0  0  0  0  0  0  0
   19.9647  -18.6810  -14.9339 C   0  0  0  0  0  0  0  0  0  0  0  0
   20.2931  -18.5492  -13.7312 O   0  0  0  0  0  0  0  0  0  0  0  0
   21.9145  -14.2397  -15.7595 C   0  0  0  0  0  0  0  0  0  0  0  0
   21.5821  -13.6670  -14.6772 O   0  0  0  0  0  0  0  0  0  0  0  0
   19.3438  -19.8598  -15.3340 O   0  0  0  0  0  0  0  0  0  0  0  0
   26.0724  -14.6052  -14.5719 C   0  0  0  0  0  0  0  0  0  0  0  0
   26.0759  -14.2153  -16.0351 C   0  0  2  0  0  0  0  0  0  0  0  0
   27.4565  -14.3606  -16.5949 C   0  0  0  0  0  0  0  0  0  0  0  0
   25.3974  -12.9254  -16.3095 C   0  0  0  0  0  0  0  0  0  0  0  0
   23.9565  -12.8193  -15.9675 C   0  0  2  0  0  0  0  0  0  0  0  0
   23.1135  -13.8680  -16.4506 N   0  0  0  0  0  0  0  0  0  0  0  0
   23.4084  -11.4675  -16.2668 C   0  0  0  0  0  0  0  0  0  0  0  0
   23.3976  -11.0711  -17.4563 O   0  0  0  0  0  0  0  0  0  0  0  0
   19.0992   -8.2495  -17.1904 N   0  0  0  0  0  0  0  0  0  0  0  0
   20.5293   -8.2398  -17.0111 C   0  0  0  0  0  0  0  0  0  0  0  0
   21.1286   -7.1595  -17.1846 O   0  0  0  0  0  0  0  0  0  0  0  0
   21.1547   -9.5252  -16.6337 C   0  0  0  0  0  0  0  0  0  0  0  0
   22.2785   -9.2936  -15.6830 C   0  0  2  0  0  0  0  0  0  0  0  0
   22.8907  -10.5814  -15.2833 N   0  0  0  0  0  0  0  0  0  0  0  0
   21.7602   -8.6631  -14.4464 C   0  0  0  0  0  0  0  0  0  0  0  0
   21.3301   -7.4688  -14.4298 O   0  0  0  0  0  0  0  0  0  0  0  0
   21.7276   -9.3712  -13.2549 O   0  0  0  0  0  0  0  0  0  0  0  0
  2  1  1  6
  3  2  1  0
  4  3  1  0
  5  4  1  0
  5  6  2  0
  7  2  1  0
  7  8  2  0
  9  5  1  0
 11 10  1  1
 11 12  1  0
 14 13  1  6
 13 11  1  0
 14 15  1  0
 15  7  1  0
 16 14  1  0
 17 16  2  0
 18 19  1  0
 19 21  1  0
 20 19  2  0
 22 21  1  6
 22 23  1  0
 23 16  1  0
 24 26  1  0
 24 22  1  0
 25 24  2  0
M  END
$$$$
