ELN.pdb
     RDKit          3D

 26 25  0  0  1  0  0  0  0  0999 V2000
   27.6673  -35.5472    0.2107 N   0  0  0  0  0  0  0  0  0  0  0  0
   26.8383  -35.8567    1.3614 C   0  0  1  0  0  0  0  0  0  0  0  0
   27.1979  -37.2409    1.9146 C   0  0  0  0  0  0  0  0  0  0  0  0
   26.5321  -38.3199    1.0501 C   0  0  0  0  0  0  0  0  0  0  0  0
   26.7128  -39.6444    1.6922 C   0  0  0  0  0  0  0  0  0  0  0  0
   27.2309  -40.6214    1.1017 O   0  0  0  0  0  0  0  0  0  0  0  0
   27.1078  -34.8289    2.3977 C   0  0  0  0  0  0  0  0  0  0  0  0
   28.2680  -34.3273    2.5077 O   0  0  0  0  0  0  0  0  0  0  0  0
   26.2857  -39.8050    3.0064 O   0  0  0  0  0  0  0  0  0  0  0  0
   26.4011  -30.6682    2.8072 C   0  0  0  0  0  0  0  0  0  0  0  0
   25.0932  -31.3785    3.0861 C   0  0  2  0  0  0  0  0  0  0  0  0
   23.9740  -30.3851    3.1183 C   0  0  0  0  0  0  0  0  0  0  0  0
   25.1585  -32.3190    4.2310 C   0  0  0  0  0  0  0  0  0  0  0  0
   26.2184  -33.3585    4.2081 C   0  0  2  0  0  0  0  0  0  0  0  0
   26.0434  -34.4186    3.2651 N   0  0  0  0  0  0  0  0  0  0  0  0
   26.5395  -33.8603    5.5727 C   0  0  0  0  0  0  0  0  0  0  0  0
   25.7136  -34.6059    6.1508 O   0  0  0  0  0  0  0  0  0  0  0  0
   30.9952  -34.5216    9.8287 N   0  0  0  0  0  0  0  0  0  0  0  0
   29.6446  -34.5850    9.3291 C   0  0  0  0  0  0  0  0  0  0  0  0
   28.7789  -35.1054   10.0613 O   0  0  0  0  0  0  0  0  0  0  0  0
   29.4131  -34.0202    7.9825 C   0  0  0  0  0  0  0  0  0  0  0  0
   27.9651  -34.0857    7.6369 C   0  0  2  0  0  0  0  0  0  0  0  0
   27.7339  -33.5469    6.2769 N   0  0  0  0  0  0  0  0  0  0  0  0
   27.1929  -33.2348    8.5722 C   0  0  0  0  0  0  0  0  0  0  0  0
   26.6635  -32.1408    8.2052 O   0  0  0  0  0  0  0  0  0  0  0  0
   27.0220  -33.6161    9.8941 O   0  0  0  0  0  0  0  0  0  0  0  0
  2  1  1  6
  3  2  1  0
  4  3  1  0
  5  4  1  0
  5  6  2  0
  7  2  1  0
  7  8  2  0
  9  5  1  0
 11 10  1  1
 11 12  1  0
 14 13  1  1
 13 11  1  0
 14 15  1  0
 15  7  1  0
 16 14  1  0
 17 16  2  0
 18 19  1  0
 19 21  1  0
 20 19  2  0
 22 21  1  1
 22 23  1  0
 23 16  1  0
 24 26  1  0
 24 22  1  0
 25 24  2  0
M  END
$$$$
