ELN.pdb
     RDKit          3D

 26 25  0  0  1  0  0  0  0  0999 V2000
   27.4947  -35.5001    3.7816 N   0  0  0  0  0  0  0  0  0  0  0  0
   26.6722  -35.1203    4.9158 C   0  0  1  0  0  0  0  0  0  0  0  0
   26.7731  -36.1798    6.0198 C   0  0  0  0  0  0  0  0  0  0  0  0
   25.9373  -37.4043    5.6237 C   0  0  0  0  0  0  0  0  0  0  0  0
   24.4987  -37.1003    5.8166 C   0  0  0  0  0  0  0  0  0  0  0  0
   23.6332  -37.3192    4.9363 O   0  0  0  0  0  0  0  0  0  0  0  0
   27.1864  -33.8261    5.4292 C   0  0  0  0  0  0  0  0  0  0  0  0
   28.4224  -33.5540    5.3406 O   0  0  0  0  0  0  0  0  0  0  0  0
   24.0974  -36.5467    7.0282 O   0  0  0  0  0  0  0  0  0  0  0  0
   26.5244  -29.3535    4.4912 C   0  0  0  0  0  0  0  0  0  0  0  0
   25.3509  -29.9501    5.2395 C   0  0  2  0  0  0  0  0  0  0  0  0
   24.2144  -28.9762    5.2590 C   0  0  0  0  0  0  0  0  0  0  0  0
   25.7185  -30.5438    6.5479 C   0  0  0  0  0  0  0  0  0  0  0  0
   26.7138  -31.6456    6.5484 C   0  0  2  0  0  0  0  0  0  0  0  0
   26.2695  -32.8988    6.0233 N   0  0  0  0  0  0  0  0  0  0  0  0
   27.3876  -31.7903    7.8683 C   0  0  0  0  0  0  0  0  0  0  0  0
   26.7594  -32.3296    8.8100 O   0  0  0  0  0  0  0  0  0  0  0  0
   31.4562  -31.0258   11.4476 N   0  0  0  0  0  0  0  0  0  0  0  0
   31.3591  -32.2193   10.6453 C   0  0  0  0  0  0  0  0  0  0  0  0
   31.8129  -33.2785   11.1234 O   0  0  0  0  0  0  0  0  0  0  0  0
   30.7233  -32.0715    9.3187 C   0  0  0  0  0  0  0  0  0  0  0  0
   29.3220  -31.5876    9.4685 C   0  0  2  0  0  0  0  0  0  0  0  0
   28.7122  -31.3517    8.1398 N   0  0  0  0  0  0  0  0  0  0  0  0
   29.3195  -30.2870   10.1784 C   0  0  0  0  0  0  0  0  0  0  0  0
   29.6525  -30.1866   11.3993 O   0  0  0  0  0  0  0  0  0  0  0  0
   28.9500  -29.1250    9.5187 O   0  0  0  0  0  0  0  0  0  0  0  0
  2  1  1  6
  3  2  1  0
  4  3  1  0
  5  4  1  0
  5  6  2  0
  7  2  1  0
  7  8  2  0
  9  5  1  0
 11 10  1  1
 11 12  1  0
 14 13  1  1
 13 11  1  0
 14 15  1  0
 15  7  1  0
 16 14  1  0
 17 16  2  0
 18 19  1  0
 19 21  1  0
 20 19  2  0
 22 21  1  6
 22 23  1  0
 23 16  1  0
 24 26  1  0
 24 22  1  0
 25 24  2  0
M  END
$$$$
