ELN.pdb
     RDKit          3D

 26 25  0  0  1  0  0  0  0  0999 V2000
   27.5462  -35.7712   -8.8495 N   0  0  0  0  0  0  0  0  0  0  0  0
   27.6226  -34.7218   -7.8495 C   0  0  1  0  0  0  0  0  0  0  0  0
   26.2714  -34.5675   -7.1411 C   0  0  0  0  0  0  0  0  0  0  0  0
   25.3019  -33.8118   -8.0598 C   0  0  0  0  0  0  0  0  0  0  0  0
   24.8858  -32.5493   -7.4024 C   0  0  0  0  0  0  0  0  0  0  0  0
   25.2411  -32.2380   -6.2410 O   0  0  0  0  0  0  0  0  0  0  0  0
   28.6534  -35.1206   -6.8588 C   0  0  0  0  0  0  0  0  0  0  0  0
   28.7275  -36.3261   -6.4702 O   0  0  0  0  0  0  0  0  0  0  0  0
   24.0641  -31.6767   -8.1085 O   0  0  0  0  0  0  0  0  0  0  0  0
   33.3480  -35.0721   -6.4514 C   0  0  0  0  0  0  0  0  0  0  0  0
   32.7491  -33.6843   -6.3605 C   0  0  2  0  0  0  0  0  0  0  0  0
   33.8414  -32.6611   -6.3456 C   0  0  0  0  0  0  0  0  0  0  0  0
   31.7187  -33.5483   -5.3025 C   0  0  0  0  0  0  0  0  0  0  0  0
   30.5405  -34.4494   -5.3693 C   0  0  2  0  0  0  0  0  0  0  0  0
   29.5539  -34.1276   -6.3525 N   0  0  0  0  0  0  0  0  0  0  0  0
   29.9452  -34.6925   -4.0263 C   0  0  0  0  0  0  0  0  0  0  0  0
   29.1889  -33.8211   -3.5354 O   0  0  0  0  0  0  0  0  0  0  0  0
   27.5179  -38.6558   -0.2014 N   0  0  0  0  0  0  0  0  0  0  0  0
   28.2350  -37.4324   -0.4592 C   0  0  0  0  0  0  0  0  0  0  0  0
   28.2419  -36.5640    0.4364 O   0  0  0  0  0  0  0  0  0  0  0  0
   28.9013  -37.3240   -1.7746 C   0  0  0  0  0  0  0  0  0  0  0  0
   29.5723  -36.0000   -1.9062 C   0  0  2  0  0  0  0  0  0  0  0  0
   30.1791  -35.8598   -3.2498 N   0  0  0  0  0  0  0  0  0  0  0  0
   30.6778  -35.9043   -0.9244 C   0  0  0  0  0  0  0  0  0  0  0  0
   30.4698  -35.9344    0.3276 O   0  0  0  0  0  0  0  0  0  0  0  0
   31.9908  -35.7796   -1.3516 O   0  0  0  0  0  0  0  0  0  0  0  0
  2  1  1  6
  3  2  1  0
  4  3  1  0
  5  4  1  0
  5  6  2  0
  7  2  1  0
  7  8  2  0
  9  5  1  0
 11 10  1  1
 11 12  1  0
 14 13  1  1
 13 11  1  0
 14 15  1  0
 15  7  1  0
 16 14  1  0
 17 16  2  0
 18 19  1  0
 19 21  1  0
 20 19  2  0
 22 21  1  6
 22 23  1  0
 23 16  1  0
 24 26  1  0
 24 22  1  0
 25 24  2  0
M  END
$$$$
