ELN.pdb
     RDKit          3D

 26 25  0  0  1  0  0  0  0  0999 V2000
   20.2486  -14.3663  -17.6488 N   0  0  0  0  0  0  0  0  0  0  0  0
   20.6114  -13.1114  -18.2818 C   0  0  1  0  0  0  0  0  0  0  0  0
   19.3520  -12.3707  -18.7468 C   0  0  0  0  0  0  0  0  0  0  0  0
   18.7062  -13.1467  -19.9025 C   0  0  0  0  0  0  0  0  0  0  0  0
   17.4434  -12.4775  -20.2984 C   0  0  0  0  0  0  0  0  0  0  0  0
   17.2758  -11.9529  -21.4247 O   0  0  0  0  0  0  0  0  0  0  0  0
   21.3203  -12.2877  -17.2709 C   0  0  0  0  0  0  0  0  0  0  0  0
   20.8072  -12.1095  -16.1243 O   0  0  0  0  0  0  0  0  0  0  0  0
   16.4033  -12.4309  -19.3758 O   0  0  0  0  0  0  0  0  0  0  0  0
   27.0259  -10.1780  -15.9551 C   0  0  0  0  0  0  0  0  0  0  0  0
   25.5258  -10.1180  -15.7577 C   0  0  2  0  0  0  0  0  0  0  0  0
   25.1979  -10.2953  -14.3080 C   0  0  0  0  0  0  0  0  0  0  0  0
   24.7660  -10.9713  -16.7034 C   0  0  0  0  0  0  0  0  0  0  0  0
   23.2853  -10.8614  -16.6922 C   0  0  2  0  0  0  0  0  0  0  0  0
   22.5825  -11.7009  -17.6115 N   0  0  0  0  0  0  0  0  0  0  0  0
   22.8289   -9.4454  -16.7540 C   0  0  0  0  0  0  0  0  0  0  0  0
   22.9768   -8.8104  -17.8250 O   0  0  0  0  0  0  0  0  0  0  0  0
   18.2677   -5.9323  -16.3876 N   0  0  0  0  0  0  0  0  0  0  0  0
   19.7017   -6.0719  -16.3483 C   0  0  0  0  0  0  0  0  0  0  0  0
   20.3897   -5.0457  -16.5210 O   0  0  0  0  0  0  0  0  0  0  0  0
   20.2246   -7.4330  -16.1036 C   0  0  0  0  0  0  0  0  0  0  0  0
   21.6929   -7.3853  -15.8545 C   0  0  2  0  0  0  0  0  0  0  0  0
   22.2298   -8.7526  -15.6669 N   0  0  0  0  0  0  0  0  0  0  0  0
   21.9593   -6.6442  -14.5994 C   0  0  0  0  0  0  0  0  0  0  0  0
   21.9813   -7.2217  -13.4691 O   0  0  0  0  0  0  0  0  0  0  0  0
   22.1979   -5.2787  -14.6246 O   0  0  0  0  0  0  0  0  0  0  0  0
  2  1  1  1
  3  2  1  0
  4  3  1  0
  5  4  1  0
  5  6  2  0
  7  2  1  0
  7  8  2  0
  9  5  1  0
 11 10  1  1
 11 12  1  0
 14 13  1  6
 13 11  1  0
 14 15  1  0
 15  7  1  0
 16 14  1  0
 17 16  2  0
 18 19  1  0
 19 21  1  0
 20 19  2  0
 22 21  1  1
 22 23  1  0
 23 16  1  0
 24 26  1  0
 24 22  1  0
 25 24  2  0
M  END
$$$$
