ELN.pdb
     RDKit          3D

 26 25  0  0  1  0  0  0  0  0999 V2000
   27.6662  -22.3669  -16.3282 N   0  0  0  0  0  0  0  0  0  0  0  0
   26.8568  -21.1887  -16.0753 C   0  0  1  0  0  0  0  0  0  0  0  0
   26.1708  -20.7315  -17.3681 C   0  0  0  0  0  0  0  0  0  0  0  0
   27.2337  -20.2296  -18.3547 C   0  0  0  0  0  0  0  0  0  0  0  0
   27.6333  -18.8498  -17.9862 C   0  0  0  0  0  0  0  0  0  0  0  0
   28.6532  -18.5968  -17.3025 O   0  0  0  0  0  0  0  0  0  0  0  0
   25.8238  -21.5604  -15.0765 C   0  0  0  0  0  0  0  0  0  0  0  0
   25.2134  -22.6682  -15.1767 O   0  0  0  0  0  0  0  0  0  0  0  0
   26.8374  -17.7940  -18.4189 O   0  0  0  0  0  0  0  0  0  0  0  0
   25.5824  -20.3737   -9.2967 C   0  0  0  0  0  0  0  0  0  0  0  0
   25.3581  -21.1453  -10.5802 C   0  0  2  0  0  0  0  0  0  0  0  0
   26.5907  -21.9201  -10.9277 C   0  0  0  0  0  0  0  0  0  0  0  0
   24.7765  -20.3280  -11.6727 C   0  0  0  0  0  0  0  0  0  0  0  0
   24.5798  -20.9816  -12.9913 C   0  0  2  0  0  0  0  0  0  0  0  0
   25.5297  -20.6524  -14.0076 N   0  0  0  0  0  0  0  0  0  0  0  0
   23.1744  -20.8656  -13.4691 C   0  0  0  0  0  0  0  0  0  0  0  0
   22.8023  -19.7885  -13.9922 O   0  0  0  0  0  0  0  0  0  0  0  0
   17.9262  -23.7535  -14.3403 N   0  0  0  0  0  0  0  0  0  0  0  0
   18.5490  -22.5789  -13.7836 C   0  0  0  0  0  0  0  0  0  0  0  0
   17.8912  -21.5189  -13.7817 O   0  0  0  0  0  0  0  0  0  0  0  0
   19.9223  -22.7459  -13.2620 C   0  0  0  0  0  0  0  0  0  0  0  0
   20.8091  -21.6703  -13.7883 C   0  0  2  0  0  0  0  0  0  0  0  0
   22.2103  -21.9055  -13.3707 N   0  0  0  0  0  0  0  0  0  0  0  0
   20.4033  -20.3667  -13.2126 C   0  0  0  0  0  0  0  0  0  0  0  0
   19.9600  -19.4214  -13.9347 O   0  0  0  0  0  0  0  0  0  0  0  0
   20.4955  -20.1399  -11.8480 O   0  0  0  0  0  0  0  0  0  0  0  0
  2  1  1  6
  3  2  1  0
  4  3  1  0
  5  4  1  0
  5  6  2  0
  7  2  1  0
  7  8  2  0
  9  5  1  0
 11 10  1  1
 11 12  1  0
 14 13  1  1
 13 11  1  0
 14 15  1  0
 15  7  1  0
 16 14  1  0
 17 16  2  0
 18 19  1  0
 19 21  1  0
 20 19  2  0
 22 21  1  1
 22 23  1  0
 23 16  1  0
 24 26  1  0
 24 22  1  0
 25 24  2  0
M  END
$$$$
