ELN.pdb
     RDKit          3D

 26 25  0  0  1  0  0  0  0  0999 V2000
   27.9483  -21.1064  -15.4696 N   0  0  0  0  0  0  0  0  0  0  0  0
   27.0417  -20.0916  -14.9640 C   0  0  1  0  0  0  0  0  0  0  0  0
   26.4281  -19.3041  -16.1278 C   0  0  0  0  0  0  0  0  0  0  0  0
   27.5368  -18.5342  -16.8580 C   0  0  0  0  0  0  0  0  0  0  0  0
   27.7203  -19.1056  -18.2140 C   0  0  0  0  0  0  0  0  0  0  0  0
   27.0859  -20.1073  -18.6216 O   0  0  0  0  0  0  0  0  0  0  0  0
   25.9625  -20.7860  -14.2182 C   0  0  0  0  0  0  0  0  0  0  0  0
   25.4693  -21.8634  -14.6717 O   0  0  0  0  0  0  0  0  0  0  0  0
   28.6387  -18.5015  -19.0665 O   0  0  0  0  0  0  0  0  0  0  0  0
   26.3243  -22.1737  -10.0416 C   0  0  0  0  0  0  0  0  0  0  0  0
   25.7963  -20.7546  -10.0649 C   0  0  2  0  0  0  0  0  0  0  0  0
   25.8737  -20.1627   -8.6923 C   0  0  0  0  0  0  0  0  0  0  0  0
   24.4929  -20.6153  -10.7586 C   0  0  0  0  0  0  0  0  0  0  0  0
   24.4637  -20.8559  -12.2234 C   0  0  2  0  0  0  0  0  0  0  0  0
   25.4908  -20.2210  -12.9887 N   0  0  0  0  0  0  0  0  0  0  0  0
   23.1085  -20.6358  -12.7997 C   0  0  0  0  0  0  0  0  0  0  0  0
   22.7401  -19.4622  -13.0429 O   0  0  0  0  0  0  0  0  0  0  0  0
   18.2930  -23.0336  -15.5004 N   0  0  0  0  0  0  0  0  0  0  0  0
   19.2005  -21.9247  -15.3440 C   0  0  0  0  0  0  0  0  0  0  0  0
   18.7940  -20.7916  -15.6711 O   0  0  0  0  0  0  0  0  0  0  0  0
   20.5401  -22.2409  -14.8041 C   0  0  0  0  0  0  0  0  0  0  0  0
   20.8483  -21.3631  -13.6402 C   0  0  2  0  0  0  0  0  0  0  0  0
   22.1890  -21.6786  -13.0961 N   0  0  0  0  0  0  0  0  0  0  0  0
   19.8737  -21.6191  -12.5540 C   0  0  0  0  0  0  0  0  0  0  0  0
   20.2163  -22.1558  -11.4557 O   0  0  0  0  0  0  0  0  0  0  0  0
   18.5402  -21.2725  -12.7077 O   0  0  0  0  0  0  0  0  0  0  0  0
  2  1  1  6
  3  2  1  0
  4  3  1  0
  5  4  1  0
  5  6  2  0
  7  2  1  0
  7  8  2  0
  9  5  1  0
 11 10  1  1
 11 12  1  0
 14 13  1  1
 13 11  1  0
 14 15  1  0
 15  7  1  0
 16 14  1  0
 17 16  2  0
 18 19  1  0
 19 21  1  0
 20 19  2  0
 22 21  1  6
 22 23  1  0
 23 16  1  0
 24 26  1  0
 24 22  1  0
 25 24  2  0
M  END
$$$$
