ELN.pdb
     RDKit          3D

 26 25  0  0  1  0  0  0  0  0999 V2000
   25.6043  -25.9009  -16.3707 N   0  0  0  0  0  0  0  0  0  0  0  0
   25.5209  -24.4739  -16.6232 C   0  0  1  0  0  0  0  0  0  0  0  0
   24.7453  -24.2113  -17.9196 C   0  0  0  0  0  0  0  0  0  0  0  0
   25.6246  -24.5860  -19.1201 C   0  0  0  0  0  0  0  0  0  0  0  0
   26.6598  -23.5423  -19.3155 C   0  0  0  0  0  0  0  0  0  0  0  0
   27.8846  -23.8025  -19.3790 O   0  0  0  0  0  0  0  0  0  0  0  0
   24.7954  -23.8585  -15.4840 C   0  0  0  0  0  0  0  0  0  0  0  0
   23.8395  -24.4815  -14.9292 O   0  0  0  0  0  0  0  0  0  0  0  0
   26.2490  -22.2182  -19.4310 O   0  0  0  0  0  0  0  0  0  0  0  0
   26.4165  -22.4894  -11.5077 C   0  0  0  0  0  0  0  0  0  0  0  0
   26.6116  -21.4052  -12.5466 C   0  0  2  0  0  0  0  0  0  0  0  0
   27.5080  -20.3372  -12.0021 C   0  0  0  0  0  0  0  0  0  0  0  0
   25.3469  -20.9376  -13.1643 C   0  0  0  0  0  0  0  0  0  0  0  0
   24.5414  -21.9305  -13.9191 C   0  0  2  0  0  0  0  0  0  0  0  0
   25.1897  -22.5586  -15.0277 N   0  0  0  0  0  0  0  0  0  0  0  0
   23.1940  -21.4049  -14.2731 C   0  0  0  0  0  0  0  0  0  0  0  0
   23.1087  -20.4903  -15.1266 O   0  0  0  0  0  0  0  0  0  0  0  0
   17.3271  -22.3144  -14.6225 N   0  0  0  0  0  0  0  0  0  0  0  0
   18.2606  -21.4811  -13.9071 C   0  0  0  0  0  0  0  0  0  0  0  0
   17.9119  -20.3125  -13.6441 O   0  0  0  0  0  0  0  0  0  0  0  0
   19.5552  -22.0990  -13.5494 C   0  0  0  0  0  0  0  0  0  0  0  0
   20.6790  -21.3330  -14.1583 C   0  0  2  0  0  0  0  0  0  0  0  0
   21.9799  -21.8734  -13.7013 N   0  0  0  0  0  0  0  0  0  0  0  0
   20.6189  -19.9225  -13.7088 C   0  0  0  0  0  0  0  0  0  0  0  0
   20.1064  -19.0092  -14.4263 O   0  0  0  0  0  0  0  0  0  0  0  0
   21.1264  -19.5549  -12.4721 O   0  0  0  0  0  0  0  0  0  0  0  0
  2  1  1  1
  3  2  1  0
  4  3  1  0
  5  4  1  0
  5  6  2  0
  7  2  1  0
  7  8  2  0
  9  5  1  0
 11 10  1  1
 11 12  1  0
 14 13  1  6
 13 11  1  0
 14 15  1  0
 15  7  1  0
 16 14  1  0
 17 16  2  0
 18 19  1  0
 19 21  1  0
 20 19  2  0
 22 21  1  1
 22 23  1  0
 23 16  1  0
 24 26  1  0
 24 22  1  0
 25 24  2  0
M  END
$$$$
