ELN.pdb
     RDKit          3D

 26 25  0  0  1  0  0  0  0  0999 V2000
   22.5080  -13.9679  -17.2728 N   0  0  0  0  0  0  0  0  0  0  0  0
   22.2282  -12.6449  -17.8006 C   0  0  1  0  0  0  0  0  0  0  0  0
   20.7178  -12.4599  -17.9891 C   0  0  0  0  0  0  0  0  0  0  0  0
   20.2613  -13.2500  -19.2229 C   0  0  0  0  0  0  0  0  0  0  0  0
   18.8123  -13.0236  -19.4427 C   0  0  0  0  0  0  0  0  0  0  0  0
   18.1775  -12.0948  -18.8894 O   0  0  0  0  0  0  0  0  0  0  0  0
   22.7247  -11.6540  -16.8134 C   0  0  0  0  0  0  0  0  0  0  0  0
   22.3518  -11.7227  -15.6026 O   0  0  0  0  0  0  0  0  0  0  0  0
   18.1321  -13.8829  -20.2995 O   0  0  0  0  0  0  0  0  0  0  0  0
   26.3194  -11.0371  -14.8327 C   0  0  0  0  0  0  0  0  0  0  0  0
   26.4875  -10.3608  -16.1771 C   0  0  2  0  0  0  0  0  0  0  0  0
   27.9280  -10.0176  -16.3950 C   0  0  0  0  0  0  0  0  0  0  0  0
   25.5164   -9.2662  -16.4189 C   0  0  0  0  0  0  0  0  0  0  0  0
   24.0715   -9.6023  -16.3585 C   0  0  2  0  0  0  0  0  0  0  0  0
   23.6231  -10.6264  -17.2495 N   0  0  0  0  0  0  0  0  0  0  0  0
   23.2118   -8.3876  -16.4116 C   0  0  0  0  0  0  0  0  0  0  0  0
   22.9692   -7.8691  -17.5272 O   0  0  0  0  0  0  0  0  0  0  0  0
   20.3175   -4.3718  -15.4607 N   0  0  0  0  0  0  0  0  0  0  0  0
   19.9012   -5.3361  -14.4735 C   0  0  0  0  0  0  0  0  0  0  0  0
   18.9123   -5.0538  -13.7674 O   0  0  0  0  0  0  0  0  0  0  0  0
   20.6949   -6.5809  -14.3929 C   0  0  0  0  0  0  0  0  0  0  0  0
   21.7745   -6.5726  -15.4199 C   0  0  2  0  0  0  0  0  0  0  0  0
   22.6401   -7.7648  -15.2690 N   0  0  0  0  0  0  0  0  0  0  0  0
   22.6398   -5.3866  -15.2204 C   0  0  0  0  0  0  0  0  0  0  0  0
   23.8699   -5.4935  -14.9252 O   0  0  0  0  0  0  0  0  0  0  0  0
   22.1233   -4.1070  -15.3547 O   0  0  0  0  0  0  0  0  0  0  0  0
  2  1  1  1
  3  2  1  0
  4  3  1  0
  5  4  1  0
  5  6  2  0
  7  2  1  0
  7  8  2  0
  9  5  1  0
 11 10  1  1
 11 12  1  0
 14 13  1  6
 13 11  1  0
 14 15  1  0
 15  7  1  0
 16 14  1  0
 17 16  2  0
 18 19  1  0
 19 21  1  0
 20 19  2  0
 22 21  1  1
 22 23  1  0
 23 16  1  0
 24 26  1  0
 24 22  1  0
 25 24  2  0
M  END
$$$$
