REE.pdb
     RDKit          3D

 30 29  0  0  1  0  0  0  0  0999 V2000
   31.0965  -23.2054   -8.6644 N   0  0  0  0  0  0  0  0  0  0  0  0
   31.6308  -22.8259   -9.9426 C   0  0  0  0  0  0  0  0  0  0  0  0
   32.6523  -23.4434  -10.3781 N   0  0  0  0  0  0  0  0  0  0  0  0
   31.0521  -21.7972  -10.7199 N   0  0  0  0  0  0  0  0  0  0  0  0
   29.7706  -21.2575  -10.3099 C   0  0  0  0  0  0  0  0  0  0  0  0
   28.6358  -21.7087  -11.1460 C   0  0  0  0  0  0  0  0  0  0  0  0
   28.0045  -20.5860  -11.9002 C   0  0  0  0  0  0  0  0  0  0  0  0
   26.5709  -20.2694  -11.6006 C   0  0  2  0  0  0  0  0  0  0  0  0
   25.9469  -21.3665  -10.9687 N   0  0  0  0  0  0  0  0  0  0  0  0
   25.9537  -19.8887  -12.8977 C   0  0  0  0  0  0  0  0  0  0  0  0
   26.3957  -18.8656  -13.4846 O   0  0  0  0  0  0  0  0  0  0  0  0
   33.2032  -23.2133  -11.2236 N   0  0  0  0  0  0  0  0  0  0  0  0
   24.8978  -20.6150  -13.5052 C   0  0  1  0  0  0  0  0  0  0  0  0
   24.1811  -20.1024  -14.6637 C   0  0  0  0  0  0  0  0  0  0  0  0
   24.5207  -21.0506  -15.8201 C   0  0  0  0  0  0  0  0  0  0  0  0
   24.3664  -22.4674  -15.2523 C   0  0  0  0  0  0  0  0  0  0  0  0
   24.5021  -23.4747  -16.3410 O   0  0  0  0  0  0  0  0  0  0  0  0
   25.6390  -23.9858  -16.5456 C   0  0  0  0  0  0  0  0  0  0  0  0
   22.7411  -20.0050  -14.4427 O   0  0  0  0  0  0  0  0  0  0  0  0
   22.2290  -20.6101  -13.4605 O   0  0  0  0  0  0  0  0  0  0  0  0
   23.3844  -23.7985  -17.0694 N   0  0  0  0  0  0  0  0  0  0  0  0
   21.9478  -19.2480  -15.3131 C   0  0  2  0  0  0  0  0  0  0  0  0
   20.5408  -19.0092  -15.0627 C   0  0  0  0  0  0  0  0  0  0  0  0
   20.0094  -17.8855  -15.8946 C   0  0  0  0  0  0  0  0  0  0  0  0
   18.6149  -17.4578  -15.6329 C   0  0  0  0  0  0  0  0  0  0  0  0
   18.1351  -16.3010  -16.3976 O   0  0  0  0  0  0  0  0  0  0  0  0
   18.2617  -15.1502  -15.9184 C   0  0  0  0  0  0  0  0  0  0  0  0
   19.7780  -20.2715  -15.1566 O   0  0  0  0  0  0  0  0  0  0  0  0
   18.7357  -20.4505  -14.4835 O   0  0  0  0  0  0  0  0  0  0  0  0
   17.5364  -16.4137  -17.6486 O   0  0  0  0  0  0  0  0  0  0  0  0
  1  2  1  0
  2  3  2  0
  4  2  1  0
  4  5  1  0
  6  5  1  0
  7  6  1  0
  8  9  1  6
  8  7  1  0
 10  8  1  0
 10 12  1  0
 11 10  2  0
 13 12  1  0
 13 18  1  0
 13 14  1  6
 15 14  1  0
 16 17  2  0
 16 15  1  0
 18 19  2  0
 20 16  1  0
 21 18  1  0
 21 22  1  0
 22 27  1  0
 23 24  1  0
 22 23  1  6
 25 24  1  0
 25 29  1  0
 26 25  2  0
 27 28  2  0
 27 30  1  0
M  END
$$$$
