REE.pdb
     RDKit          3D

 30 29  0  0  1  0  0  0  0  0999 V2000
   22.7381  -24.7808  -14.7690 N   0  0  0  0  0  0  0  0  0  0  0  0
   23.5050  -25.9643  -14.4962 C   0  0  0  0  0  0  0  0  0  0  0  0
   23.0750  -26.7735  -13.6160 N   0  0  0  0  0  0  0  0  0  0  0  0
   24.7097  -26.2489  -15.1780 N   0  0  0  0  0  0  0  0  0  0  0  0
   25.2292  -25.2637  -16.1060 C   0  0  0  0  0  0  0  0  0  0  0  0
   26.1536  -24.2873  -15.4874 C   0  0  0  0  0  0  0  0  0  0  0  0
   25.7087  -22.8770  -15.6900 C   0  0  0  0  0  0  0  0  0  0  0  0
   25.3073  -22.4689  -17.0748 C   0  0  2  0  0  0  0  0  0  0  0  0
   26.2648  -21.5901  -17.6252 N   0  0  0  0  0  0  0  0  0  0  0  0
   23.9480  -21.8809  -16.9527 C   0  0  0  0  0  0  0  0  0  0  0  0
   23.8192  -20.6440  -17.1530 O   0  0  0  0  0  0  0  0  0  0  0  0
   23.5192  -27.6594  -13.3172 N   0  0  0  0  0  0  0  0  0  0  0  0
   22.7944  -22.6376  -16.6238 C   0  0  2  0  0  0  0  0  0  0  0  0
   21.4649  -22.0454  -16.6154 C   0  0  0  0  0  0  0  0  0  0  0  0
   20.4962  -23.1940  -16.3090 C   0  0  0  0  0  0  0  0  0  0  0  0
   19.0944  -22.5713  -16.3358 C   0  0  0  0  0  0  0  0  0  0  0  0
   18.0625  -23.6181  -16.0957 O   0  0  0  0  0  0  0  0  0  0  0  0
   17.3627  -24.0045  -17.0737 C   0  0  0  0  0  0  0  0  0  0  0  0
   21.3366  -20.9525  -15.6558 O   0  0  0  0  0  0  0  0  0  0  0  0
   22.3128  -20.6784  -14.9042 O   0  0  0  0  0  0  0  0  0  0  0  0
   17.9221  -24.1118  -14.8224 N   0  0  0  0  0  0  0  0  0  0  0  0
   20.1437  -20.2239  -15.5782 C   0  0  2  0  0  0  0  0  0  0  0  0
   20.1153  -18.8319  -15.1771 C   0  0  0  0  0  0  0  0  0  0  0  0
   21.1265  -18.0172  -15.9193 C   0  0  0  0  0  0  0  0  0  0  0  0
   21.1616  -16.5643  -15.6295 C   0  0  0  0  0  0  0  0  0  0  0  0
   21.3761  -15.6770  -16.7784 O   0  0  0  0  0  0  0  0  0  0  0  0
   21.4727  -16.1685  -17.9268 C   0  0  0  0  0  0  0  0  0  0  0  0
   18.7341  -18.3086  -15.2251 O   0  0  0  0  0  0  0  0  0  0  0  0
   17.9781  -18.5623  -16.1924 O   0  0  0  0  0  0  0  0  0  0  0  0
   21.4797  -14.2944  -16.6605 O   0  0  0  0  0  0  0  0  0  0  0  0
  1  2  1  0
  2  3  2  0
  4  2  1  0
  4  5  1  0
  6  5  1  0
  7  6  1  0
  8  9  1  1
  8  7  1  0
 10  8  1  0
 10 12  1  0
 11 10  2  0
 13 12  1  0
 13 18  1  0
 13 14  1  6
 15 14  1  0
 16 17  2  0
 16 15  1  0
 18 19  2  0
 20 16  1  0
 21 18  1  0
 21 22  1  0
 22 27  1  0
 23 24  1  0
 22 23  1  6
 25 24  1  0
 25 29  1  0
 26 25  2  0
 27 28  2  0
 27 30  1  0
M  END
$$$$
