REE.pdb
     RDKit          3D

 30 29  0  0  1  0  0  0  0  0999 V2000
   17.3736  -16.2208  -14.5847 N   0  0  0  0  0  0  0  0  0  0  0  0
   16.7054  -16.0180  -15.8400 C   0  0  0  0  0  0  0  0  0  0  0  0
   15.9525  -16.9421  -16.2800 N   0  0  0  0  0  0  0  0  0  0  0  0
   16.8604  -14.8280  -16.5864 N   0  0  0  0  0  0  0  0  0  0  0  0
   17.7740  -13.8160  -16.0938 C   0  0  0  0  0  0  0  0  0  0  0  0
   17.7921  -12.5791  -16.9063 C   0  0  0  0  0  0  0  0  0  0  0  0
   18.7694  -11.5755  -16.3911 C   0  0  0  0  0  0  0  0  0  0  0  0
   20.1517  -11.5939  -16.9693 C   0  0  2  0  0  0  0  0  0  0  0  0
   20.6832  -12.9008  -16.9308 N   0  0  0  0  0  0  0  0  0  0  0  0
   20.9363  -10.6000  -16.1916 C   0  0  0  0  0  0  0  0  0  0  0  0
   21.2055  -10.8687  -14.9909 O   0  0  0  0  0  0  0  0  0  0  0  0
   15.4866  -16.9764  -17.2037 N   0  0  0  0  0  0  0  0  0  0  0  0
   21.3950   -9.3705  -16.7299 C   0  0  1  0  0  0  0  0  0  0  0  0
   22.1891   -8.4376  -15.9441 C   0  0  0  0  0  0  0  0  0  0  0  0
   23.6325   -8.5970  -16.4369 C   0  0  0  0  0  0  0  0  0  0  0  0
   23.5315   -8.8015  -17.9538 C   0  0  0  0  0  0  0  0  0  0  0  0
   24.8919   -8.8368  -18.5592 O   0  0  0  0  0  0  0  0  0  0  0  0
   25.8907   -8.7228  -17.7944 C   0  0  0  0  0  0  0  0  0  0  0  0
   21.7224   -7.0588  -16.0585 O   0  0  0  0  0  0  0  0  0  0  0  0
   21.0594   -6.7182  -17.0771 O   0  0  0  0  0  0  0  0  0  0  0  0
   24.9937   -8.9912  -19.9195 N   0  0  0  0  0  0  0  0  0  0  0  0
   22.0106   -6.1348  -15.0470 C   0  0  1  0  0  0  0  0  0  0  0  0
   21.4445   -4.8012  -15.0372 C   0  0  0  0  0  0  0  0  0  0  0  0
   19.9556   -4.8265  -15.1781 C   0  0  0  0  0  0  0  0  0  0  0  0
   19.2462   -3.5326  -15.0408 C   0  0  0  0  0  0  0  0  0  0  0  0
   17.7803   -3.5883  -15.0715 O   0  0  0  0  0  0  0  0  0  0  0  0
   17.2071   -4.7009  -15.1297 C   0  0  0  0  0  0  0  0  0  0  0  0
   21.9498   -4.0341  -13.8795 O   0  0  0  0  0  0  0  0  0  0  0  0
   22.5333   -4.6055  -12.9283 O   0  0  0  0  0  0  0  0  0  0  0  0
   16.9768   -2.4526  -15.0387 O   0  0  0  0  0  0  0  0  0  0  0  0
  1  2  1  0
  2  3  2  0
  4  2  1  0
  4  5  1  0
  6  5  1  0
  7  6  1  0
  8  9  1  1
  8  7  1  0
 10  8  1  0
 10 12  1  0
 11 10  2  0
 13 12  1  0
 13 18  1  0
 13 14  1  1
 15 14  1  0
 16 17  2  0
 16 15  1  0
 18 19  2  0
 20 16  1  0
 21 18  1  0
 21 22  1  0
 22 27  1  0
 23 24  1  0
 22 23  1  6
 25 24  1  0
 25 29  1  0
 26 25  2  0
 27 28  2  0
 27 30  1  0
M  END
$$$$
