REE.pdb
     RDKit          3D

 30 29  0  0  1  0  0  0  0  0999 V2000
   12.8632  -13.4643  -10.0903 N   0  0  0  0  0  0  0  0  0  0  0  0
   12.0010  -13.8985  -11.1539 C   0  0  0  0  0  0  0  0  0  0  0  0
   11.1568  -14.8166  -10.9109 N   0  0  0  0  0  0  0  0  0  0  0  0
   12.0656  -13.3333  -12.4476 N   0  0  0  0  0  0  0  0  0  0  0  0
   13.3167  -12.7451  -12.8841 C   0  0  0  0  0  0  0  0  0  0  0  0
   13.2391  -12.0863  -14.2072 C   0  0  0  0  0  0  0  0  0  0  0  0
   14.4979  -11.3644  -14.5567 C   0  0  0  0  0  0  0  0  0  0  0  0
   15.5082  -12.0953  -15.3876 C   0  0  2  0  0  0  0  0  0  0  0  0
   15.7723  -13.3667  -14.8344 N   0  0  0  0  0  0  0  0  0  0  0  0
   16.6992  -11.2095  -15.4607 C   0  0  0  0  0  0  0  0  0  0  0  0
   17.6075  -11.3690  -14.6028 O   0  0  0  0  0  0  0  0  0  0  0  0
   10.4972  -15.2470  -11.5824 N   0  0  0  0  0  0  0  0  0  0  0  0
   16.8642  -10.1990  -16.4421 C   0  0  1  0  0  0  0  0  0  0  0  0
   18.0860   -9.4140  -16.5373 C   0  0  0  0  0  0  0  0  0  0  0  0
   18.4356   -9.3617  -18.0295 C   0  0  0  0  0  0  0  0  0  0  0  0
   19.7473   -8.5714  -18.1196 C   0  0  0  0  0  0  0  0  0  0  0  0
   20.2359   -8.5455  -19.5264 O   0  0  0  0  0  0  0  0  0  0  0  0
   21.3355   -7.9728  -19.7679 C   0  0  0  0  0  0  0  0  0  0  0  0
   17.9492   -8.0791  -15.9617 O   0  0  0  0  0  0  0  0  0  0  0  0
   16.8556   -7.4630  -16.0947 O   0  0  0  0  0  0  0  0  0  0  0  0
   19.4666   -9.1454  -20.4923 N   0  0  0  0  0  0  0  0  0  0  0  0
   19.0212   -7.4992  -15.2730 C   0  0  2  0  0  0  0  0  0  0  0  0
   18.9449   -6.1665  -14.7097 C   0  0  0  0  0  0  0  0  0  0  0  0
   20.1782   -5.8151  -13.9399 C   0  0  0  0  0  0  0  0  0  0  0  0
   21.3611   -5.3898  -14.7248 C   0  0  0  0  0  0  0  0  0  0  0  0
   22.5604   -5.0394  -13.9554 O   0  0  0  0  0  0  0  0  0  0  0  0
   22.5203   -5.0713  -12.7035 C   0  0  0  0  0  0  0  0  0  0  0  0
   18.5559   -5.1887  -15.7472 O   0  0  0  0  0  0  0  0  0  0  0  0
   18.8674   -5.3608  -16.9493 O   0  0  0  0  0  0  0  0  0  0  0  0
   23.7619   -4.6669  -14.5504 O   0  0  0  0  0  0  0  0  0  0  0  0
  1  2  1  0
  2  3  2  0
  4  2  1  0
  4  5  1  0
  6  5  1  0
  7  6  1  0
  8  9  1  1
  8  7  1  0
 10  8  1  0
 10 12  1  0
 11 10  2  0
 13 12  1  0
 13 18  1  0
 13 14  1  1
 15 14  1  0
 16 17  2  0
 16 15  1  0
 18 19  2  0
 20 16  1  0
 21 18  1  0
 21 22  1  0
 22 27  1  0
 23 24  1  0
 22 23  1  1
 25 24  1  0
 25 29  1  0
 26 25  2  0
 27 28  2  0
 27 30  1  0
M  END
$$$$
