REE.pdb
     RDKit          3D

 30 29  0  0  1  0  0  0  0  0999 V2000
   23.7941  -20.3777  -12.1489 N   0  0  0  0  0  0  0  0  0  0  0  0
   24.4407  -20.3315  -10.8672 C   0  0  0  0  0  0  0  0  0  0  0  0
   23.7952  -19.8560   -9.8814 N   0  0  0  0  0  0  0  0  0  0  0  0
   25.7604  -20.8004  -10.6775 N   0  0  0  0  0  0  0  0  0  0  0  0
   26.5638  -21.0983  -11.8468 C   0  0  0  0  0  0  0  0  0  0  0  0
   27.2994  -19.9305  -12.3812 C   0  0  0  0  0  0  0  0  0  0  0  0
   28.0205  -20.2455  -13.6495 C   0  0  0  0  0  0  0  0  0  0  0  0
   27.4359  -21.3036  -14.5348 C   0  0  2  0  0  0  0  0  0  0  0  0
   28.4580  -21.9729  -15.2416 N   0  0  0  0  0  0  0  0  0  0  0  0
   26.4515  -20.6124  -15.4075 C   0  0  0  0  0  0  0  0  0  0  0  0
   26.8678  -19.6795  -16.1443 O   0  0  0  0  0  0  0  0  0  0  0  0
   24.1384  -19.7412   -8.9117 N   0  0  0  0  0  0  0  0  0  0  0  0
   25.0742  -20.9480  -15.4526 C   0  0  2  0  0  0  0  0  0  0  0  0
   24.2552  -20.6720  -16.6237 C   0  0  0  0  0  0  0  0  0  0  0  0
   24.9683  -21.3459  -17.8023 C   0  0  0  0  0  0  0  0  0  0  0  0
   24.1469  -20.9819  -19.0457 C   0  0  0  0  0  0  0  0  0  0  0  0
   24.0897  -22.1397  -19.9808 O   0  0  0  0  0  0  0  0  0  0  0  0
   23.1154  -22.2155  -20.7811 C   0  0  0  0  0  0  0  0  0  0  0  0
   22.8801  -21.1406  -16.4777 O   0  0  0  0  0  0  0  0  0  0  0  0
   22.6490  -22.1478  -15.7529 O   0  0  0  0  0  0  0  0  0  0  0  0
   25.0991  -23.0687  -19.9269 N   0  0  0  0  0  0  0  0  0  0  0  0
   21.8389  -20.4750  -17.1356 C   0  0  1  0  0  0  0  0  0  0  0  0
   20.5827  -20.1713  -16.4806 C   0  0  0  0  0  0  0  0  0  0  0  0
   20.7908  -19.5768  -15.1239 C   0  0  0  0  0  0  0  0  0  0  0  0
   19.5807  -19.1330  -14.3927 C   0  0  0  0  0  0  0  0  0  0  0  0
   19.8006  -18.5530  -13.0629 O   0  0  0  0  0  0  0  0  0  0  0  0
   20.9684  -18.4521  -12.6202 C   0  0  0  0  0  0  0  0  0  0  0  0
   19.7080  -19.3886  -17.3785 O   0  0  0  0  0  0  0  0  0  0  0  0
   18.5262  -19.7420  -17.6019 O   0  0  0  0  0  0  0  0  0  0  0  0
   18.7647  -18.1002  -12.2515 O   0  0  0  0  0  0  0  0  0  0  0  0
  1  2  1  0
  2  3  2  0
  4  2  1  0
  4  5  1  0
  6  5  1  0
  7  6  1  0
  8  9  1  6
  8  7  1  0
 10  8  1  0
 10 12  1  0
 11 10  2  0
 13 12  1  0
 13 18  1  0
 13 14  1  1
 15 14  1  0
 16 17  2  0
 16 15  1  0
 18 19  2  0
 20 16  1  0
 21 18  1  0
 21 22  1  0
 22 27  1  0
 23 24  1  0
 22 23  1  1
 25 24  1  0
 25 29  1  0
 26 25  2  0
 27 28  2  0
 27 30  1  0
M  END
$$$$
