REE.pdb
     RDKit          3D

 30 29  0  0  1  0  0  0  0  0999 V2000
   27.5112  -22.3215  -18.1225 N   0  0  0  0  0  0  0  0  0  0  0  0
   28.9165  -22.4011  -17.8361 C   0  0  0  0  0  0  0  0  0  0  0  0
   29.7239  -22.5454  -18.8065 N   0  0  0  0  0  0  0  0  0  0  0  0
   29.4170  -22.3197  -16.5169 N   0  0  0  0  0  0  0  0  0  0  0  0
   28.5088  -21.9347  -15.4546 C   0  0  0  0  0  0  0  0  0  0  0  0
   28.0211  -20.5413  -15.5595 C   0  0  0  0  0  0  0  0  0  0  0  0
   27.0420  -20.2000  -14.4858 C   0  0  0  0  0  0  0  0  0  0  0  0
   26.0531  -21.2534  -14.0891 C   0  0  2  0  0  0  0  0  0  0  0  0
   25.7555  -22.0871  -15.1884 N   0  0  0  0  0  0  0  0  0  0  0  0
   24.8755  -20.5284  -13.5451 C   0  0  0  0  0  0  0  0  0  0  0  0
   24.9392  -19.2729  -13.4667 O   0  0  0  0  0  0  0  0  0  0  0  0
   30.7521  -22.6490  -18.7486 N   0  0  0  0  0  0  0  0  0  0  0  0
   23.6898  -21.1749  -13.1118 C   0  0  1  0  0  0  0  0  0  0  0  0
   22.5707  -20.4310  -12.5525 C   0  0  0  0  0  0  0  0  0  0  0  0
   22.1604  -19.4186  -13.6288 C   0  0  0  0  0  0  0  0  0  0  0  0
   21.8933  -20.2447  -14.8935 C   0  0  0  0  0  0  0  0  0  0  0  0
   21.4146  -19.3611  -15.9927 O   0  0  0  0  0  0  0  0  0  0  0  0
   20.1977  -19.4244  -16.3250 C   0  0  0  0  0  0  0  0  0  0  0  0
   21.4579  -21.2905  -12.1592 O   0  0  0  0  0  0  0  0  0  0  0  0
   21.5312  -22.5303  -12.3843 O   0  0  0  0  0  0  0  0  0  0  0  0
   22.3202  -18.5207  -16.5917 N   0  0  0  0  0  0  0  0  0  0  0  0
   20.3299  -20.7382  -11.5408 C   0  0  2  0  0  0  0  0  0  0  0  0
   19.0974  -21.4826  -11.3792 C   0  0  0  0  0  0  0  0  0  0  0  0
   18.4481  -21.7781  -12.6938 C   0  0  0  0  0  0  0  0  0  0  0  0
   17.1373  -22.4684  -12.6551 C   0  0  0  0  0  0  0  0  0  0  0  0
   16.5933  -22.9040  -13.9463 O   0  0  0  0  0  0  0  0  0  0  0  0
   16.2091  -22.0454  -14.7741 C   0  0  0  0  0  0  0  0  0  0  0  0
   19.3144  -22.6586  -10.5110 O   0  0  0  0  0  0  0  0  0  0  0  0
   18.5887  -22.8683   -9.5105 O   0  0  0  0  0  0  0  0  0  0  0  0
   16.4786  -24.2425  -14.3089 O   0  0  0  0  0  0  0  0  0  0  0  0
  1  2  1  0
  2  3  2  0
  4  2  1  0
  4  5  1  0
  6  5  1  0
  7  6  1  0
  8  9  1  6
  8  7  1  0
 10  8  1  0
 10 12  1  0
 11 10  2  0
 13 12  1  0
 13 18  1  0
 13 14  1  1
 15 14  1  0
 16 17  2  0
 16 15  1  0
 18 19  2  0
 20 16  1  0
 21 18  1  0
 21 22  1  0
 22 27  1  0
 23 24  1  0
 22 23  1  1
 25 24  1  0
 25 29  1  0
 26 25  2  0
 27 28  2  0
 27 30  1  0
M  END
$$$$
