REE.pdb
     RDKit          3D

 30 29  0  0  1  0  0  0  0  0999 V2000
   33.0740  -25.0609  -14.7009 N   0  0  0  0  0  0  0  0  0  0  0  0
   33.2835  -24.5341  -16.0207 C   0  0  0  0  0  0  0  0  0  0  0  0
   34.0775  -25.1500  -16.7983 N   0  0  0  0  0  0  0  0  0  0  0  0
   32.6323  -23.3635  -16.4712 N   0  0  0  0  0  0  0  0  0  0  0  0
   31.3212  -23.0516  -15.9368 C   0  0  0  0  0  0  0  0  0  0  0  0
   30.2238  -23.8339  -16.5485 C   0  0  0  0  0  0  0  0  0  0  0  0
   28.8835  -23.4379  -16.0244 C   0  0  0  0  0  0  0  0  0  0  0  0
   28.6374  -21.9799  -15.7816 C   0  0  2  0  0  0  0  0  0  0  0  0
   29.7782  -21.3775  -15.2093 N   0  0  0  0  0  0  0  0  0  0  0  0
   27.4227  -21.9041  -14.9288 C   0  0  0  0  0  0  0  0  0  0  0  0
   26.3758  -22.4710  -15.3401 O   0  0  0  0  0  0  0  0  0  0  0  0
   34.3870  -24.8457  -17.7379 N   0  0  0  0  0  0  0  0  0  0  0  0
   27.3825  -21.2294  -13.6819 C   0  0  1  0  0  0  0  0  0  0  0  0
   26.2012  -21.2571  -12.8321 C   0  0  0  0  0  0  0  0  0  0  0  0
   26.7017  -20.9804  -11.4093 C   0  0  0  0  0  0  0  0  0  0  0  0
   25.4609  -21.0626  -10.5110 C   0  0  0  0  0  0  0  0  0  0  0  0
   25.8400  -20.8339   -9.0889 O   0  0  0  0  0  0  0  0  0  0  0  0
   27.0205  -20.4623   -8.8363 C   0  0  0  0  0  0  0  0  0  0  0  0
   25.1806  -20.2992  -13.2477 O   0  0  0  0  0  0  0  0  0  0  0  0
   25.4209  -19.0643  -13.1460 O   0  0  0  0  0  0  0  0  0  0  0  0
   24.8875  -21.0387   -8.1217 N   0  0  0  0  0  0  0  0  0  0  0  0
   23.9560  -20.7536  -13.7514 C   0  0  2  0  0  0  0  0  0  0  0  0
   22.8919  -19.8447  -14.1265 C   0  0  0  0  0  0  0  0  0  0  0  0
   22.4224  -20.0834  -15.5264 C   0  0  0  0  0  0  0  0  0  0  0  0
   21.2068  -19.3552  -15.9602 C   0  0  0  0  0  0  0  0  0  0  0  0
   20.7816  -19.5683  -17.3483 O   0  0  0  0  0  0  0  0  0  0  0  0
   19.7668  -18.9734  -17.7799 C   0  0  0  0  0  0  0  0  0  0  0  0
   21.8273  -19.8448  -13.1016 O   0  0  0  0  0  0  0  0  0  0  0  0
   21.1388  -18.8204  -12.8821 O   0  0  0  0  0  0  0  0  0  0  0  0
   21.4556  -20.4099  -18.2278 O   0  0  0  0  0  0  0  0  0  0  0  0
  1  2  1  0
  2  3  2  0
  4  2  1  0
  4  5  1  0
  6  5  1  0
  7  6  1  0
  8  9  1  1
  8  7  1  0
 10  8  1  0
 10 12  1  0
 11 10  2  0
 13 12  1  0
 13 18  1  0
 13 14  1  1
 15 14  1  0
 16 17  2  0
 16 15  1  0
 18 19  2  0
 20 16  1  0
 21 18  1  0
 21 22  1  0
 22 27  1  0
 23 24  1  0
 22 23  1  1
 25 24  1  0
 25 29  1  0
 26 25  2  0
 27 28  2  0
 27 30  1  0
M  END
$$$$
