REE.pdb
     RDKit          3D

 30 29  0  0  1  0  0  0  0  0999 V2000
   30.6784  -21.0068   -8.5312 N   0  0  0  0  0  0  0  0  0  0  0  0
   31.0832  -21.9598   -9.5267 C   0  0  0  0  0  0  0  0  0  0  0  0
   31.8867  -22.8838   -9.1874 N   0  0  0  0  0  0  0  0  0  0  0  0
   30.6116  -21.8977  -10.8574 N   0  0  0  0  0  0  0  0  0  0  0  0
   29.3882  -21.1672  -11.1248 C   0  0  0  0  0  0  0  0  0  0  0  0
   28.9991  -21.1533  -12.5527 C   0  0  0  0  0  0  0  0  0  0  0  0
   27.8596  -20.2275  -12.8217 C   0  0  0  0  0  0  0  0  0  0  0  0
   26.6932  -20.2727  -11.8823 C   0  0  2  0  0  0  0  0  0  0  0  0
   26.7298  -21.4533  -11.1096 N   0  0  0  0  0  0  0  0  0  0  0  0
   25.4782  -20.1423  -12.7281 C   0  0  0  0  0  0  0  0  0  0  0  0
   25.5016  -19.3072  -13.6707 O   0  0  0  0  0  0  0  0  0  0  0  0
   32.2779  -23.6218   -9.7986 N   0  0  0  0  0  0  0  0  0  0  0  0
   24.3000  -20.9062  -12.5288 C   0  0  2  0  0  0  0  0  0  0  0  0
   23.7152  -21.7068  -13.5944 C   0  0  0  0  0  0  0  0  0  0  0  0
   24.8507  -22.5889  -14.1276 C   0  0  0  0  0  0  0  0  0  0  0  0
   24.2477  -23.3776  -15.2970 C   0  0  0  0  0  0  0  0  0  0  0  0
   25.2633  -24.3044  -15.8696 O   0  0  0  0  0  0  0  0  0  0  0  0
   24.9038  -25.0930  -16.7885 C   0  0  0  0  0  0  0  0  0  0  0  0
   22.5728  -22.4987  -13.1477 O   0  0  0  0  0  0  0  0  0  0  0  0
   22.6462  -23.1156  -12.0490 O   0  0  0  0  0  0  0  0  0  0  0  0
   26.5412  -24.2565  -15.3701 N   0  0  0  0  0  0  0  0  0  0  0  0
   21.4161  -22.5660  -13.9334 C   0  0  2  0  0  0  0  0  0  0  0  0
   20.2621  -21.7275  -13.6797 C   0  0  0  0  0  0  0  0  0  0  0  0
   20.6460  -20.2955  -13.4819 C   0  0  0  0  0  0  0  0  0  0  0  0
   20.2893  -19.6780  -12.1829 C   0  0  0  0  0  0  0  0  0  0  0  0
   19.5877  -18.3907  -12.2456 O   0  0  0  0  0  0  0  0  0  0  0  0
   20.1613  -17.4007  -12.7562 C   0  0  0  0  0  0  0  0  0  0  0  0
   19.2202  -21.9598  -14.7016 O   0  0  0  0  0  0  0  0  0  0  0  0
   19.4902  -21.9126  -15.9249 O   0  0  0  0  0  0  0  0  0  0  0  0
   18.2967  -18.2056  -11.7604 O   0  0  0  0  0  0  0  0  0  0  0  0
  1  2  1  0
  2  3  2  0
  4  2  1  0
  4  5  1  0
  6  5  1  0
  7  6  1  0
  8  9  1  6
  8  7  1  0
 10  8  1  0
 10 12  1  0
 11 10  2  0
 13 12  1  0
 13 18  1  0
 13 14  1  6
 15 14  1  0
 16 17  2  0
 16 15  1  0
 18 19  2  0
 20 16  1  0
 21 18  1  0
 21 22  1  0
 22 27  1  0
 23 24  1  0
 22 23  1  1
 25 24  1  0
 25 29  1  0
 26 25  2  0
 27 28  2  0
 27 30  1  0
M  END
$$$$
