REE.pdb
     RDKit          3D

 30 29  0  0  1  0  0  0  0  0999 V2000
   14.8440  -21.7468   -7.9622 N   0  0  0  0  0  0  0  0  0  0  0  0
   13.8151  -22.6570   -8.3816 C   0  0  0  0  0  0  0  0  0  0  0  0
   13.2309  -22.4401   -9.4890 N   0  0  0  0  0  0  0  0  0  0  0  0
   13.4440  -23.7769   -7.6035 N   0  0  0  0  0  0  0  0  0  0  0  0
   14.1901  -24.0559   -6.3923 C   0  0  0  0  0  0  0  0  0  0  0  0
   15.4190  -24.8499   -6.6156 C   0  0  0  0  0  0  0  0  0  0  0  0
   16.6454  -24.1437   -6.1413 C   0  0  0  0  0  0  0  0  0  0  0  0
   17.9528  -24.8652   -6.2660 C   0  0  2  0  0  0  0  0  0  0  0  0
   18.2581  -25.0977   -7.6243 N   0  0  0  0  0  0  0  0  0  0  0  0
   17.8178  -26.1043   -5.4569 C   0  0  0  0  0  0  0  0  0  0  0  0
   17.3912  -27.1412   -6.0309 O   0  0  0  0  0  0  0  0  0  0  0  0
   12.4574  -22.9906   -9.9012 N   0  0  0  0  0  0  0  0  0  0  0  0
   18.1431  -26.1784   -4.0784 C   0  0  2  0  0  0  0  0  0  0  0  0
   18.0787  -27.4316   -3.3411 C   0  0  0  0  0  0  0  0  0  0  0  0
   18.4436  -27.0850   -1.8925 C   0  0  0  0  0  0  0  0  0  0  0  0
   18.4606  -28.4212   -1.1391 C   0  0  0  0  0  0  0  0  0  0  0  0
   19.0114  -28.2313    0.2316 O   0  0  0  0  0  0  0  0  0  0  0  0
   19.3296  -27.0633    0.5925 C   0  0  0  0  0  0  0  0  0  0  0  0
   16.7733  -28.0789   -3.4351 O   0  0  0  0  0  0  0  0  0  0  0  0
   15.7308  -27.3735   -3.3426 O   0  0  0  0  0  0  0  0  0  0  0  0
   19.1467  -29.3355    1.0360 N   0  0  0  0  0  0  0  0  0  0  0  0
   16.6893  -29.4633   -3.6261 C   0  0  2  0  0  0  0  0  0  0  0  0
   15.4185  -30.1541   -3.7088 C   0  0  0  0  0  0  0  0  0  0  0  0
   15.5493  -31.4836   -4.3816 C   0  0  0  0  0  0  0  0  0  0  0  0
   15.8822  -31.4754   -5.8256 C   0  0  0  0  0  0  0  0  0  0  0  0
   16.0522  -32.7869   -6.4613 O   0  0  0  0  0  0  0  0  0  0  0  0
   15.0824  -33.5787   -6.5091 C   0  0  0  0  0  0  0  0  0  0  0  0
   14.7604  -30.1852   -2.3860 O   0  0  0  0  0  0  0  0  0  0  0  0
   15.4202  -30.0377   -1.3303 O   0  0  0  0  0  0  0  0  0  0  0  0
   17.2532  -33.2075   -7.0244 O   0  0  0  0  0  0  0  0  0  0  0  0
  1  2  1  0
  2  3  2  0
  4  2  1  0
  4  5  1  0
  6  5  1  0
  7  6  1  0
  8  9  1  6
  8  7  1  0
 10  8  1  0
 10 12  1  0
 11 10  2  0
 13 12  1  0
 13 18  1  0
 13 14  1  1
 15 14  1  0
 16 17  2  0
 16 15  1  0
 18 19  2  0
 20 16  1  0
 21 18  1  0
 21 22  1  0
 22 27  1  0
 23 24  1  0
 22 23  1  6
 25 24  1  0
 25 29  1  0
 26 25  2  0
 27 28  2  0
 27 30  1  0
M  END
$$$$
