REE.pdb
     RDKit          3D

 30 29  0  0  1  0  0  0  0  0999 V2000
   29.3024  -20.6246  -20.8549 N   0  0  0  0  0  0  0  0  0  0  0  0
   29.5487  -21.8241  -20.1043 C   0  0  0  0  0  0  0  0  0  0  0  0
   30.6079  -22.4825  -20.3476 N   0  0  0  0  0  0  0  0  0  0  0  0
   28.6541  -22.2821  -19.1107 N   0  0  0  0  0  0  0  0  0  0  0  0
   27.4345  -21.5332  -18.8793 C   0  0  0  0  0  0  0  0  0  0  0  0
   27.6391  -20.2716  -18.1331 C   0  0  0  0  0  0  0  0  0  0  0  0
   26.9989  -20.2989  -16.7850 C   0  0  0  0  0  0  0  0  0  0  0  0
   27.5401  -21.2698  -15.7802 C   0  0  2  0  0  0  0  0  0  0  0  0
   28.0640  -22.4082  -16.4295 N   0  0  0  0  0  0  0  0  0  0  0  0
   26.4197  -21.5672  -14.8504 C   0  0  0  0  0  0  0  0  0  0  0  0
   25.6823  -22.5548  -15.1107 O   0  0  0  0  0  0  0  0  0  0  0  0
   30.8700  -23.4040  -19.9556 N   0  0  0  0  0  0  0  0  0  0  0  0
   26.1397  -20.7997  -13.6911 C   0  0  1  0  0  0  0  0  0  0  0  0
   25.0617  -21.1525  -12.7791 C   0  0  0  0  0  0  0  0  0  0  0  0
   25.5615  -20.7846  -11.3768 C   0  0  0  0  0  0  0  0  0  0  0  0
   24.4483  -21.2171  -10.4141 C   0  0  0  0  0  0  0  0  0  0  0  0
   24.8562  -20.9547   -9.0059 O   0  0  0  0  0  0  0  0  0  0  0  0
   24.0777  -21.3172   -8.0796 C   0  0  0  0  0  0  0  0  0  0  0  0
   23.8037  -20.4856  -13.1025 O   0  0  0  0  0  0  0  0  0  0  0  0
   23.7765  -19.2254  -13.1670 O   0  0  0  0  0  0  0  0  0  0  0  0
   26.0588  -20.3311   -8.7834 N   0  0  0  0  0  0  0  0  0  0  0  0
   22.6492  -21.2420  -13.3370 C   0  0  2  0  0  0  0  0  0  0  0  0
   21.3942  -20.6321  -13.7270 C   0  0  0  0  0  0  0  0  0  0  0  0
   20.4857  -21.6092  -14.4030 C   0  0  0  0  0  0  0  0  0  0  0  0
   19.8428  -22.6325  -13.5453 C   0  0  0  0  0  0  0  0  0  0  0  0
   19.1246  -23.7063  -14.2412 O   0  0  0  0  0  0  0  0  0  0  0  0
   18.5401  -24.5904  -13.5728 C   0  0  0  0  0  0  0  0  0  0  0  0
   20.7955  -19.9079  -12.5863 O   0  0  0  0  0  0  0  0  0  0  0  0
   21.0883  -20.2053  -11.4042 O   0  0  0  0  0  0  0  0  0  0  0  0
   19.0555  -23.7987  -15.6279 O   0  0  0  0  0  0  0  0  0  0  0  0
  1  2  1  0
  2  3  2  0
  4  2  1  0
  4  5  1  0
  6  5  1  0
  7  6  1  0
  8  9  1  6
  8  7  1  0
 10  8  1  0
 10 12  1  0
 11 10  2  0
 13 12  1  0
 13 18  1  0
 13 14  1  6
 15 14  1  0
 16 17  2  0
 16 15  1  0
 18 19  2  0
 20 16  1  0
 21 18  1  0
 21 22  1  0
 22 27  1  0
 23 24  1  0
 22 23  1  6
 25 24  1  0
 25 29  1  0
 26 25  2  0
 27 28  2  0
 27 30  1  0
M  END
$$$$
