REE.pdb
     RDKit          3D

 30 29  0  0  1  0  0  0  0  0999 V2000
   16.6787  -15.4993  -13.8417 N   0  0  0  0  0  0  0  0  0  0  0  0
   15.3182  -15.5968  -14.2919 C   0  0  0  0  0  0  0  0  0  0  0  0
   14.7571  -16.7367  -14.2775 N   0  0  0  0  0  0  0  0  0  0  0  0
   14.5960  -14.4682  -14.7412 N   0  0  0  0  0  0  0  0  0  0  0  0
   15.3275  -13.2531  -15.0417 C   0  0  0  0  0  0  0  0  0  0  0  0
   16.2982  -13.3971  -16.1496 C   0  0  0  0  0  0  0  0  0  0  0  0
   17.1263  -12.1703  -16.3421 C   0  0  0  0  0  0  0  0  0  0  0  0
   18.0935  -12.1594  -17.4865 C   0  0  2  0  0  0  0  0  0  0  0  0
   19.0207  -13.2155  -17.3565 N   0  0  0  0  0  0  0  0  0  0  0  0
   18.7133  -10.8087  -17.4887 C   0  0  0  0  0  0  0  0  0  0  0  0
   19.7046  -10.6125  -16.7368 O   0  0  0  0  0  0  0  0  0  0  0  0
   13.7964  -16.9599  -14.5916 N   0  0  0  0  0  0  0  0  0  0  0  0
   18.2477   -9.7351  -18.2899 C   0  0  2  0  0  0  0  0  0  0  0  0
   18.9007   -8.4343  -18.2846 C   0  0  0  0  0  0  0  0  0  0  0  0
   18.3140   -7.6658  -19.4750 C   0  0  0  0  0  0  0  0  0  0  0  0
   16.8548   -7.3756  -19.1013 C   0  0  0  0  0  0  0  0  0  0  0  0
   16.4458   -6.0425  -19.6246 O   0  0  0  0  0  0  0  0  0  0  0  0
   16.1455   -5.1395  -18.7939 C   0  0  0  0  0  0  0  0  0  0  0  0
   18.7204   -7.7139  -17.0275 O   0  0  0  0  0  0  0  0  0  0  0  0
   17.6833   -7.9286  -16.3409 O   0  0  0  0  0  0  0  0  0  0  0  0
   16.4149   -5.8602  -20.9850 N   0  0  0  0  0  0  0  0  0  0  0  0
   19.6901   -6.8004  -16.5976 C   0  0  2  0  0  0  0  0  0  0  0  0
   19.6014   -6.1275  -15.3175 C   0  0  0  0  0  0  0  0  0  0  0  0
   20.9361   -6.0180  -14.6515 C   0  0  0  0  0  0  0  0  0  0  0  0
   20.9636   -5.4147  -13.2982 C   0  0  0  0  0  0  0  0  0  0  0  0
   22.2837   -5.2850  -12.6707 O   0  0  0  0  0  0  0  0  0  0  0  0
   23.1579   -4.5725  -13.2164 C   0  0  0  0  0  0  0  0  0  0  0  0
   18.8644   -4.8538  -15.4536 O   0  0  0  0  0  0  0  0  0  0  0  0
   18.9559   -4.1600  -16.4937 O   0  0  0  0  0  0  0  0  0  0  0  0
   22.6243   -5.9213  -11.4809 O   0  0  0  0  0  0  0  0  0  0  0  0
  1  2  1  0
  2  3  2  0
  4  2  1  0
  4  5  1  0
  6  5  1  0
  7  6  1  0
  8  9  1  1
  8  7  1  0
 10  8  1  0
 10 12  1  0
 11 10  2  0
 13 12  1  0
 13 18  1  0
 13 14  1  6
 15 14  1  0
 16 17  2  0
 16 15  1  0
 18 19  2  0
 20 16  1  0
 21 18  1  0
 21 22  1  0
 22 27  1  0
 23 24  1  0
 22 23  1  6
 25 24  1  0
 25 29  1  0
 26 25  2  0
 27 28  2  0
 27 30  1  0
M  END
$$$$
