REE.pdb
     RDKit          3D

 30 29  0  0  1  0  0  0  0  0999 V2000
   30.1471  -24.2250  -16.8113 N   0  0  0  0  0  0  0  0  0  0  0  0
   30.3452  -23.2157  -17.8140 C   0  0  0  0  0  0  0  0  0  0  0  0
   30.8752  -23.5559  -18.9175 N   0  0  0  0  0  0  0  0  0  0  0  0
   29.9656  -21.8703  -17.6066 N   0  0  0  0  0  0  0  0  0  0  0  0
   28.7511  -21.6007  -16.8622 C   0  0  0  0  0  0  0  0  0  0  0  0
   27.5115  -21.9434  -17.5946 C   0  0  0  0  0  0  0  0  0  0  0  0
   26.2818  -21.6093  -16.8173 C   0  0  0  0  0  0  0  0  0  0  0  0
   25.9704  -22.4508  -15.6173 C   0  0  2  0  0  0  0  0  0  0  0  0
   26.1225  -23.8200  -15.9243 N   0  0  0  0  0  0  0  0  0  0  0  0
   24.5953  -22.0755  -15.1971 C   0  0  0  0  0  0  0  0  0  0  0  0
   23.6314  -22.4837  -15.8976 O   0  0  0  0  0  0  0  0  0  0  0  0
   31.0934  -22.9374  -19.7183 N   0  0  0  0  0  0  0  0  0  0  0  0
   24.3146  -21.2851  -14.0534 C   0  0  2  0  0  0  0  0  0  0  0  0
   22.9506  -20.9765  -13.6499 C   0  0  0  0  0  0  0  0  0  0  0  0
   23.0444  -20.4760  -12.2034 C   0  0  0  0  0  0  0  0  0  0  0  0
   21.5955  -20.2860  -11.7366 C   0  0  0  0  0  0  0  0  0  0  0  0
   21.5691  -19.7810  -10.3357 O   0  0  0  0  0  0  0  0  0  0  0  0
   22.6687  -19.5127   -9.7750 C   0  0  0  0  0  0  0  0  0  0  0  0
   22.3073  -20.0003  -14.5245 O   0  0  0  0  0  0  0  0  0  0  0  0
   22.9618  -18.9890  -14.9012 O   0  0  0  0  0  0  0  0  0  0  0  0
   20.3502  -19.6319   -9.7218 N   0  0  0  0  0  0  0  0  0  0  0  0
   20.9827  -20.1924  -14.9350 C   0  0  2  0  0  0  0  0  0  0  0  0
   20.3178  -19.2813  -15.8445 C   0  0  0  0  0  0  0  0  0  0  0  0
   19.8579  -19.9724  -17.0887 C   0  0  0  0  0  0  0  0  0  0  0  0
   19.1067  -19.1563  -18.0714 C   0  0  0  0  0  0  0  0  0  0  0  0
   18.6068  -19.8625  -19.2565 O   0  0  0  0  0  0  0  0  0  0  0  0
   18.8065  -21.0943  -19.3695 C   0  0  0  0  0  0  0  0  0  0  0  0
   19.2743  -18.5126  -15.1345 O   0  0  0  0  0  0  0  0  0  0  0  0
   18.5962  -19.0338  -14.2179 O   0  0  0  0  0  0  0  0  0  0  0  0
   17.9104  -19.2280  -20.2806 O   0  0  0  0  0  0  0  0  0  0  0  0
  1  2  1  0
  2  3  2  0
  4  2  1  0
  4  5  1  0
  6  5  1  0
  7  6  1  0
  8  9  1  6
  8  7  1  0
 10  8  1  0
 10 12  1  0
 11 10  2  0
 13 12  1  0
 13 18  1  0
 13 14  1  1
 15 14  1  0
 16 17  2  0
 16 15  1  0
 18 19  2  0
 20 16  1  0
 21 18  1  0
 21 22  1  0
 22 27  1  0
 23 24  1  0
 22 23  1  1
 25 24  1  0
 25 29  1  0
 26 25  2  0
 27 28  2  0
 27 30  1  0
M  END
$$$$
