REE.pdb
     RDKit          3D

 30 29  0  0  1  0  0  0  0  0999 V2000
   29.6163  -24.9904  -16.5951 N   0  0  0  0  0  0  0  0  0  0  0  0
   30.1783  -24.4471  -17.8001 C   0  0  0  0  0  0  0  0  0  0  0  0
   30.8690  -25.2121  -18.5432 N   0  0  0  0  0  0  0  0  0  0  0  0
   29.9805  -23.0994  -18.1767 N   0  0  0  0  0  0  0  0  0  0  0  0
   29.0944  -22.2794  -17.3740 C   0  0  0  0  0  0  0  0  0  0  0  0
   27.7244  -22.1647  -17.9221 C   0  0  0  0  0  0  0  0  0  0  0  0
   26.6903  -22.0672  -16.8502 C   0  0  0  0  0  0  0  0  0  0  0  0
   26.6683  -23.1439  -15.8083 C   0  0  2  0  0  0  0  0  0  0  0  0
   26.6184  -24.4162  -16.4173 N   0  0  0  0  0  0  0  0  0  0  0  0
   25.5038  -22.8470  -14.9342 C   0  0  0  0  0  0  0  0  0  0  0  0
   24.4282  -23.4650  -15.1528 O   0  0  0  0  0  0  0  0  0  0  0  0
   31.4446  -24.9331  -19.3570 N   0  0  0  0  0  0  0  0  0  0  0  0
   25.5416  -21.9079  -13.8720 C   0  0  1  0  0  0  0  0  0  0  0  0
   24.3758  -21.6399  -13.0428 C   0  0  0  0  0  0  0  0  0  0  0  0
   24.9229  -21.1641  -11.6916 C   0  0  0  0  0  0  0  0  0  0  0  0
   23.7024  -21.0454  -10.7698 C   0  0  0  0  0  0  0  0  0  0  0  0
   24.1293  -20.6404   -9.4016 O   0  0  0  0  0  0  0  0  0  0  0  0
   25.3375  -20.3186   -9.2220 C   0  0  0  0  0  0  0  0  0  0  0  0
   23.4681  -20.6637  -13.6385 O   0  0  0  0  0  0  0  0  0  0  0  0
   23.9367  -19.7812  -14.4097 O   0  0  0  0  0  0  0  0  0  0  0  0
   23.1884  -20.6368   -8.4019 N   0  0  0  0  0  0  0  0  0  0  0  0
   22.0985  -20.7142  -13.3530 C   0  0  1  0  0  0  0  0  0  0  0  0
   21.0985  -20.2363  -14.2861 C   0  0  0  0  0  0  0  0  0  0  0  0
   21.3013  -20.7987  -15.6572 C   0  0  0  0  0  0  0  0  0  0  0  0
   20.2681  -20.4834  -16.6717 C   0  0  0  0  0  0  0  0  0  0  0  0
   20.7537  -19.9590  -17.9532 O   0  0  0  0  0  0  0  0  0  0  0  0
   21.9862  -19.9189  -18.1752 C   0  0  0  0  0  0  0  0  0  0  0  0
   19.7422  -20.4211  -13.7291 O   0  0  0  0  0  0  0  0  0  0  0  0
   19.5106  -21.2991  -12.8648 O   0  0  0  0  0  0  0  0  0  0  0  0
   19.9053  -19.4956  -18.9541 O   0  0  0  0  0  0  0  0  0  0  0  0
  1  2  1  0
  2  3  2  0
  4  2  1  0
  4  5  1  0
  6  5  1  0
  7  6  1  0
  8  9  1  6
  8  7  1  0
 10  8  1  0
 10 12  1  0
 11 10  2  0
 13 12  1  0
 13 18  1  0
 13 14  1  1
 15 14  1  0
 16 17  2  0
 16 15  1  0
 18 19  2  0
 20 16  1  0
 21 18  1  0
 21 22  1  0
 22 27  1  0
 23 24  1  0
 22 23  1  1
 25 24  1  0
 25 29  1  0
 26 25  2  0
 27 28  2  0
 27 30  1  0
M  END
$$$$
