REE.pdb
     RDKit          3D

 30 29  0  0  1  0  0  0  0  0999 V2000
   47.3694  -11.7022   -7.7138 N   0  0  0  0  0  0  0  0  0  0  0  0
   47.0133  -12.3397   -6.4768 C   0  0  0  0  0  0  0  0  0  0  0  0
   47.7109  -13.3258   -6.0824 N   0  0  0  0  0  0  0  0  0  0  0  0
   45.9213  -11.8993   -5.6953 N   0  0  0  0  0  0  0  0  0  0  0  0
   45.0596  -10.8640   -6.2312 C   0  0  0  0  0  0  0  0  0  0  0  0
   43.7196  -11.3482   -6.6317 C   0  0  0  0  0  0  0  0  0  0  0  0
   42.8197  -10.2378   -7.0617 C   0  0  0  0  0  0  0  0  0  0  0  0
   42.4107   -9.2361   -6.0250 C   0  0  2  0  0  0  0  0  0  0  0  0
   41.8348   -9.8870   -4.9129 N   0  0  0  0  0  0  0  0  0  0  0  0
   41.4954   -8.2861   -6.7092 C   0  0  0  0  0  0  0  0  0  0  0  0
   40.3668   -8.7112   -7.0725 O   0  0  0  0  0  0  0  0  0  0  0  0
   47.5384  -13.9145   -5.2488 N   0  0  0  0  0  0  0  0  0  0  0  0
   41.8264   -6.9324   -6.9725 C   0  0  2  0  0  0  0  0  0  0  0  0
   40.9666   -6.0742   -7.7743 C   0  0  0  0  0  0  0  0  0  0  0  0
   41.4462   -4.6408   -7.5155 C   0  0  0  0  0  0  0  0  0  0  0  0
   41.0700   -4.3351   -6.0601 C   0  0  0  0  0  0  0  0  0  0  0  0
   41.4951   -2.9542   -5.6987 O   0  0  0  0  0  0  0  0  0  0  0  0
   41.7067   -2.1294   -6.6317 C   0  0  0  0  0  0  0  0  0  0  0  0
   40.9946   -6.4110   -9.1947 O   0  0  0  0  0  0  0  0  0  0  0  0
   42.0620   -6.8584   -9.6981 O   0  0  0  0  0  0  0  0  0  0  0  0
   41.6365   -2.6452   -4.3685 N   0  0  0  0  0  0  0  0  0  0  0  0
   39.8481   -6.2374   -9.9791 C   0  0  1  0  0  0  0  0  0  0  0  0
   39.7111   -6.8427  -11.2884 C   0  0  0  0  0  0  0  0  0  0  0  0
   39.8315   -8.3324  -11.2293 C   0  0  0  0  0  0  0  0  0  0  0  0
   39.5340   -9.0799  -12.4738 C   0  0  0  0  0  0  0  0  0  0  0  0
   39.6001  -10.5431  -12.3852 O   0  0  0  0  0  0  0  0  0  0  0  0
   39.4083  -11.2318  -13.4142 C   0  0  0  0  0  0  0  0  0  0  0  0
   38.4973   -6.3402  -11.9652 O   0  0  0  0  0  0  0  0  0  0  0  0
   37.6142   -5.7147  -11.3323 O   0  0  0  0  0  0  0  0  0  0  0  0
   39.8692  -11.2203  -11.1998 O   0  0  0  0  0  0  0  0  0  0  0  0
  1  2  1  0
  2  3  2  0
  4  2  1  0
  4  5  1  0
  6  5  1  0
  7  6  1  0
  8  9  1  1
  8  7  1  0
 10  8  1  0
 10 12  1  0
 11 10  2  0
 13 12  1  0
 13 18  1  0
 13 14  1  1
 15 14  1  0
 16 17  2  0
 16 15  1  0
 18 19  2  0
 20 16  1  0
 21 18  1  0
 21 22  1  0
 22 27  1  0
 23 24  1  0
 22 23  1  6
 25 24  1  0
 25 29  1  0
 26 25  2  0
 27 28  2  0
 27 30  1  0
M  END
$$$$
