MKI.pdb
     RDKit          3D

 26 25  0  0  1  0  0  0  0  0999 V2000
    8.6570  -11.7302   19.9497 C   0  0  0  0  0  0  0  0  0  0  0  0
    8.0620  -12.5683   18.4542 S   0  0  0  0  0  0  0  0  0  0  0  0
    7.9525  -14.3311   18.7846 C   0  0  0  0  0  0  0  0  0  0  0  0
    7.4416  -14.5545   20.1906 C   0  0  0  0  0  0  0  0  0  0  0  0
    7.3857  -16.0247   20.4508 C   0  0  2  0  0  0  0  0  0  0  0  0
    6.4667  -16.6461   19.5514 N   0  0  0  0  0  0  0  0  0  0  0  0
    6.9823  -16.3340   21.8650 C   0  0  0  0  0  0  0  0  0  0  0  0
    6.0680  -15.6475   22.4102 O   0  0  0  0  0  0  0  0  0  0  0  0
    7.6043  -17.3613   22.5708 N   0  0  0  0  0  0  0  0  0  0  0  0
    7.7160  -17.5547   23.9979 C   0  0  1  0  0  0  0  0  0  0  0  0
    8.0887  -18.9676   24.4077 C   0  0  0  0  0  0  0  0  0  0  0  0
    8.0853  -19.0519   25.9002 C   0  0  0  0  0  0  0  0  0  0  0  0
    7.3538  -20.2637   26.4368 C   0  0  0  0  0  0  0  0  0  0  0  0
    7.4026  -20.1815   27.9493 C   0  0  0  0  0  0  0  0  0  0  0  0
    6.5584  -21.2410   28.4929 N   0  0  0  0  0  0  0  0  0  0  0  0
    8.4200  -16.4949   24.7081 C   0  0  0  0  0  0  0  0  0  0  0  0
    9.6222  -16.1557   24.4017 O   0  0  0  0  0  0  0  0  0  0  0  0
    5.7884  -12.0895   26.0716 C   0  0  0  0  0  0  0  0  0  0  0  0
    6.8384  -13.1011   25.7171 C   0  0  0  0  0  0  0  0  0  0  0  0
    7.5671  -13.6211   26.9440 C   0  0  2  0  0  0  0  0  0  0  0  0
    8.4033  -12.4961   27.5446 C   0  0  0  0  0  0  0  0  0  0  0  0
    8.4850  -14.7232   26.5012 C   0  0  2  0  0  0  0  0  0  0  0  0
    7.8322  -15.7689   25.7777 N   0  0  0  0  0  0  0  0  0  0  0  0
    9.3509  -15.2463   27.6182 C   0  0  0  0  0  0  0  0  0  0  0  0
    9.1786  -16.5067   28.1531 O   0  0  0  0  0  0  0  0  0  0  0  0
   10.2759  -14.5554   28.1148 O   0  0  0  0  0  0  0  0  0  0  0  0
  2  1  1  0
  3  4  1  0
  3  2  1  0
  4  5  1  0
  5  6  1  6
  7  5  1  0
  7  9  1  0
  8  7  2  0
 10  9  1  0
 10 11  1  6
 11 12  1  0
 13 12  1  0
 14 13  1  0
 15 14  1  0
 16 10  1  0
 17 16  2  0
 19 18  1  0
 19 20  1  0
 20 22  1  0
 20 21  1  6
 22 23  1  1
 22 24  1  0
 23 16  1  0
 24 25  1  0
 26 24  2  0
M  END
$$$$
