MKI.pdb
     RDKit          3D

 26 25  0  0  1  0  0  0  0  0999 V2000
    7.8307  -11.7747   19.6457 C   0  0  0  0  0  0  0  0  0  0  0  0
    8.2168  -12.6806   18.1214 S   0  0  0  0  0  0  0  0  0  0  0  0
    8.0864  -14.4427   18.4477 C   0  0  0  0  0  0  0  0  0  0  0  0
    7.9513  -14.6760   19.9361 C   0  0  0  0  0  0  0  0  0  0  0  0
    7.8683  -16.1471   20.1836 C   0  0  2  0  0  0  0  0  0  0  0  0
    6.7235  -16.6903   19.5248 N   0  0  0  0  0  0  0  0  0  0  0  0
    7.7980  -16.4711   21.6494 C   0  0  0  0  0  0  0  0  0  0  0  0
    6.7205  -16.2532   22.2786 O   0  0  0  0  0  0  0  0  0  0  0  0
    8.9020  -17.0036   22.3112 N   0  0  0  0  0  0  0  0  0  0  0  0
    9.1172  -17.1930   23.7270 C   0  0  1  0  0  0  0  0  0  0  0  0
    9.9447  -18.4171   24.0729 C   0  0  0  0  0  0  0  0  0  0  0  0
   10.0437  -18.5256   25.5605 C   0  0  0  0  0  0  0  0  0  0  0  0
   10.7904  -19.7560   26.0299 C   0  0  0  0  0  0  0  0  0  0  0  0
   10.7893  -19.7284   27.5451 C   0  0  0  0  0  0  0  0  0  0  0  0
   11.3550  -20.9850   28.0264 N   0  0  0  0  0  0  0  0  0  0  0  0
    9.4583  -15.9830   24.4637 C   0  0  0  0  0  0  0  0  0  0  0  0
   10.5833  -15.3822   24.2973 O   0  0  0  0  0  0  0  0  0  0  0  0
    5.7003  -12.5382   27.1857 C   0  0  0  0  0  0  0  0  0  0  0  0
    6.6652  -13.6564   26.9208 C   0  0  0  0  0  0  0  0  0  0  0  0
    7.9321  -13.1677   26.2405 C   0  0  2  0  0  0  0  0  0  0  0  0
    7.6173  -12.8109   24.7917 C   0  0  0  0  0  0  0  0  0  0  0  0
    8.9262  -14.2922   26.2571 C   0  0  2  0  0  0  0  0  0  0  0  0
    8.5797  -15.3881   25.4073 N   0  0  0  0  0  0  0  0  0  0  0  0
    9.2853  -14.7338   27.6526 C   0  0  0  0  0  0  0  0  0  0  0  0
    9.8552  -13.8761   28.5711 O   0  0  0  0  0  0  0  0  0  0  0  0
    9.0788  -15.9094   28.0460 O   0  0  0  0  0  0  0  0  0  0  0  0
  2  1  1  0
  3  4  1  0
  3  2  1  0
  4  5  1  0
  5  6  1  6
  7  5  1  0
  7  9  1  0
  8  7  2  0
 10  9  1  0
 10 11  1  6
 11 12  1  0
 13 12  1  0
 14 13  1  0
 15 14  1  0
 16 10  1  0
 17 16  2  0
 19 18  1  0
 19 20  1  0
 20 22  1  0
 20 21  1  6
 22 23  1  6
 22 24  1  0
 23 16  1  0
 24 25  1  0
 26 24  2  0
M  END
$$$$
