MKI.pdb
     RDKit          3D

 26 25  0  0  1  0  0  0  0  0999 V2000
    6.8280  -17.8211   28.5650 C   0  0  0  0  0  0  0  0  0  0  0  0
    6.5475  -19.5995   28.3383 S   0  0  0  0  0  0  0  0  0  0  0  0
    6.2188  -19.9158   26.6004 C   0  0  0  0  0  0  0  0  0  0  0  0
    7.0041  -18.9432   25.7487 C   0  0  0  0  0  0  0  0  0  0  0  0
    6.5622  -19.0865   24.3287 C   0  0  2  0  0  0  0  0  0  0  0  0
    6.7655  -20.4291   23.8862 N   0  0  0  0  0  0  0  0  0  0  0  0
    7.2914  -18.1456   23.4116 C   0  0  0  0  0  0  0  0  0  0  0  0
    8.4152  -18.4905   22.9399 O   0  0  0  0  0  0  0  0  0  0  0  0
    6.7419  -16.9086   23.0826 N   0  0  0  0  0  0  0  0  0  0  0  0
    7.4027  -15.6986   22.6515 C   0  0  1  0  0  0  0  0  0  0  0  0
    6.6531  -14.9269   21.5812 C   0  0  0  0  0  0  0  0  0  0  0  0
    7.5962  -13.9656   20.9323 C   0  0  0  0  0  0  0  0  0  0  0  0
    7.2194  -13.6148   19.5088 C   0  0  0  0  0  0  0  0  0  0  0  0
    8.3376  -12.7588   18.9486 C   0  0  0  0  0  0  0  0  0  0  0  0
    7.9335  -12.2841   17.6288 N   0  0  0  0  0  0  0  0  0  0  0  0
    7.9626  -14.8885   23.7255 C   0  0  0  0  0  0  0  0  0  0  0  0
    7.7961  -13.6139   23.7710 O   0  0  0  0  0  0  0  0  0  0  0  0
    6.0842  -12.4635   26.3484 C   0  0  0  0  0  0  0  0  0  0  0  0
    7.2522  -13.1638   25.7185 C   0  0  0  0  0  0  0  0  0  0  0  0
    7.9512  -14.0964   26.6923 C   0  0  2  0  0  0  0  0  0  0  0  0
    8.4965  -13.2834   27.8614 C   0  0  0  0  0  0  0  0  0  0  0  0
    9.1007  -14.7375   25.9705 C   0  0  2  0  0  0  0  0  0  0  0  0
    8.7233  -15.4453   24.7874 N   0  0  0  0  0  0  0  0  0  0  0  0
    9.9769  -15.5590   26.8809 C   0  0  0  0  0  0  0  0  0  0  0  0
   10.1882  -16.9074   26.6775 O   0  0  0  0  0  0  0  0  0  0  0  0
   10.5599  -15.0499   27.8711 O   0  0  0  0  0  0  0  0  0  0  0  0
  2  1  1  0
  3  4  1  0
  3  2  1  0
  4  5  1  0
  5  6  1  6
  7  5  1  0
  7  9  1  0
  8  7  2  0
 10  9  1  0
 10 11  1  1
 11 12  1  0
 13 12  1  0
 14 13  1  0
 15 14  1  0
 16 10  1  0
 17 16  2  0
 19 18  1  0
 19 20  1  0
 20 22  1  0
 20 21  1  1
 22 23  1  6
 22 24  1  0
 23 16  1  0
 24 25  1  0
 26 24  2  0
M  END
$$$$
