MKI.pdb
     RDKit          3D

 26 25  0  0  1  0  0  0  0  0999 V2000
    7.2056  -11.5954   25.8922 C   0  0  0  0  0  0  0  0  0  0  0  0
    5.5394  -12.1633   26.3332 S   0  0  0  0  0  0  0  0  0  0  0  0
    5.2570  -13.7684   25.5768 C   0  0  0  0  0  0  0  0  0  0  0  0
    6.5663  -14.5183   25.4704 C   0  0  0  0  0  0  0  0  0  0  0  0
    6.3293  -15.7899   24.7226 C   0  0  2  0  0  0  0  0  0  0  0  0
    5.3036  -16.5501   25.3626 N   0  0  0  0  0  0  0  0  0  0  0  0
    7.5743  -16.6250   24.6179 C   0  0  0  0  0  0  0  0  0  0  0  0
    7.7282  -17.6049   25.4057 O   0  0  0  0  0  0  0  0  0  0  0  0
    8.5492  -16.3279   23.6684 N   0  0  0  0  0  0  0  0  0  0  0  0
    9.9582  -16.6462   23.6723 C   0  0  1  0  0  0  0  0  0  0  0  0
   10.6658  -16.3564   22.3614 C   0  0  0  0  0  0  0  0  0  0  0  0
   10.0609  -17.2064   21.2907 C   0  0  0  0  0  0  0  0  0  0  0  0
   10.6789  -16.9920   19.9256 C   0  0  0  0  0  0  0  0  0  0  0  0
    9.9515  -17.9034   18.9576 C   0  0  0  0  0  0  0  0  0  0  0  0
   10.5118  -17.6974   17.6256 N   0  0  0  0  0  0  0  0  0  0  0  0
   10.6773  -16.2357   24.8712 C   0  0  0  0  0  0  0  0  0  0  0  0
   11.0904  -15.0287   25.0345 O   0  0  0  0  0  0  0  0  0  0  0  0
    8.9796  -13.7998   27.8018 C   0  0  0  0  0  0  0  0  0  0  0  0
   10.0468  -14.6553   27.1848 C   0  0  0  0  0  0  0  0  0  0  0  0
   10.2736  -15.9374   27.9669 C   0  0  2  0  0  0  0  0  0  0  0  0
   10.7747  -15.5899   29.3645 C   0  0  0  0  0  0  0  0  0  0  0  0
   11.3324  -16.7288   27.2558 C   0  0  2  0  0  0  0  0  0  0  0  0
   10.9684  -17.1319   25.9336 N   0  0  0  0  0  0  0  0  0  0  0  0
   11.8620  -17.8716   28.0834 C   0  0  0  0  0  0  0  0  0  0  0  0
   12.8985  -17.7111   28.9802 O   0  0  0  0  0  0  0  0  0  0  0  0
   11.3796  -19.0288   27.9953 O   0  0  0  0  0  0  0  0  0  0  0  0
  2  1  1  0
  3  4  1  0
  3  2  1  0
  4  5  1  0
  5  6  1  1
  7  5  1  0
  7  9  1  0
  8  7  2  0
 10  9  1  0
 10 11  1  6
 11 12  1  0
 13 12  1  0
 14 13  1  0
 15 14  1  0
 16 10  1  0
 17 16  2  0
 19 18  1  0
 19 20  1  0
 20 22  1  0
 20 21  1  1
 22 23  1  6
 22 24  1  0
 23 16  1  0
 24 25  1  0
 26 24  2  0
M  END
$$$$
