MKI.pdb
     RDKit          3D

 26 25  0  0  1  0  0  0  0  0999 V2000
    6.4561  -11.5384   26.0848 C   0  0  0  0  0  0  0  0  0  0  0  0
    5.7987  -13.2297   26.0701 S   0  0  0  0  0  0  0  0  0  0  0  0
    6.5089  -14.1137   24.6763 C   0  0  0  0  0  0  0  0  0  0  0  0
    7.2851  -13.1510   23.8053 C   0  0  0  0  0  0  0  0  0  0  0  0
    7.9487  -13.9240   22.7124 C   0  0  2  0  0  0  0  0  0  0  0  0
    6.9828  -14.7096   22.0127 N   0  0  0  0  0  0  0  0  0  0  0  0
    9.0355  -14.8214   23.2335 C   0  0  0  0  0  0  0  0  0  0  0  0
    9.9274  -14.3353   23.9903 O   0  0  0  0  0  0  0  0  0  0  0  0
    9.0655  -16.1711   22.8904 N   0  0  0  0  0  0  0  0  0  0  0  0
    9.9983  -17.1979   23.2932 C   0  0  1  0  0  0  0  0  0  0  0  0
   10.7292  -17.8622   22.1411 C   0  0  0  0  0  0  0  0  0  0  0  0
   11.5234  -19.0109   22.6743 C   0  0  0  0  0  0  0  0  0  0  0  0
   12.2917  -19.7627   21.6085 C   0  0  0  0  0  0  0  0  0  0  0  0
   13.0331  -20.8880   22.3020 C   0  0  0  0  0  0  0  0  0  0  0  0
   13.7578  -21.6507   21.2903 N   0  0  0  0  0  0  0  0  0  0  0  0
   10.8271  -16.8580   24.4424 C   0  0  0  0  0  0  0  0  0  0  0  0
   11.7827  -16.0012   24.3597 O   0  0  0  0  0  0  0  0  0  0  0  0
   10.6611  -13.5848   28.8303 C   0  0  0  0  0  0  0  0  0  0  0  0
   11.1437  -14.9641   28.4896 C   0  0  0  0  0  0  0  0  0  0  0  0
   10.5482  -15.4717   27.1879 C   0  0  2  0  0  0  0  0  0  0  0  0
    9.0306  -15.5358   27.3223 C   0  0  0  0  0  0  0  0  0  0  0  0
   11.0723  -16.8584   26.9521 C   0  0  2  0  0  0  0  0  0  0  0  0
   10.6381  -17.4435   25.7223 N   0  0  0  0  0  0  0  0  0  0  0  0
   10.8615  -17.7711   28.1327 C   0  0  0  0  0  0  0  0  0  0  0  0
   10.0689  -18.8983   28.0579 O   0  0  0  0  0  0  0  0  0  0  0  0
   11.4026  -17.5469   29.2446 O   0  0  0  0  0  0  0  0  0  0  0  0
  2  1  1  0
  3  4  1  0
  3  2  1  0
  4  5  1  0
  5  6  1  1
  7  5  1  0
  7  9  1  0
  8  7  2  0
 10  9  1  0
 10 11  1  6
 11 12  1  0
 13 12  1  0
 14 13  1  0
 15 14  1  0
 16 10  1  0
 17 16  2  0
 19 18  1  0
 19 20  1  0
 20 22  1  0
 20 21  1  1
 22 23  1  6
 22 24  1  0
 23 16  1  0
 24 25  1  0
 26 24  2  0
M  END
$$$$
