MKI.pdb
     RDKit          3D

 26 25  0  0  1  0  0  0  0  0999 V2000
    8.0109  -11.5303   20.5717 C   0  0  0  0  0  0  0  0  0  0  0  0
    7.5541  -12.2372   18.9640 S   0  0  0  0  0  0  0  0  0  0  0  0
    8.0163  -13.9734   18.9439 C   0  0  0  0  0  0  0  0  0  0  0  0
    8.0055  -14.5193   20.3545 C   0  0  0  0  0  0  0  0  0  0  0  0
    9.3128  -15.1937   20.6159 C   0  0  2  0  0  0  0  0  0  0  0  0
    9.5423  -16.2112   19.6404 N   0  0  0  0  0  0  0  0  0  0  0  0
    9.3717  -15.8004   21.9896 C   0  0  0  0  0  0  0  0  0  0  0  0
    8.9167  -15.1453   22.9736 O   0  0  0  0  0  0  0  0  0  0  0  0
    9.9196  -17.0664   22.1823 N   0  0  0  0  0  0  0  0  0  0  0  0
   10.1319  -17.7949   23.4114 C   0  0  1  0  0  0  0  0  0  0  0  0
   10.7587  -19.1642   23.2237 C   0  0  0  0  0  0  0  0  0  0  0  0
   10.5856  -19.5806   21.7984 C   0  0  0  0  0  0  0  0  0  0  0  0
   11.2747  -20.8854   21.4606 C   0  0  0  0  0  0  0  0  0  0  0  0
   10.9701  -21.1883   20.0072 C   0  0  0  0  0  0  0  0  0  0  0  0
   11.7586  -22.3495   19.6066 N   0  0  0  0  0  0  0  0  0  0  0  0
   10.6793  -17.0051   24.5067 C   0  0  0  0  0  0  0  0  0  0  0  0
   11.7243  -16.2704   24.3569 O   0  0  0  0  0  0  0  0  0  0  0  0
    9.6795  -12.8653   28.5136 C   0  0  0  0  0  0  0  0  0  0  0  0
   10.3886  -14.1603   28.2464 C   0  0  0  0  0  0  0  0  0  0  0  0
    9.7579  -14.9302   27.0992 C   0  0  2  0  0  0  0  0  0  0  0  0
    8.3340  -15.3208   27.4806 C   0  0  0  0  0  0  0  0  0  0  0  0
   10.5621  -16.1797   26.8865 C   0  0  2  0  0  0  0  0  0  0  0  0
   10.1013  -16.9912   25.8038 N   0  0  0  0  0  0  0  0  0  0  0  0
   10.7628  -16.9681   28.1552 C   0  0  0  0  0  0  0  0  0  0  0  0
   10.2743  -18.2495   28.3093 O   0  0  0  0  0  0  0  0  0  0  0  0
   11.3897  -16.4925   29.1352 O   0  0  0  0  0  0  0  0  0  0  0  0
  2  1  1  0
  3  4  1  0
  3  2  1  0
  4  5  1  0
  5  6  1  6
  7  5  1  0
  7  9  1  0
  8  7  2  0
 10  9  1  0
 10 11  1  6
 11 12  1  0
 13 12  1  0
 14 13  1  0
 15 14  1  0
 16 10  1  0
 17 16  2  0
 19 18  1  0
 19 20  1  0
 20 22  1  0
 20 21  1  1
 22 23  1  6
 22 24  1  0
 23 16  1  0
 24 25  1  0
 26 24  2  0
M  END
$$$$
