MKI.pdb
     RDKit          3D

 26 25  0  0  1  0  0  0  0  0999 V2000
    9.1140  -11.8967   19.8250 C   0  0  0  0  0  0  0  0  0  0  0  0
    7.7896  -12.5952   18.7997 S   0  0  0  0  0  0  0  0  0  0  0  0
    7.6758  -14.3586   19.1254 C   0  0  0  0  0  0  0  0  0  0  0  0
    7.7617  -14.6076   20.6148 C   0  0  0  0  0  0  0  0  0  0  0  0
    7.6399  -16.0761   20.8617 C   0  0  2  0  0  0  0  0  0  0  0  0
    6.3711  -16.5456   20.4039 N   0  0  0  0  0  0  0  0  0  0  0  0
    7.8019  -16.4208   22.3154 C   0  0  0  0  0  0  0  0  0  0  0  0
    6.9102  -16.0582   23.1387 O   0  0  0  0  0  0  0  0  0  0  0  0
    8.9174  -17.1292   22.7557 N   0  0  0  0  0  0  0  0  0  0  0  0
    9.3876  -17.3515   24.1034 C   0  0  1  0  0  0  0  0  0  0  0  0
   10.3963  -18.4779   24.2332 C   0  0  0  0  0  0  0  0  0  0  0  0
   10.6966  -18.6894   25.6823 C   0  0  0  0  0  0  0  0  0  0  0  0
   11.7600  -19.7370   25.9339 C   0  0  0  0  0  0  0  0  0  0  0  0
   11.8604  -19.9201   27.4350 C   0  0  0  0  0  0  0  0  0  0  0  0
   11.0513  -21.0754   27.8105 N   0  0  0  0  0  0  0  0  0  0  0  0
    9.7066  -16.1416   24.8500 C   0  0  0  0  0  0  0  0  0  0  0  0
   10.5995  -15.3097   24.4440 O   0  0  0  0  0  0  0  0  0  0  0  0
    6.1621  -12.7466   26.3219 C   0  0  0  0  0  0  0  0  0  0  0  0
    7.4415  -13.4678   26.0147 C   0  0  0  0  0  0  0  0  0  0  0  0
    8.2058  -13.8358   27.2745 C   0  0  2  0  0  0  0  0  0  0  0  0
    8.7043  -12.5620   27.9485 C   0  0  0  0  0  0  0  0  0  0  0  0
    9.3901  -14.6640   26.8687 C   0  0  2  0  0  0  0  0  0  0  0  0
    9.0587  -15.7998   26.0665 N   0  0  0  0  0  0  0  0  0  0  0  0
   10.2814  -15.0177   28.0313 C   0  0  0  0  0  0  0  0  0  0  0  0
   10.5093  -16.3245   28.4117 O   0  0  0  0  0  0  0  0  0  0  0  0
   10.8627  -14.1337   28.7097 O   0  0  0  0  0  0  0  0  0  0  0  0
  2  1  1  0
  3  4  1  0
  3  2  1  0
  4  5  1  0
  5  6  1  1
  7  5  1  0
  7  9  1  0
  8  7  2  0
 10  9  1  0
 10 11  1  6
 11 12  1  0
 13 12  1  0
 14 13  1  0
 15 14  1  0
 16 10  1  0
 17 16  2  0
 19 18  1  0
 19 20  1  0
 20 22  1  0
 20 21  1  6
 22 23  1  1
 22 24  1  0
 23 16  1  0
 24 25  1  0
 26 24  2  0
M  END
$$$$
