MKI.pdb
     RDKit          3D

 26 25  0  0  1  0  0  0  0  0999 V2000
    5.1147  -11.6979   25.9285 C   0  0  0  0  0  0  0  0  0  0  0  0
    4.7112  -12.3961   27.5541 S   0  0  0  0  0  0  0  0  0  0  0  0
    4.5932  -14.1826   27.4026 C   0  0  0  0  0  0  0  0  0  0  0  0
    5.8767  -14.7296   26.8182 C   0  0  0  0  0  0  0  0  0  0  0  0
    5.5339  -15.6751   25.7133 C   0  0  2  0  0  0  0  0  0  0  0  0
    5.0740  -16.9141   26.2546 N   0  0  0  0  0  0  0  0  0  0  0  0
    6.7039  -15.9332   24.8062 C   0  0  0  0  0  0  0  0  0  0  0  0
    7.5869  -16.7694   25.1606 O   0  0  0  0  0  0  0  0  0  0  0  0
    6.8197  -15.2628   23.5907 N   0  0  0  0  0  0  0  0  0  0  0  0
    7.9781  -15.0954   22.7441 C   0  0  1  0  0  0  0  0  0  0  0  0
    7.8067  -14.0551   21.6526 C   0  0  0  0  0  0  0  0  0  0  0  0
    8.8362  -14.2938   20.5953 C   0  0  0  0  0  0  0  0  0  0  0  0
    8.6041  -13.4928   19.3320 C   0  0  0  0  0  0  0  0  0  0  0  0
    9.4198  -14.1445   18.2335 C   0  0  0  0  0  0  0  0  0  0  0  0
    9.3211  -13.3151   17.0364 N   0  0  0  0  0  0  0  0  0  0  0  0
    9.2528  -15.0536   23.4486 C   0  0  0  0  0  0  0  0  0  0  0  0
   10.1612  -14.1912   23.1565 O   0  0  0  0  0  0  0  0  0  0  0  0
   10.0862  -13.2468   27.8589 C   0  0  0  0  0  0  0  0  0  0  0  0
   10.3285  -13.8815   26.5210 C   0  0  0  0  0  0  0  0  0  0  0  0
   10.6312  -15.3650   26.6396 C   0  0  2  0  0  0  0  0  0  0  0  0
   11.9424  -15.5501   27.3958 C   0  0  0  0  0  0  0  0  0  0  0  0
   10.7911  -15.9143   25.2518 C   0  0  2  0  0  0  0  0  0  0  0  0
    9.5772  -15.9537   24.4980 N   0  0  0  0  0  0  0  0  0  0  0  0
   11.5312  -17.2269   25.2248 C   0  0  0  0  0  0  0  0  0  0  0  0
   12.9039  -17.2992   25.3459 O   0  0  0  0  0  0  0  0  0  0  0  0
   10.9282  -18.3215   25.0921 O   0  0  0  0  0  0  0  0  0  0  0  0
  2  1  1  0
  3  4  1  0
  3  2  1  0
  4  5  1  0
  5  6  1  1
  7  5  1  0
  7  9  1  0
  8  7  2  0
 10  9  1  0
 10 11  1  1
 11 12  1  0
 13 12  1  0
 14 13  1  0
 15 14  1  0
 16 10  1  0
 17 16  2  0
 19 18  1  0
 19 20  1  0
 20 22  1  0
 20 21  1  1
 22 23  1  1
 22 24  1  0
 23 16  1  0
 24 25  1  0
 26 24  2  0
M  END
$$$$
