MKI.pdb
     RDKit          3D

 26 25  0  0  1  0  0  0  0  0999 V2000
    7.2499  -10.9407   26.2140 C   0  0  0  0  0  0  0  0  0  0  0  0
    5.9181  -11.9149   26.9689 S   0  0  0  0  0  0  0  0  0  0  0  0
    5.5702  -13.3301   25.9179 C   0  0  0  0  0  0  0  0  0  0  0  0
    6.7736  -14.2457   25.8824 C   0  0  0  0  0  0  0  0  0  0  0  0
    6.4910  -15.3702   24.9402 C   0  0  2  0  0  0  0  0  0  0  0  0
    5.3718  -16.1270   25.4031 N   0  0  0  0  0  0  0  0  0  0  0  0
    7.6740  -16.2825   24.7770 C   0  0  0  0  0  0  0  0  0  0  0  0
    7.8284  -17.2439   25.5872 O   0  0  0  0  0  0  0  0  0  0  0  0
    8.5916  -16.0762   23.7495 N   0  0  0  0  0  0  0  0  0  0  0  0
    9.8629  -16.7204   23.5142 C   0  0  1  0  0  0  0  0  0  0  0  0
   10.3768  -16.5838   22.0928 C   0  0  0  0  0  0  0  0  0  0  0  0
   10.3930  -17.9360   21.4556 C   0  0  0  0  0  0  0  0  0  0  0  0
   11.4540  -18.0894   20.3870 C   0  0  0  0  0  0  0  0  0  0  0  0
   11.4088  -19.5291   19.9158 C   0  0  0  0  0  0  0  0  0  0  0  0
   12.4272  -19.7057   18.8850 N   0  0  0  0  0  0  0  0  0  0  0  0
   10.8584  -16.5143   24.5581 C   0  0  0  0  0  0  0  0  0  0  0  0
   12.0030  -15.9835   24.3084 O   0  0  0  0  0  0  0  0  0  0  0  0
    9.7232  -13.9179   29.0213 C   0  0  0  0  0  0  0  0  0  0  0  0
    9.9649  -15.1975   28.2759 C   0  0  0  0  0  0  0  0  0  0  0  0
   11.3134  -15.2050   27.5772 C   0  0  2  0  0  0  0  0  0  0  0  0
   11.2980  -14.1816   26.4468 C   0  0  0  0  0  0  0  0  0  0  0  0
   11.5200  -16.5711   26.9907 C   0  0  2  0  0  0  0  0  0  0  0  0
   10.6353  -16.8812   25.9116 N   0  0  0  0  0  0  0  0  0  0  0  0
   11.5591  -17.6559   28.0362 C   0  0  0  0  0  0  0  0  0  0  0  0
   10.7301  -18.7579   27.9832 O   0  0  0  0  0  0  0  0  0  0  0  0
   12.3542  -17.6069   29.0082 O   0  0  0  0  0  0  0  0  0  0  0  0
  2  1  1  0
  3  4  1  0
  3  2  1  0
  4  5  1  0
  5  6  1  1
  7  5  1  0
  7  9  1  0
  8  7  2  0
 10  9  1  0
 10 11  1  6
 11 12  1  0
 13 12  1  0
 14 13  1  0
 15 14  1  0
 16 10  1  0
 17 16  2  0
 19 18  1  0
 19 20  1  0
 20 22  1  0
 20 21  1  6
 22 23  1  6
 22 24  1  0
 23 16  1  0
 24 25  1  0
 26 24  2  0
M  END
$$$$
