MKI.pdb
     RDKit          3D

 26 25  0  0  1  0  0  0  0  0999 V2000
    8.7596  -12.1960   19.7605 C   0  0  0  0  0  0  0  0  0  0  0  0
    8.2029  -13.0291   18.2475 S   0  0  0  0  0  0  0  0  0  0  0  0
    7.9270  -14.7666   18.6128 C   0  0  0  0  0  0  0  0  0  0  0  0
    7.2467  -14.9023   19.9569 C   0  0  0  0  0  0  0  0  0  0  0  0
    7.0264  -16.3533   20.2367 C   0  0  2  0  0  0  0  0  0  0  0  0
    6.0005  -16.8655   19.3853 N   0  0  0  0  0  0  0  0  0  0  0  0
    6.6520  -16.6025   21.6706 C   0  0  0  0  0  0  0  0  0  0  0  0
    5.5299  -16.1961   22.0951 O   0  0  0  0  0  0  0  0  0  0  0  0
    7.5256  -17.2708   22.5253 N   0  0  0  0  0  0  0  0  0  0  0  0
    7.4611  -17.4292   23.9597 C   0  0  1  0  0  0  0  0  0  0  0  0
    7.6609  -18.8553   24.4384 C   0  0  0  0  0  0  0  0  0  0  0  0
    7.5936  -18.8749   25.9316 C   0  0  0  0  0  0  0  0  0  0  0  0
    7.8323  -20.2443   26.5309 C   0  0  0  0  0  0  0  0  0  0  0  0
    7.7333  -20.0968   28.0360 C   0  0  0  0  0  0  0  0  0  0  0  0
    7.9565  -21.4068   28.6401 N   0  0  0  0  0  0  0  0  0  0  0  0
    8.1722  -16.4116   24.7225 C   0  0  0  0  0  0  0  0  0  0  0  0
    9.3731  -16.0581   24.4271 O   0  0  0  0  0  0  0  0  0  0  0  0
    5.6406  -12.1049   26.7630 C   0  0  0  0  0  0  0  0  0  0  0  0
    6.6901  -13.0301   26.2207 C   0  0  0  0  0  0  0  0  0  0  0  0
    7.3988  -13.7978   27.3230 C   0  0  2  0  0  0  0  0  0  0  0  0
    8.2637  -12.8343   28.1286 C   0  0  0  0  0  0  0  0  0  0  0  0
    8.2871  -14.8192   26.6743 C   0  0  2  0  0  0  0  0  0  0  0  0
    7.5933  -15.7448   25.8346 N   0  0  0  0  0  0  0  0  0  0  0  0
    9.2036  -15.5037   27.6556 C   0  0  0  0  0  0  0  0  0  0  0  0
   10.4568  -15.0111   27.9576 O   0  0  0  0  0  0  0  0  0  0  0  0
    8.8654  -16.5590   28.2484 O   0  0  0  0  0  0  0  0  0  0  0  0
  2  1  1  0
  3  4  1  0
  3  2  1  0
  4  5  1  0
  5  6  1  6
  7  5  1  0
  7  9  1  0
  8  7  2  0
 10  9  1  0
 10 11  1  6
 11 12  1  0
 13 12  1  0
 14 13  1  0
 15 14  1  0
 16 10  1  0
 17 16  2  0
 19 18  1  0
 19 20  1  0
 20 22  1  0
 20 21  1  6
 22 23  1  1
 22 24  1  0
 23 16  1  0
 24 25  1  0
 26 24  2  0
M  END
$$$$
