MKI.pdb
     RDKit          3D

 26 25  0  0  1  0  0  0  0  0999 V2000
    8.3765  -11.4447   18.9481 C   0  0  0  0  0  0  0  0  0  0  0  0
    8.3591  -12.6970   20.2614 S   0  0  0  0  0  0  0  0  0  0  0  0
    6.7611  -13.5186   20.2552 C   0  0  0  0  0  0  0  0  0  0  0  0
    6.6617  -14.4471   21.4451 C   0  0  0  0  0  0  0  0  0  0  0  0
    7.3972  -15.7088   21.1295 C   0  0  2  0  0  0  0  0  0  0  0  0
    6.5759  -16.5694   20.3393 N   0  0  0  0  0  0  0  0  0  0  0  0
    7.8295  -16.4372   22.3708 C   0  0  0  0  0  0  0  0  0  0  0  0
    6.9479  -16.8802   23.1651 O   0  0  0  0  0  0  0  0  0  0  0  0
    9.1817  -16.6240   22.6482 N   0  0  0  0  0  0  0  0  0  0  0  0
    9.8081  -17.1487   23.8394 C   0  0  1  0  0  0  0  0  0  0  0  0
   10.8997  -18.1683   23.5716 C   0  0  0  0  0  0  0  0  0  0  0  0
   11.4053  -18.6859   24.8797 C   0  0  0  0  0  0  0  0  0  0  0  0
   12.5154  -19.7055   24.7395 C   0  0  0  0  0  0  0  0  0  0  0  0
   12.8998  -20.1428   26.1387 C   0  0  0  0  0  0  0  0  0  0  0  0
   14.0578  -21.0260   26.0405 N   0  0  0  0  0  0  0  0  0  0  0  0
   10.1218  -16.1543   24.8572 C   0  0  0  0  0  0  0  0  0  0  0  0
   11.0978  -15.3280   24.7201 O   0  0  0  0  0  0  0  0  0  0  0  0
    7.0600  -12.5278   26.2666 C   0  0  0  0  0  0  0  0  0  0  0  0
    8.2272  -13.4564   26.1031 C   0  0  0  0  0  0  0  0  0  0  0  0
    8.6136  -14.1232   27.4119 C   0  0  2  0  0  0  0  0  0  0  0  0
    9.1633  -13.0699   28.3678 C   0  0  0  0  0  0  0  0  0  0  0  0
    9.6951  -15.1216   27.1177 C   0  0  2  0  0  0  0  0  0  0  0  0
    9.3775  -16.0292   26.0601 N   0  0  0  0  0  0  0  0  0  0  0  0
   10.1919  -15.8258   28.3541 C   0  0  0  0  0  0  0  0  0  0  0  0
   11.1857  -15.2967   29.1520 O   0  0  0  0  0  0  0  0  0  0  0  0
    9.7195  -16.9322   28.7178 O   0  0  0  0  0  0  0  0  0  0  0  0
  2  1  1  0
  3  4  1  0
  3  2  1  0
  4  5  1  0
  5  6  1  1
  7  5  1  0
  7  9  1  0
  8  7  2  0
 10  9  1  0
 10 11  1  6
 11 12  1  0
 13 12  1  0
 14 13  1  0
 15 14  1  0
 16 10  1  0
 17 16  2  0
 19 18  1  0
 19 20  1  0
 20 22  1  0
 20 21  1  1
 22 23  1  6
 22 24  1  0
 23 16  1  0
 24 25  1  0
 26 24  2  0
M  END
$$$$
