MKI.pdb
     RDKit          3D

 26 25  0  0  1  0  0  0  0  0999 V2000
    8.8346  -11.8161   19.8670 C   0  0  0  0  0  0  0  0  0  0  0  0
    8.2874  -12.6801   18.3681 S   0  0  0  0  0  0  0  0  0  0  0  0
    7.6113  -14.2777   18.8363 C   0  0  0  0  0  0  0  0  0  0  0  0
    7.9011  -14.5447   20.2967 C   0  0  0  0  0  0  0  0  0  0  0  0
    7.4878  -15.9441   20.6179 C   0  0  2  0  0  0  0  0  0  0  0  0
    6.1192  -16.1439   20.2623 N   0  0  0  0  0  0  0  0  0  0  0  0
    7.6755  -16.2695   22.0729 C   0  0  0  0  0  0  0  0  0  0  0  0
    6.7525  -15.9860   22.8928 O   0  0  0  0  0  0  0  0  0  0  0  0
    8.8484  -16.8746   22.5183 N   0  0  0  0  0  0  0  0  0  0  0  0
    9.2451  -17.2242   23.8625 C   0  0  1  0  0  0  0  0  0  0  0  0
   10.2125  -18.3907   23.9430 C   0  0  0  0  0  0  0  0  0  0  0  0
    9.5927  -19.5760   23.2755 C   0  0  0  0  0  0  0  0  0  0  0  0
   10.5437  -20.7414   23.1053 C   0  0  0  0  0  0  0  0  0  0  0  0
    9.7624  -21.8639   22.4523 C   0  0  0  0  0  0  0  0  0  0  0  0
   10.6675  -22.9897   22.2421 N   0  0  0  0  0  0  0  0  0  0  0  0
    9.5626  -16.0922   24.7232 C   0  0  0  0  0  0  0  0  0  0  0  0
   10.4197  -15.1974   24.3783 O   0  0  0  0  0  0  0  0  0  0  0  0
    6.4216  -12.5432   26.4741 C   0  0  0  0  0  0  0  0  0  0  0  0
    7.6225  -13.3807   26.1454 C   0  0  0  0  0  0  0  0  0  0  0  0
    8.2401  -14.0042   27.3850 C   0  0  2  0  0  0  0  0  0  0  0  0
    8.8235  -12.9021   28.2627 C   0  0  0  0  0  0  0  0  0  0  0  0
    9.3525  -14.9082   26.9397 C   0  0  2  0  0  0  0  0  0  0  0  0
    8.9523  -15.8997   25.9909 N   0  0  0  0  0  0  0  0  0  0  0  0
   10.1283  -15.4913   28.0927 C   0  0  0  0  0  0  0  0  0  0  0  0
   11.1022  -14.7764   28.7596 O   0  0  0  0  0  0  0  0  0  0  0  0
    9.9209  -16.6610   28.5029 O   0  0  0  0  0  0  0  0  0  0  0  0
  2  1  1  0
  3  4  1  0
  3  2  1  0
  4  5  1  0
  5  6  1  1
  7  5  1  0
  7  9  1  0
  8  7  2  0
 10  9  1  0
 10 11  1  6
 11 12  1  0
 13 12  1  0
 14 13  1  0
 15 14  1  0
 16 10  1  0
 17 16  2  0
 19 18  1  0
 19 20  1  0
 20 22  1  0
 20 21  1  1
 22 23  1  1
 22 24  1  0
 23 16  1  0
 24 25  1  0
 26 24  2  0
M  END
$$$$
