MKI.pdb
     RDKit          3D

 26 25  0  0  1  0  0  0  0  0999 V2000
    8.4751  -11.6427   20.7412 C   0  0  0  0  0  0  0  0  0  0  0  0
    7.6639  -12.5305   19.3823 S   0  0  0  0  0  0  0  0  0  0  0  0
    6.9807  -14.0648   20.0209 C   0  0  0  0  0  0  0  0  0  0  0  0
    8.0447  -15.1398   20.0083 C   0  0  0  0  0  0  0  0  0  0  0  0
    7.4574  -16.3999   20.5556 C   0  0  2  0  0  0  0  0  0  0  0  0
    6.0631  -16.4618   20.2527 N   0  0  0  0  0  0  0  0  0  0  0  0
    7.6483  -16.5141   22.0418 C   0  0  0  0  0  0  0  0  0  0  0  0
    6.8315  -15.9322   22.8155 O   0  0  0  0  0  0  0  0  0  0  0  0
    8.7093  -17.2491   22.5657 N   0  0  0  0  0  0  0  0  0  0  0  0
    9.0914  -17.4504   23.9441 C   0  0  1  0  0  0  0  0  0  0  0  0
   10.0310  -18.6214   24.1653 C   0  0  0  0  0  0  0  0  0  0  0  0
   10.1875  -18.8408   25.6357 C   0  0  0  0  0  0  0  0  0  0  0  0
   11.0878  -20.0075   25.9816 C   0  0  0  0  0  0  0  0  0  0  0  0
   11.1174  -20.1164   27.4929 C   0  0  0  0  0  0  0  0  0  0  0  0
   12.0102  -21.2127   27.8557 N   0  0  0  0  0  0  0  0  0  0  0  0
    9.4312  -16.2342   24.6711 C   0  0  0  0  0  0  0  0  0  0  0  0
   10.2958  -15.3947   24.2218 O   0  0  0  0  0  0  0  0  0  0  0  0
    6.0438  -12.7138   26.2428 C   0  0  0  0  0  0  0  0  0  0  0  0
    7.3073  -13.4497   25.9060 C   0  0  0  0  0  0  0  0  0  0  0  0
    8.0411  -13.9222   27.1489 C   0  0  2  0  0  0  0  0  0  0  0  0
    8.5708  -12.7111   27.9092 C   0  0  0  0  0  0  0  0  0  0  0  0
    9.2037  -14.7618   26.7055 C   0  0  2  0  0  0  0  0  0  0  0  0
    8.8357  -15.8943   25.9147 N   0  0  0  0  0  0  0  0  0  0  0  0
   10.1285  -15.1242   27.8390 C   0  0  0  0  0  0  0  0  0  0  0  0
   10.0688  -16.3482   28.4735 O   0  0  0  0  0  0  0  0  0  0  0  0
   11.0023  -14.3244   28.2588 O   0  0  0  0  0  0  0  0  0  0  0  0
  2  1  1  0
  3  4  1  0
  3  2  1  0
  4  5  1  0
  5  6  1  1
  7  5  1  0
  7  9  1  0
  8  7  2  0
 10  9  1  0
 10 11  1  6
 11 12  1  0
 13 12  1  0
 14 13  1  0
 15 14  1  0
 16 10  1  0
 17 16  2  0
 19 18  1  0
 19 20  1  0
 20 22  1  0
 20 21  1  6
 22 23  1  1
 22 24  1  0
 23 16  1  0
 24 25  1  0
 26 24  2  0
M  END
$$$$
