MKI.pdb
     RDKit          3D

 26 25  0  0  1  0  0  0  0  0999 V2000
    6.6839  -12.1743   27.9266 C   0  0  0  0  0  0  0  0  0  0  0  0
    6.3544  -12.4711   26.1670 S   0  0  0  0  0  0  0  0  0  0  0  0
    6.4514  -14.2373   25.8509 C   0  0  0  0  0  0  0  0  0  0  0  0
    6.1303  -14.5127   24.3986 C   0  0  0  0  0  0  0  0  0  0  0  0
    6.2155  -15.9853   24.1613 C   0  0  2  0  0  0  0  0  0  0  0  0
    5.2688  -16.6690   24.9835 N   0  0  0  0  0  0  0  0  0  0  0  0
    7.5914  -16.5238   24.4352 C   0  0  0  0  0  0  0  0  0  0  0  0
    7.8214  -17.0957   25.5418 O   0  0  0  0  0  0  0  0  0  0  0  0
    8.6039  -16.3970   23.4869 N   0  0  0  0  0  0  0  0  0  0  0  0
    9.9945  -16.7777   23.5756 C   0  0  1  0  0  0  0  0  0  0  0  0
   10.7555  -16.6663   22.2674 C   0  0  0  0  0  0  0  0  0  0  0  0
   12.0745  -17.3532   22.4187 C   0  0  0  0  0  0  0  0  0  0  0  0
   12.9454  -17.2713   21.1832 C   0  0  0  0  0  0  0  0  0  0  0  0
   14.2267  -18.0206   21.4892 C   0  0  0  0  0  0  0  0  0  0  0  0
   15.0629  -18.0052   20.2929 N   0  0  0  0  0  0  0  0  0  0  0  0
   10.6960  -16.2721   24.7484 C   0  0  0  0  0  0  0  0  0  0  0  0
   11.4312  -15.2180   24.6968 O   0  0  0  0  0  0  0  0  0  0  0  0
   10.0561  -12.7534   27.2301 C   0  0  0  0  0  0  0  0  0  0  0  0
   10.7725  -14.0056   26.8175 C   0  0  0  0  0  0  0  0  0  0  0  0
   10.4792  -15.1655   27.7531 C   0  0  2  0  0  0  0  0  0  0  0  0
   11.0305  -14.8442   29.1381 C   0  0  0  0  0  0  0  0  0  0  0  0
   11.1867  -16.3771   27.2196 C   0  0  2  0  0  0  0  0  0  0  0  0
   10.6166  -16.9022   26.0185 N   0  0  0  0  0  0  0  0  0  0  0  0
   11.4017  -17.4373   28.2689 C   0  0  0  0  0  0  0  0  0  0  0  0
   10.8410  -18.6943   28.1695 O   0  0  0  0  0  0  0  0  0  0  0  0
   12.1072  -17.2242   29.2870 O   0  0  0  0  0  0  0  0  0  0  0  0
  2  1  1  0
  3  4  1  0
  3  2  1  0
  4  5  1  0
  5  6  1  1
  7  5  1  0
  7  9  1  0
  8  7  2  0
 10  9  1  0
 10 11  1  6
 11 12  1  0
 13 12  1  0
 14 13  1  0
 15 14  1  0
 16 10  1  0
 17 16  2  0
 19 18  1  0
 19 20  1  0
 20 22  1  0
 20 21  1  1
 22 23  1  6
 22 24  1  0
 23 16  1  0
 24 25  1  0
 26 24  2  0
M  END
$$$$
