MKI.pdb
     RDKit          3D

 26 25  0  0  1  0  0  0  0  0999 V2000
    9.7206  -11.9219   19.2954 C   0  0  0  0  0  0  0  0  0  0  0  0
    7.9588  -12.0563   19.7086 S   0  0  0  0  0  0  0  0  0  0  0  0
    7.6702  -13.6440   20.4990 C   0  0  0  0  0  0  0  0  0  0  0  0
    7.1908  -14.6446   19.4709 C   0  0  0  0  0  0  0  0  0  0  0  0
    7.6801  -16.0015   19.8604 C   0  0  2  0  0  0  0  0  0  0  0  0
    7.1214  -16.9902   18.9944 N   0  0  0  0  0  0  0  0  0  0  0  0
    7.3388  -16.3387   21.2845 C   0  0  0  0  0  0  0  0  0  0  0  0
    6.1379  -16.2323   21.6732 O   0  0  0  0  0  0  0  0  0  0  0  0
    8.3278  -16.7626   22.1690 N   0  0  0  0  0  0  0  0  0  0  0  0
    8.2245  -17.0802   23.5744 C   0  0  1  0  0  0  0  0  0  0  0  0
    8.4884  -18.5377   23.9046 C   0  0  0  0  0  0  0  0  0  0  0  0
    7.4757  -19.3813   23.1993 C   0  0  0  0  0  0  0  0  0  0  0  0
    7.6501  -20.8655   23.4402 C   0  0  0  0  0  0  0  0  0  0  0  0
    6.5420  -21.5737   22.6870 C   0  0  0  0  0  0  0  0  0  0  0  0
    6.7624  -23.0126   22.7943 N   0  0  0  0  0  0  0  0  0  0  0  0
    8.8509  -16.1162   24.4696 C   0  0  0  0  0  0  0  0  0  0  0  0
   10.0557  -15.7045   24.2871 O   0  0  0  0  0  0  0  0  0  0  0  0
    6.4878  -11.7245   25.9472 C   0  0  0  0  0  0  0  0  0  0  0  0
    7.4560  -12.8363   25.6675 C   0  0  0  0  0  0  0  0  0  0  0  0
    7.9138  -13.5279   26.9398 C   0  0  2  0  0  0  0  0  0  0  0  0
    8.7420  -12.5530   27.7700 C   0  0  0  0  0  0  0  0  0  0  0  0
    8.7820  -14.6874   26.5462 C   0  0  2  0  0  0  0  0  0  0  0  0
    8.1802  -15.5686   25.5951 N   0  0  0  0  0  0  0  0  0  0  0  0
    9.3514  -15.4202   27.7337 C   0  0  0  0  0  0  0  0  0  0  0  0
   10.4821  -14.9839   28.3935 O   0  0  0  0  0  0  0  0  0  0  0  0
    8.8181  -16.4668   28.1807 O   0  0  0  0  0  0  0  0  0  0  0  0
  2  1  1  0
  3  4  1  0
  3  2  1  0
  4  5  1  0
  5  6  1  6
  7  5  1  0
  7  9  1  0
  8  7  2  0
 10  9  1  0
 10 11  1  6
 11 12  1  0
 13 12  1  0
 14 13  1  0
 15 14  1  0
 16 10  1  0
 17 16  2  0
 19 18  1  0
 19 20  1  0
 20 22  1  0
 20 21  1  1
 22 23  1  1
 22 24  1  0
 23 16  1  0
 24 25  1  0
 26 24  2  0
M  END
$$$$
