MKI.pdb
     RDKit          3D

 26 25  0  0  1  0  0  0  0  0999 V2000
    5.5927  -21.3930   23.7484 C   0  0  0  0  0  0  0  0  0  0  0  0
    6.9794  -20.9285   24.8227 S   0  0  0  0  0  0  0  0  0  0  0  0
    8.1346  -19.9297   23.8758 C   0  0  0  0  0  0  0  0  0  0  0  0
    7.5179  -19.5637   22.5440 C   0  0  0  0  0  0  0  0  0  0  0  0
    8.4961  -18.7358   21.7759 C   0  0  2  0  0  0  0  0  0  0  0  0
    9.7442  -19.4224   21.6734 N   0  0  0  0  0  0  0  0  0  0  0  0
    8.7195  -17.3913   22.4090 C   0  0  0  0  0  0  0  0  0  0  0  0
    9.6784  -17.2444   23.2235 O   0  0  0  0  0  0  0  0  0  0  0  0
    7.8844  -16.3182   22.1070 N   0  0  0  0  0  0  0  0  0  0  0  0
    7.8667  -14.9862   22.6656 C   0  0  1  0  0  0  0  0  0  0  0  0
    7.2708  -13.9340   21.7487 C   0  0  0  0  0  0  0  0  0  0  0  0
    8.2149  -13.6945   20.6146 C   0  0  0  0  0  0  0  0  0  0  0  0
    7.5243  -13.5078   19.2806 C   0  0  0  0  0  0  0  0  0  0  0  0
    8.6079  -13.4247   18.2243 C   0  0  0  0  0  0  0  0  0  0  0  0
    7.9671  -13.2625   16.9228 N   0  0  0  0  0  0  0  0  0  0  0  0
    7.4437  -14.9097   24.0579 C   0  0  0  0  0  0  0  0  0  0  0  0
    6.4473  -15.5907   24.5023 O   0  0  0  0  0  0  0  0  0  0  0  0
    9.5646  -13.7837   29.7111 C   0  0  0  0  0  0  0  0  0  0  0  0
    8.4267  -13.8410   28.7346 C   0  0  0  0  0  0  0  0  0  0  0  0
    8.8968  -13.6739   27.3001 C   0  0  2  0  0  0  0  0  0  0  0  0
    9.2870  -12.2183   27.0669 C   0  0  0  0  0  0  0  0  0  0  0  0
    7.7484  -14.0179   26.3968 C   0  0  2  0  0  0  0  0  0  0  0  0
    8.0971  -14.0858   25.0122 N   0  0  0  0  0  0  0  0  0  0  0  0
    6.5329  -13.1623   26.6455 C   0  0  0  0  0  0  0  0  0  0  0  0
    5.7133  -13.3503   27.7396 O   0  0  0  0  0  0  0  0  0  0  0  0
    6.2100  -12.2322   25.8644 O   0  0  0  0  0  0  0  0  0  0  0  0
  2  1  1  0
  3  4  1  0
  3  2  1  0
  4  5  1  0
  5  6  1  1
  7  5  1  0
  7  9  1  0
  8  7  2  0
 10  9  1  0
 10 11  1  6
 11 12  1  0
 13 12  1  0
 14 13  1  0
 15 14  1  0
 16 10  1  0
 17 16  2  0
 19 18  1  0
 19 20  1  0
 20 22  1  0
 20 21  1  1
 22 23  1  6
 22 24  1  0
 23 16  1  0
 24 25  1  0
 26 24  2  0
M  END
$$$$
