MNE.pdb
     RDKit          3D

 26 25  0  0  1  0  0  0  0  0999 V2000
   23.9266  -16.4721  -19.3216 C   0  0  0  0  0  0  0  0  0  0  0  0
   25.1258  -15.2960  -20.0155 S   0  0  0  0  0  0  0  0  0  0  0  0
   25.5731  -14.0126  -18.8082 C   0  0  0  0  0  0  0  0  0  0  0  0
   24.4308  -13.0453  -18.5976 C   0  0  0  0  0  0  0  0  0  0  0  0
   24.7744  -11.9890  -17.5730 C   0  0  2  0  0  0  0  0  0  0  0  0
   25.0836  -12.6678  -16.3301 N   0  0  0  0  0  0  0  0  0  0  0  0
   23.5884  -11.1270  -17.3415 C   0  0  0  0  0  0  0  0  0  0  0  0
   23.2157  -10.3381  -18.2688 O   0  0  0  0  0  0  0  0  0  0  0  0
   19.5522   -8.7641  -15.2899 N   0  0  0  0  0  0  0  0  0  0  0  0
   19.5307  -10.1194  -14.8809 C   0  0  0  0  0  0  0  0  0  0  0  0
   18.4850  -10.5715  -14.3211 O   0  0  0  0  0  0  0  0  0  0  0  0
   20.7237  -10.9808  -15.1165 C   0  0  0  0  0  0  0  0  0  0  0  0
   21.7668  -10.2755  -15.9220 C   0  0  2  0  0  0  0  0  0  0  0  0
   22.8770  -11.1763  -16.1103 N   0  0  0  0  0  0  0  0  0  0  0  0
   22.2084   -8.9800  -15.3273 C   0  0  0  0  0  0  0  0  0  0  0  0
   22.9414   -8.9284  -14.3065 O   0  0  0  0  0  0  0  0  0  0  0  0
   21.8166   -7.7355  -15.8919 N   0  0  0  0  0  0  0  0  0  0  0  0
   22.3538   -6.4526  -15.3708 C   0  0  1  0  0  0  0  0  0  0  0  0
   22.3707   -5.4336  -16.4557 C   0  0  0  0  0  0  0  0  0  0  0  0
   22.8711   -4.1100  -15.9407 C   0  0  0  0  0  0  0  0  0  0  0  0
   22.8499   -3.0769  -17.0280 C   0  0  0  0  0  0  0  0  0  0  0  0
   22.6216   -3.4364  -18.1909 O   0  0  0  0  0  0  0  0  0  0  0  0
   21.5522   -6.1126  -14.1944 C   0  0  0  0  0  0  0  0  0  0  0  0
   22.0396   -5.4269  -13.1043 O   0  0  0  0  0  0  0  0  0  0  0  0
   23.0837   -1.7612  -16.7082 O   0  0  0  0  0  0  0  0  0  0  0  0
   20.3228   -6.4471  -14.1168 O   0  0  0  0  0  0  0  0  0  0  0  0
  1  2  1  0
  2  3  1  0
  3  4  1  0
  4  5  1  0
  5  7  1  0
  5  6  1  1
  7 14  1  0
  7  8  2  0
  9 10  1  0
 10 11  2  0
 12 10  1  0
 13 12  1  1
 14 13  1  0
 15 16  2  0
 15 13  1  0
 17 15  1  0
 18 17  1  0
 18 19  1  6
 20 21  1  0
 20 19  1  0
 21 25  1  0
 22 21  2  0
 23 18  1  0
 24 23  1  0
 26 23  2  0
M  END
$$$$
