MNE.pdb
     RDKit          3D

 26 25  0  0  1  0  0  0  0  0999 V2000
   30.9142  -17.2676  -15.9183 C   0  0  0  0  0  0  0  0  0  0  0  0
   29.5980  -18.3507  -15.2878 S   0  0  0  0  0  0  0  0  0  0  0  0
   28.1681  -18.3814  -16.4100 C   0  0  0  0  0  0  0  0  0  0  0  0
   27.0434  -19.2095  -15.8317 C   0  0  0  0  0  0  0  0  0  0  0  0
   27.5636  -20.4219  -15.0949 C   0  0  2  0  0  0  0  0  0  0  0  0
   28.0769  -21.3493  -16.0837 N   0  0  0  0  0  0  0  0  0  0  0  0
   26.4399  -21.0837  -14.3859 C   0  0  0  0  0  0  0  0  0  0  0  0
   25.6539  -21.8327  -15.0510 O   0  0  0  0  0  0  0  0  0  0  0  0
   26.6423  -19.6739  -10.1583 N   0  0  0  0  0  0  0  0  0  0  0  0
   25.4316  -20.4076  -10.1743 C   0  0  0  0  0  0  0  0  0  0  0  0
   24.4320  -19.9499   -9.5397 O   0  0  0  0  0  0  0  0  0  0  0  0
   25.3546  -21.6890  -10.9312 C   0  0  0  0  0  0  0  0  0  0  0  0
   25.0646  -21.4608  -12.3798 C   0  0  2  0  0  0  0  0  0  0  0  0
   26.2394  -20.8898  -12.9907 N   0  0  0  0  0  0  0  0  0  0  0  0
   23.8571  -20.6186  -12.6235 C   0  0  0  0  0  0  0  0  0  0  0  0
   23.8738  -19.3690  -12.4809 O   0  0  0  0  0  0  0  0  0  0  0  0
   22.6230  -21.1953  -13.0305 N   0  0  0  0  0  0  0  0  0  0  0  0
   21.4595  -20.3451  -13.3902 C   0  0  1  0  0  0  0  0  0  0  0  0
   21.1866  -20.4528  -14.8496 C   0  0  0  0  0  0  0  0  0  0  0  0
   19.9919  -19.6209  -15.2347 C   0  0  0  0  0  0  0  0  0  0  0  0
   19.0215  -20.4308  -16.0425 C   0  0  0  0  0  0  0  0  0  0  0  0
   17.9136  -20.6962  -15.5570 O   0  0  0  0  0  0  0  0  0  0  0  0
   20.3621  -20.7465  -12.5089 C   0  0  0  0  0  0  0  0  0  0  0  0
   20.1356  -22.0433  -12.1052 O   0  0  0  0  0  0  0  0  0  0  0  0
   19.3847  -20.8571  -17.2972 O   0  0  0  0  0  0  0  0  0  0  0  0
   19.5327  -19.8875  -12.0579 O   0  0  0  0  0  0  0  0  0  0  0  0
  1  2  1  0
  2  3  1  0
  3  4  1  0
  4  5  1  0
  5  7  1  0
  5  6  1  6
  7 14  1  0
  7  8  2  0
  9 10  1  0
 10 11  2  0
 12 10  1  0
 13 12  1  1
 14 13  1  0
 15 16  2  0
 15 13  1  0
 17 15  1  0
 18 17  1  0
 18 19  1  6
 20 21  1  0
 20 19  1  0
 21 25  1  0
 22 21  2  0
 23 18  1  0
 24 23  1  0
 26 23  2  0
M  END
$$$$
