MNE.pdb
     RDKit          3D

 26 25  0  0  1  0  0  0  0  0999 V2000
   26.8732  -15.7777  -14.3539 C   0  0  0  0  0  0  0  0  0  0  0  0
   25.6858  -14.4928  -14.8459 S   0  0  0  0  0  0  0  0  0  0  0  0
   26.4421  -13.2866  -15.9764 C   0  0  0  0  0  0  0  0  0  0  0  0
   25.4684  -12.1831  -16.3215 C   0  0  0  0  0  0  0  0  0  0  0  0
   24.0807  -12.7226  -16.5798 C   0  0  2  0  0  0  0  0  0  0  0  0
   24.1129  -13.4276  -17.8459 N   0  0  0  0  0  0  0  0  0  0  0  0
   23.1310  -11.5893  -16.7104 C   0  0  0  0  0  0  0  0  0  0  0  0
   23.1079  -10.9339  -17.8018 O   0  0  0  0  0  0  0  0  0  0  0  0
   18.8132  -12.6629  -15.7643 N   0  0  0  0  0  0  0  0  0  0  0  0
   19.3803  -11.4727  -16.2803 C   0  0  0  0  0  0  0  0  0  0  0  0
   19.3286  -11.2644  -17.5315 O   0  0  0  0  0  0  0  0  0  0  0  0
   20.0178  -10.4959  -15.3529 C   0  0  0  0  0  0  0  0  0  0  0  0
   21.3848  -10.1044  -15.8137 C   0  0  2  0  0  0  0  0  0  0  0  0
   22.2606  -11.2370  -15.6415 N   0  0  0  0  0  0  0  0  0  0  0  0
   21.9214   -8.8896  -15.1330 C   0  0  0  0  0  0  0  0  0  0  0  0
   22.5264   -8.9525  -14.0321 O   0  0  0  0  0  0  0  0  0  0  0  0
   21.7710   -7.5957  -15.7024 N   0  0  0  0  0  0  0  0  0  0  0  0
   22.4101   -6.4058  -15.0847 C   0  0  1  0  0  0  0  0  0  0  0  0
   22.3776   -5.2626  -16.0376 C   0  0  0  0  0  0  0  0  0  0  0  0
   22.9458   -4.0201  -15.4043 C   0  0  0  0  0  0  0  0  0  0  0  0
   22.8136   -2.8468  -16.3295 C   0  0  0  0  0  0  0  0  0  0  0  0
   22.1401   -1.8724  -15.9680 O   0  0  0  0  0  0  0  0  0  0  0  0
   21.7318   -6.1850  -13.8067 C   0  0  0  0  0  0  0  0  0  0  0  0
   22.3635   -5.7348  -12.6691 O   0  0  0  0  0  0  0  0  0  0  0  0
   23.4407   -2.8820  -17.5516 O   0  0  0  0  0  0  0  0  0  0  0  0
   20.4815   -6.4077  -13.6783 O   0  0  0  0  0  0  0  0  0  0  0  0
  1  2  1  0
  2  3  1  0
  3  4  1  0
  4  5  1  0
  5  7  1  0
  5  6  1  6
  7 14  1  0
  7  8  2  0
  9 10  1  0
 10 11  2  0
 12 10  1  0
 13 12  1  1
 14 13  1  0
 15 16  2  0
 15 13  1  0
 17 15  1  0
 18 17  1  0
 18 19  1  6
 20 21  1  0
 20 19  1  0
 21 25  1  0
 22 21  2  0
 23 18  1  0
 24 23  1  0
 26 23  2  0
M  END
$$$$
