MNE.pdb
     RDKit          3D

 26 25  0  0  1  0  0  0  0  0999 V2000
   17.2791   -7.1697  -22.1636 C   0  0  0  0  0  0  0  0  0  0  0  0
   17.0364   -8.9614  -22.3479 S   0  0  0  0  0  0  0  0  0  0  0  0
   18.1575   -9.8987  -21.2665 C   0  0  0  0  0  0  0  0  0  0  0  0
   18.2629   -9.2519  -19.9044 C   0  0  0  0  0  0  0  0  0  0  0  0
   18.6144  -10.2582  -18.8333 C   0  0  2  0  0  0  0  0  0  0  0  0
   17.4469  -11.0882  -18.6112 N   0  0  0  0  0  0  0  0  0  0  0  0
   18.9150   -9.5423  -17.5682 C   0  0  0  0  0  0  0  0  0  0  0  0
   18.0099   -9.4726  -16.6754 O   0  0  0  0  0  0  0  0  0  0  0  0
   21.1036   -7.4300  -13.5566 N   0  0  0  0  0  0  0  0  0  0  0  0
   21.5029   -8.7497  -13.8782 C   0  0  0  0  0  0  0  0  0  0  0  0
   22.1315   -9.4265  -13.0074 O   0  0  0  0  0  0  0  0  0  0  0  0
   21.1776   -9.3137  -15.2186 C   0  0  0  0  0  0  0  0  0  0  0  0
   20.4471   -8.3281  -16.0726 C   0  0  2  0  0  0  0  0  0  0  0  0
   20.1873   -8.9437  -17.3505 N   0  0  0  0  0  0  0  0  0  0  0  0
   21.1594   -7.0260  -16.2276 C   0  0  0  0  0  0  0  0  0  0  0  0
   22.2300   -6.9231  -16.8797 O   0  0  0  0  0  0  0  0  0  0  0  0
   20.6564   -5.8333  -15.6396 N   0  0  0  0  0  0  0  0  0  0  0  0
   21.2997   -4.5197  -15.8968 C   0  0  1  0  0  0  0  0  0  0  0  0
   20.2699   -3.4448  -15.9026 C   0  0  0  0  0  0  0  0  0  0  0  0
   19.3954   -3.5464  -17.1243 C   0  0  0  0  0  0  0  0  0  0  0  0
   18.3873   -2.4360  -17.1472 C   0  0  0  0  0  0  0  0  0  0  0  0
   18.3447   -1.6465  -16.1940 O   0  0  0  0  0  0  0  0  0  0  0  0
   22.3621   -4.3741  -14.9006 C   0  0  0  0  0  0  0  0  0  0  0  0
   23.3631   -3.4317  -14.9766 O   0  0  0  0  0  0  0  0  0  0  0  0
   17.5383   -2.3226  -18.2216 O   0  0  0  0  0  0  0  0  0  0  0  0
   22.4165   -5.1390  -13.8801 O   0  0  0  0  0  0  0  0  0  0  0  0
  1  2  1  0
  2  3  1  0
  3  4  1  0
  4  5  1  0
  5  7  1  0
  5  6  1  1
  7 14  1  0
  7  8  2  0
  9 10  1  0
 10 11  2  0
 12 10  1  0
 13 12  1  1
 14 13  1  0
 15 16  2  0
 15 13  1  0
 17 15  1  0
 18 17  1  0
 18 19  1  1
 20 21  1  0
 20 19  1  0
 21 25  1  0
 22 21  2  0
 23 18  1  0
 24 23  1  0
 26 23  2  0
M  END
$$$$
