MNE.pdb
     RDKit          3D

 26 25  0  0  1  0  0  0  0  0999 V2000
   28.0745  -19.1630  -11.3239 C   0  0  0  0  0  0  0  0  0  0  0  0
   28.5091  -19.3501  -13.0786 S   0  0  0  0  0  0  0  0  0  0  0  0
   27.6628  -20.7756  -13.8246 C   0  0  0  0  0  0  0  0  0  0  0  0
   26.2376  -20.4291  -14.1901 C   0  0  0  0  0  0  0  0  0  0  0  0
   25.4965  -21.6236  -14.7446 C   0  0  2  0  0  0  0  0  0  0  0  0
   26.1290  -21.9897  -15.9966 N   0  0  0  0  0  0  0  0  0  0  0  0
   24.0932  -21.2374  -15.0361 C   0  0  0  0  0  0  0  0  0  0  0  0
   23.7661  -20.9854  -16.2405 O   0  0  0  0  0  0  0  0  0  0  0  0
   21.2373  -23.2548  -14.5116 N   0  0  0  0  0  0  0  0  0  0  0  0
   20.6093  -22.5489  -13.4572 C   0  0  0  0  0  0  0  0  0  0  0  0
   19.8500  -23.1854  -12.6636 O   0  0  0  0  0  0  0  0  0  0  0  0
   20.8524  -21.0871  -13.2994 C   0  0  0  0  0  0  0  0  0  0  0  0
   21.8389  -20.5777  -14.3004 C   0  0  2  0  0  0  0  0  0  0  0  0
   23.1273  -21.1489  -13.9951 N   0  0  0  0  0  0  0  0  0  0  0  0
   21.9040  -19.0886  -14.3729 C   0  0  0  0  0  0  0  0  0  0  0  0
   22.4147  -18.3964  -13.4553 O   0  0  0  0  0  0  0  0  0  0  0  0
   21.3869  -18.3794  -15.4912 N   0  0  0  0  0  0  0  0  0  0  0  0
   21.5336  -16.9055  -15.6006 C   0  0  1  0  0  0  0  0  0  0  0  0
   22.6699  -16.5760  -16.5041 C   0  0  0  0  0  0  0  0  0  0  0  0
   22.7645  -15.0898  -16.7270 C   0  0  0  0  0  0  0  0  0  0  0  0
   23.8458  -14.7709  -17.7164 C   0  0  0  0  0  0  0  0  0  0  0  0
   24.5616  -13.7792  -17.5220 O   0  0  0  0  0  0  0  0  0  0  0  0
   20.2277  -16.3862  -16.0095 C   0  0  0  0  0  0  0  0  0  0  0  0
   19.2950  -17.1174  -16.7104 O   0  0  0  0  0  0  0  0  0  0  0  0
   24.0150  -15.5843  -18.8109 O   0  0  0  0  0  0  0  0  0  0  0  0
   19.8780  -15.1909  -15.7296 O   0  0  0  0  0  0  0  0  0  0  0  0
  1  2  1  0
  2  3  1  0
  3  4  1  0
  4  5  1  0
  5  7  1  0
  5  6  1  6
  7 14  1  0
  7  8  2  0
  9 10  1  0
 10 11  2  0
 12 10  1  0
 13 12  1  1
 14 13  1  0
 15 16  2  0
 15 13  1  0
 17 15  1  0
 18 17  1  0
 18 19  1  6
 20 21  1  0
 20 19  1  0
 21 25  1  0
 22 21  2  0
 23 18  1  0
 24 23  1  0
 26 23  2  0
M  END
$$$$
