MNE.pdb
     RDKit          3D

 26 25  0  0  1  0  0  0  0  0999 V2000
   28.1677  -18.4485   -4.7171 C   0  0  0  0  0  0  0  0  0  0  0  0
   29.0917  -19.9857   -5.0103 S   0  0  0  0  0  0  0  0  0  0  0  0
   28.3432  -20.9667   -6.3454 C   0  0  0  0  0  0  0  0  0  0  0  0
   27.5522  -20.0868   -7.2861 C   0  0  0  0  0  0  0  0  0  0  0  0
   26.9475  -20.8821   -8.4198 C   0  0  2  0  0  0  0  0  0  0  0  0
   28.0354  -21.5040   -9.1485 N   0  0  0  0  0  0  0  0  0  0  0  0
   26.2447  -19.9589   -9.3456 C   0  0  0  0  0  0  0  0  0  0  0  0
   26.8074  -18.8601   -9.6571 O   0  0  0  0  0  0  0  0  0  0  0  0
   24.8155  -20.2082  -14.0595 N   0  0  0  0  0  0  0  0  0  0  0  0
   25.8544  -20.9356  -13.4302 C   0  0  0  0  0  0  0  0  0  0  0  0
   26.7159  -21.5211  -14.1559 O   0  0  0  0  0  0  0  0  0  0  0  0
   25.9173  -20.9962  -11.9426 C   0  0  0  0  0  0  0  0  0  0  0  0
   24.7887  -20.2485  -11.3088 C   0  0  2  0  0  0  0  0  0  0  0  0
   24.9674  -20.2890   -9.8785 N   0  0  0  0  0  0  0  0  0  0  0  0
   23.4403  -20.7496  -11.7060 C   0  0  0  0  0  0  0  0  0  0  0  0
   23.2878  -21.8178  -12.3524 O   0  0  0  0  0  0  0  0  0  0  0  0
   22.2576  -20.0361  -11.3696 N   0  0  0  0  0  0  0  0  0  0  0  0
   21.0042  -20.2178  -12.1454 C   0  0  1  0  0  0  0  0  0  0  0  0
   21.2983  -20.1553  -13.6033 C   0  0  0  0  0  0  0  0  0  0  0  0
   20.6764  -18.9324  -14.2240 C   0  0  0  0  0  0  0  0  0  0  0  0
   20.9068  -18.9160  -15.7061 C   0  0  0  0  0  0  0  0  0  0  0  0
   19.9363  -19.0468  -16.4642 O   0  0  0  0  0  0  0  0  0  0  0  0
   20.3994  -21.4644  -11.6738 C   0  0  0  0  0  0  0  0  0  0  0  0
   20.9960  -22.7000  -11.7896 O   0  0  0  0  0  0  0  0  0  0  0  0
   22.1849  -18.7570  -16.1847 O   0  0  0  0  0  0  0  0  0  0  0  0
   19.2515  -21.4689  -11.1156 O   0  0  0  0  0  0  0  0  0  0  0  0
  1  2  1  0
  2  3  1  0
  3  4  1  0
  4  5  1  0
  5  7  1  0
  5  6  1  6
  7 14  1  0
  7  8  2  0
  9 10  1  0
 10 11  2  0
 12 10  1  0
 13 12  1  6
 14 13  1  0
 15 16  2  0
 15 13  1  0
 17 15  1  0
 18 17  1  0
 18 19  1  6
 20 21  1  0
 20 19  1  0
 21 25  1  0
 22 21  2  0
 23 18  1  0
 24 23  1  0
 26 23  2  0
M  END
$$$$
