MNE.pdb
     RDKit          3D

 26 25  0  0  1  0  0  0  0  0999 V2000
   28.7629  -19.5715   -6.9346 C   0  0  0  0  0  0  0  0  0  0  0  0
   30.0912  -20.7166   -7.4114 S   0  0  0  0  0  0  0  0  0  0  0  0
   30.7214  -20.3474   -9.0762 C   0  0  0  0  0  0  0  0  0  0  0  0
   29.6021  -20.3502  -10.0921 C   0  0  0  0  0  0  0  0  0  0  0  0
   28.8755  -21.6749  -10.1196 C   0  0  2  0  0  0  0  0  0  0  0  0
   29.7695  -22.6534  -10.7067 N   0  0  0  0  0  0  0  0  0  0  0  0
   27.6822  -21.5610  -10.9951 C   0  0  0  0  0  0  0  0  0  0  0  0
   27.7733  -21.9452  -12.2056 O   0  0  0  0  0  0  0  0  0  0  0  0
   22.8818  -21.3400  -12.6483 N   0  0  0  0  0  0  0  0  0  0  0  0
   22.8226  -21.0218  -11.2700 C   0  0  0  0  0  0  0  0  0  0  0  0
   21.6850  -20.8924  -10.7218 O   0  0  0  0  0  0  0  0  0  0  0  0
   24.0850  -20.8501  -10.4969 C   0  0  0  0  0  0  0  0  0  0  0  0
   25.2920  -21.0893  -11.3456 C   0  0  2  0  0  0  0  0  0  0  0  0
   26.4575  -21.0343  -10.4981 N   0  0  0  0  0  0  0  0  0  0  0  0
   25.4094  -20.1493  -12.4987 C   0  0  0  0  0  0  0  0  0  0  0  0
   25.6345  -18.9220  -12.3404 O   0  0  0  0  0  0  0  0  0  0  0  0
   25.2701  -20.6021  -13.8391 N   0  0  0  0  0  0  0  0  0  0  0  0
   25.4951  -19.6863  -14.9864 C   0  0  1  0  0  0  0  0  0  0  0  0
   26.7342  -20.0793  -15.7117 C   0  0  0  0  0  0  0  0  0  0  0  0
   26.9610  -19.1912  -16.9065 C   0  0  0  0  0  0  0  0  0  0  0  0
   28.1669  -19.6396  -17.6777 C   0  0  0  0  0  0  0  0  0  0  0  0
   28.2855  -19.2897  -18.8597 O   0  0  0  0  0  0  0  0  0  0  0  0
   24.2649  -19.7018  -15.7792 C   0  0  0  0  0  0  0  0  0  0  0  0
   23.7899  -18.6175  -16.4823 O   0  0  0  0  0  0  0  0  0  0  0  0
   29.1071  -20.4252  -17.0558 O   0  0  0  0  0  0  0  0  0  0  0  0
   23.5470  -20.7542  -15.8592 O   0  0  0  0  0  0  0  0  0  0  0  0
  1  2  1  0
  2  3  1  0
  3  4  1  0
  4  5  1  0
  5  7  1  0
  5  6  1  6
  7 14  1  0
  7  8  2  0
  9 10  1  0
 10 11  2  0
 12 10  1  0
 13 12  1  1
 14 13  1  0
 15 16  2  0
 15 13  1  0
 17 15  1  0
 18 17  1  0
 18 19  1  6
 20 21  1  0
 20 19  1  0
 21 25  1  0
 22 21  2  0
 23 18  1  0
 24 23  1  0
 26 23  2  0
M  END
$$$$
