MNE.pdb
     RDKit          3D

 26 25  0  0  1  0  0  0  0  0999 V2000
   29.5856  -20.0520   -7.2166 C   0  0  0  0  0  0  0  0  0  0  0  0
   27.9497  -19.3298   -6.8925 S   0  0  0  0  0  0  0  0  0  0  0  0
   26.6450  -20.2001   -7.8119 C   0  0  0  0  0  0  0  0  0  0  0  0
   26.7431  -19.9142   -9.2930 C   0  0  0  0  0  0  0  0  0  0  0  0
   25.6618  -20.6258  -10.0726 C   0  0  2  0  0  0  0  0  0  0  0  0
   25.9506  -22.0456  -10.0273 N   0  0  0  0  0  0  0  0  0  0  0  0
   25.7148  -20.1925  -11.4913 C   0  0  0  0  0  0  0  0  0  0  0  0
   25.5408  -18.9604  -11.7610 O   0  0  0  0  0  0  0  0  0  0  0  0
   28.0604  -20.8813  -16.6525 N   0  0  0  0  0  0  0  0  0  0  0  0
   26.7861  -21.2473  -16.1560 C   0  0  0  0  0  0  0  0  0  0  0  0
   25.7868  -21.1887  -16.9367 O   0  0  0  0  0  0  0  0  0  0  0  0
   26.6451  -21.6931  -14.7410 C   0  0  0  0  0  0  0  0  0  0  0  0
   25.9887  -20.6509  -13.8940 C   0  0  2  0  0  0  0  0  0  0  0  0
   25.9553  -21.1299  -12.5343 N   0  0  0  0  0  0  0  0  0  0  0  0
   24.6292  -20.2611  -14.3701 C   0  0  0  0  0  0  0  0  0  0  0  0
   24.3828  -19.1134  -14.8221 O   0  0  0  0  0  0  0  0  0  0  0  0
   23.5420  -21.1764  -14.3333 N   0  0  0  0  0  0  0  0  0  0  0  0
   22.1631  -20.7454  -14.6780 C   0  0  1  0  0  0  0  0  0  0  0  0
   22.0747  -20.4507  -16.1344 C   0  0  0  0  0  0  0  0  0  0  0  0
   20.6432  -20.2450  -16.5541 C   0  0  0  0  0  0  0  0  0  0  0  0
   20.3803  -18.7974  -16.8463 C   0  0  0  0  0  0  0  0  0  0  0  0
   21.3289  -18.0704  -17.1708 O   0  0  0  0  0  0  0  0  0  0  0  0
   21.2649  -21.7917  -14.1874 C   0  0  0  0  0  0  0  0  0  0  0  0
   19.9174  -21.6087  -13.9716 O   0  0  0  0  0  0  0  0  0  0  0  0
   19.0976  -18.3150  -16.7467 O   0  0  0  0  0  0  0  0  0  0  0  0
   21.7001  -22.9626  -13.9251 O   0  0  0  0  0  0  0  0  0  0  0  0
  1  2  1  0
  2  3  1  0
  3  4  1  0
  4  5  1  0
  5  7  1  0
  5  6  1  6
  7 14  1  0
  7  8  2  0
  9 10  1  0
 10 11  2  0
 12 10  1  0
 13 12  1  6
 14 13  1  0
 15 16  2  0
 15 13  1  0
 17 15  1  0
 18 17  1  0
 18 19  1  6
 20 21  1  0
 20 19  1  0
 21 25  1  0
 22 21  2  0
 23 18  1  0
 24 23  1  0
 26 23  2  0
M  END
$$$$
