MNE.pdb
     RDKit          3D

 26 25  0  0  1  0  0  0  0  0999 V2000
   46.8964  -12.7967   -4.8662 C   0  0  0  0  0  0  0  0  0  0  0  0
   45.5221  -11.6889   -5.2983 S   0  0  0  0  0  0  0  0  0  0  0  0
   45.5546  -11.2458   -7.0612 C   0  0  0  0  0  0  0  0  0  0  0  0
   44.4471  -10.2729   -7.3957 C   0  0  0  0  0  0  0  0  0  0  0  0
   43.3516  -10.9292   -8.2035 C   0  0  2  0  0  0  0  0  0  0  0  0
   43.9294  -11.3522   -9.4639 N   0  0  0  0  0  0  0  0  0  0  0  0
   42.2936   -9.9302   -8.4968 C   0  0  0  0  0  0  0  0  0  0  0  0
   42.4294   -9.1769   -9.5143 O   0  0  0  0  0  0  0  0  0  0  0  0
   38.1744   -6.9438   -8.3531 N   0  0  0  0  0  0  0  0  0  0  0  0
   37.8497   -8.1006   -7.6042 C   0  0  0  0  0  0  0  0  0  0  0  0
   36.6466   -8.2725   -7.2374 O   0  0  0  0  0  0  0  0  0  0  0  0
   38.9159   -9.0857   -7.2676 C   0  0  0  0  0  0  0  0  0  0  0  0
   40.2144   -8.7439   -7.9245 C   0  0  2  0  0  0  0  0  0  0  0  0
   41.1476   -9.8113   -7.6620 N   0  0  0  0  0  0  0  0  0  0  0  0
   40.7657   -7.4208   -7.5094 C   0  0  0  0  0  0  0  0  0  0  0  0
   41.2779   -7.2361   -6.3755 O   0  0  0  0  0  0  0  0  0  0  0  0
   40.7360   -6.3000   -8.3834 N   0  0  0  0  0  0  0  0  0  0  0  0
   41.3706   -5.0122   -8.0029 C   0  0  1  0  0  0  0  0  0  0  0  0
   42.5764   -4.7751   -8.8429 C   0  0  0  0  0  0  0  0  0  0  0  0
   43.8291   -4.8221   -8.0085 C   0  0  0  0  0  0  0  0  0  0  0  0
   45.0341   -4.5083   -8.8449 C   0  0  0  0  0  0  0  0  0  0  0  0
   45.5839   -3.4065   -8.7128 O   0  0  0  0  0  0  0  0  0  0  0  0
   40.3259   -3.9910   -8.0912 C   0  0  0  0  0  0  0  0  0  0  0  0
   40.2160   -2.9269   -7.2243 O   0  0  0  0  0  0  0  0  0  0  0  0
   45.4966   -5.4479   -9.7343 O   0  0  0  0  0  0  0  0  0  0  0  0
   39.4350   -4.0383   -9.0042 O   0  0  0  0  0  0  0  0  0  0  0  0
  1  2  1  0
  2  3  1  0
  3  4  1  0
  4  5  1  0
  5  7  1  0
  5  6  1  6
  7 14  1  0
  7  8  2  0
  9 10  1  0
 10 11  2  0
 12 10  1  0
 13 12  1  1
 14 13  1  0
 15 16  2  0
 15 13  1  0
 17 15  1  0
 18 17  1  0
 18 19  1  6
 20 21  1  0
 20 19  1  0
 21 25  1  0
 22 21  2  0
 23 18  1  0
 24 23  1  0
 26 23  2  0
M  END
$$$$
