MNE.pdb
     RDKit          3D

 26 25  0  0  1  0  0  0  0  0999 V2000
   29.8541  -10.5872  -16.6465 C   0  0  0  0  0  0  0  0  0  0  0  0
   29.5022  -12.3653  -16.7779 S   0  0  0  0  0  0  0  0  0  0  0  0
   28.1307  -12.8537  -15.6892 C   0  0  0  0  0  0  0  0  0  0  0  0
   26.9170  -11.9836  -15.9233 C   0  0  0  0  0  0  0  0  0  0  0  0
   25.8058  -12.7463  -16.6067 C   0  0  2  0  0  0  0  0  0  0  0  0
   26.2788  -13.1241  -17.9239 N   0  0  0  0  0  0  0  0  0  0  0  0
   24.6329  -11.8531  -16.7798 C   0  0  0  0  0  0  0  0  0  0  0  0
   24.5935  -11.0859  -17.7952 O   0  0  0  0  0  0  0  0  0  0  0  0
   20.0220   -9.8452  -16.7863 N   0  0  0  0  0  0  0  0  0  0  0  0
   19.9518  -11.2034  -16.3929 C   0  0  0  0  0  0  0  0  0  0  0  0
   18.8156  -11.7678  -16.3475 O   0  0  0  0  0  0  0  0  0  0  0  0
   21.2015  -11.9374  -16.0463 C   0  0  0  0  0  0  0  0  0  0  0  0
   22.4029  -11.0507  -16.1156 C   0  0  2  0  0  0  0  0  0  0  0  0
   23.5700  -11.8494  -15.8340 N   0  0  0  0  0  0  0  0  0  0  0  0
   22.3232   -9.8625  -15.2162 C   0  0  0  0  0  0  0  0  0  0  0  0
   22.4892   -9.9531  -13.9727 O   0  0  0  0  0  0  0  0  0  0  0  0
   22.0529   -8.5642  -15.7283 N   0  0  0  0  0  0  0  0  0  0  0  0
   22.1020   -7.3669  -14.8509 C   0  0  1  0  0  0  0  0  0  0  0  0
   22.2053   -6.1356  -15.6809 C   0  0  0  0  0  0  0  0  0  0  0  0
   22.2759   -4.9075  -14.8124 C   0  0  0  0  0  0  0  0  0  0  0  0
   22.3721   -3.6693  -15.6536 C   0  0  0  0  0  0  0  0  0  0  0  0
   22.3985   -3.7837  -16.8864 O   0  0  0  0  0  0  0  0  0  0  0  0
   20.9321   -7.4443  -13.9748 C   0  0  0  0  0  0  0  0  0  0  0  0
   20.9705   -7.2086  -12.6187 O   0  0  0  0  0  0  0  0  0  0  0  0
   22.4287   -2.4424  -15.0375 O   0  0  0  0  0  0  0  0  0  0  0  0
   19.7817   -7.7457  -14.4385 O   0  0  0  0  0  0  0  0  0  0  0  0
  1  2  1  0
  2  3  1  0
  3  4  1  0
  4  5  1  0
  5  7  1  0
  5  6  1  6
  7 14  1  0
  7  8  2  0
  9 10  1  0
 10 11  2  0
 12 10  1  0
 13 12  1  1
 14 13  1  0
 15 16  2  0
 15 13  1  0
 17 15  1  0
 18 17  1  0
 18 19  1  6
 20 21  1  0
 20 19  1  0
 21 25  1  0
 22 21  2  0
 23 18  1  0
 24 23  1  0
 26 23  2  0
M  END
$$$$
