MNE.pdb
     RDKit          3D

 26 25  0  0  1  0  0  0  0  0999 V2000
   22.7498  -18.9571  -19.0768 C   0  0  0  0  0  0  0  0  0  0  0  0
   23.0403  -17.5214  -18.0010 S   0  0  0  0  0  0  0  0  0  0  0  0
   21.5038  -16.5997  -17.6934 C   0  0  0  0  0  0  0  0  0  0  0  0
   21.7796  -15.3286  -16.9233 C   0  0  0  0  0  0  0  0  0  0  0  0
   23.0819  -15.4082  -16.1609 C   0  0  2  0  0  0  0  0  0  0  0  0
   22.8628  -16.2568  -15.0062 N   0  0  0  0  0  0  0  0  0  0  0  0
   23.4471  -14.0550  -15.6723 C   0  0  0  0  0  0  0  0  0  0  0  0
   22.7618  -13.5393  -14.7313 O   0  0  0  0  0  0  0  0  0  0  0  0
   27.9090   -9.8928  -15.8391 N   0  0  0  0  0  0  0  0  0  0  0  0
   26.7500  -10.5033  -15.3020 C   0  0  0  0  0  0  0  0  0  0  0  0
   26.0824   -9.8773  -14.4222 O   0  0  0  0  0  0  0  0  0  0  0  0
   26.3389  -11.8542  -15.7781 C   0  0  0  0  0  0  0  0  0  0  0  0
   24.8567  -12.0377  -15.7135 C   0  0  2  0  0  0  0  0  0  0  0  0
   24.5404  -13.3426  -16.2394 N   0  0  0  0  0  0  0  0  0  0  0  0
   24.0894  -10.9655  -16.4124 C   0  0  0  0  0  0  0  0  0  0  0  0
   24.1126  -10.8338  -17.6631 O   0  0  0  0  0  0  0  0  0  0  0  0
   23.2916  -10.0364  -15.6903 N   0  0  0  0  0  0  0  0  0  0  0  0
   22.5252   -8.9747  -16.3911 C   0  0  1  0  0  0  0  0  0  0  0  0
   21.0920   -9.3651  -16.4868 C   0  0  0  0  0  0  0  0  0  0  0  0
   20.4723   -9.4712  -15.1185 C   0  0  0  0  0  0  0  0  0  0  0  0
   19.0048   -9.7636  -15.2234 C   0  0  0  0  0  0  0  0  0  0  0  0
   18.6058  -10.9135  -14.9946 O   0  0  0  0  0  0  0  0  0  0  0  0
   22.7955   -7.7258  -15.6772 C   0  0  0  0  0  0  0  0  0  0  0  0
   22.2756   -6.5041  -16.0419 O   0  0  0  0  0  0  0  0  0  0  0  0
   18.1422   -8.7519  -15.5700 O   0  0  0  0  0  0  0  0  0  0  0  0
   23.5523   -7.7060  -14.6495 O   0  0  0  0  0  0  0  0  0  0  0  0
  1  2  1  0
  2  3  1  0
  3  4  1  0
  4  5  1  0
  5  7  1  0
  5  6  1  1
  7 14  1  0
  7  8  2  0
  9 10  1  0
 10 11  2  0
 12 10  1  0
 13 12  1  6
 14 13  1  0
 15 16  2  0
 15 13  1  0
 17 15  1  0
 18 17  1  0
 18 19  1  1
 20 21  1  0
 20 19  1  0
 21 25  1  0
 22 21  2  0
 23 18  1  0
 24 23  1  0
 26 23  2  0
M  END
$$$$
