MNE.pdb
     RDKit          3D

 26 25  0  0  1  0  0  0  0  0999 V2000
   18.9216  -15.5801  -21.3081 C   0  0  0  0  0  0  0  0  0  0  0  0
   19.6700  -14.8386  -19.8272 S   0  0  0  0  0  0  0  0  0  0  0  0
   20.4570  -13.2445  -20.2074 C   0  0  0  0  0  0  0  0  0  0  0  0
   21.0379  -12.6163  -18.9614 C   0  0  0  0  0  0  0  0  0  0  0  0
   22.5483  -12.5899  -19.0007 C   0  0  2  0  0  0  0  0  0  0  0  0
   23.0132  -13.9605  -18.9179 N   0  0  0  0  0  0  0  0  0  0  0  0
   23.0566  -11.8611  -17.8116 C   0  0  0  0  0  0  0  0  0  0  0  0
   23.6756  -12.5157  -16.9119 O   0  0  0  0  0  0  0  0  0  0  0  0
   26.2789   -9.9980  -14.5330 N   0  0  0  0  0  0  0  0  0  0  0  0
   25.7856   -9.3286  -15.6788 C   0  0  0  0  0  0  0  0  0  0  0  0
   26.0338   -8.0914  -15.8171 O   0  0  0  0  0  0  0  0  0  0  0  0
   24.9950  -10.0833  -16.6918 C   0  0  0  0  0  0  0  0  0  0  0  0
   23.5357   -9.7728  -16.6001 C   0  0  2  0  0  0  0  0  0  0  0  0
   22.8601  -10.4587  -17.6737 N   0  0  0  0  0  0  0  0  0  0  0  0
   23.2324   -8.3117  -16.6080 C   0  0  0  0  0  0  0  0  0  0  0  0
   23.5086   -7.5770  -17.5908 O   0  0  0  0  0  0  0  0  0  0  0  0
   22.6133   -7.6789  -15.4956 N   0  0  0  0  0  0  0  0  0  0  0  0
   21.9757   -6.3441  -15.6283 C   0  0  1  0  0  0  0  0  0  0  0  0
   20.5071   -6.4618  -15.4156 C   0  0  0  0  0  0  0  0  0  0  0  0
   19.8449   -5.1112  -15.4860 C   0  0  0  0  0  0  0  0  0  0  0  0
   18.3701   -5.2315  -15.2400 C   0  0  0  0  0  0  0  0  0  0  0  0
   17.8943   -4.7454  -14.2052 O   0  0  0  0  0  0  0  0  0  0  0  0
   22.6802   -5.4525  -14.7058 C   0  0  0  0  0  0  0  0  0  0  0  0
   22.7138   -4.0822  -14.8365 O   0  0  0  0  0  0  0  0  0  0  0  0
   17.5859   -5.8763  -16.1659 O   0  0  0  0  0  0  0  0  0  0  0  0
   23.3206   -5.9155  -13.7034 O   0  0  0  0  0  0  0  0  0  0  0  0
  1  2  1  0
  2  3  1  0
  3  4  1  0
  4  5  1  0
  5  7  1  0
  5  6  1  1
  7 14  1  0
  7  8  2  0
  9 10  1  0
 10 11  2  0
 12 10  1  0
 13 12  1  6
 14 13  1  0
 15 16  2  0
 15 13  1  0
 17 15  1  0
 18 17  1  0
 18 19  1  1
 20 21  1  0
 20 19  1  0
 21 25  1  0
 22 21  2  0
 23 18  1  0
 24 23  1  0
 26 23  2  0
M  END
$$$$
