MNE.pdb
     RDKit          3D

 26 25  0  0  1  0  0  0  0  0999 V2000
   14.1226  -14.4610  -13.2339 C   0  0  0  0  0  0  0  0  0  0  0  0
   13.6172  -13.6317  -14.7700 S   0  0  0  0  0  0  0  0  0  0  0  0
   14.8435  -12.3954  -15.2924 C   0  0  0  0  0  0  0  0  0  0  0  0
   16.2467  -12.8532  -14.9668 C   0  0  0  0  0  0  0  0  0  0  0  0
   17.0197  -13.2164  -16.2135 C   0  0  2  0  0  0  0  0  0  0  0  0
   17.1701  -14.6581  -16.2318 N   0  0  0  0  0  0  0  0  0  0  0  0
   18.3750  -12.6153  -16.1422 C   0  0  0  0  0  0  0  0  0  0  0  0
   19.3494  -13.3467  -15.7725 O   0  0  0  0  0  0  0  0  0  0  0  0
   18.9040  -10.9891  -19.0130 N   0  0  0  0  0  0  0  0  0  0  0  0
   20.1667  -11.5866  -18.7832 C   0  0  0  0  0  0  0  0  0  0  0  0
   20.7742  -12.1248  -19.7593 O   0  0  0  0  0  0  0  0  0  0  0  0
   20.7536  -11.5693  -17.4135 C   0  0  0  0  0  0  0  0  0  0  0  0
   19.9386  -10.7431  -16.4713 C   0  0  2  0  0  0  0  0  0  0  0  0
   18.5884  -11.2495  -16.4793 N   0  0  0  0  0  0  0  0  0  0  0  0
   19.9762   -9.2815  -16.7700 C   0  0  0  0  0  0  0  0  0  0  0  0
   19.0769   -8.7129  -17.4408 O   0  0  0  0  0  0  0  0  0  0  0  0
   21.0394   -8.4591  -16.3069 N   0  0  0  0  0  0  0  0  0  0  0  0
   20.8096   -7.0364  -15.9478 C   0  0  1  0  0  0  0  0  0  0  0  0
   21.6088   -6.6837  -14.7425 C   0  0  0  0  0  0  0  0  0  0  0  0
   21.3213   -5.2726  -14.3023 C   0  0  0  0  0  0  0  0  0  0  0  0
   22.1538   -4.9108  -13.1082 C   0  0  0  0  0  0  0  0  0  0  0  0
   22.8031   -5.7991  -12.5399 O   0  0  0  0  0  0  0  0  0  0  0  0
   21.0958   -6.2520  -17.1498 C   0  0  0  0  0  0  0  0  0  0  0  0
   20.5047   -5.0420  -17.4368 O   0  0  0  0  0  0  0  0  0  0  0  0
   22.1753   -3.6069  -12.6754 O   0  0  0  0  0  0  0  0  0  0  0  0
   21.9328   -6.6645  -18.0209 O   0  0  0  0  0  0  0  0  0  0  0  0
  1  2  1  0
  2  3  1  0
  3  4  1  0
  4  5  1  0
  5  7  1  0
  5  6  1  1
  7 14  1  0
  7  8  2  0
  9 10  1  0
 10 11  2  0
 12 10  1  0
 13 12  1  6
 14 13  1  0
 15 16  2  0
 15 13  1  0
 17 15  1  0
 18 17  1  0
 18 19  1  1
 20 21  1  0
 20 19  1  0
 21 25  1  0
 22 21  2  0
 23 18  1  0
 24 23  1  0
 26 23  2  0
M  END
$$$$
