MNE.pdb
     RDKit          3D

 26 25  0  0  1  0  0  0  0  0999 V2000
   27.6180  -18.5361   -4.7978 C   0  0  0  0  0  0  0  0  0  0  0  0
   27.1155  -19.7913   -6.0122 S   0  0  0  0  0  0  0  0  0  0  0  0
   28.1808  -19.7553   -7.4849 C   0  0  0  0  0  0  0  0  0  0  0  0
   27.3765  -19.4508   -8.7279 C   0  0  0  0  0  0  0  0  0  0  0  0
   26.6990  -20.6870   -9.2723 C   0  0  2  0  0  0  0  0  0  0  0  0
   27.7364  -21.5890   -9.7324 N   0  0  0  0  0  0  0  0  0  0  0  0
   25.8646  -20.3137  -10.4418 C   0  0  0  0  0  0  0  0  0  0  0  0
   26.0588  -19.1838  -10.9954 O   0  0  0  0  0  0  0  0  0  0  0  0
   27.0640  -22.1299  -13.6902 N   0  0  0  0  0  0  0  0  0  0  0  0
   25.9386  -21.2776  -13.7977 C   0  0  0  0  0  0  0  0  0  0  0  0
   26.0782  -20.1512  -14.3663 O   0  0  0  0  0  0  0  0  0  0  0  0
   24.6245  -21.7168  -13.2493 C   0  0  0  0  0  0  0  0  0  0  0  0
   24.1602  -20.8267  -12.1418 C   0  0  2  0  0  0  0  0  0  0  0  0
   24.8660  -21.1964  -10.9399 N   0  0  0  0  0  0  0  0  0  0  0  0
   22.6823  -20.8471  -11.9364 C   0  0  0  0  0  0  0  0  0  0  0  0
   22.1305  -21.6377  -11.1286 O   0  0  0  0  0  0  0  0  0  0  0  0
   21.8241  -19.9673  -12.6509 N   0  0  0  0  0  0  0  0  0  0  0  0
   20.3571  -19.9691  -12.4193 C   0  0  1  0  0  0  0  0  0  0  0  0
   19.7497  -18.7473  -13.0145 C   0  0  0  0  0  0  0  0  0  0  0  0
   18.2657  -18.7083  -12.7617 C   0  0  0  0  0  0  0  0  0  0  0  0
   17.6492  -17.5068  -13.4146 C   0  0  0  0  0  0  0  0  0  0  0  0
   18.0417  -17.1695  -14.5397 O   0  0  0  0  0  0  0  0  0  0  0  0
   19.8553  -21.2428  -12.9369 C   0  0  0  0  0  0  0  0  0  0  0  0
   18.8219  -21.9510  -12.3654 O   0  0  0  0  0  0  0  0  0  0  0  0
   16.6675  -16.8120  -12.7503 O   0  0  0  0  0  0  0  0  0  0  0  0
   20.3681  -21.7788  -13.9757 O   0  0  0  0  0  0  0  0  0  0  0  0
  1  2  1  0
  2  3  1  0
  3  4  1  0
  4  5  1  0
  5  7  1  0
  5  6  1  6
  7 14  1  0
  7  8  2  0
  9 10  1  0
 10 11  2  0
 12 10  1  0
 13 12  1  6
 14 13  1  0
 15 16  2  0
 15 13  1  0
 17 15  1  0
 18 17  1  0
 18 19  1  6
 20 21  1  0
 20 19  1  0
 21 25  1  0
 22 21  2  0
 23 18  1  0
 24 23  1  0
 26 23  2  0
M  END
$$$$
