HSS.pdb
     RDKit          3D

 23 23  0  0  1  0  0  0  0  0999 V2000
    8.1278  -13.5871   18.5953 N   0  0  0  0  0  0  0  0  0  0  0  0
    8.5731  -14.9311   18.3343 C   0  0  1  0  0  0  0  0  0  0  0  0
    9.4927  -14.9412   17.1552 C   0  0  0  0  0  0  0  0  0  0  0  0
    8.6688  -14.6847   15.9387 C   0  0  0  0  0  0  0  0  0  0  0  0
    8.2494  -13.4828   15.4088 C   0  0  0  0  0  0  0  0  0  0  0  0
    7.5178  -13.6843   14.2929 N   0  0  0  0  0  0  0  0  0  0  0  0
    7.4802  -15.0118   14.1257 C   0  0  0  0  0  0  0  0  0  0  0  0
    8.1614  -15.6334   15.0973 N   0  0  0  0  0  0  0  0  0  0  0  0
    9.1338  -15.5898   19.5324 C   0  0  0  0  0  0  0  0  0  0  0  0
   10.0066  -14.9573   20.1820 O   0  0  0  0  0  0  0  0  0  0  0  0
    8.2874  -19.5199   20.7470 O   0  0  0  0  0  0  0  0  0  0  0  0
    8.6572  -18.6026   21.7336 C   0  0  0  0  0  0  0  0  0  0  0  0
    9.4775  -17.5306   21.0471 C   0  0  2  0  0  0  0  0  0  0  0  0
    8.7641  -16.8646   19.9953 N   0  0  0  0  0  0  0  0  0  0  0  0
   10.7908  -18.0647   20.5844 C   0  0  0  0  0  0  0  0  0  0  0  0
   11.0541  -18.0693   19.3686 O   0  0  0  0  0  0  0  0  0  0  0  0
   15.0346  -17.6179   20.3895 O   0  0  0  0  0  0  0  0  0  0  0  0
   13.6984  -17.4421   20.7553 C   0  0  0  0  0  0  0  0  0  0  0  0
   13.1282  -18.7944   21.1811 C   0  0  2  0  0  0  0  0  0  0  0  0
   11.7357  -18.5642   21.5146 N   0  0  0  0  0  0  0  0  0  0  0  0
   13.8955  -19.3058   22.3270 C   0  0  0  0  0  0  0  0  0  0  0  0
   13.4680  -19.2497   23.5031 O   0  0  0  0  0  0  0  0  0  0  0  0
   15.1359  -19.8704   22.1006 O   0  0  0  0  0  0  0  0  0  0  0  0
  2  1  1  1
  3  2  1  0
  3  4  1  0
  4  8  1  0
  5  4  2  0
  5  6  1  0
  6  7  1  0
  8  7  2  0
  9  2  1  0
  9 14  1  0
 10  9  2  0
 11 12  1  0
 13 15  1  0
 13 14  1  0
 13 12  1  6
 15 20  1  0
 16 15  2  0
 17 18  1  0
 19 18  1  1
 19 21  1  0
 20 19  1  0
 21 22  2  0
 21 23  1  0
M  END
$$$$
