HSS.pdb
     RDKit          3D

 23 23  0  0  1  0  0  0  0  0999 V2000
    9.9899  -17.0330   17.5913 N   0  0  0  0  0  0  0  0  0  0  0  0
    8.9836  -17.0020   18.6205 C   0  0  1  0  0  0  0  0  0  0  0  0
    8.3822  -18.3613   18.7836 C   0  0  0  0  0  0  0  0  0  0  0  0
    7.6349  -18.6768   17.5320 C   0  0  0  0  0  0  0  0  0  0  0  0
    7.3584  -17.8622   16.4543 C   0  0  0  0  0  0  0  0  0  0  0  0
    6.6531  -18.5329   15.5196 N   0  0  0  0  0  0  0  0  0  0  0  0
    6.4891  -19.7663   16.0132 C   0  0  0  0  0  0  0  0  0  0  0  0
    7.0673  -19.8782   17.2163 N   0  0  0  0  0  0  0  0  0  0  0  0
    9.4761  -16.4133   19.8833 C   0  0  0  0  0  0  0  0  0  0  0  0
   10.7094  -16.5019   20.1175 O   0  0  0  0  0  0  0  0  0  0  0  0
    7.0579  -15.0665   23.0017 O   0  0  0  0  0  0  0  0  0  0  0  0
    8.2481  -14.3606   22.8109 C   0  0  0  0  0  0  0  0  0  0  0  0
    9.1958  -15.2916   22.0838 C   0  0  2  0  0  0  0  0  0  0  0  0
    8.6702  -15.7656   20.8357 N   0  0  0  0  0  0  0  0  0  0  0  0
    9.6428  -16.4084   22.9653 C   0  0  0  0  0  0  0  0  0  0  0  0
    9.0631  -17.5071   22.9006 O   0  0  0  0  0  0  0  0  0  0  0  0
   13.1708  -17.5525   23.6437 O   0  0  0  0  0  0  0  0  0  0  0  0
   12.6555  -17.1773   24.8862 C   0  0  0  0  0  0  0  0  0  0  0  0
   11.1302  -17.2434   24.8207 C   0  0  2  0  0  0  0  0  0  0  0  0
   10.7173  -16.2279   23.8711 N   0  0  0  0  0  0  0  0  0  0  0  0
   10.5759  -17.0059   26.1623 C   0  0  0  0  0  0  0  0  0  0  0  0
    9.9302  -15.9722   26.4512 O   0  0  0  0  0  0  0  0  0  0  0  0
   10.7736  -17.9579   27.1437 O   0  0  0  0  0  0  0  0  0  0  0  0
  2  1  1  6
  3  2  1  0
  3  4  1  0
  4  8  1  0
  5  4  2  0
  5  6  1  0
  6  7  1  0
  8  7  2  0
  9  2  1  0
  9 14  1  0
 10  9  2  0
 11 12  1  0
 13 15  1  0
 13 14  1  0
 13 12  1  1
 15 20  1  0
 16 15  2  0
 17 18  1  0
 19 18  1  1
 19 21  1  0
 20 19  1  0
 21 22  2  0
 21 23  1  0
M  END
$$$$
