HSS.pdb
     RDKit          3D

 23 23  0  0  1  0  0  0  0  0999 V2000
   10.4541  -16.2513   16.2775 N   0  0  0  0  0  0  0  0  0  0  0  0
   10.7132  -15.1538   17.1725 C   0  0  1  0  0  0  0  0  0  0  0  0
    9.4290  -14.6679   17.7649 C   0  0  0  0  0  0  0  0  0  0  0  0
    8.5939  -14.1308   16.6521 C   0  0  0  0  0  0  0  0  0  0  0  0
    8.4163  -12.8240   16.2494 C   0  0  0  0  0  0  0  0  0  0  0  0
    7.5756  -12.7610   15.1956 N   0  0  0  0  0  0  0  0  0  0  0  0
    7.2281  -14.0281   14.9401 C   0  0  0  0  0  0  0  0  0  0  0  0
    7.8240  -14.8672   15.7976 N   0  0  0  0  0  0  0  0  0  0  0  0
   11.7508  -15.4683   18.1766 C   0  0  0  0  0  0  0  0  0  0  0  0
   11.6429  -16.5597   18.7938 O   0  0  0  0  0  0  0  0  0  0  0  0
   15.6688  -14.4557   18.0558 O   0  0  0  0  0  0  0  0  0  0  0  0
   15.1191  -14.2026   19.3149 C   0  0  0  0  0  0  0  0  0  0  0  0
   13.8613  -15.0398   19.4181 C   0  0  2  0  0  0  0  0  0  0  0  0
   12.8429  -14.6404   18.4897 N   0  0  0  0  0  0  0  0  0  0  0  0
   13.3552  -15.0890   20.8200 C   0  0  0  0  0  0  0  0  0  0  0  0
   12.6982  -14.1315   21.2661 O   0  0  0  0  0  0  0  0  0  0  0  0
   11.6767  -17.5352   24.3854 O   0  0  0  0  0  0  0  0  0  0  0  0
   12.0518  -17.3279   23.0564 C   0  0  0  0  0  0  0  0  0  0  0  0
   13.1812  -16.2990   23.0241 C   0  0  2  0  0  0  0  0  0  0  0  0
   13.6160  -16.2124   21.6432 N   0  0  0  0  0  0  0  0  0  0  0  0
   14.2628  -16.7370   23.9194 C   0  0  0  0  0  0  0  0  0  0  0  0
   15.3298  -17.2359   23.4932 O   0  0  0  0  0  0  0  0  0  0  0  0
   14.0984  -16.5940   25.2836 O   0  0  0  0  0  0  0  0  0  0  0  0
  2  1  1  1
  3  2  1  0
  3  4  1  0
  4  8  1  0
  5  4  2  0
  5  6  1  0
  6  7  1  0
  8  7  2  0
  9  2  1  0
  9 14  1  0
 10  9  2  0
 11 12  1  0
 13 15  1  0
 13 14  1  0
 13 12  1  1
 15 20  1  0
 16 15  2  0
 17 18  1  0
 19 18  1  6
 19 21  1  0
 20 19  1  0
 21 22  2  0
 21 23  1  0
M  END
$$$$
