HSS.pdb
     RDKit          3D

 23 23  0  0  1  0  0  0  0  0999 V2000
   12.4391  -13.7612   18.8849 N   0  0  0  0  0  0  0  0  0  0  0  0
   11.1075  -14.1356   19.2841 C   0  0  1  0  0  0  0  0  0  0  0  0
   10.5871  -15.2041   18.3765 C   0  0  0  0  0  0  0  0  0  0  0  0
    9.4637  -14.6190   17.5890 C   0  0  0  0  0  0  0  0  0  0  0  0
    8.9909  -13.3237   17.5771 C   0  0  0  0  0  0  0  0  0  0  0  0
    7.9538  -13.2037   16.7221 N   0  0  0  0  0  0  0  0  0  0  0  0
    7.7786  -14.4238   16.2001 C   0  0  0  0  0  0  0  0  0  0  0  0
    8.6695  -15.2888   16.7025 N   0  0  0  0  0  0  0  0  0  0  0  0
   11.0160  -14.4766   20.7190 C   0  0  0  0  0  0  0  0  0  0  0  0
   12.0830  -14.7984   21.3036 O   0  0  0  0  0  0  0  0  0  0  0  0
    7.4742  -15.0922   22.8679 O   0  0  0  0  0  0  0  0  0  0  0  0
    8.5161  -14.4629   23.5533 C   0  0  0  0  0  0  0  0  0  0  0  0
    9.7998  -14.8572   22.8533 C   0  0  2  0  0  0  0  0  0  0  0  0
    9.8295  -14.4672   21.4728 N   0  0  0  0  0  0  0  0  0  0  0  0
   10.0930  -16.3082   23.0334 C   0  0  0  0  0  0  0  0  0  0  0  0
    9.7281  -17.1178   22.1623 O   0  0  0  0  0  0  0  0  0  0  0  0
   11.9222  -17.3556   26.4898 O   0  0  0  0  0  0  0  0  0  0  0  0
   12.2030  -18.2213   25.4307 C   0  0  0  0  0  0  0  0  0  0  0  0
   11.0401  -18.1725   24.4405 C   0  0  2  0  0  0  0  0  0  0  0  0
   10.7806  -16.7689   24.1835 N   0  0  0  0  0  0  0  0  0  0  0  0
    9.8752  -18.8536   25.0257 C   0  0  0  0  0  0  0  0  0  0  0  0
    8.8032  -18.2574   25.2792 O   0  0  0  0  0  0  0  0  0  0  0  0
    9.9639  -20.2031   25.3078 O   0  0  0  0  0  0  0  0  0  0  0  0
  2  1  1  6
  3  2  1  0
  3  4  1  0
  4  8  1  0
  5  4  2  0
  5  6  1  0
  6  7  1  0
  8  7  2  0
  9  2  1  0
  9 14  1  0
 10  9  2  0
 11 12  1  0
 13 15  1  0
 13 14  1  0
 13 12  1  6
 15 20  1  0
 16 15  2  0
 17 18  1  0
 19 18  1  1
 19 21  1  0
 20 19  1  0
 21 22  2  0
 21 23  1  0
M  END
$$$$
