HSS.pdb
     RDKit          3D

 23 23  0  0  1  0  0  0  0  0999 V2000
    7.7817  -18.9731   19.0795 N   0  0  0  0  0  0  0  0  0  0  0  0
    7.6395  -19.7403   20.2894 C   0  0  1  0  0  0  0  0  0  0  0  0
    8.0401  -21.1594   20.0406 C   0  0  0  0  0  0  0  0  0  0  0  0
    6.9908  -21.7801   19.1816 C   0  0  0  0  0  0  0  0  0  0  0  0
    6.5318  -21.3826   17.9435 C   0  0  0  0  0  0  0  0  0  0  0  0
    5.5699  -22.2196   17.5016 N   0  0  0  0  0  0  0  0  0  0  0  0
    5.4280  -23.1398   18.4632 C   0  0  0  0  0  0  0  0  0  0  0  0
    6.2669  -22.8993   19.4796 N   0  0  0  0  0  0  0  0  0  0  0  0
    8.3259  -19.1212   21.4423 C   0  0  0  0  0  0  0  0  0  0  0  0
    9.4347  -18.5677   21.2230 O   0  0  0  0  0  0  0  0  0  0  0  0
    6.6642  -18.4254   25.1674 O   0  0  0  0  0  0  0  0  0  0  0  0
    7.7727  -17.6786   24.7611 C   0  0  0  0  0  0  0  0  0  0  0  0
    8.5909  -18.5717   23.8521 C   0  0  2  0  0  0  0  0  0  0  0  0
    7.8318  -19.1065   22.7582 N   0  0  0  0  0  0  0  0  0  0  0  0
    9.2904  -19.6383   24.6248 C   0  0  0  0  0  0  0  0  0  0  0  0
    8.7240  -20.7305   24.8087 O   0  0  0  0  0  0  0  0  0  0  0  0
   13.5152  -20.8980   26.6578 O   0  0  0  0  0  0  0  0  0  0  0  0
   12.7559  -19.9253   26.0042 C   0  0  0  0  0  0  0  0  0  0  0  0
   11.3101  -20.4125   25.9184 C   0  0  2  0  0  0  0  0  0  0  0  0
   10.5884  -19.4178   25.1483 N   0  0  0  0  0  0  0  0  0  0  0  0
   10.7670  -20.5629   27.2770 C   0  0  0  0  0  0  0  0  0  0  0  0
   10.0382  -19.6954   27.8112 O   0  0  0  0  0  0  0  0  0  0  0  0
   11.0707  -21.7040   27.9942 O   0  0  0  0  0  0  0  0  0  0  0  0
  2  1  1  6
  3  2  1  0
  3  4  1  0
  4  8  1  0
  5  4  2  0
  5  6  1  0
  6  7  1  0
  8  7  2  0
  9  2  1  0
  9 14  1  0
 10  9  2  0
 11 12  1  0
 13 15  1  0
 13 14  1  0
 13 12  1  1
 15 20  1  0
 16 15  2  0
 17 18  1  0
 19 18  1  1
 19 21  1  0
 20 19  1  0
 21 22  2  0
 21 23  1  0
M  END
$$$$
