HSS.pdb
     RDKit          3D

 23 23  0  0  1  0  0  0  0  0999 V2000
    9.2884  -18.7409   17.5353 N   0  0  0  0  0  0  0  0  0  0  0  0
   10.0397  -17.7001   18.1871 C   0  0  1  0  0  0  0  0  0  0  0  0
   10.4448  -16.6644   17.1874 C   0  0  0  0  0  0  0  0  0  0  0  0
   11.3336  -17.3253   16.1885 C   0  0  0  0  0  0  0  0  0  0  0  0
   12.6706  -17.6468   16.2909 C   0  0  0  0  0  0  0  0  0  0  0  0
   13.1053  -18.2396   15.1593 N   0  0  0  0  0  0  0  0  0  0  0  0
   12.0402  -18.2885   14.3501 C   0  0  0  0  0  0  0  0  0  0  0  0
   10.9673  -17.7477   14.9425 N   0  0  0  0  0  0  0  0  0  0  0  0
    9.3443  -17.1476   19.3682 C   0  0  0  0  0  0  0  0  0  0  0  0
    9.1326  -15.9072   19.3839 O   0  0  0  0  0  0  0  0  0  0  0  0
    7.3864  -19.3405   22.3410 O   0  0  0  0  0  0  0  0  0  0  0  0
    7.0016  -18.0360   22.0219 C   0  0  0  0  0  0  0  0  0  0  0  0
    8.2567  -17.3022   21.5981 C   0  0  2  0  0  0  0  0  0  0  0  0
    8.9051  -17.9042   20.4686 N   0  0  0  0  0  0  0  0  0  0  0  0
    9.1893  -17.1135   22.7464 C   0  0  0  0  0  0  0  0  0  0  0  0
   10.2127  -17.8165   22.8239 O   0  0  0  0  0  0  0  0  0  0  0  0
    7.9011  -14.7405   25.7390 O   0  0  0  0  0  0  0  0  0  0  0  0
    9.2853  -14.6590   25.5740 C   0  0  0  0  0  0  0  0  0  0  0  0
    9.7717  -15.9415   24.9003 C   0  0  2  0  0  0  0  0  0  0  0  0
    8.9196  -16.1446   23.7444 N   0  0  0  0  0  0  0  0  0  0  0  0
    9.6837  -17.0556   25.8565 C   0  0  0  0  0  0  0  0  0  0  0  0
    8.7953  -17.9358   25.7857 O   0  0  0  0  0  0  0  0  0  0  0  0
   10.6156  -17.1371   26.8731 O   0  0  0  0  0  0  0  0  0  0  0  0
  2  1  1  6
  3  2  1  0
  3  4  1  0
  4  8  1  0
  5  4  2  0
  5  6  1  0
  6  7  1  0
  8  7  2  0
  9  2  1  0
  9 14  1  0
 10  9  2  0
 11 12  1  0
 13 15  1  0
 13 14  1  0
 13 12  1  1
 15 20  1  0
 16 15  2  0
 17 18  1  0
 19 18  1  1
 19 21  1  0
 20 19  1  0
 21 22  2  0
 21 23  1  0
M  END
$$$$
