HSS.pdb
     RDKit          3D

 23 23  0  0  1  0  0  0  0  0999 V2000
    8.4374  -15.8571   20.9346 N   0  0  0  0  0  0  0  0  0  0  0  0
    8.0210  -14.7109   21.6997 C   0  0  1  0  0  0  0  0  0  0  0  0
    6.8744  -14.0349   21.0180 C   0  0  0  0  0  0  0  0  0  0  0  0
    7.2934  -13.7394   19.6174 C   0  0  0  0  0  0  0  0  0  0  0  0
    8.1209  -12.7410   19.1485 C   0  0  0  0  0  0  0  0  0  0  0  0
    8.2467  -12.8184   17.8071 N   0  0  0  0  0  0  0  0  0  0  0  0
    7.4981  -13.8648   17.4382 C   0  0  0  0  0  0  0  0  0  0  0  0
    6.9169  -14.4332   18.5029 N   0  0  0  0  0  0  0  0  0  0  0  0
    7.7635  -15.0339   23.1185 C   0  0  0  0  0  0  0  0  0  0  0  0
    7.3091  -14.1127   23.8455 O   0  0  0  0  0  0  0  0  0  0  0  0
    8.3370  -18.7858   24.9760 O   0  0  0  0  0  0  0  0  0  0  0  0
    7.3381  -17.9221   25.4316 C   0  0  0  0  0  0  0  0  0  0  0  0
    7.7998  -16.5151   25.1145 C   0  0  2  0  0  0  0  0  0  0  0  0
    7.9887  -16.2890   23.7102 N   0  0  0  0  0  0  0  0  0  0  0  0
    9.0064  -16.1472   25.9099 C   0  0  0  0  0  0  0  0  0  0  0  0
   10.1373  -16.3460   25.4313 O   0  0  0  0  0  0  0  0  0  0  0  0
    8.9025  -13.0690   27.9631 O   0  0  0  0  0  0  0  0  0  0  0  0
    9.5520  -13.9611   28.8189 C   0  0  0  0  0  0  0  0  0  0  0  0
   10.0108  -15.1702   28.0048 C   0  0  2  0  0  0  0  0  0  0  0  0
    8.8747  -15.5760   27.1998 N   0  0  0  0  0  0  0  0  0  0  0  0
   10.4495  -16.2341   28.9208 C   0  0  0  0  0  0  0  0  0  0  0  0
    9.9406  -17.3786   28.9171 O   0  0  0  0  0  0  0  0  0  0  0  0
   11.4619  -15.9635   29.8211 O   0  0  0  0  0  0  0  0  0  0  0  0
  2  1  1  6
  3  2  1  0
  3  4  1  0
  4  8  1  0
  5  4  2  0
  5  6  1  0
  6  7  1  0
  8  7  2  0
  9  2  1  0
  9 14  1  0
 10  9  2  0
 11 12  1  0
 13 15  1  0
 13 14  1  0
 13 12  1  6
 15 20  1  0
 16 15  2  0
 17 18  1  0
 19 18  1  1
 19 21  1  0
 20 19  1  0
 21 22  2  0
 21 23  1  0
M  END
$$$$
