EPL.pdb
     RDKit          3D

 25 25  0  0  1  0  0  0  0  0999 V2000
   28.6444  -23.4188  -17.0885 N   0  0  0  0  0  0  0  0  0  0  0  0
   27.7982  -22.2612  -16.9839 C   0  0  1  0  0  0  0  0  0  0  0  0
   26.3674  -22.7747  -17.2307 C   0  0  0  0  0  0  0  0  0  0  0  0
   26.3533  -24.2379  -16.8942 C   0  0  0  0  0  0  0  0  0  0  0  0
   25.2071  -24.6118  -16.0372 C   0  0  0  0  0  0  0  0  0  0  0  0
   24.0526  -24.5077  -16.4727 O   0  0  0  0  0  0  0  0  0  0  0  0
   27.8146  -21.5469  -15.7232 C   0  0  0  0  0  0  0  0  0  0  0  0
   28.6141  -21.9738  -14.8178 O   0  0  0  0  0  0  0  0  0  0  0  0
   25.4026  -25.0784  -14.7501 O   0  0  0  0  0  0  0  0  0  0  0  0
   27.0291  -20.4248  -15.4047 N   0  0  0  0  0  0  0  0  0  0  0  0
   26.0247  -19.7110  -16.1578 C   0  0  0  0  0  0  0  0  0  0  0  0
   26.4019  -18.2567  -15.9174 C   0  0  0  0  0  0  0  0  0  0  0  0
   27.0930  -18.2576  -14.5970 C   0  0  0  0  0  0  0  0  0  0  0  0
   27.0833  -19.6828  -14.1229 C   0  0  1  0  0  0  0  0  0  0  0  0
   25.9118  -20.0179  -13.2883 C   0  0  0  0  0  0  0  0  0  0  0  0
   24.8806  -20.5520  -13.8014 O   0  0  0  0  0  0  0  0  0  0  0  0
   26.7812  -21.6971   -8.9671 C   0  0  0  0  0  0  0  0  0  0  0  0
   26.5408  -20.1808   -9.0693 C   0  0  2  0  0  0  0  0  0  0  0  0
   26.7628  -19.6401   -7.6751 C   0  0  0  0  0  0  0  0  0  0  0  0
   25.1418  -20.0227   -9.5707 C   0  0  0  0  0  0  0  0  0  0  0  0
   24.9294  -20.3920  -11.0026 C   0  0  2  0  0  0  0  0  0  0  0  0
   25.8826  -19.7618  -11.8900 N   0  0  0  0  0  0  0  0  0  0  0  0
   23.5516  -20.1799  -11.4863 C   0  0  0  0  0  0  0  0  0  0  0  0
   22.5080  -21.0360  -11.1730 O   0  0  0  0  0  0  0  0  0  0  0  0
   23.3012  -19.1776  -12.2192 O   0  0  0  0  0  0  0  0  0  0  0  0
  2  1  1  1
  3  2  1  0
  4  3  1  0
  5  4  1  0
  6  5  2  0
  7 10  1  0
  7  2  1  0
  8  7  2  0
  9  5  1  0
 10 14  1  0
 11 10  1  0
 11 12  1  0
 12 13  1  0
 14 13  1  0
 14 15  1  1
 15 22  1  0
 16 15  2  0
 18 19  1  1
 18 17  1  0
 20 18  1  0
 21 22  1  0
 21 20  1  1
 23 21  1  0
 23 24  1  0
 25 23  2  0
M  END
$$$$
