EPL.pdb
     RDKit          3D

 25 25  0  0  1  0  0  0  0  0999 V2000
   24.3418  -20.0871  -18.0702 N   0  0  0  0  0  0  0  0  0  0  0  0
   25.1569  -19.4254  -17.0880 C   0  0  1  0  0  0  0  0  0  0  0  0
   24.3912  -18.1422  -16.7156 C   0  0  0  0  0  0  0  0  0  0  0  0
   23.7879  -17.5992  -17.9787 C   0  0  0  0  0  0  0  0  0  0  0  0
   22.3187  -17.4528  -17.8883 C   0  0  0  0  0  0  0  0  0  0  0  0
   21.8202  -16.8085  -16.9557 O   0  0  0  0  0  0  0  0  0  0  0  0
   25.4408  -20.1564  -15.8694 C   0  0  0  0  0  0  0  0  0  0  0  0
   24.6531  -21.1203  -15.5669 O   0  0  0  0  0  0  0  0  0  0  0  0
   21.4865  -18.0261  -18.8323 O   0  0  0  0  0  0  0  0  0  0  0  0
   26.5059  -19.9007  -14.9875 N   0  0  0  0  0  0  0  0  0  0  0  0
   27.4631  -18.8212  -14.9257 C   0  0  0  0  0  0  0  0  0  0  0  0
   28.7761  -19.5555  -14.6973 C   0  0  0  0  0  0  0  0  0  0  0  0
   28.3893  -20.8169  -14.0043 C   0  0  0  0  0  0  0  0  0  0  0  0
   26.8962  -20.7659  -13.8492 C   0  0  1  0  0  0  0  0  0  0  0  0
   26.4567  -20.1630  -12.5746 C   0  0  0  0  0  0  0  0  0  0  0  0
   26.3047  -18.9070  -12.4689 O   0  0  0  0  0  0  0  0  0  0  0  0
   22.4788  -19.5363  -11.6583 C   0  0  0  0  0  0  0  0  0  0  0  0
   23.1048  -20.8358  -12.1939 C   0  0  2  0  0  0  0  0  0  0  0  0
   21.9483  -21.6590  -12.7135 C   0  0  0  0  0  0  0  0  0  0  0  0
   23.8213  -21.4509  -11.0354 C   0  0  0  0  0  0  0  0  0  0  0  0
   25.0378  -20.7176  -10.5725 C   0  0  2  0  0  0  0  0  0  0  0  0
   26.1868  -20.9488  -11.4209 N   0  0  0  0  0  0  0  0  0  0  0  0
   25.3835  -20.9482   -9.1567 C   0  0  0  0  0  0  0  0  0  0  0  0
   24.9235  -20.1369   -8.1319 O   0  0  0  0  0  0  0  0  0  0  0  0
   26.1314  -21.9248   -8.8543 O   0  0  0  0  0  0  0  0  0  0  0  0
  2  1  1  6
  3  2  1  0
  4  3  1  0
  5  4  1  0
  6  5  2  0
  7 10  1  0
  7  2  1  0
  8  7  2  0
  9  5  1  0
 10 14  1  0
 11 10  1  0
 11 12  1  0
 12 13  1  0
 14 13  1  0
 14 15  1  1
 15 22  1  0
 16 15  2  0
 18 19  1  1
 18 17  1  0
 20 18  1  0
 21 22  1  0
 21 20  1  6
 23 21  1  0
 23 24  1  0
 25 23  2  0
M  END
$$$$
