EPL.pdb
     RDKit          3D

 25 25  0  0  1  0  0  0  0  0999 V2000
   24.2760  -23.4475  -13.9120 N   0  0  0  0  0  0  0  0  0  0  0  0
   24.6698  -22.1780  -13.3640 C   0  0  1  0  0  0  0  0  0  0  0  0
   23.3877  -21.5760  -12.7594 C   0  0  0  0  0  0  0  0  0  0  0  0
   23.0664  -20.3338  -13.5391 C   0  0  0  0  0  0  0  0  0  0  0  0
   22.3311  -20.6233  -14.7895 C   0  0  0  0  0  0  0  0  0  0  0  0
   21.2026  -21.1302  -14.7372 O   0  0  0  0  0  0  0  0  0  0  0  0
   25.6932  -22.1941  -12.3381 C   0  0  0  0  0  0  0  0  0  0  0  0
   25.7561  -23.2314  -11.5890 O   0  0  0  0  0  0  0  0  0  0  0  0
   22.8846  -20.3362  -16.0239 O   0  0  0  0  0  0  0  0  0  0  0  0
   26.6247  -21.1701  -12.0911 N   0  0  0  0  0  0  0  0  0  0  0  0
   26.8104  -19.8738  -12.7001 C   0  0  0  0  0  0  0  0  0  0  0  0
   28.3171  -19.8164  -12.9038 C   0  0  0  0  0  0  0  0  0  0  0  0
   28.8770  -20.7018  -11.8437 C   0  0  0  0  0  0  0  0  0  0  0  0
   27.6989  -21.2231  -11.0714 C   0  0  1  0  0  0  0  0  0  0  0  0
   27.3409  -20.3868   -9.9079 C   0  0  0  0  0  0  0  0  0  0  0  0
   26.3558  -19.5878   -9.9612 O   0  0  0  0  0  0  0  0  0  0  0  0
   27.6290  -21.3638   -4.7701 C   0  0  0  0  0  0  0  0  0  0  0  0
   28.8465  -21.1357   -5.6829 C   0  0  2  0  0  0  0  0  0  0  0  0
   30.0468  -21.1291   -4.7640 C   0  0  0  0  0  0  0  0  0  0  0  0
   28.5990  -19.8343   -6.3749 C   0  0  0  0  0  0  0  0  0  0  0  0
   27.5690  -19.8699   -7.4563 C   0  0  2  0  0  0  0  0  0  0  0  0
   28.0719  -20.4356   -8.6893 N   0  0  0  0  0  0  0  0  0  0  0  0
   26.9108  -18.5740   -7.7106 C   0  0  0  0  0  0  0  0  0  0  0  0
   27.2772  -17.7403   -8.7550 O   0  0  0  0  0  0  0  0  0  0  0  0
   25.9712  -18.1980   -6.9487 O   0  0  0  0  0  0  0  0  0  0  0  0
  2  1  1  1
  3  2  1  0
  4  3  1  0
  5  4  1  0
  6  5  2  0
  7 10  1  0
  7  2  1  0
  8  7  2  0
  9  5  1  0
 10 14  1  0
 11 10  1  0
 11 12  1  0
 12 13  1  0
 14 13  1  0
 14 15  1  1
 15 22  1  0
 16 15  2  0
 18 19  1  1
 18 17  1  0
 20 18  1  0
 21 22  1  0
 21 20  1  1
 23 21  1  0
 23 24  1  0
 25 23  2  0
M  END
$$$$
