EPL.pdb
     RDKit          3D

 25 25  0  0  1  0  0  0  0  0999 V2000
   23.6669  -22.3611  -13.3339 N   0  0  0  0  0  0  0  0  0  0  0  0
   24.3366  -21.2327  -12.7465 C   0  0  1  0  0  0  0  0  0  0  0  0
   23.2152  -20.3162  -12.2231 C   0  0  0  0  0  0  0  0  0  0  0  0
   23.1452  -19.1280  -13.1382 C   0  0  0  0  0  0  0  0  0  0  0  0
   22.5370  -19.4546  -14.4464 C   0  0  0  0  0  0  0  0  0  0  0  0
   21.3392  -19.7618  -14.5093 O   0  0  0  0  0  0  0  0  0  0  0  0
   25.2490  -21.5055  -11.6543 C   0  0  0  0  0  0  0  0  0  0  0  0
   24.9107  -22.4185  -10.8218 O   0  0  0  0  0  0  0  0  0  0  0  0
   23.2868  -19.4230  -15.6081 O   0  0  0  0  0  0  0  0  0  0  0  0
   26.4750  -20.8555  -11.4264 N   0  0  0  0  0  0  0  0  0  0  0  0
   27.1023  -19.7319  -12.0819 C   0  0  0  0  0  0  0  0  0  0  0  0
   28.5377  -20.2071  -12.2522 C   0  0  0  0  0  0  0  0  0  0  0  0
   28.7482  -21.1820  -11.1448 C   0  0  0  0  0  0  0  0  0  0  0  0
   27.4561  -21.2292  -10.3804 C   0  0  1  0  0  0  0  0  0  0  0  0
   27.3995  -20.2688   -9.2598 C   0  0  0  0  0  0  0  0  0  0  0  0
   26.9469  -19.0953   -9.4328 O   0  0  0  0  0  0  0  0  0  0  0  0
   25.5604  -20.7763   -5.0260 C   0  0  0  0  0  0  0  0  0  0  0  0
   26.9161  -21.4694   -5.2476 C   0  0  2  0  0  0  0  0  0  0  0  0
   27.1874  -22.2449   -3.9787 C   0  0  0  0  0  0  0  0  0  0  0  0
   27.8957  -20.3727   -5.5151 C   0  0  0  0  0  0  0  0  0  0  0  0
   27.7485  -19.6910   -6.8362 C   0  0  2  0  0  0  0  0  0  0  0  0
   27.8429  -20.6072   -7.9519 N   0  0  0  0  0  0  0  0  0  0  0  0
   28.6536  -18.5419   -7.0305 C   0  0  0  0  0  0  0  0  0  0  0  0
   29.7248  -18.5728   -7.9090 O   0  0  0  0  0  0  0  0  0  0  0  0
   28.4527  -17.4787   -6.3720 O   0  0  0  0  0  0  0  0  0  0  0  0
  2  1  1  1
  3  2  1  0
  4  3  1  0
  5  4  1  0
  6  5  2  0
  7 10  1  0
  7  2  1  0
  8  7  2  0
  9  5  1  0
 10 14  1  0
 11 10  1  0
 11 12  1  0
 12 13  1  0
 14 13  1  0
 14 15  1  1
 15 22  1  0
 16 15  2  0
 18 19  1  1
 18 17  1  0
 20 18  1  0
 21 22  1  0
 21 20  1  1
 23 21  1  0
 23 24  1  0
 25 23  2  0
M  END
$$$$
