EPL.pdb
     RDKit          3D

 25 25  0  0  1  0  0  0  0  0999 V2000
   24.2344  -22.5775  -16.2693 N   0  0  0  0  0  0  0  0  0  0  0  0
   24.3388  -21.5517  -15.2674 C   0  0  1  0  0  0  0  0  0  0  0  0
   22.9958  -21.5750  -14.5141 C   0  0  0  0  0  0  0  0  0  0  0  0
   22.1448  -20.4770  -15.0836 C   0  0  0  0  0  0  0  0  0  0  0  0
   20.7101  -20.6492  -14.7671 C   0  0  0  0  0  0  0  0  0  0  0  0
   19.9451  -19.6774  -14.8271 O   0  0  0  0  0  0  0  0  0  0  0  0
   25.4073  -21.6865  -14.2978 C   0  0  0  0  0  0  0  0  0  0  0  0
   25.8059  -22.8732  -14.0258 O   0  0  0  0  0  0  0  0  0  0  0  0
   20.2043  -21.8838  -14.4031 O   0  0  0  0  0  0  0  0  0  0  0  0
   26.0463  -20.6283  -13.6274 N   0  0  0  0  0  0  0  0  0  0  0  0
   25.7926  -19.2067  -13.6157 C   0  0  0  0  0  0  0  0  0  0  0  0
   27.1884  -18.6200  -13.7660 C   0  0  0  0  0  0  0  0  0  0  0  0
   28.0971  -19.6508  -13.1890 C   0  0  0  0  0  0  0  0  0  0  0  0
   27.2127  -20.7724  -12.7244 C   0  0  1  0  0  0  0  0  0  0  0  0
   26.7877  -20.6425  -11.3159 C   0  0  0  0  0  0  0  0  0  0  0  0
   25.6880  -20.0821  -11.0186 O   0  0  0  0  0  0  0  0  0  0  0  0
   27.0083  -19.2452   -6.4611 C   0  0  0  0  0  0  0  0  0  0  0  0
   27.8736  -20.5169   -6.4997 C   0  0  2  0  0  0  0  0  0  0  0  0
   29.0342  -20.2462   -5.5696 C   0  0  0  0  0  0  0  0  0  0  0  0
   28.2663  -20.6994   -7.9302 C   0  0  0  0  0  0  0  0  0  0  0  0
   27.1515  -21.0513   -8.8603 C   0  0  2  0  0  0  0  0  0  0  0  0
   27.5786  -21.1315  -10.2403 N   0  0  0  0  0  0  0  0  0  0  0  0
   25.9611  -20.1884   -8.7350 C   0  0  0  0  0  0  0  0  0  0  0  0
   24.7612  -20.6397   -8.2088 O   0  0  0  0  0  0  0  0  0  0  0  0
   26.0274  -18.9840   -9.1218 O   0  0  0  0  0  0  0  0  0  0  0  0
  2  1  1  6
  3  2  1  0
  4  3  1  0
  5  4  1  0
  6  5  2  0
  7 10  1  0
  7  2  1  0
  8  7  2  0
  9  5  1  0
 10 14  1  0
 11 10  1  0
 11 12  1  0
 12 13  1  0
 14 13  1  0
 14 15  1  1
 15 22  1  0
 16 15  2  0
 18 19  1  1
 18 17  1  0
 20 18  1  0
 21 22  1  0
 21 20  1  1
 23 21  1  0
 23 24  1  0
 25 23  2  0
M  END
$$$$
