EPL.pdb
     RDKit          3D

 25 25  0  0  1  0  0  0  0  0999 V2000
   28.2060  -21.2861  -17.5557 N   0  0  0  0  0  0  0  0  0  0  0  0
   28.4962  -20.4790  -16.4019 C   0  0  1  0  0  0  0  0  0  0  0  0
   27.7838  -19.1364  -16.6501 C   0  0  0  0  0  0  0  0  0  0  0  0
   26.4265  -19.4476  -17.2116 C   0  0  0  0  0  0  0  0  0  0  0  0
   25.4960  -18.3018  -17.1142 C   0  0  0  0  0  0  0  0  0  0  0  0
   25.5712  -17.3760  -17.9330 O   0  0  0  0  0  0  0  0  0  0  0  0
   28.0666  -20.9917  -15.1164 C   0  0  0  0  0  0  0  0  0  0  0  0
   27.2113  -21.9454  -15.1217 O   0  0  0  0  0  0  0  0  0  0  0  0
   24.5375  -18.2455  -16.1189 O   0  0  0  0  0  0  0  0  0  0  0  0
   28.5058  -20.5342  -13.8613 N   0  0  0  0  0  0  0  0  0  0  0  0
   29.3559  -19.4287  -13.4862 C   0  0  0  0  0  0  0  0  0  0  0  0
   30.2820  -20.0578  -12.4558 C   0  0  0  0  0  0  0  0  0  0  0  0
   29.4919  -21.1772  -11.8695 C   0  0  0  0  0  0  0  0  0  0  0  0
   28.1582  -21.1519  -12.5597 C   0  0  1  0  0  0  0  0  0  0  0  0
   27.1480  -20.3334  -11.8591 C   0  0  0  0  0  0  0  0  0  0  0  0
   27.1422  -19.0692  -11.9757 O   0  0  0  0  0  0  0  0  0  0  0  0
   24.4556  -22.4757  -12.6289 C   0  0  0  0  0  0  0  0  0  0  0  0
   23.3264  -21.4704  -12.3431 C   0  0  2  0  0  0  0  0  0  0  0  0
   22.5197  -21.3929  -13.6192 C   0  0  0  0  0  0  0  0  0  0  0  0
   24.0040  -20.1917  -11.9695 C   0  0  0  0  0  0  0  0  0  0  0  0
   24.8839  -20.2618  -10.7644 C   0  0  2  0  0  0  0  0  0  0  0  0
   26.1477  -20.9135  -11.0317 N   0  0  0  0  0  0  0  0  0  0  0  0
   24.2385  -20.8496   -9.5748 C   0  0  0  0  0  0  0  0  0  0  0  0
   23.0903  -20.3205   -9.0075 O   0  0  0  0  0  0  0  0  0  0  0  0
   24.7468  -21.8802   -9.0418 O   0  0  0  0  0  0  0  0  0  0  0  0
  2  1  1  6
  3  2  1  0
  4  3  1  0
  5  4  1  0
  6  5  2  0
  7 10  1  0
  7  2  1  0
  8  7  2  0
  9  5  1  0
 10 14  1  0
 11 10  1  0
 11 12  1  0
 12 13  1  0
 14 13  1  0
 14 15  1  1
 15 22  1  0
 16 15  2  0
 18 19  1  6
 18 17  1  0
 20 18  1  0
 21 22  1  0
 21 20  1  6
 23 21  1  0
 23 24  1  0
 25 23  2  0
M  END
$$$$
