EPL.pdb
     RDKit          3D

 25 25  0  0  1  0  0  0  0  0999 V2000
   22.2800  -21.7387  -17.5708 N   0  0  0  0  0  0  0  0  0  0  0  0
   23.4307  -20.9387  -17.2499 C   0  0  1  0  0  0  0  0  0  0  0  0
   22.9003  -19.5017  -17.0904 C   0  0  0  0  0  0  0  0  0  0  0  0
   21.4640  -19.6000  -16.6642 C   0  0  0  0  0  0  0  0  0  0  0  0
   21.1144  -18.6156  -15.6170 C   0  0  0  0  0  0  0  0  0  0  0  0
   21.6736  -17.5110  -15.5986 O   0  0  0  0  0  0  0  0  0  0  0  0
   24.1615  -21.2905  -16.0490 C   0  0  0  0  0  0  0  0  0  0  0  0
   23.6152  -22.1361  -15.2569 O   0  0  0  0  0  0  0  0  0  0  0  0
   20.1682  -18.9083  -14.6517 O   0  0  0  0  0  0  0  0  0  0  0  0
   25.4192  -20.7846  -15.6752 N   0  0  0  0  0  0  0  0  0  0  0  0
   26.2395  -19.7385  -16.2393 C   0  0  0  0  0  0  0  0  0  0  0  0
   27.6221  -20.3736  -16.2543 C   0  0  0  0  0  0  0  0  0  0  0  0
   27.5943  -21.3683  -15.1448 C   0  0  0  0  0  0  0  0  0  0  0  0
   26.2269  -21.2697  -14.5312 C   0  0  1  0  0  0  0  0  0  0  0  0
   26.1524  -20.3113  -13.4099 C   0  0  0  0  0  0  0  0  0  0  0  0
   25.8966  -19.0856  -13.6195 O   0  0  0  0  0  0  0  0  0  0  0  0
   23.4428  -20.8399   -8.9530 C   0  0  0  0  0  0  0  0  0  0  0  0
   23.2422  -19.8113  -10.0796 C   0  0  2  0  0  0  0  0  0  0  0  0
   21.7624  -19.8307  -10.3877 C   0  0  0  0  0  0  0  0  0  0  0  0
   24.1078  -20.2694  -11.2087 C   0  0  0  0  0  0  0  0  0  0  0  0
   25.5789  -20.1822  -10.9637 C   0  0  2  0  0  0  0  0  0  0  0  0
   26.3607  -20.7095  -12.0610 N   0  0  0  0  0  0  0  0  0  0  0  0
   26.0172  -20.7718   -9.6841 C   0  0  0  0  0  0  0  0  0  0  0  0
   26.4624  -22.0795   -9.5757 O   0  0  0  0  0  0  0  0  0  0  0  0
   25.9889  -20.0624   -8.6350 O   0  0  0  0  0  0  0  0  0  0  0  0
  2  1  1  1
  3  2  1  0
  4  3  1  0
  5  4  1  0
  6  5  2  0
  7 10  1  0
  7  2  1  0
  8  7  2  0
  9  5  1  0
 10 14  1  0
 11 10  1  0
 11 12  1  0
 12 13  1  0
 14 13  1  0
 14 15  1  1
 15 22  1  0
 16 15  2  0
 18 19  1  6
 18 17  1  0
 20 18  1  0
 21 22  1  0
 21 20  1  6
 23 21  1  0
 23 24  1  0
 25 23  2  0
M  END
$$$$
