EPL.pdb
     RDKit          3D

 25 25  0  0  1  0  0  0  0  0999 V2000
   27.5329  -20.9098  -17.5389 N   0  0  0  0  0  0  0  0  0  0  0  0
   27.5885  -20.1011  -16.3516 C   0  0  1  0  0  0  0  0  0  0  0  0
   26.4996  -19.0275  -16.5344 C   0  0  0  0  0  0  0  0  0  0  0  0
   27.1918  -17.7466  -16.9010 C   0  0  0  0  0  0  0  0  0  0  0  0
   27.0259  -17.4008  -18.3296 C   0  0  0  0  0  0  0  0  0  0  0  0
   25.9095  -17.0832  -18.7608 O   0  0  0  0  0  0  0  0  0  0  0  0
   27.3588  -20.7723  -15.0880 C   0  0  0  0  0  0  0  0  0  0  0  0
   26.4517  -21.6764  -15.0608 O   0  0  0  0  0  0  0  0  0  0  0  0
   28.1019  -17.4262  -19.1981 O   0  0  0  0  0  0  0  0  0  0  0  0
   28.0443  -20.5184  -13.8867 N   0  0  0  0  0  0  0  0  0  0  0  0
   29.0364  -19.5285  -13.5382 C   0  0  0  0  0  0  0  0  0  0  0  0
   30.0694  -20.3481  -12.7790 C   0  0  0  0  0  0  0  0  0  0  0  0
   29.3004  -21.4869  -12.2022 C   0  0  0  0  0  0  0  0  0  0  0  0
   27.8748  -21.2860  -12.6303 C   0  0  1  0  0  0  0  0  0  0  0  0
   27.0727  -20.5110  -11.6620 C   0  0  0  0  0  0  0  0  0  0  0  0
   27.1308  -19.2430  -11.6386 O   0  0  0  0  0  0  0  0  0  0  0  0
   23.1962  -19.5103  -11.8381 C   0  0  0  0  0  0  0  0  0  0  0  0
   23.3479  -20.9585  -11.3410 C   0  0  2  0  0  0  0  0  0  0  0  0
   21.9622  -21.5587  -11.4116 C   0  0  0  0  0  0  0  0  0  0  0  0
   23.9009  -20.8583   -9.9561 C   0  0  0  0  0  0  0  0  0  0  0  0
   25.3167  -20.3906   -9.8644 C   0  0  2  0  0  0  0  0  0  0  0  0
   26.2095  -21.1387  -10.7226 N   0  0  0  0  0  0  0  0  0  0  0  0
   25.8483  -20.3305   -8.4893 C   0  0  0  0  0  0  0  0  0  0  0  0
   25.4511  -19.3686   -7.5744 O   0  0  0  0  0  0  0  0  0  0  0  0
   26.7040  -21.1881   -8.1194 O   0  0  0  0  0  0  0  0  0  0  0  0
  2  1  1  6
  3  2  1  0
  4  3  1  0
  5  4  1  0
  6  5  2  0
  7 10  1  0
  7  2  1  0
  8  7  2  0
  9  5  1  0
 10 14  1  0
 11 10  1  0
 11 12  1  0
 12 13  1  0
 14 13  1  0
 14 15  1  1
 15 22  1  0
 16 15  2  0
 18 19  1  1
 18 17  1  0
 20 18  1  0
 21 22  1  0
 21 20  1  1
 23 21  1  0
 23 24  1  0
 25 23  2  0
M  END
$$$$
