EPL.pdb
     RDKit          3D

 25 25  0  0  1  0  0  0  0  0999 V2000
   24.0377  -22.7885  -14.1957 N   0  0  0  0  0  0  0  0  0  0  0  0
   24.7934  -21.6732  -13.6935 C   0  0  1  0  0  0  0  0  0  0  0  0
   23.7487  -20.6091  -13.3088 C   0  0  0  0  0  0  0  0  0  0  0  0
   22.6984  -21.2923  -12.4816 C   0  0  0  0  0  0  0  0  0  0  0  0
   21.6294  -20.3675  -12.0456 C   0  0  0  0  0  0  0  0  0  0  0  0
   20.9667  -19.7502  -12.8900 O   0  0  0  0  0  0  0  0  0  0  0  0
   25.6397  -21.9177  -12.5429 C   0  0  0  0  0  0  0  0  0  0  0  0
   25.3939  -22.9641  -11.8460 O   0  0  0  0  0  0  0  0  0  0  0  0
   21.3549  -20.1785  -10.7034 O   0  0  0  0  0  0  0  0  0  0  0  0
   26.7085  -21.1063  -12.1223 N   0  0  0  0  0  0  0  0  0  0  0  0
   27.1165  -19.7773  -12.5131 C   0  0  0  0  0  0  0  0  0  0  0  0
   28.6207  -19.9296  -12.6844 C   0  0  0  0  0  0  0  0  0  0  0  0
   28.9948  -21.0473  -11.7724 C   0  0  0  0  0  0  0  0  0  0  0  0
   27.7211  -21.4883  -11.1097 C   0  0  1  0  0  0  0  0  0  0  0  0
   27.4522  -20.7977   -9.8322 C   0  0  0  0  0  0  0  0  0  0  0  0
   26.6837  -19.7880   -9.7892 O   0  0  0  0  0  0  0  0  0  0  0  0
   28.7651  -19.1423   -4.9693 C   0  0  0  0  0  0  0  0  0  0  0  0
   28.2115  -20.5741   -4.8654 C   0  0  2  0  0  0  0  0  0  0  0  0
   28.9631  -21.2177   -3.7226 C   0  0  0  0  0  0  0  0  0  0  0  0
   28.4638  -21.2063   -6.1960 C   0  0  0  0  0  0  0  0  0  0  0  0
   27.6613  -20.6551   -7.3291 C   0  0  2  0  0  0  0  0  0  0  0  0
   28.0329  -21.2241   -8.6064 N   0  0  0  0  0  0  0  0  0  0  0  0
   27.6466  -19.1815   -7.4023 C   0  0  0  0  0  0  0  0  0  0  0  0
   28.6348  -18.4538   -8.0459 O   0  0  0  0  0  0  0  0  0  0  0  0
   26.6966  -18.5451   -6.8573 O   0  0  0  0  0  0  0  0  0  0  0  0
  2  1  1  1
  3  2  1  0
  4  3  1  0
  5  4  1  0
  6  5  2  0
  7 10  1  0
  7  2  1  0
  8  7  2  0
  9  5  1  0
 10 14  1  0
 11 10  1  0
 11 12  1  0
 12 13  1  0
 14 13  1  0
 14 15  1  1
 15 22  1  0
 16 15  2  0
 18 19  1  1
 18 17  1  0
 20 18  1  0
 21 22  1  0
 21 20  1  1
 23 21  1  0
 23 24  1  0
 25 23  2  0
M  END
$$$$
