EPL.pdb
     RDKit          3D

 25 25  0  0  1  0  0  0  0  0999 V2000
   15.3246  -26.9420   -2.6340 N   0  0  0  0  0  0  0  0  0  0  0  0
   14.6796  -25.9179   -1.8580 C   0  0  1  0  0  0  0  0  0  0  0  0
   13.8289  -26.6669   -0.8154 C   0  0  0  0  0  0  0  0  0  0  0  0
   12.5896  -27.1488   -1.5127 C   0  0  0  0  0  0  0  0  0  0  0  0
   11.5244  -26.1230   -1.5499 C   0  0  0  0  0  0  0  0  0  0  0  0
   10.9184  -25.8264   -0.5117 O   0  0  0  0  0  0  0  0  0  0  0  0
   15.5392  -24.9841   -1.1585 C   0  0  0  0  0  0  0  0  0  0  0  0
   16.7930  -25.2460   -1.1349 O   0  0  0  0  0  0  0  0  0  0  0  0
   11.1909  -25.4853   -2.7309 O   0  0  0  0  0  0  0  0  0  0  0  0
   15.1183  -23.8140   -0.5018 N   0  0  0  0  0  0  0  0  0  0  0  0
   13.8021  -23.2802   -0.2407 C   0  0  0  0  0  0  0  0  0  0  0  0
   13.9622  -21.8115   -0.6047 C   0  0  0  0  0  0  0  0  0  0  0  0
   15.4072  -21.5215   -0.3832 C   0  0  0  0  0  0  0  0  0  0  0  0
   16.0199  -22.8043    0.1015 C   0  0  1  0  0  0  0  0  0  0  0  0
   16.0235  -22.9362    1.5726 C   0  0  0  0  0  0  0  0  0  0  0  0
   15.0800  -23.5372    2.1728 O   0  0  0  0  0  0  0  0  0  0  0  0
   18.5995  -25.7367    3.4075 C   0  0  0  0  0  0  0  0  0  0  0  0
   19.2970  -24.4929    2.8297 C   0  0  2  0  0  0  0  0  0  0  0  0
   20.7759  -24.8043    2.8647 C   0  0  0  0  0  0  0  0  0  0  0  0
   18.8913  -23.3533    3.7075 C   0  0  0  0  0  0  0  0  0  0  0  0
   17.4454  -22.9822    3.6475 C   0  0  2  0  0  0  0  0  0  0  0  0
   17.0688  -22.4037    2.3760 N   0  0  0  0  0  0  0  0  0  0  0  0
   16.9914  -22.1274    4.7612 C   0  0  0  0  0  0  0  0  0  0  0  0
   16.8706  -22.5924    6.0609 O   0  0  0  0  0  0  0  0  0  0  0  0
   16.6967  -20.9171    4.5309 O   0  0  0  0  0  0  0  0  0  0  0  0
  2  1  1  1
  3  2  1  0
  4  3  1  0
  5  4  1  0
  6  5  2  0
  7 10  1  0
  7  2  1  0
  8  7  2  0
  9  5  1  0
 10 14  1  0
 11 10  1  0
 11 12  1  0
 12 13  1  0
 14 13  1  0
 14 15  1  1
 15 22  1  0
 16 15  2  0
 18 19  1  1
 18 17  1  0
 20 18  1  0
 21 22  1  0
 21 20  1  6
 23 21  1  0
 23 24  1  0
 25 23  2  0
M  END
$$$$
