EPL.pdb
     RDKit          3D

 25 25  0  0  1  0  0  0  0  0999 V2000
   27.0215  -23.8067  -17.5481 N   0  0  0  0  0  0  0  0  0  0  0  0
   26.6352  -22.4834  -17.1399 C   0  0  1  0  0  0  0  0  0  0  0  0
   25.1047  -22.4336  -17.3027 C   0  0  0  0  0  0  0  0  0  0  0  0
   24.8182  -22.1303  -18.7450 C   0  0  0  0  0  0  0  0  0  0  0  0
   23.8538  -23.0790  -19.3434 C   0  0  0  0  0  0  0  0  0  0  0  0
   22.6423  -22.9454  -19.1255 O   0  0  0  0  0  0  0  0  0  0  0  0
   26.9619  -22.0926  -15.7832 C   0  0  0  0  0  0  0  0  0  0  0  0
   27.4801  -22.9854  -15.0246 O   0  0  0  0  0  0  0  0  0  0  0  0
   24.2836  -24.1193  -20.1470 O   0  0  0  0  0  0  0  0  0  0  0  0
   26.7599  -20.8181  -15.2244 N   0  0  0  0  0  0  0  0  0  0  0  0
   26.0808  -19.6466  -15.7261 C   0  0  0  0  0  0  0  0  0  0  0  0
   27.0587  -18.5293  -15.3939 C   0  0  0  0  0  0  0  0  0  0  0  0
   27.8134  -19.0260  -14.2087 C   0  0  0  0  0  0  0  0  0  0  0  0
   27.2506  -20.3829  -13.8954 C   0  0  1  0  0  0  0  0  0  0  0  0
   26.1374  -20.3491  -12.9253 C   0  0  0  0  0  0  0  0  0  0  0  0
   24.9401  -20.1902  -13.3165 O   0  0  0  0  0  0  0  0  0  0  0  0
   27.0786  -18.9698   -9.3069 C   0  0  0  0  0  0  0  0  0  0  0  0
   25.9174  -19.6581   -8.5684 C   0  0  2  0  0  0  0  0  0  0  0  0
   26.3303  -19.7020   -7.1149 C   0  0  0  0  0  0  0  0  0  0  0  0
   25.7709  -21.0032   -9.2033 C   0  0  0  0  0  0  0  0  0  0  0  0
   25.3309  -20.9928  -10.6309 C   0  0  2  0  0  0  0  0  0  0  0  0
   26.3500  -20.4905  -11.5266 N   0  0  0  0  0  0  0  0  0  0  0  0
   24.0479  -20.3029  -10.8657 C   0  0  0  0  0  0  0  0  0  0  0  0
   22.8432  -20.7720  -10.3669 O   0  0  0  0  0  0  0  0  0  0  0  0
   24.0355  -19.2374  -11.5506 O   0  0  0  0  0  0  0  0  0  0  0  0
  2  1  1  1
  3  2  1  0
  4  3  1  0
  5  4  1  0
  6  5  2  0
  7 10  1  0
  7  2  1  0
  8  7  2  0
  9  5  1  0
 10 14  1  0
 11 10  1  0
 11 12  1  0
 12 13  1  0
 14 13  1  0
 14 15  1  1
 15 22  1  0
 16 15  2  0
 18 19  1  1
 18 17  1  0
 20 18  1  0
 21 22  1  0
 21 20  1  1
 23 21  1  0
 23 24  1  0
 25 23  2  0
M  END
$$$$
