EPL.pdb
     RDKit          3D

 25 25  0  0  1  0  0  0  0  0999 V2000
   23.8009  -22.0328  -12.8020 N   0  0  0  0  0  0  0  0  0  0  0  0
   24.8786  -21.1488  -12.4495 C   0  0  1  0  0  0  0  0  0  0  0  0
   24.2073  -19.8216  -12.0503 C   0  0  0  0  0  0  0  0  0  0  0  0
   23.7087  -19.1759  -13.3107 C   0  0  0  0  0  0  0  0  0  0  0  0
   22.3450  -19.6192  -13.6741 C   0  0  0  0  0  0  0  0  0  0  0  0
   21.3830  -19.2972  -12.9641 O   0  0  0  0  0  0  0  0  0  0  0  0
   25.7429  -21.5667  -11.3641 C   0  0  0  0  0  0  0  0  0  0  0  0
   25.2750  -22.4295  -10.5408 O   0  0  0  0  0  0  0  0  0  0  0  0
   22.1236  -20.3918  -14.7995 O   0  0  0  0  0  0  0  0  0  0  0  0
   27.0521  -21.1080  -11.1336 N   0  0  0  0  0  0  0  0  0  0  0  0
   27.8614  -20.1293  -11.8210 C   0  0  0  0  0  0  0  0  0  0  0  0
   29.2062  -20.8322  -11.9341 C   0  0  0  0  0  0  0  0  0  0  0  0
   29.2393  -21.7751  -10.7805 C   0  0  0  0  0  0  0  0  0  0  0  0
   27.9424  -21.5823  -10.0478 C   0  0  1  0  0  0  0  0  0  0  0  0
   28.0183  -20.5736   -8.9716 C   0  0  0  0  0  0  0  0  0  0  0  0
   27.7196  -19.3604   -9.1968 O   0  0  0  0  0  0  0  0  0  0  0  0
   27.5513  -20.3170   -2.9198 C   0  0  0  0  0  0  0  0  0  0  0  0
   27.9684  -19.4935   -4.1508 C   0  0  2  0  0  0  0  0  0  0  0  0
   27.0100  -18.3256   -4.2011 C   0  0  0  0  0  0  0  0  0  0  0  0
   27.8625  -20.4220   -5.3172 C   0  0  0  0  0  0  0  0  0  0  0  0
   28.4842  -19.9319   -6.5841 C   0  0  2  0  0  0  0  0  0  0  0  0
   28.4241  -20.9077   -7.6506 N   0  0  0  0  0  0  0  0  0  0  0  0
   29.8589  -19.4192   -6.4269 C   0  0  0  0  0  0  0  0  0  0  0  0
   30.9792  -20.2183   -6.5899 O   0  0  0  0  0  0  0  0  0  0  0  0
   30.0337  -18.2002   -6.1303 O   0  0  0  0  0  0  0  0  0  0  0  0
  2  1  1  1
  3  2  1  0
  4  3  1  0
  5  4  1  0
  6  5  2  0
  7 10  1  0
  7  2  1  0
  8  7  2  0
  9  5  1  0
 10 14  1  0
 11 10  1  0
 11 12  1  0
 12 13  1  0
 14 13  1  0
 14 15  1  1
 15 22  1  0
 16 15  2  0
 18 19  1  6
 18 17  1  0
 20 18  1  0
 21 22  1  0
 21 20  1  1
 23 21  1  0
 23 24  1  0
 25 23  2  0
M  END
$$$$
