EPL.pdb
     RDKit          3D

 25 25  0  0  1  0  0  0  0  0999 V2000
   26.6960  -20.2780  -18.3176 N   0  0  0  0  0  0  0  0  0  0  0  0
   27.1557  -19.6622  -17.1026 C   0  0  1  0  0  0  0  0  0  0  0  0
   26.5279  -18.2560  -17.0917 C   0  0  0  0  0  0  0  0  0  0  0  0
   25.0542  -18.4261  -16.8603 C   0  0  0  0  0  0  0  0  0  0  0  0
   24.3332  -17.1351  -16.8221 C   0  0  0  0  0  0  0  0  0  0  0  0
   23.1370  -17.1069  -16.5037 O   0  0  0  0  0  0  0  0  0  0  0  0
   26.8126  -20.3239  -15.8599 C   0  0  0  0  0  0  0  0  0  0  0  0
   25.8589  -21.1785  -15.8946 O   0  0  0  0  0  0  0  0  0  0  0  0
   24.9750  -15.9514  -17.1375 O   0  0  0  0  0  0  0  0  0  0  0  0
   27.4344  -20.1104  -14.6168 N   0  0  0  0  0  0  0  0  0  0  0  0
   28.2864  -19.0465  -14.1397 C   0  0  0  0  0  0  0  0  0  0  0  0
   29.3975  -19.8053  -13.4292 C   0  0  0  0  0  0  0  0  0  0  0  0
   28.7653  -21.0824  -12.9928 C   0  0  0  0  0  0  0  0  0  0  0  0
   27.3354  -21.0160  -13.4478 C   0  0  1  0  0  0  0  0  0  0  0  0
   26.4215  -20.4472  -12.4365 C   0  0  0  0  0  0  0  0  0  0  0  0
   26.3340  -19.1912  -12.2739 O   0  0  0  0  0  0  0  0  0  0  0  0
   22.3780  -19.9371  -12.6599 C   0  0  0  0  0  0  0  0  0  0  0  0
   22.7646  -21.3860  -12.3154 C   0  0  2  0  0  0  0  0  0  0  0  0
   21.5038  -22.1982  -12.5054 C   0  0  0  0  0  0  0  0  0  0  0  0
   23.2628  -21.3510  -10.9067 C   0  0  0  0  0  0  0  0  0  0  0  0
   24.6051  -20.7231  -10.7178 C   0  0  2  0  0  0  0  0  0  0  0  0
   25.6074  -21.2673  -11.6081 N   0  0  0  0  0  0  0  0  0  0  0  0
   25.0890  -20.7328   -9.3239 C   0  0  0  0  0  0  0  0  0  0  0  0
   24.4580  -20.0339   -8.3073 O   0  0  0  0  0  0  0  0  0  0  0  0
   26.1234  -21.4038   -9.0335 O   0  0  0  0  0  0  0  0  0  0  0  0
  2  1  1  6
  3  2  1  0
  4  3  1  0
  5  4  1  0
  6  5  2  0
  7 10  1  0
  7  2  1  0
  8  7  2  0
  9  5  1  0
 10 14  1  0
 11 10  1  0
 11 12  1  0
 12 13  1  0
 14 13  1  0
 14 15  1  1
 15 22  1  0
 16 15  2  0
 18 19  1  1
 18 17  1  0
 20 18  1  0
 21 22  1  0
 21 20  1  1
 23 21  1  0
 23 24  1  0
 25 23  2  0
M  END
$$$$
