TAH.pdb
     RDKit          3D

 23 23  0  0  1  0  0  0  0  0999 V2000
   21.3702  -14.3689  -16.6114 C   0  0  0  0  0  0  0  0  0  0  0  0
   22.6874  -15.0222  -16.2161 C   0  0  1  0  0  0  0  0  0  0  0  0
   22.5141  -16.3326  -15.8216 O   0  0  0  0  0  0  0  0  0  0  0  0
   23.6561  -14.9143  -17.3906 C   0  0  2  0  0  0  0  0  0  0  0  0
   24.8768  -15.6529  -17.1174 N   0  0  0  0  0  0  0  0  0  0  0  0
   23.9197  -13.4804  -17.6296 C   0  0  0  0  0  0  0  0  0  0  0  0
   24.7791  -12.8231  -16.9957 O   0  0  0  0  0  0  0  0  0  0  0  0
   22.7885  -11.0666  -20.2952 C   0  0  0  0  0  0  0  0  0  0  0  0
   23.4384  -11.4468  -18.9773 C   0  0  2  0  0  0  0  0  0  0  0  0
   23.1501  -12.8267  -18.6343 N   0  0  0  0  0  0  0  0  0  0  0  0
   22.8732  -10.6070  -17.8599 C   0  0  0  0  0  0  0  0  0  0  0  0
   21.8648  -10.9914  -17.1875 O   0  0  0  0  0  0  0  0  0  0  0  0
   23.4366   -9.3627  -17.5130 N   0  0  0  0  0  0  0  0  0  0  0  0
   22.8114   -8.5657  -16.4447 C   0  0  1  0  0  0  0  0  0  0  0  0
   23.7099   -7.4147  -16.0656 C   0  0  0  0  0  0  0  0  0  0  0  0
   23.0540   -6.5003  -15.1053 C   0  0  0  0  0  0  0  0  0  0  0  0
   22.0925   -6.7734  -14.1575 C   0  0  0  0  0  0  0  0  0  0  0  0
   21.7702   -5.6406  -13.5153 N   0  0  0  0  0  0  0  0  0  0  0  0
   22.5197   -4.6733  -14.0545 C   0  0  0  0  0  0  0  0  0  0  0  0
   23.3063   -5.1671  -15.0200 N   0  0  0  0  0  0  0  0  0  0  0  0
   21.5096   -8.1095  -16.9522 C   0  0  0  0  0  0  0  0  0  0  0  0
   20.3986   -8.1289  -16.1565 O   0  0  0  0  0  0  0  0  0  0  0  0
   21.4189   -7.6975  -18.1310 O   0  0  0  0  0  0  0  0  0  0  0  0
  2  4  1  0
  2  1  1  6
  3  2  1  0
  4  5  1  1
  6  4  1  0
  7  6  2  0
  9  8  1  6
  9 11  1  0
  9 10  1  0
 10  6  1  0
 11 13  1  0
 12 11  2  0
 13 14  1  0
 14 21  1  0
 14 15  1  6
 16 15  1  0
 17 16  2  0
 18 17  1  0
 19 18  1  0
 19 20  2  0
 20 16  1  0
 21 22  1  0
 23 21  2  0
M  END
$$$$
