TAH.pdb
     RDKit          3D

 23 23  0  0  1  0  0  0  0  0999 V2000
   19.3338  -11.8791  -15.1158 C   0  0  0  0  0  0  0  0  0  0  0  0
   19.4311  -12.3906  -16.5466 C   0  0  1  0  0  0  0  0  0  0  0  0
   19.9946  -13.6483  -16.6064 O   0  0  0  0  0  0  0  0  0  0  0  0
   18.0365  -12.3716  -17.1663 C   0  0  2  0  0  0  0  0  0  0  0  0
   18.0444  -13.0210  -18.4658 N   0  0  0  0  0  0  0  0  0  0  0  0
   17.5999  -10.9630  -17.2553 C   0  0  0  0  0  0  0  0  0  0  0  0
   18.1421  -10.1202  -18.0090 O   0  0  0  0  0  0  0  0  0  0  0  0
   14.7075   -9.0251  -15.8046 C   0  0  0  0  0  0  0  0  0  0  0  0
   16.0749   -9.1731  -16.4463 C   0  0  2  0  0  0  0  0  0  0  0  0
   16.5065  -10.5582  -16.4368 N   0  0  0  0  0  0  0  0  0  0  0  0
   17.1038   -8.4049  -15.6560 C   0  0  0  0  0  0  0  0  0  0  0  0
   17.9592   -9.0002  -14.9274 O   0  0  0  0  0  0  0  0  0  0  0  0
   17.1621   -6.9973  -15.6905 N   0  0  0  0  0  0  0  0  0  0  0  0
   18.2619   -6.3082  -14.9955 C   0  0  1  0  0  0  0  0  0  0  0  0
   19.5859   -6.7140  -15.5939 C   0  0  0  0  0  0  0  0  0  0  0  0
   20.6975   -5.8846  -15.0791 C   0  0  0  0  0  0  0  0  0  0  0  0
   21.2412   -5.8419  -13.8142 C   0  0  0  0  0  0  0  0  0  0  0  0
   22.2256   -4.9310  -13.7865 N   0  0  0  0  0  0  0  0  0  0  0  0
   22.2957   -4.4118  -15.0168 C   0  0  0  0  0  0  0  0  0  0  0  0
   21.3810   -4.9719  -15.8194 N   0  0  0  0  0  0  0  0  0  0  0  0
   18.0150   -4.8648  -15.1218 C   0  0  0  0  0  0  0  0  0  0  0  0
   18.3901   -3.9981  -14.1338 O   0  0  0  0  0  0  0  0  0  0  0  0
   17.4526   -4.4245  -16.1500 O   0  0  0  0  0  0  0  0  0  0  0  0
  2  4  1  0
  2  1  1  1
  3  2  1  0
  4  5  1  6
  6  4  1  0
  7  6  2  0
  9  8  1  1
  9 11  1  0
  9 10  1  0
 10  6  1  0
 11 13  1  0
 12 11  2  0
 13 14  1  0
 14 21  1  0
 14 15  1  6
 16 15  1  0
 17 16  2  0
 18 17  1  0
 19 18  1  0
 19 20  2  0
 20 16  1  0
 21 22  1  0
 23 21  2  0
M  END
$$$$
