TAH.pdb
     RDKit          3D

 23 23  0  0  1  0  0  0  0  0999 V2000
   14.0911  -12.8784  -10.0189 C   0  0  0  0  0  0  0  0  0  0  0  0
   14.5106  -11.5073  -10.5310 C   0  0  1  0  0  0  0  0  0  0  0  0
   14.2204  -11.3472  -11.8701 O   0  0  0  0  0  0  0  0  0  0  0  0
   13.8296  -10.4399   -9.6788 C   0  0  2  0  0  0  0  0  0  0  0  0
   12.3859  -10.5144   -9.8216 N   0  0  0  0  0  0  0  0  0  0  0  0
   14.3587   -9.1243  -10.0933 C   0  0  0  0  0  0  0  0  0  0  0  0
   14.0919   -8.5912  -11.1965 O   0  0  0  0  0  0  0  0  0  0  0  0
   16.0577   -6.2904   -8.3742 C   0  0  0  0  0  0  0  0  0  0  0  0
   15.8310   -7.1880   -9.5770 C   0  0  2  0  0  0  0  0  0  0  0  0
   15.2136   -8.4402   -9.1822 N   0  0  0  0  0  0  0  0  0  0  0  0
   17.1510   -7.5492  -10.2098 C   0  0  0  0  0  0  0  0  0  0  0  0
   17.9526   -8.3629   -9.6512 O   0  0  0  0  0  0  0  0  0  0  0  0
   17.5527   -7.0019  -11.4448 N   0  0  0  0  0  0  0  0  0  0  0  0
   18.7652   -7.5214  -12.0985 C   0  0  1  0  0  0  0  0  0  0  0  0
   18.3868   -8.4410  -13.2329 C   0  0  0  0  0  0  0  0  0  0  0  0
   19.5776   -8.9376  -13.9568 C   0  0  0  0  0  0  0  0  0  0  0  0
   20.9101   -8.6707  -13.7314 C   0  0  0  0  0  0  0  0  0  0  0  0
   21.6513   -9.3225  -14.6398 N   0  0  0  0  0  0  0  0  0  0  0  0
   20.7941   -9.9869  -15.4220 C   0  0  0  0  0  0  0  0  0  0  0  0
   19.5313   -9.7710  -15.0300 N   0  0  0  0  0  0  0  0  0  0  0  0
   19.5379   -6.3595  -12.5603 C   0  0  0  0  0  0  0  0  0  0  0  0
   20.9029   -6.4003  -12.6172 O   0  0  0  0  0  0  0  0  0  0  0  0
   18.9355   -5.3180  -12.9062 O   0  0  0  0  0  0  0  0  0  0  0  0
  2  4  1  0
  2  1  1  1
  3  2  1  0
  4  5  1  6
  6  4  1  0
  7  6  2  0
  9  8  1  1
  9 11  1  0
  9 10  1  0
 10  6  1  0
 11 13  1  0
 12 11  2  0
 13 14  1  0
 14 21  1  0
 14 15  1  6
 16 15  1  0
 17 16  2  0
 18 17  1  0
 19 18  1  0
 19 20  2  0
 20 16  1  0
 21 22  1  0
 23 21  2  0
M  END
$$$$
