TAH.pdb
     RDKit          3D

 23 23  0  0  1  0  0  0  0  0999 V2000
   26.4968  -13.5893  -17.2306 C   0  0  0  0  0  0  0  0  0  0  0  0
   25.2897  -12.7044  -16.9514 C   0  0  1  0  0  0  0  0  0  0  0  0
   24.7926  -12.1330  -18.1044 O   0  0  0  0  0  0  0  0  0  0  0  0
   24.2294  -13.5382  -16.2373 C   0  0  2  0  0  0  0  0  0  0  0  0
   23.7301  -14.5876  -17.1091 N   0  0  0  0  0  0  0  0  0  0  0  0
   23.1538  -12.6246  -15.8002 C   0  0  0  0  0  0  0  0  0  0  0  0
   22.1347  -12.3812  -16.4891 O   0  0  0  0  0  0  0  0  0  0  0  0
   22.5186  -10.6553  -12.6373 C   0  0  0  0  0  0  0  0  0  0  0  0
   22.3218  -11.0129  -14.0992 C   0  0  2  0  0  0  0  0  0  0  0  0
   23.2972  -11.9969  -14.5296 N   0  0  0  0  0  0  0  0  0  0  0  0
   22.5391   -9.7968  -14.9636 C   0  0  0  0  0  0  0  0  0  0  0  0
   23.4930   -9.7427  -15.8028 O   0  0  0  0  0  0  0  0  0  0  0  0
   21.6967   -8.6702  -14.8794 N   0  0  0  0  0  0  0  0  0  0  0  0
   21.8513   -7.5846  -15.8617 C   0  0  1  0  0  0  0  0  0  0  0  0
   21.6390   -8.1166  -17.2573 C   0  0  0  0  0  0  0  0  0  0  0  0
   21.6656   -7.0351  -18.2664 C   0  0  0  0  0  0  0  0  0  0  0  0
   22.6585   -6.1200  -18.5388 C   0  0  0  0  0  0  0  0  0  0  0  0
   22.2526   -5.3082  -19.5266 N   0  0  0  0  0  0  0  0  0  0  0  0
   21.0234   -5.7102  -19.8663 C   0  0  0  0  0  0  0  0  0  0  0  0
   20.6437   -6.7547  -19.1182 N   0  0  0  0  0  0  0  0  0  0  0  0
   20.8757   -6.5429  -15.5106 C   0  0  0  0  0  0  0  0  0  0  0  0
   19.9799   -6.7317  -14.4958 O   0  0  0  0  0  0  0  0  0  0  0  0
   20.8664   -5.4674  -16.1516 O   0  0  0  0  0  0  0  0  0  0  0  0
  2  4  1  0
  2  1  1  6
  3  2  1  0
  4  5  1  6
  6  4  1  0
  7  6  2  0
  9  8  1  1
  9 11  1  0
  9 10  1  0
 10  6  1  0
 11 13  1  0
 12 11  2  0
 13 14  1  0
 14 21  1  0
 14 15  1  6
 16 15  1  0
 17 16  2  0
 18 17  1  0
 19 18  1  0
 19 20  2  0
 20 16  1  0
 21 22  1  0
 23 21  2  0
M  END
$$$$
