TAH.pdb
     RDKit          3D

 23 23  0  0  1  0  0  0  0  0999 V2000
   19.5191  -11.7726  -19.7446 C   0  0  0  0  0  0  0  0  0  0  0  0
   20.0361  -13.0390  -19.0760 C   0  0  1  0  0  0  0  0  0  0  0  0
   19.5752  -14.1775  -19.7039 O   0  0  0  0  0  0  0  0  0  0  0  0
   21.5614  -12.9900  -19.0539 C   0  0  2  0  0  0  0  0  0  0  0  0
   22.1081  -14.2554  -18.5956 N   0  0  0  0  0  0  0  0  0  0  0  0
   21.9656  -11.8661  -18.1843 C   0  0  0  0  0  0  0  0  0  0  0  0
   21.7011  -11.8132  -16.9598 O   0  0  0  0  0  0  0  0  0  0  0  0
   24.1369   -8.8246  -18.6880 C   0  0  0  0  0  0  0  0  0  0  0  0
   23.0801   -9.6526  -17.9799 C   0  0  2  0  0  0  0  0  0  0  0  0
   22.6918  -10.7968  -18.7830 N   0  0  0  0  0  0  0  0  0  0  0  0
   21.8298   -8.8342  -17.7787 C   0  0  0  0  0  0  0  0  0  0  0  0
   20.8675   -8.8802  -18.6085 O   0  0  0  0  0  0  0  0  0  0  0  0
   21.6739   -7.9848  -16.6651 N   0  0  0  0  0  0  0  0  0  0  0  0
   20.4557   -7.1658  -16.5532 C   0  0  1  0  0  0  0  0  0  0  0  0
   19.2629   -8.0486  -16.2821 C   0  0  0  0  0  0  0  0  0  0  0  0
   19.2534   -8.5446  -14.8883 C   0  0  0  0  0  0  0  0  0  0  0  0
   20.3099   -8.9222  -14.0891 C   0  0  0  0  0  0  0  0  0  0  0  0
   19.8417   -9.3234  -12.8978 N   0  0  0  0  0  0  0  0  0  0  0  0
   18.5115   -9.1985  -12.9519 C   0  0  0  0  0  0  0  0  0  0  0  0
   18.1288   -8.7288  -14.1468 N   0  0  0  0  0  0  0  0  0  0  0  0
   20.6854   -6.1961  -15.4729 C   0  0  0  0  0  0  0  0  0  0  0  0
   19.7563   -5.2378  -15.1788 O   0  0  0  0  0  0  0  0  0  0  0  0
   21.7482   -6.2501  -14.8133 O   0  0  0  0  0  0  0  0  0  0  0  0
  2  4  1  0
  2  1  1  6
  3  2  1  0
  4  5  1  1
  6  4  1  0
  7  6  2  0
  9  8  1  6
  9 11  1  0
  9 10  1  0
 10  6  1  0
 11 13  1  0
 12 11  2  0
 13 14  1  0
 14 21  1  0
 14 15  1  1
 16 15  1  0
 17 16  2  0
 18 17  1  0
 19 18  1  0
 19 20  2  0
 20 16  1  0
 21 22  1  0
 23 21  2  0
M  END
$$$$
