TAH.pdb
     RDKit          3D

 23 23  0  0  1  0  0  0  0  0999 V2000
   19.6610  -12.2853  -19.2096 C   0  0  0  0  0  0  0  0  0  0  0  0
   18.7331  -13.1908  -18.4116 C   0  0  1  0  0  0  0  0  0  0  0  0
   18.0343  -14.0578  -19.2258 O   0  0  0  0  0  0  0  0  0  0  0  0
   19.5611  -13.9425  -17.3729 C   0  0  2  0  0  0  0  0  0  0  0  0
   18.7649  -14.9755  -16.7330 N   0  0  0  0  0  0  0  0  0  0  0  0
   20.0705  -12.9549  -16.3993 C   0  0  0  0  0  0  0  0  0  0  0  0
   19.3453  -12.3939  -15.5439 O   0  0  0  0  0  0  0  0  0  0  0  0
   23.5226  -11.8101  -15.4274 C   0  0  0  0  0  0  0  0  0  0  0  0
   22.0115  -11.6875  -15.4996 C   0  0  2  0  0  0  0  0  0  0  0  0
   21.4577  -12.6353  -16.4483 N   0  0  0  0  0  0  0  0  0  0  0  0
   21.6263  -10.3175  -15.9977 C   0  0  0  0  0  0  0  0  0  0  0  0
   21.3540  -10.1105  -17.2224 O   0  0  0  0  0  0  0  0  0  0  0  0
   21.5513   -9.2098  -15.1298 N   0  0  0  0  0  0  0  0  0  0  0  0
   21.0192   -7.9350  -15.6390 C   0  0  1  0  0  0  0  0  0  0  0  0
   19.5901   -8.1142  -16.0875 C   0  0  0  0  0  0  0  0  0  0  0  0
   18.9772   -6.8299  -16.4921 C   0  0  0  0  0  0  0  0  0  0  0  0
   19.5302   -5.5686  -16.5169 C   0  0  0  0  0  0  0  0  0  0  0  0
   18.6084   -4.6899  -16.9382 N   0  0  0  0  0  0  0  0  0  0  0  0
   17.4950   -5.3923  -17.1730 C   0  0  0  0  0  0  0  0  0  0  0  0
   17.6911   -6.6913  -16.9107 N   0  0  0  0  0  0  0  0  0  0  0  0
   21.1407   -6.9522  -14.5529 C   0  0  0  0  0  0  0  0  0  0  0  0
   21.2850   -5.6202  -14.8228 O   0  0  0  0  0  0  0  0  0  0  0  0
   21.1116   -7.3426  -13.3637 O   0  0  0  0  0  0  0  0  0  0  0  0
  2  4  1  0
  2  1  1  6
  3  2  1  0
  4  5  1  1
  6  4  1  0
  7  6  2  0
  9  8  1  6
  9 11  1  0
  9 10  1  0
 10  6  1  0
 11 13  1  0
 12 11  2  0
 13 14  1  0
 14 21  1  0
 14 15  1  1
 16 15  1  0
 17 16  2  0
 18 17  1  0
 19 18  1  0
 19 20  2  0
 20 16  1  0
 21 22  1  0
 23 21  2  0
M  END
$$$$
