TAH.pdb
     RDKit          3D

 23 23  0  0  1  0  0  0  0  0999 V2000
   17.9870  -12.8212  -18.0279 C   0  0  0  0  0  0  0  0  0  0  0  0
   18.9754  -13.9655  -17.8494 C   0  0  1  0  0  0  0  0  0  0  0  0
   18.4528  -15.1684  -18.2768 O   0  0  0  0  0  0  0  0  0  0  0  0
   20.2620  -13.6179  -18.5931 C   0  0  2  0  0  0  0  0  0  0  0  0
   21.1941  -14.7315  -18.5525 N   0  0  0  0  0  0  0  0  0  0  0  0
   20.8276  -12.4012  -17.9748 C   0  0  0  0  0  0  0  0  0  0  0  0
   21.2997  -12.3746  -16.8134 O   0  0  0  0  0  0  0  0  0  0  0  0
   21.4637   -8.8942  -19.2380 C   0  0  0  0  0  0  0  0  0  0  0  0
   21.3605   -9.9813  -18.1838 C   0  0  2  0  0  0  0  0  0  0  0  0
   20.8291  -11.2065  -18.7506 N   0  0  0  0  0  0  0  0  0  0  0  0
   20.3968   -9.5638  -17.1019 C   0  0  0  0  0  0  0  0  0  0  0  0
   19.1966   -9.9836  -17.0861 O   0  0  0  0  0  0  0  0  0  0  0  0
   20.7834   -8.6925  -16.0640 N   0  0  0  0  0  0  0  0  0  0  0  0
   19.8210   -8.3802  -14.9946 C   0  0  1  0  0  0  0  0  0  0  0  0
   19.4430   -9.6399  -14.2557 C   0  0  0  0  0  0  0  0  0  0  0  0
   18.5710   -9.3542  -13.0952 C   0  0  0  0  0  0  0  0  0  0  0  0
   17.5912   -8.3963  -12.9547 C   0  0  0  0  0  0  0  0  0  0  0  0
   17.0609   -8.4833  -11.7255 N   0  0  0  0  0  0  0  0  0  0  0  0
   17.7006   -9.4813  -11.1068 C   0  0  0  0  0  0  0  0  0  0  0  0
   18.6206  -10.0259  -11.9142 N   0  0  0  0  0  0  0  0  0  0  0  0
   20.4597   -7.3913  -14.1146 C   0  0  0  0  0  0  0  0  0  0  0  0
   21.7536   -7.0009  -14.3179 O   0  0  0  0  0  0  0  0  0  0  0  0
   19.8075   -6.9003  -13.1653 O   0  0  0  0  0  0  0  0  0  0  0  0
  2  4  1  0
  2  1  1  6
  3  2  1  0
  4  5  1  1
  6  4  1  0
  7  6  2  0
  9  8  1  6
  9 11  1  0
  9 10  1  0
 10  6  1  0
 11 13  1  0
 12 11  2  0
 13 14  1  0
 14 21  1  0
 14 15  1  1
 16 15  1  0
 17 16  2  0
 18 17  1  0
 19 18  1  0
 19 20  2  0
 20 16  1  0
 21 22  1  0
 23 21  2  0
M  END
$$$$
