TAH.pdb
     RDKit          3D

 23 23  0  0  1  0  0  0  0  0999 V2000
   16.1598  -12.1143  -18.6658 C   0  0  0  0  0  0  0  0  0  0  0  0
   17.3735  -11.2266  -18.4271 C   0  0  1  0  0  0  0  0  0  0  0  0
   17.8913  -11.3927  -17.1594 O   0  0  0  0  0  0  0  0  0  0  0  0
   18.4152  -11.5270  -19.5014 C   0  0  2  0  0  0  0  0  0  0  0  0
   18.8424  -12.9135  -19.4273 N   0  0  0  0  0  0  0  0  0  0  0  0
   19.5424  -10.5907  -19.3132 C   0  0  0  0  0  0  0  0  0  0  0  0
   20.5156  -10.8273  -18.5588 O   0  0  0  0  0  0  0  0  0  0  0  0
   20.6182   -7.4328  -21.0472 C   0  0  0  0  0  0  0  0  0  0  0  0
   20.5921   -8.4106  -19.8867 C   0  0  2  0  0  0  0  0  0  0  0  0
   19.5062   -9.3616  -20.0324 N   0  0  0  0  0  0  0  0  0  0  0  0
   20.3386   -7.6750  -18.5952 C   0  0  0  0  0  0  0  0  0  0  0  0
   19.1702   -7.5874  -18.1013 O   0  0  0  0  0  0  0  0  0  0  0  0
   21.3830   -7.0540  -17.8812 N   0  0  0  0  0  0  0  0  0  0  0  0
   21.0603   -6.2638  -16.6817 C   0  0  1  0  0  0  0  0  0  0  0  0
   22.0364   -6.5810  -15.5762 C   0  0  0  0  0  0  0  0  0  0  0  0
   21.7930   -7.9205  -14.9973 C   0  0  0  0  0  0  0  0  0  0  0  0
   20.7617   -8.8011  -15.2386 C   0  0  0  0  0  0  0  0  0  0  0  0
   20.9289   -9.8960  -14.4817 N   0  0  0  0  0  0  0  0  0  0  0  0
   22.0488   -9.7019  -13.7772 C   0  0  0  0  0  0  0  0  0  0  0  0
   22.5920   -8.5129  -14.0705 N   0  0  0  0  0  0  0  0  0  0  0  0
   21.1058   -4.8477  -17.0728 C   0  0  0  0  0  0  0  0  0  0  0  0
   20.7963   -3.8611  -16.1791 O   0  0  0  0  0  0  0  0  0  0  0  0
   21.4330   -4.5425  -18.2421 O   0  0  0  0  0  0  0  0  0  0  0  0
  2  4  1  0
  2  1  1  6
  3  2  1  0
  4  5  1  1
  6  4  1  0
  7  6  2  0
  9  8  1  6
  9 11  1  0
  9 10  1  0
 10  6  1  0
 11 13  1  0
 12 11  2  0
 13 14  1  0
 14 21  1  0
 14 15  1  1
 16 15  1  0
 17 16  2  0
 18 17  1  0
 19 18  1  0
 19 20  2  0
 20 16  1  0
 21 22  1  0
 23 21  2  0
M  END
$$$$
