TAH.pdb
     RDKit          3D

 23 23  0  0  1  0  0  0  0  0999 V2000
   21.0180   -5.5044  -13.8577 C   0  0  0  0  0  0  0  0  0  0  0  0
   22.4917   -5.5842  -14.2318 C   0  0  1  0  0  0  0  0  0  0  0  0
   22.9490   -6.8856  -14.2477 O   0  0  0  0  0  0  0  0  0  0  0  0
   22.6882   -4.9050  -15.5844 C   0  0  2  0  0  0  0  0  0  0  0  0
   22.1952   -3.5390  -15.5481 N   0  0  0  0  0  0  0  0  0  0  0  0
   21.9921   -5.7168  -16.6038 C   0  0  0  0  0  0  0  0  0  0  0  0
   20.7433   -5.7859  -16.6941 O   0  0  0  0  0  0  0  0  0  0  0  0
   23.1753   -7.5540  -19.6739 C   0  0  0  0  0  0  0  0  0  0  0  0
   22.1631   -7.1816  -18.6060 C   0  0  2  0  0  0  0  0  0  0  0  0
   22.7948   -6.4518  -17.5228 N   0  0  0  0  0  0  0  0  0  0  0  0
   21.5773   -8.4272  -17.9907 C   0  0  0  0  0  0  0  0  0  0  0  0
   21.9086   -8.8081  -16.8236 O   0  0  0  0  0  0  0  0  0  0  0  0
   20.6396   -9.2214  -18.6805 N   0  0  0  0  0  0  0  0  0  0  0  0
   20.0449  -10.3830  -17.9989 C   0  0  1  0  0  0  0  0  0  0  0  0
   19.2530   -9.9278  -16.7983 C   0  0  0  0  0  0  0  0  0  0  0  0
   18.5578  -11.0557  -16.1402 C   0  0  0  0  0  0  0  0  0  0  0  0
   18.7248  -12.4106  -16.3242 C   0  0  0  0  0  0  0  0  0  0  0  0
   17.8720  -13.0732  -15.5284 N   0  0  0  0  0  0  0  0  0  0  0  0
   17.1818  -12.1454  -14.8570 C   0  0  0  0  0  0  0  0  0  0  0  0
   17.5774  -10.9148  -15.2088 N   0  0  0  0  0  0  0  0  0  0  0  0
   19.2064  -11.0792  -18.9851 C   0  0  0  0  0  0  0  0  0  0  0  0
   19.1361  -12.4439  -19.0099 O   0  0  0  0  0  0  0  0  0  0  0  0
   18.5477  -10.4109  -19.8139 O   0  0  0  0  0  0  0  0  0  0  0  0
  2  4  1  0
  2  1  1  6
  3  2  1  0
  4  5  1  1
  6  4  1  0
  7  6  2  0
  9  8  1  6
  9 11  1  0
  9 10  1  0
 10  6  1  0
 11 13  1  0
 12 11  2  0
 13 14  1  0
 14 21  1  0
 14 15  1  1
 16 15  1  0
 17 16  2  0
 18 17  1  0
 19 18  1  0
 19 20  2  0
 20 16  1  0
 21 22  1  0
 23 21  2  0
M  END
$$$$
