GRH.pdb
     RDKit          3D

 26 26  0  0  1  0  0  0  0  0999 V2000
    7.9743  -20.3376   21.6086 N   0  0  0  0  0  0  0  0  0  0  0  0
    7.4658  -19.5231   22.6787 C   0  0  0  0  0  0  0  0  0  0  0  0
    8.2428  -18.2398   22.7798 C   0  0  0  0  0  0  0  0  0  0  0  0
    9.4569  -18.3309   22.9648 O   0  0  0  0  0  0  0  0  0  0  0  0
    8.8282  -13.9334   17.3299 N   0  0  0  0  0  0  0  0  0  0  0  0
    8.5580  -13.0674   18.4258 C   0  0  0  0  0  0  0  0  0  0  0  0
    8.9265  -11.8224   18.3949 N   0  0  0  0  0  0  0  0  0  0  0  0
    7.8818  -13.5185   19.5888 N   0  0  0  0  0  0  0  0  0  0  0  0
    7.3183  -14.8300   19.6835 C   0  0  0  0  0  0  0  0  0  0  0  0
    6.5637  -14.9483   21.0138 C   0  0  0  0  0  0  0  0  0  0  0  0
    7.4975  -14.5506   22.1031 C   0  0  0  0  0  0  0  0  0  0  0  0
    8.1643  -15.6963   22.8266 C   0  0  2  0  0  0  0  0  0  0  0  0
    7.6019  -16.9803   22.6667 N   0  0  0  0  0  0  0  0  0  0  0  0
    8.6293  -15.3173   24.1629 C   0  0  0  0  0  0  0  0  0  0  0  0
    8.5352  -14.0808   24.4558 O   0  0  0  0  0  0  0  0  0  0  0  0
    8.8279  -11.1922   19.2098 N   0  0  0  0  0  0  0  0  0  0  0  0
    9.1581  -16.2176   25.1116 C   0  0  1  0  0  0  0  0  0  0  0  0
    9.5428  -15.8079   26.4716 C   0  0  0  0  0  0  0  0  0  0  0  0
    8.3488  -15.4854   27.2925 C   0  0  0  0  0  0  0  0  0  0  0  0
    7.8030  -14.1241   27.1398 C   0  0  0  0  0  0  0  0  0  0  0  0
    8.3435  -12.9822   26.6513 N   0  0  0  0  0  0  0  0  0  0  0  0
    7.4004  -12.0029   26.6620 C   0  0  0  0  0  0  0  0  0  0  0  0
    6.2760  -12.5407   27.1562 N   0  0  0  0  0  0  0  0  0  0  0  0
    6.5050  -13.8242   27.4494 C   0  0  0  0  0  0  0  0  0  0  0  0
   10.1195  -17.0814   27.0648 O   0  0  0  0  0  0  0  0  0  0  0  0
   10.6599  -17.0466   28.3158 O   0  0  0  0  0  0  0  0  0  0  0  0
  2  1  1  0
  3  2  1  0
  3 13  1  0
  4  3  2  0
  5  6  1  0
  6  8  1  0
  7  6  2  0
  8  9  1  0
  9 10  1  0
 10 11  1  0
 12 11  1  1
 12 13  1  0
 14 12  1  0
 15 14  2  0
 16 14  1  0
 17 16  1  0
 17 18  1  1
 19 23  1  0
 19 18  1  0
 20 19  2  0
 21 20  1  0
 21 22  1  0
 22 23  2  0
 24 17  1  0
 25 24  1  0
 26 24  2  0
M  END
$$$$
