GRH.pdb
     RDKit          3D

 26 26  0  0  1  0  0  0  0  0999 V2000
    9.7490  -20.1441   19.8601 N   0  0  0  0  0  0  0  0  0  0  0  0
    8.8047  -19.5076   20.7377 C   0  0  0  0  0  0  0  0  0  0  0  0
    9.4103  -18.2827   21.3652 C   0  0  0  0  0  0  0  0  0  0  0  0
   10.4869  -18.4227   21.9463 O   0  0  0  0  0  0  0  0  0  0  0  0
    6.7890  -12.6967   16.7725 N   0  0  0  0  0  0  0  0  0  0  0  0
    7.8729  -13.6127   16.6724 C   0  0  0  0  0  0  0  0  0  0  0  0
    8.2150  -14.1138   15.5240 N   0  0  0  0  0  0  0  0  0  0  0  0
    8.6211  -14.0161   17.8085 N   0  0  0  0  0  0  0  0  0  0  0  0
    8.1767  -13.7618   19.1444 C   0  0  0  0  0  0  0  0  0  0  0  0
    9.2775  -14.1938   20.1215 C   0  0  0  0  0  0  0  0  0  0  0  0
    8.6276  -14.5326   21.4175 C   0  0  0  0  0  0  0  0  0  0  0  0
    9.0505  -15.8503   22.0222 C   0  0  2  0  0  0  0  0  0  0  0  0
    8.7666  -17.0218   21.2891 N   0  0  0  0  0  0  0  0  0  0  0  0
    8.8504  -15.8884   23.4727 C   0  0  0  0  0  0  0  0  0  0  0  0
    7.7017  -16.2739   23.8668 O   0  0  0  0  0  0  0  0  0  0  0  0
    8.9589  -14.8266   15.4269 N   0  0  0  0  0  0  0  0  0  0  0  0
    9.8284  -15.5330   24.4253 C   0  0  2  0  0  0  0  0  0  0  0  0
    9.6246  -15.6905   25.8741 C   0  0  0  0  0  0  0  0  0  0  0  0
    8.1796  -15.7332   26.2109 C   0  0  0  0  0  0  0  0  0  0  0  0
    7.4814  -14.4349   26.2461 C   0  0  0  0  0  0  0  0  0  0  0  0
    7.9130  -13.1693   26.0296 N   0  0  0  0  0  0  0  0  0  0  0  0
    6.8565  -12.3178   26.1140 C   0  0  0  0  0  0  0  0  0  0  0  0
    5.7710  -13.0581   26.3815 N   0  0  0  0  0  0  0  0  0  0  0  0
    6.1343  -14.3414   26.4639 C   0  0  0  0  0  0  0  0  0  0  0  0
   10.1531  -17.0879   26.1464 O   0  0  0  0  0  0  0  0  0  0  0  0
   10.1798  -17.5504   27.4284 O   0  0  0  0  0  0  0  0  0  0  0  0
  2  1  1  0
  3  2  1  0
  3 13  1  0
  4  3  2  0
  5  6  1  0
  6  8  1  0
  7  6  2  0
  8  9  1  0
  9 10  1  0
 10 11  1  0
 12 11  1  6
 12 13  1  0
 14 12  1  0
 15 14  2  0
 16 14  1  0
 17 16  1  0
 17 18  1  1
 19 23  1  0
 19 18  1  0
 20 19  2  0
 21 20  1  0
 21 22  1  0
 22 23  2  0
 24 17  1  0
 25 24  1  0
 26 24  2  0
M  END
$$$$
