GRH.pdb
     RDKit          3D

 26 26  0  0  1  0  0  0  0  0999 V2000
   15.3904  -20.5730   14.5050 N   0  0  0  0  0  0  0  0  0  0  0  0
   15.2435  -21.3506   15.7052 C   0  0  0  0  0  0  0  0  0  0  0  0
   14.4977  -20.5698   16.7517 C   0  0  0  0  0  0  0  0  0  0  0  0
   15.0541  -19.5722   17.2115 O   0  0  0  0  0  0  0  0  0  0  0  0
    7.0720  -17.8325   17.3392 N   0  0  0  0  0  0  0  0  0  0  0  0
    7.1646  -19.2017   16.9644 C   0  0  0  0  0  0  0  0  0  0  0  0
    6.2644  -19.7438   16.2011 N   0  0  0  0  0  0  0  0  0  0  0  0
    8.2318  -20.0282   17.4019 N   0  0  0  0  0  0  0  0  0  0  0  0
    8.6393  -20.0869   18.7719 C   0  0  0  0  0  0  0  0  0  0  0  0
   10.0836  -19.5815   18.8796 C   0  0  0  0  0  0  0  0  0  0  0  0
   10.8986  -20.3162   17.8731 C   0  0  0  0  0  0  0  0  0  0  0  0
   12.3827  -20.3500   18.1503 C   0  0  2  0  0  0  0  0  0  0  0  0
   13.2089  -20.9681   17.1881 N   0  0  0  0  0  0  0  0  0  0  0  0
   12.6809  -20.5949   19.5634 C   0  0  0  0  0  0  0  0  0  0  0  0
   12.0174  -21.5301   20.1190 O   0  0  0  0  0  0  0  0  0  0  0  0
    6.3094  -20.7339   15.9036 N   0  0  0  0  0  0  0  0  0  0  0  0
   13.6316  -19.8752   20.3172 C   0  0  1  0  0  0  0  0  0  0  0  0
   13.9674  -20.2139   21.7093 C   0  0  0  0  0  0  0  0  0  0  0  0
   13.7470  -21.6570   21.9782 C   0  0  0  0  0  0  0  0  0  0  0  0
   12.4359  -22.0197   22.5472 C   0  0  0  0  0  0  0  0  0  0  0  0
   11.3433  -21.2774   22.8473 N   0  0  0  0  0  0  0  0  0  0  0  0
   10.3546  -22.0989   23.2900 C   0  0  0  0  0  0  0  0  0  0  0  0
   10.8363  -23.3499   23.2620 N   0  0  0  0  0  0  0  0  0  0  0  0
   12.0949  -23.3170   22.8142 C   0  0  0  0  0  0  0  0  0  0  0  0
   15.4714  -20.0098   21.7603 O   0  0  0  0  0  0  0  0  0  0  0  0
   15.9876  -19.0813   22.6144 O   0  0  0  0  0  0  0  0  0  0  0  0
  2  1  1  0
  3  2  1  0
  3 13  1  0
  4  3  2  0
  5  6  1  0
  6  8  1  0
  7  6  2  0
  8  9  1  0
  9 10  1  0
 10 11  1  0
 12 11  1  6
 12 13  1  0
 14 12  1  0
 15 14  2  0
 16 14  1  0
 17 16  1  0
 17 18  1  1
 19 23  1  0
 19 18  1  0
 20 19  2  0
 21 20  1  0
 21 22  1  0
 22 23  2  0
 24 17  1  0
 25 24  1  0
 26 24  2  0
M  END
$$$$
