GRH.pdb
     RDKit          3D

 26 26  0  0  1  0  0  0  0  0999 V2000
   10.5275  -19.2583   15.3748 N   0  0  0  0  0  0  0  0  0  0  0  0
    9.2381  -19.7536   15.7738 C   0  0  0  0  0  0  0  0  0  0  0  0
    8.9590  -19.4020   17.2088 C   0  0  0  0  0  0  0  0  0  0  0  0
    9.8886  -18.9274   17.8623 O   0  0  0  0  0  0  0  0  0  0  0  0
    4.0349  -19.7115   15.0138 N   0  0  0  0  0  0  0  0  0  0  0  0
    3.1672  -20.5951   15.7140 C   0  0  0  0  0  0  0  0  0  0  0  0
    2.3257  -21.3472   15.0713 N   0  0  0  0  0  0  0  0  0  0  0  0
    3.1809  -20.6942   17.1294 N   0  0  0  0  0  0  0  0  0  0  0  0
    3.9128  -19.7802   17.9513 C   0  0  0  0  0  0  0  0  0  0  0  0
    5.0443  -20.5432   18.6517 C   0  0  0  0  0  0  0  0  0  0  0  0
    5.8257  -19.5621   19.4539 C   0  0  0  0  0  0  0  0  0  0  0  0
    7.3013  -19.5049   19.1374 C   0  0  2  0  0  0  0  0  0  0  0  0
    7.6789  -19.6093   17.7820 N   0  0  0  0  0  0  0  0  0  0  0  0
    8.1124  -20.2166   20.1279 C   0  0  0  0  0  0  0  0  0  0  0  0
    8.1575  -21.4840   20.0045 O   0  0  0  0  0  0  0  0  0  0  0  0
    1.7012  -22.0192   15.5502 N   0  0  0  0  0  0  0  0  0  0  0  0
    8.8228  -19.5952   21.1763 C   0  0  1  0  0  0  0  0  0  0  0  0
    9.7340  -20.3305   22.0676 C   0  0  0  0  0  0  0  0  0  0  0  0
   11.0111  -19.5968   22.2527 C   0  0  0  0  0  0  0  0  0  0  0  0
   11.9965  -20.2235   23.1530 C   0  0  0  0  0  0  0  0  0  0  0  0
   11.9111  -21.2863   23.9886 N   0  0  0  0  0  0  0  0  0  0  0  0
   13.1281  -21.5084   24.5524 C   0  0  0  0  0  0  0  0  0  0  0  0
   13.9664  -20.5831   24.0638 N   0  0  0  0  0  0  0  0  0  0  0  0
   13.2951  -19.7988   23.2153 C   0  0  0  0  0  0  0  0  0  0  0  0
    9.0258  -20.2708   23.4097 O   0  0  0  0  0  0  0  0  0  0  0  0
    7.9079  -19.5013   23.5377 O   0  0  0  0  0  0  0  0  0  0  0  0
  2  1  1  0
  3  2  1  0
  3 13  1  0
  4  3  2  0
  5  6  1  0
  6  8  1  0
  7  6  2  0
  8  9  1  0
  9 10  1  0
 10 11  1  0
 12 11  1  6
 12 13  1  0
 14 12  1  0
 15 14  2  0
 16 14  1  0
 17 16  1  0
 17 18  1  1
 19 23  1  0
 19 18  1  0
 20 19  2  0
 21 20  1  0
 21 22  1  0
 22 23  2  0
 24 17  1  0
 25 24  1  0
 26 24  2  0
M  END
$$$$
