GRH.pdb
     RDKit          3D

 26 26  0  0  1  0  0  0  0  0999 V2000
    4.9259  -21.3776   24.3202 N   0  0  0  0  0  0  0  0  0  0  0  0
    4.5612  -19.9942   24.1783 C   0  0  0  0  0  0  0  0  0  0  0  0
    5.7683  -19.1619   23.8449 C   0  0  0  0  0  0  0  0  0  0  0  0
    6.8698  -19.6246   24.1432 O   0  0  0  0  0  0  0  0  0  0  0  0
    8.4348  -13.7243   16.8915 N   0  0  0  0  0  0  0  0  0  0  0  0
    8.1993  -13.1747   18.1824 C   0  0  0  0  0  0  0  0  0  0  0  0
    7.8868  -11.9220   18.3239 N   0  0  0  0  0  0  0  0  0  0  0  0
    8.2939  -13.9601   19.3603 N   0  0  0  0  0  0  0  0  0  0  0  0
    7.1379  -14.4574   20.0407 C   0  0  0  0  0  0  0  0  0  0  0  0
    7.5945  -15.3426   21.2074 C   0  0  0  0  0  0  0  0  0  0  0  0
    6.3858  -15.9927   21.7848 C   0  0  0  0  0  0  0  0  0  0  0  0
    6.6559  -16.9700   22.9041 C   0  0  2  0  0  0  0  0  0  0  0  0
    5.6401  -17.8988   23.2140 N   0  0  0  0  0  0  0  0  0  0  0  0
    7.3810  -16.3554   24.0186 C   0  0  0  0  0  0  0  0  0  0  0  0
    6.6938  -15.6020   24.7826 O   0  0  0  0  0  0  0  0  0  0  0  0
    7.7088  -11.4936   19.2489 N   0  0  0  0  0  0  0  0  0  0  0  0
    8.7535  -16.5463   24.2829 C   0  0  1  0  0  0  0  0  0  0  0  0
    9.4797  -15.7890   25.3146 C   0  0  0  0  0  0  0  0  0  0  0  0
    9.1653  -16.2968   26.6736 C   0  0  0  0  0  0  0  0  0  0  0  0
    9.6812  -15.4992   27.8013 C   0  0  0  0  0  0  0  0  0  0  0  0
   10.0060  -14.1885   27.9088 N   0  0  0  0  0  0  0  0  0  0  0  0
   10.3728  -13.9241   29.1909 C   0  0  0  0  0  0  0  0  0  0  0  0
   10.2731  -15.0720   29.8765 N   0  0  0  0  0  0  0  0  0  0  0  0
    9.8553  -16.0338   29.0482 C   0  0  0  0  0  0  0  0  0  0  0  0
   10.9294  -16.1626   25.0598 O   0  0  0  0  0  0  0  0  0  0  0  0
   11.9156  -15.4787   25.7062 O   0  0  0  0  0  0  0  0  0  0  0  0
  2  1  1  0
  3  2  1  0
  3 13  1  0
  4  3  2  0
  5  6  1  0
  6  8  1  0
  7  6  2  0
  8  9  1  0
  9 10  1  0
 10 11  1  0
 12 11  1  1
 12 13  1  0
 14 12  1  0
 15 14  2  0
 16 14  1  0
 17 16  1  0
 17 18  1  6
 19 23  1  0
 19 18  1  0
 20 19  2  0
 21 20  1  0
 21 22  1  0
 22 23  2  0
 24 17  1  0
 25 24  1  0
 26 24  2  0
M  END
$$$$
