GRH.pdb
     RDKit          3D

 26 26  0  0  1  0  0  0  0  0999 V2000
    9.9336  -19.0097   18.3536 N   0  0  0  0  0  0  0  0  0  0  0  0
    8.9138  -18.6023   19.2815 C   0  0  0  0  0  0  0  0  0  0  0  0
    9.2911  -17.3067   19.9446 C   0  0  0  0  0  0  0  0  0  0  0  0
   10.4891  -17.1072   20.1477 O   0  0  0  0  0  0  0  0  0  0  0  0
    8.5058  -15.7685   15.9803 N   0  0  0  0  0  0  0  0  0  0  0  0
    8.5186  -14.3732   16.2573 C   0  0  0  0  0  0  0  0  0  0  0  0
    8.4026  -13.5047   15.2985 N   0  0  0  0  0  0  0  0  0  0  0  0
    8.6572  -13.8721   17.5776 N   0  0  0  0  0  0  0  0  0  0  0  0
    7.5317  -13.6564   18.4339 C   0  0  0  0  0  0  0  0  0  0  0  0
    8.0314  -13.1132   19.7786 C   0  0  0  0  0  0  0  0  0  0  0  0
    7.5562  -14.0357   20.8464 C   0  0  0  0  0  0  0  0  0  0  0  0
    8.4610  -15.2117   21.1277 C   0  0  2  0  0  0  0  0  0  0  0  0
    8.3068  -16.3573   20.3188 N   0  0  0  0  0  0  0  0  0  0  0  0
    8.6835  -15.4142   22.5612 C   0  0  0  0  0  0  0  0  0  0  0  0
    7.8094  -16.1159   23.1671 O   0  0  0  0  0  0  0  0  0  0  0  0
    8.4176  -12.4838   15.4672 N   0  0  0  0  0  0  0  0  0  0  0  0
    9.7770  -14.8915   23.2832 C   0  0  1  0  0  0  0  0  0  0  0  0
    9.9380  -15.0799   24.7337 C   0  0  0  0  0  0  0  0  0  0  0  0
    8.6396  -15.3938   25.3811 C   0  0  0  0  0  0  0  0  0  0  0  0
    7.7363  -14.2518   25.6142 C   0  0  0  0  0  0  0  0  0  0  0  0
    7.9372  -12.9134   25.5594 N   0  0  0  0  0  0  0  0  0  0  0  0
    6.7588  -12.2762   25.7911 C   0  0  0  0  0  0  0  0  0  0  0  0
    5.8288  -13.2217   25.9878 N   0  0  0  0  0  0  0  0  0  0  0  0
    6.4061  -14.4223   25.8833 C   0  0  0  0  0  0  0  0  0  0  0  0
   10.7632  -16.3514   24.8264 O   0  0  0  0  0  0  0  0  0  0  0  0
   11.2196  -16.7602   26.0441 O   0  0  0  0  0  0  0  0  0  0  0  0
  2  1  1  0
  3  2  1  0
  3 13  1  0
  4  3  2  0
  5  6  1  0
  6  8  1  0
  7  6  2  0
  8  9  1  0
  9 10  1  0
 10 11  1  0
 12 11  1  1
 12 13  1  0
 14 12  1  0
 15 14  2  0
 16 14  1  0
 17 16  1  0
 17 18  1  1
 19 23  1  0
 19 18  1  0
 20 19  2  0
 21 20  1  0
 21 22  1  0
 22 23  2  0
 24 17  1  0
 25 24  1  0
 26 24  2  0
M  END
$$$$
