GRH.pdb
     RDKit          3D

 26 26  0  0  1  0  0  0  0  0999 V2000
   14.1208  -14.2769   19.8794 N   0  0  0  0  0  0  0  0  0  0  0  0
   13.6823  -15.3111   20.7767 C   0  0  0  0  0  0  0  0  0  0  0  0
   12.4309  -14.8899   21.4960 C   0  0  0  0  0  0  0  0  0  0  0  0
   12.4549  -13.8043   22.0768 O   0  0  0  0  0  0  0  0  0  0  0  0
    7.1743  -12.9064   18.6102 N   0  0  0  0  0  0  0  0  0  0  0  0
    7.4899  -13.9955   17.7510 C   0  0  0  0  0  0  0  0  0  0  0  0
    7.9947  -13.7870   16.5726 N   0  0  0  0  0  0  0  0  0  0  0  0
    7.2705  -15.3431   18.1372 N   0  0  0  0  0  0  0  0  0  0  0  0
    7.3348  -15.7658   19.5023 C   0  0  0  0  0  0  0  0  0  0  0  0
    8.6234  -15.2179   20.1287 C   0  0  0  0  0  0  0  0  0  0  0  0
    8.7822  -15.8493   21.4677 C   0  0  0  0  0  0  0  0  0  0  0  0
   10.0610  -15.5031   22.1926 C   0  0  2  0  0  0  0  0  0  0  0  0
   11.2744  -15.7099   21.5031 N   0  0  0  0  0  0  0  0  0  0  0  0
   10.0132  -15.8636   23.6115 C   0  0  0  0  0  0  0  0  0  0  0  0
   11.0307  -16.4831   24.0637 O   0  0  0  0  0  0  0  0  0  0  0  0
    8.2182  -14.5572   15.9184 N   0  0  0  0  0  0  0  0  0  0  0  0
    8.9371  -15.5716   24.4757 C   0  0  2  0  0  0  0  0  0  0  0  0
    8.9379  -15.9359   25.9014 C   0  0  0  0  0  0  0  0  0  0  0  0
    7.7138  -15.4434   26.5815 C   0  0  0  0  0  0  0  0  0  0  0  0
    7.5086  -13.9832   26.5740 C   0  0  0  0  0  0  0  0  0  0  0  0
    8.3799  -12.9468   26.6123 N   0  0  0  0  0  0  0  0  0  0  0  0
    7.6891  -11.7802   26.5120 C   0  0  0  0  0  0  0  0  0  0  0  0
    6.3901  -12.0961   26.4102 N   0  0  0  0  0  0  0  0  0  0  0  0
    6.2660  -13.4261   26.4459 C   0  0  0  0  0  0  0  0  0  0  0  0
    8.8121  -17.4490   25.8704 O   0  0  0  0  0  0  0  0  0  0  0  0
    8.9148  -18.1486   27.0358 O   0  0  0  0  0  0  0  0  0  0  0  0
  2  1  1  0
  3  2  1  0
  3 13  1  0
  4  3  2  0
  5  6  1  0
  6  8  1  0
  7  6  2  0
  8  9  1  0
  9 10  1  0
 10 11  1  0
 12 11  1  6
 12 13  1  0
 14 12  1  0
 15 14  2  0
 16 14  1  0
 17 16  1  0
 17 18  1  1
 19 23  1  0
 19 18  1  0
 20 19  2  0
 21 20  1  0
 21 22  1  0
 22 23  2  0
 24 17  1  0
 25 24  1  0
 26 24  2  0
M  END
$$$$
