GRH.pdb
     RDKit          3D

 26 26  0  0  1  0  0  0  0  0999 V2000
    8.3311  -12.3837   18.0898 N   0  0  0  0  0  0  0  0  0  0  0  0
    8.6110  -13.7897   18.1988 C   0  0  0  0  0  0  0  0  0  0  0  0
    8.0716  -14.3363   19.4915 C   0  0  0  0  0  0  0  0  0  0  0  0
    8.4686  -13.8120   20.5326 O   0  0  0  0  0  0  0  0  0  0  0  0
    4.0097  -20.7820   20.0110 N   0  0  0  0  0  0  0  0  0  0  0  0
    3.5583  -20.6189   21.3502 C   0  0  0  0  0  0  0  0  0  0  0  0
    3.4169  -21.6456   22.1330 N   0  0  0  0  0  0  0  0  0  0  0  0
    3.2455  -19.3428   21.8858 N   0  0  0  0  0  0  0  0  0  0  0  0
    3.3604  -18.1428   21.1155 C   0  0  0  0  0  0  0  0  0  0  0  0
    4.6133  -17.3829   21.5694 C   0  0  0  0  0  0  0  0  0  0  0  0
    5.2495  -16.7918   20.3599 C   0  0  0  0  0  0  0  0  0  0  0  0
    6.5057  -15.9951   20.6204 C   0  0  2  0  0  0  0  0  0  0  0  0
    7.1454  -15.4096   19.5075 N   0  0  0  0  0  0  0  0  0  0  0  0
    7.3508  -16.6060   21.6491 C   0  0  0  0  0  0  0  0  0  0  0  0
    8.2110  -17.4497   21.2348 O   0  0  0  0  0  0  0  0  0  0  0  0
    3.0081  -21.5711   23.0808 N   0  0  0  0  0  0  0  0  0  0  0  0
    7.2663  -16.3201   23.0279 C   0  0  2  0  0  0  0  0  0  0  0  0
    8.1166  -16.9785   24.0323 C   0  0  0  0  0  0  0  0  0  0  0  0
    7.5795  -16.7816   25.4020 C   0  0  0  0  0  0  0  0  0  0  0  0
    8.3052  -17.4636   26.4894 C   0  0  0  0  0  0  0  0  0  0  0  0
    9.4586  -18.1739   26.5011 N   0  0  0  0  0  0  0  0  0  0  0  0
    9.7427  -18.5409   27.7789 C   0  0  0  0  0  0  0  0  0  0  0  0
    8.7649  -18.0558   28.5576 N   0  0  0  0  0  0  0  0  0  0  0  0
    7.8881  -17.4012   27.7905 C   0  0  0  0  0  0  0  0  0  0  0  0
    7.9326  -18.4544   23.7253 O   0  0  0  0  0  0  0  0  0  0  0  0
    9.0113  -19.2855   23.7861 O   0  0  0  0  0  0  0  0  0  0  0  0
  2  1  1  0
  3  2  1  0
  3 13  1  0
  4  3  2  0
  5  6  1  0
  6  8  1  0
  7  6  2  0
  8  9  1  0
  9 10  1  0
 10 11  1  0
 12 11  1  6
 12 13  1  0
 14 12  1  0
 15 14  2  0
 16 14  1  0
 17 16  1  0
 17 18  1  1
 19 23  1  0
 19 18  1  0
 20 19  2  0
 21 20  1  0
 21 22  1  0
 22 23  2  0
 24 17  1  0
 25 24  1  0
 26 24  2  0
M  END
$$$$
