GRH.pdb
     RDKit          3D

 26 26  0  0  1  0  0  0  0  0999 V2000
    7.0130  -13.0671   18.0809 N   0  0  0  0  0  0  0  0  0  0  0  0
    8.3536  -13.5453   18.2837 C   0  0  0  0  0  0  0  0  0  0  0  0
    8.4193  -14.4335   19.4951 C   0  0  0  0  0  0  0  0  0  0  0  0
    7.5204  -14.3149   20.3284 O   0  0  0  0  0  0  0  0  0  0  0  0
   11.7659  -18.0428   16.6368 N   0  0  0  0  0  0  0  0  0  0  0  0
   13.1357  -17.9392   17.0069 C   0  0  0  0  0  0  0  0  0  0  0  0
   14.0443  -17.6650   16.1203 N   0  0  0  0  0  0  0  0  0  0  0  0
   13.5670  -18.1285   18.3454 N   0  0  0  0  0  0  0  0  0  0  0  0
   12.6464  -18.3032   19.4263 C   0  0  0  0  0  0  0  0  0  0  0  0
   11.6489  -17.1379   19.4184 C   0  0  0  0  0  0  0  0  0  0  0  0
   10.7499  -17.3011   20.5940 C   0  0  0  0  0  0  0  0  0  0  0  0
    9.7206  -16.2101   20.7709 C   0  0  2  0  0  0  0  0  0  0  0  0
    9.4726  -15.3667   19.6675 N   0  0  0  0  0  0  0  0  0  0  0  0
    9.7820  -15.5952   22.0990 C   0  0  0  0  0  0  0  0  0  0  0  0
   10.7836  -14.8383   22.3168 O   0  0  0  0  0  0  0  0  0  0  0  0
   15.0534  -17.6355   16.3478 N   0  0  0  0  0  0  0  0  0  0  0  0
    8.8238  -15.7893   23.1160 C   0  0  1  0  0  0  0  0  0  0  0  0
    8.6857  -14.8808   24.2652 C   0  0  0  0  0  0  0  0  0  0  0  0
    7.2574  -14.6448   24.5936 C   0  0  0  0  0  0  0  0  0  0  0  0
    6.9912  -13.7181   25.7093 C   0  0  0  0  0  0  0  0  0  0  0  0
    7.8190  -13.0103   26.5147 N   0  0  0  0  0  0  0  0  0  0  0  0
    7.0746  -12.2412   27.3529 C   0  0  0  0  0  0  0  0  0  0  0  0
    5.7859  -12.4729   27.0642 N   0  0  0  0  0  0  0  0  0  0  0  0
    5.7205  -13.3645   26.0710 C   0  0  0  0  0  0  0  0  0  0  0  0
    9.2447  -15.6961   25.4181 O   0  0  0  0  0  0  0  0  0  0  0  0
    9.6978  -16.9596   25.1805 O   0  0  0  0  0  0  0  0  0  0  0  0
  2  1  1  0
  3  2  1  0
  3 13  1  0
  4  3  2  0
  5  6  1  0
  6  8  1  0
  7  6  2  0
  8  9  1  0
  9 10  1  0
 10 11  1  0
 12 11  1  6
 12 13  1  0
 14 12  1  0
 15 14  2  0
 16 14  1  0
 17 16  1  0
 17 18  1  1
 19 23  1  0
 19 18  1  0
 20 19  2  0
 21 20  1  0
 21 22  1  0
 22 23  2  0
 24 17  1  0
 25 24  1  0
 26 24  2  0
M  END
$$$$
