GRH.pdb
     RDKit          3D

 26 26  0  0  1  0  0  0  0  0999 V2000
    6.1243  -20.4733   24.2516 N   0  0  0  0  0  0  0  0  0  0  0  0
    6.0557  -19.0650   24.5327 C   0  0  0  0  0  0  0  0  0  0  0  0
    7.0888  -18.3172   23.7364 C   0  0  0  0  0  0  0  0  0  0  0  0
    8.1460  -18.9017   23.4977 O   0  0  0  0  0  0  0  0  0  0  0  0
    7.4632  -14.2481   17.4130 N   0  0  0  0  0  0  0  0  0  0  0  0
    8.2947  -13.2423   17.9794 C   0  0  0  0  0  0  0  0  0  0  0  0
    9.3889  -12.8729   17.3851 N   0  0  0  0  0  0  0  0  0  0  0  0
    7.9710  -12.6043   19.2047 N   0  0  0  0  0  0  0  0  0  0  0  0
    7.1681  -13.2368   20.2056 C   0  0  0  0  0  0  0  0  0  0  0  0
    8.0313  -14.2564   20.9594 C   0  0  0  0  0  0  0  0  0  0  0  0
    7.1897  -14.8633   22.0273 C   0  0  0  0  0  0  0  0  0  0  0  0
    7.7596  -16.1092   22.6628 C   0  0  2  0  0  0  0  0  0  0  0  0
    6.8526  -16.9954   23.2812 N   0  0  0  0  0  0  0  0  0  0  0  0
    9.0349  -15.8578   23.3380 C   0  0  0  0  0  0  0  0  0  0  0  0
    8.9939  -15.0521   24.3243 O   0  0  0  0  0  0  0  0  0  0  0  0
   10.0229  -12.1570   17.7806 N   0  0  0  0  0  0  0  0  0  0  0  0
   10.2652  -16.4402   22.9675 C   0  0  2  0  0  0  0  0  0  0  0  0
   11.5184  -16.1880   23.6964 C   0  0  0  0  0  0  0  0  0  0  0  0
   11.9697  -17.4013   24.4229 C   0  0  0  0  0  0  0  0  0  0  0  0
   11.2542  -17.7142   25.6737 C   0  0  0  0  0  0  0  0  0  0  0  0
   10.4111  -16.9826   26.4411 N   0  0  0  0  0  0  0  0  0  0  0  0
    9.9585  -17.7537   27.4652 C   0  0  0  0  0  0  0  0  0  0  0  0
   10.5212  -18.9631   27.3296 N   0  0  0  0  0  0  0  0  0  0  0  0
   11.3076  -18.9538   26.2493 C   0  0  0  0  0  0  0  0  0  0  0  0
   12.5281  -15.9749   22.5823 O   0  0  0  0  0  0  0  0  0  0  0  0
   13.8155  -15.6620   22.9028 O   0  0  0  0  0  0  0  0  0  0  0  0
  2  1  1  0
  3  2  1  0
  3 13  1  0
  4  3  2  0
  5  6  1  0
  6  8  1  0
  7  6  2  0
  8  9  1  0
  9 10  1  0
 10 11  1  0
 12 11  1  1
 12 13  1  0
 14 12  1  0
 15 14  2  0
 16 14  1  0
 17 16  1  0
 17 18  1  6
 19 23  1  0
 19 18  1  0
 20 19  2  0
 21 20  1  0
 21 22  1  0
 22 23  2  0
 24 17  1  0
 25 24  1  0
 26 24  2  0
M  END
$$$$
