GRH.pdb
     RDKit          3D

 26 26  0  0  1  0  0  0  0  0999 V2000
    5.6997  -20.5197   23.2896 N   0  0  0  0  0  0  0  0  0  0  0  0
    5.2263  -19.1635   23.3477 C   0  0  0  0  0  0  0  0  0  0  0  0
    6.3589  -18.1994   23.1272 C   0  0  0  0  0  0  0  0  0  0  0  0
    7.4918  -18.5884   23.4128 O   0  0  0  0  0  0  0  0  0  0  0  0
    8.6099  -12.4427   17.7399 N   0  0  0  0  0  0  0  0  0  0  0  0
    8.4639  -13.8465   17.5614 C   0  0  0  0  0  0  0  0  0  0  0  0
    9.1991  -14.4868   16.7033 N   0  0  0  0  0  0  0  0  0  0  0  0
    7.5198  -14.6025   18.3034 N   0  0  0  0  0  0  0  0  0  0  0  0
    6.7748  -14.0402   19.3875 C   0  0  0  0  0  0  0  0  0  0  0  0
    7.5723  -14.2278   20.6844 C   0  0  0  0  0  0  0  0  0  0  0  0
    6.6119  -14.6032   21.7585 C   0  0  0  0  0  0  0  0  0  0  0  0
    7.0129  -15.7995   22.5883 C   0  0  2  0  0  0  0  0  0  0  0  0
    6.1288  -16.8987   22.6122 N   0  0  0  0  0  0  0  0  0  0  0  0
    7.6572  -15.4152   23.8464 C   0  0  0  0  0  0  0  0  0  0  0  0
    6.9121  -14.8293   24.6978 O   0  0  0  0  0  0  0  0  0  0  0  0
    9.1385  -15.5117   16.5735 N   0  0  0  0  0  0  0  0  0  0  0  0
    9.0132  -15.6511   24.1559 C   0  0  2  0  0  0  0  0  0  0  0  0
    9.6446  -15.1661   25.3934 C   0  0  0  0  0  0  0  0  0  0  0  0
    9.2856  -16.0240   26.5505 C   0  0  0  0  0  0  0  0  0  0  0  0
    9.7549  -15.5649   27.8708 C   0  0  0  0  0  0  0  0  0  0  0  0
   10.1658  -14.3525   28.3136 N   0  0  0  0  0  0  0  0  0  0  0  0
   10.4330  -14.4315   29.6443 C   0  0  0  0  0  0  0  0  0  0  0  0
   10.1857  -15.6933   30.0242 N   0  0  0  0  0  0  0  0  0  0  0  0
    9.7742  -16.3906   28.9611 C   0  0  0  0  0  0  0  0  0  0  0  0
   11.1229  -15.4080   25.1436 O   0  0  0  0  0  0  0  0  0  0  0  0
   11.4991  -16.2210   24.1162 O   0  0  0  0  0  0  0  0  0  0  0  0
  2  1  1  0
  3  2  1  0
  3 13  1  0
  4  3  2  0
  5  6  1  0
  6  8  1  0
  7  6  2  0
  8  9  1  0
  9 10  1  0
 10 11  1  0
 12 11  1  1
 12 13  1  0
 14 12  1  0
 15 14  2  0
 16 14  1  0
 17 16  1  0
 17 18  1  6
 19 23  1  0
 19 18  1  0
 20 19  2  0
 21 20  1  0
 21 22  1  0
 22 23  2  0
 24 17  1  0
 25 24  1  0
 26 24  2  0
M  END
$$$$
