GRH.pdb
     RDKit          3D

 26 26  0  0  1  0  0  0  0  0999 V2000
    6.2816  -20.3413   23.7773 N   0  0  0  0  0  0  0  0  0  0  0  0
    6.5502  -18.9771   24.1431 C   0  0  0  0  0  0  0  0  0  0  0  0
    7.8388  -18.5093   23.5254 C   0  0  0  0  0  0  0  0  0  0  0  0
    8.6569  -19.3737   23.2093 O   0  0  0  0  0  0  0  0  0  0  0  0
    6.4268  -12.2119   18.6558 N   0  0  0  0  0  0  0  0  0  0  0  0
    7.1154  -13.2720   18.0032 C   0  0  0  0  0  0  0  0  0  0  0  0
    7.0763  -13.3929   16.7106 N   0  0  0  0  0  0  0  0  0  0  0  0
    7.8673  -14.2345   18.7255 N   0  0  0  0  0  0  0  0  0  0  0  0
    8.1074  -14.1172   20.1309 C   0  0  0  0  0  0  0  0  0  0  0  0
    8.9161  -15.3346   20.5968 C   0  0  0  0  0  0  0  0  0  0  0  0
    9.1053  -15.2182   22.0691 C   0  0  0  0  0  0  0  0  0  0  0  0
    9.2648  -16.5295   22.8010 C   0  0  2  0  0  0  0  0  0  0  0  0
    8.0976  -17.1310   23.3171 N   0  0  0  0  0  0  0  0  0  0  0  0
   10.4724  -16.5628   23.6294 C   0  0  0  0  0  0  0  0  0  0  0  0
   10.3860  -15.9890   24.7637 O   0  0  0  0  0  0  0  0  0  0  0  0
    7.5317  -14.1761   16.2106 N   0  0  0  0  0  0  0  0  0  0  0  0
   11.6856  -17.1756   23.2516 C   0  0  2  0  0  0  0  0  0  0  0  0
   12.8855  -17.1608   24.1033 C   0  0  0  0  0  0  0  0  0  0  0  0
   13.6527  -18.4247   23.9710 C   0  0  0  0  0  0  0  0  0  0  0  0
   13.0946  -19.5999   24.6650 C   0  0  0  0  0  0  0  0  0  0  0  0
   12.0600  -19.7336   25.5292 N   0  0  0  0  0  0  0  0  0  0  0  0
   11.9023  -21.0488   25.8352 C   0  0  0  0  0  0  0  0  0  0  0  0
   12.8393  -21.7284   25.1584 N   0  0  0  0  0  0  0  0  0  0  0  0
   13.5679  -20.8643   24.4457 C   0  0  0  0  0  0  0  0  0  0  0  0
   13.7478  -16.0861   23.4650 O   0  0  0  0  0  0  0  0  0  0  0  0
   14.8835  -15.6806   24.1005 O   0  0  0  0  0  0  0  0  0  0  0  0
  2  1  1  0
  3  2  1  0
  3 13  1  0
  4  3  2  0
  5  6  1  0
  6  8  1  0
  7  6  2  0
  8  9  1  0
  9 10  1  0
 10 11  1  0
 12 11  1  1
 12 13  1  0
 14 12  1  0
 15 14  2  0
 16 14  1  0
 17 16  1  0
 17 18  1  1
 19 23  1  0
 19 18  1  0
 20 19  2  0
 21 20  1  0
 21 22  1  0
 22 23  2  0
 24 17  1  0
 25 24  1  0
 26 24  2  0
M  END
$$$$
