GRH.pdb
     RDKit          3D

 26 26  0  0  1  0  0  0  0  0999 V2000
   -2.5842  -17.5232   14.6600 N   0  0  0  0  0  0  0  0  0  0  0  0
   -1.4072  -17.8924   13.9216 C   0  0  0  0  0  0  0  0  0  0  0  0
   -0.6675  -18.9961   14.6255 C   0  0  0  0  0  0  0  0  0  0  0  0
   -1.0993  -19.3516   15.7226 O   0  0  0  0  0  0  0  0  0  0  0  0
    4.2222  -24.4248   10.1729 N   0  0  0  0  0  0  0  0  0  0  0  0
    3.4448  -24.6966   11.3328 C   0  0  0  0  0  0  0  0  0  0  0  0
    3.4087  -25.8903   11.8433 N   0  0  0  0  0  0  0  0  0  0  0  0
    2.6823  -23.6885   11.9776 N   0  0  0  0  0  0  0  0  0  0  0  0
    2.4850  -22.3945   11.4003 C   0  0  0  0  0  0  0  0  0  0  0  0
    1.4924  -21.6122   12.2698 C   0  0  0  0  0  0  0  0  0  0  0  0
    2.1016  -21.4465   13.6182 C   0  0  0  0  0  0  0  0  0  0  0  0
    1.2972  -20.6137   14.5877 C   0  0  2  0  0  0  0  0  0  0  0  0
    0.4780  -19.5997   14.0480 N   0  0  0  0  0  0  0  0  0  0  0  0
    2.0406  -20.3097   15.8127 C   0  0  0  0  0  0  0  0  0  0  0  0
    2.7501  -19.2517   15.7859 O   0  0  0  0  0  0  0  0  0  0  0  0
    2.8225  -26.1282   12.6623 N   0  0  0  0  0  0  0  0  0  0  0  0
    2.0143  -21.0991   16.9816 C   0  0  2  0  0  0  0  0  0  0  0  0
    2.6996  -20.7078   18.2235 C   0  0  0  0  0  0  0  0  0  0  0  0
    1.9348  -21.1442   19.4185 C   0  0  0  0  0  0  0  0  0  0  0  0
    1.9414  -20.2204   20.5678 C   0  0  0  0  0  0  0  0  0  0  0  0
    2.5030  -19.0005   20.7450 N   0  0  0  0  0  0  0  0  0  0  0  0
    2.1585  -18.5254   21.9713 C   0  0  0  0  0  0  0  0  0  0  0  0
    1.3821  -19.4518   22.5517 N   0  0  0  0  0  0  0  0  0  0  0  0
    1.2419  -20.4830   21.7135 C   0  0  0  0  0  0  0  0  0  0  0  0
    3.9575  -21.5585   18.2056 O   0  0  0  0  0  0  0  0  0  0  0  0
    5.1570  -20.9776   18.4919 O   0  0  0  0  0  0  0  0  0  0  0  0
  2  1  1  0
  3  2  1  0
  3 13  1  0
  4  3  2  0
  5  6  1  0
  6  8  1  0
  7  6  2  0
  8  9  1  0
  9 10  1  0
 10 11  1  0
 12 11  1  6
 12 13  1  0
 14 12  1  0
 15 14  2  0
 16 14  1  0
 17 16  1  0
 17 18  1  6
 19 23  1  0
 19 18  1  0
 20 19  2  0
 21 20  1  0
 21 22  1  0
 22 23  2  0
 24 17  1  0
 25 24  1  0
 26 24  2  0
M  END
$$$$
