VIF.pdb
     RDKit          3D

 27 27  0  0  1  0  0  0  0  0999 V2000
    8.1885  -12.6548   17.4914 C   0  0  0  0  0  0  0  0  0  0  0  0
    7.9680  -13.6486   18.6156 C   0  0  2  0  0  0  0  0  0  0  0  0
    8.6037  -13.1372   19.8904 C   0  0  0  0  0  0  0  0  0  0  0  0
    8.4807  -15.0229   18.2419 C   0  0  2  0  0  0  0  0  0  0  0  0
    7.8824  -15.5446   17.0613 N   0  0  0  0  0  0  0  0  0  0  0  0
    8.3057  -15.8998   19.4295 C   0  0  0  0  0  0  0  0  0  0  0  0
    7.1601  -16.3010   19.7622 O   0  0  0  0  0  0  0  0  0  0  0  0
   11.5739  -19.9407   20.1819 C   0  0  0  0  0  0  0  0  0  0  0  0
   10.3485  -19.0908   20.2726 C   0  0  0  0  0  0  0  0  0  0  0  0
   10.3441  -18.1554   21.4536 C   0  0  2  0  0  0  0  0  0  0  0  0
   10.4341  -18.9493   22.7149 C   0  0  0  0  0  0  0  0  0  0  0  0
    9.2147  -17.1857   21.4009 C   0  0  2  0  0  0  0  0  0  0  0  0
    9.3955  -16.3300   20.2453 N   0  0  0  0  0  0  0  0  0  0  0  0
    9.3196  -16.3123   22.6250 C   0  0  0  0  0  0  0  0  0  0  0  0
   10.3233  -15.5819   22.8163 O   0  0  0  0  0  0  0  0  0  0  0  0
    8.3000  -16.2771   23.6049 N   0  0  0  0  0  0  0  0  0  0  0  0
    8.3719  -15.3140   24.6961 C   0  0  1  0  0  0  0  0  0  0  0  0
    7.0284  -14.8650   25.1366 C   0  0  0  0  0  0  0  0  0  0  0  0
    7.1351  -13.9219   26.2673 C   0  0  0  0  0  0  0  0  0  0  0  0
    7.6329  -14.2761   27.5131 C   0  0  0  0  0  0  0  0  0  0  0  0
    7.7410  -13.4072   28.5685 C   0  0  0  0  0  0  0  0  0  0  0  0
    7.3396  -12.0958   28.4155 C   0  0  0  0  0  0  0  0  0  0  0  0
    6.8434  -11.7174   27.1951 C   0  0  0  0  0  0  0  0  0  0  0  0
    6.7336  -12.5870   26.1338 C   0  0  0  0  0  0  0  0  0  0  0  0
    9.1655  -15.8948   25.7836 C   0  0  0  0  0  0  0  0  0  0  0  0
    8.8385  -17.1289   26.3050 O   0  0  0  0  0  0  0  0  0  0  0  0
   10.1433  -15.2923   26.2560 O   0  0  0  0  0  0  0  0  0  0  0  0
  2  1  1  6
  3  2  1  0
  4  2  1  0
  4  6  1  0
  4  5  1  6
  6  7  2  0
  6 13  1  0
  8  9  1  0
  9 10  1  0
 10 12  1  0
 10 11  1  1
 12 14  1  0
 12 13  1  6
 14 15  2  0
 14 16  1  0
 16 17  1  0
 17 25  1  0
 17 18  1  1
 19 18  1  0
 19 20  2  0
 21 20  1  0
 22 21  2  0
 23 24  2  0
 23 22  1  0
 24 19  1  0
 25 26  1  0
 27 25  2  0
M  END
$$$$
