VIF.pdb
     RDKit          3D

 27 27  0  0  1  0  0  0  0  0999 V2000
    6.5646  -19.3661   20.2890 C   0  0  0  0  0  0  0  0  0  0  0  0
    7.4283  -18.4113   21.0905 C   0  0  2  0  0  0  0  0  0  0  0  0
    7.8267  -19.0515   22.4029 C   0  0  0  0  0  0  0  0  0  0  0  0
    6.7314  -17.0840   21.2993 C   0  0  2  0  0  0  0  0  0  0  0  0
    6.2912  -16.4830   20.0872 N   0  0  0  0  0  0  0  0  0  0  0  0
    7.6494  -16.2200   22.0873 C   0  0  0  0  0  0  0  0  0  0  0  0
    8.6524  -15.6911   21.5412 O   0  0  0  0  0  0  0  0  0  0  0  0
    5.6531  -12.7438   25.5123 C   0  0  0  0  0  0  0  0  0  0  0  0
    6.5516  -13.4560   24.5545 C   0  0  0  0  0  0  0  0  0  0  0  0
    7.5851  -14.3250   25.2227 C   0  0  2  0  0  0  0  0  0  0  0  0
    8.4007  -13.4947   26.1581 C   0  0  0  0  0  0  0  0  0  0  0  0
    8.3723  -15.1217   24.2407 C   0  0  2  0  0  0  0  0  0  0  0  0
    7.4569  -15.9436   23.4747 N   0  0  0  0  0  0  0  0  0  0  0  0
    9.2567  -16.0533   25.0295 C   0  0  0  0  0  0  0  0  0  0  0  0
    8.7672  -16.9700   25.7348 O   0  0  0  0  0  0  0  0  0  0  0  0
   10.6664  -15.9369   25.0103 N   0  0  0  0  0  0  0  0  0  0  0  0
   11.4874  -16.9176   25.7087 C   0  0  1  0  0  0  0  0  0  0  0  0
   12.3897  -16.2868   26.7030 C   0  0  0  0  0  0  0  0  0  0  0  0
   11.6140  -15.5784   27.7402 C   0  0  0  0  0  0  0  0  0  0  0  0
   11.2365  -16.1598   28.9421 C   0  0  0  0  0  0  0  0  0  0  0  0
   10.5204  -15.5096   29.9143 C   0  0  0  0  0  0  0  0  0  0  0  0
   10.1370  -14.1988   29.7166 C   0  0  0  0  0  0  0  0  0  0  0  0
   10.4960  -13.5986   28.5378 C   0  0  0  0  0  0  0  0  0  0  0  0
   11.2147  -14.2484   27.5601 C   0  0  0  0  0  0  0  0  0  0  0  0
   10.6079  -17.9323   26.2977 C   0  0  0  0  0  0  0  0  0  0  0  0
    9.2395  -17.7619   26.2870 O   0  0  0  0  0  0  0  0  0  0  0  0
   11.0728  -18.9607   26.8157 O   0  0  0  0  0  0  0  0  0  0  0  0
  2  1  1  1
  3  2  1  0
  4  2  1  0
  4  6  1  0
  4  5  1  6
  6  7  2  0
  6 13  1  0
  8  9  1  0
  9 10  1  0
 10 12  1  0
 10 11  1  6
 12 14  1  0
 12 13  1  6
 14 15  2  0
 14 16  1  0
 16 17  1  0
 17 25  1  0
 17 18  1  1
 19 18  1  0
 19 20  2  0
 21 20  1  0
 22 21  2  0
 23 24  2  0
 23 22  1  0
 24 19  1  0
 25 26  1  0
 27 25  2  0
M  END
$$$$
