VIF.pdb
     RDKit          3D

 27 27  0  0  1  0  0  0  0  0999 V2000
    7.2807  -12.8236   21.5655 C   0  0  0  0  0  0  0  0  0  0  0  0
    8.4134  -13.2634   20.6579 C   0  0  2  0  0  0  0  0  0  0  0  0
    8.5516  -12.2999   19.4989 C   0  0  0  0  0  0  0  0  0  0  0  0
    8.2175  -14.6883   20.1863 C   0  0  2  0  0  0  0  0  0  0  0  0
    7.0503  -14.8623   19.3917 N   0  0  0  0  0  0  0  0  0  0  0  0
    8.2487  -15.5619   21.3888 C   0  0  0  0  0  0  0  0  0  0  0  0
    7.1863  -16.0639   21.8396 O   0  0  0  0  0  0  0  0  0  0  0  0
   11.5106  -19.4200   21.0053 C   0  0  0  0  0  0  0  0  0  0  0  0
   10.4225  -18.4733   21.3947 C   0  0  0  0  0  0  0  0  0  0  0  0
   10.6155  -17.8517   22.7534 C   0  0  2  0  0  0  0  0  0  0  0  0
   10.8688  -18.9264   23.7585 C   0  0  0  0  0  0  0  0  0  0  0  0
    9.5162  -16.9099   23.1042 C   0  0  2  0  0  0  0  0  0  0  0  0
    9.4521  -15.8776   22.0891 N   0  0  0  0  0  0  0  0  0  0  0  0
    9.8992  -16.2404   24.3994 C   0  0  0  0  0  0  0  0  0  0  0  0
   10.8957  -15.4789   24.4657 O   0  0  0  0  0  0  0  0  0  0  0  0
    9.1586  -16.4388   25.5882 N   0  0  0  0  0  0  0  0  0  0  0  0
    9.5819  -15.7958   26.8255 C   0  0  1  0  0  0  0  0  0  0  0  0
    8.4329  -15.2895   27.6155 C   0  0  0  0  0  0  0  0  0  0  0  0
    7.7445  -14.1974   26.8994 C   0  0  0  0  0  0  0  0  0  0  0  0
    8.2443  -12.9059   26.8139 C   0  0  0  0  0  0  0  0  0  0  0  0
    7.6158  -11.8855   26.1474 C   0  0  0  0  0  0  0  0  0  0  0  0
    6.4133  -12.1241   25.5137 C   0  0  0  0  0  0  0  0  0  0  0  0
    5.8953  -13.3913   25.5818 C   0  0  0  0  0  0  0  0  0  0  0  0
    6.5237  -14.4177   26.2498 C   0  0  0  0  0  0  0  0  0  0  0  0
   10.4240  -16.7319   27.5768 C   0  0  0  0  0  0  0  0  0  0  0  0
   11.2001  -16.2859   28.6259 O   0  0  0  0  0  0  0  0  0  0  0  0
   10.4568  -17.9390   27.2871 O   0  0  0  0  0  0  0  0  0  0  0  0
  2  1  1  6
  3  2  1  0
  4  2  1  0
  4  6  1  0
  4  5  1  1
  6  7  2  0
  6 13  1  0
  8  9  1  0
  9 10  1  0
 10 12  1  0
 10 11  1  1
 12 14  1  0
 12 13  1  6
 14 15  2  0
 14 16  1  0
 16 17  1  0
 17 25  1  0
 17 18  1  1
 19 18  1  0
 19 20  2  0
 21 20  1  0
 22 21  2  0
 23 24  2  0
 23 22  1  0
 24 19  1  0
 25 26  1  0
 27 25  2  0
M  END
$$$$
