VIF.pdb
     RDKit          3D

 27 27  0  0  1  0  0  0  0  0999 V2000
    7.9410  -19.5884   24.2839 C   0  0  0  0  0  0  0  0  0  0  0  0
    6.6102  -19.1807   24.8864 C   0  0  2  0  0  0  0  0  0  0  0  0
    5.7876  -20.4109   25.2042 C   0  0  0  0  0  0  0  0  0  0  0  0
    5.8667  -18.2243   23.9790 C   0  0  2  0  0  0  0  0  0  0  0  0
    5.4443  -18.8206   22.7583 N   0  0  0  0  0  0  0  0  0  0  0  0
    6.7337  -17.0323   23.7849 C   0  0  0  0  0  0  0  0  0  0  0  0
    7.6311  -17.0340   22.9025 O   0  0  0  0  0  0  0  0  0  0  0  0
    5.1127  -12.5014   26.3127 C   0  0  0  0  0  0  0  0  0  0  0  0
    5.6483  -13.5550   25.3990 C   0  0  0  0  0  0  0  0  0  0  0  0
    7.1480  -13.6922   25.4430 C   0  0  2  0  0  0  0  0  0  0  0  0
    7.7753  -12.3709   25.1430 C   0  0  0  0  0  0  0  0  0  0  0  0
    7.6356  -14.8237   24.6061 C   0  0  2  0  0  0  0  0  0  0  0  0
    6.6070  -15.8437   24.5655 N   0  0  0  0  0  0  0  0  0  0  0  0
    8.8276  -15.4185   25.3116 C   0  0  0  0  0  0  0  0  0  0  0  0
    8.8360  -15.5655   26.5589 O   0  0  0  0  0  0  0  0  0  0  0  0
    9.9807  -15.8341   24.6053 N   0  0  0  0  0  0  0  0  0  0  0  0
   11.2820  -15.8156   25.2607 C   0  0  1  0  0  0  0  0  0  0  0  0
   11.3027  -16.6472   26.4890 C   0  0  0  0  0  0  0  0  0  0  0  0
   11.0744  -15.8173   27.6884 C   0  0  0  0  0  0  0  0  0  0  0  0
   11.3227  -16.2577   28.9805 C   0  0  0  0  0  0  0  0  0  0  0  0
   11.1191  -15.4937   30.1010 C   0  0  0  0  0  0  0  0  0  0  0  0
   10.6394  -14.2064   29.9702 C   0  0  0  0  0  0  0  0  0  0  0  0
   10.3849  -13.7445   28.7051 C   0  0  0  0  0  0  0  0  0  0  0  0
   10.5883  -14.5087   27.5785 C   0  0  0  0  0  0  0  0  0  0  0  0
   12.3043  -16.2098   24.2863 C   0  0  0  0  0  0  0  0  0  0  0  0
   11.9555  -16.4865   22.9812 O   0  0  0  0  0  0  0  0  0  0  0  0
   13.4989  -16.3024   24.6127 O   0  0  0  0  0  0  0  0  0  0  0  0
  2  1  1  6
  3  2  1  0
  4  2  1  0
  4  6  1  0
  4  5  1  6
  6  7  2  0
  6 13  1  0
  8  9  1  0
  9 10  1  0
 10 12  1  0
 10 11  1  6
 12 14  1  0
 12 13  1  1
 14 15  2  0
 14 16  1  0
 16 17  1  0
 17 25  1  0
 17 18  1  1
 19 18  1  0
 19 20  2  0
 21 20  1  0
 22 21  2  0
 23 24  2  0
 23 22  1  0
 24 19  1  0
 25 26  1  0
 27 25  2  0
M  END
$$$$
