VIF.pdb
     RDKit          3D

 27 27  0  0  1  0  0  0  0  0999 V2000
    8.1289  -20.2526   22.4194 C   0  0  0  0  0  0  0  0  0  0  0  0
    6.8095  -19.6678   21.9532 C   0  0  2  0  0  0  0  0  0  0  0  0
    5.7996  -20.7748   21.7396 C   0  0  0  0  0  0  0  0  0  0  0  0
    6.9918  -18.8234   20.7104 C   0  0  2  0  0  0  0  0  0  0  0  0
    7.3416  -19.5838   19.5600 N   0  0  0  0  0  0  0  0  0  0  0  0
    7.9778  -17.7598   21.0373 C   0  0  0  0  0  0  0  0  0  0  0  0
    9.2085  -17.9562   20.8621 O   0  0  0  0  0  0  0  0  0  0  0  0
    6.7320  -12.6913   19.8768 C   0  0  0  0  0  0  0  0  0  0  0  0
    7.5272  -13.9299   20.1325 C   0  0  0  0  0  0  0  0  0  0  0  0
    7.9101  -14.1186   21.5773 C   0  0  2  0  0  0  0  0  0  0  0  0
    8.6883  -12.9324   22.0426 C   0  0  0  0  0  0  0  0  0  0  0  0
    8.5649  -15.4342   21.8201 C   0  0  2  0  0  0  0  0  0  0  0  0
    7.6015  -16.4842   21.5565 N   0  0  0  0  0  0  0  0  0  0  0  0
    8.9061  -15.4982   23.2870 C   0  0  0  0  0  0  0  0  0  0  0  0
    9.9608  -14.9803   23.7306 O   0  0  0  0  0  0  0  0  0  0  0  0
    8.0598  -16.1397   24.2216 N   0  0  0  0  0  0  0  0  0  0  0  0
    8.4479  -16.2135   25.6242 C   0  0  1  0  0  0  0  0  0  0  0  0
    7.3928  -15.6895   26.5259 C   0  0  0  0  0  0  0  0  0  0  0  0
    7.3676  -14.2136   26.5019 C   0  0  0  0  0  0  0  0  0  0  0  0
    8.4687  -13.4259   26.8056 C   0  0  0  0  0  0  0  0  0  0  0  0
    8.4578  -12.0548   26.7817 C   0  0  0  0  0  0  0  0  0  0  0  0
    7.2988  -11.3884   26.4395 C   0  0  0  0  0  0  0  0  0  0  0  0
    6.1948  -12.1412   26.1346 C   0  0  0  0  0  0  0  0  0  0  0  0
    6.2025  -13.5175   26.1576 C   0  0  0  0  0  0  0  0  0  0  0  0
    8.8301  -17.5948   25.9337 C   0  0  0  0  0  0  0  0  0  0  0  0
    9.2976  -17.9259   27.1881 O   0  0  0  0  0  0  0  0  0  0  0  0
    8.7417  -18.4912   25.0788 O   0  0  0  0  0  0  0  0  0  0  0  0
  2  1  1  6
  3  2  1  0
  4  2  1  0
  4  6  1  0
  4  5  1  6
  6  7  2  0
  6 13  1  0
  8  9  1  0
  9 10  1  0
 10 12  1  0
 10 11  1  6
 12 14  1  0
 12 13  1  1
 14 15  2  0
 14 16  1  0
 16 17  1  0
 17 25  1  0
 17 18  1  1
 19 18  1  0
 19 20  2  0
 21 20  1  0
 22 21  2  0
 23 24  2  0
 23 22  1  0
 24 19  1  0
 25 26  1  0
 27 25  2  0
M  END
$$$$
