VIF.pdb
     RDKit          3D

 27 27  0  0  1  0  0  0  0  0999 V2000
   11.5309  -19.2424   21.4571 C   0  0  0  0  0  0  0  0  0  0  0  0
   10.7659  -18.8597   20.2047 C   0  0  2  0  0  0  0  0  0  0  0  0
   10.9504  -19.9209   19.1413 C   0  0  0  0  0  0  0  0  0  0  0  0
   11.1735  -17.4887   19.7097 C   0  0  2  0  0  0  0  0  0  0  0  0
   12.5556  -17.3957   19.3852 N   0  0  0  0  0  0  0  0  0  0  0  0
   10.7393  -16.5006   20.7321 C   0  0  0  0  0  0  0  0  0  0  0  0
   11.5492  -16.0856   21.6015 O   0  0  0  0  0  0  0  0  0  0  0  0
    7.0613  -12.5522   19.6575 C   0  0  0  0  0  0  0  0  0  0  0  0
    8.2059  -13.3417   20.2040 C   0  0  0  0  0  0  0  0  0  0  0  0
    7.8201  -14.2793   21.3184 C   0  0  2  0  0  0  0  0  0  0  0  0
    7.0623  -13.5249   22.3604 C   0  0  0  0  0  0  0  0  0  0  0  0
    8.9827  -15.0585   21.8278 C   0  0  2  0  0  0  0  0  0  0  0  0
    9.4132  -15.9751   20.7911 N   0  0  0  0  0  0  0  0  0  0  0  0
    8.4894  -15.8907   22.9839 C   0  0  0  0  0  0  0  0  0  0  0  0
    8.0274  -17.0443   22.8018 O   0  0  0  0  0  0  0  0  0  0  0  0
    8.5248  -15.4125   24.3148 N   0  0  0  0  0  0  0  0  0  0  0  0
    8.2094  -16.3094   25.4192 C   0  0  1  0  0  0  0  0  0  0  0  0
    8.3735  -15.6524   26.7390 C   0  0  0  0  0  0  0  0  0  0  0  0
    7.7061  -14.3357   26.7562 C   0  0  0  0  0  0  0  0  0  0  0  0
    6.3347  -14.1762   26.8946 C   0  0  0  0  0  0  0  0  0  0  0  0
    5.7051  -12.9582   26.9168 C   0  0  0  0  0  0  0  0  0  0  0  0
    6.4508  -11.8033   26.7966 C   0  0  0  0  0  0  0  0  0  0  0  0
    7.8086  -11.9304   26.6584 C   0  0  0  0  0  0  0  0  0  0  0  0
    8.4435  -13.1515   26.6358 C   0  0  0  0  0  0  0  0  0  0  0  0
    6.8626  -16.8515   25.2140 C   0  0  0  0  0  0  0  0  0  0  0  0
    6.0611  -16.3668   24.2019 O   0  0  0  0  0  0  0  0  0  0  0  0
    6.4168  -17.7533   25.9423 O   0  0  0  0  0  0  0  0  0  0  0  0
  2  1  1  1
  3  2  1  0
  4  2  1  0
  4  6  1  0
  4  5  1  1
  6  7  2  0
  6 13  1  0
  8  9  1  0
  9 10  1  0
 10 12  1  0
 10 11  1  1
 12 14  1  0
 12 13  1  6
 14 15  2  0
 14 16  1  0
 16 17  1  0
 17 25  1  0
 17 18  1  1
 19 18  1  0
 19 20  2  0
 21 20  1  0
 22 21  2  0
 23 24  2  0
 23 22  1  0
 24 19  1  0
 25 26  1  0
 27 25  2  0
M  END
$$$$
