VIF.pdb
     RDKit          3D

 27 27  0  0  1  0  0  0  0  0999 V2000
    4.3971  -19.9072   22.0924 C   0  0  0  0  0  0  0  0  0  0  0  0
    5.6220  -19.0346   22.2882 C   0  0  2  0  0  0  0  0  0  0  0  0
    5.4567  -18.1814   23.5274 C   0  0  0  0  0  0  0  0  0  0  0  0
    5.9009  -18.1960   21.0594 C   0  0  2  0  0  0  0  0  0  0  0  0
    6.0113  -18.9645   19.8672 N   0  0  0  0  0  0  0  0  0  0  0  0
    7.1068  -17.3754   21.3466 C   0  0  0  0  0  0  0  0  0  0  0  0
    8.2378  -17.9182   21.4475 O   0  0  0  0  0  0  0  0  0  0  0  0
    7.3625  -12.3947   19.3154 C   0  0  0  0  0  0  0  0  0  0  0  0
    7.6966  -13.7557   19.8331 C   0  0  0  0  0  0  0  0  0  0  0  0
    8.0157  -13.7843   21.3052 C   0  0  2  0  0  0  0  0  0  0  0  0
    9.1225  -12.8237   21.5910 C   0  0  0  0  0  0  0  0  0  0  0  0
    8.2401  -15.1686   21.8070 C   0  0  2  0  0  0  0  0  0  0  0  0
    7.0595  -15.9593   21.5217 N   0  0  0  0  0  0  0  0  0  0  0  0
    8.3699  -15.0836   23.3064 C   0  0  0  0  0  0  0  0  0  0  0  0
    7.7407  -14.2179   23.9637 O   0  0  0  0  0  0  0  0  0  0  0  0
    9.1998  -15.9685   24.0339 N   0  0  0  0  0  0  0  0  0  0  0  0
    9.3114  -15.8381   25.4809 C   0  0  1  0  0  0  0  0  0  0  0  0
    7.9917  -15.9155   26.1539 C   0  0  0  0  0  0  0  0  0  0  0  0
    7.4749  -14.5653   26.4524 C   0  0  0  0  0  0  0  0  0  0  0  0
    6.1283  -14.2345   26.4025 C   0  0  0  0  0  0  0  0  0  0  0  0
    5.6371  -12.9851   26.6825 C   0  0  0  0  0  0  0  0  0  0  0  0
    6.5070  -11.9747   27.0380 C   0  0  0  0  0  0  0  0  0  0  0  0
    7.8437  -12.2727   27.0953 C   0  0  0  0  0  0  0  0  0  0  0  0
    8.3400  -13.5256   26.8150 C   0  0  0  0  0  0  0  0  0  0  0  0
   10.2626  -16.8407   25.9709 C   0  0  0  0  0  0  0  0  0  0  0  0
   10.6581  -16.8415   27.2920 O   0  0  0  0  0  0  0  0  0  0  0  0
   10.7298  -17.7056   25.2121 O   0  0  0  0  0  0  0  0  0  0  0  0
  2  1  1  6
  3  2  1  0
  4  2  1  0
  4  6  1  0
  4  5  1  6
  6  7  2  0
  6 13  1  0
  8  9  1  0
  9 10  1  0
 10 12  1  0
 10 11  1  6
 12 14  1  0
 12 13  1  1
 14 15  2  0
 14 16  1  0
 16 17  1  0
 17 25  1  0
 17 18  1  1
 19 18  1  0
 19 20  2  0
 21 20  1  0
 22 21  2  0
 23 24  2  0
 23 22  1  0
 24 19  1  0
 25 26  1  0
 27 25  2  0
M  END
$$$$
