VIF.pdb
     RDKit          3D

 27 27  0  0  1  0  0  0  0  0999 V2000
    5.3410  -18.7668   23.0240 C   0  0  0  0  0  0  0  0  0  0  0  0
    4.5100  -17.8199   22.1796 C   0  0  2  0  0  0  0  0  0  0  0  0
    3.0789  -18.3081   22.1112 C   0  0  0  0  0  0  0  0  0  0  0  0
    5.1112  -17.6412   20.8021 C   0  0  2  0  0  0  0  0  0  0  0  0
    5.1260  -18.8393   20.0351 N   0  0  0  0  0  0  0  0  0  0  0  0
    6.4580  -17.0377   20.9807 C   0  0  0  0  0  0  0  0  0  0  0  0
    7.4853  -17.7648   20.9948 O   0  0  0  0  0  0  0  0  0  0  0  0
    7.6028  -12.1635   18.9979 C   0  0  0  0  0  0  0  0  0  0  0  0
    7.6709  -13.5665   19.5068 C   0  0  0  0  0  0  0  0  0  0  0  0
    8.0018  -13.6655   20.9732 C   0  0  2  0  0  0  0  0  0  0  0  0
    9.2788  -12.9403   21.2429 C   0  0  0  0  0  0  0  0  0  0  0  0
    7.9605  -15.0700   21.4672 C   0  0  2  0  0  0  0  0  0  0  0  0
    6.6657  -15.6347   21.1432 N   0  0  0  0  0  0  0  0  0  0  0  0
    8.0619  -15.0170   22.9703 C   0  0  0  0  0  0  0  0  0  0  0  0
    7.5000  -14.1051   23.6262 O   0  0  0  0  0  0  0  0  0  0  0  0
    8.7888  -15.9846   23.7027 N   0  0  0  0  0  0  0  0  0  0  0  0
    8.8226  -15.9218   25.1581 C   0  0  1  0  0  0  0  0  0  0  0  0
    7.4627  -15.8661   25.7483 C   0  0  0  0  0  0  0  0  0  0  0  0
    7.1491  -14.5013   26.2156 C   0  0  0  0  0  0  0  0  0  0  0  0
    8.1151  -13.5330   26.4489 C   0  0  0  0  0  0  0  0  0  0  0  0
    7.8346  -12.2611   26.8781 C   0  0  0  0  0  0  0  0  0  0  0  0
    6.5241  -11.8904   27.1007 C   0  0  0  0  0  0  0  0  0  0  0  0
    5.5483  -12.8270   26.8786 C   0  0  0  0  0  0  0  0  0  0  0  0
    5.8265  -14.1044   26.4478 C   0  0  0  0  0  0  0  0  0  0  0  0
    9.6171  -17.0480   25.6585 C   0  0  0  0  0  0  0  0  0  0  0  0
   10.1016  -18.0021   24.7887 O   0  0  0  0  0  0  0  0  0  0  0  0
    9.8698  -17.1666   26.8686 O   0  0  0  0  0  0  0  0  0  0  0  0
  2  1  1  1
  3  2  1  0
  4  2  1  0
  4  6  1  0
  4  5  1  1
  6  7  2  0
  6 13  1  0
  8  9  1  0
  9 10  1  0
 10 12  1  0
 10 11  1  6
 12 14  1  0
 12 13  1  1
 14 15  2  0
 14 16  1  0
 16 17  1  0
 17 25  1  0
 17 18  1  1
 19 18  1  0
 19 20  2  0
 21 20  1  0
 22 21  2  0
 23 24  2  0
 23 22  1  0
 24 19  1  0
 25 26  1  0
 27 25  2  0
M  END
$$$$
