CEF.pdb
     RDKit          3D

 27 27  0  0  1  0  0  0  0  0999 V2000
   18.5523  -11.6024  -16.3938 N   0  0  0  0  0  0  0  0  0  0  0  0
   17.8016  -10.5220  -15.8048 C   0  0  1  0  0  0  0  0  0  0  0  0
   16.4277  -10.9296  -15.3649 C   0  0  0  0  0  0  0  0  0  0  0  0
   15.3272  -11.4583  -16.6707 S   0  0  0  0  0  0  0  0  0  0  0  0
   18.5979   -9.9078  -14.7244 C   0  0  0  0  0  0  0  0  0  0  0  0
   19.4029  -10.5583  -14.0030 O   0  0  0  0  0  0  0  0  0  0  0  0
   18.4875   -8.5229  -14.4436 N   0  0  0  0  0  0  0  0  0  0  0  0
   19.2988   -7.8031  -13.4947 C   0  0  1  0  0  0  0  0  0  0  0  0
   19.9110   -6.5489  -13.9847 C   0  0  0  0  0  0  0  0  0  0  0  0
   20.7490   -5.8086  -13.0086 C   0  0  0  0  0  0  0  0  0  0  0  0
   21.2897   -4.5747  -13.6552 C   0  0  0  0  0  0  0  0  0  0  0  0
   21.0878   -3.4079  -13.1583 O   0  0  0  0  0  0  0  0  0  0  0  0
   18.6447   -7.7082  -12.1499 C   0  0  0  0  0  0  0  0  0  0  0  0
   19.2387   -7.2558  -11.1447 O   0  0  0  0  0  0  0  0  0  0  0  0
   22.0407   -4.5993  -14.8229 O   0  0  0  0  0  0  0  0  0  0  0  0
   17.3022   -8.1347  -11.9461 N   0  0  0  0  0  0  0  0  0  0  0  0
   16.6031   -8.0767  -10.6801 C   0  0  1  0  0  0  0  0  0  0  0  0
   15.9366   -6.7336  -10.4871 C   0  0  0  0  0  0  0  0  0  0  0  0
   15.1424   -6.6500   -9.2619 C   0  0  0  0  0  0  0  0  0  0  0  0
   13.7658   -6.7592   -9.3392 C   0  0  0  0  0  0  0  0  0  0  0  0
   13.0515   -6.6869   -8.1634 C   0  0  0  0  0  0  0  0  0  0  0  0
   13.6302   -6.5134   -6.9221 C   0  0  0  0  0  0  0  0  0  0  0  0
   15.0158   -6.4042   -6.8494 C   0  0  0  0  0  0  0  0  0  0  0  0
   15.7384   -6.4749   -8.0189 C   0  0  0  0  0  0  0  0  0  0  0  0
   15.6631   -9.2183  -10.6127 C   0  0  0  0  0  0  0  0  0  0  0  0
   15.1297   -9.6191  -11.6997 O   0  0  0  0  0  0  0  0  0  0  0  0
   15.3174   -9.8872   -9.4507 O   0  0  0  0  0  0  0  0  0  0  0  0
  2  1  1  1
  3  2  1  0
  4  3  1  0
  5  6  2  0
  5  2  1  0
  7  5  1  0
  8  7  1  0
  8  9  1  6
 10  9  1  0
 11 10  1  0
 12 11  2  0
 13  8  1  0
 14 13  2  0
 15 11  1  0
 16 13  1  0
 17 18  1  6
 17 16  1  0
 18 19  1  0
 19 24  2  0
 19 20  1  0
 20 21  2  0
 21 22  1  0
 23 22  2  0
 24 23  1  0
 25 17  1  0
 26 25  2  0
 27 25  1  0
M  END
$$$$
