CEF.pdb
     RDKit          3D

 27 27  0  0  1  0  0  0  0  0999 V2000
   26.7179  -10.3178  -18.3708 N   0  0  0  0  0  0  0  0  0  0  0  0
   25.8144  -10.7924  -17.3528 C   0  0  1  0  0  0  0  0  0  0  0  0
   26.4181  -10.7895  -15.9806 C   0  0  0  0  0  0  0  0  0  0  0  0
   27.7017  -12.0021  -15.7024 S   0  0  0  0  0  0  0  0  0  0  0  0
   24.5503  -10.0346  -17.4317 C   0  0  0  0  0  0  0  0  0  0  0  0
   24.4887   -8.8280  -17.7951 O   0  0  0  0  0  0  0  0  0  0  0  0
   23.3183  -10.6475  -17.0918 N   0  0  0  0  0  0  0  0  0  0  0  0
   22.0430   -9.9776  -17.0529 C   0  0  1  0  0  0  0  0  0  0  0  0
   20.8977  -10.7307  -17.6089 C   0  0  0  0  0  0  0  0  0  0  0  0
   19.5908  -10.0270  -17.6023 C   0  0  0  0  0  0  0  0  0  0  0  0
   18.5568  -10.8964  -18.2410 C   0  0  0  0  0  0  0  0  0  0  0  0
   18.2379  -10.7689  -19.4784 O   0  0  0  0  0  0  0  0  0  0  0  0
   21.7902   -9.3211  -15.7299 C   0  0  0  0  0  0  0  0  0  0  0  0
   21.9925   -9.9052  -14.6409 O   0  0  0  0  0  0  0  0  0  0  0  0
   17.8764  -11.8927  -17.5537 O   0  0  0  0  0  0  0  0  0  0  0  0
   21.2995   -7.9878  -15.6449 N   0  0  0  0  0  0  0  0  0  0  0  0
   21.1600   -7.2386  -14.4145 C   0  0  1  0  0  0  0  0  0  0  0  0
   22.5049   -6.7723  -13.9053 C   0  0  0  0  0  0  0  0  0  0  0  0
   23.1619   -5.8140  -14.7933 C   0  0  0  0  0  0  0  0  0  0  0  0
   22.8215   -4.4756  -14.7151 C   0  0  0  0  0  0  0  0  0  0  0  0
   23.4692   -3.6007  -15.5595 C   0  0  0  0  0  0  0  0  0  0  0  0
   24.4321   -3.9836  -16.4716 C   0  0  0  0  0  0  0  0  0  0  0  0
   24.7713   -5.3313  -16.5464 C   0  0  0  0  0  0  0  0  0  0  0  0
   24.1295   -6.2136  -15.7071 C   0  0  0  0  0  0  0  0  0  0  0  0
   20.2004   -6.1353  -14.6453 C   0  0  0  0  0  0  0  0  0  0  0  0
   19.8402   -5.8970  -15.8454 O   0  0  0  0  0  0  0  0  0  0  0  0
   19.6617   -5.3379  -13.6499 O   0  0  0  0  0  0  0  0  0  0  0  0
  2  1  1  6
  3  2  1  0
  4  3  1  0
  5  6  2  0
  5  2  1  0
  7  5  1  0
  8  7  1  0
  8  9  1  1
 10  9  1  0
 11 10  1  0
 12 11  2  0
 13  8  1  0
 14 13  2  0
 15 11  1  0
 16 13  1  0
 17 18  1  6
 17 16  1  0
 18 19  1  0
 19 24  2  0
 19 20  1  0
 20 21  2  0
 21 22  1  0
 23 22  2  0
 24 23  1  0
 25 17  1  0
 26 25  2  0
 27 25  1  0
M  END
$$$$
