CEF.pdb
     RDKit          3D

 27 27  0  0  1  0  0  0  0  0999 V2000
   25.2296  -14.3804  -17.8097 N   0  0  0  0  0  0  0  0  0  0  0  0
   24.8100  -13.6164  -16.6617 C   0  0  1  0  0  0  0  0  0  0  0  0
   25.9519  -12.9837  -15.9248 C   0  0  0  0  0  0  0  0  0  0  0  0
   27.2241  -14.1084  -15.3661 S   0  0  0  0  0  0  0  0  0  0  0  0
   23.7770  -12.6458  -17.0735 C   0  0  0  0  0  0  0  0  0  0  0  0
   23.9382  -11.8219  -18.0152 O   0  0  0  0  0  0  0  0  0  0  0  0
   22.5260  -12.5968  -16.4089 N   0  0  0  0  0  0  0  0  0  0  0  0
   21.4486  -11.6978  -16.7371 C   0  0  1  0  0  0  0  0  0  0  0  0
   20.1046  -12.3068  -16.8403 C   0  0  0  0  0  0  0  0  0  0  0  0
   20.0672  -13.7413  -17.2197 C   0  0  0  0  0  0  0  0  0  0  0  0
   19.5659  -14.5463  -16.0648 C   0  0  0  0  0  0  0  0  0  0  0  0
   19.5452  -14.0739  -14.8708 O   0  0  0  0  0  0  0  0  0  0  0  0
   21.5119  -10.4277  -15.9446 C   0  0  0  0  0  0  0  0  0  0  0  0
   22.2986  -10.2749  -14.9825 O   0  0  0  0  0  0  0  0  0  0  0  0
   19.0911  -15.8444  -16.1965 O   0  0  0  0  0  0  0  0  0  0  0  0
   20.6697   -9.3212  -16.2480 N   0  0  0  0  0  0  0  0  0  0  0  0
   20.7454   -8.0276  -15.6033 C   0  0  1  0  0  0  0  0  0  0  0  0
   22.1599   -7.4944  -15.6166 C   0  0  0  0  0  0  0  0  0  0  0  0
   22.2713   -6.1301  -15.1020 C   0  0  0  0  0  0  0  0  0  0  0  0
   22.0395   -5.8923  -13.7593 C   0  0  0  0  0  0  0  0  0  0  0  0
   22.1646   -4.5966  -13.3084 C   0  0  0  0  0  0  0  0  0  0  0  0
   22.5066   -3.5311  -14.1169 C   0  0  0  0  0  0  0  0  0  0  0  0
   22.7391   -3.7754  -15.4672 C   0  0  0  0  0  0  0  0  0  0  0  0
   22.6163   -5.0669  -15.9276 C   0  0  0  0  0  0  0  0  0  0  0  0
   19.7672   -7.1247  -16.2507 C   0  0  0  0  0  0  0  0  0  0  0  0
   18.9372   -6.5078  -15.5042 O   0  0  0  0  0  0  0  0  0  0  0  0
   19.6852   -6.8988  -17.6143 O   0  0  0  0  0  0  0  0  0  0  0  0
  2  1  1  6
  3  2  1  0
  4  3  1  0
  5  6  2  0
  5  2  1  0
  7  5  1  0
  8  7  1  0
  8  9  1  1
 10  9  1  0
 11 10  1  0
 12 11  2  0
 13  8  1  0
 14 13  2  0
 15 11  1  0
 16 13  1  0
 17 18  1  6
 17 16  1  0
 18 19  1  0
 19 24  2  0
 19 20  1  0
 20 21  2  0
 21 22  1  0
 23 22  2  0
 24 23  1  0
 25 17  1  0
 26 25  2  0
 27 25  1  0
M  END
$$$$
