CEF.pdb
     RDKit          3D

 27 27  0  0  1  0  0  0  0  0999 V2000
   11.0781  -11.2324  -10.2445 N   0  0  0  0  0  0  0  0  0  0  0  0
   11.4541   -9.8547  -10.4408 C   0  0  1  0  0  0  0  0  0  0  0  0
   11.5055   -9.0698   -9.1647 C   0  0  0  0  0  0  0  0  0  0  0  0
   10.0535   -8.0912   -8.8046 S   0  0  0  0  0  0  0  0  0  0  0  0
   12.7142   -9.7983  -11.2074 C   0  0  0  0  0  0  0  0  0  0  0  0
   13.7629  -10.4078  -10.8602 O   0  0  0  0  0  0  0  0  0  0  0  0
   12.8016   -9.0347  -12.3983 N   0  0  0  0  0  0  0  0  0  0  0  0
   13.9954   -8.8651  -13.1875 C   0  0  1  0  0  0  0  0  0  0  0  0
   13.8090   -8.8724  -14.6549 C   0  0  0  0  0  0  0  0  0  0  0  0
   15.0453   -8.7618  -15.4688 C   0  0  0  0  0  0  0  0  0  0  0  0
   14.6858   -8.7685  -16.9192 C   0  0  0  0  0  0  0  0  0  0  0  0
   14.4383   -7.6827  -17.5587 O   0  0  0  0  0  0  0  0  0  0  0  0
   14.8676   -7.7655  -12.6630 C   0  0  0  0  0  0  0  0  0  0  0  0
   14.4185   -6.6338  -12.3702 O   0  0  0  0  0  0  0  0  0  0  0  0
   14.5960   -9.9322  -17.6713 O   0  0  0  0  0  0  0  0  0  0  0  0
   16.2653   -7.9542  -12.4721 N   0  0  0  0  0  0  0  0  0  0  0  0
   17.1771   -6.9341  -12.0000 C   0  0  1  0  0  0  0  0  0  0  0  0
   17.7042   -7.2694  -10.6235 C   0  0  0  0  0  0  0  0  0  0  0  0
   16.6974   -7.1461   -9.5699 C   0  0  0  0  0  0  0  0  0  0  0  0
   16.3370   -5.8880   -9.1225 C   0  0  0  0  0  0  0  0  0  0  0  0
   15.3774   -5.8103   -8.1370 C   0  0  0  0  0  0  0  0  0  0  0  0
   14.7604   -6.9109   -7.5767 C   0  0  0  0  0  0  0  0  0  0  0  0
   15.1263   -8.1747   -8.0304 C   0  0  0  0  0  0  0  0  0  0  0  0
   16.0846   -8.2628   -9.0147 C   0  0  0  0  0  0  0  0  0  0  0  0
   18.2415   -6.7537  -13.0129 C   0  0  0  0  0  0  0  0  0  0  0  0
   19.1053   -5.8362  -12.8160 O   0  0  0  0  0  0  0  0  0  0  0  0
   18.3700   -7.5109  -14.1648 O   0  0  0  0  0  0  0  0  0  0  0  0
  2  1  1  1
  3  2  1  0
  4  3  1  0
  5  6  2  0
  5  2  1  0
  7  5  1  0
  8  7  1  0
  8  9  1  6
 10  9  1  0
 11 10  1  0
 12 11  2  0
 13  8  1  0
 14 13  2  0
 15 11  1  0
 16 13  1  0
 17 18  1  1
 17 16  1  0
 18 19  1  0
 19 24  2  0
 19 20  1  0
 20 21  2  0
 21 22  1  0
 23 22  2  0
 24 23  1  0
 25 17  1  0
 26 25  2  0
 27 25  1  0
M  END
$$$$
