CEF.pdb
     RDKit          3D

 27 27  0  0  1  0  0  0  0  0999 V2000
   25.5978  -37.7005   -2.8926 N   0  0  0  0  0  0  0  0  0  0  0  0
   26.7870  -37.1254   -2.3156 C   0  0  1  0  0  0  0  0  0  0  0  0
   27.2306  -35.8711   -3.0064 C   0  0  0  0  0  0  0  0  0  0  0  0
   26.0613  -35.1778   -4.1674 S   0  0  0  0  0  0  0  0  0  0  0  0
   26.5874  -36.9482   -0.8639 C   0  0  0  0  0  0  0  0  0  0  0  0
   25.6586  -37.5089   -0.2200 O   0  0  0  0  0  0  0  0  0  0  0  0
   27.4544  -36.1166   -0.1118 N   0  0  0  0  0  0  0  0  0  0  0  0
   27.5293  -36.0845    1.3270 C   0  0  1  0  0  0  0  0  0  0  0  0
   28.8875  -36.1651    1.9075 C   0  0  0  0  0  0  0  0  0  0  0  0
   29.6147  -37.4403    1.6880 C   0  0  0  0  0  0  0  0  0  0  0  0
   31.0642  -37.1522    1.4669 C   0  0  0  0  0  0  0  0  0  0  0  0
   31.8271  -36.7554    2.4207 O   0  0  0  0  0  0  0  0  0  0  0  0
   26.6486  -35.0244    1.9147 C   0  0  0  0  0  0  0  0  0  0  0  0
   26.5975  -34.8002    3.1456 O   0  0  0  0  0  0  0  0  0  0  0  0
   31.6839  -37.2921    0.2322 O   0  0  0  0  0  0  0  0  0  0  0  0
   25.8155  -34.2130    1.0942 N   0  0  0  0  0  0  0  0  0  0  0  0
   24.9281  -33.1813    1.5871 C   0  0  1  0  0  0  0  0  0  0  0  0
   24.0465  -32.6471    0.4813 C   0  0  0  0  0  0  0  0  0  0  0  0
   24.7979  -32.1126   -0.6537 C   0  0  0  0  0  0  0  0  0  0  0  0
   24.9318  -32.8786   -1.7976 C   0  0  0  0  0  0  0  0  0  0  0  0
   25.6368  -32.3378   -2.8504 C   0  0  0  0  0  0  0  0  0  0  0  0
   26.2116  -31.0829   -2.8266 C   0  0  0  0  0  0  0  0  0  0  0  0
   26.0740  -30.3158   -1.6735 C   0  0  0  0  0  0  0  0  0  0  0  0
   25.3715  -30.8475   -0.6157 C   0  0  0  0  0  0  0  0  0  0  0  0
   24.1705  -33.7263    2.7361 C   0  0  0  0  0  0  0  0  0  0  0  0
   23.6216  -34.8698    2.6025 O   0  0  0  0  0  0  0  0  0  0  0  0
   24.0120  -33.0835    3.9521 O   0  0  0  0  0  0  0  0  0  0  0  0
  2  1  1  6
  3  2  1  0
  4  3  1  0
  5  6  2  0
  5  2  1  0
  7  5  1  0
  8  7  1  0
  8  9  1  6
 10  9  1  0
 11 10  1  0
 12 11  2  0
 13  8  1  0
 14 13  2  0
 15 11  1  0
 16 13  1  0
 17 18  1  6
 17 16  1  0
 18 19  1  0
 19 24  2  0
 19 20  1  0
 20 21  2  0
 21 22  1  0
 23 22  2  0
 24 23  1  0
 25 17  1  0
 26 25  2  0
 27 25  1  0
M  END
$$$$
