CEF.pdb
     RDKit          3D

 27 27  0  0  1  0  0  0  0  0999 V2000
   17.6053   -1.6601  -17.0070 N   0  0  0  0  0  0  0  0  0  0  0  0
   18.9298   -2.2253  -17.0704 C   0  0  1  0  0  0  0  0  0  0  0  0
   19.9869   -1.3138  -16.5234 C   0  0  0  0  0  0  0  0  0  0  0  0
   21.4630   -1.1624  -17.5203 S   0  0  0  0  0  0  0  0  0  0  0  0
   18.9231   -3.5552  -16.4302 C   0  0  0  0  0  0  0  0  0  0  0  0
   18.5452   -3.7490  -15.2422 O   0  0  0  0  0  0  0  0  0  0  0  0
   19.3540   -4.7021  -17.1428 N   0  0  0  0  0  0  0  0  0  0  0  0
   19.4156   -6.0372  -16.6039 C   0  0  1  0  0  0  0  0  0  0  0  0
   18.2923   -6.9320  -16.9583 C   0  0  0  0  0  0  0  0  0  0  0  0
   17.0488   -6.7610  -16.1661 C   0  0  0  0  0  0  0  0  0  0  0  0
   16.0329   -7.7599  -16.6169 C   0  0  0  0  0  0  0  0  0  0  0  0
   14.9784   -7.4077  -17.2596 O   0  0  0  0  0  0  0  0  0  0  0  0
   20.7793   -6.6415  -16.7470 C   0  0  0  0  0  0  0  0  0  0  0  0
   21.5792   -6.2890  -17.6436 O   0  0  0  0  0  0  0  0  0  0  0  0
   16.1540   -9.1225  -16.3789 O   0  0  0  0  0  0  0  0  0  0  0  0
   21.2364   -7.6589  -15.8630 N   0  0  0  0  0  0  0  0  0  0  0  0
   22.4721   -8.3951  -16.0236 C   0  0  1  0  0  0  0  0  0  0  0  0
   23.5510   -7.8536  -15.1136 C   0  0  0  0  0  0  0  0  0  0  0  0
   24.7986   -8.6141  -15.1751 C   0  0  0  0  0  0  0  0  0  0  0  0
   25.7749   -8.2403  -16.0806 C   0  0  0  0  0  0  0  0  0  0  0  0
   26.9413   -8.9731  -16.1023 C   0  0  0  0  0  0  0  0  0  0  0  0
   27.1871  -10.0511  -15.2757 C   0  0  0  0  0  0  0  0  0  0  0  0
   26.2017  -10.4233  -14.3660 C   0  0  0  0  0  0  0  0  0  0  0  0
   25.0324   -9.6975  -14.3369 C   0  0  0  0  0  0  0  0  0  0  0  0
   22.1898   -9.8332  -15.8152 C   0  0  0  0  0  0  0  0  0  0  0  0
   22.6109  -10.6587  -16.6915 O   0  0  0  0  0  0  0  0  0  0  0  0
   21.4984  -10.3522  -14.7337 O   0  0  0  0  0  0  0  0  0  0  0  0
  2  1  1  1
  3  2  1  0
  4  3  1  0
  5  6  2  0
  5  2  1  0
  7  5  1  0
  8  7  1  0
  8  9  1  6
 10  9  1  0
 11 10  1  0
 12 11  2  0
 13  8  1  0
 14 13  2  0
 15 11  1  0
 16 13  1  0
 17 18  1  1
 17 16  1  0
 18 19  1  0
 19 24  2  0
 19 20  1  0
 20 21  2  0
 21 22  1  0
 23 22  2  0
 24 23  1  0
 25 17  1  0
 26 25  2  0
 27 25  1  0
M  END
$$$$
