CEF.pdb
     RDKit          3D

 27 27  0  0  1  0  0  0  0  0999 V2000
   19.8856  -11.4091  -17.7621 N   0  0  0  0  0  0  0  0  0  0  0  0
   19.1155  -10.7293  -16.7508 C   0  0  1  0  0  0  0  0  0  0  0  0
   19.1723  -11.4041  -15.4134 C   0  0  0  0  0  0  0  0  0  0  0  0
   18.0480  -10.7631  -14.1802 S   0  0  0  0  0  0  0  0  0  0  0  0
   19.5199   -9.3107  -16.7022 C   0  0  0  0  0  0  0  0  0  0  0  0
   20.7222   -8.9320  -16.7551 O   0  0  0  0  0  0  0  0  0  0  0  0
   18.5473   -8.2858  -16.5896 N   0  0  0  0  0  0  0  0  0  0  0  0
   18.8320   -6.8733  -16.5629 C   0  0  1  0  0  0  0  0  0  0  0  0
   17.8248   -5.9967  -17.1993 C   0  0  0  0  0  0  0  0  0  0  0  0
   18.1710   -4.5553  -17.2753 C   0  0  0  0  0  0  0  0  0  0  0  0
   17.0492   -3.8098  -17.9224 C   0  0  0  0  0  0  0  0  0  0  0  0
   16.7046   -4.0313  -19.1396 O   0  0  0  0  0  0  0  0  0  0  0  0
   19.3109   -6.4192  -15.2177 C   0  0  0  0  0  0  0  0  0  0  0  0
   18.6664   -6.6378  -14.1665 O   0  0  0  0  0  0  0  0  0  0  0  0
   16.3069   -2.8385  -17.2642 O   0  0  0  0  0  0  0  0  0  0  0  0
   20.5338   -5.7069  -15.0670 N   0  0  0  0  0  0  0  0  0  0  0  0
   20.9889   -5.1041  -13.8324 C   0  0  1  0  0  0  0  0  0  0  0  0
   22.0509   -5.9527  -13.1711 C   0  0  0  0  0  0  0  0  0  0  0  0
   22.9680   -6.5806  -14.1216 C   0  0  0  0  0  0  0  0  0  0  0  0
   23.0695   -7.9596  -14.1538 C   0  0  0  0  0  0  0  0  0  0  0  0
   23.9353   -8.5159  -15.0697 C   0  0  0  0  0  0  0  0  0  0  0  0
   24.7003   -7.7781  -15.9507 C   0  0  0  0  0  0  0  0  0  0  0  0
   24.5946   -6.3908  -15.9146 C   0  0  0  0  0  0  0  0  0  0  0  0
   23.7324   -5.8253  -15.0026 C   0  0  0  0  0  0  0  0  0  0  0  0
   21.4326   -3.7220  -14.1228 C   0  0  0  0  0  0  0  0  0  0  0  0
   21.7666   -2.9818  -13.1393 O   0  0  0  0  0  0  0  0  0  0  0  0
   21.5121   -3.1695  -15.3899 O   0  0  0  0  0  0  0  0  0  0  0  0
  2  1  1  6
  3  2  1  0
  4  3  1  0
  5  6  2  0
  5  2  1  0
  7  5  1  0
  8  7  1  0
  8  9  1  1
 10  9  1  0
 11 10  1  0
 12 11  2  0
 13  8  1  0
 14 13  2  0
 15 11  1  0
 16 13  1  0
 17 18  1  6
 17 16  1  0
 18 19  1  0
 19 24  2  0
 19 20  1  0
 20 21  2  0
 21 22  1  0
 23 22  2  0
 24 23  1  0
 25 17  1  0
 26 25  2  0
 27 25  1  0
M  END
$$$$
