CEF.pdb
     RDKit          3D

 27 27  0  0  1  0  0  0  0  0999 V2000
   27.9343  -24.0131  -18.1743 N   0  0  0  0  0  0  0  0  0  0  0  0
   26.6635  -24.2019  -17.5207 C   0  0  1  0  0  0  0  0  0  0  0  0
   26.4597  -25.6002  -17.0200 C   0  0  0  0  0  0  0  0  0  0  0  0
   27.5981  -26.1360  -15.7503 S   0  0  0  0  0  0  0  0  0  0  0  0
   26.5003  -23.1798  -16.4685 C   0  0  0  0  0  0  0  0  0  0  0  0
   27.4634  -22.5210  -15.9888 O   0  0  0  0  0  0  0  0  0  0  0  0
   25.2190  -22.8882  -15.9373 N   0  0  0  0  0  0  0  0  0  0  0  0
   24.9155  -21.7791  -15.0685 C   0  0  1  0  0  0  0  0  0  0  0  0
   23.5677  -21.1882  -15.2182 C   0  0  0  0  0  0  0  0  0  0  0  0
   23.2330  -20.0851  -14.2832 C   0  0  0  0  0  0  0  0  0  0  0  0
   21.8080  -19.6820  -14.4825 C   0  0  0  0  0  0  0  0  0  0  0  0
   21.0072  -19.5194  -13.4919 O   0  0  0  0  0  0  0  0  0  0  0  0
   25.3443  -22.0347  -13.6558 C   0  0  0  0  0  0  0  0  0  0  0  0
   25.1036  -23.1126  -13.0655 O   0  0  0  0  0  0  0  0  0  0  0  0
   21.2538  -19.4552  -15.7353 O   0  0  0  0  0  0  0  0  0  0  0  0
   26.0516  -21.0533  -12.9060 N   0  0  0  0  0  0  0  0  0  0  0  0
   26.3883  -21.1733  -11.5035 C   0  0  1  0  0  0  0  0  0  0  0  0
   27.6482  -20.4039  -11.1780 C   0  0  0  0  0  0  0  0  0  0  0  0
   27.9163  -20.3083   -9.7436 C   0  0  0  0  0  0  0  0  0  0  0  0
   27.2668  -19.3421   -8.9968 C   0  0  0  0  0  0  0  0  0  0  0  0
   27.5359  -19.2892   -7.6467 C   0  0  0  0  0  0  0  0  0  0  0  0
   28.4109  -20.1417   -7.0035 C   0  0  0  0  0  0  0  0  0  0  0  0
   29.0619  -21.1123   -7.7592 C   0  0  0  0  0  0  0  0  0  0  0  0
   28.7999  -21.1730   -9.1093 C   0  0  0  0  0  0  0  0  0  0  0  0
   25.2157  -20.7530  -10.7037 C   0  0  0  0  0  0  0  0  0  0  0  0
   24.4861  -19.8119  -11.1607 O   0  0  0  0  0  0  0  0  0  0  0  0
   24.8497  -21.3082   -9.4893 O   0  0  0  0  0  0  0  0  0  0  0  0
  2  1  1  1
  3  2  1  0
  4  3  1  0
  5  6  2  0
  5  2  1  0
  7  5  1  0
  8  7  1  0
  8  9  1  1
 10  9  1  0
 11 10  1  0
 12 11  2  0
 13  8  1  0
 14 13  2  0
 15 11  1  0
 16 13  1  0
 17 18  1  6
 17 16  1  0
 18 19  1  0
 19 24  2  0
 19 20  1  0
 20 21  2  0
 21 22  1  0
 23 22  2  0
 24 23  1  0
 25 17  1  0
 26 25  2  0
 27 25  1  0
M  END
$$$$
