CEF.pdb
     RDKit          3D

 27 27  0  0  1  0  0  0  0  0999 V2000
   28.1633  -18.0929  -15.0810 N   0  0  0  0  0  0  0  0  0  0  0  0
   27.9523  -19.3903  -14.4894 C   0  0  1  0  0  0  0  0  0  0  0  0
   29.2275  -20.1338  -14.2278 C   0  0  0  0  0  0  0  0  0  0  0  0
   30.1320  -19.6215  -12.7735 S   0  0  0  0  0  0  0  0  0  0  0  0
   27.1083  -19.2459  -13.2871 C   0  0  0  0  0  0  0  0  0  0  0  0
   27.0361  -18.1797  -12.6166 O   0  0  0  0  0  0  0  0  0  0  0  0
   26.3224  -20.3299  -12.8219 N   0  0  0  0  0  0  0  0  0  0  0  0
   25.4574  -20.2912  -11.6700 C   0  0  1  0  0  0  0  0  0  0  0  0
   24.0360  -20.6194  -11.9151 C   0  0  0  0  0  0  0  0  0  0  0  0
   23.1449  -20.5813  -10.7286 C   0  0  0  0  0  0  0  0  0  0  0  0
   21.7576  -20.9553  -11.1389 C   0  0  0  0  0  0  0  0  0  0  0  0
   21.4774  -22.1272  -11.5830 O   0  0  0  0  0  0  0  0  0  0  0  0
   26.0698  -20.9667  -10.4810 C   0  0  0  0  0  0  0  0  0  0  0  0
   27.0912  -21.6857  -10.5693 O   0  0  0  0  0  0  0  0  0  0  0  0
   20.6849  -20.0763  -11.0692 O   0  0  0  0  0  0  0  0  0  0  0  0
   25.5132  -20.8250   -9.1788 N   0  0  0  0  0  0  0  0  0  0  0  0
   26.2658  -20.9228   -7.9464 C   0  0  1  0  0  0  0  0  0  0  0  0
   27.2795  -19.8067   -7.8372 C   0  0  0  0  0  0  0  0  0  0  0  0
   28.0321  -19.8260   -6.5834 C   0  0  0  0  0  0  0  0  0  0  0  0
   27.8198  -18.8264   -5.6514 C   0  0  0  0  0  0  0  0  0  0  0  0
   28.5385  -18.8835   -4.4774 C   0  0  0  0  0  0  0  0  0  0  0  0
   29.4512  -19.8765   -4.1826 C   0  0  0  0  0  0  0  0  0  0  0  0
   29.6612  -20.8802   -5.1236 C   0  0  0  0  0  0  0  0  0  0  0  0
   28.9480  -20.8318   -6.3000 C   0  0  0  0  0  0  0  0  0  0  0  0
   25.3098  -20.9658   -6.8170 C   0  0  0  0  0  0  0  0  0  0  0  0
   25.7680  -21.2217   -5.6546 O   0  0  0  0  0  0  0  0  0  0  0  0
   23.9471  -20.7478   -6.9291 O   0  0  0  0  0  0  0  0  0  0  0  0
  2  1  1  1
  3  2  1  0
  4  3  1  0
  5  6  2  0
  5  2  1  0
  7  5  1  0
  8  7  1  0
  8  9  1  6
 10  9  1  0
 11 10  1  0
 12 11  2  0
 13  8  1  0
 14 13  2  0
 15 11  1  0
 16 13  1  0
 17 18  1  1
 17 16  1  0
 18 19  1  0
 19 24  2  0
 19 20  1  0
 20 21  2  0
 21 22  1  0
 23 22  2  0
 24 23  1  0
 25 17  1  0
 26 25  2  0
 27 25  1  0
M  END
$$$$
