CEF.pdb
     RDKit          3D

 27 27  0  0  1  0  0  0  0  0999 V2000
   19.5831  -10.2405  -23.0000 N   0  0  0  0  0  0  0  0  0  0  0  0
   19.0749  -10.1957  -21.6518 C   0  0  1  0  0  0  0  0  0  0  0  0
   18.8958  -11.5541  -21.0435 C   0  0  0  0  0  0  0  0  0  0  0  0
   17.8822  -12.6892  -21.9815 S   0  0  0  0  0  0  0  0  0  0  0  0
   19.9264   -9.3045  -20.8397 C   0  0  0  0  0  0  0  0  0  0  0  0
   21.1258   -9.0413  -21.1290 O   0  0  0  0  0  0  0  0  0  0  0  0
   19.4181   -8.6909  -19.6674 N   0  0  0  0  0  0  0  0  0  0  0  0
   20.1518   -7.7812  -18.8243 C   0  0  1  0  0  0  0  0  0  0  0  0
   19.3558   -6.7225  -18.1658 C   0  0  0  0  0  0  0  0  0  0  0  0
   20.1026   -5.8154  -17.2587 C   0  0  0  0  0  0  0  0  0  0  0  0
   19.1588   -4.8194  -16.6670 C   0  0  0  0  0  0  0  0  0  0  0  0
   17.9060   -4.8257  -16.9492 O   0  0  0  0  0  0  0  0  0  0  0  0
   21.1214   -8.4951  -17.9325 C   0  0  0  0  0  0  0  0  0  0  0  0
   20.7886   -9.4741  -17.2262 O   0  0  0  0  0  0  0  0  0  0  0  0
   19.5611   -3.8296  -15.7802 O   0  0  0  0  0  0  0  0  0  0  0  0
   22.4826   -8.0896  -17.8413 N   0  0  0  0  0  0  0  0  0  0  0  0
   23.4733   -8.7160  -16.9923 C   0  0  1  0  0  0  0  0  0  0  0  0
   24.5664   -9.3599  -17.8144 C   0  0  0  0  0  0  0  0  0  0  0  0
   25.6792   -9.8624  -17.0095 C   0  0  0  0  0  0  0  0  0  0  0  0
   26.9127   -9.2432  -17.0991 C   0  0  0  0  0  0  0  0  0  0  0  0
   27.9344   -9.7370  -16.3178 C   0  0  0  0  0  0  0  0  0  0  0  0
   27.7950  -10.8070  -15.4567 C   0  0  0  0  0  0  0  0  0  0  0  0
   26.5517  -11.4266  -15.3698 C   0  0  0  0  0  0  0  0  0  0  0  0
   25.5245  -10.9408  -16.1468 C   0  0  0  0  0  0  0  0  0  0  0  0
   23.9726   -7.7056  -16.0326 C   0  0  0  0  0  0  0  0  0  0  0  0
   24.0812   -8.0457  -14.8081 O   0  0  0  0  0  0  0  0  0  0  0  0
   24.3324   -6.4111  -16.3669 O   0  0  0  0  0  0  0  0  0  0  0  0
  2  1  1  6
  3  2  1  0
  4  3  1  0
  5  6  2  0
  5  2  1  0
  7  5  1  0
  8  7  1  0
  8  9  1  1
 10  9  1  0
 11 10  1  0
 12 11  2  0
 13  8  1  0
 14 13  2  0
 15 11  1  0
 16 13  1  0
 17 18  1  6
 17 16  1  0
 18 19  1  0
 19 24  2  0
 19 20  1  0
 20 21  2  0
 21 22  1  0
 23 22  2  0
 24 23  1  0
 25 17  1  0
 26 25  2  0
 27 25  1  0
M  END
$$$$
