CEF.pdb
     RDKit          3D

 27 27  0  0  1  0  0  0  0  0999 V2000
   21.1574  -15.4567  -16.1710 N   0  0  0  0  0  0  0  0  0  0  0  0
   21.1109  -14.8830  -17.4925 C   0  0  1  0  0  0  0  0  0  0  0  0
   20.7850  -15.8846  -18.5592 C   0  0  0  0  0  0  0  0  0  0  0  0
   21.8323  -17.3328  -18.6002 S   0  0  0  0  0  0  0  0  0  0  0  0
   20.1982  -13.7230  -17.4882 C   0  0  0  0  0  0  0  0  0  0  0  0
   20.0008  -12.9945  -18.4991 O   0  0  0  0  0  0  0  0  0  0  0  0
   19.4863  -13.3685  -16.3149 N   0  0  0  0  0  0  0  0  0  0  0  0
   18.5708  -12.2611  -16.2047 C   0  0  1  0  0  0  0  0  0  0  0  0
   17.1625  -12.6102  -15.9165 C   0  0  0  0  0  0  0  0  0  0  0  0
   16.6281  -13.7991  -16.6265 C   0  0  0  0  0  0  0  0  0  0  0  0
   15.2355  -14.0714  -16.1580 C   0  0  0  0  0  0  0  0  0  0  0  0
   14.6749  -13.3532  -15.2529 O   0  0  0  0  0  0  0  0  0  0  0  0
   19.1314  -11.1453  -15.3765 C   0  0  0  0  0  0  0  0  0  0  0  0
   19.2694  -11.2343  -14.1351 O   0  0  0  0  0  0  0  0  0  0  0  0
   14.4562  -15.1046  -16.6610 O   0  0  0  0  0  0  0  0  0  0  0  0
   19.5364   -9.9148  -15.9661 N   0  0  0  0  0  0  0  0  0  0  0  0
   19.9586   -8.7459  -15.2244 C   0  0  1  0  0  0  0  0  0  0  0  0
   21.4532   -8.5449  -15.3292 C   0  0  0  0  0  0  0  0  0  0  0  0
   21.9075   -7.2676  -14.7807 C   0  0  0  0  0  0  0  0  0  0  0  0
   22.1883   -6.2227  -15.6424 C   0  0  0  0  0  0  0  0  0  0  0  0
   22.6030   -5.0312  -15.0890 C   0  0  0  0  0  0  0  0  0  0  0  0
   22.7517   -4.8246  -13.7321 C   0  0  0  0  0  0  0  0  0  0  0  0
   22.4677   -5.8789  -12.8691 C   0  0  0  0  0  0  0  0  0  0  0  0
   22.0529   -7.0738  -13.4124 C   0  0  0  0  0  0  0  0  0  0  0  0
   19.1714   -7.5841  -15.6952 C   0  0  0  0  0  0  0  0  0  0  0  0
   18.9007   -6.6643  -14.8540 O   0  0  0  0  0  0  0  0  0  0  0  0
   18.7039   -7.4204  -16.9882 O   0  0  0  0  0  0  0  0  0  0  0  0
  2  1  1  1
  3  2  1  0
  4  3  1  0
  5  6  2  0
  5  2  1  0
  7  5  1  0
  8  7  1  0
  8  9  1  1
 10  9  1  0
 11 10  1  0
 12 11  2  0
 13  8  1  0
 14 13  2  0
 15 11  1  0
 16 13  1  0
 17 18  1  6
 17 16  1  0
 18 19  1  0
 19 24  2  0
 19 20  1  0
 20 21  2  0
 21 22  1  0
 23 22  2  0
 24 23  1  0
 25 17  1  0
 26 25  2  0
 27 25  1  0
M  END
$$$$
