PCI.pdb
     RDKit          3D

 22 22  0  0  1  0  0  0  0  0999 V2000
    6.6645  -19.8193   22.0033 N   0  0  0  0  0  0  0  0  0  0  0  0
    6.1311  -20.8106   22.8921 C   0  0  0  0  0  0  0  0  0  0  0  0
    5.3562  -20.0903   23.9651 C   0  0  0  0  0  0  0  0  0  0  0  0
    5.9184  -18.6861   23.8717 C   0  0  0  0  0  0  0  0  0  0  0  0
    6.1112  -18.5473   22.3812 C   0  0  1  0  0  0  0  0  0  0  0  0
    7.0805  -17.4879   22.0299 C   0  0  0  0  0  0  0  0  0  0  0  0
    8.2929  -17.7800   21.9081 O   0  0  0  0  0  0  0  0  0  0  0  0
    6.7017  -16.1298   21.8191 N   0  0  0  0  0  0  0  0  0  0  0  0
    7.6414  -15.0881   21.4814 C   0  0  1  0  0  0  0  0  0  0  0  0
    6.8093  -13.9305   20.9128 C   0  0  0  0  0  0  0  0  0  0  0  0
    7.9084  -12.6329   20.2864 S   0  0  0  0  0  0  0  0  0  0  0  0
    8.3085  -14.5391   22.6992 C   0  0  0  0  0  0  0  0  0  0  0  0
    9.2715  -13.7396   22.5873 O   0  0  0  0  0  0  0  0  0  0  0  0
    5.3655  -12.2416   26.0807 C   0  0  0  0  0  0  0  0  0  0  0  0
    6.5338  -12.6797   25.2509 C   0  0  0  0  0  0  0  0  0  0  0  0
    7.3625  -13.6584   26.0540 C   0  0  2  0  0  0  0  0  0  0  0  0
    7.9924  -13.0205   27.2557 C   0  0  0  0  0  0  0  0  0  0  0  0
    8.4473  -14.2903   25.2052 C   0  0  2  0  0  0  0  0  0  0  0  0
    7.8898  -14.8914   24.0079 N   0  0  0  0  0  0  0  0  0  0  0  0
    9.1489  -15.3398   25.9640 C   0  0  0  0  0  0  0  0  0  0  0  0
    8.7964  -16.5327   25.8544 O   0  0  0  0  0  0  0  0  0  0  0  0
   10.1871  -15.0089   26.7894 O   0  0  0  0  0  0  0  0  0  0  0  0
  2  1  1  0
  3  2  1  0
  4  3  1  0
  4  5  1  0
  5  1  1  0
  5  6  1  1
  6  8  1  0
  7  6  2  0
  9  8  1  0
  9 12  1  0
  9 10  1  1
 11 10  1  0
 12 19  1  0
 13 12  2  0
 15 14  1  0
 16 17  1  1
 16 15  1  0
 18 16  1  0
 18 19  1  6
 20 18  1  0
 20 22  1  0
 21 20  2  0
M  END
$$$$
