PCI.pdb
     RDKit          3D

 22 22  0  0  1  0  0  0  0  0999 V2000
    8.6815  -15.3161   18.9367 N   0  0  0  0  0  0  0  0  0  0  0  0
    8.6915  -14.9818   17.5419 C   0  0  0  0  0  0  0  0  0  0  0  0
    8.3617  -13.5162   17.4227 C   0  0  0  0  0  0  0  0  0  0  0  0
    7.7070  -13.2303   18.7592 C   0  0  0  0  0  0  0  0  0  0  0  0
    8.5335  -14.0945   19.6801 C   0  0  1  0  0  0  0  0  0  0  0  0
    7.8403  -14.3962   20.9504 C   0  0  0  0  0  0  0  0  0  0  0  0
    7.5986  -13.4661   21.7545 O   0  0  0  0  0  0  0  0  0  0  0  0
    7.4259  -15.7108   21.3139 N   0  0  0  0  0  0  0  0  0  0  0  0
    6.8484  -16.0337   22.5963 C   0  0  1  0  0  0  0  0  0  0  0  0
    6.7141  -17.5622   22.6314 C   0  0  0  0  0  0  0  0  0  0  0  0
    6.0862  -18.0874   24.2481 S   0  0  0  0  0  0  0  0  0  0  0  0
    7.7755  -15.6891   23.7148 C   0  0  0  0  0  0  0  0  0  0  0  0
    9.0178  -15.8076   23.5665 O   0  0  0  0  0  0  0  0  0  0  0  0
    5.7562  -11.9513   27.0530 C   0  0  0  0  0  0  0  0  0  0  0  0
    6.6868  -12.6757   26.1286 C   0  0  0  0  0  0  0  0  0  0  0  0
    7.4191  -13.7432   26.9120 C   0  0  2  0  0  0  0  0  0  0  0  0
    8.3764  -13.1629   27.9093 C   0  0  0  0  0  0  0  0  0  0  0  0
    8.1733  -14.6831   25.9931 C   0  0  2  0  0  0  0  0  0  0  0  0
    7.3003  -15.2226   24.9673 N   0  0  0  0  0  0  0  0  0  0  0  0
    8.7364  -15.8089   26.7579 C   0  0  0  0  0  0  0  0  0  0  0  0
    8.0528  -16.8350   26.9556 O   0  0  0  0  0  0  0  0  0  0  0  0
   10.0086  -15.7318   27.2522 O   0  0  0  0  0  0  0  0  0  0  0  0
  2  1  1  0
  3  2  1  0
  4  3  1  0
  4  5  1  0
  5  1  1  0
  5  6  1  1
  6  8  1  0
  7  6  2  0
  9  8  1  0
  9 12  1  0
  9 10  1  6
 11 10  1  0
 12 19  1  0
 13 12  2  0
 15 14  1  0
 16 17  1  1
 16 15  1  0
 18 16  1  0
 18 19  1  6
 20 18  1  0
 20 22  1  0
 21 20  2  0
M  END
$$$$
