PCI.pdb
     RDKit          3D

 22 22  0  0  1  0  0  0  0  0999 V2000
    8.3231  -15.3103   19.6615 N   0  0  0  0  0  0  0  0  0  0  0  0
    8.0080  -14.8620   18.3360 C   0  0  0  0  0  0  0  0  0  0  0  0
    7.7413  -13.3806   18.4079 C   0  0  0  0  0  0  0  0  0  0  0  0
    7.4527  -13.1831   19.8824 C   0  0  0  0  0  0  0  0  0  0  0  0
    8.4309  -14.1501   20.5036 C   0  0  1  0  0  0  0  0  0  0  0  0
    8.0560  -14.5309   21.8819 C   0  0  0  0  0  0  0  0  0  0  0  0
    8.0592  -13.6598   22.7825 O   0  0  0  0  0  0  0  0  0  0  0  0
    7.6852  -15.8585   22.2454 N   0  0  0  0  0  0  0  0  0  0  0  0
    7.2877  -16.2329   23.5811 C   0  0  1  0  0  0  0  0  0  0  0  0
    6.9928  -17.7383   23.5327 C   0  0  0  0  0  0  0  0  0  0  0  0
    6.4270  -18.3067   25.1577 S   0  0  0  0  0  0  0  0  0  0  0  0
    8.4138  -16.0781   24.5493 C   0  0  0  0  0  0  0  0  0  0  0  0
    9.5840  -16.3906   24.2143 O   0  0  0  0  0  0  0  0  0  0  0  0
    7.7319  -12.0106   27.9582 C   0  0  0  0  0  0  0  0  0  0  0  0
    8.3284  -12.9612   26.9652 C   0  0  0  0  0  0  0  0  0  0  0  0
    8.9147  -14.1404   27.7106 C   0  0  2  0  0  0  0  0  0  0  0  0
   10.1097  -13.7590   28.5316 C   0  0  0  0  0  0  0  0  0  0  0  0
    9.3036  -15.2558   26.7613 C   0  0  2  0  0  0  0  0  0  0  0  0
    8.2120  -15.5810   25.8624 N   0  0  0  0  0  0  0  0  0  0  0  0
    9.6591  -16.4713   27.5134 C   0  0  0  0  0  0  0  0  0  0  0  0
    8.7692  -17.2773   27.8564 O   0  0  0  0  0  0  0  0  0  0  0  0
   10.9641  -16.7185   27.8368 O   0  0  0  0  0  0  0  0  0  0  0  0
  2  1  1  0
  3  2  1  0
  4  3  1  0
  4  5  1  0
  5  1  1  0
  5  6  1  1
  6  8  1  0
  7  6  2  0
  9  8  1  0
  9 12  1  0
  9 10  1  6
 11 10  1  0
 12 19  1  0
 13 12  2  0
 15 14  1  0
 16 17  1  6
 16 15  1  0
 18 16  1  0
 18 19  1  6
 20 18  1  0
 20 22  1  0
 21 20  2  0
M  END
$$$$
