PCI.pdb
     RDKit          3D

 22 22  0  0  1  0  0  0  0  0999 V2000
    8.3211  -15.3545   19.6430 N   0  0  0  0  0  0  0  0  0  0  0  0
    7.9717  -14.9232   18.3205 C   0  0  0  0  0  0  0  0  0  0  0  0
    7.6803  -13.4461   18.3855 C   0  0  0  0  0  0  0  0  0  0  0  0
    7.4177  -13.2410   19.8638 C   0  0  0  0  0  0  0  0  0  0  0  0
    8.4251  -14.1854   20.4731 C   0  0  1  0  0  0  0  0  0  0  0  0
    8.0847  -14.5608   21.8618 C   0  0  0  0  0  0  0  0  0  0  0  0
    8.0333  -13.6721   22.7437 O   0  0  0  0  0  0  0  0  0  0  0  0
    7.8073  -15.9023   22.2561 N   0  0  0  0  0  0  0  0  0  0  0  0
    7.3902  -16.2668   23.5886 C   0  0  1  0  0  0  0  0  0  0  0  0
    7.0131  -17.7532   23.5264 C   0  0  0  0  0  0  0  0  0  0  0  0
    6.5411  -18.3374   25.1756 S   0  0  0  0  0  0  0  0  0  0  0  0
    8.5235  -16.1832   24.5572 C   0  0  0  0  0  0  0  0  0  0  0  0
    9.6993  -16.4116   24.1770 O   0  0  0  0  0  0  0  0  0  0  0  0
    7.6613  -12.6136   28.5193 C   0  0  0  0  0  0  0  0  0  0  0  0
    8.3085  -13.3589   27.3918 C   0  0  0  0  0  0  0  0  0  0  0  0
    8.9451  -14.6170   27.9409 C   0  0  2  0  0  0  0  0  0  0  0  0
   10.1028  -14.3217   28.8465 C   0  0  0  0  0  0  0  0  0  0  0  0
    9.4112  -15.5319   26.8263 C   0  0  2  0  0  0  0  0  0  0  0  0
    8.3224  -15.8486   25.9210 N   0  0  0  0  0  0  0  0  0  0  0  0
    9.9322  -16.7934   27.3799 C   0  0  0  0  0  0  0  0  0  0  0  0
   11.1629  -16.9565   27.5144 O   0  0  0  0  0  0  0  0  0  0  0  0
    9.0688  -17.7875   27.7473 O   0  0  0  0  0  0  0  0  0  0  0  0
  2  1  1  0
  3  2  1  0
  4  3  1  0
  4  5  1  0
  5  1  1  0
  5  6  1  1
  6  8  1  0
  7  6  2  0
  9  8  1  0
  9 12  1  0
  9 10  1  6
 11 10  1  0
 12 19  1  0
 13 12  2  0
 15 14  1  0
 16 17  1  1
 16 15  1  0
 18 16  1  0
 18 19  1  6
 20 18  1  0
 20 22  1  0
 21 20  2  0
M  END
$$$$
