PCI.pdb
     RDKit          3D

 22 22  0  0  1  0  0  0  0  0999 V2000
    8.5774  -15.2034   18.6976 N   0  0  0  0  0  0  0  0  0  0  0  0
    8.4612  -14.8886   17.3031 C   0  0  0  0  0  0  0  0  0  0  0  0
    8.1886  -13.4108   17.1913 C   0  0  0  0  0  0  0  0  0  0  0  0
    7.6864  -13.0764   18.5814 C   0  0  0  0  0  0  0  0  0  0  0  0
    8.5616  -13.9664   19.4299 C   0  0  1  0  0  0  0  0  0  0  0  0
    7.9876  -14.2179   20.7688 C   0  0  0  0  0  0  0  0  0  0  0  0
    7.8563  -13.2637   21.5703 O   0  0  0  0  0  0  0  0  0  0  0  0
    7.5691  -15.5098   21.2024 N   0  0  0  0  0  0  0  0  0  0  0  0
    7.0179  -15.7668   22.5109 C   0  0  1  0  0  0  0  0  0  0  0  0
    6.9526  -17.2934   22.6545 C   0  0  0  0  0  0  0  0  0  0  0  0
    8.6293  -17.9746   22.7481 S   0  0  0  0  0  0  0  0  0  0  0  0
    7.9386  -15.3037   23.5914 C   0  0  0  0  0  0  0  0  0  0  0  0
    9.1791  -15.2681   23.3939 O   0  0  0  0  0  0  0  0  0  0  0  0
    5.8873  -12.0411   27.7101 C   0  0  0  0  0  0  0  0  0  0  0  0
    6.3408  -13.2856   27.0093 C   0  0  0  0  0  0  0  0  0  0  0  0
    7.7279  -13.0529   26.4513 C   0  0  2  0  0  0  0  0  0  0  0  0
    7.7450  -11.9957   25.3884 C   0  0  0  0  0  0  0  0  0  0  0  0
    8.3176  -14.3297   25.8868 C   0  0  2  0  0  0  0  0  0  0  0  0
    7.4589  -14.8928   24.8616 N   0  0  0  0  0  0  0  0  0  0  0  0
    8.4845  -15.3341   26.9511 C   0  0  0  0  0  0  0  0  0  0  0  0
    7.7774  -16.3633   26.9564 O   0  0  0  0  0  0  0  0  0  0  0  0
    9.4140  -15.1407   27.9345 O   0  0  0  0  0  0  0  0  0  0  0  0
  2  1  1  0
  3  2  1  0
  4  3  1  0
  4  5  1  0
  5  1  1  0
  5  6  1  1
  6  8  1  0
  7  6  2  0
  9  8  1  0
  9 12  1  0
  9 10  1  1
 11 10  1  0
 12 19  1  0
 13 12  2  0
 15 14  1  0
 16 17  1  6
 16 15  1  0
 18 16  1  0
 18 19  1  6
 20 18  1  0
 20 22  1  0
 21 20  2  0
M  END
$$$$
