PCI.pdb
     RDKit          3D

 22 22  0  0  1  0  0  0  0  0999 V2000
    8.4371  -15.3040   18.9279 N   0  0  0  0  0  0  0  0  0  0  0  0
    8.3575  -14.8940   17.5558 C   0  0  0  0  0  0  0  0  0  0  0  0
    8.1058  -13.4084   17.5384 C   0  0  0  0  0  0  0  0  0  0  0  0
    7.5755  -13.1617   18.9364 C   0  0  0  0  0  0  0  0  0  0  0  0
    8.4194  -14.1192   19.7420 C   0  0  1  0  0  0  0  0  0  0  0  0
    7.8112  -14.4526   21.0475 C   0  0  0  0  0  0  0  0  0  0  0  0
    7.6364  -13.5452   21.8937 O   0  0  0  0  0  0  0  0  0  0  0  0
    7.4068  -15.7736   21.3993 N   0  0  0  0  0  0  0  0  0  0  0  0
    6.8538  -16.1167   22.6871 C   0  0  1  0  0  0  0  0  0  0  0  0
    6.7502  -17.6478   22.7131 C   0  0  0  0  0  0  0  0  0  0  0  0
    6.1363  -18.1954   24.3277 S   0  0  0  0  0  0  0  0  0  0  0  0
    7.7896  -15.7616   23.7951 C   0  0  0  0  0  0  0  0  0  0  0  0
    9.0305  -15.8840   23.6392 O   0  0  0  0  0  0  0  0  0  0  0  0
    5.7837  -11.9297   27.0230 C   0  0  0  0  0  0  0  0  0  0  0  0
    6.7062  -12.6879   26.1177 C   0  0  0  0  0  0  0  0  0  0  0  0
    7.4430  -13.7282   26.9329 C   0  0  2  0  0  0  0  0  0  0  0  0
    8.3990  -13.1140   27.9110 C   0  0  0  0  0  0  0  0  0  0  0  0
    8.1999  -14.6931   26.0426 C   0  0  2  0  0  0  0  0  0  0  0  0
    7.3242  -15.2805   25.0458 N   0  0  0  0  0  0  0  0  0  0  0  0
    8.7832  -15.7830   26.8434 C   0  0  0  0  0  0  0  0  0  0  0  0
    8.1004  -16.7918   27.1181 O   0  0  0  0  0  0  0  0  0  0  0  0
   10.0730  -15.6915   27.2868 O   0  0  0  0  0  0  0  0  0  0  0  0
  2  1  1  0
  3  2  1  0
  4  3  1  0
  4  5  1  0
  5  1  1  0
  5  6  1  1
  6  8  1  0
  7  6  2  0
  9  8  1  0
  9 12  1  0
  9 10  1  6
 11 10  1  0
 12 19  1  0
 13 12  2  0
 15 14  1  0
 16 17  1  1
 16 15  1  0
 18 16  1  0
 18 19  1  6
 20 18  1  0
 20 22  1  0
 21 20  2  0
M  END
$$$$
