PCI.pdb
     RDKit          3D

 22 22  0  0  1  0  0  0  0  0999 V2000
    8.3596  -15.1520   18.9632 N   0  0  0  0  0  0  0  0  0  0  0  0
    8.0998  -14.7087   17.6240 C   0  0  0  0  0  0  0  0  0  0  0  0
    7.6589  -13.2696   17.6984 C   0  0  0  0  0  0  0  0  0  0  0  0
    7.2346  -13.1440   19.1478 C   0  0  0  0  0  0  0  0  0  0  0  0
    8.2663  -14.0089   19.8301 C   0  0  1  0  0  0  0  0  0  0  0  0
    7.8310  -14.4650   21.1671 C   0  0  0  0  0  0  0  0  0  0  0  0
    7.6507  -13.6211   22.0757 O   0  0  0  0  0  0  0  0  0  0  0  0
    7.6019  -15.8364   21.4816 N   0  0  0  0  0  0  0  0  0  0  0  0
    7.1043  -16.2841   22.7599 C   0  0  1  0  0  0  0  0  0  0  0  0
    7.1474  -17.8178   22.7216 C   0  0  0  0  0  0  0  0  0  0  0  0
    6.6842  -18.4867   24.3408 S   0  0  0  0  0  0  0  0  0  0  0  0
    8.0192  -15.8872   23.8712 C   0  0  0  0  0  0  0  0  0  0  0  0
    9.2498  -16.1300   23.7952 O   0  0  0  0  0  0  0  0  0  0  0  0
    6.3866  -11.5154   26.4943 C   0  0  0  0  0  0  0  0  0  0  0  0
    7.2796  -12.4786   25.7730 C   0  0  0  0  0  0  0  0  0  0  0  0
    7.7807  -13.5111   26.7592 C   0  0  2  0  0  0  0  0  0  0  0  0
    8.7573  -12.9355   27.7404 C   0  0  0  0  0  0  0  0  0  0  0  0
    8.4269  -14.6842   26.0502 C   0  0  2  0  0  0  0  0  0  0  0  0
    7.5449  -15.2320   25.0365 N   0  0  0  0  0  0  0  0  0  0  0  0
    8.7457  -15.7542   27.0108 C   0  0  0  0  0  0  0  0  0  0  0  0
    7.8681  -16.5778   27.3439 O   0  0  0  0  0  0  0  0  0  0  0  0
   10.0031  -15.8470   27.5390 O   0  0  0  0  0  0  0  0  0  0  0  0
  2  1  1  0
  3  2  1  0
  4  3  1  0
  4  5  1  0
  5  1  1  0
  5  6  1  1
  6  8  1  0
  7  6  2  0
  9  8  1  0
  9 12  1  0
  9 10  1  6
 11 10  1  0
 12 19  1  0
 13 12  2  0
 15 14  1  0
 16 17  1  1
 16 15  1  0
 18 16  1  0
 18 19  1  6
 20 18  1  0
 20 22  1  0
 21 20  2  0
M  END
$$$$
