PCI.pdb
     RDKit          3D

 22 22  0  0  1  0  0  0  0  0999 V2000
    8.3630  -15.0400   19.4108 N   0  0  0  0  0  0  0  0  0  0  0  0
    8.0354  -14.4872   18.1285 C   0  0  0  0  0  0  0  0  0  0  0  0
    7.7057  -13.0309   18.3314 C   0  0  0  0  0  0  0  0  0  0  0  0
    7.4020  -12.9798   19.8152 C   0  0  0  0  0  0  0  0  0  0  0  0
    8.4175  -13.9573   20.3550 C   0  0  1  0  0  0  0  0  0  0  0  0
    8.0526  -14.4766   21.6901 C   0  0  0  0  0  0  0  0  0  0  0  0
    8.0469  -13.6980   22.6718 O   0  0  0  0  0  0  0  0  0  0  0  0
    7.7013  -15.8385   21.9225 N   0  0  0  0  0  0  0  0  0  0  0  0
    7.3518  -16.3560   23.2233 C   0  0  1  0  0  0  0  0  0  0  0  0
    7.0157  -17.8392   23.0165 C   0  0  0  0  0  0  0  0  0  0  0  0
    6.6241  -18.6090   24.6096 S   0  0  0  0  0  0  0  0  0  0  0  0
    8.5222  -16.3380   24.1503 C   0  0  0  0  0  0  0  0  0  0  0  0
    9.6809  -16.5468   23.7110 O   0  0  0  0  0  0  0  0  0  0  0  0
   10.2810  -13.2022   29.0032 C   0  0  0  0  0  0  0  0  0  0  0  0
   10.4758  -14.4821   28.2485 C   0  0  0  0  0  0  0  0  0  0  0  0
    9.3424  -14.6418   27.2588 C   0  0  2  0  0  0  0  0  0  0  0  0
    8.0007  -14.6661   27.9274 C   0  0  0  0  0  0  0  0  0  0  0  0
    9.5046  -15.9013   26.4318 C   0  0  2  0  0  0  0  0  0  0  0  0
    8.3762  -16.0888   25.5391 N   0  0  0  0  0  0  0  0  0  0  0  0
    9.6018  -17.0824   27.3064 C   0  0  0  0  0  0  0  0  0  0  0  0
    8.6185  -17.8392   27.4470 O   0  0  0  0  0  0  0  0  0  0  0  0
   10.7688  -17.3515   27.9653 O   0  0  0  0  0  0  0  0  0  0  0  0
  2  1  1  0
  3  2  1  0
  4  3  1  0
  4  5  1  0
  5  1  1  0
  5  6  1  1
  6  8  1  0
  7  6  2  0
  9  8  1  0
  9 12  1  0
  9 10  1  6
 11 10  1  0
 12 19  1  0
 13 12  2  0
 15 14  1  0
 16 17  1  1
 16 15  1  0
 18 16  1  0
 18 19  1  6
 20 18  1  0
 20 22  1  0
 21 20  2  0
M  END
$$$$
