PCI.pdb
     RDKit          3D

 22 22  0  0  1  0  0  0  0  0999 V2000
    7.9352  -15.2065   18.4113 N   0  0  0  0  0  0  0  0  0  0  0  0
    8.0104  -14.2705   17.3270 C   0  0  0  0  0  0  0  0  0  0  0  0
    8.2719  -12.9092   17.9182 C   0  0  0  0  0  0  0  0  0  0  0  0
    7.8421  -13.1027   19.3585 C   0  0  0  0  0  0  0  0  0  0  0  0
    8.3084  -14.5150   19.6152 C   0  0  1  0  0  0  0  0  0  0  0  0
    7.6115  -15.1450   20.7565 C   0  0  0  0  0  0  0  0  0  0  0  0
    6.3909  -14.9217   20.9304 O   0  0  0  0  0  0  0  0  0  0  0  0
    8.2662  -16.0068   21.6844 N   0  0  0  0  0  0  0  0  0  0  0  0
    7.6933  -16.3875   22.9529 C   0  0  1  0  0  0  0  0  0  0  0  0
    8.0117  -17.8778   23.1351 C   0  0  0  0  0  0  0  0  0  0  0  0
    7.4887  -18.4213   24.7829 S   0  0  0  0  0  0  0  0  0  0  0  0
    8.3707  -15.6933   24.0880 C   0  0  0  0  0  0  0  0  0  0  0  0
    9.6247  -15.6206   24.1278 O   0  0  0  0  0  0  0  0  0  0  0  0
    5.6340  -11.6572   26.5105 C   0  0  0  0  0  0  0  0  0  0  0  0
    6.7240  -12.4542   25.8609 C   0  0  0  0  0  0  0  0  0  0  0  0
    7.3074  -13.4057   26.8827 C   0  0  2  0  0  0  0  0  0  0  0  0
    8.0093  -12.6869   27.9956 C   0  0  0  0  0  0  0  0  0  0  0  0
    8.2718  -14.3825   26.2405 C   0  0  2  0  0  0  0  0  0  0  0  0
    7.6396  -15.0986   25.1483 N   0  0  0  0  0  0  0  0  0  0  0  0
    8.7396  -15.3691   27.2290 C   0  0  0  0  0  0  0  0  0  0  0  0
    9.8172  -15.1868   27.8330 O   0  0  0  0  0  0  0  0  0  0  0  0
    7.9943  -16.4857   27.4865 O   0  0  0  0  0  0  0  0  0  0  0  0
  2  1  1  0
  3  2  1  0
  4  3  1  0
  4  5  1  0
  5  1  1  0
  5  6  1  1
  6  8  1  0
  7  6  2  0
  9  8  1  0
  9 12  1  0
  9 10  1  1
 11 10  1  0
 12 19  1  0
 13 12  2  0
 15 14  1  0
 16 17  1  1
 16 15  1  0
 18 16  1  0
 18 19  1  6
 20 18  1  0
 20 22  1  0
 21 20  2  0
M  END
$$$$
