PCI.pdb
     RDKit          3D

 22 22  0  0  1  0  0  0  0  0999 V2000
    7.0912  -19.1516   22.8171 N   0  0  0  0  0  0  0  0  0  0  0  0
    6.1473  -20.1307   22.3612 C   0  0  0  0  0  0  0  0  0  0  0  0
    6.6880  -20.7251   21.0864 C   0  0  0  0  0  0  0  0  0  0  0  0
    7.6921  -19.6772   20.6505 C   0  0  0  0  0  0  0  0  0  0  0  0
    8.2570  -19.2428   21.9809 C   0  0  1  0  0  0  0  0  0  0  0  0
    8.8984  -17.9123   21.9188 C   0  0  0  0  0  0  0  0  0  0  0  0
   10.1384  -17.8348   21.7562 O   0  0  0  0  0  0  0  0  0  0  0  0
    8.1680  -16.6937   22.0361 N   0  0  0  0  0  0  0  0  0  0  0  0
    8.7624  -15.3922   21.8490 C   0  0  1  0  0  0  0  0  0  0  0  0
    7.6565  -14.4963   21.2745 C   0  0  0  0  0  0  0  0  0  0  0  0
    6.2099  -14.5290   22.3654 S   0  0  0  0  0  0  0  0  0  0  0  0
    9.1403  -14.7721   23.1536 C   0  0  0  0  0  0  0  0  0  0  0  0
    9.8646  -13.7455   23.1803 O   0  0  0  0  0  0  0  0  0  0  0  0
    5.8538  -12.6253   26.0102 C   0  0  0  0  0  0  0  0  0  0  0  0
    7.1202  -13.1091   25.3718 C   0  0  0  0  0  0  0  0  0  0  0  0
    7.7958  -14.0867   26.3087 C   0  0  2  0  0  0  0  0  0  0  0  0
    8.1847  -13.4530   27.6106 C   0  0  0  0  0  0  0  0  0  0  0  0
    9.0260  -14.7015   25.6722 C   0  0  2  0  0  0  0  0  0  0  0  0
    8.7050  -15.3070   24.3932 N   0  0  0  0  0  0  0  0  0  0  0  0
    9.5918  -15.7432   26.5463 C   0  0  0  0  0  0  0  0  0  0  0  0
    9.1412  -16.9071   26.5051 O   0  0  0  0  0  0  0  0  0  0  0  0
   10.6113  -15.4370   27.4039 O   0  0  0  0  0  0  0  0  0  0  0  0
  2  1  1  0
  3  2  1  0
  4  3  1  0
  4  5  1  0
  5  1  1  0
  5  6  1  6
  6  8  1  0
  7  6  2  0
  9  8  1  0
  9 12  1  0
  9 10  1  1
 11 10  1  0
 12 19  1  0
 13 12  2  0
 15 14  1  0
 16 17  1  1
 16 15  1  0
 18 16  1  0
 18 19  1  6
 20 18  1  0
 20 22  1  0
 21 20  2  0
M  END
$$$$
