PCI.pdb
     RDKit          3D

 22 22  0  0  1  0  0  0  0  0999 V2000
    7.4314  -15.2581   18.6160 N   0  0  0  0  0  0  0  0  0  0  0  0
    7.6014  -14.3347   17.5316 C   0  0  0  0  0  0  0  0  0  0  0  0
    8.1672  -13.0604   18.1034 C   0  0  0  0  0  0  0  0  0  0  0  0
    7.8222  -13.1934   19.5730 C   0  0  0  0  0  0  0  0  0  0  0  0
    8.0247  -14.6735   19.7877 C   0  0  1  0  0  0  0  0  0  0  0  0
    7.3106  -15.1777   20.9798 C   0  0  0  0  0  0  0  0  0  0  0  0
    6.1270  -14.8207   21.1838 O   0  0  0  0  0  0  0  0  0  0  0  0
    7.9078  -16.0629   21.9243 N   0  0  0  0  0  0  0  0  0  0  0  0
    7.3596  -16.3098   23.2360 C   0  0  1  0  0  0  0  0  0  0  0  0
    7.3632  -17.8334   23.4204 C   0  0  0  0  0  0  0  0  0  0  0  0
    6.8582  -18.2495   25.1103 S   0  0  0  0  0  0  0  0  0  0  0  0
    8.2503  -15.7762   24.3091 C   0  0  0  0  0  0  0  0  0  0  0  0
    9.4991  -15.8271   24.1785 O   0  0  0  0  0  0  0  0  0  0  0  0
    5.9663  -12.0874   27.6197 C   0  0  0  0  0  0  0  0  0  0  0  0
    6.9306  -12.7447   26.6798 C   0  0  0  0  0  0  0  0  0  0  0  0
    7.7698  -13.7357   27.4565 C   0  0  2  0  0  0  0  0  0  0  0  0
    8.7022  -13.0629   28.4185 C   0  0  0  0  0  0  0  0  0  0  0  0
    8.5742  -14.6245   26.5294 C   0  0  2  0  0  0  0  0  0  0  0  0
    7.7322  -15.2008   25.4977 N   0  0  0  0  0  0  0  0  0  0  0  0
    9.1974  -15.7253   27.2839 C   0  0  0  0  0  0  0  0  0  0  0  0
    8.5427  -16.7572   27.5404 O   0  0  0  0  0  0  0  0  0  0  0  0
   10.4937  -15.6184   27.7044 O   0  0  0  0  0  0  0  0  0  0  0  0
  2  1  1  0
  3  2  1  0
  4  3  1  0
  4  5  1  0
  5  1  1  0
  5  6  1  1
  6  8  1  0
  7  6  2  0
  9  8  1  0
  9 12  1  0
  9 10  1  1
 11 10  1  0
 12 19  1  0
 13 12  2  0
 15 14  1  0
 16 17  1  1
 16 15  1  0
 18 16  1  0
 18 19  1  6
 20 18  1  0
 20 22  1  0
 21 20  2  0
M  END
$$$$
