PCI.pdb
     RDKit          3D

 22 22  0  0  1  0  0  0  0  0999 V2000
    8.5144  -15.0847   18.8878 N   0  0  0  0  0  0  0  0  0  0  0  0
    8.3084  -14.6479   17.5372 C   0  0  0  0  0  0  0  0  0  0  0  0
    7.9110  -13.1951   17.5843 C   0  0  0  0  0  0  0  0  0  0  0  0
    7.4481  -13.0408   19.0191 C   0  0  0  0  0  0  0  0  0  0  0  0
    8.4314  -13.9301   19.7403 C   0  0  1  0  0  0  0  0  0  0  0  0
    7.9425  -14.3581   21.0682 C   0  0  0  0  0  0  0  0  0  0  0  0
    7.7226  -13.4950   21.9496 O   0  0  0  0  0  0  0  0  0  0  0  0
    7.7045  -15.7231   21.4034 N   0  0  0  0  0  0  0  0  0  0  0  0
    7.1610  -16.1446   22.6719 C   0  0  1  0  0  0  0  0  0  0  0  0
    7.2507  -17.6767   22.6869 C   0  0  0  0  0  0  0  0  0  0  0  0
    6.6735  -18.3109   24.2833 S   0  0  0  0  0  0  0  0  0  0  0  0
    8.0111  -15.6844   23.8099 C   0  0  0  0  0  0  0  0  0  0  0  0
    9.2639  -15.7103   23.7150 O   0  0  0  0  0  0  0  0  0  0  0  0
    5.8018  -11.7595   26.7588 C   0  0  0  0  0  0  0  0  0  0  0  0
    6.7494  -12.5911   25.9489 C   0  0  0  0  0  0  0  0  0  0  0  0
    7.4189  -13.5954   26.8615 C   0  0  2  0  0  0  0  0  0  0  0  0
    8.2980  -12.9395   27.8837 C   0  0  0  0  0  0  0  0  0  0  0  0
    8.2401  -14.5962   26.0736 C   0  0  2  0  0  0  0  0  0  0  0  0
    7.4492  -15.2080   25.0221 N   0  0  0  0  0  0  0  0  0  0  0  0
    8.7366  -15.6643   26.9578 C   0  0  0  0  0  0  0  0  0  0  0  0
    8.0916  -16.7267   27.0786 O   0  0  0  0  0  0  0  0  0  0  0  0
    9.9046  -15.4939   27.6473 O   0  0  0  0  0  0  0  0  0  0  0  0
  2  1  1  0
  3  2  1  0
  4  3  1  0
  4  5  1  0
  5  1  1  0
  5  6  1  1
  6  8  1  0
  7  6  2  0
  9  8  1  0
  9 12  1  0
  9 10  1  6
 11 10  1  0
 12 19  1  0
 13 12  2  0
 15 14  1  0
 16 17  1  1
 16 15  1  0
 18 16  1  0
 18 19  1  6
 20 18  1  0
 20 22  1  0
 21 20  2  0
M  END
$$$$
