YTV.pdb
     RDKit          3D

 27 27  0  0  1  0  0  0  0  0999 V2000
   14.6295  -17.7054  -15.1933 O   0  0  0  0  0  0  0  0  0  0  0  0
   15.7918  -18.4137  -14.9326 C   0  0  0  0  0  0  0  0  0  0  0  0
   16.9243  -17.7303  -14.5455 C   0  0  0  0  0  0  0  0  0  0  0  0
   18.1042  -18.4222  -14.2782 C   0  0  0  0  0  0  0  0  0  0  0  0
   18.1134  -19.8005  -14.4092 C   0  0  0  0  0  0  0  0  0  0  0  0
   19.3368  -20.5576  -14.1359 C   0  0  0  0  0  0  0  0  0  0  0  0
   20.1407  -20.7944  -15.3945 C   0  0  2  0  0  0  0  0  0  0  0  0
   19.3736  -21.7136  -16.2174 N   0  0  0  0  0  0  0  0  0  0  0  0
   21.4379  -21.4301  -15.0874 C   0  0  0  0  0  0  0  0  0  0  0  0
   21.6732  -22.5748  -15.5313 O   0  0  0  0  0  0  0  0  0  0  0  0
   16.9678  -20.4613  -14.7978 C   0  0  0  0  0  0  0  0  0  0  0  0
   15.7785  -19.7921  -15.0699 C   0  0  0  0  0  0  0  0  0  0  0  0
   24.4082  -19.9650  -16.1658 C   0  0  0  0  0  0  0  0  0  0  0  0
   24.3060  -21.3941  -15.6238 C   0  0  1  0  0  0  0  0  0  0  0  0
   25.5834  -21.9168  -15.6290 O   0  0  0  0  0  0  0  0  0  0  0  0
   23.7251  -21.3529  -14.2048 C   0  0  2  0  0  0  0  0  0  0  0  0
   22.4212  -20.7830  -14.3066 N   0  0  0  0  0  0  0  0  0  0  0  0
   24.6607  -20.5204  -13.4077 C   0  0  0  0  0  0  0  0  0  0  0  0
   24.5103  -19.2737  -13.4385 O   0  0  0  0  0  0  0  0  0  0  0  0
   26.7567  -21.8579   -9.8364 C   0  0  0  0  0  0  0  0  0  0  0  0
   26.1662  -20.5578  -10.2890 C   0  0  2  0  0  0  0  0  0  0  0  0
   24.6910  -20.4416  -10.0185 C   0  0  0  0  0  0  0  0  0  0  0  0
   26.5257  -20.2864  -11.7189 C   0  0  2  0  0  0  0  0  0  0  0  0
   25.7040  -21.0680  -12.6228 N   0  0  0  0  0  0  0  0  0  0  0  0
   27.9597  -20.7132  -11.8915 C   0  0  0  0  0  0  0  0  0  0  0  0
   28.2652  -21.9010  -12.5473 O   0  0  0  0  0  0  0  0  0  0  0  0
   28.9074  -20.0309  -11.4615 O   0  0  0  0  0  0  0  0  0  0  0  0
  2 12  2  0
  2  1  1  0
  3  2  1  0
  4  5  1  0
  4  3  2  0
  5 11  2  0
  6  5  1  0
  7  6  1  0
  7  8  1  6
  9  7  1  0
  9 10  2  0
 11 12  1  0
 14 13  1  1
 14 15  1  0
 14 16  1  0
 16 17  1  6
 17  9  1  0
 18 16  1  0
 19 18  2  0
 21 20  1  6
 22 21  1  0
 23 24  1  6
 23 21  1  0
 24 18  1  0
 25 23  1  0
 26 25  1  0
 27 25  2  0
M  END
$$$$
