YTV.pdb
     RDKit          3D

 27 27  0  0  1  0  0  0  0  0999 V2000
   17.5610  -16.4967  -18.2234 O   0  0  0  0  0  0  0  0  0  0  0  0
   18.3238  -17.3732  -17.4681 C   0  0  0  0  0  0  0  0  0  0  0  0
   17.7424  -18.5239  -16.9809 C   0  0  0  0  0  0  0  0  0  0  0  0
   18.4905  -19.4196  -16.2191 C   0  0  0  0  0  0  0  0  0  0  0  0
   19.8203  -19.1301  -15.9645 C   0  0  0  0  0  0  0  0  0  0  0  0
   20.6343  -20.0502  -15.1674 C   0  0  0  0  0  0  0  0  0  0  0  0
   21.8775  -20.4842  -15.9106 C   0  0  2  0  0  0  0  0  0  0  0  0
   21.4604  -21.4789  -16.8838 N   0  0  0  0  0  0  0  0  0  0  0  0
   22.8507  -21.1179  -14.9983 C   0  0  0  0  0  0  0  0  0  0  0  0
   22.7175  -22.3279  -14.7139 O   0  0  0  0  0  0  0  0  0  0  0  0
   20.3790  -17.9726  -16.4628 C   0  0  0  0  0  0  0  0  0  0  0  0
   19.6521  -17.0638  -17.2256 C   0  0  0  0  0  0  0  0  0  0  0  0
   26.0211  -22.0836  -15.4615 C   0  0  0  0  0  0  0  0  0  0  0  0
   26.1707  -21.1681  -14.2424 C   0  0  1  0  0  0  0  0  0  0  0  0
   26.5992  -19.9429  -14.7117 O   0  0  0  0  0  0  0  0  0  0  0  0
   24.8162  -21.0518  -13.5324 C   0  0  2  0  0  0  0  0  0  0  0  0
   23.9282  -20.3973  -14.4371 N   0  0  0  0  0  0  0  0  0  0  0  0
   25.0708  -20.2652  -12.2996 C   0  0  0  0  0  0  0  0  0  0  0  0
   25.0515  -19.0122  -12.3873 O   0  0  0  0  0  0  0  0  0  0  0  0
   25.2670  -22.0090   -8.3056 C   0  0  0  0  0  0  0  0  0  0  0  0
   24.8100  -20.6317   -8.6773 C   0  0  2  0  0  0  0  0  0  0  0  0
   23.3240  -20.5281   -8.8869 C   0  0  0  0  0  0  0  0  0  0  0  0
   25.6058  -20.1081   -9.8349 C   0  0  2  0  0  0  0  0  0  0  0  0
   25.3316  -20.8626  -11.0427 N   0  0  0  0  0  0  0  0  0  0  0  0
   27.0575  -20.2927   -9.4790 C   0  0  0  0  0  0  0  0  0  0  0  0
   27.6379  -19.5250   -8.4751 O   0  0  0  0  0  0  0  0  0  0  0  0
   27.7784  -21.1243  -10.0597 O   0  0  0  0  0  0  0  0  0  0  0  0
  2 12  2  0
  2  1  1  0
  3  2  1  0
  4  5  1  0
  4  3  2  0
  5 11  2  0
  6  5  1  0
  7  6  1  0
  7  8  1  6
  9  7  1  0
  9 10  2  0
 11 12  1  0
 14 13  1  6
 14 15  1  0
 14 16  1  0
 16 17  1  6
 17  9  1  0
 18 16  1  0
 19 18  2  0
 21 20  1  6
 22 21  1  0
 23 24  1  6
 23 21  1  0
 24 18  1  0
 25 23  1  0
 26 25  1  0
 27 25  2  0
M  END
$$$$
