YTV.pdb
     RDKit          3D

 27 27  0  0  1  0  0  0  0  0999 V2000
   16.0877  -20.0876  -10.4885 O   0  0  0  0  0  0  0  0  0  0  0  0
   17.3003  -19.8869  -11.1289 C   0  0  0  0  0  0  0  0  0  0  0  0
   17.4725  -18.7627  -11.9074 C   0  0  0  0  0  0  0  0  0  0  0  0
   18.6835  -18.5405  -12.5605 C   0  0  0  0  0  0  0  0  0  0  0  0
   19.7015  -19.4669  -12.4112 C   0  0  0  0  0  0  0  0  0  0  0  0
   20.9863  -19.2635  -13.0839 C   0  0  0  0  0  0  0  0  0  0  0  0
   20.9159  -19.6348  -14.5480 C   0  0  2  0  0  0  0  0  0  0  0  0
   20.9316  -21.0859  -14.6156 N   0  0  0  0  0  0  0  0  0  0  0  0
   22.0931  -19.1306  -15.2836 C   0  0  0  0  0  0  0  0  0  0  0  0
   23.1765  -19.7474  -15.1913 O   0  0  0  0  0  0  0  0  0  0  0  0
   19.5048  -20.5835  -11.6272 C   0  0  0  0  0  0  0  0  0  0  0  0
   18.3050  -20.8264  -10.9657 C   0  0  0  0  0  0  0  0  0  0  0  0
   22.6980  -19.1978  -18.6600 C   0  0  0  0  0  0  0  0  0  0  0  0
   22.8281  -17.7109  -18.3154 C   0  0  1  0  0  0  0  0  0  0  0  0
   21.6111  -17.1257  -18.6006 O   0  0  0  0  0  0  0  0  0  0  0  0
   23.1820  -17.5687  -16.8298 C   0  0  2  0  0  0  0  0  0  0  0  0
   22.0314  -17.9716  -16.0887 N   0  0  0  0  0  0  0  0  0  0  0  0
   23.5280  -16.1390  -16.6305 C   0  0  0  0  0  0  0  0  0  0  0  0
   22.5932  -15.3367  -16.3845 O   0  0  0  0  0  0  0  0  0  0  0  0
   27.6029  -14.7539  -16.7364 C   0  0  0  0  0  0  0  0  0  0  0  0
   26.5305  -14.0473  -15.9655 C   0  0  2  0  0  0  0  0  0  0  0  0
   26.5225  -14.3852  -14.4996 C   0  0  0  0  0  0  0  0  0  0  0  0
   25.1966  -14.2412  -16.6216 C   0  0  2  0  0  0  0  0  0  0  0  0
   24.8539  -15.6479  -16.7054 N   0  0  0  0  0  0  0  0  0  0  0  0
   25.3213  -13.6987  -18.0210 C   0  0  0  0  0  0  0  0  0  0  0  0
   25.2233  -12.3314  -18.2558 O   0  0  0  0  0  0  0  0  0  0  0  0
   25.5131  -14.4406  -19.0014 O   0  0  0  0  0  0  0  0  0  0  0  0
  2 12  2  0
  2  1  1  0
  3  2  1  0
  4  5  1  0
  4  3  2  0
  5 11  2  0
  6  5  1  0
  7  6  1  0
  7  8  1  1
  9  7  1  0
  9 10  2  0
 11 12  1  0
 14 13  1  1
 14 15  1  0
 14 16  1  0
 16 17  1  1
 17  9  1  0
 18 16  1  0
 19 18  2  0
 21 20  1  6
 22 21  1  0
 23 24  1  6
 23 21  1  0
 24 18  1  0
 25 23  1  0
 26 25  1  0
 27 25  2  0
M  END
$$$$
