YTV.pdb
     RDKit          3D

 27 27  0  0  1  0  0  0  0  0999 V2000
   19.1469  -15.8480  -19.3294 O   0  0  0  0  0  0  0  0  0  0  0  0
   20.0184  -16.6768  -18.6406 C   0  0  0  0  0  0  0  0  0  0  0  0
   20.8981  -16.1246  -17.7347 C   0  0  0  0  0  0  0  0  0  0  0  0
   21.7834  -16.9390  -17.0308 C   0  0  0  0  0  0  0  0  0  0  0  0
   21.7595  -18.3042  -17.2599 C   0  0  0  0  0  0  0  0  0  0  0  0
   22.6765  -19.1879  -16.5368 C   0  0  0  0  0  0  0  0  0  0  0  0
   24.1066  -19.0025  -16.9912 C   0  0  2  0  0  0  0  0  0  0  0  0
   24.2007  -19.5668  -18.3265 N   0  0  0  0  0  0  0  0  0  0  0  0
   25.0437  -19.7375  -16.1178 C   0  0  0  0  0  0  0  0  0  0  0  0
   25.6685  -20.7148  -16.5839 O   0  0  0  0  0  0  0  0  0  0  0  0
   20.8703  -18.8325  -18.1710 C   0  0  0  0  0  0  0  0  0  0  0  0
   19.9774  -18.0396  -18.8853 C   0  0  0  0  0  0  0  0  0  0  0  0
   28.7180  -20.2106  -13.6804 C   0  0  0  0  0  0  0  0  0  0  0  0
   27.6107  -19.6379  -14.5706 C   0  0  1  0  0  0  0  0  0  0  0  0
   27.8059  -20.1549  -15.8353 O   0  0  0  0  0  0  0  0  0  0  0  0
   26.2466  -20.0498  -14.0031 C   0  0  2  0  0  0  0  0  0  0  0  0
   25.2551  -19.3691  -14.7706 N   0  0  0  0  0  0  0  0  0  0  0  0
   26.2593  -19.6376  -12.5771 C   0  0  0  0  0  0  0  0  0  0  0  0
   26.5914  -18.4560  -12.3097 O   0  0  0  0  0  0  0  0  0  0  0  0
   24.2647  -21.9491   -9.4508 C   0  0  0  0  0  0  0  0  0  0  0  0
   24.3384  -20.4686   -9.6661 C   0  0  2  0  0  0  0  0  0  0  0  0
   23.2268  -19.9304  -10.5250 C   0  0  0  0  0  0  0  0  0  0  0  0
   25.7009  -20.0749  -10.1517 C   0  0  2  0  0  0  0  0  0  0  0  0
   25.9164  -20.5120  -11.5177 N   0  0  0  0  0  0  0  0  0  0  0  0
   26.6947  -20.7788   -9.2656 C   0  0  0  0  0  0  0  0  0  0  0  0
   26.9425  -20.3126   -7.9790 O   0  0  0  0  0  0  0  0  0  0  0  0
   27.3196  -21.7857   -9.6452 O   0  0  0  0  0  0  0  0  0  0  0  0
  2 12  2  0
  2  1  1  0
  3  2  1  0
  4  5  1  0
  4  3  2  0
  5 11  2  0
  6  5  1  0
  7  6  1  0
  7  8  1  6
  9  7  1  0
  9 10  2  0
 11 12  1  0
 14 13  1  1
 14 15  1  0
 14 16  1  0
 16 17  1  6
 17  9  1  0
 18 16  1  0
 19 18  2  0
 21 20  1  6
 22 21  1  0
 23 24  1  6
 23 21  1  0
 24 18  1  0
 25 23  1  0
 26 25  1  0
 27 25  2  0
M  END
$$$$
