YTV.pdb
     RDKit          3D

 27 27  0  0  1  0  0  0  0  0999 V2000
   24.2653   -2.6916  -16.5268 O   0  0  0  0  0  0  0  0  0  0  0  0
   23.4152   -3.3650  -15.6639 C   0  0  0  0  0  0  0  0  0  0  0  0
   22.3457   -2.6935  -15.1122 C   0  0  0  0  0  0  0  0  0  0  0  0
   21.4779   -3.3509  -14.2420 C   0  0  0  0  0  0  0  0  0  0  0  0
   21.7123   -4.6830  -13.9464 C   0  0  0  0  0  0  0  0  0  0  0  0
   20.8196   -5.4030  -13.0358 C   0  0  0  0  0  0  0  0  0  0  0  0
   20.3206   -6.6933  -13.6460 C   0  0  2  0  0  0  0  0  0  0  0  0
   20.4660   -6.5623  -15.0855 N   0  0  0  0  0  0  0  0  0  0  0  0
   18.8896   -6.9057  -13.3491 C   0  0  0  0  0  0  0  0  0  0  0  0
   18.0325   -6.2926  -14.0216 O   0  0  0  0  0  0  0  0  0  0  0  0
   22.7889   -5.3328  -14.5110 C   0  0  0  0  0  0  0  0  0  0  0  0
   23.6685   -4.6975  -15.3822 C   0  0  0  0  0  0  0  0  0  0  0  0
   16.8071   -9.1058  -14.3532 C   0  0  0  0  0  0  0  0  0  0  0  0
   16.7122   -9.3126  -12.8383 C   0  0  1  0  0  0  0  0  0  0  0  0
   17.6051  -10.3139  -12.5140 O   0  0  0  0  0  0  0  0  0  0  0  0
   17.0641   -7.9991  -12.1290 C   0  0  2  0  0  0  0  0  0  0  0  0
   18.4601   -7.7813  -12.3273 N   0  0  0  0  0  0  0  0  0  0  0  0
   16.7060   -8.1999  -10.7024 C   0  0  0  0  0  0  0  0  0  0  0  0
   17.5416   -8.7757   -9.9621 O   0  0  0  0  0  0  0  0  0  0  0  0
   13.7127   -5.9665   -8.7687 C   0  0  0  0  0  0  0  0  0  0  0  0
   14.7968   -6.7209   -8.0620 C   0  0  2  0  0  0  0  0  0  0  0  0
   16.0289   -5.8983   -7.8009 C   0  0  0  0  0  0  0  0  0  0  0  0
   15.0885   -8.0095   -8.7704 C   0  0  2  0  0  0  0  0  0  0  0  0
   15.4748   -7.7738  -10.1482 N   0  0  0  0  0  0  0  0  0  0  0  0
   13.8088   -8.8037   -8.7653 C   0  0  0  0  0  0  0  0  0  0  0  0
   13.4411   -9.5364   -7.6418 O   0  0  0  0  0  0  0  0  0  0  0  0
   13.0468   -8.8332   -9.7486 O   0  0  0  0  0  0  0  0  0  0  0  0
  2 12  2  0
  2  1  1  0
  3  2  1  0
  4  5  1  0
  4  3  2  0
  5 11  2  0
  6  5  1  0
  7  6  1  0
  7  8  1  6
  9  7  1  0
  9 10  2  0
 11 12  1  0
 14 13  1  6
 14 15  1  0
 14 16  1  0
 16 17  1  1
 17  9  1  0
 18 16  1  0
 19 18  2  0
 21 20  1  6
 22 21  1  0
 23 24  1  6
 23 21  1  0
 24 18  1  0
 25 23  1  0
 26 25  1  0
 27 25  2  0
M  END
$$$$
