YTV.pdb
     RDKit          3D

 27 27  0  0  1  0  0  0  0  0999 V2000
   35.7383  -24.0207  -19.5904 O   0  0  0  0  0  0  0  0  0  0  0  0
   34.6348  -24.4592  -18.8758 C   0  0  0  0  0  0  0  0  0  0  0  0
   34.0866  -25.6887  -19.1711 C   0  0  0  0  0  0  0  0  0  0  0  0
   32.9768  -26.1498  -18.4653 C   0  0  0  0  0  0  0  0  0  0  0  0
   32.4414  -25.3515  -17.4688 C   0  0  0  0  0  0  0  0  0  0  0  0
   31.2755  -25.8063  -16.7083 C   0  0  0  0  0  0  0  0  0  0  0  0
   29.9856  -25.5451  -17.4529 C   0  0  2  0  0  0  0  0  0  0  0  0
   29.7041  -24.1259  -17.3225 N   0  0  0  0  0  0  0  0  0  0  0  0
   28.8618  -26.2907  -16.8511 C   0  0  0  0  0  0  0  0  0  0  0  0
   28.0692  -25.6883  -16.0949 O   0  0  0  0  0  0  0  0  0  0  0  0
   33.0077  -24.1255  -17.1921 C   0  0  0  0  0  0  0  0  0  0  0  0
   34.1154  -23.6444  -17.8832 C   0  0  0  0  0  0  0  0  0  0  0  0
   26.4275  -27.8329  -18.8644 C   0  0  0  0  0  0  0  0  0  0  0  0
   26.2899  -27.6127  -17.3547 C   0  0  1  0  0  0  0  0  0  0  0  0
   25.0821  -28.1642  -16.9779 O   0  0  0  0  0  0  0  0  0  0  0  0
   27.4627  -28.2942  -16.6388 C   0  0  2  0  0  0  0  0  0  0  0  0
   28.6554  -27.6650  -17.1045 N   0  0  0  0  0  0  0  0  0  0  0  0
   27.3835  -29.7301  -17.0070 C   0  0  0  0  0  0  0  0  0  0  0  0
   27.8621  -30.0802  -18.1144 O   0  0  0  0  0  0  0  0  0  0  0  0
   26.6789  -34.4029  -15.5109 C   0  0  0  0  0  0  0  0  0  0  0  0
   26.6520  -32.9376  -15.2014 C   0  0  2  0  0  0  0  0  0  0  0  0
   25.4563  -32.5165  -14.3916 C   0  0  0  0  0  0  0  0  0  0  0  0
   26.8281  -32.1323  -16.4536 C   0  0  2  0  0  0  0  0  0  0  0  0
   26.7971  -30.7103  -16.1704 N   0  0  0  0  0  0  0  0  0  0  0  0
   25.6620  -32.4640  -17.3473 C   0  0  0  0  0  0  0  0  0  0  0  0
   25.7213  -33.5593  -18.2023 O   0  0  0  0  0  0  0  0  0  0  0  0
   24.6209  -31.7824  -17.3535 O   0  0  0  0  0  0  0  0  0  0  0  0
  2 12  2  0
  2  1  1  0
  3  2  1  0
  4  5  1  0
  4  3  2  0
  5 11  2  0
  6  5  1  0
  7  6  1  0
  7  8  1  1
  9  7  1  0
  9 10  2  0
 11 12  1  0
 14 13  1  6
 14 15  1  0
 14 16  1  0
 16 17  1  6
 17  9  1  0
 18 16  1  0
 19 18  2  0
 21 20  1  6
 22 21  1  0
 23 24  1  1
 23 21  1  0
 24 18  1  0
 25 23  1  0
 26 25  1  0
 27 25  2  0
M  END
$$$$
