YTV.pdb
     RDKit          3D

 27 27  0  0  1  0  0  0  0  0999 V2000
   29.8455  -11.8746  -15.2758 O   0  0  0  0  0  0  0  0  0  0  0  0
   28.9364  -10.9660  -15.7943 C   0  0  0  0  0  0  0  0  0  0  0  0
   27.7308  -10.7795  -15.1532 C   0  0  0  0  0  0  0  0  0  0  0  0
   26.8016   -9.8710  -15.6568 C   0  0  0  0  0  0  0  0  0  0  0  0
   27.1142   -9.1655  -16.8064 C   0  0  0  0  0  0  0  0  0  0  0  0
   26.1601   -8.2033  -17.3617 C   0  0  0  0  0  0  0  0  0  0  0  0
   25.1073   -8.8840  -18.2070 C   0  0  2  0  0  0  0  0  0  0  0  0
   25.8022   -9.5221  -19.3117 N   0  0  0  0  0  0  0  0  0  0  0  0
   24.1585   -7.9024  -18.7703 C   0  0  0  0  0  0  0  0  0  0  0  0
   24.3909   -7.4102  -19.8957 O   0  0  0  0  0  0  0  0  0  0  0  0
   28.3267   -9.3697  -17.4294 C   0  0  0  0  0  0  0  0  0  0  0  0
   29.2698  -10.2710  -16.9453 C   0  0  0  0  0  0  0  0  0  0  0  0
   20.8285   -8.5368  -19.8100 C   0  0  0  0  0  0  0  0  0  0  0  0
   20.7218   -7.4167  -18.7705 C   0  0  1  0  0  0  0  0  0  0  0  0
   20.4414   -8.0186  -17.5605 O   0  0  0  0  0  0  0  0  0  0  0  0
   22.0497   -6.6508  -18.7191 C   0  0  2  0  0  0  0  0  0  0  0  0
   22.9956   -7.5029  -18.0752 N   0  0  0  0  0  0  0  0  0  0  0  0
   21.7726   -5.4097  -17.9533 C   0  0  0  0  0  0  0  0  0  0  0  0
   22.0316   -5.4072  -16.7241 O   0  0  0  0  0  0  0  0  0  0  0  0
   20.4967   -0.6088  -17.9590 C   0  0  0  0  0  0  0  0  0  0  0  0
   20.7798   -1.8586  -18.7346 C   0  0  2  0  0  0  0  0  0  0  0  0
   19.7906   -2.1180  -19.8378 C   0  0  0  0  0  0  0  0  0  0  0  0
   20.9482   -3.0254  -17.8085 C   0  0  2  0  0  0  0  0  0  0  0  0
   21.2343   -4.2415  -18.5450 N   0  0  0  0  0  0  0  0  0  0  0  0
   19.6345   -3.2015  -17.0933 C   0  0  0  0  0  0  0  0  0  0  0  0
   19.4377   -2.6390  -15.8366 O   0  0  0  0  0  0  0  0  0  0  0  0
   18.6933   -3.8453  -17.5914 O   0  0  0  0  0  0  0  0  0  0  0  0
  2 12  2  0
  2  1  1  0
  3  2  1  0
  4  5  1  0
  4  3  2  0
  5 11  2  0
  6  5  1  0
  7  6  1  0
  7  8  1  6
  9  7  1  0
  9 10  2  0
 11 12  1  0
 14 13  1  6
 14 15  1  0
 14 16  1  0
 16 17  1  1
 17  9  1  0
 18 16  1  0
 19 18  2  0
 21 20  1  1
 22 21  1  0
 23 24  1  6
 23 21  1  0
 24 18  1  0
 25 23  1  0
 26 25  1  0
 27 25  2  0
M  END
$$$$
