YTV.pdb
     RDKit          3D

 27 27  0  0  1  0  0  0  0  0999 V2000
   15.8484  -14.5313  -12.8321 O   0  0  0  0  0  0  0  0  0  0  0  0
   16.8316  -15.5080  -12.8394 C   0  0  0  0  0  0  0  0  0  0  0  0
   18.0803  -15.2027  -13.3364 C   0  0  0  0  0  0  0  0  0  0  0  0
   19.0841  -16.1694  -13.3536 C   0  0  0  0  0  0  0  0  0  0  0  0
   18.8013  -17.4332  -12.8642 C   0  0  0  0  0  0  0  0  0  0  0  0
   19.8337  -18.4719  -12.8678 C   0  0  0  0  0  0  0  0  0  0  0  0
   19.8445  -19.2449  -14.1672 C   0  0  2  0  0  0  0  0  0  0  0  0
   18.6524  -20.0752  -14.1732 N   0  0  0  0  0  0  0  0  0  0  0  0
   21.0208  -20.1343  -14.2493 C   0  0  0  0  0  0  0  0  0  0  0  0
   20.8624  -21.3655  -14.1021 O   0  0  0  0  0  0  0  0  0  0  0  0
   17.5446  -17.7141  -12.3724 C   0  0  0  0  0  0  0  0  0  0  0  0
   16.5269  -16.7656  -12.3450 C   0  0  0  0  0  0  0  0  0  0  0  0
   22.6783  -19.5420  -17.2982 C   0  0  0  0  0  0  0  0  0  0  0  0
   22.8144  -20.8327  -16.4846 C   0  0  1  0  0  0  0  0  0  0  0  0
   23.7219  -21.6319  -17.1500 O   0  0  0  0  0  0  0  0  0  0  0  0
   23.3041  -20.4873  -15.0727 C   0  0  2  0  0  0  0  0  0  0  0  0
   22.3201  -19.6349  -14.4891 N   0  0  0  0  0  0  0  0  0  0  0  0
   24.6174  -19.8188  -15.2513 C   0  0  0  0  0  0  0  0  0  0  0  0
   24.6334  -18.6946  -15.8114 O   0  0  0  0  0  0  0  0  0  0  0  0
   29.2763  -19.5018  -13.6057 C   0  0  0  0  0  0  0  0  0  0  0  0
   28.0305  -20.3181  -13.7655 C   0  0  2  0  0  0  0  0  0  0  0  0
   28.2958  -21.7566  -14.1163 C   0  0  0  0  0  0  0  0  0  0  0  0
   27.0799  -19.6472  -14.7109 C   0  0  2  0  0  0  0  0  0  0  0  0
   25.8392  -20.3901  -14.8208 N   0  0  0  0  0  0  0  0  0  0  0  0
   27.7486  -19.6374  -16.0603 C   0  0  0  0  0  0  0  0  0  0  0  0
   28.6886  -18.6608  -16.3716 O   0  0  0  0  0  0  0  0  0  0  0  0
   27.4894  -20.4877  -16.9312 O   0  0  0  0  0  0  0  0  0  0  0  0
  2 12  2  0
  2  1  1  0
  3  2  1  0
  4  5  1  0
  4  3  2  0
  5 11  2  0
  6  5  1  0
  7  6  1  0
  7  8  1  1
  9  7  1  0
  9 10  2  0
 11 12  1  0
 14 13  1  6
 14 15  1  0
 14 16  1  0
 16 17  1  6
 17  9  1  0
 18 16  1  0
 19 18  2  0
 21 20  1  6
 22 21  1  0
 23 24  1  6
 23 21  1  0
 24 18  1  0
 25 23  1  0
 26 25  1  0
 27 25  2  0
M  END
$$$$
