YTV.pdb
     RDKit          3D

 27 27  0  0  1  0  0  0  0  0999 V2000
   42.3788  -15.8825  -11.4253 O   0  0  0  0  0  0  0  0  0  0  0  0
   42.2473  -14.8967  -10.4600 C   0  0  0  0  0  0  0  0  0  0  0  0
   41.7574  -13.6606  -10.8224 C   0  0  0  0  0  0  0  0  0  0  0  0
   41.6168  -12.6545   -9.8683 C   0  0  0  0  0  0  0  0  0  0  0  0
   41.9773  -12.9223   -8.5586 C   0  0  0  0  0  0  0  0  0  0  0  0
   41.8419  -11.8871   -7.5317 C   0  0  0  0  0  0  0  0  0  0  0  0
   42.8721  -10.7934   -7.7010 C   0  0  2  0  0  0  0  0  0  0  0  0
   44.0023  -11.1453   -6.8587 N   0  0  0  0  0  0  0  0  0  0  0  0
   42.3483   -9.4912   -7.2416 C   0  0  0  0  0  0  0  0  0  0  0  0
   42.1463   -9.3146   -6.0206 O   0  0  0  0  0  0  0  0  0  0  0  0
   42.4648  -14.1666   -8.2210 C   0  0  0  0  0  0  0  0  0  0  0  0
   42.6140  -15.1863   -9.1559 C   0  0  0  0  0  0  0  0  0  0  0  0
   43.7481   -6.2341   -7.2872 C   0  0  0  0  0  0  0  0  0  0  0  0
   42.4286   -6.0884   -8.0516 C   0  0  1  0  0  0  0  0  0  0  0  0
   42.7368   -6.1386   -9.3960 O   0  0  0  0  0  0  0  0  0  0  0  0
   41.4873   -7.2313   -7.6512 C   0  0  2  0  0  0  0  0  0  0  0  0
   42.0685   -8.4386   -8.1411 N   0  0  0  0  0  0  0  0  0  0  0  0
   40.1802   -6.9200   -8.2821 C   0  0  0  0  0  0  0  0  0  0  0  0
   39.9890   -7.3091   -9.4611 O   0  0  0  0  0  0  0  0  0  0  0  0
   36.8485   -5.2768   -6.0824 C   0  0  0  0  0  0  0  0  0  0  0  0
   36.7383   -6.1124   -7.3207 C   0  0  2  0  0  0  0  0  0  0  0  0
   36.5306   -7.5759   -7.0414 C   0  0  0  0  0  0  0  0  0  0  0  0
   37.8930   -5.8465   -8.2391 C   0  0  2  0  0  0  0  0  0  0  0  0
   39.1514   -6.2102   -7.6169 N   0  0  0  0  0  0  0  0  0  0  0  0
   37.9037   -4.3633   -8.5003 C   0  0  0  0  0  0  0  0  0  0  0  0
   37.0300   -3.8070   -9.4285 O   0  0  0  0  0  0  0  0  0  0  0  0
   38.6807   -3.5944   -7.9058 O   0  0  0  0  0  0  0  0  0  0  0  0
  2 12  2  0
  2  1  1  0
  3  2  1  0
  4  5  1  0
  4  3  2  0
  5 11  2  0
  6  5  1  0
  7  6  1  0
  7  8  1  1
  9  7  1  0
  9 10  2  0
 11 12  1  0
 14 13  1  1
 14 15  1  0
 14 16  1  0
 16 17  1  6
 17  9  1  0
 18 16  1  0
 19 18  2  0
 21 20  1  1
 22 21  1  0
 23 24  1  1
 23 21  1  0
 24 18  1  0
 25 23  1  0
 26 25  1  0
 27 25  2  0
M  END
$$$$
