YTV.pdb
     RDKit          3D

 27 27  0  0  1  0  0  0  0  0999 V2000
   18.9242  -14.3231  -18.0495 O   0  0  0  0  0  0  0  0  0  0  0  0
   19.4965  -15.4965  -17.5843 C   0  0  0  0  0  0  0  0  0  0  0  0
   19.2444  -16.6777  -18.2480 C   0  0  0  0  0  0  0  0  0  0  0  0
   19.8093  -17.8697  -17.7978 C   0  0  0  0  0  0  0  0  0  0  0  0
   20.6228  -17.8409  -16.6778 C   0  0  0  0  0  0  0  0  0  0  0  0
   21.2319  -19.0756  -16.1787 C   0  0  0  0  0  0  0  0  0  0  0  0
   22.6591  -19.2271  -16.6546 C   0  0  2  0  0  0  0  0  0  0  0  0
   22.6016  -19.8450  -17.9682 N   0  0  0  0  0  0  0  0  0  0  0  0
   23.4269  -20.1200  -15.7633 C   0  0  0  0  0  0  0  0  0  0  0  0
   23.0630  -21.3091  -15.6351 O   0  0  0  0  0  0  0  0  0  0  0  0
   20.8597  -16.6468  -16.0313 C   0  0  0  0  0  0  0  0  0  0  0  0
   20.3070  -15.4447  -16.4621 C   0  0  0  0  0  0  0  0  0  0  0  0
   26.3715  -21.6321  -16.1295 C   0  0  0  0  0  0  0  0  0  0  0  0
   26.5985  -20.8758  -14.8168 C   0  0  1  0  0  0  0  0  0  0  0  0
   27.2797  -19.7180  -15.1343 O   0  0  0  0  0  0  0  0  0  0  0  0
   25.2408  -20.5667  -14.1738 C   0  0  2  0  0  0  0  0  0  0  0  0
   24.5607  -19.6702  -15.0509 N   0  0  0  0  0  0  0  0  0  0  0  0
   25.5459  -19.9640  -12.8520 C   0  0  0  0  0  0  0  0  0  0  0  0
   25.5316  -18.7112  -12.7597 O   0  0  0  0  0  0  0  0  0  0  0  0
   25.6186  -19.9818   -8.0345 C   0  0  0  0  0  0  0  0  0  0  0  0
   25.2151  -20.5463   -9.3620 C   0  0  2  0  0  0  0  0  0  0  0  0
   24.9346  -22.0238   -9.3263 C   0  0  0  0  0  0  0  0  0  0  0  0
   26.2043  -20.1602  -10.4202 C   0  0  2  0  0  0  0  0  0  0  0  0
   25.8491  -20.7346  -11.7036 N   0  0  0  0  0  0  0  0  0  0  0  0
   27.5329  -20.7292   -9.9968 C   0  0  0  0  0  0  0  0  0  0  0  0
   28.2506  -20.1418   -8.9604 O   0  0  0  0  0  0  0  0  0  0  0  0
   28.0288  -21.7280  -10.5488 O   0  0  0  0  0  0  0  0  0  0  0  0
  2 12  2  0
  2  1  1  0
  3  2  1  0
  4  5  1  0
  4  3  2  0
  5 11  2  0
  6  5  1  0
  7  6  1  0
  7  8  1  6
  9  7  1  0
  9 10  2  0
 11 12  1  0
 14 13  1  6
 14 15  1  0
 14 16  1  0
 16 17  1  6
 17  9  1  0
 18 16  1  0
 19 18  2  0
 21 20  1  1
 22 21  1  0
 23 24  1  6
 23 21  1  0
 24 18  1  0
 25 23  1  0
 26 25  1  0
 27 25  2  0
M  END
$$$$
