YTV.pdb
     RDKit          3D

 27 27  0  0  1  0  0  0  0  0999 V2000
   30.1621  -18.2714  -19.5795 O   0  0  0  0  0  0  0  0  0  0  0  0
   29.4207  -18.2378  -18.4091 C   0  0  0  0  0  0  0  0  0  0  0  0
   29.7711  -17.3494  -17.4155 C   0  0  0  0  0  0  0  0  0  0  0  0
   29.0398  -17.2982  -16.2301 C   0  0  0  0  0  0  0  0  0  0  0  0
   27.9619  -18.1530  -16.0743 C   0  0  0  0  0  0  0  0  0  0  0  0
   27.1725  -18.1248  -14.8411 C   0  0  0  0  0  0  0  0  0  0  0  0
   26.0584  -19.1467  -14.8668 C   0  0  2  0  0  0  0  0  0  0  0  0
   25.1383  -18.7402  -15.9150 N   0  0  0  0  0  0  0  0  0  0  0  0
   25.3177  -19.1609  -13.5892 C   0  0  0  0  0  0  0  0  0  0  0  0
   24.1852  -18.6341  -13.5381 O   0  0  0  0  0  0  0  0  0  0  0  0
   27.6312  -19.0327  -17.0827 C   0  0  0  0  0  0  0  0  0  0  0  0
   28.3463  -19.1018  -18.2743 C   0  0  0  0  0  0  0  0  0  0  0  0
   23.0247  -20.0524  -12.6960 C   0  0  0  0  0  0  0  0  0  0  0  0
   23.8450  -20.7243  -11.5905 C   0  0  1  0  0  0  0  0  0  0  0  0
   24.2490  -21.9499  -12.0800 O   0  0  0  0  0  0  0  0  0  0  0  0
   25.0473  -19.8362  -11.2467 C   0  0  2  0  0  0  0  0  0  0  0  0
   25.8510  -19.7523  -12.4225 N   0  0  0  0  0  0  0  0  0  0  0  0
   25.7392  -20.5090  -10.1188 C   0  0  0  0  0  0  0  0  0  0  0  0
   26.3259  -21.5948  -10.3529 O   0  0  0  0  0  0  0  0  0  0  0  0
   27.7956  -18.6339   -7.3500 C   0  0  0  0  0  0  0  0  0  0  0  0
   26.9128  -19.6455   -6.6860 C   0  0  2  0  0  0  0  0  0  0  0  0
   27.5369  -20.2854   -5.4761 C   0  0  0  0  0  0  0  0  0  0  0  0
   26.4108  -20.6428   -7.6865 C   0  0  2  0  0  0  0  0  0  0  0  0
   25.7646  -19.9830   -8.8046 N   0  0  0  0  0  0  0  0  0  0  0  0
   25.3857  -21.4874   -6.9765 C   0  0  0  0  0  0  0  0  0  0  0  0
   25.7859  -22.5395   -6.1596 O   0  0  0  0  0  0  0  0  0  0  0  0
   24.1644  -21.2788   -7.0926 O   0  0  0  0  0  0  0  0  0  0  0  0
  2 12  2  0
  2  1  1  0
  3  2  1  0
  4  5  1  0
  4  3  2  0
  5 11  2  0
  6  5  1  0
  7  6  1  0
  7  8  1  6
  9  7  1  0
  9 10  2  0
 11 12  1  0
 14 13  1  6
 14 15  1  0
 14 16  1  0
 16 17  1  6
 17  9  1  0
 18 16  1  0
 19 18  2  0
 21 20  1  6
 22 21  1  0
 23 24  1  6
 23 21  1  0
 24 18  1  0
 25 23  1  0
 26 25  1  0
 27 25  2  0
M  END
$$$$
