YTV.pdb
     RDKit          3D

 27 27  0  0  1  0  0  0  0  0999 V2000
   28.1579  -30.5264  -19.2036 O   0  0  0  0  0  0  0  0  0  0  0  0
   28.0730  -29.3669  -18.4492 C   0  0  0  0  0  0  0  0  0  0  0  0
   28.8900  -29.2180  -17.3494 C   0  0  0  0  0  0  0  0  0  0  0  0
   28.8217  -28.0604  -16.5763 C   0  0  0  0  0  0  0  0  0  0  0  0
   27.9220  -27.0711  -16.9350 C   0  0  0  0  0  0  0  0  0  0  0  0
   27.8251  -25.8424  -16.1441 C   0  0  0  0  0  0  0  0  0  0  0  0
   28.3794  -24.6509  -16.8919 C   0  0  2  0  0  0  0  0  0  0  0  0
   29.8270  -24.7693  -16.8591 N   0  0  0  0  0  0  0  0  0  0  0  0
   28.0097  -23.3847  -16.2275 C   0  0  0  0  0  0  0  0  0  0  0  0
   28.9089  -22.6811  -15.7184 O   0  0  0  0  0  0  0  0  0  0  0  0
   27.1155  -27.2435  -18.0395 C   0  0  0  0  0  0  0  0  0  0  0  0
   27.1659  -28.3902  -18.8261 C   0  0  0  0  0  0  0  0  0  0  0  0
   25.2942  -19.4906  -15.8559 C   0  0  0  0  0  0  0  0  0  0  0  0
   25.6993  -20.8057  -16.5290 C   0  0  1  0  0  0  0  0  0  0  0  0
   26.5683  -20.4815  -17.5510 O   0  0  0  0  0  0  0  0  0  0  0  0
   26.3706  -21.7148  -15.4920 C   0  0  2  0  0  0  0  0  0  0  0  0
   26.6696  -22.9448  -16.1500 N   0  0  0  0  0  0  0  0  0  0  0  0
   25.3865  -21.8706  -14.3916 C   0  0  0  0  0  0  0  0  0  0  0  0
   24.3132  -22.4726  -14.6439 O   0  0  0  0  0  0  0  0  0  0  0  0
   25.4048  -19.6508  -10.6014 C   0  0  0  0  0  0  0  0  0  0  0  0
   25.2811  -21.1413  -10.6837 C   0  0  2  0  0  0  0  0  0  0  0  0
   26.5630  -21.8681  -10.3814 C   0  0  0  0  0  0  0  0  0  0  0  0
   24.6685  -21.5467  -11.9906 C   0  0  2  0  0  0  0  0  0  0  0  0
   25.6055  -21.3741  -13.0840 N   0  0  0  0  0  0  0  0  0  0  0  0
   23.4963  -20.6295  -12.2205 C   0  0  0  0  0  0  0  0  0  0  0  0
   22.2609  -20.9110  -11.6473 O   0  0  0  0  0  0  0  0  0  0  0  0
   23.5883  -19.6041  -12.9194 O   0  0  0  0  0  0  0  0  0  0  0  0
  2 12  2  0
  2  1  1  0
  3  2  1  0
  4  5  1  0
  4  3  2  0
  5 11  2  0
  6  5  1  0
  7  6  1  0
  7  8  1  1
  9  7  1  0
  9 10  2  0
 11 12  1  0
 14 13  1  1
 14 15  1  0
 14 16  1  0
 16 17  1  6
 17  9  1  0
 18 16  1  0
 19 18  2  0
 21 20  1  6
 22 21  1  0
 23 24  1  6
 23 21  1  0
 24 18  1  0
 25 23  1  0
 26 25  1  0
 27 25  2  0
M  END
$$$$
