YTV.pdb
     RDKit          3D

 27 27  0  0  1  0  0  0  0  0999 V2000
   29.0946  -21.1542  -17.8521 O   0  0  0  0  0  0  0  0  0  0  0  0
   28.6399  -20.7431  -16.6091 C   0  0  0  0  0  0  0  0  0  0  0  0
   28.6253  -21.6437  -15.5660 C   0  0  0  0  0  0  0  0  0  0  0  0
   28.1722  -21.2521  -14.3074 C   0  0  0  0  0  0  0  0  0  0  0  0
   27.7405  -19.9487  -14.1299 C   0  0  0  0  0  0  0  0  0  0  0  0
   27.2584  -19.5051  -12.8202 C   0  0  0  0  0  0  0  0  0  0  0  0
   26.1393  -20.3841  -12.3092 C   0  0  2  0  0  0  0  0  0  0  0  0
   24.9761  -20.1072  -13.1343 N   0  0  0  0  0  0  0  0  0  0  0  0
   25.7967  -20.0532  -10.9112 C   0  0  0  0  0  0  0  0  0  0  0  0
   24.7539  -19.4042  -10.6790 O   0  0  0  0  0  0  0  0  0  0  0  0
   27.7649  -19.0666  -15.1889 C   0  0  0  0  0  0  0  0  0  0  0  0
   28.2127  -19.4346  -16.4538 C   0  0  0  0  0  0  0  0  0  0  0  0
   24.5501  -20.9941   -6.7694 C   0  0  0  0  0  0  0  0  0  0  0  0
   25.0055  -21.1566   -8.2229 C   0  0  1  0  0  0  0  0  0  0  0  0
   23.9186  -20.8568   -9.0191 O   0  0  0  0  0  0  0  0  0  0  0  0
   26.1756  -20.2024   -8.4924 C   0  0  2  0  0  0  0  0  0  0  0  0
   26.6127  -20.4485   -9.8280 N   0  0  0  0  0  0  0  0  0  0  0  0
   27.2071  -20.5285   -7.4759 C   0  0  0  0  0  0  0  0  0  0  0  0
   27.6997  -21.6840   -7.4880 O   0  0  0  0  0  0  0  0  0  0  0  0
   28.1492  -17.9834   -4.0574 C   0  0  0  0  0  0  0  0  0  0  0  0
   29.2038  -18.6446   -4.8906 C   0  0  2  0  0  0  0  0  0  0  0  0
   29.8519  -17.7196   -5.8843 C   0  0  0  0  0  0  0  0  0  0  0  0
   28.6711  -19.8992   -5.5148 C   0  0  2  0  0  0  0  0  0  0  0  0
   27.6536  -19.6007   -6.5041 N   0  0  0  0  0  0  0  0  0  0  0  0
   28.0359  -20.6964   -4.4060 C   0  0  0  0  0  0  0  0  0  0  0  0
   28.8243  -21.4415   -3.5356 O   0  0  0  0  0  0  0  0  0  0  0  0
   26.8041  -20.7175   -4.2309 O   0  0  0  0  0  0  0  0  0  0  0  0
  2 12  2  0
  2  1  1  0
  3  2  1  0
  4  5  1  0
  4  3  2  0
  5 11  2  0
  6  5  1  0
  7  6  1  0
  7  8  1  6
  9  7  1  0
  9 10  2  0
 11 12  1  0
 14 13  1  1
 14 15  1  0
 14 16  1  0
 16 17  1  6
 17  9  1  0
 18 16  1  0
 19 18  2  0
 21 20  1  6
 22 21  1  0
 23 24  1  6
 23 21  1  0
 24 18  1  0
 25 23  1  0
 26 25  1  0
 27 25  2  0
M  END
$$$$
