YTV.pdb
     RDKit          3D

 27 27  0  0  1  0  0  0  0  0999 V2000
   26.0287  -35.7432  -12.3141 O   0  0  0  0  0  0  0  0  0  0  0  0
   26.5437  -34.6853  -13.0464 C   0  0  0  0  0  0  0  0  0  0  0  0
   27.8906  -34.6604  -13.3373 C   0  0  0  0  0  0  0  0  0  0  0  0
   28.4302  -33.6063  -14.0723 C   0  0  0  0  0  0  0  0  0  0  0  0
   27.5897  -32.5928  -14.5003 C   0  0  0  0  0  0  0  0  0  0  0  0
   28.1247  -31.4708  -15.2746 C   0  0  0  0  0  0  0  0  0  0  0  0
   28.0719  -31.7417  -16.7613 C   0  0  2  0  0  0  0  0  0  0  0  0
   29.3407  -32.3494  -17.1238 N   0  0  0  0  0  0  0  0  0  0  0  0
   27.9309  -30.4872  -17.5277 C   0  0  0  0  0  0  0  0  0  0  0  0
   28.7812  -30.2106  -18.4014 O   0  0  0  0  0  0  0  0  0  0  0  0
   26.2460  -32.6404  -14.1967 C   0  0  0  0  0  0  0  0  0  0  0  0
   25.6848  -33.6821  -13.4645 C   0  0  0  0  0  0  0  0  0  0  0  0
   27.3785  -29.8621  -20.1718 C   0  0  0  0  0  0  0  0  0  0  0  0
   26.2038  -29.1104  -19.5380 C   0  0  1  0  0  0  0  0  0  0  0  0
   25.1919  -30.0307  -19.3537 O   0  0  0  0  0  0  0  0  0  0  0  0
   26.6567  -28.5035  -18.2042 C   0  0  2  0  0  0  0  0  0  0  0  0
   26.8634  -29.5898  -17.3028 N   0  0  0  0  0  0  0  0  0  0  0  0
   25.5608  -27.5975  -17.7780 C   0  0  0  0  0  0  0  0  0  0  0  0
   24.5520  -28.1109  -17.2333 O   0  0  0  0  0  0  0  0  0  0  0  0
   25.8448  -23.2479  -18.0687 C   0  0  0  0  0  0  0  0  0  0  0  0
   25.2610  -24.0183  -16.9243 C   0  0  2  0  0  0  0  0  0  0  0  0
   26.2308  -24.2474  -15.7975 C   0  0  0  0  0  0  0  0  0  0  0  0
   24.6185  -25.2812  -17.4139 C   0  0  2  0  0  0  0  0  0  0  0  0
   25.6054  -26.1939  -17.9583 N   0  0  0  0  0  0  0  0  0  0  0  0
   23.6768  -24.8851  -18.5205 C   0  0  0  0  0  0  0  0  0  0  0  0
   22.4169  -24.3769  -18.2227 O   0  0  0  0  0  0  0  0  0  0  0  0
   23.9856  -24.9960  -19.7208 O   0  0  0  0  0  0  0  0  0  0  0  0
  2 12  2  0
  2  1  1  0
  3  2  1  0
  4  5  1  0
  4  3  2  0
  5 11  2  0
  6  5  1  0
  7  6  1  0
  7  8  1  6
  9  7  1  0
  9 10  2  0
 11 12  1  0
 14 13  1  1
 14 15  1  0
 14 16  1  0
 16 17  1  1
 17  9  1  0
 18 16  1  0
 19 18  2  0
 21 20  1  6
 22 21  1  0
 23 24  1  6
 23 21  1  0
 24 18  1  0
 25 23  1  0
 26 25  1  0
 27 25  2  0
M  END
$$$$
