YTV.pdb
     RDKit          3D

 27 27  0  0  1  0  0  0  0  0999 V2000
   15.1020  -16.8124  -18.4688 O   0  0  0  0  0  0  0  0  0  0  0  0
   16.1363  -15.9140  -18.2591 C   0  0  0  0  0  0  0  0  0  0  0  0
   17.3458  -16.3777  -17.7884 C   0  0  0  0  0  0  0  0  0  0  0  0
   18.3998  -15.4923  -17.5704 C   0  0  0  0  0  0  0  0  0  0  0  0
   18.2063  -14.1471  -17.8350 C   0  0  0  0  0  0  0  0  0  0  0  0
   19.2932  -13.1903  -17.6167 C   0  0  0  0  0  0  0  0  0  0  0  0
   19.8279  -12.6441  -18.9213 C   0  0  2  0  0  0  0  0  0  0  0  0
   20.5686  -13.7204  -19.5564 N   0  0  0  0  0  0  0  0  0  0  0  0
   20.7609  -11.5233  -18.6881 C   0  0  0  0  0  0  0  0  0  0  0  0
   21.9907  -11.7478  -18.6841 O   0  0  0  0  0  0  0  0  0  0  0  0
   16.9873  -13.7079  -18.3053 C   0  0  0  0  0  0  0  0  0  0  0  0
   15.9209  -14.5728  -18.5306 C   0  0  0  0  0  0  0  0  0  0  0  0
   21.1624   -8.4740  -20.6222 C   0  0  0  0  0  0  0  0  0  0  0  0
   20.9115   -8.0167  -19.1819 C   0  0  1  0  0  0  0  0  0  0  0  0
   19.5781   -7.6701  -19.0982 O   0  0  0  0  0  0  0  0  0  0  0  0
   21.2513   -9.1653  -18.2238 C   0  0  2  0  0  0  0  0  0  0  0  0
   20.3050  -10.2043  -18.4693 N   0  0  0  0  0  0  0  0  0  0  0  0
   21.1462   -8.5972  -16.8564 C   0  0  0  0  0  0  0  0  0  0  0  0
   19.9978   -8.4381  -16.3726 O   0  0  0  0  0  0  0  0  0  0  0  0
   24.4370   -8.6378  -14.1909 C   0  0  0  0  0  0  0  0  0  0  0  0
   22.9924   -8.6404  -13.7949 C   0  0  2  0  0  0  0  0  0  0  0  0
   22.4136  -10.0206  -13.6434 C   0  0  0  0  0  0  0  0  0  0  0  0
   22.1938   -7.7646  -14.7129 C   0  0  2  0  0  0  0  0  0  0  0  0
   22.2747   -8.2314  -16.0836 N   0  0  0  0  0  0  0  0  0  0  0  0
   22.8085   -6.3915  -14.6419 C   0  0  0  0  0  0  0  0  0  0  0  0
   22.6041   -5.5871  -13.5259 O   0  0  0  0  0  0  0  0  0  0  0  0
   23.5093   -5.9341  -15.5627 O   0  0  0  0  0  0  0  0  0  0  0  0
  2 12  2  0
  2  1  1  0
  3  2  1  0
  4  5  1  0
  4  3  2  0
  5 11  2  0
  6  5  1  0
  7  6  1  0
  7  8  1  1
  9  7  1  0
  9 10  2  0
 11 12  1  0
 14 13  1  6
 14 15  1  0
 14 16  1  0
 16 17  1  1
 17  9  1  0
 18 16  1  0
 19 18  2  0
 21 20  1  6
 22 21  1  0
 23 24  1  6
 23 21  1  0
 24 18  1  0
 25 23  1  0
 26 25  1  0
 27 25  2  0
M  END
$$$$
