YTV.pdb
     RDKit          3D

 27 27  0  0  1  0  0  0  0  0999 V2000
   20.7983  -29.4692   -2.4370 O   0  0  0  0  0  0  0  0  0  0  0  0
   21.7493  -30.3017   -3.0057 C   0  0  0  0  0  0  0  0  0  0  0  0
   23.0231  -30.3262   -2.4803 C   0  0  0  0  0  0  0  0  0  0  0  0
   23.9955  -31.1557   -3.0362 C   0  0  0  0  0  0  0  0  0  0  0  0
   23.6559  -31.9482   -4.1195 C   0  0  0  0  0  0  0  0  0  0  0  0
   24.6539  -32.8310   -4.7271 C   0  0  0  0  0  0  0  0  0  0  0  0
   24.5822  -34.2305   -4.1593 C   0  0  2  0  0  0  0  0  0  0  0  0
   25.1902  -34.1816   -2.8408 N   0  0  0  0  0  0  0  0  0  0  0  0
   25.3553  -35.1812   -4.9837 C   0  0  0  0  0  0  0  0  0  0  0  0
   26.5938  -35.2514   -4.8289 O   0  0  0  0  0  0  0  0  0  0  0  0
   22.3750  -31.9059   -4.6270 C   0  0  0  0  0  0  0  0  0  0  0  0
   21.3879  -31.0860   -4.0888 C   0  0  0  0  0  0  0  0  0  0  0  0
   25.9560  -38.3400   -4.5865 C   0  0  0  0  0  0  0  0  0  0  0  0
   25.2647  -38.3339   -5.9534 C   0  0  1  0  0  0  0  0  0  0  0  0
   23.9190  -38.5364   -5.7226 O   0  0  0  0  0  0  0  0  0  0  0  0
   25.5172  -36.9848   -6.6381 C   0  0  2  0  0  0  0  0  0  0  0  0
   24.7369  -36.0139   -5.9426 N   0  0  0  0  0  0  0  0  0  0  0  0
   25.0970  -37.1620   -8.0507 C   0  0  0  0  0  0  0  0  0  0  0  0
   23.9038  -36.9029   -8.3459 O   0  0  0  0  0  0  0  0  0  0  0  0
   26.3285  -37.6694  -12.7968 C   0  0  0  0  0  0  0  0  0  0  0  0
   26.6438  -37.2811  -11.3849 C   0  0  2  0  0  0  0  0  0  0  0  0
   28.0342  -37.6602  -10.9538 C   0  0  0  0  0  0  0  0  0  0  0  0
   25.5816  -37.7805  -10.4524 C   0  0  2  0  0  0  0  0  0  0  0  0
   25.9761  -37.6061   -9.0678 N   0  0  0  0  0  0  0  0  0  0  0  0
   25.4303  -39.2548  -10.7209 C   0  0  0  0  0  0  0  0  0  0  0  0
   26.0244  -40.1872   -9.8771 O   0  0  0  0  0  0  0  0  0  0  0  0
   24.7798  -39.6853  -11.6903 O   0  0  0  0  0  0  0  0  0  0  0  0
  2 12  2  0
  2  1  1  0
  3  2  1  0
  4  5  1  0
  4  3  2  0
  5 11  2  0
  6  5  1  0
  7  6  1  0
  7  8  1  1
  9  7  1  0
  9 10  2  0
 11 12  1  0
 14 13  1  1
 14 15  1  0
 14 16  1  0
 16 17  1  1
 17  9  1  0
 18 16  1  0
 19 18  2  0
 21 20  1  6
 22 21  1  0
 23 24  1  1
 23 21  1  0
 24 18  1  0
 25 23  1  0
 26 25  1  0
 27 25  2  0
M  END
$$$$
