WAL.pdb
     RDKit          3D

 28 29  0  0  1  0  0  0  0  0999 V2000
   24.2235  -20.1577  -12.7907 N   0  0  0  0  0  0  0  0  0  0  0  0
   25.6698  -20.0020  -12.8949 C   0  0  1  0  0  0  0  0  0  0  0  0
   26.4057  -21.1214  -12.2405 C   0  0  0  0  0  0  0  0  0  0  0  0
   26.3620  -21.1338  -10.7780 C   0  0  0  0  0  0  0  0  0  0  0  0
   25.3270  -21.3277   -9.8902 C   0  0  0  0  0  0  0  0  0  0  0  0
   25.7990  -21.2415   -8.6420 N   0  0  0  0  0  0  0  0  0  0  0  0
   27.1152  -20.9965   -8.6787 C   0  0  0  0  0  0  0  0  0  0  0  0
   28.0517  -20.8237   -7.6759 C   0  0  0  0  0  0  0  0  0  0  0  0
   29.3557  -20.5808   -7.9899 C   0  0  0  0  0  0  0  0  0  0  0  0
   29.7631  -20.5031   -9.3201 C   0  0  0  0  0  0  0  0  0  0  0  0
   28.8106  -20.6789  -10.2806 C   0  0  0  0  0  0  0  0  0  0  0  0
   27.4768  -20.9274   -9.9904 C   0  0  0  0  0  0  0  0  0  0  0  0
   26.0240  -19.7593  -14.2954 C   0  0  0  0  0  0  0  0  0  0  0  0
   25.2702  -20.1370  -15.2262 O   0  0  0  0  0  0  0  0  0  0  0  0
   28.7526  -17.6956  -15.9408 C   0  0  0  0  0  0  0  0  0  0  0  0
   27.6227  -18.7085  -15.9473 C   0  0  2  0  0  0  0  0  0  0  0  0
   27.2359  -19.0877  -14.6135 N   0  0  0  0  0  0  0  0  0  0  0  0
   27.9779  -19.9205  -16.7187 C   0  0  0  0  0  0  0  0  0  0  0  0
   28.2742  -19.8123  -17.9391 O   0  0  0  0  0  0  0  0  0  0  0  0
   31.4343  -23.6548  -15.0412 C   0  0  0  0  0  0  0  0  0  0  0  0
   30.6285  -22.7118  -15.9225 C   0  0  1  0  0  0  0  0  0  0  0  0
   31.2689  -22.6252  -17.2962 C   0  0  0  0  0  0  0  0  0  0  0  0
   29.2538  -23.2894  -16.0775 C   0  0  0  0  0  0  0  0  0  0  0  0
   28.2939  -22.4319  -16.8337 C   0  0  2  0  0  0  0  0  0  0  0  0
   27.9936  -21.2007  -16.1199 N   0  0  0  0  0  0  0  0  0  0  0  0
   27.0640  -23.1048  -17.2770 C   0  0  0  0  0  0  0  0  0  0  0  0
   26.8258  -23.5435  -18.5673 O   0  0  0  0  0  0  0  0  0  0  0  0
   26.1042  -23.3311  -16.4592 O   0  0  0  0  0  0  0  0  0  0  0  0
  2  1  1  6
  2 13  1  0
  2  3  1  0
  4  3  1  0
  4  5  2  0
  6  5  1  0
  7  6  1  0
  8  7  2  0
  9  8  1  0
 10  9  2  0
 10 11  1  0
 11 12  2  0
 12  7  1  0
 12  4  1  0
 13 17  1  0
 14 13  2  0
 16 15  1  1
 17 16  1  0
 18 19  2  0
 18 16  1  0
 21 20  1  1
 21 23  1  0
 21 22  1  0
 24 25  1  0
 24 23  1  1
 25 18  1  0
 26 24  1  0
 27 26  1  0
 28 26  2  0
M  END
$$$$
