WAL.pdb
     RDKit          3D

 28 29  0  0  1  0  0  0  0  0999 V2000
   28.1065  -21.6161  -10.6490 N   0  0  0  0  0  0  0  0  0  0  0  0
   26.8356  -21.1001  -10.1534 C   0  0  1  0  0  0  0  0  0  0  0  0
   27.0094  -20.2307   -8.9548 C   0  0  0  0  0  0  0  0  0  0  0  0
   28.1513  -20.5574   -8.1001 C   0  0  0  0  0  0  0  0  0  0  0  0
   29.3057  -21.2694   -8.3398 C   0  0  0  0  0  0  0  0  0  0  0  0
   30.0459  -21.2906   -7.2263 N   0  0  0  0  0  0  0  0  0  0  0  0
   29.4149  -20.6139   -6.2581 C   0  0  0  0  0  0  0  0  0  0  0  0
   29.7544  -20.3476   -4.9442 C   0  0  0  0  0  0  0  0  0  0  0  0
   28.9165  -19.6188   -4.1537 C   0  0  0  0  0  0  0  0  0  0  0  0
   27.7107  -19.1333   -4.6551 C   0  0  0  0  0  0  0  0  0  0  0  0
   27.4109  -19.4165   -5.9554 C   0  0  0  0  0  0  0  0  0  0  0  0
   28.2442  -20.1555   -6.7828 C   0  0  0  0  0  0  0  0  0  0  0  0
   26.1030  -20.4884  -11.2647 C   0  0  0  0  0  0  0  0  0  0  0  0
   26.6450  -19.6233  -11.9962 O   0  0  0  0  0  0  0  0  0  0  0  0
   24.6775  -20.8685  -13.9733 C   0  0  0  0  0  0  0  0  0  0  0  0
   24.0074  -20.4511  -12.6774 C   0  0  2  0  0  0  0  0  0  0  0  0
   24.7598  -20.8740  -11.5252 N   0  0  0  0  0  0  0  0  0  0  0  0
   22.6265  -20.9749  -12.5813 C   0  0  0  0  0  0  0  0  0  0  0  0
   22.4319  -22.1204  -12.0926 O   0  0  0  0  0  0  0  0  0  0  0  0
   18.3268  -17.4606  -11.8542 C   0  0  0  0  0  0  0  0  0  0  0  0
   19.3355  -18.5894  -11.7011 C   0  0  1  0  0  0  0  0  0  0  0  0
   19.0259  -19.3834  -10.4448 C   0  0  0  0  0  0  0  0  0  0  0  0
   19.1900  -19.4996  -12.8833 C   0  0  0  0  0  0  0  0  0  0  0  0
   20.1339  -20.6560  -12.9055 C   0  0  2  0  0  0  0  0  0  0  0  0
   21.5165  -20.2208  -13.0252 N   0  0  0  0  0  0  0  0  0  0  0  0
   19.8187  -21.7063  -13.8852 C   0  0  0  0  0  0  0  0  0  0  0  0
   18.7891  -22.6215  -13.7571 O   0  0  0  0  0  0  0  0  0  0  0  0
   20.5093  -21.8382  -14.9561 O   0  0  0  0  0  0  0  0  0  0  0  0
  2  1  1  6
  2 13  1  0
  2  3  1  0
  4  3  1  0
  4  5  2  0
  6  5  1  0
  7  6  1  0
  8  7  2  0
  9  8  1  0
 10  9  2  0
 10 11  1  0
 11 12  2  0
 12  7  1  0
 12  4  1  0
 13 17  1  0
 14 13  2  0
 16 15  1  6
 17 16  1  0
 18 19  2  0
 18 16  1  0
 21 20  1  6
 21 23  1  0
 21 22  1  0
 24 25  1  0
 24 23  1  6
 25 18  1  0
 26 24  1  0
 27 26  1  0
 28 26  2  0
M  END
$$$$
