WAL.pdb
     RDKit          3D

 28 29  0  0  1  0  0  0  0  0999 V2000
   23.9514  -20.6110  -16.1037 N   0  0  0  0  0  0  0  0  0  0  0  0
   23.5092  -19.6092  -15.1404 C   0  0  1  0  0  0  0  0  0  0  0  0
   23.6443  -18.2215  -15.6686 C   0  0  0  0  0  0  0  0  0  0  0  0
   24.9616  -17.8773  -16.2048 C   0  0  0  0  0  0  0  0  0  0  0  0
   25.3432  -17.1733  -17.3254 C   0  0  0  0  0  0  0  0  0  0  0  0
   26.6786  -17.1319  -17.3825 N   0  0  0  0  0  0  0  0  0  0  0  0
   27.1906  -17.7877  -16.3330 C   0  0  0  0  0  0  0  0  0  0  0  0
   28.4943  -18.0286  -15.9397 C   0  0  0  0  0  0  0  0  0  0  0  0
   28.7480  -18.7391  -14.8045 C   0  0  0  0  0  0  0  0  0  0  0  0
   27.7023  -19.2312  -14.0263 C   0  0  0  0  0  0  0  0  0  0  0  0
   26.4305  -18.9732  -14.4466 C   0  0  0  0  0  0  0  0  0  0  0  0
   26.1427  -18.2532  -15.5972 C   0  0  0  0  0  0  0  0  0  0  0  0
   22.1713  -19.9652  -14.6618 C   0  0  0  0  0  0  0  0  0  0  0  0
   21.4703  -20.8083  -15.2742 O   0  0  0  0  0  0  0  0  0  0  0  0
   20.2480  -19.1498  -11.4920 C   0  0  0  0  0  0  0  0  0  0  0  0
   20.3703  -19.6659  -12.9138 C   0  0  2  0  0  0  0  0  0  0  0  0
   21.6524  -19.3524  -13.4888 N   0  0  0  0  0  0  0  0  0  0  0  0
   19.2985  -19.1329  -13.7841 C   0  0  0  0  0  0  0  0  0  0  0  0
   19.4501  -18.0093  -14.3350 O   0  0  0  0  0  0  0  0  0  0  0  0
   16.7591  -22.2179  -17.3468 C   0  0  0  0  0  0  0  0  0  0  0  0
   17.4514  -21.0723  -16.6232 C   0  0  1  0  0  0  0  0  0  0  0  0
   17.9104  -20.0349  -17.6319 C   0  0  0  0  0  0  0  0  0  0  0  0
   16.4490  -20.4327  -15.7101 C   0  0  0  0  0  0  0  0  0  0  0  0
   16.9991  -19.3655  -14.8229 C   0  0  2  0  0  0  0  0  0  0  0  0
   18.1048  -19.8541  -14.0141 N   0  0  0  0  0  0  0  0  0  0  0  0
   16.0068  -18.6596  -13.9987 C   0  0  0  0  0  0  0  0  0  0  0  0
   14.9667  -17.8958  -14.4975 O   0  0  0  0  0  0  0  0  0  0  0  0
   16.0526  -18.7143  -12.7196 O   0  0  0  0  0  0  0  0  0  0  0  0
  2  1  1  6
  2 13  1  0
  2  3  1  0
  4  3  1  0
  4  5  2  0
  6  5  1  0
  7  6  1  0
  8  7  2  0
  9  8  1  0
 10  9  2  0
 10 11  1  0
 11 12  2  0
 12  7  1  0
 12  4  1  0
 13 17  1  0
 14 13  2  0
 16 15  1  1
 17 16  1  0
 18 19  2  0
 18 16  1  0
 21 20  1  6
 21 23  1  0
 21 22  1  0
 24 25  1  0
 24 23  1  1
 25 18  1  0
 26 24  1  0
 27 26  1  0
 28 26  2  0
M  END
$$$$
