WAL.pdb
     RDKit          3D

 28 29  0  0  1  0  0  0  0  0999 V2000
   27.6443  -20.8626  -12.6382 N   0  0  0  0  0  0  0  0  0  0  0  0
   26.4952  -21.4352  -11.9466 C   0  0  1  0  0  0  0  0  0  0  0  0
   26.3745  -20.9370  -10.5465 C   0  0  0  0  0  0  0  0  0  0  0  0
   27.6074  -20.9673   -9.7589 C   0  0  0  0  0  0  0  0  0  0  0  0
   28.8895  -21.3611  -10.0720 C   0  0  0  0  0  0  0  0  0  0  0  0
   29.6713  -21.1997   -8.9991 N   0  0  0  0  0  0  0  0  0  0  0  0
   28.9437  -20.7110   -7.9865 C   0  0  0  0  0  0  0  0  0  0  0  0
   29.2765  -20.3744   -6.6871 C   0  0  0  0  0  0  0  0  0  0  0  0
   28.3262  -19.8871   -5.8401 C   0  0  0  0  0  0  0  0  0  0  0  0
   27.0109  -19.7213   -6.2686 C   0  0  0  0  0  0  0  0  0  0  0  0
   26.7214  -20.0643   -7.5568 C   0  0  0  0  0  0  0  0  0  0  0  0
   27.6679  -20.5624   -8.4406 C   0  0  0  0  0  0  0  0  0  0  0  0
   25.3010  -21.2557  -12.7758 C   0  0  0  0  0  0  0  0  0  0  0  0
   24.9379  -20.1115  -13.1448 O   0  0  0  0  0  0  0  0  0  0  0  0
   23.1833  -23.7069  -14.7298 C   0  0  0  0  0  0  0  0  0  0  0  0
   23.4639  -22.3413  -14.1304 C   0  0  2  0  0  0  0  0  0  0  0  0
   24.5375  -22.3873  -13.1725 N   0  0  0  0  0  0  0  0  0  0  0  0
   22.2596  -21.7660  -13.4908 C   0  0  0  0  0  0  0  0  0  0  0  0
   21.9822  -22.0773  -12.3013 O   0  0  0  0  0  0  0  0  0  0  0  0
   20.3886  -16.5580  -14.5098 C   0  0  0  0  0  0  0  0  0  0  0  0
   20.8512  -17.8312  -13.8168 C   0  0  1  0  0  0  0  0  0  0  0  0
   20.7584  -17.6554  -12.3118 C   0  0  0  0  0  0  0  0  0  0  0  0
   19.9244  -18.9377  -14.2215 C   0  0  0  0  0  0  0  0  0  0  0  0
   20.2222  -20.2638  -13.6039 C   0  0  2  0  0  0  0  0  0  0  0  0
   21.4095  -20.8731  -14.1822 N   0  0  0  0  0  0  0  0  0  0  0  0
   19.0975  -21.2106  -13.5744 C   0  0  0  0  0  0  0  0  0  0  0  0
   18.0906  -21.2103  -12.6256 O   0  0  0  0  0  0  0  0  0  0  0  0
   18.9832  -22.1271  -14.4622 O   0  0  0  0  0  0  0  0  0  0  0  0
  2  1  1  6
  2 13  1  0
  2  3  1  0
  4  3  1  0
  4  5  2  0
  6  5  1  0
  7  6  1  0
  8  7  2  0
  9  8  1  0
 10  9  2  0
 10 11  1  0
 11 12  2  0
 12  7  1  0
 12  4  1  0
 13 17  1  0
 14 13  2  0
 16 15  1  1
 17 16  1  0
 18 19  2  0
 18 16  1  0
 21 20  1  6
 21 23  1  0
 21 22  1  0
 24 25  1  0
 24 23  1  6
 25 18  1  0
 26 24  1  0
 27 26  1  0
 28 26  2  0
M  END
$$$$
