WAL.pdb
     RDKit          3D

 28 29  0  0  1  0  0  0  0  0999 V2000
   28.5144  -19.3503  -15.5709 N   0  0  0  0  0  0  0  0  0  0  0  0
   27.3258  -19.4108  -14.7279 C   0  0  1  0  0  0  0  0  0  0  0  0
   27.5401  -18.7588  -13.4043 C   0  0  0  0  0  0  0  0  0  0  0  0
   28.2442  -19.5690  -12.4098 C   0  0  0  0  0  0  0  0  0  0  0  0
   29.5037  -20.1265  -12.4023 C   0  0  0  0  0  0  0  0  0  0  0  0
   29.6830  -20.7868  -11.2533 N   0  0  0  0  0  0  0  0  0  0  0  0
   28.5796  -20.6822  -10.5017 C   0  0  0  0  0  0  0  0  0  0  0  0
   28.2636  -21.1770   -9.2495 C   0  0  0  0  0  0  0  0  0  0  0  0
   27.0438  -20.9196   -8.6983 C   0  0  0  0  0  0  0  0  0  0  0  0
   26.1009  -20.1576   -9.3849 C   0  0  0  0  0  0  0  0  0  0  0  0
   26.4493  -19.6872  -10.6171 C   0  0  0  0  0  0  0  0  0  0  0  0
   27.6829  -19.9333  -11.2025 C   0  0  0  0  0  0  0  0  0  0  0  0
   26.1762  -18.9136  -15.4875 C   0  0  0  0  0  0  0  0  0  0  0  0
   26.2818  -17.9092  -16.2340 O   0  0  0  0  0  0  0  0  0  0  0  0
   24.0856  -19.3494  -17.6757 C   0  0  0  0  0  0  0  0  0  0  0  0
   23.7734  -19.2547  -16.1937 C   0  0  2  0  0  0  0  0  0  0  0  0
   24.9204  -19.5716  -15.3835 N   0  0  0  0  0  0  0  0  0  0  0  0
   22.6459  -20.1350  -15.8141 C   0  0  0  0  0  0  0  0  0  0  0  0
   21.5487  -20.0337  -16.4262 O   0  0  0  0  0  0  0  0  0  0  0  0
   24.7271  -21.7737  -11.1773 C   0  0  0  0  0  0  0  0  0  0  0  0
   24.0634  -21.7958  -12.5463 C   0  0  1  0  0  0  0  0  0  0  0  0
   24.1205  -23.2008  -13.1184 C   0  0  0  0  0  0  0  0  0  0  0  0
   22.6241  -21.4173  -12.3657 C   0  0  0  0  0  0  0  0  0  0  0  0
   21.8757  -21.1707  -13.6337 C   0  0  2  0  0  0  0  0  0  0  0  0
   22.7684  -21.0898  -14.7791 N   0  0  0  0  0  0  0  0  0  0  0  0
   20.9435  -20.0339  -13.6028 C   0  0  0  0  0  0  0  0  0  0  0  0
   19.6366  -20.0973  -13.1533 O   0  0  0  0  0  0  0  0  0  0  0  0
   21.3045  -18.8735  -14.0079 O   0  0  0  0  0  0  0  0  0  0  0  0
  2  1  1  6
  2 13  1  0
  2  3  1  0
  4  3  1  0
  4  5  2  0
  6  5  1  0
  7  6  1  0
  8  7  2  0
  9  8  1  0
 10  9  2  0
 10 11  1  0
 11 12  2  0
 12  7  1  0
 12  4  1  0
 13 17  1  0
 14 13  2  0
 16 15  1  6
 17 16  1  0
 18 19  2  0
 18 16  1  0
 21 20  1  1
 21 23  1  0
 21 22  1  0
 24 25  1  0
 24 23  1  1
 25 18  1  0
 26 24  1  0
 27 26  1  0
 28 26  2  0
M  END
$$$$
