WAL.pdb
     RDKit          3D

 28 29  0  0  1  0  0  0  0  0999 V2000
   25.4668  -19.3079  -12.1299 N   0  0  0  0  0  0  0  0  0  0  0  0
   26.2124  -20.4964  -12.5279 C   0  0  1  0  0  0  0  0  0  0  0  0
   26.1904  -21.5535  -11.4768 C   0  0  0  0  0  0  0  0  0  0  0  0
   26.2312  -21.0700  -10.0963 C   0  0  0  0  0  0  0  0  0  0  0  0
   25.2596  -20.5340   -9.2804 C   0  0  0  0  0  0  0  0  0  0  0  0
   25.7987  -20.2415   -8.0920 N   0  0  0  0  0  0  0  0  0  0  0  0
   27.0974  -20.5683   -8.0986 C   0  0  0  0  0  0  0  0  0  0  0  0
   28.0812  -20.4667   -7.1320 C   0  0  0  0  0  0  0  0  0  0  0  0
   29.3518  -20.8808   -7.4006 C   0  0  0  0  0  0  0  0  0  0  0  0
   29.6773  -21.4104   -8.6476 C   0  0  0  0  0  0  0  0  0  0  0  0
   28.6802  -21.4944   -9.5746 C   0  0  0  0  0  0  0  0  0  0  0  0
   27.3787  -21.0809   -9.3291 C   0  0  0  0  0  0  0  0  0  0  0  0
   25.7551  -20.9256  -13.8516 C   0  0  0  0  0  0  0  0  0  0  0  0
   24.8064  -20.3384  -14.4282 O   0  0  0  0  0  0  0  0  0  0  0  0
   26.8103  -23.7448  -16.1878 C   0  0  0  0  0  0  0  0  0  0  0  0
   26.0503  -22.4841  -15.8196 C   0  0  2  0  0  0  0  0  0  0  0  0
   26.3888  -22.0211  -14.4991 N   0  0  0  0  0  0  0  0  0  0  0  0
   24.5863  -22.6809  -15.9105 C   0  0  0  0  0  0  0  0  0  0  0  0
   24.0759  -23.0293  -17.0091 O   0  0  0  0  0  0  0  0  0  0  0  0
   20.0625  -24.7787  -13.8357 C   0  0  0  0  0  0  0  0  0  0  0  0
   20.3053  -23.3368  -13.4149 C   0  0  1  0  0  0  0  0  0  0  0  0
   19.8380  -23.1372  -11.9843 C   0  0  0  0  0  0  0  0  0  0  0  0
   21.7820  -23.0843  -13.4693 C   0  0  0  0  0  0  0  0  0  0  0  0
   22.3029  -22.6920  -14.8123 C   0  0  2  0  0  0  0  0  0  0  0  0
   23.7427  -22.4875  -14.7930 N   0  0  0  0  0  0  0  0  0  0  0  0
   21.6120  -21.5608  -15.4488 C   0  0  0  0  0  0  0  0  0  0  0  0
   20.6441  -21.6786  -16.4303 O   0  0  0  0  0  0  0  0  0  0  0  0
   21.8798  -20.3528  -15.1167 O   0  0  0  0  0  0  0  0  0  0  0  0
  2  1  1  1
  2 13  1  0
  2  3  1  0
  4  3  1  0
  4  5  2  0
  6  5  1  0
  7  6  1  0
  8  7  2  0
  9  8  1  0
 10  9  2  0
 10 11  1  0
 11 12  2  0
 12  7  1  0
 12  4  1  0
 13 17  1  0
 14 13  2  0
 16 15  1  1
 17 16  1  0
 18 19  2  0
 18 16  1  0
 21 20  1  1
 21 23  1  0
 21 22  1  0
 24 25  1  0
 24 23  1  1
 25 18  1  0
 26 24  1  0
 27 26  1  0
 28 26  2  0
M  END
$$$$
