WAL.pdb
     RDKit          3D

 28 29  0  0  1  0  0  0  0  0999 V2000
   29.2712  -38.3212   -9.1315 N   0  0  0  0  0  0  0  0  0  0  0  0
   29.0441  -37.0329   -8.4869 C   0  0  1  0  0  0  0  0  0  0  0  0
   27.5934  -36.7447   -8.2990 C   0  0  0  0  0  0  0  0  0  0  0  0
   26.8343  -36.5078   -9.5273 C   0  0  0  0  0  0  0  0  0  0  0  0
   26.3054  -37.3696  -10.4625 C   0  0  0  0  0  0  0  0  0  0  0  0
   25.6941  -36.6589  -11.4163 N   0  0  0  0  0  0  0  0  0  0  0  0
   25.8035  -35.3532  -11.1390 C   0  0  0  0  0  0  0  0  0  0  0  0
   25.3506  -34.2265  -11.8007 C   0  0  0  0  0  0  0  0  0  0  0  0
   25.6020  -32.9863  -11.2942 C   0  0  0  0  0  0  0  0  0  0  0  0
   26.3159  -32.8355  -10.1072 C   0  0  0  0  0  0  0  0  0  0  0  0
   26.7459  -33.9700   -9.4837 C   0  0  0  0  0  0  0  0  0  0  0  0
   26.5047  -35.2446   -9.9760 C   0  0  0  0  0  0  0  0  0  0  0  0
   29.8558  -36.9587   -7.2697 C   0  0  0  0  0  0  0  0  0  0  0  0
   30.0827  -37.9847   -6.5821 O   0  0  0  0  0  0  0  0  0  0  0  0
   32.2643  -34.5198   -5.8080 C   0  0  0  0  0  0  0  0  0  0  0  0
   31.1350  -35.5182   -5.6334 C   0  0  2  0  0  0  0  0  0  0  0  0
   30.3977  -35.7117   -6.8547 N   0  0  0  0  0  0  0  0  0  0  0  0
   30.2043  -35.1099   -4.5576 C   0  0  0  0  0  0  0  0  0  0  0  0
   30.6557  -34.8797   -3.4034 O   0  0  0  0  0  0  0  0  0  0  0  0
   25.5227  -32.5956   -6.0631 C   0  0  0  0  0  0  0  0  0  0  0  0
   26.8691  -32.9809   -5.4681 C   0  0  1  0  0  0  0  0  0  0  0  0
   27.5205  -31.7588   -4.8462 C   0  0  0  0  0  0  0  0  0  0  0  0
   26.6220  -33.9875   -4.3849 C   0  0  0  0  0  0  0  0  0  0  0  0
   27.8543  -34.5720   -3.7778 C   0  0  2  0  0  0  0  0  0  0  0  0
   28.8174  -34.9709   -4.7920 N   0  0  0  0  0  0  0  0  0  0  0  0
   27.6253  -35.6514   -2.8060 C   0  0  0  0  0  0  0  0  0  0  0  0
   27.9359  -36.9828   -3.0178 O   0  0  0  0  0  0  0  0  0  0  0  0
   27.1030  -35.4090   -1.6616 O   0  0  0  0  0  0  0  0  0  0  0  0
  2  1  1  1
  2 13  1  0
  2  3  1  0
  4  3  1  0
  4  5  2  0
  6  5  1  0
  7  6  1  0
  8  7  2  0
  9  8  1  0
 10  9  2  0
 10 11  1  0
 11 12  2  0
 12  7  1  0
 12  4  1  0
 13 17  1  0
 14 13  2  0
 16 15  1  6
 17 16  1  0
 18 19  2  0
 18 16  1  0
 21 20  1  1
 21 23  1  0
 21 22  1  0
 24 25  1  0
 24 23  1  6
 25 18  1  0
 26 24  1  0
 27 26  1  0
 28 26  2  0
M  END
$$$$
