WAL.pdb
     RDKit          3D

 28 29  0  0  1  0  0  0  0  0999 V2000
   22.1310  -18.3751  -14.1415 N   0  0  0  0  0  0  0  0  0  0  0  0
   22.4771  -19.3974  -13.1606 C   0  0  1  0  0  0  0  0  0  0  0  0
   21.7475  -20.6758  -13.3977 C   0  0  0  0  0  0  0  0  0  0  0  0
   20.2880  -20.5876  -13.3412 C   0  0  0  0  0  0  0  0  0  0  0  0
   19.3255  -20.6233  -14.3257 C   0  0  0  0  0  0  0  0  0  0  0  0
   18.1187  -20.5004  -13.7627 N   0  0  0  0  0  0  0  0  0  0  0  0
   18.2554  -20.3846  -12.4354 C   0  0  0  0  0  0  0  0  0  0  0  0
   17.3283  -20.2359  -11.4201 C   0  0  0  0  0  0  0  0  0  0  0  0
   17.7400  -20.1392  -10.1243 C   0  0  0  0  0  0  0  0  0  0  0  0
   19.0952  -20.1885   -9.8044 C   0  0  0  0  0  0  0  0  0  0  0  0
   19.9791  -20.3358  -10.8329 C   0  0  0  0  0  0  0  0  0  0  0  0
   19.5887  -20.4367  -12.1605 C   0  0  0  0  0  0  0  0  0  0  0  0
   23.9354  -19.5172  -13.0906 C   0  0  0  0  0  0  0  0  0  0  0  0
   24.6723  -18.9135  -13.9089 O   0  0  0  0  0  0  0  0  0  0  0  0
   26.3064  -21.1072  -10.5878 C   0  0  0  0  0  0  0  0  0  0  0  0
   25.9516  -20.5172  -11.9402 C   0  0  2  0  0  0  0  0  0  0  0  0
   24.5322  -20.3259  -12.0852 N   0  0  0  0  0  0  0  0  0  0  0  0
   26.4499  -21.3573  -13.0520 C   0  0  0  0  0  0  0  0  0  0  0  0
   27.6759  -21.6448  -13.1089 O   0  0  0  0  0  0  0  0  0  0  0  0
   22.8257  -24.7476  -15.6916 C   0  0  0  0  0  0  0  0  0  0  0  0
   23.9299  -24.1063  -14.8642 C   0  0  1  0  0  0  0  0  0  0  0  0
   24.7280  -25.1853  -14.1547 C   0  0  0  0  0  0  0  0  0  0  0  0
   24.8461  -23.3813  -15.8035 C   0  0  0  0  0  0  0  0  0  0  0  0
   26.0061  -22.7043  -15.1517 C   0  0  2  0  0  0  0  0  0  0  0  0
   25.5833  -21.8473  -14.0553 N   0  0  0  0  0  0  0  0  0  0  0  0
   26.9136  -21.9935  -16.0647 C   0  0  0  0  0  0  0  0  0  0  0  0
   28.0427  -22.5456  -16.6429 O   0  0  0  0  0  0  0  0  0  0  0  0
   26.7006  -20.7724  -16.3883 O   0  0  0  0  0  0  0  0  0  0  0  0
  2  1  1  6
  2 13  1  0
  2  3  1  0
  4  3  1  0
  4  5  2  0
  6  5  1  0
  7  6  1  0
  8  7  2  0
  9  8  1  0
 10  9  2  0
 10 11  1  0
 11 12  2  0
 12  7  1  0
 12  4  1  0
 13 17  1  0
 14 13  2  0
 16 15  1  1
 17 16  1  0
 18 19  2  0
 18 16  1  0
 21 20  1  6
 21 23  1  0
 21 22  1  0
 24 25  1  0
 24 23  1  6
 25 18  1  0
 26 24  1  0
 27 26  1  0
 28 26  2  0
M  END
$$$$
