WAL.pdb
     RDKit          3D

 28 29  0  0  1  0  0  0  0  0999 V2000
   26.0590  -21.4202  -13.5108 N   0  0  0  0  0  0  0  0  0  0  0  0
   27.1608  -20.6563  -12.9369 C   0  0  1  0  0  0  0  0  0  0  0  0
   27.7423  -19.6881  -13.9102 C   0  0  0  0  0  0  0  0  0  0  0  0
   28.2251  -20.2684  -15.1637 C   0  0  0  0  0  0  0  0  0  0  0  0
   27.9988  -19.9326  -16.4801 C   0  0  0  0  0  0  0  0  0  0  0  0
   28.6713  -20.7773  -17.2691 N   0  0  0  0  0  0  0  0  0  0  0  0
   29.3351  -21.6613  -16.5130 C   0  0  0  0  0  0  0  0  0  0  0  0
   30.1619  -22.7206  -16.8398 C   0  0  0  0  0  0  0  0  0  0  0  0
   30.7241  -23.4800  -15.8575 C   0  0  0  0  0  0  0  0  0  0  0  0
   30.4754  -23.2020  -14.5150 C   0  0  0  0  0  0  0  0  0  0  0  0
   29.6550  -22.1494  -14.2325 C   0  0  0  0  0  0  0  0  0  0  0  0
   29.0693  -21.3596  -15.2114 C   0  0  0  0  0  0  0  0  0  0  0  0
   26.7263  -20.0745  -11.6647 C   0  0  0  0  0  0  0  0  0  0  0  0
   27.2907  -19.0556  -11.1952 O   0  0  0  0  0  0  0  0  0  0  0  0
   23.6615  -20.4369   -9.5362 C   0  0  0  0  0  0  0  0  0  0  0  0
   25.1462  -20.1655   -9.6940 C   0  0  2  0  0  0  0  0  0  0  0  0
   25.6518  -20.6656  -10.9457 N   0  0  0  0  0  0  0  0  0  0  0  0
   25.9304  -20.7454   -8.5809 C   0  0  0  0  0  0  0  0  0  0  0  0
   26.2109  -21.9742   -8.5961 O   0  0  0  0  0  0  0  0  0  0  0  0
   29.6229  -18.0108   -5.3568 C   0  0  0  0  0  0  0  0  0  0  0  0
   28.9435  -19.0738   -6.2074 C   0  0  1  0  0  0  0  0  0  0  0  0
   29.8562  -20.2793   -6.3426 C   0  0  0  0  0  0  0  0  0  0  0  0
   27.6956  -19.5033   -5.4963 C   0  0  0  0  0  0  0  0  0  0  0  0
   26.8599  -20.4940   -6.2372 C   0  0  2  0  0  0  0  0  0  0  0  0
   26.3743  -19.9539   -7.4974 N   0  0  0  0  0  0  0  0  0  0  0  0
   25.7683  -21.1011   -5.4614 C   0  0  0  0  0  0  0  0  0  0  0  0
   24.4228  -20.9671   -5.7542 O   0  0  0  0  0  0  0  0  0  0  0  0
   26.0126  -21.8171   -4.4276 O   0  0  0  0  0  0  0  0  0  0  0  0
  2  1  1  6
  2 13  1  0
  2  3  1  0
  4  3  1  0
  4  5  2  0
  6  5  1  0
  7  6  1  0
  8  7  2  0
  9  8  1  0
 10  9  2  0
 10 11  1  0
 11 12  2  0
 12  7  1  0
 12  4  1  0
 13 17  1  0
 14 13  2  0
 16 15  1  1
 17 16  1  0
 18 19  2  0
 18 16  1  0
 21 20  1  1
 21 23  1  0
 21 22  1  0
 24 25  1  0
 24 23  1  1
 25 18  1  0
 26 24  1  0
 27 26  1  0
 28 26  2  0
M  END
$$$$
