WAL.pdb
     RDKit          3D

 28 29  0  0  1  0  0  0  0  0999 V2000
   21.2723  -15.9079  -14.8704 N   0  0  0  0  0  0  0  0  0  0  0  0
   22.3417  -14.9216  -14.9737 C   0  0  1  0  0  0  0  0  0  0  0  0
   22.9738  -14.9153  -16.3240 C   0  0  0  0  0  0  0  0  0  0  0  0
   23.7192  -16.1243  -16.6760 C   0  0  0  0  0  0  0  0  0  0  0  0
   23.3431  -17.2817  -17.3209 C   0  0  0  0  0  0  0  0  0  0  0  0
   24.3975  -18.1004  -17.4011 N   0  0  0  0  0  0  0  0  0  0  0  0
   25.4589  -17.5182  -16.8282 C   0  0  0  0  0  0  0  0  0  0  0  0
   26.7637  -17.9421  -16.6537 C   0  0  0  0  0  0  0  0  0  0  0  0
   27.6670  -17.1391  -16.0235 C   0  0  0  0  0  0  0  0  0  0  0  0
   27.2913  -15.8847  -15.5476 C   0  0  0  0  0  0  0  0  0  0  0  0
   25.9960  -15.5019  -15.7385 C   0  0  0  0  0  0  0  0  0  0  0  0
   25.0554  -16.2980  -16.3762 C   0  0  0  0  0  0  0  0  0  0  0  0
   21.8398  -13.6238  -14.5157 C   0  0  0  0  0  0  0  0  0  0  0  0
   20.6881  -13.2314  -14.8264 O   0  0  0  0  0  0  0  0  0  0  0  0
   23.1832  -10.9908  -12.1313 C   0  0  0  0  0  0  0  0  0  0  0  0
   22.2793  -11.4827  -13.2465 C   0  0  2  0  0  0  0  0  0  0  0  0
   22.6618  -12.7915  -13.7080 N   0  0  0  0  0  0  0  0  0  0  0  0
   22.2612  -10.5445  -14.3909 C   0  0  0  0  0  0  0  0  0  0  0  0
   22.7985  -10.8853  -15.4790 O   0  0  0  0  0  0  0  0  0  0  0  0
   22.0060   -7.6816  -18.2923 C   0  0  0  0  0  0  0  0  0  0  0  0
   20.6275   -7.9250  -17.6959 C   0  0  1  0  0  0  0  0  0  0  0  0
   19.7339   -8.5865  -18.7295 C   0  0  0  0  0  0  0  0  0  0  0  0
   20.7867   -8.8642  -16.5383 C   0  0  0  0  0  0  0  0  0  0  0  0
   21.5743   -8.3206  -15.3924 C   0  0  2  0  0  0  0  0  0  0  0  0
   21.6546   -9.2714  -14.2947 N   0  0  0  0  0  0  0  0  0  0  0  0
   21.1591   -6.9922  -14.9179 C   0  0  0  0  0  0  0  0  0  0  0  0
   21.7253   -5.7970  -15.3238 O   0  0  0  0  0  0  0  0  0  0  0  0
   20.2109   -6.8625  -14.0662 O   0  0  0  0  0  0  0  0  0  0  0  0
  2  1  1  6
  2 13  1  0
  2  3  1  0
  4  3  1  0
  4  5  2  0
  6  5  1  0
  7  6  1  0
  8  7  2  0
  9  8  1  0
 10  9  2  0
 10 11  1  0
 11 12  2  0
 12  7  1  0
 12  4  1  0
 13 17  1  0
 14 13  2  0
 16 15  1  1
 17 16  1  0
 18 19  2  0
 18 16  1  0
 21 20  1  6
 21 23  1  0
 21 22  1  0
 24 25  1  0
 24 23  1  6
 25 18  1  0
 26 24  1  0
 27 26  1  0
 28 26  2  0
M  END
$$$$
