WAL.pdb
     RDKit          3D

 28 29  0  0  1  0  0  0  0  0999 V2000
   25.3596  -21.3918  -14.4108 N   0  0  0  0  0  0  0  0  0  0  0  0
   26.0234  -20.5814  -13.3961 C   0  0  1  0  0  0  0  0  0  0  0  0
   25.0721  -19.6829  -12.6815 C   0  0  0  0  0  0  0  0  0  0  0  0
   24.3470  -18.7336  -13.5265 C   0  0  0  0  0  0  0  0  0  0  0  0
   23.0039  -18.5720  -13.7853 C   0  0  0  0  0  0  0  0  0  0  0  0
   22.8417  -17.5538  -14.6369 N   0  0  0  0  0  0  0  0  0  0  0  0
   24.0378  -17.0380  -14.9486 C   0  0  0  0  0  0  0  0  0  0  0  0
   24.4065  -15.9913  -15.7737 C   0  0  0  0  0  0  0  0  0  0  0  0
   25.7216  -15.6635  -15.9195 C   0  0  0  0  0  0  0  0  0  0  0  0
   26.7098  -16.3749  -15.2423 C   0  0  0  0  0  0  0  0  0  0  0  0
   26.3070  -17.4002  -14.4379 C   0  0  0  0  0  0  0  0  0  0  0  0
   24.9764  -17.7559  -14.2707 C   0  0  0  0  0  0  0  0  0  0  0  0
   26.8205  -21.4563  -12.5330 C   0  0  0  0  0  0  0  0  0  0  0  0
   26.3624  -22.5526  -12.1263 O   0  0  0  0  0  0  0  0  0  0  0  0
   30.2872  -21.1216  -10.9839 C   0  0  0  0  0  0  0  0  0  0  0  0
   28.9056  -21.7317  -11.1311 C   0  0  2  0  0  0  0  0  0  0  0  0
   28.1316  -21.0660  -12.1461 N   0  0  0  0  0  0  0  0  0  0  0  0
   28.1594  -21.7126   -9.8531 C   0  0  0  0  0  0  0  0  0  0  0  0
   27.3050  -22.6100   -9.6221 O   0  0  0  0  0  0  0  0  0  0  0  0
   28.4038  -20.9512   -4.4996 C   0  0  0  0  0  0  0  0  0  0  0  0
   27.9368  -19.7087   -5.2435 C   0  0  1  0  0  0  0  0  0  0  0  0
   28.4854  -18.4689   -4.5606 C   0  0  0  0  0  0  0  0  0  0  0  0
   28.4945  -19.7684   -6.6337 C   0  0  0  0  0  0  0  0  0  0  0  0
   27.8015  -20.7239   -7.5478 C   0  0  2  0  0  0  0  0  0  0  0  0
   28.3812  -20.7101   -8.8817 N   0  0  0  0  0  0  0  0  0  0  0  0
   26.3378  -20.5938   -7.6011 C   0  0  0  0  0  0  0  0  0  0  0  0
   25.4504  -21.3574   -6.8639 O   0  0  0  0  0  0  0  0  0  0  0  0
   25.7796  -19.7307   -8.3657 O   0  0  0  0  0  0  0  0  0  0  0  0
  2  1  1  6
  2 13  1  0
  2  3  1  0
  4  3  1  0
  4  5  2  0
  6  5  1  0
  7  6  1  0
  8  7  2  0
  9  8  1  0
 10  9  2  0
 10 11  1  0
 11 12  2  0
 12  7  1  0
 12  4  1  0
 13 17  1  0
 14 13  2  0
 16 15  1  1
 17 16  1  0
 18 19  2  0
 18 16  1  0
 21 20  1  1
 21 23  1  0
 21 22  1  0
 24 25  1  0
 24 23  1  1
 25 18  1  0
 26 24  1  0
 27 26  1  0
 28 26  2  0
M  END
$$$$
