WAL.pdb
     RDKit          3D

 28 29  0  0  1  0  0  0  0  0999 V2000
   27.7043  -21.7990  -13.0184 N   0  0  0  0  0  0  0  0  0  0  0  0
   26.5283  -21.5471  -12.1934 C   0  0  1  0  0  0  0  0  0  0  0  0
   26.7780  -20.5009  -11.1609 C   0  0  0  0  0  0  0  0  0  0  0  0
   27.8773  -20.7787  -10.2360 C   0  0  0  0  0  0  0  0  0  0  0  0
   29.1462  -21.2749  -10.4378 C   0  0  0  0  0  0  0  0  0  0  0  0
   29.7794  -21.3487   -9.2623 N   0  0  0  0  0  0  0  0  0  0  0  0
   28.9666  -20.9160   -8.2898 C   0  0  0  0  0  0  0  0  0  0  0  0
   29.1426  -20.7949   -6.9235 C   0  0  0  0  0  0  0  0  0  0  0  0
   28.1338  -20.3156   -6.1420 C   0  0  0  0  0  0  0  0  0  0  0  0
   26.9154  -19.9422   -6.7053 C   0  0  0  0  0  0  0  0  0  0  0  0
   26.7799  -20.0762   -8.0560 C   0  0  0  0  0  0  0  0  0  0  0  0
   27.7891  -20.5608   -8.8757 C   0  0  0  0  0  0  0  0  0  0  0  0
   25.3779  -21.2985  -13.0655 C   0  0  0  0  0  0  0  0  0  0  0  0
   25.3853  -20.3498  -13.8883 O   0  0  0  0  0  0  0  0  0  0  0  0
   22.3888  -23.3396  -14.0593 C   0  0  0  0  0  0  0  0  0  0  0  0
   23.0742  -22.0056  -13.8281 C   0  0  2  0  0  0  0  0  0  0  0  0
   24.2337  -22.1383  -12.9852 N   0  0  0  0  0  0  0  0  0  0  0  0
   22.1507  -21.0101  -13.2396 C   0  0  0  0  0  0  0  0  0  0  0  0
   21.9551  -21.0079  -11.9944 O   0  0  0  0  0  0  0  0  0  0  0  0
   20.1561  -15.9438  -12.9249 C   0  0  0  0  0  0  0  0  0  0  0  0
   19.4963  -16.8193  -13.9800 C   0  0  1  0  0  0  0  0  0  0  0  0
   19.1385  -15.9768  -15.1911 C   0  0  0  0  0  0  0  0  0  0  0  0
   20.4913  -17.8575  -14.4038 C   0  0  0  0  0  0  0  0  0  0  0  0
   20.5565  -19.0612  -13.5231 C   0  0  2  0  0  0  0  0  0  0  0  0
   21.4802  -20.0582  -14.0409 N   0  0  0  0  0  0  0  0  0  0  0  0
   19.2585  -19.6625  -13.1829 C   0  0  0  0  0  0  0  0  0  0  0  0
   18.5317  -19.3769  -12.0408 O   0  0  0  0  0  0  0  0  0  0  0  0
   18.7057  -20.5206  -13.9570 O   0  0  0  0  0  0  0  0  0  0  0  0
  2  1  1  6
  2 13  1  0
  2  3  1  0
  4  3  1  0
  4  5  2  0
  6  5  1  0
  7  6  1  0
  8  7  2  0
  9  8  1  0
 10  9  2  0
 10 11  1  0
 11 12  2  0
 12  7  1  0
 12  4  1  0
 13 17  1  0
 14 13  2  0
 16 15  1  1
 17 16  1  0
 18 19  2  0
 18 16  1  0
 21 20  1  1
 21 23  1  0
 21 22  1  0
 24 25  1  0
 24 23  1  6
 25 18  1  0
 26 24  1  0
 27 26  1  0
 28 26  2  0
M  END
$$$$
