WAL.pdb
     RDKit          3D

 28 29  0  0  1  0  0  0  0  0999 V2000
   22.9470  -22.0852  -12.0045 N   0  0  0  0  0  0  0  0  0  0  0  0
   23.7722  -20.9401  -11.6378 C   0  0  1  0  0  0  0  0  0  0  0  0
   23.0223  -19.9438  -10.8206 C   0  0  0  0  0  0  0  0  0  0  0  0
   21.7398  -19.5108  -11.3764 C   0  0  0  0  0  0  0  0  0  0  0  0
   20.4531  -19.5911  -10.8917 C   0  0  0  0  0  0  0  0  0  0  0  0
   19.6152  -19.0505  -11.7829 N   0  0  0  0  0  0  0  0  0  0  0  0
   20.3102  -18.6155  -12.8419 C   0  0  0  0  0  0  0  0  0  0  0  0
   19.9179  -17.9923  -14.0124 C   0  0  0  0  0  0  0  0  0  0  0  0
   20.8457  -17.6458  -14.9490 C   0  0  0  0  0  0  0  0  0  0  0  0
   22.1974  -17.9133  -14.7423 C   0  0  0  0  0  0  0  0  0  0  0  0
   22.5452  -18.5291  -13.5759 C   0  0  0  0  0  0  0  0  0  0  0  0
   21.6228  -18.8928  -12.6053 C   0  0  0  0  0  0  0  0  0  0  0  0
   25.0194  -21.4226  -11.0399 C   0  0  0  0  0  0  0  0  0  0  0  0
   25.0156  -22.3714  -10.2172 O   0  0  0  0  0  0  0  0  0  0  0  0
   28.6809  -20.8662  -11.7275 C   0  0  0  0  0  0  0  0  0  0  0  0
   27.5202  -21.1515  -10.7925 C   0  0  2  0  0  0  0  0  0  0  0  0
   26.2551  -20.8137  -11.3908 N   0  0  0  0  0  0  0  0  0  0  0  0
   27.6630  -20.4323   -9.5069 C   0  0  0  0  0  0  0  0  0  0  0  0
   26.9002  -19.4614   -9.2531 O   0  0  0  0  0  0  0  0  0  0  0  0
   26.5987  -19.7308   -4.2701 C   0  0  0  0  0  0  0  0  0  0  0  0
   27.8357  -19.4317   -5.1042 C   0  0  1  0  0  0  0  0  0  0  0  0
   29.0557  -20.0531   -4.4486 C   0  0  0  0  0  0  0  0  0  0  0  0
   27.6475  -20.0659   -6.4495 C   0  0  0  0  0  0  0  0  0  0  0  0
   28.8708  -20.0995   -7.3045 C   0  0  2  0  0  0  0  0  0  0  0  0
   28.6362  -20.8076   -8.5531 N   0  0  0  0  0  0  0  0  0  0  0  0
   30.0901  -20.5817   -6.6390 C   0  0  0  0  0  0  0  0  0  0  0  0
   30.9589  -19.7874   -5.9120 O   0  0  0  0  0  0  0  0  0  0  0  0
   30.4304  -21.8153   -6.6985 O   0  0  0  0  0  0  0  0  0  0  0  0
  2  1  1  1
  2 13  1  0
  2  3  1  0
  4  3  1  0
  4  5  2  0
  6  5  1  0
  7  6  1  0
  8  7  2  0
  9  8  1  0
 10  9  2  0
 10 11  1  0
 11 12  2  0
 12  7  1  0
 12  4  1  0
 13 17  1  0
 14 13  2  0
 16 15  1  6
 17 16  1  0
 18 19  2  0
 18 16  1  0
 21 20  1  1
 21 23  1  0
 21 22  1  0
 24 25  1  0
 24 23  1  1
 25 18  1  0
 26 24  1  0
 27 26  1  0
 28 26  2  0
M  END
$$$$
