WAL.pdb
     RDKit          3D

 28 29  0  0  1  0  0  0  0  0999 V2000
   29.1647  -22.5500  -15.1959 N   0  0  0  0  0  0  0  0  0  0  0  0
   28.6580  -21.6559  -14.1611 C   0  0  1  0  0  0  0  0  0  0  0  0
   29.7467  -20.8701  -13.5130 C   0  0  0  0  0  0  0  0  0  0  0  0
   30.7654  -21.6588  -12.8191 C   0  0  0  0  0  0  0  0  0  0  0  0
   31.6550  -22.6102  -13.2667 C   0  0  0  0  0  0  0  0  0  0  0  0
   32.3854  -23.0462  -12.2348 N   0  0  0  0  0  0  0  0  0  0  0  0
   32.0047  -22.4112  -11.1188 C   0  0  0  0  0  0  0  0  0  0  0  0
   32.4411  -22.5007   -9.8096 C   0  0  0  0  0  0  0  0  0  0  0  0
   31.8733  -21.7253   -8.8430 C   0  0  0  0  0  0  0  0  0  0  0  0
   30.8491  -20.8347   -9.1579 C   0  0  0  0  0  0  0  0  0  0  0  0
   30.4460  -20.7749  -10.4597 C   0  0  0  0  0  0  0  0  0  0  0  0
   31.0056  -21.5517  -11.4639 C   0  0  0  0  0  0  0  0  0  0  0  0
   27.5603  -20.8592  -14.7144 C   0  0  0  0  0  0  0  0  0  0  0  0
   27.7726  -19.9983  -15.6036 O   0  0  0  0  0  0  0  0  0  0  0  0
   25.0150  -20.8981  -16.3622 C   0  0  0  0  0  0  0  0  0  0  0  0
   25.0603  -20.5314  -14.8904 C   0  0  2  0  0  0  0  0  0  0  0  0
   26.2338  -21.0576  -14.2434 N   0  0  0  0  0  0  0  0  0  0  0  0
   23.8531  -20.9977  -14.1724 C   0  0  0  0  0  0  0  0  0  0  0  0
   22.7131  -20.7115  -14.6278 O   0  0  0  0  0  0  0  0  0  0  0  0
   24.2580  -21.5012   -8.7036 C   0  0  0  0  0  0  0  0  0  0  0  0
   24.7705  -20.3485   -9.5544 C   0  0  1  0  0  0  0  0  0  0  0  0
   26.1203  -19.8901   -9.0326 C   0  0  0  0  0  0  0  0  0  0  0  0
   24.9518  -20.8549  -10.9536 C   0  0  0  0  0  0  0  0  0  0  0  0
   23.6880  -21.2295  -11.6546 C   0  0  2  0  0  0  0  0  0  0  0  0
   23.9460  -21.7584  -12.9847 N   0  0  0  0  0  0  0  0  0  0  0  0
   22.6537  -20.1849  -11.6875 C   0  0  0  0  0  0  0  0  0  0  0  0
   21.3242  -20.3803  -11.3586 O   0  0  0  0  0  0  0  0  0  0  0  0
   22.9379  -18.9859  -12.0379 O   0  0  0  0  0  0  0  0  0  0  0  0
  2  1  1  6
  2 13  1  0
  2  3  1  0
  4  3  1  0
  4  5  2  0
  6  5  1  0
  7  6  1  0
  8  7  2  0
  9  8  1  0
 10  9  2  0
 10 11  1  0
 11 12  2  0
 12  7  1  0
 12  4  1  0
 13 17  1  0
 14 13  2  0
 16 15  1  6
 17 16  1  0
 18 19  2  0
 18 16  1  0
 21 20  1  1
 21 23  1  0
 21 22  1  0
 24 25  1  0
 24 23  1  6
 25 18  1  0
 26 24  1  0
 27 26  1  0
 28 26  2  0
M  END
$$$$
