PFN.pdb
     RDKit          3D

 27 28  0  0  1  0  0  0  0  0999 V2000
   23.8503  -11.2258  -19.8195 N   0  0  0  0  0  0  0  0  0  0  0  0
   24.2169  -12.5521  -20.3434 C   0  0  0  0  0  0  0  0  0  0  0  0
   23.9940  -13.5263  -19.2331 C   0  0  0  0  0  0  0  0  0  0  0  0
   23.7357  -12.6322  -18.0372 C   0  0  0  0  0  0  0  0  0  0  0  0
   22.9788  -11.4817  -18.7185 C   0  0  1  0  0  0  0  0  0  0  0  0
   22.8206  -10.4085  -17.7460 C   0  0  0  0  0  0  0  0  0  0  0  0
   22.0764  -10.6334  -16.7500 O   0  0  0  0  0  0  0  0  0  0  0  0
   23.4417   -9.1394  -17.8434 N   0  0  0  0  0  0  0  0  0  0  0  0
   23.2282   -8.1408  -16.8131 C   0  0  1  0  0  0  0  0  0  0  0  0
   24.5420   -7.5924  -16.2984 C   0  0  0  0  0  0  0  0  0  0  0  0
   25.5123   -8.6448  -15.9745 C   0  0  0  0  0  0  0  0  0  0  0  0
   25.3574   -9.4731  -14.8867 C   0  0  0  0  0  0  0  0  0  0  0  0
   26.2862  -10.4700  -14.5897 C   0  0  0  0  0  0  0  0  0  0  0  0
   27.3724  -10.6211  -15.4030 C   0  0  0  0  0  0  0  0  0  0  0  0
   27.5632   -9.8130  -16.5004 C   0  0  0  0  0  0  0  0  0  0  0  0
   26.6215   -8.8312  -16.7685 C   0  0  0  0  0  0  0  0  0  0  0  0
   22.3008   -7.0717  -17.2355 C   0  0  0  0  0  0  0  0  0  0  0  0
   22.4684   -6.5939  -18.3863 O   0  0  0  0  0  0  0  0  0  0  0  0
   18.3954   -3.7494  -17.7239 N   0  0  0  0  0  0  0  0  0  0  0  0
   18.0729   -5.1402  -17.8317 C   0  0  0  0  0  0  0  0  0  0  0  0
   16.9682   -5.4650  -18.3231 O   0  0  0  0  0  0  0  0  0  0  0  0
   19.0315   -6.1534  -17.3693 C   0  0  0  0  0  0  0  0  0  0  0  0
   20.3095   -5.5271  -16.9317 C   0  0  2  0  0  0  0  0  0  0  0  0
   21.2497   -6.5534  -16.4462 N   0  0  0  0  0  0  0  0  0  0  0  0
   20.0944   -4.6426  -15.7530 C   0  0  0  0  0  0  0  0  0  0  0  0
   19.5175   -3.4046  -15.8482 O   0  0  0  0  0  0  0  0  0  0  0  0
   20.4404   -4.9918  -14.5705 O   0  0  0  0  0  0  0  0  0  0  0  0
  1  5  1  0
  1  2  1  0
  2  3  1  0
  4  3  1  0
  5  4  1  0
  6  8  1  0
  5  6  1  1
  7  6  2  0
  9  8  1  0
 10 11  1  0
  9 10  1  6
 11 12  2  0
 11 16  1  0
 12 13  1  0
 13 14  2  0
 15 14  1  0
 16 15  2  0
 17 18  2  0
 17  9  1  0
 20 19  1  0
 20 22  1  0
 21 20  2  0
 23 22  1  1
 23 24  1  0
 24 17  1  0
 25 23  1  0
 26 25  1  0
 27 25  2  0
M  END
$$$$
