PFN.pdb
     RDKit          3D

 27 28  0  0  1  0  0  0  0  0999 V2000
   14.8896  -20.4794    2.3517 N   0  0  0  0  0  0  0  0  0  0  0  0
   14.6826  -21.6704    1.5112 C   0  0  0  0  0  0  0  0  0  0  0  0
   16.0398  -22.1768    1.1468 C   0  0  0  0  0  0  0  0  0  0  0  0
   16.9590  -21.0684    1.6186 C   0  0  0  0  0  0  0  0  0  0  0  0
   16.2088  -20.6137    2.8798 C   0  0  1  0  0  0  0  0  0  0  0  0
   16.8449  -19.3974    3.3684 C   0  0  0  0  0  0  0  0  0  0  0  0
   17.9816  -19.5140    3.9077 O   0  0  0  0  0  0  0  0  0  0  0  0
   16.2770  -18.1031    3.2789 N   0  0  0  0  0  0  0  0  0  0  0  0
   17.0168  -16.9468    3.7480 C   0  0  1  0  0  0  0  0  0  0  0  0
   16.8096  -15.7552    2.8377 C   0  0  0  0  0  0  0  0  0  0  0  0
   17.5995  -14.5854    3.2397 C   0  0  0  0  0  0  0  0  0  0  0  0
   18.8643  -14.3535    2.7500 C   0  0  0  0  0  0  0  0  0  0  0  0
   19.6049  -13.2378    3.1393 C   0  0  0  0  0  0  0  0  0  0  0  0
   19.0544  -12.3596    4.0279 C   0  0  0  0  0  0  0  0  0  0  0  0
   17.7925  -12.5561    4.5405 C   0  0  0  0  0  0  0  0  0  0  0  0
   17.0820  -13.6751    4.1335 C   0  0  0  0  0  0  0  0  0  0  0  0
   16.7411  -16.6265    5.1633 C   0  0  0  0  0  0  0  0  0  0  0  0
   15.5407  -16.6713    5.5342 O   0  0  0  0  0  0  0  0  0  0  0  0
   16.9065  -16.3497   10.2750 N   0  0  0  0  0  0  0  0  0  0  0  0
   18.2623  -16.4197    9.8204 C   0  0  0  0  0  0  0  0  0  0  0  0
   19.1843  -16.3334   10.6630 O   0  0  0  0  0  0  0  0  0  0  0  0
   18.5481  -16.5896    8.3891 C   0  0  0  0  0  0  0  0  0  0  0  0
   17.4196  -16.0978    7.5515 C   0  0  2  0  0  0  0  0  0  0  0  0
   17.7208  -16.2771    6.1197 N   0  0  0  0  0  0  0  0  0  0  0  0
   17.2417  -14.6272    7.7055 C   0  0  0  0  0  0  0  0  0  0  0  0
   17.4759  -13.7398    6.6896 O   0  0  0  0  0  0  0  0  0  0  0  0
   16.8560  -14.1022    8.8080 O   0  0  0  0  0  0  0  0  0  0  0  0
  1  5  1  0
  1  2  1  0
  2  3  1  0
  4  3  1  0
  5  4  1  0
  6  8  1  0
  5  6  1  6
  7  6  2  0
  9  8  1  0
 10 11  1  0
  9 10  1  6
 11 12  2  0
 11 16  1  0
 12 13  1  0
 13 14  2  0
 15 14  1  0
 16 15  2  0
 17 18  2  0
 17  9  1  0
 20 19  1  0
 20 22  1  0
 21 20  2  0
 23 22  1  1
 23 24  1  0
 24 17  1  0
 25 23  1  0
 26 25  1  0
 27 25  2  0
M  END
$$$$
