PFN.pdb
     RDKit          3D

 27 28  0  0  1  0  0  0  0  0999 V2000
   26.8062  -20.1357  -16.4730 N   0  0  0  0  0  0  0  0  0  0  0  0
   27.7060  -20.1547  -17.6383 C   0  0  0  0  0  0  0  0  0  0  0  0
   28.6373  -21.3056  -17.4399 C   0  0  0  0  0  0  0  0  0  0  0  0
   28.3550  -21.7352  -16.0145 C   0  0  0  0  0  0  0  0  0  0  0  0
   26.8450  -21.4607  -15.9436 C   0  0  1  0  0  0  0  0  0  0  0  0
   26.4219  -21.6247  -14.5591 C   0  0  0  0  0  0  0  0  0  0  0  0
   25.9121  -22.7348  -14.2362 O   0  0  0  0  0  0  0  0  0  0  0  0
   26.5439  -20.6290  -13.5594 N   0  0  0  0  0  0  0  0  0  0  0  0
   26.0458  -20.8747  -12.2193 C   0  0  1  0  0  0  0  0  0  0  0  0
   26.8153  -20.0730  -11.1912 C   0  0  0  0  0  0  0  0  0  0  0  0
   26.3378  -20.2938   -9.8210 C   0  0  0  0  0  0  0  0  0  0  0  0
   25.4776  -21.3193   -9.5024 C   0  0  0  0  0  0  0  0  0  0  0  0
   25.0313  -21.5192   -8.1964 C   0  0  0  0  0  0  0  0  0  0  0  0
   25.4632  -20.6724   -7.2164 C   0  0  0  0  0  0  0  0  0  0  0  0
   26.3236  -19.6349   -7.4944 C   0  0  0  0  0  0  0  0  0  0  0  0
   26.7488  -19.4631   -8.8030 C   0  0  0  0  0  0  0  0  0  0  0  0
   24.5862  -20.6784  -12.1062 C   0  0  0  0  0  0  0  0  0  0  0  0
   24.0827  -20.7949  -10.9601 O   0  0  0  0  0  0  0  0  0  0  0  0
   19.7821  -18.5329  -12.4671 N   0  0  0  0  0  0  0  0  0  0  0  0
   20.4621  -18.6269  -13.7235 C   0  0  0  0  0  0  0  0  0  0  0  0
   19.7954  -18.5184  -14.7777 O   0  0  0  0  0  0  0  0  0  0  0  0
   21.9146  -18.8469  -13.7569 C   0  0  0  0  0  0  0  0  0  0  0  0
   22.2910  -20.0782  -13.0091 C   0  0  2  0  0  0  0  0  0  0  0  0
   23.7249  -20.3722  -13.1837 N   0  0  0  0  0  0  0  0  0  0  0  0
   21.6026  -21.2743  -13.5689 C   0  0  0  0  0  0  0  0  0  0  0  0
   20.4528  -21.7889  -13.0327 O   0  0  0  0  0  0  0  0  0  0  0  0
   22.0508  -21.8973  -14.5941 O   0  0  0  0  0  0  0  0  0  0  0  0
  1  5  1  0
  1  2  1  0
  2  3  1  0
  4  3  1  0
  5  4  1  0
  6  8  1  0
  5  6  1  1
  7  6  2  0
  9  8  1  0
 10 11  1  0
  9 10  1  1
 11 12  2  0
 11 16  1  0
 12 13  1  0
 13 14  2  0
 15 14  1  0
 16 15  2  0
 17 18  2  0
 17  9  1  0
 20 19  1  0
 20 22  1  0
 21 20  2  0
 23 22  1  6
 23 24  1  0
 24 17  1  0
 25 23  1  0
 26 25  1  0
 27 25  2  0
M  END
$$$$
