PFN.pdb
     RDKit          3D

 27 28  0  0  1  0  0  0  0  0999 V2000
   27.8230  -20.5297  -17.1869 N   0  0  0  0  0  0  0  0  0  0  0  0
   28.8095  -20.7709  -18.2530 C   0  0  0  0  0  0  0  0  0  0  0  0
   29.3747  -22.1324  -18.0116 C   0  0  0  0  0  0  0  0  0  0  0  0
   28.8319  -22.4930  -16.6436 C   0  0  0  0  0  0  0  0  0  0  0  0
   27.4503  -21.8247  -16.7164 C   0  0  1  0  0  0  0  0  0  0  0  0
   26.8476  -21.8911  -15.3916 C   0  0  0  0  0  0  0  0  0  0  0  0
   26.1762  -22.9241  -15.1111 O   0  0  0  0  0  0  0  0  0  0  0  0
   26.9641  -20.8814  -14.4054 N   0  0  0  0  0  0  0  0  0  0  0  0
   26.3076  -21.0356  -13.1211 C   0  0  1  0  0  0  0  0  0  0  0  0
   27.1149  -20.3975  -12.0108 C   0  0  0  0  0  0  0  0  0  0  0  0
   26.4000  -20.3683  -10.7293 C   0  0  0  0  0  0  0  0  0  0  0  0
   25.8727  -19.2074  -10.2122 C   0  0  0  0  0  0  0  0  0  0  0  0
   25.1950  -19.1925   -8.9935 C   0  0  0  0  0  0  0  0  0  0  0  0
   25.0557  -20.3623   -8.3035 C   0  0  0  0  0  0  0  0  0  0  0  0
   25.5686  -21.5443   -8.7868 C   0  0  0  0  0  0  0  0  0  0  0  0
   26.2372  -21.5255  -10.0015 C   0  0  0  0  0  0  0  0  0  0  0  0
   24.9061  -20.5694  -13.1351 C   0  0  0  0  0  0  0  0  0  0  0  0
   24.6926  -19.4199  -13.5974 O   0  0  0  0  0  0  0  0  0  0  0  0
   19.4089  -22.6283  -14.2183 N   0  0  0  0  0  0  0  0  0  0  0  0
   20.1479  -21.9026  -13.2298 C   0  0  0  0  0  0  0  0  0  0  0  0
   19.5654  -21.0015  -12.5849 O   0  0  0  0  0  0  0  0  0  0  0  0
   21.5620  -22.2223  -12.9899 C   0  0  0  0  0  0  0  0  0  0  0  0
   22.4062  -20.9963  -13.0281 C   0  0  2  0  0  0  0  0  0  0  0  0
   23.8001  -21.3160  -12.6706 N   0  0  0  0  0  0  0  0  0  0  0  0
   21.9775  -20.0203  -11.9881 C   0  0  0  0  0  0  0  0  0  0  0  0
   22.1554  -20.2361  -10.6479 O   0  0  0  0  0  0  0  0  0  0  0  0
   21.4117  -18.9119  -12.2901 O   0  0  0  0  0  0  0  0  0  0  0  0
  1  5  1  0
  1  2  1  0
  2  3  1  0
  4  3  1  0
  5  4  1  0
  6  8  1  0
  5  6  1  1
  7  6  2  0
  9  8  1  0
 10 11  1  0
  9 10  1  1
 11 12  2  0
 11 16  1  0
 12 13  1  0
 13 14  2  0
 15 14  1  0
 16 15  2  0
 17 18  2  0
 17  9  1  0
 20 19  1  0
 20 22  1  0
 21 20  2  0
 23 22  1  1
 23 24  1  0
 24 17  1  0
 25 23  1  0
 26 25  1  0
 27 25  2  0
M  END
$$$$
