PFN.pdb
     RDKit          3D

 27 28  0  0  1  0  0  0  0  0999 V2000
   27.6614  -20.0865  -17.6439 N   0  0  0  0  0  0  0  0  0  0  0  0
   28.7005  -20.0106  -18.6843 C   0  0  0  0  0  0  0  0  0  0  0  0
   29.7354  -21.0277  -18.3290 C   0  0  0  0  0  0  0  0  0  0  0  0
   29.3260  -21.4636  -16.9367 C   0  0  0  0  0  0  0  0  0  0  0  0
   27.7972  -21.3853  -17.0677 C   0  0  1  0  0  0  0  0  0  0  0  0
   27.2213  -21.5769  -15.7432 C   0  0  0  0  0  0  0  0  0  0  0  0
   27.1148  -22.7638  -15.3234 O   0  0  0  0  0  0  0  0  0  0  0  0
   26.7766  -20.5278  -14.9021 N   0  0  0  0  0  0  0  0  0  0  0  0
   26.1965  -20.8265  -13.6064 C   0  0  1  0  0  0  0  0  0  0  0  0
   26.8249  -19.9858  -12.5156 C   0  0  0  0  0  0  0  0  0  0  0  0
   26.2223  -20.2173  -11.1976 C   0  0  0  0  0  0  0  0  0  0  0  0
   26.7700  -21.0903  -10.2859 C   0  0  0  0  0  0  0  0  0  0  0  0
   26.1882  -21.3014   -9.0362 C   0  0  0  0  0  0  0  0  0  0  0  0
   25.0479  -20.6215   -8.7178 C   0  0  0  0  0  0  0  0  0  0  0  0
   24.4692  -19.7398   -9.6019 C   0  0  0  0  0  0  0  0  0  0  0  0
   25.0722  -19.5523  -10.8363 C   0  0  0  0  0  0  0  0  0  0  0  0
   24.7222  -20.7368  -13.6050 C   0  0  0  0  0  0  0  0  0  0  0  0
   24.2142  -19.6963  -14.0950 O   0  0  0  0  0  0  0  0  0  0  0  0
   23.2275  -25.2070  -14.3340 N   0  0  0  0  0  0  0  0  0  0  0  0
   22.5501  -23.9699  -14.5799 C   0  0  0  0  0  0  0  0  0  0  0  0
   22.4735  -23.5498  -15.7569 O   0  0  0  0  0  0  0  0  0  0  0  0
   21.9622  -23.2205  -13.4610 C   0  0  0  0  0  0  0  0  0  0  0  0
   22.4243  -21.8051  -13.4577 C   0  0  2  0  0  0  0  0  0  0  0  0
   23.8515  -21.7271  -13.0974 N   0  0  0  0  0  0  0  0  0  0  0  0
   21.7362  -21.0213  -12.3945 C   0  0  0  0  0  0  0  0  0  0  0  0
   22.1692  -20.9903  -11.0961 O   0  0  0  0  0  0  0  0  0  0  0  0
   20.6892  -20.3244  -12.6354 O   0  0  0  0  0  0  0  0  0  0  0  0
  1  5  1  0
  1  2  1  0
  2  3  1  0
  4  3  1  0
  5  4  1  0
  6  8  1  0
  5  6  1  1
  7  6  2  0
  9  8  1  0
 10 11  1  0
  9 10  1  1
 11 12  2  0
 11 16  1  0
 12 13  1  0
 13 14  2  0
 15 14  1  0
 16 15  2  0
 17 18  2  0
 17  9  1  0
 20 19  1  0
 20 22  1  0
 21 20  2  0
 23 22  1  1
 23 24  1  0
 24 17  1  0
 25 23  1  0
 26 25  1  0
 27 25  2  0
M  END
$$$$
