PFN.pdb
     RDKit          3D

 27 28  0  0  1  0  0  0  0  0999 V2000
   26.6403  -19.3288  -13.2820 N   0  0  0  0  0  0  0  0  0  0  0  0
   27.1541  -19.2165  -14.6572 C   0  0  0  0  0  0  0  0  0  0  0  0
   28.2229  -20.2504  -14.7993 C   0  0  0  0  0  0  0  0  0  0  0  0
   28.4208  -20.7386  -13.3785 C   0  0  0  0  0  0  0  0  0  0  0  0
   26.9778  -20.6494  -12.8587 C   0  0  1  0  0  0  0  0  0  0  0  0
   27.0009  -20.8902  -11.4220 C   0  0  0  0  0  0  0  0  0  0  0  0
   27.1657  -22.0821  -11.0363 O   0  0  0  0  0  0  0  0  0  0  0  0
   26.8521  -19.8834  -10.4371 N   0  0  0  0  0  0  0  0  0  0  0  0
   26.9199  -20.2237   -9.0286 C   0  0  1  0  0  0  0  0  0  0  0  0
   27.7008  -19.1871   -8.2494 C   0  0  0  0  0  0  0  0  0  0  0  0
   27.8726  -19.5448   -6.8364 C   0  0  0  0  0  0  0  0  0  0  0  0
   27.3700  -18.7672   -5.8186 C   0  0  0  0  0  0  0  0  0  0  0  0
   27.5394  -19.1180   -4.4796 C   0  0  0  0  0  0  0  0  0  0  0  0
   28.2214  -20.2622   -4.1801 C   0  0  0  0  0  0  0  0  0  0  0  0
   28.7393  -21.0668   -5.1692 C   0  0  0  0  0  0  0  0  0  0  0  0
   28.5538  -20.6901   -6.4907 C   0  0  0  0  0  0  0  0  0  0  0  0
   25.5914  -20.4861   -8.4386 C   0  0  0  0  0  0  0  0  0  0  0  0
   24.8106  -19.5062   -8.3346 O   0  0  0  0  0  0  0  0  0  0  0  0
   21.8929  -20.6300   -4.5169 N   0  0  0  0  0  0  0  0  0  0  0  0
   22.4229  -21.6081   -5.4181 C   0  0  0  0  0  0  0  0  0  0  0  0
   21.7346  -22.6209   -5.6791 O   0  0  0  0  0  0  0  0  0  0  0  0
   23.7507  -21.4114   -6.0161 C   0  0  0  0  0  0  0  0  0  0  0  0
   23.8066  -21.9613   -7.3987 C   0  0  2  0  0  0  0  0  0  0  0  0
   25.1408  -21.7471   -7.9877 N   0  0  0  0  0  0  0  0  0  0  0  0
   22.8847  -21.2220   -8.3049 C   0  0  0  0  0  0  0  0  0  0  0  0
   23.1500  -19.9610   -8.7674 O   0  0  0  0  0  0  0  0  0  0  0  0
   21.7793  -21.7276   -8.7078 O   0  0  0  0  0  0  0  0  0  0  0  0
  1  5  1  0
  1  2  1  0
  2  3  1  0
  4  3  1  0
  5  4  1  0
  6  8  1  0
  5  6  1  1
  7  6  2  0
  9  8  1  0
 10 11  1  0
  9 10  1  1
 11 12  2  0
 11 16  1  0
 12 13  1  0
 13 14  2  0
 15 14  1  0
 16 15  2  0
 17 18  2  0
 17  9  1  0
 20 19  1  0
 20 22  1  0
 21 20  2  0
 23 22  1  1
 23 24  1  0
 24 17  1  0
 25 23  1  0
 26 25  1  0
 27 25  2  0
M  END
$$$$
