PFN.pdb
     RDKit          3D

 27 28  0  0  1  0  0  0  0  0999 V2000
   34.3794  -17.4095  -19.6752 N   0  0  0  0  0  0  0  0  0  0  0  0
   35.2289  -17.8958  -20.7751 C   0  0  0  0  0  0  0  0  0  0  0  0
   34.9023  -17.0590  -21.9687 C   0  0  0  0  0  0  0  0  0  0  0  0
   33.6783  -16.2853  -21.5224 C   0  0  0  0  0  0  0  0  0  0  0  0
   34.0163  -16.0777  -20.0381 C   0  0  1  0  0  0  0  0  0  0  0  0
   32.8416  -15.5181  -19.3827 C   0  0  0  0  0  0  0  0  0  0  0  0
   31.9632  -16.3298  -18.9750 O   0  0  0  0  0  0  0  0  0  0  0  0
   32.6216  -14.1347  -19.1741 N   0  0  0  0  0  0  0  0  0  0  0  0
   31.4253  -13.6802  -18.4911 C   0  0  1  0  0  0  0  0  0  0  0  0
   31.6886  -12.4136  -17.7050 C   0  0  0  0  0  0  0  0  0  0  0  0
   30.4792  -11.8705  -17.0753 C   0  0  0  0  0  0  0  0  0  0  0  0
   29.9236  -10.6748  -17.4689 C   0  0  0  0  0  0  0  0  0  0  0  0
   28.7736  -10.1694  -16.8630 C   0  0  0  0  0  0  0  0  0  0  0  0
   28.1915  -10.8845  -15.8562 C   0  0  0  0  0  0  0  0  0  0  0  0
   28.7166  -12.0844  -15.4338 C   0  0  0  0  0  0  0  0  0  0  0  0
   29.8607  -12.5596  -16.0565 C   0  0  0  0  0  0  0  0  0  0  0  0
   30.2650  -13.5484  -19.3955 C   0  0  0  0  0  0  0  0  0  0  0  0
   30.4737  -13.0194  -20.5168 O   0  0  0  0  0  0  0  0  0  0  0  0
   25.7092  -13.8227  -21.7586 N   0  0  0  0  0  0  0  0  0  0  0  0
   25.8130  -14.9501  -20.8824 C   0  0  0  0  0  0  0  0  0  0  0  0
   24.9420  -15.8469  -20.9505 O   0  0  0  0  0  0  0  0  0  0  0  0
   26.9266  -15.0370  -19.9276 C   0  0  0  0  0  0  0  0  0  0  0  0
   27.8310  -13.8600  -20.0450 C   0  0  2  0  0  0  0  0  0  0  0  0
   28.9509  -13.9703  -19.0928 N   0  0  0  0  0  0  0  0  0  0  0  0
   27.1324  -12.6077  -19.6431 C   0  0  0  0  0  0  0  0  0  0  0  0
   26.8971  -12.2745  -18.3361 O   0  0  0  0  0  0  0  0  0  0  0  0
   26.7066  -11.7617  -20.5050 O   0  0  0  0  0  0  0  0  0  0  0  0
  1  5  1  0
  1  2  1  0
  2  3  1  0
  4  3  1  0
  5  4  1  0
  6  8  1  0
  5  6  1  1
  7  6  2  0
  9  8  1  0
 10 11  1  0
  9 10  1  6
 11 12  2  0
 11 16  1  0
 12 13  1  0
 13 14  2  0
 15 14  1  0
 16 15  2  0
 17 18  2  0
 17  9  1  0
 20 19  1  0
 20 22  1  0
 21 20  2  0
 23 22  1  1
 23 24  1  0
 24 17  1  0
 25 23  1  0
 26 25  1  0
 27 25  2  0
M  END
$$$$
