PFN.pdb
     RDKit          3D

 27 28  0  0  1  0  0  0  0  0999 V2000
   24.3006  -11.9354  -18.9206 N   0  0  0  0  0  0  0  0  0  0  0  0
   24.1296  -13.0551  -19.8613 C   0  0  0  0  0  0  0  0  0  0  0  0
   22.6672  -13.3568  -19.9044 C   0  0  0  0  0  0  0  0  0  0  0  0
   22.1099  -12.5226  -18.7687 C   0  0  0  0  0  0  0  0  0  0  0  0
   23.0272  -11.2935  -18.8610 C   0  0  1  0  0  0  0  0  0  0  0  0
   22.7720  -10.4529  -17.6987 C   0  0  0  0  0  0  0  0  0  0  0  0
   22.3022  -11.0143  -16.6689 O   0  0  0  0  0  0  0  0  0  0  0  0
   23.0143   -9.0584  -17.6481 N   0  0  0  0  0  0  0  0  0  0  0  0
   22.6804   -8.3018  -16.4563 C   0  0  1  0  0  0  0  0  0  0  0  0
   23.9122   -7.6724  -15.8415 C   0  0  0  0  0  0  0  0  0  0  0  0
   25.0061   -8.6312  -15.6460 C   0  0  0  0  0  0  0  0  0  0  0  0
   26.0863   -8.6920  -16.4963 C   0  0  0  0  0  0  0  0  0  0  0  0
   27.1199   -9.6072  -16.2997 C   0  0  0  0  0  0  0  0  0  0  0  0
   27.0506  -10.4598  -15.2355 C   0  0  0  0  0  0  0  0  0  0  0  0
   25.9873  -10.4304  -14.3625 C   0  0  0  0  0  0  0  0  0  0  0  0
   24.9757   -9.5087  -14.5856 C   0  0  0  0  0  0  0  0  0  0  0  0
   21.6028   -7.3181  -16.6861 C   0  0  0  0  0  0  0  0  0  0  0  0
   21.6501   -6.6609  -17.7569 O   0  0  0  0  0  0  0  0  0  0  0  0
   17.4256   -4.3005  -16.3555 N   0  0  0  0  0  0  0  0  0  0  0  0
   17.1767   -5.4363  -15.5200 C   0  0  0  0  0  0  0  0  0  0  0  0
   16.0487   -5.5577  -14.9906 O   0  0  0  0  0  0  0  0  0  0  0  0
   18.2361   -6.4303  -15.2988 C   0  0  0  0  0  0  0  0  0  0  0  0
   19.4561   -6.1031  -16.0871 C   0  0  2  0  0  0  0  0  0  0  0  0
   20.5338   -7.0661  -15.7971 N   0  0  0  0  0  0  0  0  0  0  0  0
   20.0212   -4.7882  -15.6752 C   0  0  0  0  0  0  0  0  0  0  0  0
   19.5961   -3.5985  -16.2029 O   0  0  0  0  0  0  0  0  0  0  0  0
   20.9468   -4.6931  -14.7954 O   0  0  0  0  0  0  0  0  0  0  0  0
  1  5  1  0
  1  2  1  0
  2  3  1  0
  4  3  1  0
  5  4  1  0
  6  8  1  0
  5  6  1  1
  7  6  2  0
  9  8  1  0
 10 11  1  0
  9 10  1  6
 11 12  2  0
 11 16  1  0
 12 13  1  0
 13 14  2  0
 15 14  1  0
 16 15  2  0
 17 18  2  0
 17  9  1  0
 20 19  1  0
 20 22  1  0
 21 20  2  0
 23 22  1  1
 23 24  1  0
 24 17  1  0
 25 23  1  0
 26 25  1  0
 27 25  2  0
M  END
$$$$
