PFN.pdb
     RDKit          3D

 27 28  0  0  1  0  0  0  0  0999 V2000
   27.3644  -18.8587  -14.3946 N   0  0  0  0  0  0  0  0  0  0  0  0
   28.6961  -18.5706  -14.9527 C   0  0  0  0  0  0  0  0  0  0  0  0
   29.5339  -19.7824  -14.7053 C   0  0  0  0  0  0  0  0  0  0  0  0
   28.6697  -20.6156  -13.7807 C   0  0  0  0  0  0  0  0  0  0  0  0
   27.2775  -20.2823  -14.3387 C   0  0  1  0  0  0  0  0  0  0  0  0
   26.2833  -20.8421  -13.4328 C   0  0  0  0  0  0  0  0  0  0  0  0
   26.0422  -22.0787  -13.5289 O   0  0  0  0  0  0  0  0  0  0  0  0
   25.5749  -20.0966  -12.4590 N   0  0  0  0  0  0  0  0  0  0  0  0
   24.5317  -20.7274  -11.6727 C   0  0  1  0  0  0  0  0  0  0  0  0
   24.4079  -20.0852  -10.3075 C   0  0  0  0  0  0  0  0  0  0  0  0
   25.6074  -20.2650   -9.4810 C   0  0  0  0  0  0  0  0  0  0  0  0
   26.3981  -21.3873   -9.5738 C   0  0  0  0  0  0  0  0  0  0  0  0
   27.5359  -21.5463   -8.7833 C   0  0  0  0  0  0  0  0  0  0  0  0
   27.8660  -20.5600   -7.8988 C   0  0  0  0  0  0  0  0  0  0  0  0
   27.1012  -19.4226   -7.7763 C   0  0  0  0  0  0  0  0  0  0  0  0
   25.9760  -19.2948   -8.5766 C   0  0  0  0  0  0  0  0  0  0  0  0
   23.2382  -20.7897  -12.3830 C   0  0  0  0  0  0  0  0  0  0  0  0
   22.9624  -19.8320  -13.1495 O   0  0  0  0  0  0  0  0  0  0  0  0
   19.2204  -23.8501  -15.1661 N   0  0  0  0  0  0  0  0  0  0  0  0
   19.2657  -23.3859  -13.8124 C   0  0  0  0  0  0  0  0  0  0  0  0
   18.1959  -23.0496  -13.2559 O   0  0  0  0  0  0  0  0  0  0  0  0
   20.5516  -23.3118  -13.1051 C   0  0  0  0  0  0  0  0  0  0  0  0
   21.0729  -21.9173  -13.0781 C   0  0  2  0  0  0  0  0  0  0  0  0
   22.2987  -21.8383  -12.2633 N   0  0  0  0  0  0  0  0  0  0  0  0
   20.1184  -21.0037  -12.3909 C   0  0  0  0  0  0  0  0  0  0  0  0
   20.3783  -20.4381  -11.1714 O   0  0  0  0  0  0  0  0  0  0  0  0
   18.9881  -20.6915  -12.9054 O   0  0  0  0  0  0  0  0  0  0  0  0
  1  5  1  0
  1  2  1  0
  2  3  1  0
  4  3  1  0
  5  4  1  0
  6  8  1  0
  5  6  1  1
  7  6  2  0
  9  8  1  0
 10 11  1  0
  9 10  1  1
 11 12  2  0
 11 16  1  0
 12 13  1  0
 13 14  2  0
 15 14  1  0
 16 15  2  0
 17 18  2  0
 17  9  1  0
 20 19  1  0
 20 22  1  0
 21 20  2  0
 23 22  1  1
 23 24  1  0
 24 17  1  0
 25 23  1  0
 26 25  1  0
 27 25  2  0
M  END
$$$$
