PFN.pdb
     RDKit          3D

 27 28  0  0  1  0  0  0  0  0999 V2000
   19.1731  -10.3840  -14.9853 N   0  0  0  0  0  0  0  0  0  0  0  0
   19.7284  -10.0135  -16.2977 C   0  0  0  0  0  0  0  0  0  0  0  0
   19.0424   -8.7524  -16.7108 C   0  0  0  0  0  0  0  0  0  0  0  0
   17.9343   -8.6119  -15.6868 C   0  0  0  0  0  0  0  0  0  0  0  0
   18.6415   -9.1749  -14.4444 C   0  0  1  0  0  0  0  0  0  0  0  0
   17.6504   -9.3120  -13.3854 C   0  0  0  0  0  0  0  0  0  0  0  0
   16.8590  -10.2945  -13.4556 O   0  0  0  0  0  0  0  0  0  0  0  0
   17.5171   -8.4231  -12.2910 N   0  0  0  0  0  0  0  0  0  0  0  0
   16.4239   -8.5812  -11.3506 C   0  0  1  0  0  0  0  0  0  0  0  0
   16.8182   -8.1141   -9.9657 C   0  0  0  0  0  0  0  0  0  0  0  0
   15.7190   -8.2062   -8.9976 C   0  0  0  0  0  0  0  0  0  0  0  0
   15.0980   -9.3993   -8.7072 C   0  0  0  0  0  0  0  0  0  0  0  0
   14.0548   -9.4741   -7.7848 C   0  0  0  0  0  0  0  0  0  0  0  0
   13.6459   -8.3314   -7.1594 C   0  0  0  0  0  0  0  0  0  0  0  0
   14.2413   -7.1189   -7.4223 C   0  0  0  0  0  0  0  0  0  0  0  0
   15.2759   -7.0781   -8.3446 C   0  0  0  0  0  0  0  0  0  0  0  0
   15.1711   -7.9544  -11.8187 C   0  0  0  0  0  0  0  0  0  0  0  0
   15.2331   -6.7480  -12.1674 O   0  0  0  0  0  0  0  0  0  0  0  0
   10.4656   -6.9587  -13.6261 N   0  0  0  0  0  0  0  0  0  0  0  0
   10.5950   -8.3844  -13.6030 C   0  0  0  0  0  0  0  0  0  0  0  0
    9.6837   -9.0792  -14.1072 O   0  0  0  0  0  0  0  0  0  0  0  0
   11.7809   -9.0035  -12.9950 C   0  0  0  0  0  0  0  0  0  0  0  0
   12.7171   -7.9728  -12.4676 C   0  0  2  0  0  0  0  0  0  0  0  0
   13.9210   -8.6078  -11.9015 N   0  0  0  0  0  0  0  0  0  0  0  0
   12.1148   -7.2427  -11.3178 C   0  0  0  0  0  0  0  0  0  0  0  0
   12.7149   -7.1658  -10.0897 O   0  0  0  0  0  0  0  0  0  0  0  0
   10.9894   -6.6389  -11.4119 O   0  0  0  0  0  0  0  0  0  0  0  0
  1  5  1  0
  1  2  1  0
  2  3  1  0
  4  3  1  0
  5  4  1  0
  6  8  1  0
  5  6  1  1
  7  6  2  0
  9  8  1  0
 10 11  1  0
  9 10  1  1
 11 12  2  0
 11 16  1  0
 12 13  1  0
 13 14  2  0
 15 14  1  0
 16 15  2  0
 17 18  2  0
 17  9  1  0
 20 19  1  0
 20 22  1  0
 21 20  2  0
 23 22  1  1
 23 24  1  0
 24 17  1  0
 25 23  1  0
 26 25  1  0
 27 25  2  0
M  END
$$$$
