PFN.pdb
     RDKit          3D

 27 28  0  0  1  0  0  0  0  0999 V2000
   27.9669  -19.7112  -13.5678 N   0  0  0  0  0  0  0  0  0  0  0  0
   28.5457  -19.8581  -14.9136 C   0  0  0  0  0  0  0  0  0  0  0  0
   29.0807  -21.2503  -14.9986 C   0  0  0  0  0  0  0  0  0  0  0  0
   28.9840  -21.7441  -13.5693 C   0  0  0  0  0  0  0  0  0  0  0  0
   27.6917  -21.0406  -13.1272 C   0  0  1  0  0  0  0  0  0  0  0  0
   27.5411  -21.2360  -11.6913 C   0  0  0  0  0  0  0  0  0  0  0  0
   26.9275  -22.2720  -11.3082 O   0  0  0  0  0  0  0  0  0  0  0  0
   28.0339  -20.3477  -10.7045 N   0  0  0  0  0  0  0  0  0  0  0  0
   27.6936  -20.5454   -9.3082 C   0  0  1  0  0  0  0  0  0  0  0  0
   28.7801  -20.0154   -8.3971 C   0  0  0  0  0  0  0  0  0  0  0  0
   28.4015  -20.0457   -6.9795 C   0  0  0  0  0  0  0  0  0  0  0  0
   27.6314  -19.0598   -6.4067 C   0  0  0  0  0  0  0  0  0  0  0  0
   27.2778  -19.1001   -5.0583 C   0  0  0  0  0  0  0  0  0  0  0  0
   27.7102  -20.1465   -4.2954 C   0  0  0  0  0  0  0  0  0  0  0  0
   28.4820  -21.1522   -4.8308 C   0  0  0  0  0  0  0  0  0  0  0  0
   28.8165  -21.0828   -6.1747 C   0  0  0  0  0  0  0  0  0  0  0  0
   26.3609  -20.0105   -8.9627 C   0  0  0  0  0  0  0  0  0  0  0  0
   26.0980  -18.8431   -9.3482 O   0  0  0  0  0  0  0  0  0  0  0  0
   21.2875  -19.8398   -8.6928 N   0  0  0  0  0  0  0  0  0  0  0  0
   21.9907  -20.3904   -9.8118 C   0  0  0  0  0  0  0  0  0  0  0  0
   21.3593  -20.6078  -10.8709 O   0  0  0  0  0  0  0  0  0  0  0  0
   23.4253  -20.6888   -9.7021 C   0  0  0  0  0  0  0  0  0  0  0  0
   23.9331  -20.4003   -8.3324 C   0  0  2  0  0  0  0  0  0  0  0  0
   25.3710  -20.7106   -8.2371 N   0  0  0  0  0  0  0  0  0  0  0  0
   23.2987  -21.2980   -7.3277 C   0  0  0  0  0  0  0  0  0  0  0  0
   21.9582  -21.2734   -7.0505 O   0  0  0  0  0  0  0  0  0  0  0  0
   23.9769  -22.1531   -6.6578 O   0  0  0  0  0  0  0  0  0  0  0  0
  1  5  1  0
  1  2  1  0
  2  3  1  0
  4  3  1  0
  5  4  1  0
  6  8  1  0
  5  6  1  1
  7  6  2  0
  9  8  1  0
 10 11  1  0
  9 10  1  1
 11 12  2  0
 11 16  1  0
 12 13  1  0
 13 14  2  0
 15 14  1  0
 16 15  2  0
 17 18  2  0
 17  9  1  0
 20 19  1  0
 20 22  1  0
 21 20  2  0
 23 22  1  6
 23 24  1  0
 24 17  1  0
 25 23  1  0
 26 25  1  0
 27 25  2  0
M  END
$$$$
