DFW.pdb
     RDKit          3D

 34 36  0  0  1  0  0  0  0  0999 V2000
   28.3288  -20.3388  -17.4278 N   0  0  0  0  0  0  0  0  0  0  0  0
   28.4152  -21.2788  -16.3003 C   0  0  1  0  0  0  0  0  0  0  0  0
   29.7948  -21.9188  -16.3561 C   0  0  0  0  0  0  0  0  0  0  0  0
   29.6667  -23.0631  -17.2791 C   0  0  0  0  0  0  0  0  0  0  0  0
   28.6385  -23.1818  -17.9824 O   0  0  0  0  0  0  0  0  0  0  0  0
   28.2018  -20.5225  -15.0562 C   0  0  0  0  0  0  0  0  0  0  0  0
   29.1444  -19.8477  -14.5245 O   0  0  0  0  0  0  0  0  0  0  0  0
   30.6656  -24.0301  -17.4049 O   0  0  0  0  0  0  0  0  0  0  0  0
   26.9442  -20.5097  -14.4077 N   0  0  0  0  0  0  0  0  0  0  0  0
   26.7035  -19.8845  -13.1030 C   0  0  1  0  0  0  0  0  0  0  0  0
   25.6323  -18.8105  -13.3572 C   0  0  0  0  0  0  0  0  0  0  0  0
   26.1239  -17.7663  -14.2564 C   0  0  0  0  0  0  0  0  0  0  0  0
   26.8302  -16.6921  -13.7804 C   0  0  0  0  0  0  0  0  0  0  0  0
   27.2872  -15.6833  -14.6371 C   0  0  0  0  0  0  0  0  0  0  0  0
   27.0406  -15.7395  -15.9907 C   0  0  0  0  0  0  0  0  0  0  0  0
   26.3313  -16.8162  -16.4716 C   0  0  0  0  0  0  0  0  0  0  0  0
   25.8786  -17.8159  -15.6207 C   0  0  0  0  0  0  0  0  0  0  0  0
   26.3392  -20.8130  -12.0487 C   0  0  0  0  0  0  0  0  0  0  0  0
   25.7101  -21.8625  -12.3091 O   0  0  0  0  0  0  0  0  0  0  0  0
   26.6904  -20.5456  -10.7061 N   0  0  0  0  0  0  0  0  0  0  0  0
   26.2891  -21.4090   -9.5965 C   0  0  1  0  0  0  0  0  0  0  0  0
   27.4248  -21.4069   -8.6279 C   0  0  0  0  0  0  0  0  0  0  0  0
   27.4738  -20.3343   -7.6393 C   0  0  0  0  0  0  0  0  0  0  0  0
   26.8860  -19.0860   -7.7992 C   0  0  0  0  0  0  0  0  0  0  0  0
   27.1438  -18.3327   -6.7460 N   0  0  0  0  0  0  0  0  0  0  0  0
   27.8905  -19.0227   -5.8652 C   0  0  0  0  0  0  0  0  0  0  0  0
   28.3728  -18.6503   -4.6407 C   0  0  0  0  0  0  0  0  0  0  0  0
   29.1034  -19.5423   -3.9009 C   0  0  0  0  0  0  0  0  0  0  0  0
   29.3275  -20.8076   -4.4364 C   0  0  0  0  0  0  0  0  0  0  0  0
   28.8443  -21.1889   -5.6666 C   0  0  0  0  0  0  0  0  0  0  0  0
   28.0963  -20.2692   -6.4186 C   0  0  0  0  0  0  0  0  0  0  0  0
   25.0370  -20.9965   -8.9592 C   0  0  0  0  0  0  0  0  0  0  0  0
   24.4433  -19.9107   -9.2416 O   0  0  0  0  0  0  0  0  0  0  0  0
   24.4843  -21.8558   -8.0022 O   0  0  0  0  0  0  0  0  0  0  0  0
  2  1  1  6
  2  3  1  0
  3  4  1  0
  4  5  2  0
  6  2  1  0
  6  7  2  0
  8  4  1  0
  9  6  1  0
 10 11  1  6
 10  9  1  0
 11 12  1  0
 12 13  2  0
 12 17  1  0
 13 14  1  0
 14 15  2  0
 16 15  1  0
 17 16  2  0
 18 10  1  0
 19 18  2  0
 20 18  1  0
 21 20  1  0
 21 22  1  1
 22 23  1  0
 23 31  1  0
 24 23  2  0
 24 25  1  0
 25 26  1  0
 26 27  1  0
 27 28  2  0
 29 28  1  0
 30 29  2  0
 31 26  2  0
 31 30  1  0
 32 34  1  0
 32 21  1  0
 33 32  2  0
M  END
$$$$
