DFW.pdb
     RDKit          3D

 34 36  0  0  1  0  0  0  0  0999 V2000
   17.5138  -20.9582    3.0171 N   0  0  0  0  0  0  0  0  0  0  0  0
   16.8036  -21.1486    4.2906 C   0  0  1  0  0  0  0  0  0  0  0  0
   16.1293  -22.5114    4.2273 C   0  0  0  0  0  0  0  0  0  0  0  0
   16.8568  -23.2686    3.1904 C   0  0  0  0  0  0  0  0  0  0  0  0
   17.8305  -22.7433    2.6059 O   0  0  0  0  0  0  0  0  0  0  0  0
   17.7881  -21.0642    5.3810 C   0  0  0  0  0  0  0  0  0  0  0  0
   17.4203  -21.0460    6.6019 O   0  0  0  0  0  0  0  0  0  0  0  0
   16.4996  -24.5704    2.8349 O   0  0  0  0  0  0  0  0  0  0  0  0
   19.1772  -21.0069    5.1173 N   0  0  0  0  0  0  0  0  0  0  0  0
   20.2051  -20.9325    6.1608 C   0  0  1  0  0  0  0  0  0  0  0  0
   21.3526  -21.8296    5.6671 C   0  0  0  0  0  0  0  0  0  0  0  0
   20.8843  -23.1838    5.3713 C   0  0  0  0  0  0  0  0  0  0  0  0
   20.8039  -23.6430    4.0821 C   0  0  0  0  0  0  0  0  0  0  0  0
   20.3403  -24.9329    3.7958 C   0  0  0  0  0  0  0  0  0  0  0  0
   19.9494  -25.7841    4.8052 C   0  0  0  0  0  0  0  0  0  0  0  0
   20.0282  -25.3259    6.1004 C   0  0  0  0  0  0  0  0  0  0  0  0
   20.4881  -24.0464    6.3827 C   0  0  0  0  0  0  0  0  0  0  0  0
   20.6359  -19.5854    6.4863 C   0  0  0  0  0  0  0  0  0  0  0  0
   21.7088  -19.1291    6.0327 O   0  0  0  0  0  0  0  0  0  0  0  0
   19.8477  -18.7642    7.3241 N   0  0  0  0  0  0  0  0  0  0  0  0
   20.1545  -17.3555    7.5664 C   0  0  1  0  0  0  0  0  0  0  0  0
   20.4461  -16.7515    6.2328 C   0  0  0  0  0  0  0  0  0  0  0  0
   20.5179  -15.2964    6.1460 C   0  0  0  0  0  0  0  0  0  0  0  0
   21.3612  -14.5006    6.9108 C   0  0  0  0  0  0  0  0  0  0  0  0
   21.1580  -13.2284    6.6224 N   0  0  0  0  0  0  0  0  0  0  0  0
   20.2012  -13.1223    5.6829 C   0  0  0  0  0  0  0  0  0  0  0  0
   19.6842  -12.0103    5.0771 C   0  0  0  0  0  0  0  0  0  0  0  0
   18.7160  -12.1501    4.1179 C   0  0  0  0  0  0  0  0  0  0  0  0
   18.2934  -13.4373    3.7978 C   0  0  0  0  0  0  0  0  0  0  0  0
   18.8100  -14.5598    4.4023 C   0  0  0  0  0  0  0  0  0  0  0  0
   19.8020  -14.4083    5.3841 C   0  0  0  0  0  0  0  0  0  0  0  0
   19.0849  -16.6362    8.2610 C   0  0  0  0  0  0  0  0  0  0  0  0
   17.8533  -16.8754    8.0681 O   0  0  0  0  0  0  0  0  0  0  0  0
   19.4597  -15.6480    9.1790 O   0  0  0  0  0  0  0  0  0  0  0  0
  2  1  1  6
  2  3  1  0
  3  4  1  0
  4  5  2  0
  6  2  1  0
  6  7  2  0
  8  4  1  0
  9  6  1  0
 10 11  1  6
 10  9  1  0
 11 12  1  0
 12 13  2  0
 12 17  1  0
 13 14  1  0
 14 15  2  0
 16 15  1  0
 17 16  2  0
 18 10  1  0
 19 18  2  0
 20 18  1  0
 21 20  1  0
 21 22  1  6
 22 23  1  0
 23 31  1  0
 24 23  2  0
 24 25  1  0
 25 26  1  0
 26 27  1  0
 27 28  2  0
 29 28  1  0
 30 29  2  0
 31 26  2  0
 31 30  1  0
 32 34  1  0
 32 21  1  0
 33 32  2  0
M  END
$$$$
