DFW.pdb
     RDKit          3D

 34 36  0  0  1  0  0  0  0  0999 V2000
   27.3701  -22.8364  -17.7386 N   0  0  0  0  0  0  0  0  0  0  0  0
   26.4339  -22.9758  -16.6132 C   0  0  1  0  0  0  0  0  0  0  0  0
   26.3243  -24.4619  -16.3041 C   0  0  0  0  0  0  0  0  0  0  0  0
   25.3449  -24.9988  -17.2685 C   0  0  0  0  0  0  0  0  0  0  0  0
   24.8483  -26.1324  -17.0836 O   0  0  0  0  0  0  0  0  0  0  0  0
   26.9667  -22.2081  -15.4765 C   0  0  0  0  0  0  0  0  0  0  0  0
   28.1698  -22.3619  -15.0826 O   0  0  0  0  0  0  0  0  0  0  0  0
   24.9398  -24.2781  -18.3933 O   0  0  0  0  0  0  0  0  0  0  0  0
   26.1685  -21.2676  -14.7832 N   0  0  0  0  0  0  0  0  0  0  0  0
   26.6300  -20.5037  -13.6194 C   0  0  1  0  0  0  0  0  0  0  0  0
   26.4071  -19.0270  -13.9867 C   0  0  0  0  0  0  0  0  0  0  0  0
   27.3105  -18.5987  -15.0550 C   0  0  0  0  0  0  0  0  0  0  0  0
   28.6706  -18.6119  -14.8844 C   0  0  0  0  0  0  0  0  0  0  0  0
   29.5363  -18.1868  -15.8995 C   0  0  0  0  0  0  0  0  0  0  0  0
   29.0458  -17.7407  -17.1063 C   0  0  0  0  0  0  0  0  0  0  0  0
   27.6809  -17.7255  -17.2805 C   0  0  0  0  0  0  0  0  0  0  0  0
   26.8236  -18.1473  -16.2728 C   0  0  0  0  0  0  0  0  0  0  0  0
   26.0026  -20.8790  -12.3657 C   0  0  0  0  0  0  0  0  0  0  0  0
   24.7639  -21.0372  -12.2919 O   0  0  0  0  0  0  0  0  0  0  0  0
   26.7836  -21.0727  -11.2038 N   0  0  0  0  0  0  0  0  0  0  0  0
   26.2124  -21.0739   -9.8579 C   0  0  1  0  0  0  0  0  0  0  0  0
   27.3634  -20.9916   -8.9109 C   0  0  0  0  0  0  0  0  0  0  0  0
   27.0709  -20.7226   -7.5065 C   0  0  0  0  0  0  0  0  0  0  0  0
   25.8762  -21.0415   -6.8739 C   0  0  0  0  0  0  0  0  0  0  0  0
   25.9126  -20.6336   -5.6188 N   0  0  0  0  0  0  0  0  0  0  0  0
   27.0949  -20.0439   -5.3664 C   0  0  0  0  0  0  0  0  0  0  0  0
   27.5732  -19.4943   -4.2088 C   0  0  0  0  0  0  0  0  0  0  0  0
   28.8353  -18.9619   -4.1830 C   0  0  0  0  0  0  0  0  0  0  0  0
   29.5867  -19.0030   -5.3543 C   0  0  0  0  0  0  0  0  0  0  0  0
   29.1121  -19.5552   -6.5214 C   0  0  0  0  0  0  0  0  0  0  0  0
   27.8179  -20.0990   -6.5397 C   0  0  0  0  0  0  0  0  0  0  0  0
   25.2501  -19.9939   -9.6311 C   0  0  0  0  0  0  0  0  0  0  0  0
   25.4889  -18.7828   -9.9268 O   0  0  0  0  0  0  0  0  0  0  0  0
   24.0153  -20.3353   -9.0669 O   0  0  0  0  0  0  0  0  0  0  0  0
  2  1  1  6
  2  3  1  0
  3  4  1  0
  4  5  2  0
  6  2  1  0
  6  7  2  0
  8  4  1  0
  9  6  1  0
 10 11  1  6
 10  9  1  0
 11 12  1  0
 12 13  2  0
 12 17  1  0
 13 14  1  0
 14 15  2  0
 16 15  1  0
 17 16  2  0
 18 10  1  0
 19 18  2  0
 20 18  1  0
 21 20  1  0
 21 22  1  1
 22 23  1  0
 23 31  1  0
 24 23  2  0
 24 25  1  0
 25 26  1  0
 26 27  1  0
 27 28  2  0
 29 28  1  0
 30 29  2  0
 31 26  2  0
 31 30  1  0
 32 34  1  0
 32 21  1  0
 33 32  2  0
M  END
$$$$
