DFW.pdb
     RDKit          3D

 34 36  0  0  1  0  0  0  0  0999 V2000
   26.6493  -23.5674  -17.0727 N   0  0  0  0  0  0  0  0  0  0  0  0
   26.7710  -22.2633  -16.4042 C   0  0  1  0  0  0  0  0  0  0  0  0
   26.1235  -21.2311  -17.3158 C   0  0  0  0  0  0  0  0  0  0  0  0
   27.2089  -20.7216  -18.1759 C   0  0  0  0  0  0  0  0  0  0  0  0
   27.9767  -21.5262  -18.7495 O   0  0  0  0  0  0  0  0  0  0  0  0
   26.0984  -22.3535  -15.0985 C   0  0  0  0  0  0  0  0  0  0  0  0
   25.0241  -23.0256  -14.9549 O   0  0  0  0  0  0  0  0  0  0  0  0
   27.4124  -19.3561  -18.3830 O   0  0  0  0  0  0  0  0  0  0  0  0
   26.6201  -21.7051  -13.9540 N   0  0  0  0  0  0  0  0  0  0  0  0
   25.8832  -21.5490  -12.6956 C   0  0  1  0  0  0  0  0  0  0  0  0
   26.9477  -21.2064  -11.6398 C   0  0  0  0  0  0  0  0  0  0  0  0
   26.3357  -20.7766  -10.3823 C   0  0  0  0  0  0  0  0  0  0  0  0
   26.4252  -19.4769   -9.9554 C   0  0  0  0  0  0  0  0  0  0  0  0
   25.8544  -19.0671   -8.7442 C   0  0  0  0  0  0  0  0  0  0  0  0
   25.1822  -19.9610   -7.9410 C   0  0  0  0  0  0  0  0  0  0  0  0
   25.0912  -21.2665   -8.3664 C   0  0  0  0  0  0  0  0  0  0  0  0
   25.6578  -21.6715   -9.5678 C   0  0  0  0  0  0  0  0  0  0  0  0
   24.8017  -20.5827  -12.7474 C   0  0  0  0  0  0  0  0  0  0  0  0
   25.0239  -19.3885  -13.0465 O   0  0  0  0  0  0  0  0  0  0  0  0
   23.4751  -20.9764  -12.4597 N   0  0  0  0  0  0  0  0  0  0  0  0
   22.3845  -20.0176  -12.2904 C   0  0  1  0  0  0  0  0  0  0  0  0
   21.7081  -19.9091  -13.6167 C   0  0  0  0  0  0  0  0  0  0  0  0
   21.2456  -21.1414  -14.2473 C   0  0  0  0  0  0  0  0  0  0  0  0
   20.2144  -21.9366  -13.7641 C   0  0  0  0  0  0  0  0  0  0  0  0
   20.0673  -22.9962  -14.5379 N   0  0  0  0  0  0  0  0  0  0  0  0
   20.9645  -22.9562  -15.5392 C   0  0  0  0  0  0  0  0  0  0  0  0
   21.1645  -23.8268  -16.5750 C   0  0  0  0  0  0  0  0  0  0  0  0
   22.1394  -23.5647  -17.5012 C   0  0  0  0  0  0  0  0  0  0  0  0
   22.8963  -22.4068  -17.3445 C   0  0  0  0  0  0  0  0  0  0  0  0
   22.6996  -21.5266  -16.3059 C   0  0  0  0  0  0  0  0  0  0  0  0
   21.6985  -21.8020  -15.3610 C   0  0  0  0  0  0  0  0  0  0  0  0
   21.4410  -20.3873  -11.2334 C   0  0  0  0  0  0  0  0  0  0  0  0
   21.4190  -21.5385  -10.6989 O   0  0  0  0  0  0  0  0  0  0  0  0
   20.5349  -19.4105  -10.8041 O   0  0  0  0  0  0  0  0  0  0  0  0
  2  1  1  6
  2  3  1  0
  3  4  1  0
  4  5  2  0
  6  2  1  0
  6  7  2  0
  8  4  1  0
  9  6  1  0
 10 11  1  1
 10  9  1  0
 11 12  1  0
 12 13  2  0
 12 17  1  0
 13 14  1  0
 14 15  2  0
 16 15  1  0
 17 16  2  0
 18 10  1  0
 19 18  2  0
 20 18  1  0
 21 20  1  0
 21 22  1  6
 22 23  1  0
 23 31  1  0
 24 23  2  0
 24 25  1  0
 25 26  1  0
 26 27  1  0
 27 28  2  0
 29 28  1  0
 30 29  2  0
 31 26  2  0
 31 30  1  0
 32 34  1  0
 32 21  1  0
 33 32  2  0
M  END
$$$$
