DFW.pdb
     RDKit          3D

 34 36  0  0  1  0  0  0  0  0999 V2000
   27.8483  -21.8872  -13.7948 N   0  0  0  0  0  0  0  0  0  0  0  0
   28.0286  -20.7374  -12.8958 C   0  0  1  0  0  0  0  0  0  0  0  0
   27.1103  -19.6312  -13.3948 C   0  0  0  0  0  0  0  0  0  0  0  0
   27.6833  -19.1863  -14.6798 C   0  0  0  0  0  0  0  0  0  0  0  0
   28.8121  -18.6469  -14.7030 O   0  0  0  0  0  0  0  0  0  0  0  0
   27.6917  -21.1673  -11.5295 C   0  0  0  0  0  0  0  0  0  0  0  0
   26.7924  -22.0463  -11.3173 O   0  0  0  0  0  0  0  0  0  0  0  0
   27.0077  -19.3517  -15.8902 O   0  0  0  0  0  0  0  0  0  0  0  0
   28.3554  -20.6279  -10.4021 N   0  0  0  0  0  0  0  0  0  0  0  0
   27.9028  -20.8152   -9.0197 C   0  0  1  0  0  0  0  0  0  0  0  0
   29.0864  -20.3775   -8.1406 C   0  0  0  0  0  0  0  0  0  0  0  0
   28.6958  -20.2622   -6.7353 C   0  0  0  0  0  0  0  0  0  0  0  0
   28.9129  -21.2863   -5.8502 C   0  0  0  0  0  0  0  0  0  0  0  0
   28.5249  -21.1844   -4.5088 C   0  0  0  0  0  0  0  0  0  0  0  0
   27.9106  -20.0468   -4.0348 C   0  0  0  0  0  0  0  0  0  0  0  0
   27.6906  -19.0172   -4.9208 C   0  0  0  0  0  0  0  0  0  0  0  0
   28.0759  -19.1198   -6.2510 C   0  0  0  0  0  0  0  0  0  0  0  0
   26.6668  -20.1284   -8.6928 C   0  0  0  0  0  0  0  0  0  0  0  0
   26.5805  -18.8843   -8.7910 O   0  0  0  0  0  0  0  0  0  0  0  0
   25.5367  -20.8565   -8.2566 N   0  0  0  0  0  0  0  0  0  0  0  0
   24.1661  -20.4050   -8.4912 C   0  0  1  0  0  0  0  0  0  0  0  0
   24.0220  -20.2428   -9.9681 C   0  0  0  0  0  0  0  0  0  0  0  0
   22.7093  -19.8715  -10.4869 C   0  0  0  0  0  0  0  0  0  0  0  0
   21.7100  -19.2597   -9.7411 C   0  0  0  0  0  0  0  0  0  0  0  0
   20.6343  -19.0922  -10.4880 N   0  0  0  0  0  0  0  0  0  0  0  0
   20.8609  -19.5690  -11.7252 C   0  0  0  0  0  0  0  0  0  0  0  0
   20.0436  -19.5908  -12.8217 C   0  0  0  0  0  0  0  0  0  0  0  0
   20.5050  -20.1164  -13.9997 C   0  0  0  0  0  0  0  0  0  0  0  0
   21.8048  -20.6141  -14.0294 C   0  0  0  0  0  0  0  0  0  0  0  0
   22.6323  -20.5942  -12.9306 C   0  0  0  0  0  0  0  0  0  0  0  0
   22.1522  -20.0537  -11.7271 C   0  0  0  0  0  0  0  0  0  0  0  0
   23.1521  -21.3106   -7.9475 C   0  0  0  0  0  0  0  0  0  0  0  0
   23.2224  -22.5731   -8.0591 O   0  0  0  0  0  0  0  0  0  0  0  0
   22.0674  -20.7375   -7.2731 O   0  0  0  0  0  0  0  0  0  0  0  0
  2  1  1  6
  2  3  1  0
  3  4  1  0
  4  5  2  0
  6  2  1  0
  6  7  2  0
  8  4  1  0
  9  6  1  0
 10 11  1  1
 10  9  1  0
 11 12  1  0
 12 13  2  0
 12 17  1  0
 13 14  1  0
 14 15  2  0
 16 15  1  0
 17 16  2  0
 18 10  1  0
 19 18  2  0
 20 18  1  0
 21 20  1  0
 21 22  1  6
 22 23  1  0
 23 31  1  0
 24 23  2  0
 24 25  1  0
 25 26  1  0
 26 27  1  0
 27 28  2  0
 29 28  1  0
 30 29  2  0
 31 26  2  0
 31 30  1  0
 32 34  1  0
 32 21  1  0
 33 32  2  0
M  END
$$$$
