DFW.pdb
     RDKit          3D

 34 36  0  0  1  0  0  0  0  0999 V2000
   26.9872  -20.7272  -17.6929 N   0  0  0  0  0  0  0  0  0  0  0  0
   27.7817  -20.3184  -16.5250 C   0  0  1  0  0  0  0  0  0  0  0  0
   28.6354  -19.1349  -16.9568 C   0  0  0  0  0  0  0  0  0  0  0  0
   29.5438  -19.6565  -17.9963 C   0  0  0  0  0  0  0  0  0  0  0  0
   29.8931  -18.9174  -18.9437 O   0  0  0  0  0  0  0  0  0  0  0  0
   26.8526  -19.9683  -15.4390 C   0  0  0  0  0  0  0  0  0  0  0  0
   26.3925  -18.7849  -15.3202 O   0  0  0  0  0  0  0  0  0  0  0  0
   30.0414  -20.9602  -17.9604 O   0  0  0  0  0  0  0  0  0  0  0  0
   26.4302  -20.9306  -14.4912 N   0  0  0  0  0  0  0  0  0  0  0  0
   25.4270  -20.6705  -13.4535 C   0  0  1  0  0  0  0  0  0  0  0  0
   24.1273  -21.3063  -13.9748 C   0  0  0  0  0  0  0  0  0  0  0  0
   23.0156  -21.0882  -13.0487 C   0  0  0  0  0  0  0  0  0  0  0  0
   22.5569  -22.0945  -12.2386 C   0  0  0  0  0  0  0  0  0  0  0  0
   21.4825  -21.8926  -11.3636 C   0  0  0  0  0  0  0  0  0  0  0  0
   20.8509  -20.6713  -11.2893 C   0  0  0  0  0  0  0  0  0  0  0  0
   21.3086  -19.6593  -12.1017 C   0  0  0  0  0  0  0  0  0  0  0  0
   22.3741  -19.8611  -12.9690 C   0  0  0  0  0  0  0  0  0  0  0  0
   25.7964  -21.1353  -12.1292 C   0  0  0  0  0  0  0  0  0  0  0  0
   26.2403  -22.2922  -11.9575 O   0  0  0  0  0  0  0  0  0  0  0  0
   25.6603  -20.2855  -11.0081 N   0  0  0  0  0  0  0  0  0  0  0  0
   25.8333  -20.7547   -9.6343 C   0  0  1  0  0  0  0  0  0  0  0  0
   26.5987  -19.6917   -8.9184 C   0  0  0  0  0  0  0  0  0  0  0  0
   27.8171  -20.0854   -8.2178 C   0  0  0  0  0  0  0  0  0  0  0  0
   28.7497  -20.9921   -8.7049 C   0  0  0  0  0  0  0  0  0  0  0  0
   29.7140  -21.1605   -7.8189 N   0  0  0  0  0  0  0  0  0  0  0  0
   29.4753  -20.3982   -6.7366 C   0  0  0  0  0  0  0  0  0  0  0  0
   30.2081  -20.2432   -5.5922 C   0  0  0  0  0  0  0  0  0  0  0  0
   29.7717  -19.3821   -4.6201 C   0  0  0  0  0  0  0  0  0  0  0  0
   28.5827  -18.6929   -4.8424 C   0  0  0  0  0  0  0  0  0  0  0  0
   27.8416  -18.8432   -5.9915 C   0  0  0  0  0  0  0  0  0  0  0  0
   28.2955  -19.7273   -6.9831 C   0  0  0  0  0  0  0  0  0  0  0  0
   24.5707  -21.0576   -8.9575 C   0  0  0  0  0  0  0  0  0  0  0  0
   23.4799  -20.4710   -9.2357 O   0  0  0  0  0  0  0  0  0  0  0  0
   24.5887  -22.0457   -7.9661 O   0  0  0  0  0  0  0  0  0  0  0  0
  2  1  1  6
  2  3  1  0
  3  4  1  0
  4  5  2  0
  6  2  1  0
  6  7  2  0
  8  4  1  0
  9  6  1  0
 10 11  1  6
 10  9  1  0
 11 12  1  0
 12 13  2  0
 12 17  1  0
 13 14  1  0
 14 15  2  0
 16 15  1  0
 17 16  2  0
 18 10  1  0
 19 18  2  0
 20 18  1  0
 21 20  1  0
 21 22  1  1
 22 23  1  0
 23 31  1  0
 24 23  2  0
 24 25  1  0
 25 26  1  0
 26 27  1  0
 27 28  2  0
 29 28  1  0
 30 29  2  0
 31 26  2  0
 31 30  1  0
 32 34  1  0
 32 21  1  0
 33 32  2  0
M  END
$$$$
