DFW.pdb
     RDKit          3D

 34 36  0  0  1  0  0  0  0  0999 V2000
   28.6122  -23.2463  -18.1184 N   0  0  0  0  0  0  0  0  0  0  0  0
   28.0687  -21.9319  -17.7453 C   0  0  1  0  0  0  0  0  0  0  0  0
   27.1356  -21.4989  -18.8667 C   0  0  0  0  0  0  0  0  0  0  0  0
   28.0127  -21.0285  -19.9563 C   0  0  0  0  0  0  0  0  0  0  0  0
   27.7161  -21.2811  -21.1454 O   0  0  0  0  0  0  0  0  0  0  0  0
   27.3664  -22.0748  -16.4601 C   0  0  0  0  0  0  0  0  0  0  0  0
   26.6567  -23.1037  -16.2071 O   0  0  0  0  0  0  0  0  0  0  0  0
   29.1751  -20.2962  -19.7090 O   0  0  0  0  0  0  0  0  0  0  0  0
   27.4569  -21.0818  -15.4560 N   0  0  0  0  0  0  0  0  0  0  0  0
   26.7458  -21.1471  -14.1750 C   0  0  1  0  0  0  0  0  0  0  0  0
   27.6312  -20.3808  -13.1779 C   0  0  0  0  0  0  0  0  0  0  0  0
   27.0381  -20.3610  -11.8406 C   0  0  0  0  0  0  0  0  0  0  0  0
   26.2643  -19.3100  -11.4210 C   0  0  0  0  0  0  0  0  0  0  0  0
   25.7094  -19.2814  -10.1358 C   0  0  0  0  0  0  0  0  0  0  0  0
   25.9245  -20.3131   -9.2495 C   0  0  0  0  0  0  0  0  0  0  0  0
   26.7013  -21.3693   -9.6674 C   0  0  0  0  0  0  0  0  0  0  0  0
   27.2510  -21.3962  -10.9423 C   0  0  0  0  0  0  0  0  0  0  0  0
   25.3810  -20.6555  -14.2185 C   0  0  0  0  0  0  0  0  0  0  0  0
   25.1287  -19.5028  -14.6340 O   0  0  0  0  0  0  0  0  0  0  0  0
   24.3111  -21.4738  -13.7905 N   0  0  0  0  0  0  0  0  0  0  0  0
   22.9348  -20.9899  -13.6937 C   0  0  1  0  0  0  0  0  0  0  0  0
   22.0982  -22.1687  -13.3212 C   0  0  0  0  0  0  0  0  0  0  0  0
   20.6614  -21.9623  -13.1690 C   0  0  0  0  0  0  0  0  0  0  0  0
   19.7054  -22.3499  -14.0990 C   0  0  0  0  0  0  0  0  0  0  0  0
   18.5057  -21.9868  -13.6843 N   0  0  0  0  0  0  0  0  0  0  0  0
   18.6048  -21.3613  -12.4976 C   0  0  0  0  0  0  0  0  0  0  0  0
   17.6282  -20.8360  -11.6970 C   0  0  0  0  0  0  0  0  0  0  0  0
   17.9698  -20.2565  -10.5036 C   0  0  0  0  0  0  0  0  0  0  0  0
   19.3168  -20.2259  -10.1531 C   0  0  0  0  0  0  0  0  0  0  0  0
   20.3038  -20.7534  -10.9530 C   0  0  0  0  0  0  0  0  0  0  0  0
   19.9457  -21.3458  -12.1743 C   0  0  0  0  0  0  0  0  0  0  0  0
   22.7686  -19.8893  -12.7423 C   0  0  0  0  0  0  0  0  0  0  0  0
   22.0913  -18.8479  -13.0025 O   0  0  0  0  0  0  0  0  0  0  0  0
   23.3885  -20.0144  -11.4934 O   0  0  0  0  0  0  0  0  0  0  0  0
  2  1  1  6
  2  3  1  0
  3  4  1  0
  4  5  2  0
  6  2  1  0
  6  7  2  0
  8  4  1  0
  9  6  1  0
 10 11  1  1
 10  9  1  0
 11 12  1  0
 12 13  2  0
 12 17  1  0
 13 14  1  0
 14 15  2  0
 16 15  1  0
 17 16  2  0
 18 10  1  0
 19 18  2  0
 20 18  1  0
 21 20  1  0
 21 22  1  1
 22 23  1  0
 23 31  1  0
 24 23  2  0
 24 25  1  0
 25 26  1  0
 26 27  1  0
 27 28  2  0
 29 28  1  0
 30 29  2  0
 31 26  2  0
 31 30  1  0
 32 34  1  0
 32 21  1  0
 33 32  2  0
M  END
$$$$
