DFW.pdb
     RDKit          3D

 34 36  0  0  1  0  0  0  0  0999 V2000
   28.1301  -23.3298  -16.7599 N   0  0  0  0  0  0  0  0  0  0  0  0
   27.7028  -21.9627  -16.4268 C   0  0  1  0  0  0  0  0  0  0  0  0
   26.6913  -21.5405  -17.4825 C   0  0  0  0  0  0  0  0  0  0  0  0
   27.4775  -21.2645  -18.7005 C   0  0  0  0  0  0  0  0  0  0  0  0
   27.3396  -21.9943  -19.7075 O   0  0  0  0  0  0  0  0  0  0  0  0
   27.1222  -21.9811  -15.0748 C   0  0  0  0  0  0  0  0  0  0  0  0
   26.3716  -22.9384  -14.6922 O   0  0  0  0  0  0  0  0  0  0  0  0
   28.3787  -20.2011  -18.7766 O   0  0  0  0  0  0  0  0  0  0  0  0
   27.3793  -20.9432  -14.1479 N   0  0  0  0  0  0  0  0  0  0  0  0
   26.7753  -20.8707  -12.8134 C   0  0  1  0  0  0  0  0  0  0  0  0
   27.6434  -19.8742  -12.0268 C   0  0  0  0  0  0  0  0  0  0  0  0
   27.9340  -20.3647  -10.6793 C   0  0  0  0  0  0  0  0  0  0  0  0
   28.9510  -21.2550  -10.4502 C   0  0  0  0  0  0  0  0  0  0  0  0
   29.2202  -21.7384   -9.1640 C   0  0  0  0  0  0  0  0  0  0  0  0
   28.4684  -21.3321   -8.0842 C   0  0  0  0  0  0  0  0  0  0  0  0
   27.4464  -20.4389   -8.3108 C   0  0  0  0  0  0  0  0  0  0  0  0
   27.1806  -19.9605   -9.5871 C   0  0  0  0  0  0  0  0  0  0  0  0
   25.3659  -20.5245  -12.8086 C   0  0  0  0  0  0  0  0  0  0  0  0
   24.7099  -20.5259  -11.7435 O   0  0  0  0  0  0  0  0  0  0  0  0
   24.7093  -20.1791  -14.0115 N   0  0  0  0  0  0  0  0  0  0  0  0
   23.2839  -19.8590  -14.0710 C   0  0  1  0  0  0  0  0  0  0  0  0
   23.0752  -19.0954  -15.3365 C   0  0  0  0  0  0  0  0  0  0  0  0
   21.7139  -18.6864  -15.6676 C   0  0  0  0  0  0  0  0  0  0  0  0
   20.8000  -18.1736  -14.7560 C   0  0  0  0  0  0  0  0  0  0  0  0
   19.6499  -17.9389  -15.3605 N   0  0  0  0  0  0  0  0  0  0  0  0
   19.7425  -18.2736  -16.6600 C   0  0  0  0  0  0  0  0  0  0  0  0
   18.8119  -18.1852  -17.6585 C   0  0  0  0  0  0  0  0  0  0  0  0
   19.1444  -18.5718  -18.9300 C   0  0  0  0  0  0  0  0  0  0  0  0
   20.4340  -19.0462  -19.1535 C   0  0  0  0  0  0  0  0  0  0  0  0
   21.3749  -19.1366  -18.1541 C   0  0  0  0  0  0  0  0  0  0  0  0
   21.0267  -18.7382  -16.8537 C   0  0  0  0  0  0  0  0  0  0  0  0
   22.4176  -21.0376  -14.0040 C   0  0  0  0  0  0  0  0  0  0  0  0
   22.7037  -22.1379  -14.5684 O   0  0  0  0  0  0  0  0  0  0  0  0
   21.2279  -20.9256  -13.2750 O   0  0  0  0  0  0  0  0  0  0  0  0
  2  1  1  6
  2  3  1  0
  3  4  1  0
  4  5  2  0
  6  2  1  0
  6  7  2  0
  8  4  1  0
  9  6  1  0
 10 11  1  1
 10  9  1  0
 11 12  1  0
 12 13  2  0
 12 17  1  0
 13 14  1  0
 14 15  2  0
 16 15  1  0
 17 16  2  0
 18 10  1  0
 19 18  2  0
 20 18  1  0
 21 20  1  0
 21 22  1  6
 22 23  1  0
 23 31  1  0
 24 23  2  0
 24 25  1  0
 25 26  1  0
 26 27  1  0
 27 28  2  0
 29 28  1  0
 30 29  2  0
 31 26  2  0
 31 30  1  0
 32 34  1  0
 32 21  1  0
 33 32  2  0
M  END
$$$$
