DFW.pdb
     RDKit          3D

 34 36  0  0  1  0  0  0  0  0999 V2000
   27.9776  -22.7693  -17.0774 N   0  0  0  0  0  0  0  0  0  0  0  0
   27.7225  -21.4811  -16.4157 C   0  0  1  0  0  0  0  0  0  0  0  0
   26.8727  -20.6504  -17.3665 C   0  0  0  0  0  0  0  0  0  0  0  0
   27.7836  -20.2230  -18.4459 C   0  0  0  0  0  0  0  0  0  0  0  0
   27.5049  -20.4901  -19.6361 O   0  0  0  0  0  0  0  0  0  0  0  0
   27.0346  -21.7485  -15.1427 C   0  0  0  0  0  0  0  0  0  0  0  0
   26.1377  -22.6509  -15.0544 O   0  0  0  0  0  0  0  0  0  0  0  0
   28.9594  -19.5161  -18.1878 O   0  0  0  0  0  0  0  0  0  0  0  0
   27.3458  -21.0210  -13.9695 N   0  0  0  0  0  0  0  0  0  0  0  0
   26.5842  -21.1199  -12.7201 C   0  0  1  0  0  0  0  0  0  0  0  0
   27.5348  -20.6134  -11.6223 C   0  0  0  0  0  0  0  0  0  0  0  0
   26.8406  -20.4551  -10.3441 C   0  0  0  0  0  0  0  0  0  0  0  0
   26.1686  -19.3002  -10.0377 C   0  0  0  0  0  0  0  0  0  0  0  0
   25.5176  -19.1404   -8.8084 C   0  0  0  0  0  0  0  0  0  0  0  0
   25.5321  -20.1433   -7.8649 C   0  0  0  0  0  0  0  0  0  0  0  0
   26.2063  -21.3037   -8.1691 C   0  0  0  0  0  0  0  0  0  0  0  0
   26.8516  -21.4606   -9.3887 C   0  0  0  0  0  0  0  0  0  0  0  0
   25.3104  -20.4245  -12.7349 C   0  0  0  0  0  0  0  0  0  0  0  0
   25.2468  -19.2113  -13.0336 O   0  0  0  0  0  0  0  0  0  0  0  0
   24.1170  -21.1089  -12.4111 N   0  0  0  0  0  0  0  0  0  0  0  0
   22.7905  -20.5610  -12.6898 C   0  0  1  0  0  0  0  0  0  0  0  0
   22.7154  -20.3682  -14.1681 C   0  0  0  0  0  0  0  0  0  0  0  0
   21.4782  -19.8266  -14.7216 C   0  0  0  0  0  0  0  0  0  0  0  0
   21.0655  -18.5070  -14.5892 C   0  0  0  0  0  0  0  0  0  0  0  0
   19.8894  -18.3468  -15.1673 N   0  0  0  0  0  0  0  0  0  0  0  0
   19.4788  -19.5143  -15.6942 C   0  0  0  0  0  0  0  0  0  0  0  0
   18.3409  -19.8111  -16.3928 C   0  0  0  0  0  0  0  0  0  0  0  0
   18.1441  -21.0850  -16.8567 C   0  0  0  0  0  0  0  0  0  0  0  0
   19.1250  -22.0366  -16.5916 C   0  0  0  0  0  0  0  0  0  0  0  0
   20.2721  -21.7446  -15.8907 C   0  0  0  0  0  0  0  0  0  0  0  0
   20.4666  -20.4367  -15.4188 C   0  0  0  0  0  0  0  0  0  0  0  0
   21.6967  -21.4025  -12.2002 C   0  0  0  0  0  0  0  0  0  0  0  0
   21.7668  -22.6692  -12.1552 O   0  0  0  0  0  0  0  0  0  0  0  0
   20.5326  -20.7604  -11.7618 O   0  0  0  0  0  0  0  0  0  0  0  0
  2  1  1  6
  2  3  1  0
  3  4  1  0
  4  5  2  0
  6  2  1  0
  6  7  2  0
  8  4  1  0
  9  6  1  0
 10 11  1  1
 10  9  1  0
 11 12  1  0
 12 13  2  0
 12 17  1  0
 13 14  1  0
 14 15  2  0
 16 15  1  0
 17 16  2  0
 18 10  1  0
 19 18  2  0
 20 18  1  0
 21 20  1  0
 21 22  1  6
 22 23  1  0
 23 31  1  0
 24 23  2  0
 24 25  1  0
 25 26  1  0
 26 27  1  0
 27 28  2  0
 29 28  1  0
 30 29  2  0
 31 26  2  0
 31 30  1  0
 32 34  1  0
 32 21  1  0
 33 32  2  0
M  END
$$$$
