DFW.pdb
     RDKit          3D

 34 36  0  0  1  0  0  0  0  0999 V2000
   30.4996  -23.8736  -18.1114 N   0  0  0  0  0  0  0  0  0  0  0  0
   29.0600  -23.6699  -17.8908 C   0  0  1  0  0  0  0  0  0  0  0  0
   28.5197  -24.9443  -17.2585 C   0  0  0  0  0  0  0  0  0  0  0  0
   27.6010  -25.5261  -18.2561 C   0  0  0  0  0  0  0  0  0  0  0  0
   27.3844  -24.9199  -19.3291 O   0  0  0  0  0  0  0  0  0  0  0  0
   28.8921  -22.4991  -17.0154 C   0  0  0  0  0  0  0  0  0  0  0  0
   29.8989  -21.8325  -16.6050 O   0  0  0  0  0  0  0  0  0  0  0  0
   26.9587  -26.7482  -18.0491 O   0  0  0  0  0  0  0  0  0  0  0  0
   27.6102  -22.0653  -16.6022 N   0  0  0  0  0  0  0  0  0  0  0  0
   27.3718  -20.8478  -15.8200 C   0  0  1  0  0  0  0  0  0  0  0  0
   26.8203  -19.8205  -16.8229 C   0  0  0  0  0  0  0  0  0  0  0  0
   26.4582  -18.5670  -16.1609 C   0  0  0  0  0  0  0  0  0  0  0  0
   25.1712  -18.3215  -15.7575 C   0  0  0  0  0  0  0  0  0  0  0  0
   24.8192  -17.1158  -15.1387 C   0  0  0  0  0  0  0  0  0  0  0  0
   25.7594  -16.1349  -14.9149 C   0  0  0  0  0  0  0  0  0  0  0  0
   27.0521  -16.3780  -15.3193 C   0  0  0  0  0  0  0  0  0  0  0  0
   27.3996  -17.5742  -15.9329 C   0  0  0  0  0  0  0  0  0  0  0  0
   26.5128  -21.0330  -14.6650 C   0  0  0  0  0  0  0  0  0  0  0  0
   25.3986  -21.5904  -14.7786 O   0  0  0  0  0  0  0  0  0  0  0  0
   26.9224  -20.5851  -13.3886 N   0  0  0  0  0  0  0  0  0  0  0  0
   26.0973  -20.7438  -12.1922 C   0  0  1  0  0  0  0  0  0  0  0  0
   27.0401  -20.8404  -11.0389 C   0  0  0  0  0  0  0  0  0  0  0  0
   26.4736  -20.8261   -9.6939 C   0  0  0  0  0  0  0  0  0  0  0  0
   25.4089  -21.6151   -9.2775 C   0  0  0  0  0  0  0  0  0  0  0  0
   25.1129  -21.3386   -8.0209 N   0  0  0  0  0  0  0  0  0  0  0  0
   25.9400  -20.3841   -7.5582 C   0  0  0  0  0  0  0  0  0  0  0  0
   26.0096  -19.8062   -6.3205 C   0  0  0  0  0  0  0  0  0  0  0  0
   26.9632  -18.8551   -6.0699 C   0  0  0  0  0  0  0  0  0  0  0  0
   27.8322  -18.5121   -7.1020 C   0  0  0  0  0  0  0  0  0  0  0  0
   27.7684  -19.0902   -8.3486 C   0  0  0  0  0  0  0  0  0  0  0  0
   26.7885  -20.0642   -8.5976 C   0  0  0  0  0  0  0  0  0  0  0  0
   25.1266  -19.6636  -12.0051 C   0  0  0  0  0  0  0  0  0  0  0  0
   25.4183  -18.4382  -12.1611 O   0  0  0  0  0  0  0  0  0  0  0  0
   23.8224  -20.0212  -11.6433 O   0  0  0  0  0  0  0  0  0  0  0  0
  2  1  1  1
  2  3  1  0
  3  4  1  0
  4  5  2  0
  6  2  1  0
  6  7  2  0
  8  4  1  0
  9  6  1  0
 10 11  1  6
 10  9  1  0
 11 12  1  0
 12 13  2  0
 12 17  1  0
 13 14  1  0
 14 15  2  0
 16 15  1  0
 17 16  2  0
 18 10  1  0
 19 18  2  0
 20 18  1  0
 21 20  1  0
 21 22  1  1
 22 23  1  0
 23 31  1  0
 24 23  2  0
 24 25  1  0
 25 26  1  0
 26 27  1  0
 27 28  2  0
 29 28  1  0
 30 29  2  0
 31 26  2  0
 31 30  1  0
 32 34  1  0
 32 21  1  0
 33 32  2  0
M  END
$$$$
