DFW.pdb
     RDKit          3D

 34 36  0  0  1  0  0  0  0  0999 V2000
   24.1151  -18.7403  -17.1166 N   0  0  0  0  0  0  0  0  0  0  0  0
   24.7692  -19.7437  -16.2636 C   0  0  1  0  0  0  0  0  0  0  0  0
   26.2674  -19.6272  -16.5042 C   0  0  0  0  0  0  0  0  0  0  0  0
   26.5696  -20.5668  -17.6012 C   0  0  0  0  0  0  0  0  0  0  0  0
   25.6354  -21.1560  -18.1895 O   0  0  0  0  0  0  0  0  0  0  0  0
   24.4060  -19.4631  -14.8655 C   0  0  0  0  0  0  0  0  0  0  0  0
   24.6121  -18.3159  -14.3480 O   0  0  0  0  0  0  0  0  0  0  0  0
   27.8765  -20.8238  -18.0189 O   0  0  0  0  0  0  0  0  0  0  0  0
   23.8097  -20.4508  -14.0462 N   0  0  0  0  0  0  0  0  0  0  0  0
   23.5270  -20.2674  -12.6188 C   0  0  1  0  0  0  0  0  0  0  0  0
   22.1112  -20.8298  -12.4082 C   0  0  0  0  0  0  0  0  0  0  0  0
   21.6692  -20.6628  -11.0235 C   0  0  0  0  0  0  0  0  0  0  0  0
   21.1326  -19.4797  -10.5857 C   0  0  0  0  0  0  0  0  0  0  0  0
   20.7243  -19.3124   -9.2569 C   0  0  0  0  0  0  0  0  0  0  0  0
   20.8493  -20.3361   -8.3445 C   0  0  0  0  0  0  0  0  0  0  0  0
   21.3881  -21.5249   -8.7805 C   0  0  0  0  0  0  0  0  0  0  0  0
   21.7927  -21.6892  -10.0987 C   0  0  0  0  0  0  0  0  0  0  0  0
   24.5113  -20.8566  -11.7298 C   0  0  0  0  0  0  0  0  0  0  0  0
   24.8403  -22.0580  -11.8452 O   0  0  0  0  0  0  0  0  0  0  0  0
   25.1161  -20.0801  -10.7156 N   0  0  0  0  0  0  0  0  0  0  0  0
   25.9478  -20.6623   -9.6635 C   0  0  1  0  0  0  0  0  0  0  0  0
   27.0086  -19.6570   -9.3592 C   0  0  0  0  0  0  0  0  0  0  0  0
   28.0493  -20.0331   -8.4075 C   0  0  0  0  0  0  0  0  0  0  0  0
   29.0740  -20.9324   -8.6728 C   0  0  0  0  0  0  0  0  0  0  0  0
   29.8242  -21.0847   -7.5972 N   0  0  0  0  0  0  0  0  0  0  0  0
   29.3489  -20.3185   -6.5990 C   0  0  0  0  0  0  0  0  0  0  0  0
   29.8141  -20.1485   -5.3240 C   0  0  0  0  0  0  0  0  0  0  0  0
   29.1688  -19.2864   -4.4771 C   0  0  0  0  0  0  0  0  0  0  0  0
   28.0501  -18.6116   -4.9581 C   0  0  0  0  0  0  0  0  0  0  0  0
   27.5778  -18.7771   -6.2394 C   0  0  0  0  0  0  0  0  0  0  0  0
   28.2447  -19.6622   -7.1013 C   0  0  0  0  0  0  0  0  0  0  0  0
   25.1961  -21.0322   -8.4627 C   0  0  0  0  0  0  0  0  0  0  0  0
   24.2558  -20.3221   -7.9904 O   0  0  0  0  0  0  0  0  0  0  0  0
   25.5426  -22.2295   -7.8255 O   0  0  0  0  0  0  0  0  0  0  0  0
  2  1  1  6
  2  3  1  0
  3  4  1  0
  4  5  2  0
  6  2  1  0
  6  7  2  0
  8  4  1  0
  9  6  1  0
 10 11  1  1
 10  9  1  0
 11 12  1  0
 12 13  2  0
 12 17  1  0
 13 14  1  0
 14 15  2  0
 16 15  1  0
 17 16  2  0
 18 10  1  0
 19 18  2  0
 20 18  1  0
 21 20  1  0
 21 22  1  1
 22 23  1  0
 23 31  1  0
 24 23  2  0
 24 25  1  0
 25 26  1  0
 26 27  1  0
 27 28  2  0
 29 28  1  0
 30 29  2  0
 31 26  2  0
 31 30  1  0
 32 34  1  0
 32 21  1  0
 33 32  2  0
M  END
$$$$
