DFW.pdb
     RDKit          3D

 34 36  0  0  1  0  0  0  0  0999 V2000
   22.8144  -22.1352  -18.4425 N   0  0  0  0  0  0  0  0  0  0  0  0
   21.5651  -21.6616  -17.8283 C   0  0  1  0  0  0  0  0  0  0  0  0
   20.4216  -22.3817  -18.5281 C   0  0  0  0  0  0  0  0  0  0  0  0
   20.2026  -21.6500  -19.7908 C   0  0  0  0  0  0  0  0  0  0  0  0
   20.0276  -20.4112  -19.7685 O   0  0  0  0  0  0  0  0  0  0  0  0
   21.6179  -21.9663  -16.3896 C   0  0  0  0  0  0  0  0  0  0  0  0
   21.9916  -23.1115  -15.9711 O   0  0  0  0  0  0  0  0  0  0  0  0
   20.1889  -22.2946  -21.0289 O   0  0  0  0  0  0  0  0  0  0  0  0
   21.2632  -21.0005  -15.4180 N   0  0  0  0  0  0  0  0  0  0  0  0
   21.3620  -21.2216  -13.9715 C   0  0  1  0  0  0  0  0  0  0  0  0
   21.9029  -19.9029  -13.3938 C   0  0  0  0  0  0  0  0  0  0  0  0
   22.0837  -19.9876  -11.9444 C   0  0  0  0  0  0  0  0  0  0  0  0
   21.1755  -19.4324  -11.0805 C   0  0  0  0  0  0  0  0  0  0  0  0
   21.3551  -19.4979   -9.6935 C   0  0  0  0  0  0  0  0  0  0  0  0
   22.4546  -20.1253   -9.1516 C   0  0  0  0  0  0  0  0  0  0  0  0
   23.3686  -20.6831  -10.0161 C   0  0  0  0  0  0  0  0  0  0  0  0
   23.1891  -20.6172  -11.3915 C   0  0  0  0  0  0  0  0  0  0  0  0
   20.1273  -21.6539  -13.3430 C   0  0  0  0  0  0  0  0  0  0  0  0
   19.0548  -21.0453  -13.5531 O   0  0  0  0  0  0  0  0  0  0  0  0
   20.1166  -22.7734  -12.4804 N   0  0  0  0  0  0  0  0  0  0  0  0
   18.9292  -23.1850  -11.7332 C   0  0  1  0  0  0  0  0  0  0  0  0
   19.3362  -24.3604  -10.9080 C   0  0  0  0  0  0  0  0  0  0  0  0
   18.3415  -24.9380  -10.0096 C   0  0  0  0  0  0  0  0  0  0  0  0
   17.2154  -25.6377  -10.4239 C   0  0  0  0  0  0  0  0  0  0  0  0
   16.4996  -25.9942   -9.3734 N   0  0  0  0  0  0  0  0  0  0  0  0
   17.0969  -25.5624   -8.2482 C   0  0  0  0  0  0  0  0  0  0  0  0
   16.7244  -25.7162   -6.9412 C   0  0  0  0  0  0  0  0  0  0  0  0
   17.5135  -25.2005   -5.9471 C   0  0  0  0  0  0  0  0  0  0  0  0
   18.6770  -24.5311   -6.3163 C   0  0  0  0  0  0  0  0  0  0  0  0
   19.0580  -24.3740   -7.6287 C   0  0  0  0  0  0  0  0  0  0  0  0
   18.2442  -24.9055   -8.6417 C   0  0  0  0  0  0  0  0  0  0  0  0
   18.3604  -22.1181  -10.9073 C   0  0  0  0  0  0  0  0  0  0  0  0
   17.1216  -21.8420  -10.8927 O   0  0  0  0  0  0  0  0  0  0  0  0
   19.2395  -21.3857  -10.1008 O   0  0  0  0  0  0  0  0  0  0  0  0
  2  1  1  6
  2  3  1  0
  3  4  1  0
  4  5  2  0
  6  2  1  0
  6  7  2  0
  8  4  1  0
  9  6  1  0
 10 11  1  1
 10  9  1  0
 11 12  1  0
 12 13  2  0
 12 17  1  0
 13 14  1  0
 14 15  2  0
 16 15  1  0
 17 16  2  0
 18 10  1  0
 19 18  2  0
 20 18  1  0
 21 20  1  0
 21 22  1  1
 22 23  1  0
 23 31  1  0
 24 23  2  0
 24 25  1  0
 25 26  1  0
 26 27  1  0
 27 28  2  0
 29 28  1  0
 30 29  2  0
 31 26  2  0
 31 30  1  0
 32 34  1  0
 32 21  1  0
 33 32  2  0
M  END
$$$$
