IMD.pdb
     RDKit          3D

 25 24  0  0  1  0  0  0  0  0999 V2000
    8.0402  -12.0380   19.2470 C   0  0  0  0  0  0  0  0  0  0  0  0
    8.7217  -13.2506   19.7665 C   0  0  0  0  0  0  0  0  0  0  0  0
    7.7984  -14.3433   20.2067 C   0  0  2  0  0  0  0  0  0  0  0  0
    6.6171  -13.7284   20.9661 C   0  0  0  0  0  0  0  0  0  0  0  0
    8.4149  -15.4438   21.0185 C   0  0  2  0  0  0  0  0  0  0  0  0
    7.3503  -16.4817   21.1296 N   0  0  0  0  0  0  0  0  0  0  0  0
    8.9019  -15.0956   22.3454 C   0  0  0  0  0  0  0  0  0  0  0  0
   10.0306  -14.4898   22.5074 O   0  0  0  0  0  0  0  0  0  0  0  0
    7.0031  -11.5228   27.3677 C   0  0  0  0  0  0  0  0  0  0  0  0
    5.9302  -12.6314   26.4136 S   0  0  0  0  0  0  0  0  0  0  0  0
    6.9773  -13.4113   25.1148 C   0  0  0  0  0  0  0  0  0  0  0  0
    7.6880  -14.5722   25.7300 C   0  0  0  0  0  0  0  0  0  0  0  0
    8.8495  -15.0369   24.8590 C   0  0  2  0  0  0  0  0  0  0  0  0
    8.2222  -15.3646   23.5554 N   0  0  0  0  0  0  0  0  0  0  0  0
    9.6340  -16.1207   25.4147 C   0  0  0  0  0  0  0  0  0  0  0  0
   10.1011  -16.0822   26.5800 O   0  0  0  0  0  0  0  0  0  0  0  0
    9.9225  -17.2977   24.6729 N   0  0  0  0  0  0  0  0  0  0  0  0
   10.8049  -18.3391   25.2215 C   0  0  1  0  0  0  0  0  0  0  0  0
   10.4638  -19.6543   24.5782 C   0  0  0  0  0  0  0  0  0  0  0  0
    9.3389  -20.3664   25.1853 C   0  0  0  0  0  0  0  0  0  0  0  0
    8.8181  -19.9382   26.2453 O   0  0  0  0  0  0  0  0  0  0  0  0
   12.2184  -17.9698   25.0759 C   0  0  0  0  0  0  0  0  0  0  0  0
   13.1302  -18.4232   26.0164 O   0  0  0  0  0  0  0  0  0  0  0  0
    8.8129  -21.5190   24.6266 O   0  0  0  0  0  0  0  0  0  0  0  0
   12.6440  -17.2632   24.1419 O   0  0  0  0  0  0  0  0  0  0  0  0
  1  2  1  0
  2  3  1  0
  3  4  1  1
  3  5  1  0
  5  7  1  0
  5  6  1  1
  7  8  2  0
  9 10  1  0
 10 11  1  0
 11 12  1  0
 13 12  1  1
 14 13  1  0
 14  7  1  0
 15 13  1  0
 16 15  2  0
 17 15  1  0
 18 19  1  6
 18 17  1  0
 19 20  1  0
 20 21  2  0
 20 24  1  0
 22 23  1  0
 22 18  1  0
 25 22  2  0
M  END
$$$$
