IMD.pdb
     RDKit          3D

 25 24  0  0  1  0  0  0  0  0999 V2000
    7.6236  -11.6170   20.0188 C   0  0  0  0  0  0  0  0  0  0  0  0
    7.5944  -12.9155   20.7384 C   0  0  0  0  0  0  0  0  0  0  0  0
    8.4197  -13.9943   20.1100 C   0  0  2  0  0  0  0  0  0  0  0  0
    7.9122  -14.2513   18.6864 C   0  0  0  0  0  0  0  0  0  0  0  0
    8.5063  -15.2869   20.8663 C   0  0  2  0  0  0  0  0  0  0  0  0
    7.1579  -15.9069   20.7227 N   0  0  0  0  0  0  0  0  0  0  0  0
    8.8631  -15.2078   22.2753 C   0  0  0  0  0  0  0  0  0  0  0  0
   10.0640  -14.9125   22.6469 O   0  0  0  0  0  0  0  0  0  0  0  0
    7.5065  -11.6640   27.5387 C   0  0  0  0  0  0  0  0  0  0  0  0
    6.2565  -12.4698   26.5001 S   0  0  0  0  0  0  0  0  0  0  0  0
    7.1550  -13.3285   25.1410 C   0  0  0  0  0  0  0  0  0  0  0  0
    7.3379  -14.7567   25.5383 C   0  0  0  0  0  0  0  0  0  0  0  0
    8.4662  -15.4120   24.7502 C   0  0  2  0  0  0  0  0  0  0  0  0
    7.9736  -15.4307   23.3512 N   0  0  0  0  0  0  0  0  0  0  0  0
    8.8770  -16.7126   25.2386 C   0  0  0  0  0  0  0  0  0  0  0  0
    8.0616  -17.6516   25.4144 O   0  0  0  0  0  0  0  0  0  0  0  0
   10.2323  -17.0061   25.5483 N   0  0  0  0  0  0  0  0  0  0  0  0
   10.6274  -18.3429   26.0184 C   0  0  1  0  0  0  0  0  0  0  0  0
   11.6741  -18.8950   25.0914 C   0  0  0  0  0  0  0  0  0  0  0  0
   12.9120  -18.1179   25.0234 C   0  0  0  0  0  0  0  0  0  0  0  0
   13.0376  -17.0689   25.7033 O   0  0  0  0  0  0  0  0  0  0  0  0
   11.0540  -18.3085   27.4228 C   0  0  0  0  0  0  0  0  0  0  0  0
   11.3831  -19.4985   28.0529 O   0  0  0  0  0  0  0  0  0  0  0  0
   13.9749  -18.4999   24.2225 O   0  0  0  0  0  0  0  0  0  0  0  0
   11.1361  -17.2548   28.0831 O   0  0  0  0  0  0  0  0  0  0  0  0
  1  2  1  0
  2  3  1  0
  3  4  1  6
  3  5  1  0
  5  7  1  0
  5  6  1  1
  7  8  2  0
  9 10  1  0
 10 11  1  0
 11 12  1  0
 13 12  1  1
 14 13  1  0
 14  7  1  0
 15 13  1  0
 16 15  2  0
 17 15  1  0
 18 19  1  6
 18 17  1  0
 19 20  1  0
 20 21  2  0
 20 24  1  0
 22 23  1  0
 22 18  1  0
 25 22  2  0
M  END
$$$$
