IMD.pdb
     RDKit          3D

 25 24  0  0  1  0  0  0  0  0999 V2000
   10.2911  -13.8696   29.6089 C   0  0  0  0  0  0  0  0  0  0  0  0
   10.1813  -14.8131   28.4677 C   0  0  0  0  0  0  0  0  0  0  0  0
    9.6344  -16.1600   28.8238 C   0  0  2  0  0  0  0  0  0  0  0  0
   10.5922  -16.8493   29.8024 C   0  0  0  0  0  0  0  0  0  0  0  0
    9.3268  -17.0744   27.6751 C   0  0  2  0  0  0  0  0  0  0  0  0
   10.6256  -17.2475   26.9637 N   0  0  0  0  0  0  0  0  0  0  0  0
    8.3059  -16.6364   26.7343 C   0  0  0  0  0  0  0  0  0  0  0  0
    7.1566  -17.2217   26.6721 O   0  0  0  0  0  0  0  0  0  0  0  0
    7.6514  -11.2124   26.6263 C   0  0  0  0  0  0  0  0  0  0  0  0
    6.2267  -11.9611   25.7898 S   0  0  0  0  0  0  0  0  0  0  0  0
    6.4889  -13.7840   25.8030 C   0  0  0  0  0  0  0  0  0  0  0  0
    7.0633  -14.1776   24.4816 C   0  0  0  0  0  0  0  0  0  0  0  0
    7.7003  -15.5612   24.5431 C   0  0  2  0  0  0  0  0  0  0  0  0
    8.4479  -15.5640   25.8243 N   0  0  0  0  0  0  0  0  0  0  0  0
    8.5129  -15.9109   23.3958 C   0  0  0  0  0  0  0  0  0  0  0  0
    8.0932  -15.7994   22.2172 O   0  0  0  0  0  0  0  0  0  0  0  0
    9.8389  -16.4017   23.5348 N   0  0  0  0  0  0  0  0  0  0  0  0
   10.5101  -17.0906   22.4216 C   0  0  1  0  0  0  0  0  0  0  0  0
   11.3252  -16.0899   21.6508 C   0  0  0  0  0  0  0  0  0  0  0  0
   10.7726  -15.7130   20.3496 C   0  0  0  0  0  0  0  0  0  0  0  0
    9.6714  -16.1842   19.9703 O   0  0  0  0  0  0  0  0  0  0  0  0
   11.2951  -18.2353   22.9001 C   0  0  0  0  0  0  0  0  0  0  0  0
   11.8283  -19.1171   21.9730 O   0  0  0  0  0  0  0  0  0  0  0  0
   11.4282  -14.8382   19.4997 O   0  0  0  0  0  0  0  0  0  0  0  0
   11.5084  -18.4566   24.1078 O   0  0  0  0  0  0  0  0  0  0  0  0
  1  2  1  0
  2  3  1  0
  3  4  1  1
  3  5  1  0
  5  7  1  0
  5  6  1  6
  7  8  2  0
  9 10  1  0
 10 11  1  0
 11 12  1  0
 13 12  1  6
 14 13  1  0
 14  7  1  0
 15 13  1  0
 16 15  2  0
 17 15  1  0
 18 19  1  1
 18 17  1  0
 19 20  1  0
 20 21  2  0
 20 24  1  0
 22 23  1  0
 22 18  1  0
 25 22  2  0
M  END
$$$$
