IMD.pdb
     RDKit          3D

 25 24  0  0  1  0  0  0  0  0999 V2000
    7.0466  -12.8418   17.5189 C   0  0  0  0  0  0  0  0  0  0  0  0
    7.7342  -13.9426   18.2401 C   0  0  0  0  0  0  0  0  0  0  0  0
    7.9272  -13.7023   19.7047 C   0  0  2  0  0  0  0  0  0  0  0  0
    8.7747  -12.4398   19.9000 C   0  0  0  0  0  0  0  0  0  0  0  0
    8.5096  -14.8394   20.4910 C   0  0  2  0  0  0  0  0  0  0  0  0
    7.5124  -15.9411   20.3689 N   0  0  0  0  0  0  0  0  0  0  0  0
    8.8004  -14.5933   21.8960 C   0  0  0  0  0  0  0  0  0  0  0  0
    9.8673  -13.9631   22.2591 O   0  0  0  0  0  0  0  0  0  0  0  0
    7.3821  -11.4349   27.8395 C   0  0  0  0  0  0  0  0  0  0  0  0
    6.3415  -12.4228   26.7297 S   0  0  0  0  0  0  0  0  0  0  0  0
    7.1863  -14.0424   26.4959 C   0  0  0  0  0  0  0  0  0  0  0  0
    7.0028  -14.4580   25.0730 C   0  0  0  0  0  0  0  0  0  0  0  0
    8.3433  -14.6330   24.3685 C   0  0  2  0  0  0  0  0  0  0  0  0
    7.9814  -14.9943   22.9761 N   0  0  0  0  0  0  0  0  0  0  0  0
    9.2451  -15.5763   24.9976 C   0  0  0  0  0  0  0  0  0  0  0  0
    9.5711  -15.4885   26.2074 O   0  0  0  0  0  0  0  0  0  0  0  0
    9.8165  -16.6625   24.2818 N   0  0  0  0  0  0  0  0  0  0  0  0
   10.7867  -17.5632   24.9234 C   0  0  1  0  0  0  0  0  0  0  0  0
   10.3407  -18.9841   24.7188 C   0  0  0  0  0  0  0  0  0  0  0  0
    9.2955  -19.4423   25.6345 C   0  0  0  0  0  0  0  0  0  0  0  0
    8.4898  -20.3374   25.2767 O   0  0  0  0  0  0  0  0  0  0  0  0
   12.1499  -17.3065   24.4425 C   0  0  0  0  0  0  0  0  0  0  0  0
   13.2228  -17.6951   25.2294 O   0  0  0  0  0  0  0  0  0  0  0  0
    9.1549  -18.9181   26.9084 O   0  0  0  0  0  0  0  0  0  0  0  0
   12.3938  -16.7521   23.3534 O   0  0  0  0  0  0  0  0  0  0  0  0
  1  2  1  0
  2  3  1  0
  3  4  1  6
  3  5  1  0
  5  7  1  0
  5  6  1  1
  7  8  2  0
  9 10  1  0
 10 11  1  0
 11 12  1  0
 13 12  1  1
 14 13  1  0
 14  7  1  0
 15 13  1  0
 16 15  2  0
 17 15  1  0
 18 19  1  6
 18 17  1  0
 19 20  1  0
 20 21  2  0
 20 24  1  0
 22 23  1  0
 22 18  1  0
 25 22  2  0
M  END
$$$$
