IMD.pdb
     RDKit          3D

 25 24  0  0  1  0  0  0  0  0999 V2000
    8.1553  -16.0476   17.0772 C   0  0  0  0  0  0  0  0  0  0  0  0
    7.6228  -14.9463   17.9187 C   0  0  0  0  0  0  0  0  0  0  0  0
    8.2209  -14.8641   19.2882 C   0  0  2  0  0  0  0  0  0  0  0  0
    8.2196  -16.2598   19.9224 C   0  0  0  0  0  0  0  0  0  0  0  0
    7.5961  -13.8729   20.2250 C   0  0  2  0  0  0  0  0  0  0  0  0
    7.7339  -12.5564   19.5389 N   0  0  0  0  0  0  0  0  0  0  0  0
    8.1526  -13.7879   21.5675 C   0  0  0  0  0  0  0  0  0  0  0  0
    9.3346  -13.3109   21.7740 O   0  0  0  0  0  0  0  0  0  0  0  0
    6.4226  -12.0077   27.7375 C   0  0  0  0  0  0  0  0  0  0  0  0
    6.8904  -11.5045   26.0587 S   0  0  0  0  0  0  0  0  0  0  0  0
    6.2114  -12.7702   24.9061 C   0  0  0  0  0  0  0  0  0  0  0  0
    7.0133  -14.0200   25.0681 C   0  0  0  0  0  0  0  0  0  0  0  0
    8.1602  -14.0775   24.0655 C   0  0  2  0  0  0  0  0  0  0  0  0
    7.4896  -14.1955   22.7477 N   0  0  0  0  0  0  0  0  0  0  0  0
    9.1377  -15.1173   24.3149 C   0  0  0  0  0  0  0  0  0  0  0  0
    9.6842  -15.2698   25.4354 O   0  0  0  0  0  0  0  0  0  0  0  0
    9.5377  -16.0317   23.3037 N   0  0  0  0  0  0  0  0  0  0  0  0
   10.4914  -17.1128   23.5971 C   0  0  1  0  0  0  0  0  0  0  0  0
    9.9151  -17.9915   24.6721 C   0  0  0  0  0  0  0  0  0  0  0  0
   10.7924  -18.2199   25.8205 C   0  0  0  0  0  0  0  0  0  0  0  0
   11.9437  -17.7176   25.8459 O   0  0  0  0  0  0  0  0  0  0  0  0
   10.8550  -17.8468   22.3786 C   0  0  0  0  0  0  0  0  0  0  0  0
   10.0279  -18.8688   21.9396 O   0  0  0  0  0  0  0  0  0  0  0  0
   10.3969  -18.9842   26.9053 O   0  0  0  0  0  0  0  0  0  0  0  0
   11.8782  -17.5957   21.7132 O   0  0  0  0  0  0  0  0  0  0  0  0
  1  2  1  0
  2  3  1  0
  3  4  1  1
  3  5  1  0
  5  7  1  0
  5  6  1  6
  7  8  2  0
  9 10  1  0
 10 11  1  0
 11 12  1  0
 13 12  1  1
 14 13  1  0
 14  7  1  0
 15 13  1  0
 16 15  2  0
 17 15  1  0
 18 19  1  1
 18 17  1  0
 19 20  1  0
 20 21  2  0
 20 24  1  0
 22 23  1  0
 22 18  1  0
 25 22  2  0
M  END
$$$$
