IMD.pdb
     RDKit          3D

 25 24  0  0  1  0  0  0  0  0999 V2000
    8.0866  -18.3685   17.7749 C   0  0  0  0  0  0  0  0  0  0  0  0
    7.1824  -17.8440   18.8294 C   0  0  0  0  0  0  0  0  0  0  0  0
    7.8828  -17.2496   20.0110 C   0  0  2  0  0  0  0  0  0  0  0  0
    7.7000  -18.1729   21.2212 C   0  0  0  0  0  0  0  0  0  0  0  0
    7.4966  -15.8458   20.3722 C   0  0  2  0  0  0  0  0  0  0  0  0
    7.8916  -15.0233   19.1930 N   0  0  0  0  0  0  0  0  0  0  0  0
    8.0850  -15.2865   21.5805 C   0  0  0  0  0  0  0  0  0  0  0  0
    9.3523  -15.0534   21.6628 O   0  0  0  0  0  0  0  0  0  0  0  0
    6.9016  -11.3621   28.2756 C   0  0  0  0  0  0  0  0  0  0  0  0
    6.1951  -12.1103   26.7817 S   0  0  0  0  0  0  0  0  0  0  0  0
    7.5337  -13.0919   25.9841 C   0  0  0  0  0  0  0  0  0  0  0  0
    6.9966  -13.6547   24.7090 C   0  0  0  0  0  0  0  0  0  0  0  0
    8.0749  -14.4054   23.9359 C   0  0  2  0  0  0  0  0  0  0  0  0
    7.3669  -14.9451   22.7494 N   0  0  0  0  0  0  0  0  0  0  0  0
    8.7828  -15.4137   24.6982 C   0  0  0  0  0  0  0  0  0  0  0  0
    8.2487  -16.5003   25.0322 O   0  0  0  0  0  0  0  0  0  0  0  0
   10.1293  -15.2343   25.1145 N   0  0  0  0  0  0  0  0  0  0  0  0
   10.8378  -16.2893   25.8556 C   0  0  1  0  0  0  0  0  0  0  0  0
   12.3101  -16.1776   25.5730 C   0  0  0  0  0  0  0  0  0  0  0  0
   12.7679  -16.8971   24.3840 C   0  0  0  0  0  0  0  0  0  0  0  0
   11.9532  -17.5579   23.6927 O   0  0  0  0  0  0  0  0  0  0  0  0
   10.5152  -16.2422   27.2872 C   0  0  0  0  0  0  0  0  0  0  0  0
    9.7328  -15.2023   27.7644 O   0  0  0  0  0  0  0  0  0  0  0  0
   14.0922  -16.8789   23.9803 O   0  0  0  0  0  0  0  0  0  0  0  0
   10.9125  -17.0970   28.1023 O   0  0  0  0  0  0  0  0  0  0  0  0
  1  2  1  0
  2  3  1  0
  3  4  1  1
  3  5  1  0
  5  7  1  0
  5  6  1  6
  7  8  2  0
  9 10  1  0
 10 11  1  0
 11 12  1  0
 13 12  1  1
 14 13  1  0
 14  7  1  0
 15 13  1  0
 16 15  2  0
 17 15  1  0
 18 19  1  1
 18 17  1  0
 19 20  1  0
 20 21  2  0
 20 24  1  0
 22 23  1  0
 22 18  1  0
 25 22  2  0
M  END
$$$$
