IMD.pdb
     RDKit          3D

 25 24  0  0  1  0  0  0  0  0999 V2000
    7.0001  -12.7759   18.4376 C   0  0  0  0  0  0  0  0  0  0  0  0
    7.5923  -13.9498   19.1275 C   0  0  0  0  0  0  0  0  0  0  0  0
    8.0047  -13.6969   20.5438 C   0  0  2  0  0  0  0  0  0  0  0  0
    9.0014  -12.5326   20.5774 C   0  0  0  0  0  0  0  0  0  0  0  0
    8.5617  -14.8724   21.2910 C   0  0  2  0  0  0  0  0  0  0  0  0
    7.5483  -15.9524   21.1184 N   0  0  0  0  0  0  0  0  0  0  0  0
    8.8434  -14.6848   22.7068 C   0  0  0  0  0  0  0  0  0  0  0  0
    9.9345  -14.1199   23.1038 O   0  0  0  0  0  0  0  0  0  0  0  0
    7.6653  -11.6842   27.6623 C   0  0  0  0  0  0  0  0  0  0  0  0
    6.1505  -12.4063   26.9739 S   0  0  0  0  0  0  0  0  0  0  0  0
    6.6439  -13.3933   25.4994 C   0  0  0  0  0  0  0  0  0  0  0  0
    7.2393  -14.6760   25.9802 C   0  0  0  0  0  0  0  0  0  0  0  0
    8.4705  -15.0562   25.1659 C   0  0  2  0  0  0  0  0  0  0  0  0
    7.9898  -15.0780   23.7628 N   0  0  0  0  0  0  0  0  0  0  0  0
    9.1188  -16.2850   25.5767 C   0  0  0  0  0  0  0  0  0  0  0  0
    9.5383  -16.4635   26.7471 O   0  0  0  0  0  0  0  0  0  0  0  0
    9.3189  -17.3668   24.6777 N   0  0  0  0  0  0  0  0  0  0  0  0
   10.0844  -18.5554   25.0844 C   0  0  1  0  0  0  0  0  0  0  0  0
   10.6327  -19.2251   23.8553 C   0  0  0  0  0  0  0  0  0  0  0  0
   11.4340  -20.4228   24.1089 C   0  0  0  0  0  0  0  0  0  0  0  0
   10.9224  -21.5634   23.9839 O   0  0  0  0  0  0  0  0  0  0  0  0
   11.1177  -18.2115   26.0692 C   0  0  0  0  0  0  0  0  0  0  0  0
   11.9934  -17.1745   25.7880 O   0  0  0  0  0  0  0  0  0  0  0  0
   12.7633  -20.3489   24.4894 O   0  0  0  0  0  0  0  0  0  0  0  0
   11.2487  -18.8097   27.1545 O   0  0  0  0  0  0  0  0  0  0  0  0
  1  2  1  0
  2  3  1  0
  3  4  1  6
  3  5  1  0
  5  7  1  0
  5  6  1  1
  7  8  2  0
  9 10  1  0
 10 11  1  0
 11 12  1  0
 13 12  1  1
 14 13  1  0
 14  7  1  0
 15 13  1  0
 16 15  2  0
 17 15  1  0
 18 19  1  6
 18 17  1  0
 19 20  1  0
 20 21  2  0
 20 24  1  0
 22 23  1  0
 22 18  1  0
 25 22  2  0
M  END
$$$$
