IMD.pdb
     RDKit          3D

 25 24  0  0  1  0  0  0  0  0999 V2000
    6.9168  -16.6745   17.3109 C   0  0  0  0  0  0  0  0  0  0  0  0
    6.8014  -15.4007   18.0650 C   0  0  0  0  0  0  0  0  0  0  0  0
    7.5908  -15.3558   19.3358 C   0  0  2  0  0  0  0  0  0  0  0  0
    7.3315  -16.6382   20.1348 C   0  0  0  0  0  0  0  0  0  0  0  0
    7.3743  -14.1542   20.2074 C   0  0  2  0  0  0  0  0  0  0  0  0
    7.8119  -12.9947   19.3785 N   0  0  0  0  0  0  0  0  0  0  0  0
    8.0657  -14.1313   21.4882 C   0  0  0  0  0  0  0  0  0  0  0  0
    9.3528  -14.0519   21.5536 O   0  0  0  0  0  0  0  0  0  0  0  0
    6.1547  -11.1533   26.4965 C   0  0  0  0  0  0  0  0  0  0  0  0
    6.9017  -12.4739   27.4906 S   0  0  0  0  0  0  0  0  0  0  0  0
    7.9875  -13.4481   26.3666 C   0  0  0  0  0  0  0  0  0  0  0  0
    7.3647  -13.4490   25.0089 C   0  0  0  0  0  0  0  0  0  0  0  0
    8.2414  -14.1770   23.9964 C   0  0  2  0  0  0  0  0  0  0  0  0
    7.4344  -14.1860   22.7519 N   0  0  0  0  0  0  0  0  0  0  0  0
    8.6873  -15.4923   24.4089 C   0  0  0  0  0  0  0  0  0  0  0  0
    7.9056  -16.4725   24.4855 O   0  0  0  0  0  0  0  0  0  0  0  0
   10.0409  -15.7543   24.7519 N   0  0  0  0  0  0  0  0  0  0  0  0
   10.4741  -17.1058   25.1394 C   0  0  1  0  0  0  0  0  0  0  0  0
   11.9511  -17.2335   24.8903 C   0  0  0  0  0  0  0  0  0  0  0  0
   12.3310  -17.3788   23.4848 C   0  0  0  0  0  0  0  0  0  0  0  0
   11.4491  -17.5500   22.6064 O   0  0  0  0  0  0  0  0  0  0  0  0
   10.0890  -17.4119   26.5227 C   0  0  0  0  0  0  0  0  0  0  0  0
   10.0294  -16.3798   27.4461 O   0  0  0  0  0  0  0  0  0  0  0  0
   13.6524  -17.3344   23.0737 O   0  0  0  0  0  0  0  0  0  0  0  0
    9.8107  -18.5623   26.9125 O   0  0  0  0  0  0  0  0  0  0  0  0
  1  2  1  0
  2  3  1  0
  3  4  1  1
  3  5  1  0
  5  7  1  0
  5  6  1  6
  7  8  2  0
  9 10  1  0
 10 11  1  0
 11 12  1  0
 13 12  1  1
 14 13  1  0
 14  7  1  0
 15 13  1  0
 16 15  2  0
 17 15  1  0
 18 19  1  1
 18 17  1  0
 19 20  1  0
 20 21  2  0
 20 24  1  0
 22 23  1  0
 22 18  1  0
 25 22  2  0
M  END
$$$$
