IMD.pdb
     RDKit          3D

 25 24  0  0  1  0  0  0  0  0999 V2000
    7.8285  -11.7520   19.3996 C   0  0  0  0  0  0  0  0  0  0  0  0
    7.7917  -12.9941   20.2125 C   0  0  0  0  0  0  0  0  0  0  0  0
    8.6108  -14.1208   19.6652 C   0  0  2  0  0  0  0  0  0  0  0  0
    8.1292  -14.4508   18.2477 C   0  0  0  0  0  0  0  0  0  0  0  0
    8.6583  -15.3691   20.4959 C   0  0  2  0  0  0  0  0  0  0  0  0
    7.2967  -15.9640   20.3731 N   0  0  0  0  0  0  0  0  0  0  0  0
    9.0029  -15.2168   21.9019 C   0  0  0  0  0  0  0  0  0  0  0  0
   10.2158  -14.9736   22.2721 O   0  0  0  0  0  0  0  0  0  0  0  0
    5.3187  -12.5145   26.6199 C   0  0  0  0  0  0  0  0  0  0  0  0
    7.0788  -12.0916   26.7361 S   0  0  0  0  0  0  0  0  0  0  0  0
    8.0289  -13.6062   26.2946 C   0  0  0  0  0  0  0  0  0  0  0  0
    7.6282  -14.0172   24.9156 C   0  0  0  0  0  0  0  0  0  0  0  0
    8.5457  -15.1066   24.3724 C   0  0  2  0  0  0  0  0  0  0  0  0
    8.0882  -15.3087   22.9759 N   0  0  0  0  0  0  0  0  0  0  0  0
    8.5768  -16.3252   25.1553 C   0  0  0  0  0  0  0  0  0  0  0  0
    7.7072  -17.2233   25.0339 O   0  0  0  0  0  0  0  0  0  0  0  0
    9.5974  -16.5796   26.1105 N   0  0  0  0  0  0  0  0  0  0  0  0
   10.1477  -17.9326   26.2860 C   0  0  1  0  0  0  0  0  0  0  0  0
   10.6075  -18.4478   24.9507 C   0  0  0  0  0  0  0  0  0  0  0  0
   11.2611  -19.7564   24.9844 C   0  0  0  0  0  0  0  0  0  0  0  0
   12.5017  -19.8477   24.8082 O   0  0  0  0  0  0  0  0  0  0  0  0
   11.1998  -17.9505   27.3099 C   0  0  0  0  0  0  0  0  0  0  0  0
   11.5358  -16.7661   27.9469 O   0  0  0  0  0  0  0  0  0  0  0  0
   10.5525  -20.9248   25.2078 O   0  0  0  0  0  0  0  0  0  0  0  0
   11.8116  -18.9852   27.6384 O   0  0  0  0  0  0  0  0  0  0  0  0
  1  2  1  0
  2  3  1  0
  3  4  1  6
  3  5  1  0
  5  7  1  0
  5  6  1  1
  7  8  2  0
  9 10  1  0
 10 11  1  0
 11 12  1  0
 13 12  1  1
 14 13  1  0
 14  7  1  0
 15 13  1  0
 16 15  2  0
 17 15  1  0
 18 19  1  6
 18 17  1  0
 19 20  1  0
 20 21  2  0
 20 24  1  0
 22 23  1  0
 22 18  1  0
 25 22  2  0
M  END
$$$$
