IMD.pdb
     RDKit          3D

 25 24  0  0  1  0  0  0  0  0999 V2000
    7.0383  -12.4496   18.2410 C   0  0  0  0  0  0  0  0  0  0  0  0
    7.4490  -13.7442   18.8411 C   0  0  0  0  0  0  0  0  0  0  0  0
    7.9328  -13.6497   20.2543 C   0  0  2  0  0  0  0  0  0  0  0  0
    9.0314  -12.5838   20.3398 C   0  0  0  0  0  0  0  0  0  0  0  0
    8.4073  -14.9286   20.8784 C   0  0  2  0  0  0  0  0  0  0  0  0
    7.2981  -15.8995   20.6552 N   0  0  0  0  0  0  0  0  0  0  0  0
    8.7485  -14.8891   22.2930 C   0  0  0  0  0  0  0  0  0  0  0  0
    9.8270  -14.3117   22.7063 O   0  0  0  0  0  0  0  0  0  0  0  0
    6.0370  -11.0931   26.6911 C   0  0  0  0  0  0  0  0  0  0  0  0
    6.3694  -12.8566   26.9557 S   0  0  0  0  0  0  0  0  0  0  0  0
    7.0204  -13.5279   25.3691 C   0  0  0  0  0  0  0  0  0  0  0  0
    7.2763  -14.9876   25.5556 C   0  0  0  0  0  0  0  0  0  0  0  0
    8.4692  -15.4522   24.7279 C   0  0  2  0  0  0  0  0  0  0  0  0
    7.9698  -15.4495   23.3312 N   0  0  0  0  0  0  0  0  0  0  0  0
    9.0407  -16.7188   25.1379 C   0  0  0  0  0  0  0  0  0  0  0  0
    8.6438  -17.3354   26.1575 O   0  0  0  0  0  0  0  0  0  0  0  0
   10.0877  -17.3430   24.4079 N   0  0  0  0  0  0  0  0  0  0  0  0
   10.7995  -18.5083   24.9550 C   0  0  1  0  0  0  0  0  0  0  0  0
   11.4065  -19.2848   23.8198 C   0  0  0  0  0  0  0  0  0  0  0  0
   10.5494  -19.4318   22.6431 C   0  0  0  0  0  0  0  0  0  0  0  0
    9.3606  -19.8175   22.7715 O   0  0  0  0  0  0  0  0  0  0  0  0
   11.7782  -18.1047   25.9723 C   0  0  0  0  0  0  0  0  0  0  0  0
   12.4882  -19.0859   26.6463 O   0  0  0  0  0  0  0  0  0  0  0  0
   11.0049  -19.1568   21.3647 O   0  0  0  0  0  0  0  0  0  0  0  0
   12.0051  -16.9144   26.2632 O   0  0  0  0  0  0  0  0  0  0  0  0
  1  2  1  0
  2  3  1  0
  3  4  1  6
  3  5  1  0
  5  7  1  0
  5  6  1  1
  7  8  2  0
  9 10  1  0
 10 11  1  0
 11 12  1  0
 13 12  1  1
 14 13  1  0
 14  7  1  0
 15 13  1  0
 16 15  2  0
 17 15  1  0
 18 19  1  6
 18 17  1  0
 19 20  1  0
 20 21  2  0
 20 24  1  0
 22 23  1  0
 22 18  1  0
 25 22  2  0
M  END
$$$$
