IMD.pdb
     RDKit          3D

 25 24  0  0  1  0  0  0  0  0999 V2000
    7.4627  -11.2422   26.9661 C   0  0  0  0  0  0  0  0  0  0  0  0
    7.7600  -12.6949   26.8882 C   0  0  0  0  0  0  0  0  0  0  0  0
    7.0098  -13.4276   25.8203 C   0  0  2  0  0  0  0  0  0  0  0  0
    5.5045  -13.2647   26.0609 C   0  0  0  0  0  0  0  0  0  0  0  0
    7.3493  -14.8788   25.6498 C   0  0  2  0  0  0  0  0  0  0  0  0
    8.7381  -15.0127   26.1755 N   0  0  0  0  0  0  0  0  0  0  0  0
    7.2801  -15.4216   24.3009 C   0  0  0  0  0  0  0  0  0  0  0  0
    6.2456  -16.0795   23.8955 O   0  0  0  0  0  0  0  0  0  0  0  0
    8.8802  -11.8233   20.0724 C   0  0  0  0  0  0  0  0  0  0  0  0
    7.3042  -12.6435   19.7065 S   0  0  0  0  0  0  0  0  0  0  0  0
    7.0648  -13.9485   20.9838 C   0  0  0  0  0  0  0  0  0  0  0  0
    8.2830  -14.8128   20.9951 C   0  0  0  0  0  0  0  0  0  0  0  0
    8.1470  -15.9507   22.0003 C   0  0  2  0  0  0  0  0  0  0  0  0
    8.2913  -15.2920   23.3215 N   0  0  0  0  0  0  0  0  0  0  0  0
    9.0621  -17.0557   21.7993 C   0  0  0  0  0  0  0  0  0  0  0  0
    9.1702  -17.6452   20.6955 O   0  0  0  0  0  0  0  0  0  0  0  0
    9.8967  -17.5403   22.8420 N   0  0  0  0  0  0  0  0  0  0  0  0
   11.3136  -17.8485   22.5941 C   0  0  1  0  0  0  0  0  0  0  0  0
   11.9418  -16.6948   21.8632 C   0  0  0  0  0  0  0  0  0  0  0  0
   13.3529  -16.8744   21.5205 C   0  0  0  0  0  0  0  0  0  0  0  0
   13.9729  -17.8952   21.9105 O   0  0  0  0  0  0  0  0  0  0  0  0
   12.0086  -18.1955   23.8400 C   0  0  0  0  0  0  0  0  0  0  0  0
   11.3999  -17.9044   25.0508 O   0  0  0  0  0  0  0  0  0  0  0  0
   14.0489  -15.9444   20.7669 O   0  0  0  0  0  0  0  0  0  0  0  0
   13.1277  -18.7431   23.8646 O   0  0  0  0  0  0  0  0  0  0  0  0
  1  2  1  0
  2  3  1  0
  3  4  1  1
  3  5  1  0
  5  7  1  0
  5  6  1  6
  7  8  2  0
  9 10  1  0
 10 11  1  0
 11 12  1  0
 13 12  1  6
 14 13  1  0
 14  7  1  0
 15 13  1  0
 16 15  2  0
 17 15  1  0
 18 19  1  1
 18 17  1  0
 19 20  1  0
 20 21  2  0
 20 24  1  0
 22 23  1  0
 22 18  1  0
 25 22  2  0
M  END
$$$$
