CTI.pdb
     RDKit          3D

 22 21  0  0  1  0  0  0  0  0999 V2000
   28.6411  -21.0774  -18.2309 N   0  0  0  0  0  0  0  0  0  0  0  0
   27.8441  -21.5979  -17.1699 C   0  0  1  0  0  0  0  0  0  0  0  0
   28.2305  -23.0385  -16.9335 C   0  0  0  0  0  0  0  0  0  0  0  0
   29.3847  -23.2379  -15.5633 S   0  0  0  0  0  0  0  0  0  0  0  0
   27.8674  -20.7661  -15.9403 C   0  0  0  0  0  0  0  0  0  0  0  0
   28.8074  -19.9490  -15.7095 O   0  0  0  0  0  0  0  0  0  0  0  0
   26.6798  -17.9372  -15.3452 C   0  0  0  0  0  0  0  0  0  0  0  0
   25.9753  -18.7232  -14.2618 C   0  0  1  0  0  0  0  0  0  0  0  0
   24.6302  -18.8297  -14.4844 O   0  0  0  0  0  0  0  0  0  0  0  0
   26.6253  -19.9769  -13.8549 C   0  0  2  0  0  0  0  0  0  0  0  0
   26.8238  -20.8738  -14.9948 N   0  0  0  0  0  0  0  0  0  0  0  0
   26.1572  -20.6804  -12.6684 C   0  0  0  0  0  0  0  0  0  0  0  0
   25.8300  -21.9021  -12.7887 O   0  0  0  0  0  0  0  0  0  0  0  0
   27.7850  -19.8489   -7.2584 C   0  0  0  0  0  0  0  0  0  0  0  0
   27.2018  -20.7687   -8.3070 C   0  0  0  0  0  0  0  0  0  0  0  0
   26.0277  -20.0904   -8.9446 C   0  0  2  0  0  0  0  0  0  0  0  0
   24.9109  -20.0288   -7.9253 C   0  0  0  0  0  0  0  0  0  0  0  0
   25.5747  -20.7719  -10.2168 C   0  0  2  0  0  0  0  0  0  0  0  0
   26.0510  -20.0786  -11.4000 N   0  0  0  0  0  0  0  0  0  0  0  0
   24.0949  -20.9086  -10.2285 C   0  0  0  0  0  0  0  0  0  0  0  0
   23.4948  -21.7068   -9.4493 O   0  0  0  0  0  0  0  0  0  0  0  0
   23.2866  -20.1775  -11.0855 O   0  0  0  0  0  0  0  0  0  0  0  0
  2  1  1  6
  2  5  1  0
  3  2  1  0
  4  3  1  0
  5 11  1  0
  5  6  2  0
  8  7  1  6
  8 10  1  0
  8  9  1  0
 10 12  1  0
 10 11  1  6
 12 13  2  0
 14 15  1  0
 16 18  1  0
 16 15  1  0
 16 17  1  1
 18 20  1  0
 19 12  1  0
 18 19  1  6
 20 22  1  0
 21 20  2  0
M  END
$$$$
