CTI.pdb
     RDKit          3D

 22 21  0  0  1  0  0  0  0  0999 V2000
   25.0698  -20.4575  -19.8962 N   0  0  0  0  0  0  0  0  0  0  0  0
   25.9807  -19.5012  -19.3599 C   0  0  1  0  0  0  0  0  0  0  0  0
   26.2058  -18.4159  -20.3855 C   0  0  0  0  0  0  0  0  0  0  0  0
   26.8970  -19.0428  -21.9278 S   0  0  0  0  0  0  0  0  0  0  0  0
   25.5891  -18.9854  -18.0238 C   0  0  0  0  0  0  0  0  0  0  0  0
   26.3098  -18.1543  -17.3959 O   0  0  0  0  0  0  0  0  0  0  0  0
   23.0465  -16.7325  -17.0527 C   0  0  0  0  0  0  0  0  0  0  0  0
   22.7347  -18.0226  -16.3273 C   0  0  1  0  0  0  0  0  0  0  0  0
   21.5920  -18.6172  -16.7865 O   0  0  0  0  0  0  0  0  0  0  0  0
   23.8660  -18.9421  -16.1415 C   0  0  2  0  0  0  0  0  0  0  0  0
   24.3866  -19.4195  -17.4237 N   0  0  0  0  0  0  0  0  0  0  0  0
   23.7778  -20.0029  -15.1472 C   0  0  0  0  0  0  0  0  0  0  0  0
   23.4467  -21.1646  -15.5411 O   0  0  0  0  0  0  0  0  0  0  0  0
   25.7610  -21.4920   -9.5110 C   0  0  0  0  0  0  0  0  0  0  0  0
   24.8136  -21.7971  -10.6490 C   0  0  0  0  0  0  0  0  0  0  0  0
   24.8137  -20.6395  -11.6003 C   0  0  2  0  0  0  0  0  0  0  0  0
   24.4607  -19.3915  -10.8208 C   0  0  0  0  0  0  0  0  0  0  0  0
   23.8769  -20.8406  -12.7709 C   0  0  2  0  0  0  0  0  0  0  0  0
   24.0414  -19.8080  -13.7779 N   0  0  0  0  0  0  0  0  0  0  0  0
   22.4703  -20.9157  -12.2973 C   0  0  0  0  0  0  0  0  0  0  0  0
   22.0334  -21.9246  -11.6683 O   0  0  0  0  0  0  0  0  0  0  0  0
   21.5569  -19.8949  -12.5127 O   0  0  0  0  0  0  0  0  0  0  0  0
  2  1  1  6
  2  5  1  0
  3  2  1  0
  4  3  1  0
  5 11  1  0
  5  6  2  0
  8  7  1  6
  8 10  1  0
  8  9  1  0
 10 12  1  0
 10 11  1  6
 12 13  2  0
 14 15  1  0
 16 18  1  0
 16 15  1  0
 16 17  1  1
 18 20  1  0
 19 12  1  0
 18 19  1  6
 20 22  1  0
 21 20  2  0
M  END
$$$$
