CTI.pdb
     RDKit          3D

 22 21  0  0  1  0  0  0  0  0999 V2000
   25.5940  -16.8842  -16.9291 N   0  0  0  0  0  0  0  0  0  0  0  0
   26.3946  -17.1399  -15.7778 C   0  0  1  0  0  0  0  0  0  0  0  0
   27.1794  -15.8934  -15.4450 C   0  0  0  0  0  0  0  0  0  0  0  0
   28.4650  -15.5315  -16.6557 S   0  0  0  0  0  0  0  0  0  0  0  0
   25.6316  -17.6875  -14.6279 C   0  0  0  0  0  0  0  0  0  0  0  0
   24.6326  -17.0777  -14.1434 O   0  0  0  0  0  0  0  0  0  0  0  0
   23.4814  -20.3317  -14.6855 C   0  0  0  0  0  0  0  0  0  0  0  0
   24.4638  -20.7306  -13.6068 C   0  0  1  0  0  0  0  0  0  0  0  0
   25.1934  -21.8359  -13.9475 O   0  0  0  0  0  0  0  0  0  0  0  0
   25.2537  -19.6368  -13.0241 C   0  0  2  0  0  0  0  0  0  0  0  0
   26.0132  -18.9176  -14.0484 N   0  0  0  0  0  0  0  0  0  0  0  0
   26.0336  -19.8736  -11.8170 C   0  0  0  0  0  0  0  0  0  0  0  0
   27.2603  -20.1773  -11.9485 O   0  0  0  0  0  0  0  0  0  0  0  0
   27.1345  -17.9215   -7.0908 C   0  0  0  0  0  0  0  0  0  0  0  0
   27.1903  -18.8397   -8.2905 C   0  0  0  0  0  0  0  0  0  0  0  0
   26.1292  -19.8876   -8.1458 C   0  0  2  0  0  0  0  0  0  0  0  0
   26.5321  -20.8105   -7.0163 C   0  0  0  0  0  0  0  0  0  0  0  0
   25.8849  -20.6574   -9.4249 C   0  0  2  0  0  0  0  0  0  0  0  0
   25.5003  -19.7819  -10.5171 N   0  0  0  0  0  0  0  0  0  0  0  0
   24.8708  -21.7202   -9.2002 C   0  0  0  0  0  0  0  0  0  0  0  0
   23.6820  -21.6048   -9.6220 O   0  0  0  0  0  0  0  0  0  0  0  0
   25.1604  -22.8938   -8.5210 O   0  0  0  0  0  0  0  0  0  0  0  0
  2  1  1  6
  2  5  1  0
  3  2  1  0
  4  3  1  0
  5 11  1  0
  5  6  2  0
  8  7  1  6
  8 10  1  0
  8  9  1  0
 10 12  1  0
 10 11  1  6
 12 13  2  0
 14 15  1  0
 16 18  1  0
 16 15  1  0
 16 17  1  1
 18 20  1  0
 19 12  1  0
 18 19  1  6
 20 22  1  0
 21 20  2  0
M  END
$$$$
