CTI.pdb
     RDKit          3D

 22 21  0  0  1  0  0  0  0  0999 V2000
   28.4293  -21.4956  -17.9256 N   0  0  0  0  0  0  0  0  0  0  0  0
   28.4304  -22.0241  -16.6017 C   0  0  1  0  0  0  0  0  0  0  0  0
   29.6984  -22.8182  -16.3965 C   0  0  0  0  0  0  0  0  0  0  0  0
   29.7244  -24.3523  -17.3428 S   0  0  0  0  0  0  0  0  0  0  0  0
   28.1903  -21.0041  -15.5499 C   0  0  0  0  0  0  0  0  0  0  0  0
   28.7406  -19.8640  -15.5930 O   0  0  0  0  0  0  0  0  0  0  0  0
   26.9258  -18.5727  -15.4642 C   0  0  0  0  0  0  0  0  0  0  0  0
   26.0309  -19.2452  -14.4471 C   0  0  1  0  0  0  0  0  0  0  0  0
   24.8141  -19.5891  -14.9681 O   0  0  0  0  0  0  0  0  0  0  0  0
   26.6619  -20.2937  -13.6332 C   0  0  2  0  0  0  0  0  0  0  0  0
   27.3292  -21.2937  -14.4685 N   0  0  0  0  0  0  0  0  0  0  0  0
   25.9233  -20.8935  -12.5303 C   0  0  0  0  0  0  0  0  0  0  0  0
   25.3564  -22.0129  -12.7300 O   0  0  0  0  0  0  0  0  0  0  0  0
   27.2975  -19.3214   -7.5493 C   0  0  0  0  0  0  0  0  0  0  0  0
   26.9339  -20.3475   -8.5984 C   0  0  0  0  0  0  0  0  0  0  0  0
   25.4542  -20.2982   -8.8290 C   0  0  2  0  0  0  0  0  0  0  0  0
   24.7768  -21.0223   -7.6858 C   0  0  0  0  0  0  0  0  0  0  0  0
   25.0479  -20.8784  -10.1656 C   0  0  2  0  0  0  0  0  0  0  0  0
   25.8074  -20.2995  -11.2590 N   0  0  0  0  0  0  0  0  0  0  0  0
   23.5859  -20.7134  -10.3752 C   0  0  0  0  0  0  0  0  0  0  0  0
   23.1167  -19.7645  -11.0706 O   0  0  0  0  0  0  0  0  0  0  0  0
   22.6529  -21.5806   -9.8272 O   0  0  0  0  0  0  0  0  0  0  0  0
  2  1  1  6
  2  5  1  0
  3  2  1  0
  4  3  1  0
  5 11  1  0
  5  6  2  0
  8  7  1  6
  8 10  1  0
  8  9  1  0
 10 12  1  0
 10 11  1  6
 12 13  2  0
 14 15  1  0
 16 18  1  0
 16 15  1  0
 16 17  1  1
 18 20  1  0
 19 12  1  0
 18 19  1  6
 20 22  1  0
 21 20  2  0
M  END
$$$$
