CTI.pdb
     RDKit          3D

 22 21  0  0  1  0  0  0  0  0999 V2000
   25.6901  -22.3292  -16.5863 N   0  0  0  0  0  0  0  0  0  0  0  0
   25.8919  -22.8020  -15.2568 C   0  0  1  0  0  0  0  0  0  0  0  0
   26.9804  -23.8485  -15.2731 C   0  0  0  0  0  0  0  0  0  0  0  0
   26.4508  -25.3977  -16.0275 S   0  0  0  0  0  0  0  0  0  0  0  0
   26.1206  -21.7207  -14.2654 C   0  0  0  0  0  0  0  0  0  0  0  0
   26.8487  -20.7191  -14.5319 O   0  0  0  0  0  0  0  0  0  0  0  0
   24.2976  -19.1530  -13.6031 C   0  0  0  0  0  0  0  0  0  0  0  0
   24.3590  -19.8001  -12.2374 C   0  0  1  0  0  0  0  0  0  0  0  0
   23.1485  -20.2970  -11.8398 O   0  0  0  0  0  0  0  0  0  0  0  0
   25.4929  -20.7067  -12.0088 C   0  0  2  0  0  0  0  0  0  0  0  0
   25.5186  -21.7930  -12.9898 N   0  0  0  0  0  0  0  0  0  0  0  0
   25.7865  -21.1690  -10.6591 C   0  0  0  0  0  0  0  0  0  0  0  0
   25.6543  -22.4078  -10.4102 O   0  0  0  0  0  0  0  0  0  0  0  0
   28.5019  -19.2899   -5.4135 C   0  0  0  0  0  0  0  0  0  0  0  0
   27.6270  -20.3097   -6.1066 C   0  0  0  0  0  0  0  0  0  0  0  0
   27.2882  -19.8038   -7.4756 C   0  0  2  0  0  0  0  0  0  0  0  0
   26.6453  -18.4420   -7.3269 C   0  0  0  0  0  0  0  0  0  0  0  0
   26.3976  -20.7512   -8.2486 C   0  0  2  0  0  0  0  0  0  0  0  0
   26.2093  -20.3169   -9.6210 N   0  0  0  0  0  0  0  0  0  0  0  0
   25.0963  -20.9191   -7.5507 C   0  0  0  0  0  0  0  0  0  0  0  0
   25.0104  -21.5218   -6.4400 O   0  0  0  0  0  0  0  0  0  0  0  0
   23.9060  -20.4308   -8.0677 O   0  0  0  0  0  0  0  0  0  0  0  0
  2  1  1  6
  2  5  1  0
  3  2  1  0
  4  3  1  0
  5 11  1  0
  5  6  2  0
  8  7  1  6
  8 10  1  0
  8  9  1  0
 10 12  1  0
 10 11  1  6
 12 13  2  0
 14 15  1  0
 16 18  1  0
 16 15  1  0
 16 17  1  1
 18 20  1  0
 19 12  1  0
 18 19  1  6
 20 22  1  0
 21 20  2  0
M  END
$$$$
