CTI.pdb
     RDKit          3D

 22 21  0  0  1  0  0  0  0  0999 V2000
   27.0987  -22.0450  -10.2517 N   0  0  0  0  0  0  0  0  0  0  0  0
   25.9043  -21.2996  -10.4744 C   0  0  1  0  0  0  0  0  0  0  0  0
   25.8721  -20.1348   -9.5139 C   0  0  0  0  0  0  0  0  0  0  0  0
   25.1369  -20.5589   -7.9235 S   0  0  0  0  0  0  0  0  0  0  0  0
   25.6985  -20.9081  -11.8917 C   0  0  0  0  0  0  0  0  0  0  0  0
   26.6692  -20.5849  -12.6385 O   0  0  0  0  0  0  0  0  0  0  0  0
   24.1178  -23.0972  -14.4720 C   0  0  0  0  0  0  0  0  0  0  0  0
   23.3623  -21.7872  -14.4409 C   0  0  1  0  0  0  0  0  0  0  0  0
   22.0750  -21.9367  -14.0040 O   0  0  0  0  0  0  0  0  0  0  0  0
   24.0777  -20.6495  -13.8463 C   0  0  2  0  0  0  0  0  0  0  0  0
   24.3963  -20.8916  -12.4381 N   0  0  0  0  0  0  0  0  0  0  0  0
   23.6011  -19.2937  -14.0836 C   0  0  0  0  0  0  0  0  0  0  0  0
   23.0014  -18.6970  -13.1357 O   0  0  0  0  0  0  0  0  0  0  0  0
   24.2394  -14.1935  -15.2309 C   0  0  0  0  0  0  0  0  0  0  0  0
   23.9263  -15.0059  -16.4668 C   0  0  0  0  0  0  0  0  0  0  0  0
   24.3643  -16.4204  -16.2381 C   0  0  2  0  0  0  0  0  0  0  0  0
   24.7422  -17.0168  -17.5766 C   0  0  0  0  0  0  0  0  0  0  0  0
   23.3138  -17.2557  -15.5404 C   0  0  2  0  0  0  0  0  0  0  0  0
   23.7720  -18.6128  -15.3041 N   0  0  0  0  0  0  0  0  0  0  0  0
   22.0456  -17.2397  -16.3151 C   0  0  0  0  0  0  0  0  0  0  0  0
   21.2162  -16.2878  -16.2134 O   0  0  0  0  0  0  0  0  0  0  0  0
   21.6948  -18.2570  -17.1895 O   0  0  0  0  0  0  0  0  0  0  0  0
  2  1  1  6
  2  5  1  0
  3  2  1  0
  4  3  1  0
  5 11  1  0
  5  6  2  0
  8  7  1  1
  8 10  1  0
  8  9  1  0
 10 12  1  0
 10 11  1  1
 12 13  2  0
 14 15  1  0
 16 18  1  0
 16 15  1  0
 16 17  1  6
 18 20  1  0
 19 12  1  0
 18 19  1  6
 20 22  1  0
 21 20  2  0
M  END
$$$$
