CTI.pdb
     RDKit          3D

 22 21  0  0  1  0  0  0  0  0999 V2000
   15.5075  -13.2663  -14.0467 N   0  0  0  0  0  0  0  0  0  0  0  0
   15.0886  -11.9041  -14.0800 C   0  0  1  0  0  0  0  0  0  0  0  0
   13.5934  -11.8503  -13.8754 C   0  0  0  0  0  0  0  0  0  0  0  0
   12.6776  -12.6920  -15.1802 S   0  0  0  0  0  0  0  0  0  0  0  0
   15.8476  -11.0220  -13.1580 C   0  0  0  0  0  0  0  0  0  0  0  0
   16.2781  -11.4409  -12.0428 O   0  0  0  0  0  0  0  0  0  0  0  0
   18.7551   -7.0687  -12.7021 C   0  0  0  0  0  0  0  0  0  0  0  0
   18.0104   -8.1821  -13.4045 C   0  0  1  0  0  0  0  0  0  0  0  0
   18.8507   -9.1365  -13.9077 O   0  0  0  0  0  0  0  0  0  0  0  0
   16.8395   -8.7163  -12.6949 C   0  0  2  0  0  0  0  0  0  0  0  0
   16.1068   -9.6808  -13.5170 N   0  0  0  0  0  0  0  0  0  0  0  0
   15.9531   -7.8083  -11.9796 C   0  0  0  0  0  0  0  0  0  0  0  0
   15.1843   -7.0625  -12.6629 O   0  0  0  0  0  0  0  0  0  0  0  0
   12.2558   -6.9910   -7.3912 C   0  0  0  0  0  0  0  0  0  0  0  0
   13.3534   -6.2890   -8.1582 C   0  0  0  0  0  0  0  0  0  0  0  0
   14.1614   -7.3153   -8.8923 C   0  0  2  0  0  0  0  0  0  0  0  0
   14.8599   -8.1830   -7.8680 C   0  0  0  0  0  0  0  0  0  0  0  0
   15.1494   -6.7031   -9.8605 C   0  0  2  0  0  0  0  0  0  0  0  0
   15.9036   -7.7167  -10.5755 N   0  0  0  0  0  0  0  0  0  0  0  0
   16.0503   -5.7596   -9.1486 C   0  0  0  0  0  0  0  0  0  0  0  0
   15.6394   -4.6382   -8.7268 O   0  0  0  0  0  0  0  0  0  0  0  0
   17.3848   -6.0458   -8.9042 O   0  0  0  0  0  0  0  0  0  0  0  0
  2  1  1  1
  2  5  1  0
  3  2  1  0
  4  3  1  0
  5 11  1  0
  5  6  2  0
  8  7  1  1
  8 10  1  0
  8  9  1  0
 10 12  1  0
 10 11  1  6
 12 13  2  0
 14 15  1  0
 16 18  1  0
 16 15  1  0
 16 17  1  1
 18 20  1  0
 19 12  1  0
 18 19  1  1
 20 22  1  0
 21 20  2  0
M  END
$$$$
