CTI.pdb
     RDKit          3D

 22 21  0  0  1  0  0  0  0  0999 V2000
   13.1521   -8.8894  -15.2494 N   0  0  0  0  0  0  0  0  0  0  0  0
   14.3708   -9.0377  -14.5250 C   0  0  1  0  0  0  0  0  0  0  0  0
   14.7284  -10.5039  -14.4705 C   0  0  0  0  0  0  0  0  0  0  0  0
   16.1644  -10.8360  -13.4325 S   0  0  0  0  0  0  0  0  0  0  0  0
   15.4717   -8.1748  -15.0227 C   0  0  0  0  0  0  0  0  0  0  0  0
   15.8772   -8.2412  -16.2208 O   0  0  0  0  0  0  0  0  0  0  0  0
   15.7895   -4.7940  -15.9524 C   0  0  0  0  0  0  0  0  0  0  0  0
   16.6950   -4.9792  -14.7551 C   0  0  1  0  0  0  0  0  0  0  0  0
   16.2164   -4.3548  -13.6365 O   0  0  0  0  0  0  0  0  0  0  0  0
   17.1823   -6.3467  -14.5264 C   0  0  2  0  0  0  0  0  0  0  0  0
   16.0924   -7.2503  -14.1539 N   0  0  0  0  0  0  0  0  0  0  0  0
   18.3807   -6.5614  -13.7267 C   0  0  0  0  0  0  0  0  0  0  0  0
   18.2351   -6.8508  -12.4982 O   0  0  0  0  0  0  0  0  0  0  0  0
   22.9627   -9.6645  -12.7939 C   0  0  0  0  0  0  0  0  0  0  0  0
   22.8489   -8.1763  -13.0345 C   0  0  0  0  0  0  0  0  0  0  0  0
   21.6352   -7.9146  -13.8733 C   0  0  2  0  0  0  0  0  0  0  0  0
   22.0739   -7.8269  -15.3189 C   0  0  0  0  0  0  0  0  0  0  0  0
   20.8846   -6.6716  -13.4496 C   0  0  2  0  0  0  0  0  0  0  0  0
   19.6869   -6.4667  -14.2439 N   0  0  0  0  0  0  0  0  0  0  0  0
   21.7796   -5.4863  -13.5042 C   0  0  0  0  0  0  0  0  0  0  0  0
   22.7903   -5.3810  -12.7482 O   0  0  0  0  0  0  0  0  0  0  0  0
   21.5654   -4.4316  -14.3785 O   0  0  0  0  0  0  0  0  0  0  0  0
  2  1  1  6
  2  5  1  0
  3  2  1  0
  4  3  1  0
  5 11  1  0
  5  6  2  0
  8  7  1  6
  8 10  1  0
  8  9  1  0
 10 12  1  0
 10 11  1  1
 12 13  2  0
 14 15  1  0
 16 18  1  0
 16 15  1  0
 16 17  1  6
 18 20  1  0
 19 12  1  0
 18 19  1  6
 20 22  1  0
 21 20  2  0
M  END
$$$$
