CTI.pdb
     RDKit          3D

 22 21  0  0  1  0  0  0  0  0999 V2000
   27.8396  -21.7861  -10.9810 N   0  0  0  0  0  0  0  0  0  0  0  0
   26.4872  -21.3702  -10.8087 C   0  0  1  0  0  0  0  0  0  0  0  0
   26.3703  -20.6268   -9.4994 C   0  0  0  0  0  0  0  0  0  0  0  0
   24.8016  -20.9251   -8.6628 S   0  0  0  0  0  0  0  0  0  0  0  0
   25.9386  -20.6228  -11.9684 C   0  0  0  0  0  0  0  0  0  0  0  0
   26.3323  -19.4522  -12.2499 O   0  0  0  0  0  0  0  0  0  0  0  0
   25.1362  -22.3497  -15.4848 C   0  0  0  0  0  0  0  0  0  0  0  0
   24.9481  -20.8779  -15.1913 C   0  0  1  0  0  0  0  0  0  0  0  0
   24.4610  -20.1887  -16.2674 O   0  0  0  0  0  0  0  0  0  0  0  0
   24.2907  -20.5582  -13.9164 C   0  0  2  0  0  0  0  0  0  0  0  0
   24.9545  -21.2160  -12.7896 N   0  0  0  0  0  0  0  0  0  0  0  0
   22.8386  -20.6179  -13.8185 C   0  0  0  0  0  0  0  0  0  0  0  0
   22.3177  -21.6478  -13.2872 O   0  0  0  0  0  0  0  0  0  0  0  0
   19.8319  -16.3123  -12.5445 C   0  0  0  0  0  0  0  0  0  0  0  0
   20.4147  -17.7015  -12.6719 C   0  0  0  0  0  0  0  0  0  0  0  0
   19.9160  -18.3192  -13.9427 C   0  0  2  0  0  0  0  0  0  0  0  0
   18.4081  -18.4142  -13.8581 C   0  0  0  0  0  0  0  0  0  0  0  0
   20.5376  -19.6694  -14.2234 C   0  0  2  0  0  0  0  0  0  0  0  0
   21.9864  -19.5961  -14.2789 N   0  0  0  0  0  0  0  0  0  0  0  0
   19.9763  -20.2445  -15.4735 C   0  0  0  0  0  0  0  0  0  0  0  0
   20.3804  -19.8745  -16.6156 O   0  0  0  0  0  0  0  0  0  0  0  0
   18.9842  -21.2131  -15.4674 O   0  0  0  0  0  0  0  0  0  0  0  0
  2  1  1  6
  2  5  1  0
  3  2  1  0
  4  3  1  0
  5 11  1  0
  5  6  2  0
  8  7  1  6
  8 10  1  0
  8  9  1  0
 10 12  1  0
 10 11  1  1
 12 13  2  0
 14 15  1  0
 16 18  1  0
 16 15  1  0
 16 17  1  1
 18 20  1  0
 19 12  1  0
 18 19  1  6
 20 22  1  0
 21 20  2  0
M  END
$$$$
