CTI.pdb
     RDKit          3D

 22 21  0  0  1  0  0  0  0  0999 V2000
   18.3618  -21.1770  -14.6495 N   0  0  0  0  0  0  0  0  0  0  0  0
   19.4672  -20.3668  -14.2577 C   0  0  1  0  0  0  0  0  0  0  0  0
   18.9685  -19.2738  -13.3428 C   0  0  0  0  0  0  0  0  0  0  0  0
   17.7105  -18.2367  -14.1119 S   0  0  0  0  0  0  0  0  0  0  0  0
   20.6058  -21.1379  -13.6981 C   0  0  0  0  0  0  0  0  0  0  0  0
   20.4369  -22.0096  -12.7947 O   0  0  0  0  0  0  0  0  0  0  0  0
   22.4974  -23.7601  -15.0458 C   0  0  0  0  0  0  0  0  0  0  0  0
   23.4900  -22.6476  -14.7910 C   0  0  1  0  0  0  0  0  0  0  0  0
   23.9698  -22.1001  -15.9487 O   0  0  0  0  0  0  0  0  0  0  0  0
   23.1021  -21.6652  -13.7691 C   0  0  2  0  0  0  0  0  0  0  0  0
   21.9158  -20.9088  -14.1737 N   0  0  0  0  0  0  0  0  0  0  0  0
   24.1189  -20.8201  -13.1578 C   0  0  0  0  0  0  0  0  0  0  0  0
   24.0475  -19.5662  -13.3497 O   0  0  0  0  0  0  0  0  0  0  0  0
   25.7102  -20.7424   -8.0555 C   0  0  0  0  0  0  0  0  0  0  0  0
   25.3616  -20.3888   -9.4835 C   0  0  0  0  0  0  0  0  0  0  0  0
   26.5002  -20.7891  -10.3714 C   0  0  2  0  0  0  0  0  0  0  0  0
   27.7469  -20.0849   -9.8821 C   0  0  0  0  0  0  0  0  0  0  0  0
   26.2387  -20.4939  -11.8317 C   0  0  2  0  0  0  0  0  0  0  0  0
   25.1714  -21.3196  -12.3671 N   0  0  0  0  0  0  0  0  0  0  0  0
   27.4892  -20.6477  -12.6198 C   0  0  0  0  0  0  0  0  0  0  0  0
   28.3423  -19.7151  -12.7021 O   0  0  0  0  0  0  0  0  0  0  0  0
   27.7969  -21.8115  -13.3079 O   0  0  0  0  0  0  0  0  0  0  0  0
  2  1  1  1
  2  5  1  0
  3  2  1  0
  4  3  1  0
  5 11  1  0
  5  6  2  0
  8  7  1  6
  8 10  1  0
  8  9  1  0
 10 12  1  0
 10 11  1  6
 12 13  2  0
 14 15  1  0
 16 18  1  0
 16 15  1  0
 16 17  1  1
 18 20  1  0
 19 12  1  0
 18 19  1  6
 20 22  1  0
 21 20  2  0
M  END
$$$$
