CTI.pdb
     RDKit          3D

 22 21  0  0  1  0  0  0  0  0999 V2000
   19.0595  -16.7398  -17.1313 N   0  0  0  0  0  0  0  0  0  0  0  0
   18.6729  -15.5419  -17.8001 C   0  0  1  0  0  0  0  0  0  0  0  0
   17.1853  -15.5865  -18.0560 C   0  0  0  0  0  0  0  0  0  0  0  0
   16.7133  -16.8822  -19.2170 S   0  0  0  0  0  0  0  0  0  0  0  0
   19.1223  -14.3030  -17.1164 C   0  0  0  0  0  0  0  0  0  0  0  0
   19.0610  -14.1804  -15.8571 O   0  0  0  0  0  0  0  0  0  0  0  0
   22.5950  -12.4963  -17.4694 C   0  0  0  0  0  0  0  0  0  0  0  0
   21.4403  -11.6059  -17.8714 C   0  0  1  0  0  0  0  0  0  0  0  0
   21.4295  -11.3378  -19.2124 O   0  0  0  0  0  0  0  0  0  0  0  0
   20.1295  -11.9660  -17.3129 C   0  0  2  0  0  0  0  0  0  0  0  0
   19.6349  -13.2254  -17.8719 N   0  0  0  0  0  0  0  0  0  0  0  0
   19.0860  -10.9548  -17.2111 C   0  0  0  0  0  0  0  0  0  0  0  0
   18.5128  -10.5783  -18.2806 O   0  0  0  0  0  0  0  0  0  0  0  0
   14.4815   -8.8025  -15.4318 C   0  0  0  0  0  0  0  0  0  0  0  0
   15.7190   -8.4248  -14.6499 C   0  0  0  0  0  0  0  0  0  0  0  0
   16.7243   -9.5287  -14.7750 C   0  0  2  0  0  0  0  0  0  0  0  0
   17.4257   -9.6779  -13.4424 C   0  0  0  0  0  0  0  0  0  0  0  0
   17.7144   -9.2980  -15.8951 C   0  0  2  0  0  0  0  0  0  0  0  0
   18.6806  -10.3770  -15.9928 N   0  0  0  0  0  0  0  0  0  0  0  0
   18.3864   -7.9834  -15.7253 C   0  0  0  0  0  0  0  0  0  0  0  0
   17.7941   -6.8950  -15.9878 O   0  0  0  0  0  0  0  0  0  0  0  0
   19.6920   -7.8678  -15.2730 O   0  0  0  0  0  0  0  0  0  0  0  0
  2  1  1  1
  2  5  1  0
  3  2  1  0
  4  3  1  0
  5 11  1  0
  5  6  2  0
  8  7  1  6
  8 10  1  0
  8  9  1  0
 10 12  1  0
 10 11  1  6
 12 13  2  0
 14 15  1  0
 16 18  1  0
 16 15  1  0
 16 17  1  1
 18 20  1  0
 19 12  1  0
 18 19  1  1
 20 22  1  0
 21 20  2  0
M  END
$$$$
