CTI.pdb
     RDKit          3D

 22 21  0  0  1  0  0  0  0  0999 V2000
   27.0330  -20.8252  -17.1827 N   0  0  0  0  0  0  0  0  0  0  0  0
   27.0686  -21.4327  -15.8937 C   0  0  1  0  0  0  0  0  0  0  0  0
   28.4829  -21.8759  -15.6042 C   0  0  0  0  0  0  0  0  0  0  0  0
   28.8856  -23.4653  -16.3533 S   0  0  0  0  0  0  0  0  0  0  0  0
   26.4761  -20.5949  -14.8206 C   0  0  0  0  0  0  0  0  0  0  0  0
   26.0301  -19.4329  -15.0558 O   0  0  0  0  0  0  0  0  0  0  0  0
   23.9033  -19.7463  -14.2081 C   0  0  0  0  0  0  0  0  0  0  0  0
   24.1323  -20.4673  -12.8984 C   0  0  1  0  0  0  0  0  0  0  0  0
   23.4404  -21.6445  -12.8222 O   0  0  0  0  0  0  0  0  0  0  0  0
   25.5294  -20.5533  -12.4507 C   0  0  2  0  0  0  0  0  0  0  0  0
   26.3979  -21.0897  -13.5001 N   0  0  0  0  0  0  0  0  0  0  0  0
   25.8339  -21.1084  -11.1389 C   0  0  0  0  0  0  0  0  0  0  0  0
   26.0698  -22.3542  -11.0578 O   0  0  0  0  0  0  0  0  0  0  0  0
   28.4532  -19.6845   -5.8422 C   0  0  0  0  0  0  0  0  0  0  0  0
   27.4657  -20.6023   -6.5264 C   0  0  0  0  0  0  0  0  0  0  0  0
   27.0953  -20.0102   -7.8521 C   0  0  2  0  0  0  0  0  0  0  0  0
   26.4913  -18.6451   -7.6040 C   0  0  0  0  0  0  0  0  0  0  0  0
   26.1573  -20.8906   -8.6477 C   0  0  2  0  0  0  0  0  0  0  0  0
   25.8818  -20.3379   -9.9615 N   0  0  0  0  0  0  0  0  0  0  0  0
   24.9033  -21.1270   -7.8860 C   0  0  0  0  0  0  0  0  0  0  0  0
   23.8135  -20.5684   -8.2095 O   0  0  0  0  0  0  0  0  0  0  0  0
   24.8490  -21.9664   -6.7837 O   0  0  0  0  0  0  0  0  0  0  0  0
  2  1  1  6
  2  5  1  0
  3  2  1  0
  4  3  1  0
  5 11  1  0
  5  6  2  0
  8  7  1  6
  8 10  1  0
  8  9  1  0
 10 12  1  0
 10 11  1  6
 12 13  2  0
 14 15  1  0
 16 18  1  0
 16 15  1  0
 16 17  1  1
 18 20  1  0
 19 12  1  0
 18 19  1  6
 20 22  1  0
 21 20  2  0
M  END
$$$$
