CTI.pdb
     RDKit          3D

 22 21  0  0  1  0  0  0  0  0999 V2000
   18.8113  -11.1521  -17.7199 N   0  0  0  0  0  0  0  0  0  0  0  0
   18.2872  -10.9675  -16.4072 C   0  0  1  0  0  0  0  0  0  0  0  0
   17.8367  -12.3055  -15.8711 C   0  0  0  0  0  0  0  0  0  0  0  0
   17.0704  -13.3423  -17.1311 S   0  0  0  0  0  0  0  0  0  0  0  0
   19.2032  -10.2385  -15.4941 C   0  0  0  0  0  0  0  0  0  0  0  0
   18.9206  -10.0626  -14.2719 O   0  0  0  0  0  0  0  0  0  0  0  0
   22.8277  -10.9111  -16.1183 C   0  0  0  0  0  0  0  0  0  0  0  0
   22.6898   -9.7846  -15.1184 C   0  0  1  0  0  0  0  0  0  0  0  0
   23.8116   -9.0055  -15.0511 O   0  0  0  0  0  0  0  0  0  0  0  0
   21.4289   -9.0314  -15.1724 C   0  0  2  0  0  0  0  0  0  0  0  0
   20.4242   -9.7230  -15.9820 N   0  0  0  0  0  0  0  0  0  0  0  0
   21.4555   -7.5971  -15.4247 C   0  0  0  0  0  0  0  0  0  0  0  0
   21.5619   -7.2043  -16.6283 O   0  0  0  0  0  0  0  0  0  0  0  0
   18.6774   -2.6030  -15.1744 C   0  0  0  0  0  0  0  0  0  0  0  0
   20.0757   -3.0949  -14.8771 C   0  0  0  0  0  0  0  0  0  0  0  0
   20.0448   -4.5873  -14.7471 C   0  0  2  0  0  0  0  0  0  0  0  0
   19.2027   -4.9357  -13.5390 C   0  0  0  0  0  0  0  0  0  0  0  0
   21.4254   -5.1976  -14.6501 C   0  0  2  0  0  0  0  0  0  0  0  0
   21.3679   -6.6278  -14.4073 N   0  0  0  0  0  0  0  0  0  0  0  0
   22.2230   -4.5030  -13.6061 C   0  0  0  0  0  0  0  0  0  0  0  0
   22.3927   -5.0046  -12.4555 O   0  0  0  0  0  0  0  0  0  0  0  0
   22.8255   -3.2735  -13.8249 O   0  0  0  0  0  0  0  0  0  0  0  0
  2  1  1  6
  2  5  1  0
  3  2  1  0
  4  3  1  0
  5 11  1  0
  5  6  2  0
  8  7  1  6
  8 10  1  0
  8  9  1  0
 10 12  1  0
 10 11  1  6
 12 13  2  0
 14 15  1  0
 16 18  1  0
 16 15  1  0
 16 17  1  1
 18 20  1  0
 19 12  1  0
 18 19  1  1
 20 22  1  0
 21 20  2  0
M  END
$$$$
