CTI.pdb
     RDKit          3D

 22 21  0  0  1  0  0  0  0  0999 V2000
   14.7547  -11.6630  -17.3697 N   0  0  0  0  0  0  0  0  0  0  0  0
   15.8664  -12.5317  -17.1663 C   0  0  1  0  0  0  0  0  0  0  0  0
   15.7245  -13.7249  -18.0809 C   0  0  0  0  0  0  0  0  0  0  0  0
   16.9656  -14.9953  -17.7718 S   0  0  0  0  0  0  0  0  0  0  0  0
   17.1830  -11.8537  -17.2724 C   0  0  0  0  0  0  0  0  0  0  0  0
   18.2696  -12.4860  -17.1170 O   0  0  0  0  0  0  0  0  0  0  0  0
   18.2707   -9.5397  -20.2457 C   0  0  0  0  0  0  0  0  0  0  0  0
   18.4063   -8.8333  -18.9151 C   0  0  1  0  0  0  0  0  0  0  0  0
   17.5409   -7.7816  -18.7914 O   0  0  0  0  0  0  0  0  0  0  0  0
   18.4785   -9.7034  -17.7329 C   0  0  2  0  0  0  0  0  0  0  0  0
   17.2449  -10.4713  -17.5546 N   0  0  0  0  0  0  0  0  0  0  0  0
   18.9898   -9.1725  -16.4765 C   0  0  0  0  0  0  0  0  0  0  0  0
   18.1547   -8.9065  -15.5567 O   0  0  0  0  0  0  0  0  0  0  0  0
   23.7378  -10.7482  -14.1172 C   0  0  0  0  0  0  0  0  0  0  0  0
   22.9318   -9.8094  -14.9859 C   0  0  0  0  0  0  0  0  0  0  0  0
   21.7120   -9.3797  -14.2294 C   0  0  2  0  0  0  0  0  0  0  0  0
   20.9168  -10.6185  -13.8785 C   0  0  0  0  0  0  0  0  0  0  0  0
   20.8685   -8.3821  -14.9919 C   0  0  2  0  0  0  0  0  0  0  0  0
   20.3567   -8.9418  -16.2297 N   0  0  0  0  0  0  0  0  0  0  0  0
   21.6418   -7.1374  -15.2397 C   0  0  0  0  0  0  0  0  0  0  0  0
   22.0078   -6.8029  -16.4053 O   0  0  0  0  0  0  0  0  0  0  0  0
   22.0073   -6.2726  -14.2194 O   0  0  0  0  0  0  0  0  0  0  0  0
  2  1  1  6
  2  5  1  0
  3  2  1  0
  4  3  1  0
  5 11  1  0
  5  6  2  0
  8  7  1  6
  8 10  1  0
  8  9  1  0
 10 12  1  0
 10 11  1  1
 12 13  2  0
 14 15  1  0
 16 18  1  0
 16 15  1  0
 16 17  1  6
 18 20  1  0
 19 12  1  0
 18 19  1  6
 20 22  1  0
 21 20  2  0
M  END
$$$$
