ADM.pdb
     RDKit          3D

 22 21  0  0  1  0  0  0  0  0999 V2000
   16.9272  -13.7003  -15.7472 C   0  0  0  0  0  0  0  0  0  0  0  0
   18.2201  -13.0529  -16.2324 C   0  0  2  0  0  0  0  0  0  0  0  0
   19.3145  -13.3327  -15.3586 N   0  0  0  0  0  0  0  0  0  0  0  0
   17.9392  -11.5742  -16.3126 C   0  0  0  0  0  0  0  0  0  0  0  0
   16.8918  -11.1567  -16.8643 O   0  0  0  0  0  0  0  0  0  0  0  0
   18.8539  -10.6171  -15.7650 N   0  0  0  0  0  0  0  0  0  0  0  0
   18.6521   -9.2123  -15.7342 C   0  0  1  0  0  0  0  0  0  0  0  0
   17.3873   -8.7067  -15.1661 C   0  0  0  0  0  0  0  0  0  0  0  0
   17.1994   -7.2614  -15.1283 C   0  0  0  0  0  0  0  0  0  0  0  0
   17.5785   -6.6216  -14.0879 O   0  0  0  0  0  0  0  0  0  0  0  0
   19.8206   -8.4042  -15.2785 C   0  0  0  0  0  0  0  0  0  0  0  0
   20.1631   -8.6240  -14.0889 O   0  0  0  0  0  0  0  0  0  0  0  0
   16.6397   -6.5027  -16.1293 O   0  0  0  0  0  0  0  0  0  0  0  0
   26.5748   -4.8773  -17.5170 C   0  0  0  0  0  0  0  0  0  0  0  0
   24.9210   -5.4780  -18.0149 S   0  0  0  0  0  0  0  0  0  0  0  0
   23.9428   -5.9220  -16.5928 C   0  0  0  0  0  0  0  0  0  0  0  0
   22.6181   -6.5300  -16.8632 C   0  0  0  0  0  0  0  0  0  0  0  0
   21.7596   -6.8082  -15.6770 C   0  0  2  0  0  0  0  0  0  0  0  0
   20.5249   -7.4683  -16.0302 N   0  0  0  0  0  0  0  0  0  0  0  0
   21.6137   -5.6827  -14.7310 C   0  0  0  0  0  0  0  0  0  0  0  0
   20.6977   -4.8547  -14.7655 O   0  0  0  0  0  0  0  0  0  0  0  0
   22.5703   -5.5572  -13.7414 O   0  0  0  0  0  0  0  0  0  0  0  0
  2  1  1  1
  3  2  1  0
  4  6  1  0
  4  2  1  0
  5  4  2  0
  7  6  1  0
  7 11  1  0
  7  8  1  1
  9  8  1  0
 10  9  2  0
 11 19  1  0
 12 11  2  0
 13  9  1  0
 15 14  1  0
 16 15  1  0
 17 16  1  0
 18 20  1  0
 18 17  1  6
 19 18  1  0
 20 22  1  0
 21 20  2  0
M  END
$$$$
