ADM.pdb
     RDKit          3D

 22 21  0  0  1  0  0  0  0  0999 V2000
   19.4047  -19.9490  -11.1926 C   0  0  0  0  0  0  0  0  0  0  0  0
   19.8230  -19.7574  -12.6468 C   0  0  2  0  0  0  0  0  0  0  0  0
   18.8541  -20.2877  -13.5522 N   0  0  0  0  0  0  0  0  0  0  0  0
   21.1536  -20.4506  -12.7907 C   0  0  0  0  0  0  0  0  0  0  0  0
   21.3959  -21.4986  -12.1434 O   0  0  0  0  0  0  0  0  0  0  0  0
   22.1659  -19.9341  -13.6629 N   0  0  0  0  0  0  0  0  0  0  0  0
   23.4581  -20.4934  -13.8436 C   0  0  1  0  0  0  0  0  0  0  0  0
   24.0508  -20.4451  -15.1945 C   0  0  0  0  0  0  0  0  0  0  0  0
   25.3357  -21.1065  -15.3870 C   0  0  0  0  0  0  0  0  0  0  0  0
   25.5667  -22.1925  -14.7523 O   0  0  0  0  0  0  0  0  0  0  0  0
   24.4598  -20.1520  -12.7919 C   0  0  0  0  0  0  0  0  0  0  0  0
   24.8900  -18.9723  -12.8574 O   0  0  0  0  0  0  0  0  0  0  0  0
   26.3473  -20.6627  -16.2061 O   0  0  0  0  0  0  0  0  0  0  0  0
   27.7450  -18.9479   -6.8308 C   0  0  0  0  0  0  0  0  0  0  0  0
   26.7805  -20.4784   -7.0973 S   0  0  0  0  0  0  0  0  0  0  0  0
   27.1208  -21.1827   -8.6987 C   0  0  0  0  0  0  0  0  0  0  0  0
   25.9627  -21.3501   -9.6089 C   0  0  0  0  0  0  0  0  0  0  0  0
   26.1272  -20.8317  -10.9966 C   0  0  2  0  0  0  0  0  0  0  0  0
   24.9352  -20.9979  -11.7943 N   0  0  0  0  0  0  0  0  0  0  0  0
   27.3835  -21.2246  -11.6676 C   0  0  0  0  0  0  0  0  0  0  0  0
   27.5830  -22.3271  -12.1877 O   0  0  0  0  0  0  0  0  0  0  0  0
   28.3980  -20.2873  -11.7146 O   0  0  0  0  0  0  0  0  0  0  0  0
  2  1  1  1
  3  2  1  0
  4  6  1  0
  4  2  1  0
  5  4  2  0
  7  6  1  0
  7 11  1  0
  7  8  1  6
  9  8  1  0
 10  9  2  0
 11 19  1  0
 12 11  2  0
 13  9  1  0
 15 14  1  0
 16 15  1  0
 17 16  1  0
 18 20  1  0
 18 17  1  1
 19 18  1  0
 20 22  1  0
 21 20  2  0
M  END
$$$$
