ADM.pdb
     RDKit          3D

 22 21  0  0  1  0  0  0  0  0999 V2000
   17.5681  -11.8535  -18.0401 C   0  0  0  0  0  0  0  0  0  0  0  0
   18.6490  -11.6434  -16.9848 C   0  0  2  0  0  0  0  0  0  0  0  0
   18.2842  -12.2184  -15.7295 N   0  0  0  0  0  0  0  0  0  0  0  0
   18.8393  -10.1522  -16.8768 C   0  0  0  0  0  0  0  0  0  0  0  0
   19.3041   -9.5005  -17.8438 O   0  0  0  0  0  0  0  0  0  0  0  0
   18.4969   -9.4481  -15.6769 N   0  0  0  0  0  0  0  0  0  0  0  0
   18.5735   -8.0417  -15.4995 C   0  0  1  0  0  0  0  0  0  0  0  0
   17.4763   -7.3748  -14.7717 C   0  0  0  0  0  0  0  0  0  0  0  0
   16.1236   -7.5573  -15.2839 C   0  0  0  0  0  0  0  0  0  0  0  0
   15.8877   -7.2679  -16.5071 O   0  0  0  0  0  0  0  0  0  0  0  0
   19.9069   -7.5173  -15.0835 C   0  0  0  0  0  0  0  0  0  0  0  0
   20.3020   -7.9471  -13.9700 O   0  0  0  0  0  0  0  0  0  0  0  0
   15.0514   -8.0221  -14.5590 O   0  0  0  0  0  0  0  0  0  0  0  0
   26.8912   -4.3932  -17.3174 C   0  0  0  0  0  0  0  0  0  0  0  0
   25.1926   -4.8702  -17.7979 S   0  0  0  0  0  0  0  0  0  0  0  0
   24.2466   -5.3947  -16.3815 C   0  0  0  0  0  0  0  0  0  0  0  0
   22.8565   -5.8397  -16.6406 C   0  0  0  0  0  0  0  0  0  0  0  0
   22.0273   -6.1612  -15.4445 C   0  0  2  0  0  0  0  0  0  0  0  0
   20.7073   -6.6293  -15.7959 N   0  0  0  0  0  0  0  0  0  0  0  0
   22.0617   -5.1500  -14.3679 C   0  0  0  0  0  0  0  0  0  0  0  0
   21.4041   -4.1044  -14.3696 O   0  0  0  0  0  0  0  0  0  0  0  0
   22.8862   -5.4009  -13.2875 O   0  0  0  0  0  0  0  0  0  0  0  0
  2  1  1  6
  3  2  1  0
  4  6  1  0
  4  2  1  0
  5  4  2  0
  7  6  1  0
  7 11  1  0
  7  8  1  1
  9  8  1  0
 10  9  2  0
 11 19  1  0
 12 11  2  0
 13  9  1  0
 15 14  1  0
 16 15  1  0
 17 16  1  0
 18 20  1  0
 18 17  1  6
 19 18  1  0
 20 22  1  0
 21 20  2  0
M  END
$$$$
