ADM.pdb
     RDKit          3D

 22 21  0  0  1  0  0  0  0  0999 V2000
   17.2918  -10.4622  -19.4192 C   0  0  0  0  0  0  0  0  0  0  0  0
   18.0767  -10.7008  -18.1335 C   0  0  2  0  0  0  0  0  0  0  0  0
   17.2887  -11.3667  -17.1460 N   0  0  0  0  0  0  0  0  0  0  0  0
   18.5231   -9.3408  -17.6613 C   0  0  0  0  0  0  0  0  0  0  0  0
   19.3655   -8.6851  -18.3219 O   0  0  0  0  0  0  0  0  0  0  0  0
   18.0005   -8.7681  -16.4565 N   0  0  0  0  0  0  0  0  0  0  0  0
   18.3682   -7.5062  -15.9200 C   0  0  1  0  0  0  0  0  0  0  0  0
   17.3381   -6.7341  -15.1982 C   0  0  0  0  0  0  0  0  0  0  0  0
   16.0799   -6.4834  -15.8907 C   0  0  0  0  0  0  0  0  0  0  0  0
   16.1133   -5.9075  -17.0322 O   0  0  0  0  0  0  0  0  0  0  0  0
   19.6812   -7.4656  -15.2127 C   0  0  0  0  0  0  0  0  0  0  0  0
   19.8462   -8.3969  -14.3843 O   0  0  0  0  0  0  0  0  0  0  0  0
   14.8305   -6.8152  -15.4217 O   0  0  0  0  0  0  0  0  0  0  0  0
   26.4722   -9.8639  -14.4441 C   0  0  0  0  0  0  0  0  0  0  0  0
   24.7630   -9.7617  -15.0862 S   0  0  0  0  0  0  0  0  0  0  0  0
   24.0672   -8.1446  -14.8089 C   0  0  0  0  0  0  0  0  0  0  0  0
   22.6706   -7.9376  -15.2607 C   0  0  0  0  0  0  0  0  0  0  0  0
   22.0623   -6.6117  -14.9546 C   0  0  2  0  0  0  0  0  0  0  0  0
   20.6877   -6.5205  -15.3871 N   0  0  0  0  0  0  0  0  0  0  0  0
   22.9001   -5.4438  -15.2967 C   0  0  0  0  0  0  0  0  0  0  0  0
   22.8431   -4.8326  -16.3686 O   0  0  0  0  0  0  0  0  0  0  0  0
   23.8041   -5.0106  -14.3454 O   0  0  0  0  0  0  0  0  0  0  0  0
  2  1  1  6
  3  2  1  0
  4  6  1  0
  4  2  1  0
  5  4  2  0
  7  6  1  0
  7 11  1  0
  7  8  1  1
  9  8  1  0
 10  9  2  0
 11 19  1  0
 12 11  2  0
 13  9  1  0
 15 14  1  0
 16 15  1  0
 17 16  1  0
 18 20  1  0
 18 17  1  6
 19 18  1  0
 20 22  1  0
 21 20  2  0
M  END
$$$$
