ADM.pdb
     RDKit          3D

 22 21  0  0  1  0  0  0  0  0999 V2000
   25.3669  -26.1240  -17.6840 C   0  0  0  0  0  0  0  0  0  0  0  0
   24.8256  -25.8879  -16.2778 C   0  0  2  0  0  0  0  0  0  0  0  0
   23.4173  -25.6510  -16.2838 N   0  0  0  0  0  0  0  0  0  0  0  0
   25.5842  -24.7042  -15.7344 C   0  0  0  0  0  0  0  0  0  0  0  0
   26.8275  -24.7675  -15.5731 O   0  0  0  0  0  0  0  0  0  0  0  0
   24.9095  -23.4876  -15.3918 N   0  0  0  0  0  0  0  0  0  0  0  0
   25.5091  -22.3648  -14.7632 C   0  0  1  0  0  0  0  0  0  0  0  0
   25.7593  -21.1637  -15.5836 C   0  0  0  0  0  0  0  0  0  0  0  0
   26.9151  -20.3449  -15.2386 C   0  0  0  0  0  0  0  0  0  0  0  0
   26.8041  -19.4993  -14.2856 O   0  0  0  0  0  0  0  0  0  0  0  0
   24.9606  -22.0092  -13.4220 C   0  0  0  0  0  0  0  0  0  0  0  0
   23.7201  -21.8051  -13.4132 O   0  0  0  0  0  0  0  0  0  0  0  0
   28.1430  -20.3966  -15.8558 O   0  0  0  0  0  0  0  0  0  0  0  0
   28.7307  -19.8371   -8.2692 C   0  0  0  0  0  0  0  0  0  0  0  0
   27.1973  -20.4244   -7.4644 S   0  0  0  0  0  0  0  0  0  0  0  0
   25.8923  -20.6532   -8.6564 C   0  0  0  0  0  0  0  0  0  0  0  0
   26.2940  -21.1621   -9.9895 C   0  0  0  0  0  0  0  0  0  0  0  0
   25.1927  -21.4402  -10.9547 C   0  0  2  0  0  0  0  0  0  0  0  0
   25.6811  -21.8881  -12.2375 N   0  0  0  0  0  0  0  0  0  0  0  0
   24.1386  -20.4068  -11.0176 C   0  0  0  0  0  0  0  0  0  0  0  0
   23.0914  -20.4356  -10.3631 O   0  0  0  0  0  0  0  0  0  0  0  0
   24.3485  -19.3369  -11.8668 O   0  0  0  0  0  0  0  0  0  0  0  0
  2  1  1  6
  3  2  1  0
  4  6  1  0
  4  2  1  0
  5  4  2  0
  7  6  1  0
  7 11  1  0
  7  8  1  6
  9  8  1  0
 10  9  2  0
 11 19  1  0
 12 11  2  0
 13  9  1  0
 15 14  1  0
 16 15  1  0
 17 16  1  0
 18 20  1  0
 18 17  1  1
 19 18  1  0
 20 22  1  0
 21 20  2  0
M  END
$$$$
