ADM.pdb
     RDKit          3D

 22 21  0  0  1  0  0  0  0  0999 V2000
   21.2172  -13.6988  -17.2151 C   0  0  0  0  0  0  0  0  0  0  0  0
   19.7862  -13.1823  -17.1063 C   0  0  2  0  0  0  0  0  0  0  0  0
   18.9499  -13.7149  -18.1341 N   0  0  0  0  0  0  0  0  0  0  0  0
   19.8796  -11.6803  -17.1908 C   0  0  0  0  0  0  0  0  0  0  0  0
   20.7326  -11.1388  -17.9358 O   0  0  0  0  0  0  0  0  0  0  0  0
   19.0037  -10.8410  -16.4286 N   0  0  0  0  0  0  0  0  0  0  0  0
   19.0383   -9.4220  -16.4073 C   0  0  1  0  0  0  0  0  0  0  0  0
   17.7556   -8.6996  -16.3008 C   0  0  0  0  0  0  0  0  0  0  0  0
   17.8026   -7.2426  -16.3248 C   0  0  0  0  0  0  0  0  0  0  0  0
   18.1398   -6.6586  -17.4115 O   0  0  0  0  0  0  0  0  0  0  0  0
   20.0837   -8.8169  -15.5315 C   0  0  0  0  0  0  0  0  0  0  0  0
   19.9622   -9.1057  -14.3138 O   0  0  0  0  0  0  0  0  0  0  0  0
   17.5118   -6.4169  -15.2643 O   0  0  0  0  0  0  0  0  0  0  0  0
   25.7194  -11.4579  -15.2537 C   0  0  0  0  0  0  0  0  0  0  0  0
   25.4703   -9.6849  -15.6254 S   0  0  0  0  0  0  0  0  0  0  0  0
   23.8714   -9.1292  -15.0676 C   0  0  0  0  0  0  0  0  0  0  0  0
   23.4985   -7.7352  -15.4075 C   0  0  0  0  0  0  0  0  0  0  0  0
   22.0985   -7.3274  -15.0988 C   0  0  2  0  0  0  0  0  0  0  0  0
   21.1303   -7.9942  -15.9372 N   0  0  0  0  0  0  0  0  0  0  0  0
   21.8891   -5.8731  -14.9438 C   0  0  0  0  0  0  0  0  0  0  0  0
   21.0889   -5.2072  -15.6088 O   0  0  0  0  0  0  0  0  0  0  0  0
   22.6418   -5.2220  -13.9849 O   0  0  0  0  0  0  0  0  0  0  0  0
  2  1  1  6
  3  2  1  0
  4  6  1  0
  4  2  1  0
  5  4  2  0
  7  6  1  0
  7 11  1  0
  7  8  1  1
  9  8  1  0
 10  9  2  0
 11 19  1  0
 12 11  2  0
 13  9  1  0
 15 14  1  0
 16 15  1  0
 17 16  1  0
 18 20  1  0
 18 17  1  6
 19 18  1  0
 20 22  1  0
 21 20  2  0
M  END
$$$$
