ADM.pdb
     RDKit          3D

 22 21  0  0  1  0  0  0  0  0999 V2000
   20.8531  -13.1445  -17.6719 C   0  0  0  0  0  0  0  0  0  0  0  0
   20.7479  -11.7876  -18.3604 C   0  0  2  0  0  0  0  0  0  0  0  0
   21.9917  -11.3866  -18.9363 N   0  0  0  0  0  0  0  0  0  0  0  0
   20.2901  -10.8187  -17.3004 C   0  0  0  0  0  0  0  0  0  0  0  0
   19.2216  -11.0226  -16.6738 O   0  0  0  0  0  0  0  0  0  0  0  0
   21.0577   -9.6509  -16.9851 N   0  0  0  0  0  0  0  0  0  0  0  0
   20.6683   -8.6328  -16.0756 C   0  0  1  0  0  0  0  0  0  0  0  0
   20.2411   -9.0393  -14.7226 C   0  0  0  0  0  0  0  0  0  0  0  0
   19.7451   -7.9954  -13.8340 C   0  0  0  0  0  0  0  0  0  0  0  0
   19.1171   -7.0047  -14.3436 O   0  0  0  0  0  0  0  0  0  0  0  0
   21.5546   -7.4333  -16.0344 C   0  0  0  0  0  0  0  0  0  0  0  0
   22.7779   -7.7034  -15.9273 O   0  0  0  0  0  0  0  0  0  0  0  0
   19.8922   -7.9743  -12.4669 O   0  0  0  0  0  0  0  0  0  0  0  0
   24.2965   -3.4753  -21.4611 C   0  0  0  0  0  0  0  0  0  0  0  0
   23.5029   -4.8739  -20.5906 S   0  0  0  0  0  0  0  0  0  0  0  0
   22.9724   -4.3973  -18.9573 C   0  0  0  0  0  0  0  0  0  0  0  0
   22.3037   -5.4426  -18.1462 C   0  0  0  0  0  0  0  0  0  0  0  0
   21.7968   -5.0235  -16.8087 C   0  0  2  0  0  0  0  0  0  0  0  0
   21.1520   -6.1027  -16.0983 N   0  0  0  0  0  0  0  0  0  0  0  0
   21.0627   -3.7414  -16.7901 C   0  0  0  0  0  0  0  0  0  0  0  0
   19.8411   -3.6332  -16.9380 O   0  0  0  0  0  0  0  0  0  0  0  0
   21.8007   -2.5902  -16.5900 O   0  0  0  0  0  0  0  0  0  0  0  0
  2  1  1  1
  3  2  1  0
  4  6  1  0
  4  2  1  0
  5  4  2  0
  7  6  1  0
  7 11  1  0
  7  8  1  1
  9  8  1  0
 10  9  2  0
 11 19  1  0
 12 11  2  0
 13  9  1  0
 15 14  1  0
 16 15  1  0
 17 16  1  0
 18 20  1  0
 18 17  1  6
 19 18  1  0
 20 22  1  0
 21 20  2  0
M  END
$$$$
