ADM.pdb
     RDKit          3D

 22 21  0  0  1  0  0  0  0  0999 V2000
   14.7340  -10.2613  -18.6374 C   0  0  0  0  0  0  0  0  0  0  0  0
   16.2229  -10.0306  -18.8746 C   0  0  2  0  0  0  0  0  0  0  0  0
   17.0116  -11.1222  -18.3993 N   0  0  0  0  0  0  0  0  0  0  0  0
   16.5633   -8.7484  -18.1593 C   0  0  0  0  0  0  0  0  0  0  0  0
   16.0354   -7.6656  -18.5128 O   0  0  0  0  0  0  0  0  0  0  0  0
   17.4905   -8.7346  -17.0672 N   0  0  0  0  0  0  0  0  0  0  0  0
   17.8271   -7.5955  -16.2898 C   0  0  1  0  0  0  0  0  0  0  0  0
   16.7296   -6.8471  -15.6467 C   0  0  0  0  0  0  0  0  0  0  0  0
   17.0799   -5.6272  -14.9294 C   0  0  0  0  0  0  0  0  0  0  0  0
   17.1075   -5.6548  -13.6511 O   0  0  0  0  0  0  0  0  0  0  0  0
   18.9892   -7.7652  -15.3695 C   0  0  0  0  0  0  0  0  0  0  0  0
   19.1815   -8.9515  -15.0000 O   0  0  0  0  0  0  0  0  0  0  0  0
   17.3910   -4.4205  -15.5110 O   0  0  0  0  0  0  0  0  0  0  0  0
   26.0536   -9.3568  -14.5499 C   0  0  0  0  0  0  0  0  0  0  0  0
   24.4618   -9.1160  -15.4170 S   0  0  0  0  0  0  0  0  0  0  0  0
   23.3754   -8.0546  -14.4844 C   0  0  0  0  0  0  0  0  0  0  0  0
   22.0269   -7.8214  -15.0541 C   0  0  0  0  0  0  0  0  0  0  0  0
   21.1263   -6.9182  -14.2828 C   0  0  2  0  0  0  0  0  0  0  0  0
   19.8340   -6.7604  -14.9073 N   0  0  0  0  0  0  0  0  0  0  0  0
   21.7484   -5.6619  -13.8163 C   0  0  0  0  0  0  0  0  0  0  0  0
   21.5759   -4.5584  -14.3439 O   0  0  0  0  0  0  0  0  0  0  0  0
   22.5757   -5.7353  -12.7117 O   0  0  0  0  0  0  0  0  0  0  0  0
  2  1  1  1
  3  2  1  0
  4  6  1  0
  4  2  1  0
  5  4  2  0
  7  6  1  0
  7 11  1  0
  7  8  1  1
  9  8  1  0
 10  9  2  0
 11 19  1  0
 12 11  2  0
 13  9  1  0
 15 14  1  0
 16 15  1  0
 17 16  1  0
 18 20  1  0
 18 17  1  6
 19 18  1  0
 20 22  1  0
 21 20  2  0
M  END
$$$$
