ADM.pdb
     RDKit          3D

 22 21  0  0  1  0  0  0  0  0999 V2000
   23.5216  -12.7998  -19.5498 C   0  0  0  0  0  0  0  0  0  0  0  0
   22.2941  -12.3619  -18.7574 C   0  0  2  0  0  0  0  0  0  0  0  0
   21.0877  -12.5579  -19.4961 N   0  0  0  0  0  0  0  0  0  0  0  0
   22.5111  -10.9076  -18.4263 C   0  0  0  0  0  0  0  0  0  0  0  0
   23.4065  -10.5688  -17.6144 O   0  0  0  0  0  0  0  0  0  0  0  0
   21.7066   -9.8849  -19.0258 N   0  0  0  0  0  0  0  0  0  0  0  0
   21.8158   -8.4941  -18.7628 C   0  0  1  0  0  0  0  0  0  0  0  0
   21.4929   -7.5554  -19.8550 C   0  0  0  0  0  0  0  0  0  0  0  0
   21.8136   -6.1485  -19.6468 C   0  0  0  0  0  0  0  0  0  0  0  0
   21.4815   -5.6020  -18.5392 O   0  0  0  0  0  0  0  0  0  0  0  0
   21.2464   -8.0388  -17.4610 C   0  0  0  0  0  0  0  0  0  0  0  0
   20.2257   -8.6763  -17.0971 O   0  0  0  0  0  0  0  0  0  0  0  0
   22.4547   -5.3336  -20.5502 O   0  0  0  0  0  0  0  0  0  0  0  0
   21.8234   -9.3888  -10.3438 C   0  0  0  0  0  0  0  0  0  0  0  0
   22.0912   -9.5935  -12.1411 S   0  0  0  0  0  0  0  0  0  0  0  0
   21.7445   -8.0820  -13.0194 C   0  0  0  0  0  0  0  0  0  0  0  0
   21.8171   -8.1435  -14.4988 C   0  0  0  0  0  0  0  0  0  0  0  0
   21.5810   -6.8662  -15.2298 C   0  0  2  0  0  0  0  0  0  0  0  0
   21.7315   -7.0104  -16.6586 N   0  0  0  0  0  0  0  0  0  0  0  0
   22.2468   -5.6808  -14.6515 C   0  0  0  0  0  0  0  0  0  0  0  0
   23.2626   -5.1534  -15.1160 O   0  0  0  0  0  0  0  0  0  0  0  0
   21.6860   -5.1290  -13.5152 O   0  0  0  0  0  0  0  0  0  0  0  0
  2  1  1  6
  3  2  1  0
  4  6  1  0
  4  2  1  0
  5  4  2  0
  7  6  1  0
  7 11  1  0
  7  8  1  6
  9  8  1  0
 10  9  2  0
 11 19  1  0
 12 11  2  0
 13  9  1  0
 15 14  1  0
 16 15  1  0
 17 16  1  0
 18 20  1  0
 18 17  1  1
 19 18  1  0
 20 22  1  0
 21 20  2  0
M  END
$$$$
