ADM.pdb
     RDKit          3D

 22 21  0  0  1  0  0  0  0  0999 V2000
   15.8089  -13.9518  -13.8407 C   0  0  0  0  0  0  0  0  0  0  0  0
   15.1552  -12.6009  -14.1127 C   0  0  2  0  0  0  0  0  0  0  0  0
   15.1829  -12.2676  -15.5011 N   0  0  0  0  0  0  0  0  0  0  0  0
   15.9177  -11.5970  -13.2866 C   0  0  0  0  0  0  0  0  0  0  0  0
   16.0501  -11.7635  -12.0493 O   0  0  0  0  0  0  0  0  0  0  0  0
   16.5053  -10.4375  -13.8889 N   0  0  0  0  0  0  0  0  0  0  0  0
   17.2527   -9.4447  -13.2026 C   0  0  1  0  0  0  0  0  0  0  0  0
   18.2680   -8.6920  -13.9648 C   0  0  0  0  0  0  0  0  0  0  0  0
   18.9998   -7.6481  -13.2576 C   0  0  0  0  0  0  0  0  0  0  0  0
   18.3375   -6.7108  -12.6932 O   0  0  0  0  0  0  0  0  0  0  0  0
   16.4636   -8.5499  -12.3067 C   0  0  0  0  0  0  0  0  0  0  0  0
   15.7234   -7.7371  -12.9169 O   0  0  0  0  0  0  0  0  0  0  0  0
   20.3677   -7.5737  -13.1370 O   0  0  0  0  0  0  0  0  0  0  0  0
   11.2747   -7.5562   -6.7498 C   0  0  0  0  0  0  0  0  0  0  0  0
   12.3725   -8.6568   -7.7129 S   0  0  0  0  0  0  0  0  0  0  0  0
   13.7050   -7.7408   -8.4623 C   0  0  0  0  0  0  0  0  0  0  0  0
   14.6377   -8.5099   -9.3202 C   0  0  0  0  0  0  0  0  0  0  0  0
   15.6886   -7.7261  -10.0294 C   0  0  2  0  0  0  0  0  0  0  0  0
   16.4846   -8.5426  -10.9152 N   0  0  0  0  0  0  0  0  0  0  0  0
   16.4612   -6.7989   -9.1771 C   0  0  0  0  0  0  0  0  0  0  0  0
   17.6738   -6.8934   -8.9617 O   0  0  0  0  0  0  0  0  0  0  0  0
   15.7726   -5.7560   -8.5871 O   0  0  0  0  0  0  0  0  0  0  0  0
  2  1  1  6
  3  2  1  0
  4  6  1  0
  4  2  1  0
  5  4  2  0
  7  6  1  0
  7 11  1  0
  7  8  1  6
  9  8  1  0
 10  9  2  0
 11 19  1  0
 12 11  2  0
 13  9  1  0
 15 14  1  0
 16 15  1  0
 17 16  1  0
 18 20  1  0
 18 17  1  1
 19 18  1  0
 20 22  1  0
 21 20  2  0
M  END
$$$$
