ADM.pdb
     RDKit          3D

 22 21  0  0  1  0  0  0  0  0999 V2000
   18.5809  -12.0237  -15.5704 C   0  0  0  0  0  0  0  0  0  0  0  0
   17.2869  -11.5584  -14.9106 C   0  0  2  0  0  0  0  0  0  0  0  0
   16.2593  -11.3133  -15.8716 N   0  0  0  0  0  0  0  0  0  0  0  0
   17.6379  -10.3092  -14.1439 C   0  0  0  0  0  0  0  0  0  0  0  0
   18.4343  -10.3625  -13.1749 O   0  0  0  0  0  0  0  0  0  0  0  0
   17.0755   -9.0406  -14.4999 N   0  0  0  0  0  0  0  0  0  0  0  0
   17.2999   -7.8199  -13.8106 C   0  0  1  0  0  0  0  0  0  0  0  0
   17.4827   -6.5950  -14.6134 C   0  0  0  0  0  0  0  0  0  0  0  0
   17.7401   -5.3537  -13.8934 C   0  0  0  0  0  0  0  0  0  0  0  0
   16.7444   -4.6877  -13.4454 O   0  0  0  0  0  0  0  0  0  0  0  0
   16.4209   -7.5767  -12.6299 C   0  0  0  0  0  0  0  0  0  0  0  0
   15.2055   -7.8238  -12.8360 O   0  0  0  0  0  0  0  0  0  0  0  0
   18.9819   -4.8179  -13.6445 O   0  0  0  0  0  0  0  0  0  0  0  0
   12.0188   -8.8720   -6.9797 C   0  0  0  0  0  0  0  0  0  0  0  0
   13.0971   -9.2445   -8.4088 S   0  0  0  0  0  0  0  0  0  0  0  0
   14.2462   -7.9162   -8.7111 C   0  0  0  0  0  0  0  0  0  0  0  0
   15.0931   -8.0352   -9.9220 C   0  0  0  0  0  0  0  0  0  0  0  0
   15.9905   -6.8834  -10.2216 C   0  0  2  0  0  0  0  0  0  0  0  0
   16.8216   -7.1161  -11.3792 N   0  0  0  0  0  0  0  0  0  0  0  0
   16.6966   -6.3185   -9.0532 C   0  0  0  0  0  0  0  0  0  0  0  0
   16.1630   -6.0691   -7.9674 O   0  0  0  0  0  0  0  0  0  0  0  0
   18.0466   -6.0576   -9.1925 O   0  0  0  0  0  0  0  0  0  0  0  0
  2  1  1  6
  3  2  1  0
  4  6  1  0
  4  2  1  0
  5  4  2  0
  7  6  1  0
  7 11  1  0
  7  8  1  6
  9  8  1  0
 10  9  2  0
 11 19  1  0
 12 11  2  0
 13  9  1  0
 15 14  1  0
 16 15  1  0
 17 16  1  0
 18 20  1  0
 18 17  1  1
 19 18  1  0
 20 22  1  0
 21 20  2  0
M  END
$$$$
