ADM.pdb
     RDKit          3D

 22 21  0  0  1  0  0  0  0  0999 V2000
   18.2192  -11.6320  -19.4093 C   0  0  0  0  0  0  0  0  0  0  0  0
   18.6921  -11.5648  -17.9608 C   0  0  2  0  0  0  0  0  0  0  0  0
   17.6172  -11.7627  -17.0416 N   0  0  0  0  0  0  0  0  0  0  0  0
   19.3220  -10.2059  -17.7924 C   0  0  0  0  0  0  0  0  0  0  0  0
   20.3718   -9.9120  -18.4150 O   0  0  0  0  0  0  0  0  0  0  0  0
   18.7421   -9.2245  -16.9246 N   0  0  0  0  0  0  0  0  0  0  0  0
   19.2606   -7.9234  -16.6934 C   0  0  1  0  0  0  0  0  0  0  0  0
   18.3041   -6.8398  -16.3945 C   0  0  0  0  0  0  0  0  0  0  0  0
   18.8428   -5.4943  -16.2372 C   0  0  0  0  0  0  0  0  0  0  0  0
   19.4041   -4.9379  -17.2426 O   0  0  0  0  0  0  0  0  0  0  0  0
   20.4601   -7.8565  -15.8087 C   0  0  0  0  0  0  0  0  0  0  0  0
   20.5350   -8.7946  -14.9749 O   0  0  0  0  0  0  0  0  0  0  0  0
   18.8037   -4.7487  -15.0823 O   0  0  0  0  0  0  0  0  0  0  0  0
   27.1369  -10.3419  -15.1893 C   0  0  0  0  0  0  0  0  0  0  0  0
   25.7686   -9.7778  -16.2632 S   0  0  0  0  0  0  0  0  0  0  0  0
   24.9279   -8.3767  -15.5515 C   0  0  0  0  0  0  0  0  0  0  0  0
   23.4984   -8.2107  -15.9071 C   0  0  0  0  0  0  0  0  0  0  0  0
   22.8138   -7.0035  -15.3635 C   0  0  2  0  0  0  0  0  0  0  0  0
   21.4530   -6.8815  -15.8308 N   0  0  0  0  0  0  0  0  0  0  0  0
   23.6040   -5.7563  -15.4195 C   0  0  0  0  0  0  0  0  0  0  0  0
   24.6098   -5.5349  -14.7375 O   0  0  0  0  0  0  0  0  0  0  0  0
   23.1837   -4.7776  -16.3000 O   0  0  0  0  0  0  0  0  0  0  0  0
  2  1  1  6
  3  2  1  0
  4  6  1  0
  4  2  1  0
  5  4  2  0
  7  6  1  0
  7 11  1  0
  7  8  1  1
  9  8  1  0
 10  9  2  0
 11 19  1  0
 12 11  2  0
 13  9  1  0
 15 14  1  0
 16 15  1  0
 17 16  1  0
 18 20  1  0
 18 17  1  6
 19 18  1  0
 20 22  1  0
 21 20  2  0
M  END
$$$$
