ADM.pdb
     RDKit          3D

 22 21  0  0  1  0  0  0  0  0999 V2000
   19.4329  -12.5922  -17.9499 C   0  0  0  0  0  0  0  0  0  0  0  0
   20.3775  -12.0379  -16.8884 C   0  0  2  0  0  0  0  0  0  0  0  0
   20.1637  -12.6496  -15.6158 N   0  0  0  0  0  0  0  0  0  0  0  0
   20.1217  -10.5534  -16.8396 C   0  0  0  0  0  0  0  0  0  0  0  0
   20.2744   -9.8494  -17.8677 O   0  0  0  0  0  0  0  0  0  0  0  0
   19.7011   -9.9150  -15.6279 N   0  0  0  0  0  0  0  0  0  0  0  0
   19.4467   -8.5266  -15.4764 C   0  0  1  0  0  0  0  0  0  0  0  0
   18.1923   -8.1209  -14.8129 C   0  0  0  0  0  0  0  0  0  0  0  0
   16.9443   -8.6277  -15.3707 C   0  0  0  0  0  0  0  0  0  0  0  0
   16.6374   -8.3121  -16.5714 O   0  0  0  0  0  0  0  0  0  0  0  0
   20.6038   -7.7074  -15.0115 C   0  0  0  0  0  0  0  0  0  0  0  0
   21.0541   -8.0475  -13.8880 O   0  0  0  0  0  0  0  0  0  0  0  0
   16.0441   -9.4322  -14.7123 O   0  0  0  0  0  0  0  0  0  0  0  0
   26.9421   -3.3852  -17.0505 C   0  0  0  0  0  0  0  0  0  0  0  0
   25.3918   -4.1951  -17.5836 S   0  0  0  0  0  0  0  0  0  0  0  0
   24.4275   -4.7246  -16.1814 C   0  0  0  0  0  0  0  0  0  0  0  0
   23.1642   -5.4413  -16.4784 C   0  0  0  0  0  0  0  0  0  0  0  0
   22.3684   -5.9003  -15.3046 C   0  0  2  0  0  0  0  0  0  0  0  0
   21.1928   -6.6448  -15.6902 N   0  0  0  0  0  0  0  0  0  0  0  0
   22.1423   -4.8781  -14.2622 C   0  0  0  0  0  0  0  0  0  0  0  0
   21.2327   -4.0427  -14.2880 O   0  0  0  0  0  0  0  0  0  0  0  0
   23.0105   -4.8650  -13.1870 O   0  0  0  0  0  0  0  0  0  0  0  0
  2  1  1  6
  3  2  1  0
  4  6  1  0
  4  2  1  0
  5  4  2  0
  7  6  1  0
  7 11  1  0
  7  8  1  1
  9  8  1  0
 10  9  2  0
 11 19  1  0
 12 11  2  0
 13  9  1  0
 15 14  1  0
 16 15  1  0
 17 16  1  0
 18 20  1  0
 18 17  1  6
 19 18  1  0
 20 22  1  0
 21 20  2  0
M  END
$$$$
