DER.pdb
     RDKit          3D

 29 28  0  0  1  0  0  0  0  0999 V2000
   11.5107  -16.6272   15.0584 N   0  0  0  0  0  0  0  0  0  0  0  0
   11.3410  -15.7639   16.1857 C   0  0  1  0  0  0  0  0  0  0  0  0
   10.0997  -16.2229   16.9601 C   0  0  0  0  0  0  0  0  0  0  0  0
    8.9483  -16.0291   16.0578 C   0  0  0  0  0  0  0  0  0  0  0  0
    9.1480  -15.7278   14.8647 O   0  0  0  0  0  0  0  0  0  0  0  0
   12.5030  -15.7381   17.1016 C   0  0  0  0  0  0  0  0  0  0  0  0
   12.8432  -16.8514   17.6120 O   0  0  0  0  0  0  0  0  0  0  0  0
    7.6704  -16.1844   16.5494 O   0  0  0  0  0  0  0  0  0  0  0  0
   13.2242  -14.5709   17.4214 N   0  0  0  0  0  0  0  0  0  0  0  0
   14.3735  -14.5688   18.3093 C   0  0  1  0  0  0  0  0  0  0  0  0
   15.5952  -14.0369   17.6527 C   0  0  0  0  0  0  0  0  0  0  0  0
   16.8516  -14.0000   18.4151 C   0  0  0  0  0  0  0  0  0  0  0  0
   18.0653  -13.5309   17.7502 C   0  0  0  0  0  0  0  0  0  0  0  0
   19.0324  -14.2508   17.4446 O   0  0  0  0  0  0  0  0  0  0  0  0
   14.0806  -14.1469   19.6726 C   0  0  0  0  0  0  0  0  0  0  0  0
   14.4747  -12.9985   20.0764 O   0  0  0  0  0  0  0  0  0  0  0  0
   18.2093  -12.1724   17.4045 O   0  0  0  0  0  0  0  0  0  0  0  0
   10.6965  -21.0256   21.3499 N   0  0  0  0  0  0  0  0  0  0  0  0
   10.8999  -20.1446   22.4634 C   0  0  0  0  0  0  0  0  0  0  0  0
   10.6460  -20.5414   23.6715 N   0  0  0  0  0  0  0  0  0  0  0  0
   11.3798  -18.8170   22.2953 N   0  0  0  0  0  0  0  0  0  0  0  0
   11.6212  -17.9287   23.4118 C   0  0  0  0  0  0  0  0  0  0  0  0
   12.0570  -16.5898   22.8253 C   0  0  0  0  0  0  0  0  0  0  0  0
   13.4883  -16.6291   22.3722 C   0  0  0  0  0  0  0  0  0  0  0  0
   13.9412  -15.2877   21.9298 C   0  0  2  0  0  0  0  0  0  0  0  0
   13.3648  -14.9212   20.6307 N   0  0  0  0  0  0  0  0  0  0  0  0
   15.4057  -15.1382   21.9254 C   0  0  0  0  0  0  0  0  0  0  0  0
   15.9301  -14.2257   22.8806 O   0  0  0  0  0  0  0  0  0  0  0  0
   16.2232  -15.7104   21.1918 O   0  0  0  0  0  0  0  0  0  0  0  0
  2  3  1  0
  2  1  1  6
  3  4  1  0
  4  5  2  0
  6  2  1  0
  6  7  2  0
  8  4  1  0
  9  6  1  0
 10  9  1  0
 10 15  1  0
 10 11  1  6
 12 11  1  0
 12 13  1  0
 13 14  2  0
 15 26  1  0
 16 15  2  0
 17 13  1  0
 18 19  1  0
 19 21  1  0
 20 19  2  0
 21 22  1  0
 22 23  1  0
 23 24  1  0
 25 24  1  6
 25 27  1  0
 26 25  1  0
 27 29  2  0
 27 28  1  0
M  END
$$$$
