DER.pdb
     RDKit          3D

 29 28  0  0  1  0  0  0  0  0999 V2000
   13.2150  -13.8808   18.1774 N   0  0  0  0  0  0  0  0  0  0  0  0
   13.6717  -15.0058   18.9327 C   0  0  1  0  0  0  0  0  0  0  0  0
   15.0278  -14.6496   19.5534 C   0  0  0  0  0  0  0  0  0  0  0  0
   15.9796  -14.5202   18.4333 C   0  0  0  0  0  0  0  0  0  0  0  0
   15.6527  -14.9259   17.3006 O   0  0  0  0  0  0  0  0  0  0  0  0
   12.7420  -15.4258   20.0046 C   0  0  0  0  0  0  0  0  0  0  0  0
   12.4409  -14.5424   20.8676 O   0  0  0  0  0  0  0  0  0  0  0  0
   17.2150  -13.9528   18.6579 O   0  0  0  0  0  0  0  0  0  0  0  0
   12.1948  -16.7200   20.1061 N   0  0  0  0  0  0  0  0  0  0  0  0
   11.2871  -17.1146   21.1690 C   0  0  1  0  0  0  0  0  0  0  0  0
   10.1663  -17.9543   20.6736 C   0  0  0  0  0  0  0  0  0  0  0  0
    9.4890  -17.5699   19.4268 C   0  0  0  0  0  0  0  0  0  0  0  0
    8.4623  -18.4551   18.8812 C   0  0  0  0  0  0  0  0  0  0  0  0
    8.1112  -19.5347   19.3890 O   0  0  0  0  0  0  0  0  0  0  0  0
   11.9448  -17.5000   22.4104 C   0  0  0  0  0  0  0  0  0  0  0  0
   13.0212  -18.1904   22.3668 O   0  0  0  0  0  0  0  0  0  0  0  0
    7.7846  -18.1141   17.6936 O   0  0  0  0  0  0  0  0  0  0  0  0
   10.4140  -13.8221   29.8928 N   0  0  0  0  0  0  0  0  0  0  0  0
   10.0026  -13.6888   28.5252 C   0  0  0  0  0  0  0  0  0  0  0  0
    9.0722  -12.8473   28.1969 N   0  0  0  0  0  0  0  0  0  0  0  0
   10.5857  -14.4622   27.4846 N   0  0  0  0  0  0  0  0  0  0  0  0
   11.7411  -15.3074   27.6959 C   0  0  0  0  0  0  0  0  0  0  0  0
   12.0945  -15.9193   26.3442 C   0  0  0  0  0  0  0  0  0  0  0  0
   11.4326  -17.2542   26.1563 C   0  0  0  0  0  0  0  0  0  0  0  0
   11.9018  -17.9076   24.9100 C   0  0  2  0  0  0  0  0  0  0  0  0
   11.4859  -17.1620   23.7162 N   0  0  0  0  0  0  0  0  0  0  0  0
   11.5181  -19.3257   24.8144 C   0  0  0  0  0  0  0  0  0  0  0  0
   12.1702  -20.1986   25.7270 O   0  0  0  0  0  0  0  0  0  0  0  0
   10.7012  -19.8385   24.0374 O   0  0  0  0  0  0  0  0  0  0  0  0
  2  3  1  0
  2  1  1  1
  3  4  1  0
  4  5  2  0
  6  2  1  0
  6  7  2  0
  8  4  1  0
  9  6  1  0
 10  9  1  0
 10 15  1  0
 10 11  1  6
 12 11  1  0
 12 13  1  0
 13 14  2  0
 15 26  1  0
 16 15  2  0
 17 13  1  0
 18 19  1  0
 19 21  1  0
 20 19  2  0
 21 22  1  0
 22 23  1  0
 23 24  1  0
 25 24  1  1
 25 27  1  0
 26 25  1  0
 27 29  2  0
 27 28  1  0
M  END
$$$$
