DER.pdb
     RDKit          3D

 29 28  0  0  1  0  0  0  0  0999 V2000
   15.2420  -19.3116   21.1876 N   0  0  0  0  0  0  0  0  0  0  0  0
   15.7823  -19.8127   22.4130 C   0  0  1  0  0  0  0  0  0  0  0  0
   17.1708  -19.1942   22.6146 C   0  0  0  0  0  0  0  0  0  0  0  0
   17.7638  -19.8696   23.7849 C   0  0  0  0  0  0  0  0  0  0  0  0
   17.3086  -20.9701   24.1538 O   0  0  0  0  0  0  0  0  0  0  0  0
   14.9456  -19.5254   23.5992 C   0  0  0  0  0  0  0  0  0  0  0  0
   15.0817  -18.3736   24.1194 O   0  0  0  0  0  0  0  0  0  0  0  0
   18.8115  -19.2723   24.4514 O   0  0  0  0  0  0  0  0  0  0  0  0
   14.0350  -20.4437   24.1580 N   0  0  0  0  0  0  0  0  0  0  0  0
   13.1639  -20.1159   25.2730 C   0  0  1  0  0  0  0  0  0  0  0  0
   11.8339  -19.6266   24.8275 C   0  0  0  0  0  0  0  0  0  0  0  0
   11.3003  -20.0952   23.5403 C   0  0  0  0  0  0  0  0  0  0  0  0
    9.9396  -19.7189   23.1632 C   0  0  0  0  0  0  0  0  0  0  0  0
    8.9235  -20.3970   23.3972 O   0  0  0  0  0  0  0  0  0  0  0  0
   13.2185  -21.0629   26.3787 C   0  0  0  0  0  0  0  0  0  0  0  0
   12.5034  -22.1231   26.3377 O   0  0  0  0  0  0  0  0  0  0  0  0
    9.6971  -18.5096   22.4815 O   0  0  0  0  0  0  0  0  0  0  0  0
   17.5578  -23.4849   33.0461 N   0  0  0  0  0  0  0  0  0  0  0  0
   16.3701  -22.8209   33.4996 C   0  0  0  0  0  0  0  0  0  0  0  0
   16.3957  -22.0803   34.5637 N   0  0  0  0  0  0  0  0  0  0  0  0
   15.1304  -22.9442   32.8148 N   0  0  0  0  0  0  0  0  0  0  0  0
   14.9931  -22.6806   31.3985 C   0  0  0  0  0  0  0  0  0  0  0  0
   14.1316  -21.4293   31.2632 C   0  0  0  0  0  0  0  0  0  0  0  0
   14.3726  -20.7363   29.9527 C   0  0  0  0  0  0  0  0  0  0  0  0
   13.5906  -21.3730   28.8649 C   0  0  2  0  0  0  0  0  0  0  0  0
   14.0286  -20.9143   27.5413 N   0  0  0  0  0  0  0  0  0  0  0  0
   12.1351  -21.2226   29.0274 C   0  0  0  0  0  0  0  0  0  0  0  0
   11.4868  -22.2726   29.7326 O   0  0  0  0  0  0  0  0  0  0  0  0
   11.4197  -20.2958   28.6235 O   0  0  0  0  0  0  0  0  0  0  0  0
  2  3  1  0
  2  1  1  6
  3  4  1  0
  4  5  2  0
  6  2  1  0
  6  7  2  0
  8  4  1  0
  9  6  1  0
 10  9  1  0
 10 15  1  0
 10 11  1  6
 12 11  1  0
 12 13  1  0
 13 14  2  0
 15 26  1  0
 16 15  2  0
 17 13  1  0
 18 19  1  0
 19 21  1  0
 20 19  2  0
 21 22  1  0
 22 23  1  0
 23 24  1  0
 25 24  1  1
 25 27  1  0
 26 25  1  0
 27 29  2  0
 27 28  1  0
M  END
$$$$
