DER.pdb
     RDKit          3D

 29 28  0  0  1  0  0  0  0  0999 V2000
   10.8441  -18.3358   17.0613 N   0  0  0  0  0  0  0  0  0  0  0  0
   11.6670  -17.9396   18.1615 C   0  0  1  0  0  0  0  0  0  0  0  0
   12.2356  -16.5479   17.8598 C   0  0  0  0  0  0  0  0  0  0  0  0
   13.1754  -16.7148   16.7345 C   0  0  0  0  0  0  0  0  0  0  0  0
   13.2944  -17.8326   16.1954 O   0  0  0  0  0  0  0  0  0  0  0  0
   10.9567  -17.9034   19.4592 C   0  0  0  0  0  0  0  0  0  0  0  0
    9.7525  -17.4975   19.4314 O   0  0  0  0  0  0  0  0  0  0  0  0
   13.9068  -15.6317   16.2980 O   0  0  0  0  0  0  0  0  0  0  0  0
   11.5392  -18.2866   20.6834 N   0  0  0  0  0  0  0  0  0  0  0  0
   10.8112  -18.2886   21.9401 C   0  0  1  0  0  0  0  0  0  0  0  0
   11.2435  -19.3860   22.8431 C   0  0  0  0  0  0  0  0  0  0  0  0
   12.6769  -19.5484   23.1266 C   0  0  0  0  0  0  0  0  0  0  0  0
   13.0823  -20.4103   24.2348 C   0  0  0  0  0  0  0  0  0  0  0  0
   13.2554  -21.6392   24.1535 O   0  0  0  0  0  0  0  0  0  0  0  0
   10.5935  -16.9666   22.5120 C   0  0  0  0  0  0  0  0  0  0  0  0
   11.5733  -16.1488   22.6028 O   0  0  0  0  0  0  0  0  0  0  0  0
   13.3086  -19.8665   25.5150 O   0  0  0  0  0  0  0  0  0  0  0  0
    7.7835  -14.9080   18.2362 N   0  0  0  0  0  0  0  0  0  0  0  0
    7.9165  -13.5010   18.4816 C   0  0  0  0  0  0  0  0  0  0  0  0
    8.2536  -12.6949   17.5234 N   0  0  0  0  0  0  0  0  0  0  0  0
    7.6903  -12.9360   19.7663 N   0  0  0  0  0  0  0  0  0  0  0  0
    7.1167  -13.6910   20.8594 C   0  0  0  0  0  0  0  0  0  0  0  0
    8.2642  -14.4391   21.5301 C   0  0  0  0  0  0  0  0  0  0  0  0
    8.1924  -14.3268   23.0260 C   0  0  0  0  0  0  0  0  0  0  0  0
    9.2144  -15.1863   23.6717 C   0  0  2  0  0  0  0  0  0  0  0  0
    9.3431  -16.4808   22.9922 N   0  0  0  0  0  0  0  0  0  0  0  0
    9.0008  -15.3612   25.1178 C   0  0  0  0  0  0  0  0  0  0  0  0
    8.9048  -16.7074   25.5633 O   0  0  0  0  0  0  0  0  0  0  0  0
    8.8958  -14.4784   25.9801 O   0  0  0  0  0  0  0  0  0  0  0  0
  2  3  1  0
  2  1  1  6
  3  4  1  0
  4  5  2  0
  6  2  1  0
  6  7  2  0
  8  4  1  0
  9  6  1  0
 10  9  1  0
 10 15  1  0
 10 11  1  1
 12 11  1  0
 12 13  1  0
 13 14  2  0
 15 26  1  0
 16 15  2  0
 17 13  1  0
 18 19  1  0
 19 21  1  0
 20 19  2  0
 21 22  1  0
 22 23  1  0
 23 24  1  0
 25 24  1  6
 25 27  1  0
 26 25  1  0
 27 29  2  0
 27 28  1  0
M  END
$$$$
