DER.pdb
     RDKit          3D

 29 28  0  0  1  0  0  0  0  0999 V2000
   10.1959  -18.2496   20.1461 N   0  0  0  0  0  0  0  0  0  0  0  0
   10.5410  -19.4877   20.7727 C   0  0  1  0  0  0  0  0  0  0  0  0
   10.6080  -20.5720   19.6904 C   0  0  0  0  0  0  0  0  0  0  0  0
    9.4289  -20.3734   18.8257 C   0  0  0  0  0  0  0  0  0  0  0  0
    9.1017  -19.2180   18.4905 O   0  0  0  0  0  0  0  0  0  0  0  0
   11.8267  -19.4516   21.5045 C   0  0  0  0  0  0  0  0  0  0  0  0
   11.9342  -20.2416   22.4945 O   0  0  0  0  0  0  0  0  0  0  0  0
    8.7083  -21.4691   18.4029 O   0  0  0  0  0  0  0  0  0  0  0  0
   12.9008  -18.6068   21.1620 N   0  0  0  0  0  0  0  0  0  0  0  0
   14.1185  -18.5162   21.9485 C   0  0  1  0  0  0  0  0  0  0  0  0
   15.2324  -17.8838   21.1963 C   0  0  0  0  0  0  0  0  0  0  0  0
   15.9071  -18.6573   20.1438 C   0  0  0  0  0  0  0  0  0  0  0  0
   16.9476  -18.0078   19.3497 C   0  0  0  0  0  0  0  0  0  0  0  0
   17.0929  -18.1419   18.1217 O   0  0  0  0  0  0  0  0  0  0  0  0
   13.9112  -18.1262   23.3367 C   0  0  0  0  0  0  0  0  0  0  0  0
   13.0310  -17.2416   23.6193 O   0  0  0  0  0  0  0  0  0  0  0  0
   17.8856  -17.1546   19.9646 O   0  0  0  0  0  0  0  0  0  0  0  0
   14.6699  -20.3376   31.3952 N   0  0  0  0  0  0  0  0  0  0  0  0
   13.5611  -20.9438   30.7167 C   0  0  0  0  0  0  0  0  0  0  0  0
   12.7080  -21.6707   31.3690 N   0  0  0  0  0  0  0  0  0  0  0  0
   13.3515  -20.7792   29.3203 N   0  0  0  0  0  0  0  0  0  0  0  0
   12.4928  -19.7487   28.7775 C   0  0  0  0  0  0  0  0  0  0  0  0
   13.3910  -18.7823   28.0122 C   0  0  0  0  0  0  0  0  0  0  0  0
   13.5850  -19.2231   26.5897 C   0  0  0  0  0  0  0  0  0  0  0  0
   14.3679  -18.2207   25.8264 C   0  0  2  0  0  0  0  0  0  0  0  0
   14.6205  -18.6627   24.4498 N   0  0  0  0  0  0  0  0  0  0  0  0
   15.6165  -17.8218   26.4966 C   0  0  0  0  0  0  0  0  0  0  0  0
   16.7764  -17.8157   25.6754 O   0  0  0  0  0  0  0  0  0  0  0  0
   15.7690  -17.4952   27.6815 O   0  0  0  0  0  0  0  0  0  0  0  0
  2  3  1  0
  2  1  1  6
  3  4  1  0
  4  5  2  0
  6  2  1  0
  6  7  2  0
  8  4  1  0
  9  6  1  0
 10  9  1  0
 10 15  1  0
 10 11  1  6
 12 11  1  0
 12 13  1  0
 13 14  2  0
 15 26  1  0
 16 15  2  0
 17 13  1  0
 18 19  1  0
 19 21  1  0
 20 19  2  0
 21 22  1  0
 22 23  1  0
 23 24  1  0
 25 24  1  1
 25 27  1  0
 26 25  1  0
 27 29  2  0
 27 28  1  0
M  END
$$$$
