DER.pdb
     RDKit          3D

 29 28  0  0  1  0  0  0  0  0999 V2000
   12.8231  -16.4172   17.5370 N   0  0  0  0  0  0  0  0  0  0  0  0
   13.2635  -16.3475   18.8957 C   0  0  1  0  0  0  0  0  0  0  0  0
   13.7541  -14.9207   19.1694 C   0  0  0  0  0  0  0  0  0  0  0  0
   14.9512  -14.7216   18.3299 C   0  0  0  0  0  0  0  0  0  0  0  0
   15.5116  -15.7100   17.8165 O   0  0  0  0  0  0  0  0  0  0  0  0
   12.2195  -16.7001   19.8834 C   0  0  0  0  0  0  0  0  0  0  0  0
   11.0177  -16.4691   19.5400 O   0  0  0  0  0  0  0  0  0  0  0  0
   15.4304  -13.4457   18.1273 O   0  0  0  0  0  0  0  0  0  0  0  0
   12.4920  -17.2621   21.1462 N   0  0  0  0  0  0  0  0  0  0  0  0
   11.4514  -17.7193   22.0503 C   0  0  1  0  0  0  0  0  0  0  0  0
   11.7533  -19.0518   22.6334 C   0  0  0  0  0  0  0  0  0  0  0  0
   13.0274  -19.2444   23.3410 C   0  0  0  0  0  0  0  0  0  0  0  0
   13.3857  -20.5869   23.7936 C   0  0  0  0  0  0  0  0  0  0  0  0
   13.1615  -21.0374   24.9310 O   0  0  0  0  0  0  0  0  0  0  0  0
   10.9177  -16.6850   22.9265 C   0  0  0  0  0  0  0  0  0  0  0  0
   11.6862  -16.1235   23.7816 O   0  0  0  0  0  0  0  0  0  0  0  0
   14.0355  -21.4835   22.9220 O   0  0  0  0  0  0  0  0  0  0  0  0
    8.7274  -14.4443   18.2743 N   0  0  0  0  0  0  0  0  0  0  0  0
    8.3451  -13.2049   18.8869 C   0  0  0  0  0  0  0  0  0  0  0  0
    8.1033  -12.1587   18.1600 N   0  0  0  0  0  0  0  0  0  0  0  0
    8.2178  -13.0693   20.2962 N   0  0  0  0  0  0  0  0  0  0  0  0
    8.1350  -14.2089   21.1842 C   0  0  0  0  0  0  0  0  0  0  0  0
    7.9387  -13.6583   22.5930 C   0  0  0  0  0  0  0  0  0  0  0  0
    7.7314  -14.7624   23.5897 C   0  0  0  0  0  0  0  0  0  0  0  0
    9.0253  -15.3727   23.9814 C   0  0  2  0  0  0  0  0  0  0  0  0
    9.5709  -16.2204   22.9147 N   0  0  0  0  0  0  0  0  0  0  0  0
    8.9650  -16.0977   25.2613 C   0  0  0  0  0  0  0  0  0  0  0  0
    8.5714  -15.3222   26.3854 O   0  0  0  0  0  0  0  0  0  0  0  0
    9.2159  -17.2929   25.4672 O   0  0  0  0  0  0  0  0  0  0  0  0
  2  3  1  0
  2  1  1  6
  3  4  1  0
  4  5  2  0
  6  2  1  0
  6  7  2  0
  8  4  1  0
  9  6  1  0
 10  9  1  0
 10 15  1  0
 10 11  1  1
 12 11  1  0
 12 13  1  0
 13 14  2  0
 15 26  1  0
 16 15  2  0
 17 13  1  0
 18 19  1  0
 19 21  1  0
 20 19  2  0
 21 22  1  0
 22 23  1  0
 23 24  1  0
 25 24  1  6
 25 27  1  0
 26 25  1  0
 27 29  2  0
 27 28  1  0
M  END
$$$$
