DER.pdb
     RDKit          3D

 29 28  0  0  1  0  0  0  0  0999 V2000
    8.0566  -18.8390   16.9826 N   0  0  0  0  0  0  0  0  0  0  0  0
    8.3806  -17.4493   17.0749 C   0  0  1  0  0  0  0  0  0  0  0  0
    7.7198  -16.7224   15.8975 C   0  0  0  0  0  0  0  0  0  0  0  0
    8.5557  -16.9982   14.7132 C   0  0  0  0  0  0  0  0  0  0  0  0
    9.4930  -17.8157   14.8009 O   0  0  0  0  0  0  0  0  0  0  0  0
    7.9493  -16.8158   18.3407 C   0  0  0  0  0  0  0  0  0  0  0  0
    8.2022  -15.5764   18.4655 O   0  0  0  0  0  0  0  0  0  0  0  0
    8.2866  -16.3470   13.5291 O   0  0  0  0  0  0  0  0  0  0  0  0
    7.2923  -17.5051   19.3790 N   0  0  0  0  0  0  0  0  0  0  0  0
    6.9264  -16.8789   20.6373 C   0  0  1  0  0  0  0  0  0  0  0  0
    5.5235  -17.1716   21.0284 C   0  0  0  0  0  0  0  0  0  0  0  0
    4.8854  -18.3943   20.5195 C   0  0  0  0  0  0  0  0  0  0  0  0
    3.9914  -19.1415   21.4013 C   0  0  0  0  0  0  0  0  0  0  0  0
    3.6716  -18.7924   22.5514 O   0  0  0  0  0  0  0  0  0  0  0  0
    7.9585  -16.9409   21.6635 C   0  0  0  0  0  0  0  0  0  0  0  0
    8.8093  -17.8964   21.6462 O   0  0  0  0  0  0  0  0  0  0  0  0
    3.4180  -20.3555   20.9729 O   0  0  0  0  0  0  0  0  0  0  0  0
    9.0330  -14.8219   30.3505 N   0  0  0  0  0  0  0  0  0  0  0  0
   10.2545  -14.5616   29.6449 C   0  0  0  0  0  0  0  0  0  0  0  0
   11.2378  -13.9546   30.2333 N   0  0  0  0  0  0  0  0  0  0  0  0
   10.4386  -14.9497   28.2898 N   0  0  0  0  0  0  0  0  0  0  0  0
    9.5177  -14.5724   27.2393 C   0  0  0  0  0  0  0  0  0  0  0  0
    9.8055  -15.4836   26.0506 C   0  0  0  0  0  0  0  0  0  0  0  0
    8.7633  -15.3342   24.9796 C   0  0  0  0  0  0  0  0  0  0  0  0
    9.0685  -16.2047   23.8180 C   0  0  2  0  0  0  0  0  0  0  0  0
    8.1169  -15.9981   22.7198 N   0  0  0  0  0  0  0  0  0  0  0  0
    9.1768  -17.6302   24.1695 C   0  0  0  0  0  0  0  0  0  0  0  0
   10.5009  -18.1226   24.3258 O   0  0  0  0  0  0  0  0  0  0  0  0
    8.2556  -18.4399   24.3418 O   0  0  0  0  0  0  0  0  0  0  0  0
  2  3  1  0
  2  1  1  1
  3  4  1  0
  4  5  2  0
  6  2  1  0
  6  7  2  0
  8  4  1  0
  9  6  1  0
 10  9  1  0
 10 15  1  0
 10 11  1  1
 12 11  1  0
 12 13  1  0
 13 14  2  0
 15 26  1  0
 16 15  2  0
 17 13  1  0
 18 19  1  0
 19 21  1  0
 20 19  2  0
 21 22  1  0
 22 23  1  0
 23 24  1  0
 25 24  1  1
 25 27  1  0
 26 25  1  0
 27 29  2  0
 27 28  1  0
M  END
$$$$
