DER.pdb
     RDKit          3D

 29 28  0  0  1  0  0  0  0  0999 V2000
   12.4134  -22.5200   16.4334 N   0  0  0  0  0  0  0  0  0  0  0  0
   11.6372  -22.5805   17.6328 C   0  0  1  0  0  0  0  0  0  0  0  0
   12.3894  -23.4482   18.6489 C   0  0  0  0  0  0  0  0  0  0  0  0
   12.4365  -24.8100   18.0825 C   0  0  0  0  0  0  0  0  0  0  0  0
   13.3400  -25.1084   17.2770 O   0  0  0  0  0  0  0  0  0  0  0  0
   11.3599  -21.2574   18.2349 C   0  0  0  0  0  0  0  0  0  0  0  0
   12.3718  -20.5347   18.4981 O   0  0  0  0  0  0  0  0  0  0  0  0
   11.4800  -25.7300   18.4534 O   0  0  0  0  0  0  0  0  0  0  0  0
   10.0650  -20.7808   18.5194 N   0  0  0  0  0  0  0  0  0  0  0  0
    9.8108  -19.4631   19.0746 C   0  0  1  0  0  0  0  0  0  0  0  0
    8.8014  -18.7043   18.2922 C   0  0  0  0  0  0  0  0  0  0  0  0
    7.3997  -19.1463   18.3247 C   0  0  0  0  0  0  0  0  0  0  0  0
    6.4107  -18.4098   17.5406 C   0  0  0  0  0  0  0  0  0  0  0  0
    5.9114  -18.8062   16.4727 O   0  0  0  0  0  0  0  0  0  0  0  0
    9.7293  -19.4276   20.5287 C   0  0  0  0  0  0  0  0  0  0  0  0
    8.9997  -20.2819   21.1411 O   0  0  0  0  0  0  0  0  0  0  0  0
    5.9498  -17.1511   17.9755 O   0  0  0  0  0  0  0  0  0  0  0  0
   12.6867  -19.9038   28.4799 N   0  0  0  0  0  0  0  0  0  0  0  0
   12.2172  -21.0596   27.7720 C   0  0  0  0  0  0  0  0  0  0  0  0
   11.8588  -22.1259   28.4172 N   0  0  0  0  0  0  0  0  0  0  0  0
   12.1266  -21.0885   26.3536 N   0  0  0  0  0  0  0  0  0  0  0  0
   12.6205  -20.0143   25.5193 C   0  0  0  0  0  0  0  0  0  0  0  0
   11.4009  -19.3354   24.9045 C   0  0  0  0  0  0  0  0  0  0  0  0
   11.5263  -19.2292   23.4118 C   0  0  0  0  0  0  0  0  0  0  0  0
   10.3410  -18.5559   22.8269 C   0  0  2  0  0  0  0  0  0  0  0  0
   10.4166  -18.4988   21.3622 N   0  0  0  0  0  0  0  0  0  0  0  0
   10.0838  -17.2246   23.4005 C   0  0  0  0  0  0  0  0  0  0  0  0
   10.2794  -16.1295   22.5159 O   0  0  0  0  0  0  0  0  0  0  0  0
    9.7211  -16.9539   24.5533 O   0  0  0  0  0  0  0  0  0  0  0  0
  2  3  1  0
  2  1  1  6
  3  4  1  0
  4  5  2  0
  6  2  1  0
  6  7  2  0
  8  4  1  0
  9  6  1  0
 10  9  1  0
 10 15  1  0
 10 11  1  6
 12 11  1  0
 12 13  1  0
 13 14  2  0
 15 26  1  0
 16 15  2  0
 17 13  1  0
 18 19  1  0
 19 21  1  0
 20 19  2  0
 21 22  1  0
 22 23  1  0
 23 24  1  0
 25 24  1  1
 25 27  1  0
 26 25  1  0
 27 29  2  0
 27 28  1  0
M  END
$$$$
