DER.pdb
     RDKit          3D

 29 28  0  0  1  0  0  0  0  0999 V2000
   10.0972  -17.4503   19.6385 N   0  0  0  0  0  0  0  0  0  0  0  0
    9.6596  -18.6793   20.2239 C   0  0  1  0  0  0  0  0  0  0  0  0
    9.0932  -19.5676   19.1097 C   0  0  0  0  0  0  0  0  0  0  0  0
    8.6649  -18.6599   18.0280 C   0  0  0  0  0  0  0  0  0  0  0  0
    8.8347  -17.4313   18.1550 O   0  0  0  0  0  0  0  0  0  0  0  0
   10.7256  -19.4164   20.9382 C   0  0  0  0  0  0  0  0  0  0  0  0
   10.3834  -20.5102   21.4880 O   0  0  0  0  0  0  0  0  0  0  0  0
    8.0837  -19.1855   16.8946 O   0  0  0  0  0  0  0  0  0  0  0  0
   12.0592  -18.9721   21.0317 N   0  0  0  0  0  0  0  0  0  0  0  0
   13.1020  -19.7325   21.6979 C   0  0  1  0  0  0  0  0  0  0  0  0
   14.2948  -19.9335   20.8355 C   0  0  0  0  0  0  0  0  0  0  0  0
   15.4002  -18.9678   20.9170 C   0  0  0  0  0  0  0  0  0  0  0  0
   16.5733  -19.1670   20.0688 C   0  0  0  0  0  0  0  0  0  0  0  0
   16.7619  -18.6090   18.9734 O   0  0  0  0  0  0  0  0  0  0  0  0
   13.3099  -19.3741   23.0945 C   0  0  0  0  0  0  0  0  0  0  0  0
   13.6615  -18.1810   23.3946 O   0  0  0  0  0  0  0  0  0  0  0  0
   17.6010  -20.0446   20.4680 O   0  0  0  0  0  0  0  0  0  0  0  0
   10.9508  -22.5494   31.2405 N   0  0  0  0  0  0  0  0  0  0  0  0
   11.1917  -21.1364   31.1894 C   0  0  0  0  0  0  0  0  0  0  0  0
   10.9035  -20.3826   32.2045 N   0  0  0  0  0  0  0  0  0  0  0  0
   11.7469  -20.5081   30.0414 N   0  0  0  0  0  0  0  0  0  0  0  0
   12.1187  -21.2454   28.8530 C   0  0  0  0  0  0  0  0  0  0  0  0
   12.6288  -20.2247   27.8410 C   0  0  0  0  0  0  0  0  0  0  0  0
   13.0420  -20.8847   26.5567 C   0  0  0  0  0  0  0  0  0  0  0  0
   13.5042  -19.8792   25.5690 C   0  0  2  0  0  0  0  0  0  0  0  0
   13.1465  -20.2608   24.1977 N   0  0  0  0  0  0  0  0  0  0  0  0
   14.9391  -19.5690   25.6798 C   0  0  0  0  0  0  0  0  0  0  0  0
   15.2667  -18.4917   26.5471 O   0  0  0  0  0  0  0  0  0  0  0  0
   15.8823  -20.1336   25.1092 O   0  0  0  0  0  0  0  0  0  0  0  0
  2  3  1  0
  2  1  1  6
  3  4  1  0
  4  5  2  0
  6  2  1  0
  6  7  2  0
  8  4  1  0
  9  6  1  0
 10  9  1  0
 10 15  1  0
 10 11  1  6
 12 11  1  0
 12 13  1  0
 13 14  2  0
 15 26  1  0
 16 15  2  0
 17 13  1  0
 18 19  1  0
 19 21  1  0
 20 19  2  0
 21 22  1  0
 22 23  1  0
 23 24  1  0
 25 24  1  1
 25 27  1  0
 26 25  1  0
 27 29  2  0
 27 28  1  0
M  END
$$$$
