DER.pdb
     RDKit          3D

 29 28  0  0  1  0  0  0  0  0999 V2000
    9.6599  -17.6966   16.0770 N   0  0  0  0  0  0  0  0  0  0  0  0
   10.0787  -18.6854   17.0212 C   0  0  1  0  0  0  0  0  0  0  0  0
   11.6116  -18.6933   17.0609 C   0  0  0  0  0  0  0  0  0  0  0  0
   12.0637  -19.0287   15.6970 C   0  0  0  0  0  0  0  0  0  0  0  0
   11.2317  -19.4151   14.8526 O   0  0  0  0  0  0  0  0  0  0  0  0
    9.5584  -18.4667   18.3892 C   0  0  0  0  0  0  0  0  0  0  0  0
    9.3208  -17.2615   18.7159 O   0  0  0  0  0  0  0  0  0  0  0  0
   13.3991  -18.9094   15.3787 O   0  0  0  0  0  0  0  0  0  0  0  0
    9.3234  -19.5030   19.3141 N   0  0  0  0  0  0  0  0  0  0  0  0
    8.7613  -19.2740   20.6336 C   0  0  1  0  0  0  0  0  0  0  0  0
    7.9701  -20.4330   21.1208 C   0  0  0  0  0  0  0  0  0  0  0  0
    8.6797  -21.5853   21.6953 C   0  0  0  0  0  0  0  0  0  0  0  0
    7.8986  -22.6755   22.2756 C   0  0  0  0  0  0  0  0  0  0  0  0
    7.9873  -23.0655   23.4532 O   0  0  0  0  0  0  0  0  0  0  0  0
    9.6632  -18.6105   21.5655 C   0  0  0  0  0  0  0  0  0  0  0  0
   10.9271  -18.7654   21.4396 O   0  0  0  0  0  0  0  0  0  0  0  0
    6.9590  -23.3750   21.4921 O   0  0  0  0  0  0  0  0  0  0  0  0
    8.9528  -13.1346   28.7937 N   0  0  0  0  0  0  0  0  0  0  0  0
    9.9027  -14.2015   28.9236 C   0  0  0  0  0  0  0  0  0  0  0  0
   10.4410  -14.4670   30.0730 N   0  0  0  0  0  0  0  0  0  0  0  0
   10.2920  -15.0020   27.8153 N   0  0  0  0  0  0  0  0  0  0  0  0
    9.8991  -14.6957   26.4567 C   0  0  0  0  0  0  0  0  0  0  0  0
   10.5294  -15.7594   25.5636 C   0  0  0  0  0  0  0  0  0  0  0  0
    9.5520  -16.2688   24.5434 C   0  0  0  0  0  0  0  0  0  0  0  0
   10.2041  -17.2256   23.6163 C   0  0  2  0  0  0  0  0  0  0  0  0
    9.2527  -17.7700   22.6402 N   0  0  0  0  0  0  0  0  0  0  0  0
   10.9350  -18.3011   24.3065 C   0  0  0  0  0  0  0  0  0  0  0  0
   12.2959  -18.0211   24.6060 O   0  0  0  0  0  0  0  0  0  0  0  0
   10.5036  -19.4097   24.6513 O   0  0  0  0  0  0  0  0  0  0  0  0
  2  3  1  0
  2  1  1  6
  3  4  1  0
  4  5  2  0
  6  2  1  0
  6  7  2  0
  8  4  1  0
  9  6  1  0
 10  9  1  0
 10 15  1  0
 10 11  1  1
 12 11  1  0
 12 13  1  0
 13 14  2  0
 15 26  1  0
 16 15  2  0
 17 13  1  0
 18 19  1  0
 19 21  1  0
 20 19  2  0
 21 22  1  0
 22 23  1  0
 23 24  1  0
 25 24  1  1
 25 27  1  0
 26 25  1  0
 27 29  2  0
 27 28  1  0
M  END
$$$$
