DER.pdb
     RDKit          3D

 29 28  0  0  1  0  0  0  0  0999 V2000
   12.8803  -20.6385   19.0988 N   0  0  0  0  0  0  0  0  0  0  0  0
   12.6121  -19.3316   18.5843 C   0  0  1  0  0  0  0  0  0  0  0  0
   12.1014  -19.4767   17.1458 C   0  0  0  0  0  0  0  0  0  0  0  0
   12.0840  -18.1187   16.5690 C   0  0  0  0  0  0  0  0  0  0  0  0
   12.4493  -17.1516   17.2659 O   0  0  0  0  0  0  0  0  0  0  0  0
   11.6232  -18.5667   19.3761 C   0  0  0  0  0  0  0  0  0  0  0  0
   12.0230  -17.4623   19.8620 O   0  0  0  0  0  0  0  0  0  0  0  0
   11.6639  -17.9416   15.2687 O   0  0  0  0  0  0  0  0  0  0  0  0
   10.3015  -18.9965   19.6067 N   0  0  0  0  0  0  0  0  0  0  0  0
    9.4042  -18.3328   20.5361 C   0  0  1  0  0  0  0  0  0  0  0  0
    7.9747  -18.5448   20.1919 C   0  0  0  0  0  0  0  0  0  0  0  0
    7.6395  -19.1519   18.8957 C   0  0  0  0  0  0  0  0  0  0  0  0
    6.2462  -19.4929   18.6170 C   0  0  0  0  0  0  0  0  0  0  0  0
    5.3001  -19.3189   19.4053 O   0  0  0  0  0  0  0  0  0  0  0  0
    9.8022  -18.4340   21.9338 C   0  0  0  0  0  0  0  0  0  0  0  0
   10.0815  -19.5801   22.4293 O   0  0  0  0  0  0  0  0  0  0  0  0
    5.8857  -20.0645   17.3804 O   0  0  0  0  0  0  0  0  0  0  0  0
   17.0780  -18.0479   22.8878 N   0  0  0  0  0  0  0  0  0  0  0  0
   16.4823  -16.7714   23.1584 C   0  0  0  0  0  0  0  0  0  0  0  0
   17.2243  -15.7213   23.3263 N   0  0  0  0  0  0  0  0  0  0  0  0
   15.0741  -16.6029   23.2549 N   0  0  0  0  0  0  0  0  0  0  0  0
   14.2021  -17.6251   23.7923 C   0  0  0  0  0  0  0  0  0  0  0  0
   12.7964  -17.0342   23.8261 C   0  0  0  0  0  0  0  0  0  0  0  0
   11.7795  -18.0605   24.2357 C   0  0  0  0  0  0  0  0  0  0  0  0
   10.4100  -17.4914   24.2049 C   0  0  2  0  0  0  0  0  0  0  0  0
    9.9184  -17.3334   22.8310 N   0  0  0  0  0  0  0  0  0  0  0  0
   10.2819  -16.2373   24.9653 C   0  0  0  0  0  0  0  0  0  0  0  0
   10.5273  -16.3408   26.3614 O   0  0  0  0  0  0  0  0  0  0  0  0
    9.9874  -15.1153   24.5315 O   0  0  0  0  0  0  0  0  0  0  0  0
  2  3  1  0
  2  1  1  1
  3  4  1  0
  4  5  2  0
  6  2  1  0
  6  7  2  0
  8  4  1  0
  9  6  1  0
 10  9  1  0
 10 15  1  0
 10 11  1  1
 12 11  1  0
 12 13  1  0
 13 14  2  0
 15 26  1  0
 16 15  2  0
 17 13  1  0
 18 19  1  0
 19 21  1  0
 20 19  2  0
 21 22  1  0
 22 23  1  0
 23 24  1  0
 25 24  1  6
 25 27  1  0
 26 25  1  0
 27 29  2  0
 27 28  1  0
M  END
$$$$
