DER.pdb
     RDKit          3D

 29 28  0  0  1  0  0  0  0  0999 V2000
   10.1937  -17.1243   15.9468 N   0  0  0  0  0  0  0  0  0  0  0  0
    9.3015  -16.3370   16.7397 C   0  0  1  0  0  0  0  0  0  0  0  0
    7.9813  -16.1887   15.9738 C   0  0  0  0  0  0  0  0  0  0  0  0
    8.3327  -16.1305   14.5419 C   0  0  0  0  0  0  0  0  0  0  0  0
    9.5247  -16.2522   14.1973 O   0  0  0  0  0  0  0  0  0  0  0  0
    9.0258  -16.9071   18.0772 C   0  0  0  0  0  0  0  0  0  0  0  0
    8.2282  -16.2495   18.8167 O   0  0  0  0  0  0  0  0  0  0  0  0
    7.3367  -15.9423   13.6084 O   0  0  0  0  0  0  0  0  0  0  0  0
    9.5913  -18.1077   18.5499 N   0  0  0  0  0  0  0  0  0  0  0  0
    9.3077  -18.6518   19.8664 C   0  0  1  0  0  0  0  0  0  0  0  0
    9.1539  -20.1292   19.8472 C   0  0  0  0  0  0  0  0  0  0  0  0
    9.0173  -20.8449   21.1240 C   0  0  0  0  0  0  0  0  0  0  0  0
    8.8795  -22.2995   21.1047 C   0  0  0  0  0  0  0  0  0  0  0  0
    8.1896  -22.9378   20.2901 O   0  0  0  0  0  0  0  0  0  0  0  0
   10.0790  -18.0499   20.9457 C   0  0  0  0  0  0  0  0  0  0  0  0
   11.3548  -18.0028   20.8599 O   0  0  0  0  0  0  0  0  0  0  0  0
    9.5540  -23.0923   22.0547 O   0  0  0  0  0  0  0  0  0  0  0  0
    8.9271  -13.2479   28.6601 N   0  0  0  0  0  0  0  0  0  0  0  0
   10.1536  -13.9914   28.6473 C   0  0  0  0  0  0  0  0  0  0  0  0
   10.9464  -13.9708   29.6733 N   0  0  0  0  0  0  0  0  0  0  0  0
   10.5501  -14.7708   27.5264 N   0  0  0  0  0  0  0  0  0  0  0  0
    9.6106  -15.2338   26.5279 C   0  0  0  0  0  0  0  0  0  0  0  0
   10.4255  -15.9322   25.4442 C   0  0  0  0  0  0  0  0  0  0  0  0
    9.5474  -16.4282   24.3314 C   0  0  0  0  0  0  0  0  0  0  0  0
   10.3549  -17.0689   23.2647 C   0  0  2  0  0  0  0  0  0  0  0  0
    9.5229  -17.4834   22.1288 N   0  0  0  0  0  0  0  0  0  0  0  0
   11.1868  -18.1818   23.7513 C   0  0  0  0  0  0  0  0  0  0  0  0
   12.5361  -17.8510   24.0512 O   0  0  0  0  0  0  0  0  0  0  0  0
   10.8482  -19.3602   23.9264 O   0  0  0  0  0  0  0  0  0  0  0  0
  2  3  1  0
  2  1  1  6
  3  4  1  0
  4  5  2  0
  6  2  1  0
  6  7  2  0
  8  4  1  0
  9  6  1  0
 10  9  1  0
 10 15  1  0
 10 11  1  6
 12 11  1  0
 12 13  1  0
 13 14  2  0
 15 26  1  0
 16 15  2  0
 17 13  1  0
 18 19  1  0
 19 21  1  0
 20 19  2  0
 21 22  1  0
 22 23  1  0
 23 24  1  0
 25 24  1  1
 25 27  1  0
 26 25  1  0
 27 29  2  0
 27 28  1  0
M  END
$$$$
