GFN.pdb
     RDKit          3D

 24 24  0  0  1  0  0  0  0  0999 V2000
    9.6435  -17.9900   17.6513 N   0  0  0  0  0  0  0  0  0  0  0  0
    8.5972  -18.1621   18.6412 C   0  0  0  0  0  0  0  0  0  0  0  0
    9.0126  -17.4241   19.8673 C   0  0  0  0  0  0  0  0  0  0  0  0
   10.2122  -17.0589   20.0149 O   0  0  0  0  0  0  0  0  0  0  0  0
    8.1162  -17.1001   20.9057 N   0  0  0  0  0  0  0  0  0  0  0  0
    8.6086  -16.5170   22.1636 C   0  0  1  0  0  0  0  0  0  0  0  0
    7.6006  -15.4727   22.6094 C   0  0  0  0  0  0  0  0  0  0  0  0
    7.4699  -14.3460   21.6805 C   0  0  0  0  0  0  0  0  0  0  0  0
    6.6704  -14.4337   20.5639 C   0  0  0  0  0  0  0  0  0  0  0  0
    6.5424  -13.3771   19.7103 C   0  0  0  0  0  0  0  0  0  0  0  0
    7.2325  -12.2180   19.9917 C   0  0  0  0  0  0  0  0  0  0  0  0
    8.0400  -12.0981   21.0999 C   0  0  0  0  0  0  0  0  0  0  0  0
    8.1647  -13.1775   21.9626 C   0  0  0  0  0  0  0  0  0  0  0  0
    8.8026  -17.5655   23.1807 C   0  0  0  0  0  0  0  0  0  0  0  0
    8.2505  -18.6905   23.0005 O   0  0  0  0  0  0  0  0  0  0  0  0
   12.9055  -20.5018   22.8528 N   0  0  0  0  0  0  0  0  0  0  0  0
   11.6839  -19.8077   23.1417 C   0  0  0  0  0  0  0  0  0  0  0  0
   10.6082  -20.4919   23.0258 O   0  0  0  0  0  0  0  0  0  0  0  0
   11.6353  -18.3892   23.5502 C   0  0  0  0  0  0  0  0  0  0  0  0
   10.6634  -18.2363   24.6873 C   0  0  2  0  0  0  0  0  0  0  0  0
    9.5785  -17.3210   24.3175 N   0  0  0  0  0  0  0  0  0  0  0  0
   11.3731  -17.7308   25.8763 C   0  0  0  0  0  0  0  0  0  0  0  0
   11.9508  -16.6069   25.8084 O   0  0  0  0  0  0  0  0  0  0  0  0
   11.4490  -18.4148   27.0824 O   0  0  0  0  0  0  0  0  0  0  0  0
  1  2  1  0
  3  2  1  0
  3  4  2  0
  5  3  1  0
  6 14  1  0
  6  5  1  0
  6  7  1  1
  8  7  1  0
  9  8  2  0
 10  9  1  0
 11 12  1  0
 11 10  2  0
 12 13  2  0
 13  8  1  0
 14 21  1  0
 15 14  2  0
 16 17  1  0
 17 18  2  0
 20 19  1  6
 19 17  1  0
 21 20  1  0
 22 24  1  0
 22 20  1  0
 23 22  2  0
M  END
$$$$
