GFN.pdb
     RDKit          3D

 24 24  0  0  1  0  0  0  0  0999 V2000
    8.6043  -16.3715   18.4269 N   0  0  0  0  0  0  0  0  0  0  0  0
    7.4870  -16.3257   19.3508 C   0  0  0  0  0  0  0  0  0  0  0  0
    7.9495  -15.6235   20.5811 C   0  0  0  0  0  0  0  0  0  0  0  0
    9.1781  -15.3920   20.7583 O   0  0  0  0  0  0  0  0  0  0  0  0
    7.0677  -15.1890   21.5912 N   0  0  0  0  0  0  0  0  0  0  0  0
    7.5864  -14.5686   22.8204 C   0  0  1  0  0  0  0  0  0  0  0  0
    6.4386  -13.8210   23.4753 C   0  0  0  0  0  0  0  0  0  0  0  0
    6.7944  -13.1986   24.7540 C   0  0  0  0  0  0  0  0  0  0  0  0
    7.6068  -12.0890   24.8036 C   0  0  0  0  0  0  0  0  0  0  0  0
    7.9236  -11.5063   25.9959 C   0  0  0  0  0  0  0  0  0  0  0  0
    7.4108  -12.0545   27.1515 C   0  0  0  0  0  0  0  0  0  0  0  0
    6.5955  -13.1633   27.1361 C   0  0  0  0  0  0  0  0  0  0  0  0
    6.2786  -13.7497   25.9193 C   0  0  0  0  0  0  0  0  0  0  0  0
    8.1609  -15.5894   23.7144 C   0  0  0  0  0  0  0  0  0  0  0  0
    7.5348  -16.6791   23.8673 O   0  0  0  0  0  0  0  0  0  0  0  0
   12.6085  -18.5998   24.1370 N   0  0  0  0  0  0  0  0  0  0  0  0
   12.4652  -17.3808   24.8793 C   0  0  0  0  0  0  0  0  0  0  0  0
   13.0982  -17.3221   25.9904 O   0  0  0  0  0  0  0  0  0  0  0  0
   11.6441  -16.2432   24.4180 C   0  0  0  0  0  0  0  0  0  0  0  0
   10.2104  -16.4810   24.8040 C   0  0  2  0  0  0  0  0  0  0  0  0
    9.3694  -15.3574   24.3776 N   0  0  0  0  0  0  0  0  0  0  0  0
   10.1175  -16.6612   26.2641 C   0  0  0  0  0  0  0  0  0  0  0  0
   10.4597  -17.7726   26.7634 O   0  0  0  0  0  0  0  0  0  0  0  0
    9.6751  -15.6782   27.1396 O   0  0  0  0  0  0  0  0  0  0  0  0
  1  2  1  0
  3  2  1  0
  3  4  2  0
  5  3  1  0
  6 14  1  0
  6  5  1  0
  6  7  1  1
  8  7  1  0
  9  8  2  0
 10  9  1  0
 11 12  1  0
 11 10  2  0
 12 13  2  0
 13  8  1  0
 14 21  1  0
 15 14  2  0
 16 17  1  0
 17 18  2  0
 20 19  1  1
 19 17  1  0
 21 20  1  0
 22 24  1  0
 22 20  1  0
 23 22  2  0
M  END
$$$$
