GFN.pdb
     RDKit          3D

 24 24  0  0  1  0  0  0  0  0999 V2000
    9.0562  -16.4181   19.0372 N   0  0  0  0  0  0  0  0  0  0  0  0
    7.9078  -16.4980   19.9197 C   0  0  0  0  0  0  0  0  0  0  0  0
    8.2820  -15.8425   21.2046 C   0  0  0  0  0  0  0  0  0  0  0  0
    9.4836  -15.5294   21.4335 O   0  0  0  0  0  0  0  0  0  0  0  0
    7.3430  -15.5426   22.2122 N   0  0  0  0  0  0  0  0  0  0  0  0
    7.7705  -14.9013   23.4656 C   0  0  1  0  0  0  0  0  0  0  0  0
    6.5407  -14.2823   24.1056 C   0  0  0  0  0  0  0  0  0  0  0  0
    6.8325  -13.5111   25.3177 C   0  0  0  0  0  0  0  0  0  0  0  0
    8.0633  -13.5845   25.9286 C   0  0  0  0  0  0  0  0  0  0  0  0
    8.3332  -12.8542   27.0490 C   0  0  0  0  0  0  0  0  0  0  0  0
    7.3441  -12.0397   27.5561 C   0  0  0  0  0  0  0  0  0  0  0  0
    6.1029  -11.9437   26.9689 C   0  0  0  0  0  0  0  0  0  0  0  0
    5.8368  -12.6901   25.8300 C   0  0  0  0  0  0  0  0  0  0  0  0
    8.4206  -15.8807   24.3541 C   0  0  0  0  0  0  0  0  0  0  0  0
    7.7501  -16.8824   24.7415 O   0  0  0  0  0  0  0  0  0  0  0  0
   12.8120  -15.8883   22.8956 N   0  0  0  0  0  0  0  0  0  0  0  0
   12.1866  -16.8789   23.7232 C   0  0  0  0  0  0  0  0  0  0  0  0
   11.8392  -17.9626   23.1370 O   0  0  0  0  0  0  0  0  0  0  0  0
   11.9429  -16.6911   25.1677 C   0  0  0  0  0  0  0  0  0  0  0  0
   10.4666  -16.7896   25.4359 C   0  0  2  0  0  0  0  0  0  0  0  0
    9.7471  -15.7054   24.7588 N   0  0  0  0  0  0  0  0  0  0  0  0
   10.2256  -16.7310   26.8890 C   0  0  0  0  0  0  0  0  0  0  0  0
    9.9604  -17.8038   27.5059 O   0  0  0  0  0  0  0  0  0  0  0  0
   10.2726  -15.5612   27.6357 O   0  0  0  0  0  0  0  0  0  0  0  0
  1  2  1  0
  3  2  1  0
  3  4  2  0
  5  3  1  0
  6 14  1  0
  6  5  1  0
  6  7  1  1
  8  7  1  0
  9  8  2  0
 10  9  1  0
 11 12  1  0
 11 10  2  0
 12 13  2  0
 13  8  1  0
 14 21  1  0
 15 14  2  0
 16 17  1  0
 17 18  2  0
 20 19  1  1
 19 17  1  0
 21 20  1  0
 22 24  1  0
 22 20  1  0
 23 22  2  0
M  END
$$$$
