GFN.pdb
     RDKit          3D

 24 24  0  0  1  0  0  0  0  0999 V2000
    9.5765  -17.9874   20.3940 N   0  0  0  0  0  0  0  0  0  0  0  0
    8.6247  -18.0473   21.4869 C   0  0  0  0  0  0  0  0  0  0  0  0
    8.6932  -16.7485   22.2143 C   0  0  0  0  0  0  0  0  0  0  0  0
    9.5856  -15.9032   21.9254 O   0  0  0  0  0  0  0  0  0  0  0  0
    7.7917  -16.3972   23.2393 N   0  0  0  0  0  0  0  0  0  0  0  0
    7.9545  -15.1354   23.9782 C   0  0  1  0  0  0  0  0  0  0  0  0
    6.6542  -14.8646   24.7138 C   0  0  0  0  0  0  0  0  0  0  0  0
    6.6393  -13.5873   25.4330 C   0  0  0  0  0  0  0  0  0  0  0  0
    5.6511  -13.2960   26.3453 C   0  0  0  0  0  0  0  0  0  0  0  0
    5.6501  -12.1108   27.0214 C   0  0  0  0  0  0  0  0  0  0  0  0
    6.6625  -11.2105   26.7700 C   0  0  0  0  0  0  0  0  0  0  0  0
    7.6654  -11.4715   25.8640 C   0  0  0  0  0  0  0  0  0  0  0  0
    7.6586  -12.6789   25.1807 C   0  0  0  0  0  0  0  0  0  0  0  0
    9.1020  -15.2177   24.8991 C   0  0  0  0  0  0  0  0  0  0  0  0
    9.4896  -14.1597   25.4765 O   0  0  0  0  0  0  0  0  0  0  0  0
    9.7178  -14.6924   29.0611 N   0  0  0  0  0  0  0  0  0  0  0  0
   10.6544  -15.4017   28.2383 C   0  0  0  0  0  0  0  0  0  0  0  0
   11.8334  -14.9072   28.1750 O   0  0  0  0  0  0  0  0  0  0  0  0
   10.3112  -16.6310   27.4951 C   0  0  0  0  0  0  0  0  0  0  0  0
   10.8465  -16.5260   26.0939 C   0  0  2  0  0  0  0  0  0  0  0  0
    9.7462  -16.4370   25.1280 N   0  0  0  0  0  0  0  0  0  0  0  0
   11.6886  -17.6997   25.7998 C   0  0  0  0  0  0  0  0  0  0  0  0
   11.1509  -18.7191   25.2770 O   0  0  0  0  0  0  0  0  0  0  0  0
   13.0512  -17.7606   26.0606 O   0  0  0  0  0  0  0  0  0  0  0  0
  1  2  1  0
  3  2  1  0
  3  4  2  0
  5  3  1  0
  6 14  1  0
  6  5  1  0
  6  7  1  1
  8  7  1  0
  9  8  2  0
 10  9  1  0
 11 12  1  0
 11 10  2  0
 12 13  2  0
 13  8  1  0
 14 21  1  0
 15 14  2  0
 16 17  1  0
 17 18  2  0
 20 19  1  1
 19 17  1  0
 21 20  1  0
 22 24  1  0
 22 20  1  0
 23 22  2  0
M  END
$$$$
