GFN.pdb
     RDKit          3D

 24 24  0  0  1  0  0  0  0  0999 V2000
    7.1070  -15.3014   19.6817 N   0  0  0  0  0  0  0  0  0  0  0  0
    6.7174  -15.8760   20.9553 C   0  0  0  0  0  0  0  0  0  0  0  0
    7.5400  -15.2240   22.0130 C   0  0  0  0  0  0  0  0  0  0  0  0
    8.4269  -14.3812   21.7008 O   0  0  0  0  0  0  0  0  0  0  0  0
    7.3816  -15.5024   23.3857 N   0  0  0  0  0  0  0  0  0  0  0  0
    8.1579  -14.7625   24.3931 C   0  0  1  0  0  0  0  0  0  0  0  0
    7.3255  -14.7062   25.6616 C   0  0  0  0  0  0  0  0  0  0  0  0
    7.0440  -13.3429   26.1214 C   0  0  0  0  0  0  0  0  0  0  0  0
    8.0598  -12.4972   26.5040 C   0  0  0  0  0  0  0  0  0  0  0  0
    7.7926  -11.2250   26.9183 C   0  0  0  0  0  0  0  0  0  0  0  0
    6.4804  -10.8050   26.9450 C   0  0  0  0  0  0  0  0  0  0  0  0
    5.4417  -11.6260   26.5687 C   0  0  0  0  0  0  0  0  0  0  0  0
    5.7224  -12.9182   26.1490 C   0  0  0  0  0  0  0  0  0  0  0  0
    9.4635  -15.4074   24.6185 C   0  0  0  0  0  0  0  0  0  0  0  0
   10.3274  -14.7950   25.3124 O   0  0  0  0  0  0  0  0  0  0  0  0
   12.1439  -18.5826   27.4006 N   0  0  0  0  0  0  0  0  0  0  0  0
   10.9229  -18.9767   26.7593 C   0  0  0  0  0  0  0  0  0  0  0  0
   10.6473  -20.2262   26.7956 O   0  0  0  0  0  0  0  0  0  0  0  0
   10.0162  -18.0234   26.0879 C   0  0  0  0  0  0  0  0  0  0  0  0
   10.6265  -17.5992   24.7808 C   0  0  2  0  0  0  0  0  0  0  0  0
    9.7395  -16.6665   24.0774 N   0  0  0  0  0  0  0  0  0  0  0  0
   10.8795  -18.7883   23.9471 C   0  0  0  0  0  0  0  0  0  0  0  0
   11.9805  -19.3989   24.0755 O   0  0  0  0  0  0  0  0  0  0  0  0
    9.9767  -19.2902   23.0189 O   0  0  0  0  0  0  0  0  0  0  0  0
  1  2  1  0
  3  2  1  0
  3  4  2  0
  5  3  1  0
  6 14  1  0
  6  5  1  0
  6  7  1  1
  8  7  1  0
  9  8  2  0
 10  9  1  0
 11 12  1  0
 11 10  2  0
 12 13  2  0
 13  8  1  0
 14 21  1  0
 15 14  2  0
 16 17  1  0
 17 18  2  0
 20 19  1  1
 19 17  1  0
 21 20  1  0
 22 24  1  0
 22 20  1  0
 23 22  2  0
M  END
$$$$
