GFN.pdb
     RDKit          3D

 24 24  0  0  1  0  0  0  0  0999 V2000
    9.6138  -16.6345   18.9612 N   0  0  0  0  0  0  0  0  0  0  0  0
    8.4292  -16.7294   19.7930 C   0  0  0  0  0  0  0  0  0  0  0  0
    8.6885  -15.9483   21.0353 C   0  0  0  0  0  0  0  0  0  0  0  0
    9.8728  -15.7309   21.4151 O   0  0  0  0  0  0  0  0  0  0  0  0
    7.6559  -15.4217   21.8373 N   0  0  0  0  0  0  0  0  0  0  0  0
    7.9615  -14.7941   23.1325 C   0  0  1  0  0  0  0  0  0  0  0  0
    6.7238  -14.0351   23.5767 C   0  0  0  0  0  0  0  0  0  0  0  0
    6.9013  -13.3035   24.8346 C   0  0  0  0  0  0  0  0  0  0  0  0
    6.2931  -13.7250   25.9948 C   0  0  0  0  0  0  0  0  0  0  0  0
    6.4729  -13.0473   27.1653 C   0  0  0  0  0  0  0  0  0  0  0  0
    7.2787  -11.9295   27.1599 C   0  0  0  0  0  0  0  0  0  0  0  0
    7.9013  -11.4820   26.0168 C   0  0  0  0  0  0  0  0  0  0  0  0
    7.7128  -12.1769   24.8309 C   0  0  0  0  0  0  0  0  0  0  0  0
    8.3682  -15.8108   24.1186 C   0  0  0  0  0  0  0  0  0  0  0  0
    7.6142  -16.8116   24.2998 O   0  0  0  0  0  0  0  0  0  0  0  0
   12.6072  -16.7274   23.2170 N   0  0  0  0  0  0  0  0  0  0  0  0
   11.8173  -17.4438   24.1764 C   0  0  0  0  0  0  0  0  0  0  0  0
   11.3595  -18.5762   23.7937 O   0  0  0  0  0  0  0  0  0  0  0  0
   11.5301  -16.9333   25.5323 C   0  0  0  0  0  0  0  0  0  0  0  0
   10.0448  -16.7608   25.6901 C   0  0  2  0  0  0  0  0  0  0  0  0
    9.5596  -15.6710   24.8364 N   0  0  0  0  0  0  0  0  0  0  0  0
    9.7294  -16.4802   27.1025 C   0  0  0  0  0  0  0  0  0  0  0  0
    9.5959  -17.4527   27.9013 O   0  0  0  0  0  0  0  0  0  0  0  0
    9.5687  -15.2023   27.6214 O   0  0  0  0  0  0  0  0  0  0  0  0
  1  2  1  0
  3  2  1  0
  3  4  2  0
  5  3  1  0
  6 14  1  0
  6  5  1  0
  6  7  1  1
  8  7  1  0
  9  8  2  0
 10  9  1  0
 11 12  1  0
 11 10  2  0
 12 13  2  0
 13  8  1  0
 14 21  1  0
 15 14  2  0
 16 17  1  0
 17 18  2  0
 20 19  1  1
 19 17  1  0
 21 20  1  0
 22 24  1  0
 22 20  1  0
 23 22  2  0
M  END
$$$$
