GFN.pdb
     RDKit          3D

 24 24  0  0  1  0  0  0  0  0999 V2000
    5.0344  -19.6423   21.6070 N   0  0  0  0  0  0  0  0  0  0  0  0
    5.5496  -19.6219   22.9628 C   0  0  0  0  0  0  0  0  0  0  0  0
    6.1269  -18.2694   23.2040 C   0  0  0  0  0  0  0  0  0  0  0  0
    6.6865  -17.6390   22.2638 O   0  0  0  0  0  0  0  0  0  0  0  0
    6.0843  -17.6324   24.4606 N   0  0  0  0  0  0  0  0  0  0  0  0
    6.8641  -16.4090   24.7056 C   0  0  1  0  0  0  0  0  0  0  0  0
    6.2801  -15.7320   25.9327 C   0  0  0  0  0  0  0  0  0  0  0  0
    6.7172  -14.3431   26.1032 C   0  0  0  0  0  0  0  0  0  0  0  0
    6.4056  -13.3797   25.1714 C   0  0  0  0  0  0  0  0  0  0  0  0
    6.8039  -12.0860   25.3423 C   0  0  0  0  0  0  0  0  0  0  0  0
    7.5264  -11.7649   26.4709 C   0  0  0  0  0  0  0  0  0  0  0  0
    7.8542  -12.7047   27.4216 C   0  0  0  0  0  0  0  0  0  0  0  0
    7.4454  -14.0180   27.2398 C   0  0  0  0  0  0  0  0  0  0  0  0
    8.2917  -16.7299   24.8798 C   0  0  0  0  0  0  0  0  0  0  0  0
    8.6017  -17.8514   25.3789 O   0  0  0  0  0  0  0  0  0  0  0  0
   12.5728  -16.5024   20.9509 N   0  0  0  0  0  0  0  0  0  0  0  0
   11.4021  -16.6613   21.7645 C   0  0  0  0  0  0  0  0  0  0  0  0
   10.7699  -17.7661   21.6293 O   0  0  0  0  0  0  0  0  0  0  0  0
   10.9273  -15.6313   22.7106 C   0  0  0  0  0  0  0  0  0  0  0  0
   10.5820  -16.2856   24.0196 C   0  0  2  0  0  0  0  0  0  0  0  0
    9.2792  -15.8152   24.5022 N   0  0  0  0  0  0  0  0  0  0  0  0
   11.6308  -15.9859   25.0112 C   0  0  0  0  0  0  0  0  0  0  0  0
   11.6832  -14.8238   25.5096 O   0  0  0  0  0  0  0  0  0  0  0  0
   12.5766  -16.9072   25.4413 O   0  0  0  0  0  0  0  0  0  0  0  0
  1  2  1  0
  3  2  1  0
  3  4  2  0
  5  3  1  0
  6 14  1  0
  6  5  1  0
  6  7  1  1
  8  7  1  0
  9  8  2  0
 10  9  1  0
 11 12  1  0
 11 10  2  0
 12 13  2  0
 13  8  1  0
 14 21  1  0
 15 14  2  0
 16 17  1  0
 17 18  2  0
 20 19  1  6
 19 17  1  0
 21 20  1  0
 22 24  1  0
 22 20  1  0
 23 22  2  0
M  END
$$$$
