GFN.pdb
     RDKit          3D

 24 24  0  0  1  0  0  0  0  0999 V2000
    6.7306  -19.5502   25.9025 N   0  0  0  0  0  0  0  0  0  0  0  0
    6.3760  -18.1808   26.2234 C   0  0  0  0  0  0  0  0  0  0  0  0
    6.8647  -17.3175   25.1115 C   0  0  0  0  0  0  0  0  0  0  0  0
    6.4447  -17.4969   23.9343 O   0  0  0  0  0  0  0  0  0  0  0  0
    7.7988  -16.2794   25.3027 N   0  0  0  0  0  0  0  0  0  0  0  0
    8.2187  -15.4341   24.1740 C   0  0  1  0  0  0  0  0  0  0  0  0
    8.7290  -14.1244   24.7480 C   0  0  0  0  0  0  0  0  0  0  0  0
    7.7550  -13.4356   25.6001 C   0  0  0  0  0  0  0  0  0  0  0  0
    6.6639  -12.7950   25.0591 C   0  0  0  0  0  0  0  0  0  0  0  0
    5.7537  -12.1670   25.8584 C   0  0  0  0  0  0  0  0  0  0  0  0
    5.9516  -12.1887   27.2219 C   0  0  0  0  0  0  0  0  0  0  0  0
    7.0322  -12.8205   27.7943 C   0  0  0  0  0  0  0  0  0  0  0  0
    7.9531  -13.4564   26.9742 C   0  0  0  0  0  0  0  0  0  0  0  0
    9.2437  -16.1187   23.3664 C   0  0  0  0  0  0  0  0  0  0  0  0
    9.4202  -15.7426   22.1704 O   0  0  0  0  0  0  0  0  0  0  0  0
   11.4562  -15.3804   20.7526 N   0  0  0  0  0  0  0  0  0  0  0  0
   12.2890  -15.9695   21.7610 C   0  0  0  0  0  0  0  0  0  0  0  0
   13.3423  -16.5644   21.3424 O   0  0  0  0  0  0  0  0  0  0  0  0
   11.9782  -15.9117   23.2037 C   0  0  0  0  0  0  0  0  0  0  0  0
   11.4427  -17.2450   23.6468 C   0  0  2  0  0  0  0  0  0  0  0  0
   10.0023  -17.1592   23.9105 N   0  0  0  0  0  0  0  0  0  0  0  0
   12.1571  -17.6838   24.8593 C   0  0  0  0  0  0  0  0  0  0  0  0
   12.6090  -18.8650   24.9058 O   0  0  0  0  0  0  0  0  0  0  0  0
   12.3713  -16.8752   25.9678 O   0  0  0  0  0  0  0  0  0  0  0  0
  1  2  1  0
  3  2  1  0
  3  4  2  0
  5  3  1  0
  6 14  1  0
  6  5  1  0
  6  7  1  1
  8  7  1  0
  9  8  2  0
 10  9  1  0
 11 12  1  0
 11 10  2  0
 12 13  2  0
 13  8  1  0
 14 21  1  0
 15 14  2  0
 16 17  1  0
 17 18  2  0
 20 19  1  1
 19 17  1  0
 21 20  1  0
 22 24  1  0
 22 20  1  0
 23 22  2  0
M  END
$$$$
