GFN.pdb
     RDKit          3D

 24 24  0  0  1  0  0  0  0  0999 V2000
    8.0591  -12.9041   19.2999 N   0  0  0  0  0  0  0  0  0  0  0  0
    7.2580  -13.8671   20.0313 C   0  0  0  0  0  0  0  0  0  0  0  0
    7.9214  -14.0978   21.3456 C   0  0  0  0  0  0  0  0  0  0  0  0
    9.1573  -13.8783   21.4822 O   0  0  0  0  0  0  0  0  0  0  0  0
    7.2279  -14.5621   22.4815 N   0  0  0  0  0  0  0  0  0  0  0  0
    7.9600  -14.9528   23.6965 C   0  0  1  0  0  0  0  0  0  0  0  0
    6.9876  -14.8796   24.8602 C   0  0  0  0  0  0  0  0  0  0  0  0
    6.7713  -13.5194   25.3624 C   0  0  0  0  0  0  0  0  0  0  0  0
    5.7971  -13.2525   26.2968 C   0  0  0  0  0  0  0  0  0  0  0  0
    5.6095  -11.9867   26.7702 C   0  0  0  0  0  0  0  0  0  0  0  0
    6.4189  -10.9796   26.2911 C   0  0  0  0  0  0  0  0  0  0  0  0
    7.4022  -11.2135   25.3567 C   0  0  0  0  0  0  0  0  0  0  0  0
    7.5860  -12.5036   24.8805 C   0  0  0  0  0  0  0  0  0  0  0  0
    8.5369  -16.3002   23.5439 C   0  0  0  0  0  0  0  0  0  0  0  0
    8.1262  -17.0285   22.5931 O   0  0  0  0  0  0  0  0  0  0  0  0
   11.1136  -18.6301   21.4565 N   0  0  0  0  0  0  0  0  0  0  0  0
   11.5813  -17.2905   21.6668 C   0  0  0  0  0  0  0  0  0  0  0  0
   12.1316  -16.7231   20.6599 O   0  0  0  0  0  0  0  0  0  0  0  0
   11.4518  -16.5801   22.9552 C   0  0  0  0  0  0  0  0  0  0  0  0
   10.7066  -17.4527   23.9269 C   0  0  2  0  0  0  0  0  0  0  0  0
    9.5148  -16.7614   24.4300 N   0  0  0  0  0  0  0  0  0  0  0  0
   11.5960  -17.8142   25.0455 C   0  0  0  0  0  0  0  0  0  0  0  0
   11.8487  -19.0370   25.2518 O   0  0  0  0  0  0  0  0  0  0  0  0
   12.1838  -16.8891   25.8982 O   0  0  0  0  0  0  0  0  0  0  0  0
  1  2  1  0
  3  2  1  0
  3  4  2  0
  5  3  1  0
  6 14  1  0
  6  5  1  0
  6  7  1  1
  8  7  1  0
  9  8  2  0
 10  9  1  0
 11 12  1  0
 11 10  2  0
 12 13  2  0
 13  8  1  0
 14 21  1  0
 15 14  2  0
 16 17  1  0
 17 18  2  0
 20 19  1  6
 19 17  1  0
 21 20  1  0
 22 24  1  0
 22 20  1  0
 23 22  2  0
M  END
$$$$
