GFN.pdb
     RDKit          3D

 24 24  0  0  1  0  0  0  0  0999 V2000
    9.5486  -17.7637   20.1841 N   0  0  0  0  0  0  0  0  0  0  0  0
    8.6617  -18.0404   21.2981 C   0  0  0  0  0  0  0  0  0  0  0  0
    8.9164  -17.0085   22.3426 C   0  0  0  0  0  0  0  0  0  0  0  0
    9.9129  -16.2389   22.2477 O   0  0  0  0  0  0  0  0  0  0  0  0
    8.0838  -16.8361   23.4667 N   0  0  0  0  0  0  0  0  0  0  0  0
    8.4192  -15.8442   24.5005 C   0  0  1  0  0  0  0  0  0  0  0  0
    7.1192  -15.3989   25.1464 C   0  0  0  0  0  0  0  0  0  0  0  0
    7.2850  -14.3098   26.1136 C   0  0  0  0  0  0  0  0  0  0  0  0
    7.0429  -13.0020   25.7608 C   0  0  0  0  0  0  0  0  0  0  0  0
    7.1862  -11.9941   26.6692 C   0  0  0  0  0  0  0  0  0  0  0  0
    7.5791  -12.3155   27.9503 C   0  0  0  0  0  0  0  0  0  0  0  0
    7.8289  -13.6133   28.3350 C   0  0  0  0  0  0  0  0  0  0  0  0
    7.6810  -14.6320   27.4048 C   0  0  0  0  0  0  0  0  0  0  0  0
    9.3558  -16.4161   25.4838 C   0  0  0  0  0  0  0  0  0  0  0  0
    9.1041  -17.5611   25.9621 O   0  0  0  0  0  0  0  0  0  0  0  0
   13.4173  -15.2498   23.8499 N   0  0  0  0  0  0  0  0  0  0  0  0
   13.1457  -16.2227   24.8684 C   0  0  0  0  0  0  0  0  0  0  0  0
   13.1270  -17.4445   24.4871 O   0  0  0  0  0  0  0  0  0  0  0  0
   12.8978  -15.8693   26.2808 C   0  0  0  0  0  0  0  0  0  0  0  0
   11.5347  -16.3622   26.6806 C   0  0  2  0  0  0  0  0  0  0  0  0
   10.4952  -15.7087   25.8781 N   0  0  0  0  0  0  0  0  0  0  0  0
   11.3154  -16.0942   28.1135 C   0  0  0  0  0  0  0  0  0  0  0  0
   12.1128  -16.5996   28.9564 O   0  0  0  0  0  0  0  0  0  0  0  0
   10.2789  -15.3122   28.6058 O   0  0  0  0  0  0  0  0  0  0  0  0
  1  2  1  0
  3  2  1  0
  3  4  2  0
  5  3  1  0
  6 14  1  0
  6  5  1  0
  6  7  1  1
  8  7  1  0
  9  8  2  0
 10  9  1  0
 11 12  1  0
 11 10  2  0
 12 13  2  0
 13  8  1  0
 14 21  1  0
 15 14  2  0
 16 17  1  0
 17 18  2  0
 20 19  1  6
 19 17  1  0
 21 20  1  0
 22 24  1  0
 22 20  1  0
 23 22  2  0
M  END
$$$$
