GFN.pdb
     RDKit          3D

 24 24  0  0  1  0  0  0  0  0999 V2000
   10.2015  -16.7876   19.2784 N   0  0  0  0  0  0  0  0  0  0  0  0
    9.0598  -17.0249   20.1412 C   0  0  0  0  0  0  0  0  0  0  0  0
    9.1492  -16.0665   21.2788 C   0  0  0  0  0  0  0  0  0  0  0  0
   10.2171  -15.4268   21.4899 O   0  0  0  0  0  0  0  0  0  0  0  0
    8.0774  -15.8251   22.1617 N   0  0  0  0  0  0  0  0  0  0  0  0
    8.2823  -15.0408   23.3896 C   0  0  1  0  0  0  0  0  0  0  0  0
    6.9434  -14.4388   23.7770 C   0  0  0  0  0  0  0  0  0  0  0  0
    6.9834  -13.6655   25.0219 C   0  0  0  0  0  0  0  0  0  0  0  0
    7.5456  -12.4101   25.0618 C   0  0  0  0  0  0  0  0  0  0  0  0
    7.5679  -11.6899   26.2204 C   0  0  0  0  0  0  0  0  0  0  0  0
    7.0137  -12.2484   27.3517 C   0  0  0  0  0  0  0  0  0  0  0  0
    6.4437  -13.5013   27.3450 C   0  0  0  0  0  0  0  0  0  0  0  0
    6.4256  -14.2269   26.1626 C   0  0  0  0  0  0  0  0  0  0  0  0
    8.8362  -15.8885   24.4603 C   0  0  0  0  0  0  0  0  0  0  0  0
    8.2741  -16.9963   24.7047 O   0  0  0  0  0  0  0  0  0  0  0  0
   13.1721  -15.5277   23.8331 N   0  0  0  0  0  0  0  0  0  0  0  0
   12.6436  -16.5081   24.7370 C   0  0  0  0  0  0  0  0  0  0  0  0
   12.6459  -17.7176   24.3178 O   0  0  0  0  0  0  0  0  0  0  0  0
   12.1200  -16.1753   26.0773 C   0  0  0  0  0  0  0  0  0  0  0  0
   10.6343  -16.4062   26.0978 C   0  0  2  0  0  0  0  0  0  0  0  0
    9.9564  -15.4765   25.1880 N   0  0  0  0  0  0  0  0  0  0  0  0
   10.1286  -16.2339   27.4717 C   0  0  0  0  0  0  0  0  0  0  0  0
    9.5861  -15.1349   27.7874 O   0  0  0  0  0  0  0  0  0  0  0  0
   10.2078  -17.2114   28.4548 O   0  0  0  0  0  0  0  0  0  0  0  0
  1  2  1  0
  3  2  1  0
  3  4  2  0
  5  3  1  0
  6 14  1  0
  6  5  1  0
  6  7  1  1
  8  7  1  0
  9  8  2  0
 10  9  1  0
 11 12  1  0
 11 10  2  0
 12 13  2  0
 13  8  1  0
 14 21  1  0
 15 14  2  0
 16 17  1  0
 17 18  2  0
 20 19  1  1
 19 17  1  0
 21 20  1  0
 22 24  1  0
 22 20  1  0
 23 22  2  0
M  END
$$$$
