GFN.pdb
     RDKit          3D

 24 24  0  0  1  0  0  0  0  0999 V2000
    5.3882  -19.5709   22.5178 N   0  0  0  0  0  0  0  0  0  0  0  0
    5.7342  -18.5776   23.5166 C   0  0  0  0  0  0  0  0  0  0  0  0
    6.9463  -17.8577   23.0336 C   0  0  0  0  0  0  0  0  0  0  0  0
    7.6103  -18.3109   22.0600 O   0  0  0  0  0  0  0  0  0  0  0  0
    7.4102  -16.6624   23.6191 N   0  0  0  0  0  0  0  0  0  0  0  0
    8.6181  -15.9978   23.1051 C   0  0  1  0  0  0  0  0  0  0  0  0
    8.3953  -14.4995   23.2087 C   0  0  0  0  0  0  0  0  0  0  0  0
    7.9083  -13.8893   21.9679 C   0  0  0  0  0  0  0  0  0  0  0  0
    6.5879  -13.9927   21.5947 C   0  0  0  0  0  0  0  0  0  0  0  0
    6.1379  -13.4113   20.4454 C   0  0  0  0  0  0  0  0  0  0  0  0
    7.0367  -12.7167   19.6652 C   0  0  0  0  0  0  0  0  0  0  0  0
    8.3635  -12.5946   20.0104 C   0  0  0  0  0  0  0  0  0  0  0  0
    8.8127  -13.1892   21.1807 C   0  0  0  0  0  0  0  0  0  0  0  0
    9.8088  -16.4315   23.8572 C   0  0  0  0  0  0  0  0  0  0  0  0
    9.7451  -16.4651   25.1212 O   0  0  0  0  0  0  0  0  0  0  0  0
   14.9219  -19.4979   23.6004 N   0  0  0  0  0  0  0  0  0  0  0  0
   13.6873  -19.1417   24.2380 C   0  0  0  0  0  0  0  0  0  0  0  0
   13.6659  -19.2387   25.5142 O   0  0  0  0  0  0  0  0  0  0  0  0
   12.4940  -18.6874   23.4958 C   0  0  0  0  0  0  0  0  0  0  0  0
   12.1395  -17.2943   23.9370 C   0  0  2  0  0  0  0  0  0  0  0  0
   10.9806  -16.7966   23.1880 N   0  0  0  0  0  0  0  0  0  0  0  0
   13.2971  -16.4045   23.7344 C   0  0  0  0  0  0  0  0  0  0  0  0
   14.1041  -16.2276   24.6931 O   0  0  0  0  0  0  0  0  0  0  0  0
   13.5650  -15.7403   22.5447 O   0  0  0  0  0  0  0  0  0  0  0  0
  1  2  1  0
  3  2  1  0
  3  4  2  0
  5  3  1  0
  6 14  1  0
  6  5  1  0
  6  7  1  1
  8  7  1  0
  9  8  2  0
 10  9  1  0
 11 12  1  0
 11 10  2  0
 12 13  2  0
 13  8  1  0
 14 21  1  0
 15 14  2  0
 16 17  1  0
 17 18  2  0
 20 19  1  6
 19 17  1  0
 21 20  1  0
 22 24  1  0
 22 20  1  0
 23 22  2  0
M  END
$$$$
