GFN.pdb
     RDKit          3D

 24 24  0  0  1  0  0  0  0  0999 V2000
    5.5605  -19.3084   22.6117 N   0  0  0  0  0  0  0  0  0  0  0  0
    5.5361  -18.1905   23.5357 C   0  0  0  0  0  0  0  0  0  0  0  0
    6.6528  -17.2762   23.1647 C   0  0  0  0  0  0  0  0  0  0  0  0
    7.5068  -17.6305   22.3048 O   0  0  0  0  0  0  0  0  0  0  0  0
    6.8173  -15.9983   23.7363 N   0  0  0  0  0  0  0  0  0  0  0  0
    7.9573  -15.1499   23.3550 C   0  0  1  0  0  0  0  0  0  0  0  0
    7.5515  -13.7057   23.5894 C   0  0  0  0  0  0  0  0  0  0  0  0
    7.2513  -13.3983   24.9911 C   0  0  0  0  0  0  0  0  0  0  0  0
    8.2032  -12.8478   25.8183 C   0  0  0  0  0  0  0  0  0  0  0  0
    7.9137  -12.5516   27.1184 C   0  0  0  0  0  0  0  0  0  0  0  0
    6.6445  -12.8163   27.5853 C   0  0  0  0  0  0  0  0  0  0  0  0
    5.6700  -13.3662   26.7837 C   0  0  0  0  0  0  0  0  0  0  0  0
    5.9730  -13.6645   25.4631 C   0  0  0  0  0  0  0  0  0  0  0  0
    9.1582  -15.5172   24.1259 C   0  0  0  0  0  0  0  0  0  0  0  0
   10.2120  -14.8344   23.9635 O   0  0  0  0  0  0  0  0  0  0  0  0
    7.7500  -17.7695   27.7697 N   0  0  0  0  0  0  0  0  0  0  0  0
    9.1506  -17.4672   27.7028 C   0  0  0  0  0  0  0  0  0  0  0  0
    9.5840  -16.6208   28.5597 O   0  0  0  0  0  0  0  0  0  0  0  0
   10.0648  -18.0776   26.7163 C   0  0  0  0  0  0  0  0  0  0  0  0
   10.3704  -17.0735   25.6396 C   0  0  2  0  0  0  0  0  0  0  0  0
    9.1321  -16.5954   25.0153 N   0  0  0  0  0  0  0  0  0  0  0  0
   11.2464  -17.6896   24.6267 C   0  0  0  0  0  0  0  0  0  0  0  0
   12.3867  -18.1086   24.9817 O   0  0  0  0  0  0  0  0  0  0  0  0
   10.8978  -17.8441   23.2915 O   0  0  0  0  0  0  0  0  0  0  0  0
  1  2  1  0
  3  2  1  0
  3  4  2  0
  5  3  1  0
  6 14  1  0
  6  5  1  0
  6  7  1  1
  8  7  1  0
  9  8  2  0
 10  9  1  0
 11 12  1  0
 11 10  2  0
 12 13  2  0
 13  8  1  0
 14 21  1  0
 15 14  2  0
 16 17  1  0
 17 18  2  0
 20 19  1  1
 19 17  1  0
 21 20  1  0
 22 24  1  0
 22 20  1  0
 23 22  2  0
M  END
$$$$
