GFN.pdb
     RDKit          3D

 24 24  0  0  1  0  0  0  0  0999 V2000
   10.1795  -16.9685   19.4505 N   0  0  0  0  0  0  0  0  0  0  0  0
    8.8860  -16.9241   20.1055 C   0  0  0  0  0  0  0  0  0  0  0  0
    9.0344  -16.1003   21.3383 C   0  0  0  0  0  0  0  0  0  0  0  0
   10.1757  -15.7046   21.7061 O   0  0  0  0  0  0  0  0  0  0  0  0
    7.9405  -15.7253   22.1442 N   0  0  0  0  0  0  0  0  0  0  0  0
    8.1567  -15.0214   23.4180 C   0  0  1  0  0  0  0  0  0  0  0  0
    6.8833  -14.2610   23.7426 C   0  0  0  0  0  0  0  0  0  0  0  0
    6.9580  -13.4916   24.9883 C   0  0  0  0  0  0  0  0  0  0  0  0
    6.2950  -13.9054   26.1209 C   0  0  0  0  0  0  0  0  0  0  0  0
    6.3792  -13.1921   27.2810 C   0  0  0  0  0  0  0  0  0  0  0  0
    7.1445  -12.0462   27.2934 C   0  0  0  0  0  0  0  0  0  0  0  0
    7.8200  -11.6056   26.1779 C   0  0  0  0  0  0  0  0  0  0  0  0
    7.7286  -12.3368   25.0024 C   0  0  0  0  0  0  0  0  0  0  0  0
    8.5166  -15.9743   24.4829 C   0  0  0  0  0  0  0  0  0  0  0  0
    7.7899  -16.9979   24.6477 O   0  0  0  0  0  0  0  0  0  0  0  0
   12.3627  -17.5852   23.6718 N   0  0  0  0  0  0  0  0  0  0  0  0
   11.5111  -17.9480   24.7675 C   0  0  0  0  0  0  0  0  0  0  0  0
   10.7789  -18.9831   24.5909 O   0  0  0  0  0  0  0  0  0  0  0  0
   11.4577  -17.1939   26.0363 C   0  0  0  0  0  0  0  0  0  0  0  0
   10.0436  -16.7483   26.2862 C   0  0  2  0  0  0  0  0  0  0  0  0
    9.6349  -15.7508   25.2913 N   0  0  0  0  0  0  0  0  0  0  0  0
    9.9379  -16.1855   27.6446 C   0  0  0  0  0  0  0  0  0  0  0  0
    9.8288  -14.9317   27.7773 O   0  0  0  0  0  0  0  0  0  0  0  0
    9.9486  -16.9508   28.8033 O   0  0  0  0  0  0  0  0  0  0  0  0
  1  2  1  0
  3  2  1  0
  3  4  2  0
  5  3  1  0
  6 14  1  0
  6  5  1  0
  6  7  1  1
  8  7  1  0
  9  8  2  0
 10  9  1  0
 11 12  1  0
 11 10  2  0
 12 13  2  0
 13  8  1  0
 14 21  1  0
 15 14  2  0
 16 17  1  0
 17 18  2  0
 20 19  1  6
 19 17  1  0
 21 20  1  0
 22 24  1  0
 22 20  1  0
 23 22  2  0
M  END
$$$$
