TFA.pdb
     RDKit          3D

 24 24  0  0  1  0  0  0  0  0999 V2000
    8.1968  -18.2915   18.4857 C   0  0  0  0  0  0  0  0  0  0  0  0
    8.4953  -17.8271   19.8949 C   0  0  1  0  0  0  0  0  0  0  0  0
    9.5481  -18.6156   20.3887 O   0  0  0  0  0  0  0  0  0  0  0  0
    8.9939  -16.4029   19.8085 C   0  0  2  0  0  0  0  0  0  0  0  0
   10.1418  -16.2986   18.9416 N   0  0  0  0  0  0  0  0  0  0  0  0
    9.2974  -15.8157   21.1128 C   0  0  0  0  0  0  0  0  0  0  0  0
   10.4474  -15.8024   21.6311 O   0  0  0  0  0  0  0  0  0  0  0  0
    8.2402  -15.2188   21.8546 N   0  0  0  0  0  0  0  0  0  0  0  0
    8.3775  -14.7163   23.1868 C   0  0  1  0  0  0  0  0  0  0  0  0
    7.1668  -13.8515   23.4883 C   0  0  0  0  0  0  0  0  0  0  0  0
    7.1863  -13.2732   24.8315 C   0  0  0  0  0  0  0  0  0  0  0  0
    8.0303  -12.2317   25.1411 C   0  0  0  0  0  0  0  0  0  0  0  0
    8.0222  -11.7128   26.4178 C   0  0  0  0  0  0  0  0  0  0  0  0
    7.1911  -12.2064   27.4004 C   0  0  0  0  0  0  0  0  0  0  0  0
    6.3410  -13.2549   27.0898 C   0  0  0  0  0  0  0  0  0  0  0  0
    6.3526  -13.7738   25.8041 C   0  0  0  0  0  0  0  0  0  0  0  0
    8.5165  -15.7485   24.2142 C   0  0  0  0  0  0  0  0  0  0  0  0
    7.6010  -16.6222   24.2825 O   0  0  0  0  0  0  0  0  0  0  0  0
   10.9031  -17.8537   25.5620 C   0  0  0  0  0  0  0  0  0  0  0  0
    9.7346  -16.9721   25.9626 C   0  0  2  0  0  0  0  0  0  0  0  0
    9.6062  -15.8221   25.1248 N   0  0  0  0  0  0  0  0  0  0  0  0
    9.8853  -16.5389   27.3594 C   0  0  0  0  0  0  0  0  0  0  0  0
    9.9440  -15.3185   27.6348 O   0  0  0  0  0  0  0  0  0  0  0  0
    9.9630  -17.4889   28.3804 O   0  0  0  0  0  0  0  0  0  0  0  0
  2  1  1  6
  3  2  1  0
  4  6  1  0
  4  2  1  0
  4  5  1  6
  6  8  1  0
  7  6  2  0
  8  9  1  0
  9 10  1  1
 10 11  1  0
 11 16  2  0
 11 12  1  0
 12 13  2  0
 13 14  1  0
 15 14  2  0
 16 15  1  0
 17  9  1  0
 18 17  2  0
 20 19  1  6
 20 21  1  0
 21 17  1  0
 22 24  1  0
 22 20  1  0
 23 22  2  0
M  END
$$$$
