TFA.pdb
     RDKit          3D

 24 24  0  0  1  0  0  0  0  0999 V2000
    9.2956  -19.3925   20.2069 C   0  0  0  0  0  0  0  0  0  0  0  0
    9.2629  -18.5490   21.4631 C   0  0  1  0  0  0  0  0  0  0  0  0
   10.1588  -19.1200   22.3825 O   0  0  0  0  0  0  0  0  0  0  0  0
    9.7894  -17.1784   21.1045 C   0  0  2  0  0  0  0  0  0  0  0  0
   11.0950  -17.2581   20.4971 N   0  0  0  0  0  0  0  0  0  0  0  0
    9.8209  -16.2555   22.2384 C   0  0  0  0  0  0  0  0  0  0  0  0
   10.8788  -15.8780   22.8126 O   0  0  0  0  0  0  0  0  0  0  0  0
    8.5901  -15.7436   22.7356 N   0  0  0  0  0  0  0  0  0  0  0  0
    8.4755  -14.9086   23.8913 C   0  0  1  0  0  0  0  0  0  0  0  0
    7.2020  -14.0935   23.7559 C   0  0  0  0  0  0  0  0  0  0  0  0
    6.9480  -13.2189   24.9003 C   0  0  0  0  0  0  0  0  0  0  0  0
    5.8871  -13.4496   25.7453 C   0  0  0  0  0  0  0  0  0  0  0  0
    5.6779  -12.6037   26.8129 C   0  0  0  0  0  0  0  0  0  0  0  0
    6.5020  -11.5275   27.0631 C   0  0  0  0  0  0  0  0  0  0  0  0
    7.5704  -11.2943   26.2130 C   0  0  0  0  0  0  0  0  0  0  0  0
    7.7770  -12.1480   25.1402 C   0  0  0  0  0  0  0  0  0  0  0  0
    8.4681  -15.6304   25.1639 C   0  0  0  0  0  0  0  0  0  0  0  0
    8.3980  -14.9355   26.2214 O   0  0  0  0  0  0  0  0  0  0  0  0
    7.8712  -18.9954   26.6026 C   0  0  0  0  0  0  0  0  0  0  0  0
    8.5549  -17.6409   26.5739 C   0  0  2  0  0  0  0  0  0  0  0  0
    8.5344  -17.0465   25.2750 N   0  0  0  0  0  0  0  0  0  0  0  0
    9.9482  -17.7696   27.0252 C   0  0  0  0  0  0  0  0  0  0  0  0
   10.1997  -18.2412   28.1579 O   0  0  0  0  0  0  0  0  0  0  0  0
   10.9926  -17.3656   26.1903 O   0  0  0  0  0  0  0  0  0  0  0  0
  2  1  1  6
  3  2  1  0
  4  6  1  0
  4  2  1  0
  4  5  1  1
  6  8  1  0
  7  6  2  0
  8  9  1  0
  9 10  1  6
 10 11  1  0
 11 16  2  0
 11 12  1  0
 12 13  2  0
 13 14  1  0
 15 14  2  0
 16 15  1  0
 17  9  1  0
 18 17  2  0
 20 19  1  6
 20 21  1  0
 21 17  1  0
 22 24  1  0
 22 20  1  0
 23 22  2  0
M  END
$$$$
