TFA.pdb
     RDKit          3D

 24 24  0  0  1  0  0  0  0  0999 V2000
   10.6499  -19.1254   22.8793 C   0  0  0  0  0  0  0  0  0  0  0  0
   11.4418  -18.4514   21.7797 C   0  0  1  0  0  0  0  0  0  0  0  0
   11.5513  -19.3616   20.7151 O   0  0  0  0  0  0  0  0  0  0  0  0
   10.6302  -17.2737   21.2911 C   0  0  2  0  0  0  0  0  0  0  0  0
   11.1862  -16.7161   20.0828 N   0  0  0  0  0  0  0  0  0  0  0  0
   10.4680  -16.2251   22.2972 C   0  0  0  0  0  0  0  0  0  0  0  0
   11.3797  -15.4197   22.6313 O   0  0  0  0  0  0  0  0  0  0  0  0
    9.2097  -16.0929   22.9479 N   0  0  0  0  0  0  0  0  0  0  0  0
    8.9370  -15.1462   23.9849 C   0  0  1  0  0  0  0  0  0  0  0  0
    7.4530  -14.8282   23.9503 C   0  0  0  0  0  0  0  0  0  0  0  0
    7.0566  -13.8016   24.9137 C   0  0  0  0  0  0  0  0  0  0  0  0
    7.4720  -12.4980   24.7695 C   0  0  0  0  0  0  0  0  0  0  0  0
    7.0798  -11.5578   25.6975 C   0  0  0  0  0  0  0  0  0  0  0  0
    6.2800  -11.8830   26.7720 C   0  0  0  0  0  0  0  0  0  0  0  0
    5.8611  -13.1951   26.9181 C   0  0  0  0  0  0  0  0  0  0  0  0
    6.2582  -14.1377   25.9820 C   0  0  0  0  0  0  0  0  0  0  0  0
    9.3172  -15.5884   25.3266 C   0  0  0  0  0  0  0  0  0  0  0  0
    9.1979  -16.8237   25.5828 O   0  0  0  0  0  0  0  0  0  0  0  0
   10.8817  -14.2254   28.4854 C   0  0  0  0  0  0  0  0  0  0  0  0
   10.3812  -15.2843   27.5205 C   0  0  2  0  0  0  0  0  0  0  0  0
    9.8054  -14.7199   26.3412 N   0  0  0  0  0  0  0  0  0  0  0  0
    9.3863  -16.1404   28.1828 C   0  0  0  0  0  0  0  0  0  0  0  0
    8.1922  -16.1221   27.8052 O   0  0  0  0  0  0  0  0  0  0  0  0
    9.7726  -16.9750   29.2340 O   0  0  0  0  0  0  0  0  0  0  0  0
  2  1  1  1
  3  2  1  0
  4  6  1  0
  4  2  1  0
  4  5  1  6
  6  8  1  0
  7  6  2  0
  8  9  1  0
  9 10  1  1
 10 11  1  0
 11 16  2  0
 11 12  1  0
 12 13  2  0
 13 14  1  0
 15 14  2  0
 16 15  1  0
 17  9  1  0
 18 17  2  0
 20 19  1  1
 20 21  1  0
 21 17  1  0
 22 24  1  0
 22 20  1  0
 23 22  2  0
M  END
$$$$
