TFA.pdb
     RDKit          3D

 24 24  0  0  1  0  0  0  0  0999 V2000
    7.2697  -18.2222   20.7300 C   0  0  0  0  0  0  0  0  0  0  0  0
    8.5174  -17.9699   19.9112 C   0  0  1  0  0  0  0  0  0  0  0  0
    8.2560  -18.3913   18.5967 O   0  0  0  0  0  0  0  0  0  0  0  0
    8.7431  -16.4759   19.8747 C   0  0  2  0  0  0  0  0  0  0  0  0
    9.7551  -16.1196   18.9110 N   0  0  0  0  0  0  0  0  0  0  0  0
    9.0746  -15.9084   21.1810 C   0  0  0  0  0  0  0  0  0  0  0  0
   10.2222  -15.9590   21.7024 O   0  0  0  0  0  0  0  0  0  0  0  0
    8.0497  -15.2559   21.9212 N   0  0  0  0  0  0  0  0  0  0  0  0
    8.2244  -14.7219   23.2366 C   0  0  1  0  0  0  0  0  0  0  0  0
    7.0639  -13.7851   23.5197 C   0  0  0  0  0  0  0  0  0  0  0  0
    7.0916  -13.2172   24.8673 C   0  0  0  0  0  0  0  0  0  0  0  0
    8.0119  -12.2537   25.2102 C   0  0  0  0  0  0  0  0  0  0  0  0
    8.0090  -11.7424   26.4899 C   0  0  0  0  0  0  0  0  0  0  0  0
    7.1087  -12.1673   27.4431 C   0  0  0  0  0  0  0  0  0  0  0  0
    6.1818  -13.1373   27.0990 C   0  0  0  0  0  0  0  0  0  0  0  0
    6.1883  -13.6490   25.8103 C   0  0  0  0  0  0  0  0  0  0  0  0
    8.3167  -15.7290   24.2938 C   0  0  0  0  0  0  0  0  0  0  0  0
    7.2969  -16.4553   24.4900 O   0  0  0  0  0  0  0  0  0  0  0  0
   10.5197  -18.1020   25.5389 C   0  0  0  0  0  0  0  0  0  0  0  0
    9.5131  -17.0559   25.9807 C   0  0  2  0  0  0  0  0  0  0  0  0
    9.4707  -15.9325   25.0993 N   0  0  0  0  0  0  0  0  0  0  0  0
    9.8302  -16.5931   27.3396 C   0  0  0  0  0  0  0  0  0  0  0  0
   10.1135  -15.3901   27.5425 O   0  0  0  0  0  0  0  0  0  0  0  0
    9.8156  -17.4956   28.4056 O   0  0  0  0  0  0  0  0  0  0  0  0
  2  1  1  1
  3  2  1  0
  4  6  1  0
  4  2  1  0
  4  5  1  6
  6  8  1  0
  7  6  2  0
  8  9  1  0
  9 10  1  1
 10 11  1  0
 11 16  2  0
 11 12  1  0
 12 13  2  0
 13 14  1  0
 15 14  2  0
 16 15  1  0
 17  9  1  0
 18 17  2  0
 20 19  1  6
 20 21  1  0
 21 17  1  0
 22 24  1  0
 22 20  1  0
 23 22  2  0
M  END
$$$$
