TFA.pdb
     RDKit          3D

 24 24  0  0  1  0  0  0  0  0999 V2000
    7.6471  -19.0491   19.1064 C   0  0  0  0  0  0  0  0  0  0  0  0
    8.2131  -18.4089   20.3555 C   0  0  1  0  0  0  0  0  0  0  0  0
    9.5328  -18.8663   20.5075 O   0  0  0  0  0  0  0  0  0  0  0  0
    8.2721  -16.9178   20.1157 C   0  0  2  0  0  0  0  0  0  0  0  0
    9.0734  -16.6018   18.9589 N   0  0  0  0  0  0  0  0  0  0  0  0
    8.7476  -16.1634   21.2746 C   0  0  0  0  0  0  0  0  0  0  0  0
    9.9250  -15.7279   21.3991 O   0  0  0  0  0  0  0  0  0  0  0  0
    7.8374  -15.8966   22.3350 N   0  0  0  0  0  0  0  0  0  0  0  0
    8.1749  -15.1695   23.5197 C   0  0  1  0  0  0  0  0  0  0  0  0
    6.8962  -14.5817   24.0888 C   0  0  0  0  0  0  0  0  0  0  0  0
    7.1184  -13.7290   25.2561 C   0  0  0  0  0  0  0  0  0  0  0  0
    7.5305  -14.2638   26.4548 C   0  0  0  0  0  0  0  0  0  0  0  0
    7.7285  -13.4297   27.5337 C   0  0  0  0  0  0  0  0  0  0  0  0
    7.5260  -12.0689   27.4505 C   0  0  0  0  0  0  0  0  0  0  0  0
    7.1111  -11.5294   26.2441 C   0  0  0  0  0  0  0  0  0  0  0  0
    6.9130  -12.3723   25.1612 C   0  0  0  0  0  0  0  0  0  0  0  0
    8.8550  -15.9609   24.5451 C   0  0  0  0  0  0  0  0  0  0  0  0
    8.2496  -16.9862   24.9792 O   0  0  0  0  0  0  0  0  0  0  0  0
   12.3907  -16.5486   25.4033 C   0  0  0  0  0  0  0  0  0  0  0  0
   10.9065  -16.6779   25.6919 C   0  0  2  0  0  0  0  0  0  0  0  0
   10.1378  -15.6459   25.0717 N   0  0  0  0  0  0  0  0  0  0  0  0
   10.6708  -16.6515   27.1428 C   0  0  0  0  0  0  0  0  0  0  0  0
   11.2192  -17.4999   27.8831 O   0  0  0  0  0  0  0  0  0  0  0  0
    9.8344  -15.6794   27.6966 O   0  0  0  0  0  0  0  0  0  0  0  0
  2  1  1  6
  3  2  1  0
  4  6  1  0
  4  2  1  0
  4  5  1  6
  6  8  1  0
  7  6  2  0
  8  9  1  0
  9 10  1  1
 10 11  1  0
 11 16  2  0
 11 12  1  0
 12 13  2  0
 13 14  1  0
 15 14  2  0
 16 15  1  0
 17  9  1  0
 18 17  2  0
 20 19  1  1
 20 21  1  0
 21 17  1  0
 22 24  1  0
 22 20  1  0
 23 22  2  0
M  END
$$$$
