TFA.pdb
     RDKit          3D

 24 24  0  0  1  0  0  0  0  0999 V2000
    6.7069  -14.1375   18.1294 C   0  0  0  0  0  0  0  0  0  0  0  0
    7.4548  -14.6653   19.3347 C   0  0  1  0  0  0  0  0  0  0  0  0
    8.6923  -15.1564   18.8860 O   0  0  0  0  0  0  0  0  0  0  0  0
    7.7331  -13.4927   20.2467 C   0  0  2  0  0  0  0  0  0  0  0  0
    8.4452  -12.4458   19.5561 N   0  0  0  0  0  0  0  0  0  0  0  0
    8.4497  -13.8648   21.4659 C   0  0  0  0  0  0  0  0  0  0  0  0
    9.6734  -13.6317   21.6648 O   0  0  0  0  0  0  0  0  0  0  0  0
    7.7356  -14.5314   22.5002 N   0  0  0  0  0  0  0  0  0  0  0  0
    8.2901  -14.8579   23.7777 C   0  0  1  0  0  0  0  0  0  0  0  0
    7.1556  -14.8926   24.7857 C   0  0  0  0  0  0  0  0  0  0  0  0
    7.0217  -13.6541   25.5520 C   0  0  0  0  0  0  0  0  0  0  0  0
    5.8454  -12.9406   25.5436 C   0  0  0  0  0  0  0  0  0  0  0  0
    5.7562  -11.7772   26.2768 C   0  0  0  0  0  0  0  0  0  0  0  0
    6.8135  -11.3023   27.0228 C   0  0  0  0  0  0  0  0  0  0  0  0
    7.9982  -12.0199   27.0319 C   0  0  0  0  0  0  0  0  0  0  0  0
    8.0835  -13.1898   26.2928 C   0  0  0  0  0  0  0  0  0  0  0  0
    9.0248  -16.1225   23.8158 C   0  0  0  0  0  0  0  0  0  0  0  0
    8.3399  -17.1887   23.8050 O   0  0  0  0  0  0  0  0  0  0  0  0
   12.4793  -17.5071   23.4292 C   0  0  0  0  0  0  0  0  0  0  0  0
   11.0507  -17.5074   23.9410 C   0  0  2  0  0  0  0  0  0  0  0  0
   10.4428  -16.2169   23.8634 N   0  0  0  0  0  0  0  0  0  0  0  0
   11.0140  -17.9766   25.3338 C   0  0  0  0  0  0  0  0  0  0  0  0
   10.4425  -17.2906   26.2121 O   0  0  0  0  0  0  0  0  0  0  0  0
   11.6169  -19.1886   25.6782 O   0  0  0  0  0  0  0  0  0  0  0  0
  2  1  1  6
  3  2  1  0
  4  6  1  0
  4  2  1  0
  4  5  1  6
  6  8  1  0
  7  6  2  0
  8  9  1  0
  9 10  1  1
 10 11  1  0
 11 16  2  0
 11 12  1  0
 12 13  2  0
 13 14  1  0
 15 14  2  0
 16 15  1  0
 17  9  1  0
 18 17  2  0
 20 19  1  1
 20 21  1  0
 21 17  1  0
 22 24  1  0
 22 20  1  0
 23 22  2  0
M  END
$$$$
