TFA.pdb
     RDKit          3D

 24 24  0  0  1  0  0  0  0  0999 V2000
    8.1904  -18.4094   18.8119 C   0  0  0  0  0  0  0  0  0  0  0  0
    8.4459  -17.8692   20.2024 C   0  0  1  0  0  0  0  0  0  0  0  0
    9.4691  -18.6414   20.7774 O   0  0  0  0  0  0  0  0  0  0  0  0
    8.9679  -16.4587   20.0536 C   0  0  2  0  0  0  0  0  0  0  0  0
   10.1420  -16.4171   19.2171 N   0  0  0  0  0  0  0  0  0  0  0  0
    9.2418  -15.8048   21.3326 C   0  0  0  0  0  0  0  0  0  0  0  0
   10.3992  -15.6316   21.8036 O   0  0  0  0  0  0  0  0  0  0  0  0
    8.1451  -15.3297   22.1043 N   0  0  0  0  0  0  0  0  0  0  0  0
    8.2711  -14.7403   23.4016 C   0  0  1  0  0  0  0  0  0  0  0  0
    6.9946  -13.9721   23.6930 C   0  0  0  0  0  0  0  0  0  0  0  0
    6.9749  -13.3618   25.0220 C   0  0  0  0  0  0  0  0  0  0  0  0
    6.1706  -13.8637   26.0191 C   0  0  0  0  0  0  0  0  0  0  0  0
    6.1772  -13.2619   27.2588 C   0  0  0  0  0  0  0  0  0  0  0  0
    6.9680  -12.1670   27.5340 C   0  0  0  0  0  0  0  0  0  0  0  0
    7.7781  -11.6610   26.5309 C   0  0  0  0  0  0  0  0  0  0  0  0
    7.7683  -12.2696   25.2851 C   0  0  0  0  0  0  0  0  0  0  0  0
    8.5316  -15.6944   24.4796 C   0  0  0  0  0  0  0  0  0  0  0  0
    7.6584  -16.5905   24.6811 O   0  0  0  0  0  0  0  0  0  0  0  0
   11.3568  -17.3898   25.8237 C   0  0  0  0  0  0  0  0  0  0  0  0
    9.9891  -16.8023   26.1187 C   0  0  2  0  0  0  0  0  0  0  0  0
    9.6932  -15.6699   25.2995 N   0  0  0  0  0  0  0  0  0  0  0  0
    9.9022  -16.4121   27.5334 C   0  0  0  0  0  0  0  0  0  0  0  0
    9.6837  -15.2182   27.8426 O   0  0  0  0  0  0  0  0  0  0  0  0
   10.0636  -17.3733   28.5339 O   0  0  0  0  0  0  0  0  0  0  0  0
  2  1  1  6
  3  2  1  0
  4  6  1  0
  4  2  1  0
  4  5  1  6
  6  8  1  0
  7  6  2  0
  8  9  1  0
  9 10  1  1
 10 11  1  0
 11 16  2  0
 11 12  1  0
 12 13  2  0
 13 14  1  0
 15 14  2  0
 16 15  1  0
 17  9  1  0
 18 17  2  0
 20 19  1  6
 20 21  1  0
 21 17  1  0
 22 24  1  0
 22 20  1  0
 23 22  2  0
M  END
$$$$
