TFA.pdb
     RDKit          3D

 24 24  0  0  1  0  0  0  0  0999 V2000
    7.9797  -18.2850   18.5345 C   0  0  0  0  0  0  0  0  0  0  0  0
    8.2716  -17.8361   19.9501 C   0  0  1  0  0  0  0  0  0  0  0  0
    9.2025  -18.7346   20.4978 O   0  0  0  0  0  0  0  0  0  0  0  0
    8.9378  -16.4819   19.8697 C   0  0  2  0  0  0  0  0  0  0  0  0
   10.1330  -16.5300   19.0640 N   0  0  0  0  0  0  0  0  0  0  0  0
    9.2406  -15.9070   21.1797 C   0  0  0  0  0  0  0  0  0  0  0  0
   10.3731  -15.9662   21.7323 O   0  0  0  0  0  0  0  0  0  0  0  0
    8.2037  -15.2364   21.8864 N   0  0  0  0  0  0  0  0  0  0  0  0
    8.3359  -14.7308   23.2179 C   0  0  1  0  0  0  0  0  0  0  0  0
    7.1920  -13.7645   23.4677 C   0  0  0  0  0  0  0  0  0  0  0  0
    7.1994  -13.1914   24.8133 C   0  0  0  0  0  0  0  0  0  0  0  0
    6.2963  -13.6070   25.7643 C   0  0  0  0  0  0  0  0  0  0  0  0
    6.3322  -13.0435   27.0214 C   0  0  0  0  0  0  0  0  0  0  0  0
    7.2491  -12.0713   27.3589 C   0  0  0  0  0  0  0  0  0  0  0  0
    8.1588  -11.6521   26.4022 C   0  0  0  0  0  0  0  0  0  0  0  0
    8.1190  -12.2218   25.1388 C   0  0  0  0  0  0  0  0  0  0  0  0
    8.3520  -15.7584   24.2591 C   0  0  0  0  0  0  0  0  0  0  0  0
    7.3378  -16.5139   24.3405 O   0  0  0  0  0  0  0  0  0  0  0  0
   10.4094  -18.1775   25.4504 C   0  0  0  0  0  0  0  0  0  0  0  0
    9.4496  -17.1277   25.9791 C   0  0  2  0  0  0  0  0  0  0  0  0
    9.4274  -15.9510   25.1694 N   0  0  0  0  0  0  0  0  0  0  0  0
    9.8117  -16.7610   27.3559 C   0  0  0  0  0  0  0  0  0  0  0  0
    9.5769  -17.5519   28.2983 O   0  0  0  0  0  0  0  0  0  0  0  0
   10.4183  -15.5295   27.6138 O   0  0  0  0  0  0  0  0  0  0  0  0
  2  1  1  6
  3  2  1  0
  4  6  1  0
  4  2  1  0
  4  5  1  6
  6  8  1  0
  7  6  2  0
  8  9  1  0
  9 10  1  1
 10 11  1  0
 11 16  2  0
 11 12  1  0
 12 13  2  0
 13 14  1  0
 15 14  2  0
 16 15  1  0
 17  9  1  0
 18 17  2  0
 20 19  1  6
 20 21  1  0
 21 17  1  0
 22 24  1  0
 22 20  1  0
 23 22  2  0
M  END
$$$$
