TFA.pdb
     RDKit          3D

 24 24  0  0  1  0  0  0  0  0999 V2000
    8.2553  -18.6978   20.9417 C   0  0  0  0  0  0  0  0  0  0  0  0
    9.4368  -18.2359   20.1162 C   0  0  1  0  0  0  0  0  0  0  0  0
    9.2528  -18.7112   18.8069 O   0  0  0  0  0  0  0  0  0  0  0  0
    9.3925  -16.7261   20.0637 C   0  0  2  0  0  0  0  0  0  0  0  0
   10.3359  -16.2047   19.1055 N   0  0  0  0  0  0  0  0  0  0  0  0
    9.6022  -16.0951   21.3661 C   0  0  0  0  0  0  0  0  0  0  0  0
   10.7153  -16.0496   21.9579 O   0  0  0  0  0  0  0  0  0  0  0  0
    8.4912  -15.4911   22.0180 N   0  0  0  0  0  0  0  0  0  0  0  0
    8.5425  -14.9179   23.3275 C   0  0  1  0  0  0  0  0  0  0  0  0
    7.2905  -14.0816   23.5221 C   0  0  0  0  0  0  0  0  0  0  0  0
    7.2199  -13.4385   24.8338 C   0  0  0  0  0  0  0  0  0  0  0  0
    6.3167  -13.8617   25.7815 C   0  0  0  0  0  0  0  0  0  0  0  0
    6.2779  -13.2311   27.0061 C   0  0  0  0  0  0  0  0  0  0  0  0
    7.1195  -12.1840   27.3144 C   0  0  0  0  0  0  0  0  0  0  0  0
    8.0292  -11.7572   26.3611 C   0  0  0  0  0  0  0  0  0  0  0  0
    8.0648  -12.3945   25.1302 C   0  0  0  0  0  0  0  0  0  0  0  0
    8.6606  -15.8918   24.4128 C   0  0  0  0  0  0  0  0  0  0  0  0
    7.6899  -16.6889   24.5815 O   0  0  0  0  0  0  0  0  0  0  0  0
   11.1050  -17.9803   25.8248 C   0  0  0  0  0  0  0  0  0  0  0  0
    9.9000  -17.1157   26.1459 C   0  0  2  0  0  0  0  0  0  0  0  0
    9.7880  -15.9898   25.2738 N   0  0  0  0  0  0  0  0  0  0  0  0
    9.9733  -16.6450   27.5368 C   0  0  0  0  0  0  0  0  0  0  0  0
   10.0293  -17.4712   28.4765 O   0  0  0  0  0  0  0  0  0  0  0  0
    9.9804  -15.2754   27.8109 O   0  0  0  0  0  0  0  0  0  0  0  0
  2  1  1  1
  3  2  1  0
  4  6  1  0
  4  2  1  0
  4  5  1  6
  6  8  1  0
  7  6  2  0
  8  9  1  0
  9 10  1  1
 10 11  1  0
 11 16  2  0
 11 12  1  0
 12 13  2  0
 13 14  1  0
 15 14  2  0
 16 15  1  0
 17  9  1  0
 18 17  2  0
 20 19  1  6
 20 21  1  0
 21 17  1  0
 22 24  1  0
 22 20  1  0
 23 22  2  0
M  END
$$$$
