TFA.pdb
     RDKit          3D

 24 24  0  0  1  0  0  0  0  0999 V2000
    9.2103  -18.6095   19.7839 C   0  0  0  0  0  0  0  0  0  0  0  0
    9.5012  -17.7811   21.0166 C   0  0  1  0  0  0  0  0  0  0  0  0
   10.8844  -17.5362   21.0479 O   0  0  0  0  0  0  0  0  0  0  0  0
    8.8062  -16.4501   20.8446 C   0  0  2  0  0  0  0  0  0  0  0  0
    9.2017  -15.8041   19.6173 N   0  0  0  0  0  0  0  0  0  0  0  0
    9.0055  -15.5428   21.9740 C   0  0  0  0  0  0  0  0  0  0  0  0
    9.6994  -14.4906   21.9207 O   0  0  0  0  0  0  0  0  0  0  0  0
    8.3846  -15.8530   23.2159 N   0  0  0  0  0  0  0  0  0  0  0  0
    8.4914  -15.0450   24.3914 C   0  0  1  0  0  0  0  0  0  0  0  0
    7.0885  -14.7857   24.9104 C   0  0  0  0  0  0  0  0  0  0  0  0
    6.9980  -13.6108   25.7768 C   0  0  0  0  0  0  0  0  0  0  0  0
    6.4585  -12.4320   25.3161 C   0  0  0  0  0  0  0  0  0  0  0  0
    6.3906  -11.3451   26.1606 C   0  0  0  0  0  0  0  0  0  0  0  0
    6.8484  -11.4009   27.4595 C   0  0  0  0  0  0  0  0  0  0  0  0
    7.3918  -12.5872   27.9243 C   0  0  0  0  0  0  0  0  0  0  0  0
    7.4581  -13.6782   27.0712 C   0  0  0  0  0  0  0  0  0  0  0  0
    9.3130  -15.6244   25.4543 C   0  0  0  0  0  0  0  0  0  0  0  0
    8.8634  -16.6582   26.0331 O   0  0  0  0  0  0  0  0  0  0  0  0
   10.3408  -14.2199   28.1408 C   0  0  0  0  0  0  0  0  0  0  0  0
   10.9741  -15.2520   27.2263 C   0  0  2  0  0  0  0  0  0  0  0  0
   10.5682  -15.0977   25.8653 N   0  0  0  0  0  0  0  0  0  0  0  0
   10.6326  -16.6072   27.6824 C   0  0  0  0  0  0  0  0  0  0  0  0
    9.6755  -16.7810   28.4714 O   0  0  0  0  0  0  0  0  0  0  0  0
   11.3758  -17.7022   27.2356 O   0  0  0  0  0  0  0  0  0  0  0  0
  2  1  1  6
  3  2  1  0
  4  6  1  0
  4  2  1  0
  4  5  1  6
  6  8  1  0
  7  6  2  0
  8  9  1  0
  9 10  1  1
 10 11  1  0
 11 16  2  0
 11 12  1  0
 12 13  2  0
 13 14  1  0
 15 14  2  0
 16 15  1  0
 17  9  1  0
 18 17  2  0
 20 19  1  1
 20 21  1  0
 21 17  1  0
 22 24  1  0
 22 20  1  0
 23 22  2  0
M  END
$$$$
