TFA.pdb
     RDKit          3D

 24 24  0  0  1  0  0  0  0  0999 V2000
    8.7102  -18.8910   22.1145 C   0  0  0  0  0  0  0  0  0  0  0  0
   10.0083  -18.4967   21.4436 C   0  0  1  0  0  0  0  0  0  0  0  0
   10.1125  -19.2340   20.2521 O   0  0  0  0  0  0  0  0  0  0  0  0
    9.9013  -17.0366   21.0685 C   0  0  2  0  0  0  0  0  0  0  0  0
   10.9154  -16.6625   20.1136 N   0  0  0  0  0  0  0  0  0  0  0  0
    9.9443  -16.1380   22.2213 C   0  0  0  0  0  0  0  0  0  0  0  0
   11.0089  -15.7572   22.7807 O   0  0  0  0  0  0  0  0  0  0  0  0
    8.7173  -15.6555   22.7560 N   0  0  0  0  0  0  0  0  0  0  0  0
    8.6185  -14.8195   23.9125 C   0  0  1  0  0  0  0  0  0  0  0  0
    7.2908  -14.0862   23.8483 C   0  0  0  0  0  0  0  0  0  0  0  0
    7.0493  -13.2204   25.0020 C   0  0  0  0  0  0  0  0  0  0  0  0
    6.0799  -13.5295   25.9281 C   0  0  0  0  0  0  0  0  0  0  0  0
    5.8796  -12.6895   27.0019 C   0  0  0  0  0  0  0  0  0  0  0  0
    6.6234  -11.5427   27.1795 C   0  0  0  0  0  0  0  0  0  0  0  0
    7.5996  -11.2305   26.2478 C   0  0  0  0  0  0  0  0  0  0  0  0
    7.7977  -12.0786   25.1689 C   0  0  0  0  0  0  0  0  0  0  0  0
    8.7306  -15.5295   25.1867 C   0  0  0  0  0  0  0  0  0  0  0  0
    8.8655  -14.8241   26.2308 O   0  0  0  0  0  0  0  0  0  0  0  0
    7.7365  -18.6621   26.7734 C   0  0  0  0  0  0  0  0  0  0  0  0
    8.7316  -17.5270   26.6178 C   0  0  2  0  0  0  0  0  0  0  0  0
    8.6968  -16.9454   25.3134 N   0  0  0  0  0  0  0  0  0  0  0  0
   10.0926  -18.0076   26.8972 C   0  0  0  0  0  0  0  0  0  0  0  0
   10.3530  -18.5509   27.9952 O   0  0  0  0  0  0  0  0  0  0  0  0
   11.0964  -17.8583   25.9375 O   0  0  0  0  0  0  0  0  0  0  0  0
  2  1  1  6
  3  2  1  0
  4  6  1  0
  4  2  1  0
  4  5  1  6
  6  8  1  0
  7  6  2  0
  8  9  1  0
  9 10  1  1
 10 11  1  0
 11 16  2  0
 11 12  1  0
 12 13  2  0
 13 14  1  0
 15 14  2  0
 16 15  1  0
 17  9  1  0
 18 17  2  0
 20 19  1  6
 20 21  1  0
 21 17  1  0
 22 24  1  0
 22 20  1  0
 23 22  2  0
M  END
$$$$
