TFA.pdb
     RDKit          3D

 24 24  0  0  1  0  0  0  0  0999 V2000
    7.2550  -14.4359   17.5639 C   0  0  0  0  0  0  0  0  0  0  0  0
    7.7709  -14.7547   18.9506 C   0  0  1  0  0  0  0  0  0  0  0  0
    9.0985  -15.1955   18.8197 O   0  0  0  0  0  0  0  0  0  0  0  0
    7.7945  -13.4632   19.7352 C   0  0  2  0  0  0  0  0  0  0  0  0
    8.5311  -12.4373   19.0388 N   0  0  0  0  0  0  0  0  0  0  0  0
    8.3164  -13.6197   21.0922 C   0  0  0  0  0  0  0  0  0  0  0  0
    9.5063  -13.3650   21.4250 O   0  0  0  0  0  0  0  0  0  0  0  0
    7.4396  -14.0872   22.1104 N   0  0  0  0  0  0  0  0  0  0  0  0
    7.8450  -14.3675   23.4533 C   0  0  1  0  0  0  0  0  0  0  0  0
    6.6351  -14.1940   24.3536 C   0  0  0  0  0  0  0  0  0  0  0  0
    6.9130  -13.4064   25.5542 C   0  0  0  0  0  0  0  0  0  0  0  0
    5.8890  -12.9124   26.3290 C   0  0  0  0  0  0  0  0  0  0  0  0
    6.1888  -12.1731   27.4527 C   0  0  0  0  0  0  0  0  0  0  0  0
    7.4890  -11.9111   27.8279 C   0  0  0  0  0  0  0  0  0  0  0  0
    8.5206  -12.4079   27.0487 C   0  0  0  0  0  0  0  0  0  0  0  0
    8.2144  -13.1511   25.9189 C   0  0  0  0  0  0  0  0  0  0  0  0
    8.4207  -15.6982   23.6488 C   0  0  0  0  0  0  0  0  0  0  0  0
    7.6717  -16.6921   23.4097 O   0  0  0  0  0  0  0  0  0  0  0  0
   11.4703  -17.5300   23.3803 C   0  0  0  0  0  0  0  0  0  0  0  0
   10.2208  -17.2762   24.2031 C   0  0  2  0  0  0  0  0  0  0  0  0
    9.7536  -15.9313   24.0858 N   0  0  0  0  0  0  0  0  0  0  0  0
   10.4794  -17.5769   25.6188 C   0  0  0  0  0  0  0  0  0  0  0  0
   10.9120  -18.7041   25.9519 O   0  0  0  0  0  0  0  0  0  0  0  0
   10.2428  -16.6048   26.5935 O   0  0  0  0  0  0  0  0  0  0  0  0
  2  1  1  6
  3  2  1  0
  4  6  1  0
  4  2  1  0
  4  5  1  6
  6  8  1  0
  7  6  2  0
  8  9  1  0
  9 10  1  1
 10 11  1  0
 11 16  2  0
 11 12  1  0
 12 13  2  0
 13 14  1  0
 15 14  2  0
 16 15  1  0
 17  9  1  0
 18 17  2  0
 20 19  1  6
 20 21  1  0
 21 17  1  0
 22 24  1  0
 22 20  1  0
 23 22  2  0
M  END
$$$$
