TFA.pdb
     RDKit          3D

 24 24  0  0  1  0  0  0  0  0999 V2000
    7.6480  -15.1394   17.4415 C   0  0  0  0  0  0  0  0  0  0  0  0
    8.0521  -15.0977   18.8994 C   0  0  1  0  0  0  0  0  0  0  0  0
    9.4076  -15.4596   18.9757 O   0  0  0  0  0  0  0  0  0  0  0  0
    7.9363  -13.6637   19.3626 C   0  0  2  0  0  0  0  0  0  0  0  0
    8.6507  -12.7680   18.4867 N   0  0  0  0  0  0  0  0  0  0  0  0
    8.3717  -13.4648   20.7444 C   0  0  0  0  0  0  0  0  0  0  0  0
    9.4895  -12.9789   21.0697 O   0  0  0  0  0  0  0  0  0  0  0  0
    7.4907  -13.8377   21.7974 N   0  0  0  0  0  0  0  0  0  0  0  0
    7.8357  -13.7992   23.1851 C   0  0  1  0  0  0  0  0  0  0  0  0
    6.5558  -13.6186   23.9812 C   0  0  0  0  0  0  0  0  0  0  0  0
    6.7801  -13.1080   25.3332 C   0  0  0  0  0  0  0  0  0  0  0  0
    6.1403  -13.6664   26.4156 C   0  0  0  0  0  0  0  0  0  0  0  0
    6.3752  -13.1582   27.6748 C   0  0  0  0  0  0  0  0  0  0  0  0
    7.2354  -12.1022   27.8864 C   0  0  0  0  0  0  0  0  0  0  0  0
    7.8801  -11.5393   26.7973 C   0  0  0  0  0  0  0  0  0  0  0  0
    7.6408  -12.0538   25.5323 C   0  0  0  0  0  0  0  0  0  0  0  0
    8.5547  -14.9794   23.6652 C   0  0  0  0  0  0  0  0  0  0  0  0
    8.6911  -15.1020   24.9192 O   0  0  0  0  0  0  0  0  0  0  0  0
    9.6194  -18.3460   22.4537 C   0  0  0  0  0  0  0  0  0  0  0  0
    9.6605  -17.1572   23.3959 C   0  0  2  0  0  0  0  0  0  0  0  0
    9.0995  -15.9795   22.8136 N   0  0  0  0  0  0  0  0  0  0  0  0
   11.0467  -16.8831   23.8019 C   0  0  0  0  0  0  0  0  0  0  0  0
   11.7166  -17.7672   24.3835 O   0  0  0  0  0  0  0  0  0  0  0  0
   11.6175  -15.6356   23.5389 O   0  0  0  0  0  0  0  0  0  0  0  0
  2  1  1  6
  3  2  1  0
  4  6  1  0
  4  2  1  0
  4  5  1  6
  6  8  1  0
  7  6  2  0
  8  9  1  0
  9 10  1  1
 10 11  1  0
 11 16  2  0
 11 12  1  0
 12 13  2  0
 13 14  1  0
 15 14  2  0
 16 15  1  0
 17  9  1  0
 18 17  2  0
 20 19  1  6
 20 21  1  0
 21 17  1  0
 22 24  1  0
 22 20  1  0
 23 22  2  0
M  END
$$$$
