TFA.pdb
     RDKit          3D

 24 24  0  0  1  0  0  0  0  0999 V2000
    7.5279  -15.1618   17.2264 C   0  0  0  0  0  0  0  0  0  0  0  0
    8.0569  -15.0800   18.6420 C   0  0  1  0  0  0  0  0  0  0  0  0
    9.4582  -15.1588   18.5777 O   0  0  0  0  0  0  0  0  0  0  0  0
    7.7013  -13.7140   19.1823 C   0  0  2  0  0  0  0  0  0  0  0  0
    8.1809  -12.6644   18.3173 N   0  0  0  0  0  0  0  0  0  0  0  0
    8.1732  -13.4909   20.5483 C   0  0  0  0  0  0  0  0  0  0  0  0
    9.2465  -12.8937   20.8360 O   0  0  0  0  0  0  0  0  0  0  0  0
    7.3835  -13.9716   21.6297 N   0  0  0  0  0  0  0  0  0  0  0  0
    7.7681  -13.8874   23.0049 C   0  0  1  0  0  0  0  0  0  0  0  0
    6.5223  -13.5982   23.8228 C   0  0  0  0  0  0  0  0  0  0  0  0
    6.8015  -13.3436   25.2357 C   0  0  0  0  0  0  0  0  0  0  0  0
    6.6525  -14.3365   26.1764 C   0  0  0  0  0  0  0  0  0  0  0  0
    6.9236  -14.0596   27.4989 C   0  0  0  0  0  0  0  0  0  0  0  0
    7.3416  -12.8129   27.9123 C   0  0  0  0  0  0  0  0  0  0  0  0
    7.4919  -11.8127   26.9660 C   0  0  0  0  0  0  0  0  0  0  0  0
    7.2180  -12.0956   25.6366 C   0  0  0  0  0  0  0  0  0  0  0  0
    8.4343  -15.0821   23.5236 C   0  0  0  0  0  0  0  0  0  0  0  0
    8.0685  -16.1990   23.0495 O   0  0  0  0  0  0  0  0  0  0  0  0
    9.0062  -17.4290   24.9311 C   0  0  0  0  0  0  0  0  0  0  0  0
   10.0095  -16.2912   24.9709 C   0  0  2  0  0  0  0  0  0  0  0  0
    9.4535  -15.0569   24.5149 N   0  0  0  0  0  0  0  0  0  0  0  0
   11.1836  -16.6252   24.1515 C   0  0  0  0  0  0  0  0  0  0  0  0
   11.8347  -17.6695   24.3844 O   0  0  0  0  0  0  0  0  0  0  0  0
   11.5736  -15.7773   23.1122 O   0  0  0  0  0  0  0  0  0  0  0  0
  2  1  1  6
  3  2  1  0
  4  6  1  0
  4  2  1  0
  4  5  1  6
  6  8  1  0
  7  6  2  0
  8  9  1  0
  9 10  1  1
 10 11  1  0
 11 16  2  0
 11 12  1  0
 12 13  2  0
 13 14  1  0
 15 14  2  0
 16 15  1  0
 17  9  1  0
 18 17  2  0
 20 19  1  6
 20 21  1  0
 21 17  1  0
 22 24  1  0
 22 20  1  0
 23 22  2  0
M  END
$$$$
