FSS.pdb
     RDKit          3D

 24 24  0  0  1  0  0  0  0  0999 V2000
   21.3412  -12.2297  -18.9547 N   0  0  0  0  0  0  0  0  0  0  0  0
   21.4380  -10.8244  -19.2003 C   0  0  1  0  0  0  0  0  0  0  0  0
   21.1153  -10.5206  -20.6415 C   0  0  0  0  0  0  0  0  0  0  0  0
   22.1618  -11.2013  -21.4770 C   0  0  0  0  0  0  0  0  0  0  0  0
   23.3936  -10.5847  -21.6826 C   0  0  0  0  0  0  0  0  0  0  0  0
   24.3513  -11.2012  -22.4496 C   0  0  0  0  0  0  0  0  0  0  0  0
   24.1444  -12.4260  -23.0366 C   0  0  0  0  0  0  0  0  0  0  0  0
   22.9179  -13.0542  -22.8399 C   0  0  0  0  0  0  0  0  0  0  0  0
   21.9621  -12.4269  -22.0675 C   0  0  0  0  0  0  0  0  0  0  0  0
   20.6535   -9.9931  -18.2638 C   0  0  0  0  0  0  0  0  0  0  0  0
   19.4896  -10.3447  -17.8833 O   0  0  0  0  0  0  0  0  0  0  0  0
   22.2053   -7.4467  -15.4502 O   0  0  0  0  0  0  0  0  0  0  0  0
   20.9059   -7.9094  -15.4223 C   0  0  0  0  0  0  0  0  0  0  0  0
   20.2954   -7.9645  -16.8179 C   0  0  2  0  0  0  0  0  0  0  0  0
   21.1138   -8.7533  -17.7128 N   0  0  0  0  0  0  0  0  0  0  0  0
   20.1494   -6.5684  -17.2751 C   0  0  0  0  0  0  0  0  0  0  0  0
   21.0104   -6.0513  -18.0695 O   0  0  0  0  0  0  0  0  0  0  0  0
   17.2374   -4.1523  -15.8193 O   0  0  0  0  0  0  0  0  0  0  0  0
   17.5687   -3.7906  -17.1382 C   0  0  0  0  0  0  0  0  0  0  0  0
   18.9827   -4.3350  -17.3476 C   0  0  2  0  0  0  0  0  0  0  0  0
   19.0890   -5.7006  -16.8979 N   0  0  0  0  0  0  0  0  0  0  0  0
   19.9427   -3.4347  -16.7090 C   0  0  0  0  0  0  0  0  0  0  0  0
   20.6789   -3.8505  -15.7908 O   0  0  0  0  0  0  0  0  0  0  0  0
   20.0576   -2.1162  -17.1016 O   0  0  0  0  0  0  0  0  0  0  0  0
  2  1  1  1
  2  3  1  0
  4  3  1  0
  5  4  2  0
  6  5  1  0
  7  6  2  0
  7  8  1  0
  8  9  2  0
  9  4  1  0
 10  2  1  0
 10 11  2  0
 12 13  1  0
 14 13  1  1
 14 15  1  0
 15 10  1  0
 16 14  1  0
 17 16  2  0
 18 19  1  0
 20 19  1  1
 20 21  1  0
 20 22  1  0
 21 16  1  0
 22 23  2  0
 22 24  1  0
M  END
$$$$
