FSS.pdb
     RDKit          3D

 24 24  0  0  1  0  0  0  0  0999 V2000
   26.5368  -18.3830   -7.8448 N   0  0  0  0  0  0  0  0  0  0  0  0
   26.9508  -19.6316   -8.4049 C   0  0  1  0  0  0  0  0  0  0  0  0
   26.8185  -20.7337   -7.3844 C   0  0  0  0  0  0  0  0  0  0  0  0
   27.7150  -20.3745   -6.2338 C   0  0  0  0  0  0  0  0  0  0  0  0
   27.1593  -19.9848   -5.0176 C   0  0  0  0  0  0  0  0  0  0  0  0
   27.9750  -19.6511   -3.9647 C   0  0  0  0  0  0  0  0  0  0  0  0
   29.3452  -19.6849   -4.0590 C   0  0  0  0  0  0  0  0  0  0  0  0
   29.9148  -20.0724   -5.2686 C   0  0  0  0  0  0  0  0  0  0  0  0
   29.0869  -20.4060   -6.3206 C   0  0  0  0  0  0  0  0  0  0  0  0
   26.2886  -19.9690   -9.6821 C   0  0  0  0  0  0  0  0  0  0  0  0
   25.0190  -20.0169   -9.7761 O   0  0  0  0  0  0  0  0  0  0  0  0
   28.0661  -21.5073  -13.2126 O   0  0  0  0  0  0  0  0  0  0  0  0
   27.3668  -20.3225  -13.3161 C   0  0  0  0  0  0  0  0  0  0  0  0
   26.3511  -20.1654  -12.1904 C   0  0  2  0  0  0  0  0  0  0  0  0
   26.9899  -20.2639  -10.8961 N   0  0  0  0  0  0  0  0  0  0  0  0
   25.3267  -21.2092  -12.3913 C   0  0  0  0  0  0  0  0  0  0  0  0
   25.2760  -22.2277  -11.6167 O   0  0  0  0  0  0  0  0  0  0  0  0
   21.7205  -20.2460  -12.5304 O   0  0  0  0  0  0  0  0  0  0  0  0
   22.2628  -21.4865  -12.1466 C   0  0  0  0  0  0  0  0  0  0  0  0
   23.1064  -21.9295  -13.3432 C   0  0  2  0  0  0  0  0  0  0  0  0
   24.3411  -21.1888  -13.4151 N   0  0  0  0  0  0  0  0  0  0  0  0
   22.2993  -21.8364  -14.5597 C   0  0  0  0  0  0  0  0  0  0  0  0
   22.6269  -21.0504  -15.4723 O   0  0  0  0  0  0  0  0  0  0  0  0
   21.1666  -22.6077  -14.7275 O   0  0  0  0  0  0  0  0  0  0  0  0
  2  1  1  1
  2  3  1  0
  4  3  1  0
  5  4  2  0
  6  5  1  0
  7  6  2  0
  7  8  1  0
  8  9  2  0
  9  4  1  0
 10  2  1  0
 10 11  2  0
 12 13  1  0
 14 13  1  6
 14 15  1  0
 15 10  1  0
 16 14  1  0
 17 16  2  0
 18 19  1  0
 20 19  1  1
 20 21  1  0
 20 22  1  0
 21 16  1  0
 22 23  2  0
 22 24  1  0
M  END
$$$$
