FSS.pdb
     RDKit          3D

 24 24  0  0  1  0  0  0  0  0999 V2000
   28.5269  -21.5203   -8.6851 N   0  0  0  0  0  0  0  0  0  0  0  0
   27.2234  -20.9607   -8.8635 C   0  0  1  0  0  0  0  0  0  0  0  0
   27.1622  -19.5751   -8.2721 C   0  0  0  0  0  0  0  0  0  0  0  0
   27.5333  -19.7015   -6.8219 C   0  0  0  0  0  0  0  0  0  0  0  0
   28.6483  -19.0270   -6.3304 C   0  0  0  0  0  0  0  0  0  0  0  0
   28.9938  -19.1435   -5.0066 C   0  0  0  0  0  0  0  0  0  0  0  0
   28.2731  -19.9129   -4.1254 C   0  0  0  0  0  0  0  0  0  0  0  0
   27.1561  -20.5929   -4.6025 C   0  0  0  0  0  0  0  0  0  0  0  0
   26.8170  -20.4693   -5.9342 C   0  0  0  0  0  0  0  0  0  0  0  0
   26.7377  -20.9957  -10.2585 C   0  0  0  0  0  0  0  0  0  0  0  0
   27.5045  -20.7040  -11.2332 O   0  0  0  0  0  0  0  0  0  0  0  0
   22.6561  -21.1168  -11.3904 O   0  0  0  0  0  0  0  0  0  0  0  0
   23.5407  -21.8604  -12.1440 C   0  0  0  0  0  0  0  0  0  0  0  0
   24.9683  -21.3422  -12.0146 C   0  0  2  0  0  0  0  0  0  0  0  0
   25.4014  -21.3504  -10.6342 N   0  0  0  0  0  0  0  0  0  0  0  0
   24.9850  -19.9870  -12.5997 C   0  0  0  0  0  0  0  0  0  0  0  0
   24.5207  -18.9901  -11.9437 O   0  0  0  0  0  0  0  0  0  0  0  0
   27.5218  -18.8245  -15.3739 O   0  0  0  0  0  0  0  0  0  0  0  0
   26.8377  -17.7885  -14.7113 C   0  0  0  0  0  0  0  0  0  0  0  0
   25.4359  -18.3464  -14.4598 C   0  0  2  0  0  0  0  0  0  0  0  0
   25.4942  -19.6685  -13.8878 N   0  0  0  0  0  0  0  0  0  0  0  0
   24.6642  -18.2819  -15.7009 C   0  0  0  0  0  0  0  0  0  0  0  0
   24.0986  -19.3031  -16.1427 O   0  0  0  0  0  0  0  0  0  0  0  0
   24.5432  -17.1021  -16.4076 O   0  0  0  0  0  0  0  0  0  0  0  0
  2  1  1  6
  2  3  1  0
  4  3  1  0
  5  4  2  0
  6  5  1  0
  7  6  2  0
  7  8  1  0
  8  9  2  0
  9  4  1  0
 10  2  1  0
 10 11  2  0
 12 13  1  0
 14 13  1  1
 14 15  1  0
 15 10  1  0
 16 14  1  0
 17 16  2  0
 18 19  1  0
 20 19  1  6
 20 21  1  0
 20 22  1  0
 21 16  1  0
 22 23  2  0
 22 24  1  0
M  END
$$$$
