FSS.pdb
     RDKit          3D

 24 24  0  0  1  0  0  0  0  0999 V2000
   21.5770  -12.1296  -18.1270 N   0  0  0  0  0  0  0  0  0  0  0  0
   21.0244  -10.8486  -18.4401 C   0  0  1  0  0  0  0  0  0  0  0  0
   19.5615  -10.8058  -18.0772 C   0  0  0  0  0  0  0  0  0  0  0  0
   18.8503  -11.7378  -19.0164 C   0  0  0  0  0  0  0  0  0  0  0  0
   18.4386  -12.9911  -18.5696 C   0  0  0  0  0  0  0  0  0  0  0  0
   17.7924  -13.8480  -19.4260 C   0  0  0  0  0  0  0  0  0  0  0  0
   17.5278  -13.5175  -20.7331 C   0  0  0  0  0  0  0  0  0  0  0  0
   17.9335  -12.2681  -21.1938 C   0  0  0  0  0  0  0  0  0  0  0  0
   18.5819  -11.4141  -20.3256 C   0  0  0  0  0  0  0  0  0  0  0  0
   21.7761   -9.7117  -17.8694 C   0  0  0  0  0  0  0  0  0  0  0  0
   22.2552   -9.7610  -16.6899 O   0  0  0  0  0  0  0  0  0  0  0  0
   24.2426   -7.0301  -19.8466 O   0  0  0  0  0  0  0  0  0  0  0  0
   23.2978   -6.4423  -19.0309 C   0  0  0  0  0  0  0  0  0  0  0  0
   22.7878   -7.4093  -17.9687 C   0  0  2  0  0  0  0  0  0  0  0  0
   22.0292   -8.4861  -18.5670 N   0  0  0  0  0  0  0  0  0  0  0  0
   21.9823   -6.6151  -17.0202 C   0  0  0  0  0  0  0  0  0  0  0  0
   20.7498   -6.3669  -17.2632 O   0  0  0  0  0  0  0  0  0  0  0  0
   22.1844   -6.9801  -13.2169 O   0  0  0  0  0  0  0  0  0  0  0  0
   22.1659   -5.5871  -13.4156 C   0  0  0  0  0  0  0  0  0  0  0  0
   21.6324   -5.4037  -14.8373 C   0  0  2  0  0  0  0  0  0  0  0  0
   22.4707   -6.0730  -15.8006 N   0  0  0  0  0  0  0  0  0  0  0  0
   21.4624   -3.9757  -15.1053 C   0  0  0  0  0  0  0  0  0  0  0  0
   22.3379   -3.3459  -15.7338 O   0  0  0  0  0  0  0  0  0  0  0  0
   20.3410   -3.2955  -14.6745 O   0  0  0  0  0  0  0  0  0  0  0  0
  2  1  1  1
  2  3  1  0
  4  3  1  0
  5  4  2  0
  6  5  1  0
  7  6  2  0
  7  8  1  0
  8  9  2  0
  9  4  1  0
 10  2  1  0
 10 11  2  0
 12 13  1  0
 14 13  1  6
 14 15  1  0
 15 10  1  0
 16 14  1  0
 17 16  2  0
 18 19  1  0
 20 19  1  1
 20 21  1  0
 20 22  1  0
 21 16  1  0
 22 23  2  0
 22 24  1  0
M  END
$$$$
