FSS.pdb
     RDKit          3D

 24 24  0  0  1  0  0  0  0  0999 V2000
   21.5596  -10.2116  -16.7468 N   0  0  0  0  0  0  0  0  0  0  0  0
   21.6843   -8.8528  -17.1738 C   0  0  1  0  0  0  0  0  0  0  0  0
   21.0367   -8.6655  -18.5225 C   0  0  0  0  0  0  0  0  0  0  0  0
   21.8104   -9.5039  -19.4997 C   0  0  0  0  0  0  0  0  0  0  0  0
   21.2088  -10.6126  -20.0904 C   0  0  0  0  0  0  0  0  0  0  0  0
   21.9139  -11.3845  -20.9805 C   0  0  0  0  0  0  0  0  0  0  0  0
   23.2152  -11.1063  -21.3223 C   0  0  0  0  0  0  0  0  0  0  0  0
   23.8296  -10.0013  -20.7399 C   0  0  0  0  0  0  0  0  0  0  0  0
   23.1128   -9.2318  -19.8468 C   0  0  0  0  0  0  0  0  0  0  0  0
   21.2112   -7.8635  -16.1835 C   0  0  0  0  0  0  0  0  0  0  0  0
   20.0468   -7.9440  -15.6727 O   0  0  0  0  0  0  0  0  0  0  0  0
   22.0836   -3.9575  -13.3496 O   0  0  0  0  0  0  0  0  0  0  0  0
   22.5654   -4.8670  -14.2683 C   0  0  0  0  0  0  0  0  0  0  0  0
   21.4652   -5.7884  -14.7821 C   0  0  2  0  0  0  0  0  0  0  0  0
   21.9929   -6.7563  -15.7190 N   0  0  0  0  0  0  0  0  0  0  0  0
   20.4340   -4.9242  -15.3895 C   0  0  0  0  0  0  0  0  0  0  0  0
   20.6234   -4.3976  -16.5413 O   0  0  0  0  0  0  0  0  0  0  0  0
   16.6987   -4.7706  -13.8932 O   0  0  0  0  0  0  0  0  0  0  0  0
   16.7853   -4.4787  -15.2671 C   0  0  0  0  0  0  0  0  0  0  0  0
   18.1615   -3.8343  -15.4421 C   0  0  2  0  0  0  0  0  0  0  0  0
   19.1873   -4.6060  -14.7858 N   0  0  0  0  0  0  0  0  0  0  0  0
   18.1007   -2.4437  -14.9921 C   0  0  0  0  0  0  0  0  0  0  0  0
   18.8691   -2.0395  -14.0954 O   0  0  0  0  0  0  0  0  0  0  0  0
   17.2013   -1.5525  -15.5424 O   0  0  0  0  0  0  0  0  0  0  0  0
  2  1  1  1
  2  3  1  0
  4  3  1  0
  5  4  2  0
  6  5  1  0
  7  6  2  0
  7  8  1  0
  8  9  2  0
  9  4  1  0
 10  2  1  0
 10 11  2  0
 12 13  1  0
 14 13  1  6
 14 15  1  0
 15 10  1  0
 16 14  1  0
 17 16  2  0
 18 19  1  0
 20 19  1  1
 20 21  1  0
 20 22  1  0
 21 16  1  0
 22 23  2  0
 22 24  1  0
M  END
$$$$
