FSS.pdb
     RDKit          3D

 24 24  0  0  1  0  0  0  0  0999 V2000
   25.2976  -10.2395  -18.0826 N   0  0  0  0  0  0  0  0  0  0  0  0
   24.9031   -9.9118  -16.7480 C   0  0  1  0  0  0  0  0  0  0  0  0
   26.1074   -9.5333  -15.9233 C   0  0  0  0  0  0  0  0  0  0  0  0
   27.0530  -10.6997  -15.9690 C   0  0  0  0  0  0  0  0  0  0  0  0
   28.2256  -10.6124  -16.7155 C   0  0  0  0  0  0  0  0  0  0  0  0
   29.0905  -11.6778  -16.7639 C   0  0  0  0  0  0  0  0  0  0  0  0
   28.8458  -12.8522  -16.0942 C   0  0  0  0  0  0  0  0  0  0  0  0
   27.6776  -12.9539  -15.3440 C   0  0  0  0  0  0  0  0  0  0  0  0
   26.8150  -11.8780  -15.3015 C   0  0  0  0  0  0  0  0  0  0  0  0
   23.8294   -8.8999  -16.6677 C   0  0  0  0  0  0  0  0  0  0  0  0
   23.9184   -7.7906  -17.2880 O   0  0  0  0  0  0  0  0  0  0  0  0
   20.6844   -8.8865  -13.8229 O   0  0  0  0  0  0  0  0  0  0  0  0
   20.3660   -8.5420  -15.1203 C   0  0  0  0  0  0  0  0  0  0  0  0
   21.5877   -8.0581  -15.8928 C   0  0  2  0  0  0  0  0  0  0  0  0
   22.6253   -9.0660  -15.9092 N   0  0  0  0  0  0  0  0  0  0  0  0
   22.0316   -6.8063  -15.2484 C   0  0  0  0  0  0  0  0  0  0  0  0
   23.2585   -6.6447  -14.9188 O   0  0  0  0  0  0  0  0  0  0  0  0
   22.8769   -2.6162  -15.7748 O   0  0  0  0  0  0  0  0  0  0  0  0
   22.4183   -3.9132  -16.0712 C   0  0  0  0  0  0  0  0  0  0  0  0
   21.6537   -4.3509  -14.8209 C   0  0  2  0  0  0  0  0  0  0  0  0
   21.1826   -5.7078  -14.9445 N   0  0  0  0  0  0  0  0  0  0  0  0
   20.5879   -3.3866  -14.5483 C   0  0  0  0  0  0  0  0  0  0  0  0
   19.4970   -3.4696  -15.1490 O   0  0  0  0  0  0  0  0  0  0  0  0
   20.7601   -2.3709  -13.6293 O   0  0  0  0  0  0  0  0  0  0  0  0
  2  1  1  6
  2  3  1  0
  4  3  1  0
  5  4  2  0
  6  5  1  0
  7  6  2  0
  7  8  1  0
  8  9  2  0
  9  4  1  0
 10  2  1  0
 10 11  2  0
 12 13  1  0
 14 13  1  1
 14 15  1  0
 15 10  1  0
 16 14  1  0
 17 16  2  0
 18 19  1  0
 20 19  1  6
 20 21  1  0
 20 22  1  0
 21 16  1  0
 22 23  2  0
 22 24  1  0
M  END
$$$$
