FSS.pdb
     RDKit          3D

 24 24  0  0  1  0  0  0  0  0999 V2000
   25.4547  -35.9217  -12.7623 N   0  0  0  0  0  0  0  0  0  0  0  0
   24.8233  -35.4966  -11.5520 C   0  0  1  0  0  0  0  0  0  0  0  0
   24.1504  -36.6632  -10.8740 C   0  0  0  0  0  0  0  0  0  0  0  0
   23.0306  -37.1051  -11.7726 C   0  0  0  0  0  0  0  0  0  0  0  0
   21.8381  -36.3861  -11.7990 C   0  0  0  0  0  0  0  0  0  0  0  0
   20.8103  -36.7892  -12.6154 C   0  0  0  0  0  0  0  0  0  0  0  0
   20.9074  -37.8947  -13.4254 C   0  0  0  0  0  0  0  0  0  0  0  0
   22.0934  -38.6232  -13.4095 C   0  0  0  0  0  0  0  0  0  0  0  0
   23.1204  -38.2101  -12.5860 C   0  0  0  0  0  0  0  0  0  0  0  0
   25.7136  -34.7543  -10.6357 C   0  0  0  0  0  0  0  0  0  0  0  0
   26.9354  -35.0844  -10.4890 O   0  0  0  0  0  0  0  0  0  0  0  0
   24.4057  -31.8223   -7.8329 O   0  0  0  0  0  0  0  0  0  0  0  0
   25.6118  -31.6274   -8.4737 C   0  0  0  0  0  0  0  0  0  0  0  0
   26.2109  -32.9409   -8.9628 C   0  0  2  0  0  0  0  0  0  0  0  0
   25.2999  -33.6290   -9.8514 N   0  0  0  0  0  0  0  0  0  0  0  0
   26.5313  -33.7370   -7.7616 C   0  0  0  0  0  0  0  0  0  0  0  0
   25.7411  -34.6640   -7.3664 O   0  0  0  0  0  0  0  0  0  0  0  0
   30.1182  -35.2001   -6.2053 O   0  0  0  0  0  0  0  0  0  0  0  0
   29.4576  -34.2513   -5.4030 C   0  0  0  0  0  0  0  0  0  0  0  0
   27.9847  -34.3641   -5.7997 C   0  0  2  0  0  0  0  0  0  0  0  0
   27.6936  -33.5630   -6.9624 N   0  0  0  0  0  0  0  0  0  0  0  0
   27.1502  -34.0376   -4.6434 C   0  0  0  0  0  0  0  0  0  0  0  0
   26.3458  -33.0847   -4.6982 O   0  0  0  0  0  0  0  0  0  0  0  0
   27.2303  -34.7677   -3.4744 O   0  0  0  0  0  0  0  0  0  0  0  0
  2  1  1  6
  2  3  1  0
  4  3  1  0
  5  4  2  0
  6  5  1  0
  7  6  2  0
  7  8  1  0
  8  9  2  0
  9  4  1  0
 10  2  1  0
 10 11  2  0
 12 13  1  0
 14 13  1  1
 14 15  1  0
 15 10  1  0
 16 14  1  0
 17 16  2  0
 18 19  1  0
 20 19  1  1
 20 21  1  0
 20 22  1  0
 21 16  1  0
 22 23  2  0
 22 24  1  0
M  END
$$$$
