FSS.pdb
     RDKit          3D

 24 24  0  0  1  0  0  0  0  0999 V2000
   19.0501   -8.8255  -15.4476 N   0  0  0  0  0  0  0  0  0  0  0  0
   18.8971   -8.2202  -14.1613 C   0  0  1  0  0  0  0  0  0  0  0  0
   20.1130   -7.3956  -13.8219 C   0  0  0  0  0  0  0  0  0  0  0  0
   21.2936   -8.3239  -13.8518 C   0  0  0  0  0  0  0  0  0  0  0  0
   21.4534   -9.2746  -12.8465 C   0  0  0  0  0  0  0  0  0  0  0  0
   22.5336  -10.1220  -12.8673 C   0  0  0  0  0  0  0  0  0  0  0  0
   23.4852  -10.0732  -13.8571 C   0  0  0  0  0  0  0  0  0  0  0  0
   23.3386   -9.1280  -14.8685 C   0  0  0  0  0  0  0  0  0  0  0  0
   22.2498   -8.2812  -14.8389 C   0  0  0  0  0  0  0  0  0  0  0  0
   17.6413   -7.4589  -13.9986 C   0  0  0  0  0  0  0  0  0  0  0  0
   17.1200   -6.8267  -14.9742 O   0  0  0  0  0  0  0  0  0  0  0  0
   14.5436   -8.3086  -11.3619 O   0  0  0  0  0  0  0  0  0  0  0  0
   14.9277   -6.9837  -11.3855 C   0  0  0  0  0  0  0  0  0  0  0  0
   15.6697   -6.6329  -12.6700 C   0  0  2  0  0  0  0  0  0  0  0  0
   16.9145   -7.3635  -12.7675 N   0  0  0  0  0  0  0  0  0  0  0  0
   15.8765   -5.1713  -12.6577 C   0  0  0  0  0  0  0  0  0  0  0  0
   16.8913   -4.6635  -12.0643 O   0  0  0  0  0  0  0  0  0  0  0  0
   15.3126   -2.9055  -15.6346 O   0  0  0  0  0  0  0  0  0  0  0  0
   14.7260   -2.1736  -14.5855 C   0  0  0  0  0  0  0  0  0  0  0  0
   15.2791   -2.8107  -13.3097 C   0  0  2  0  0  0  0  0  0  0  0  0
   15.0117   -4.2269  -13.2742 N   0  0  0  0  0  0  0  0  0  0  0  0
   14.7572   -2.0899  -12.1485 C   0  0  0  0  0  0  0  0  0  0  0  0
   13.9407   -2.6410  -11.3820 O   0  0  0  0  0  0  0  0  0  0  0  0
   15.1506   -0.7954  -11.8741 O   0  0  0  0  0  0  0  0  0  0  0  0
  2  1  1  6
  2  3  1  0
  4  3  1  0
  5  4  2  0
  6  5  1  0
  7  6  2  0
  7  8  1  0
  8  9  2  0
  9  4  1  0
 10  2  1  0
 10 11  2  0
 12 13  1  0
 14 13  1  1
 14 15  1  0
 15 10  1  0
 16 14  1  0
 17 16  2  0
 18 19  1  0
 20 19  1  6
 20 21  1  0
 20 22  1  0
 21 16  1  0
 22 23  2  0
 22 24  1  0
M  END
$$$$
