FSS.pdb
     RDKit          3D

 24 24  0  0  1  0  0  0  0  0999 V2000
   20.5621  -10.3024  -16.2970 N   0  0  0  0  0  0  0  0  0  0  0  0
   20.8991   -9.0365  -16.8699 C   0  0  1  0  0  0  0  0  0  0  0  0
   20.3925   -8.9509  -18.2874 C   0  0  0  0  0  0  0  0  0  0  0  0
   21.0986  -10.0214  -19.0698 C   0  0  0  0  0  0  0  0  0  0  0  0
   20.4499  -11.2237  -19.3411 C   0  0  0  0  0  0  0  0  0  0  0  0
   21.0933  -12.2067  -20.0517 C   0  0  0  0  0  0  0  0  0  0  0  0
   22.3768  -12.0545  -20.5176 C   0  0  0  0  0  0  0  0  0  0  0  0
   23.0377  -10.8580  -20.2540 C   0  0  0  0  0  0  0  0  0  0  0  0
   22.3828   -9.8763  -19.5393 C   0  0  0  0  0  0  0  0  0  0  0  0
   20.4824   -7.8760  -16.0556 C   0  0  0  0  0  0  0  0  0  0  0  0
   19.3085   -7.7985  -15.5666 O   0  0  0  0  0  0  0  0  0  0  0  0
   23.1364   -5.4048  -14.0432 O   0  0  0  0  0  0  0  0  0  0  0  0
   21.8163   -5.5573  -13.6727 C   0  0  0  0  0  0  0  0  0  0  0  0
   20.9005   -5.6880  -14.8842 C   0  0  2  0  0  0  0  0  0  0  0  0
   21.3326   -6.7643  -15.7489 N   0  0  0  0  0  0  0  0  0  0  0  0
   20.9096   -4.3802  -15.5689 C   0  0  0  0  0  0  0  0  0  0  0  0
   21.7925   -4.1186  -16.4588 O   0  0  0  0  0  0  0  0  0  0  0  0
   18.0920   -1.5697  -14.8010 O   0  0  0  0  0  0  0  0  0  0  0  0
   18.6516   -1.4172  -16.0832 C   0  0  0  0  0  0  0  0  0  0  0  0
   20.0403   -2.0499  -15.9796 C   0  0  2  0  0  0  0  0  0  0  0  0
   19.9832   -3.3312  -15.3213 N   0  0  0  0  0  0  0  0  0  0  0  0
   20.9515   -1.1039  -15.3355 C   0  0  0  0  0  0  0  0  0  0  0  0
   21.5065   -1.4011  -14.2577 O   0  0  0  0  0  0  0  0  0  0  0  0
   21.2179    0.1285  -15.8976 O   0  0  0  0  0  0  0  0  0  0  0  0
  2  1  1  1
  2  3  1  0
  4  3  1  0
  5  4  2  0
  6  5  1  0
  7  6  2  0
  7  8  1  0
  8  9  2  0
  9  4  1  0
 10  2  1  0
 10 11  2  0
 12 13  1  0
 14 13  1  1
 14 15  1  0
 15 10  1  0
 16 14  1  0
 17 16  2  0
 18 19  1  0
 20 19  1  1
 20 21  1  0
 20 22  1  0
 21 16  1  0
 22 23  2  0
 22 24  1  0
M  END
$$$$
