FSS.pdb
     RDKit          3D

 24 24  0  0  1  0  0  0  0  0999 V2000
   26.4501  -25.4625   13.0298 N   0  0  0  0  0  0  0  0  0  0  0  0
   25.7271  -26.2473   12.0782 C   0  0  1  0  0  0  0  0  0  0  0  0
   25.0802  -25.3570   11.0475 C   0  0  0  0  0  0  0  0  0  0  0  0
   26.1721  -24.5185   10.4464 C   0  0  0  0  0  0  0  0  0  0  0  0
   26.4316  -23.2488   10.9568 C   0  0  0  0  0  0  0  0  0  0  0  0
   27.4256  -22.4772   10.4072 C   0  0  0  0  0  0  0  0  0  0  0  0
   28.1926  -22.9107    9.3530 C   0  0  0  0  0  0  0  0  0  0  0  0
   27.9445  -24.1777    8.8325 C   0  0  0  0  0  0  0  0  0  0  0  0
   26.9438  -24.9455    9.3915 C   0  0  0  0  0  0  0  0  0  0  0  0
   26.5209  -27.3309   11.4626 C   0  0  0  0  0  0  0  0  0  0  0  0
   27.7728  -27.2025   11.2636 O   0  0  0  0  0  0  0  0  0  0  0  0
   25.0148  -31.1867   10.0786 O   0  0  0  0  0  0  0  0  0  0  0  0
   26.1886  -31.0144   10.7827 C   0  0  0  0  0  0  0  0  0  0  0  0
   26.8094  -29.6471   10.5210 C   0  0  2  0  0  0  0  0  0  0  0  0
   25.9748  -28.5881   11.0454 N   0  0  0  0  0  0  0  0  0  0  0  0
   27.0025  -29.5385    9.0615 C   0  0  0  0  0  0  0  0  0  0  0  0
   26.2001  -28.8387    8.3500 O   0  0  0  0  0  0  0  0  0  0  0  0
   29.7062  -30.2571    5.1219 O   0  0  0  0  0  0  0  0  0  0  0  0
   29.5272  -30.6911    6.4485 C   0  0  0  0  0  0  0  0  0  0  0  0
   28.2525  -29.9889    6.9192 C   0  0  2  0  0  0  0  0  0  0  0  0
   28.0487  -30.1691    8.3350 N   0  0  0  0  0  0  0  0  0  0  0  0
   27.1254  -30.4448    6.1056 C   0  0  0  0  0  0  0  0  0  0  0  0
   26.4163  -31.3966    6.4918 O   0  0  0  0  0  0  0  0  0  0  0  0
   26.8208  -29.8401    4.9025 O   0  0  0  0  0  0  0  0  0  0  0  0
  2  1  1  1
  2  3  1  0
  4  3  1  0
  5  4  2  0
  6  5  1  0
  7  6  2  0
  7  8  1  0
  8  9  2  0
  9  4  1  0
 10  2  1  0
 10 11  2  0
 12 13  1  0
 14 13  1  6
 14 15  1  0
 15 10  1  0
 16 14  1  0
 17 16  2  0
 18 19  1  0
 20 19  1  6
 20 21  1  0
 20 22  1  0
 21 16  1  0
 22 23  2  0
 22 24  1  0
M  END
$$$$
