FSS.pdb
     RDKit          3D

 24 24  0  0  1  0  0  0  0  0999 V2000
   20.4652  -12.7683  -17.6613 N   0  0  0  0  0  0  0  0  0  0  0  0
   20.3560  -11.5152  -18.3411 C   0  0  1  0  0  0  0  0  0  0  0  0
   19.0540  -11.4410  -19.0979 C   0  0  0  0  0  0  0  0  0  0  0  0
   19.1321  -12.4551  -20.2034 C   0  0  0  0  0  0  0  0  0  0  0  0
   19.8009  -12.1428  -21.3845 C   0  0  0  0  0  0  0  0  0  0  0  0
   19.8706  -13.0650  -22.3995 C   0  0  0  0  0  0  0  0  0  0  0  0
   19.2974  -14.3097  -22.3001 C   0  0  0  0  0  0  0  0  0  0  0  0
   18.6255  -14.6358  -21.1254 C   0  0  0  0  0  0  0  0  0  0  0  0
   18.5611  -13.7025  -20.1114 C   0  0  0  0  0  0  0  0  0  0  0  0
   20.5670  -10.3379  -17.4735 C   0  0  0  0  0  0  0  0  0  0  0  0
   19.8908  -10.1734  -16.4062 O   0  0  0  0  0  0  0  0  0  0  0  0
   23.1167   -7.0783  -18.4559 O   0  0  0  0  0  0  0  0  0  0  0  0
   23.0077   -7.4540  -17.1329 C   0  0  0  0  0  0  0  0  0  0  0  0
   21.6925   -8.1732  -16.8560 C   0  0  2  0  0  0  0  0  0  0  0  0
   21.5217   -9.3040  -17.7420 N   0  0  0  0  0  0  0  0  0  0  0  0
   20.6183   -7.1725  -17.0101 C   0  0  0  0  0  0  0  0  0  0  0  0
   20.0369   -7.0118  -18.1397 O   0  0  0  0  0  0  0  0  0  0  0  0
   16.8014   -4.9611  -15.6849 O   0  0  0  0  0  0  0  0  0  0  0  0
   17.7744   -5.9525  -15.4596 C   0  0  0  0  0  0  0  0  0  0  0  0
   19.0401   -5.4150  -16.1296 C   0  0  2  0  0  0  0  0  0  0  0  0
   20.1442   -6.3282  -15.9698 N   0  0  0  0  0  0  0  0  0  0  0  0
   19.3173   -4.0710  -15.6228 C   0  0  0  0  0  0  0  0  0  0  0  0
   20.3697   -3.8423  -14.9919 O   0  0  0  0  0  0  0  0  0  0  0  0
   18.4312   -3.0324  -15.8276 O   0  0  0  0  0  0  0  0  0  0  0  0
  2  1  1  1
  2  3  1  0
  4  3  1  0
  5  4  2  0
  6  5  1  0
  7  6  2  0
  7  8  1  0
  8  9  2  0
  9  4  1  0
 10  2  1  0
 10 11  2  0
 12 13  1  0
 14 13  1  6
 14 15  1  0
 15 10  1  0
 16 14  1  0
 17 16  2  0
 18 19  1  0
 20 19  1  1
 20 21  1  0
 20 22  1  0
 21 16  1  0
 22 23  2  0
 22 24  1  0
M  END
$$$$
