FSS.pdb
     RDKit          3D

 24 24  0  0  1  0  0  0  0  0999 V2000
   29.9116  -13.3512  -18.9715 N   0  0  0  0  0  0  0  0  0  0  0  0
   29.8311  -12.2031  -18.1230 C   0  0  1  0  0  0  0  0  0  0  0  0
   29.6093  -12.6232  -16.6921 C   0  0  0  0  0  0  0  0  0  0  0  0
   28.3125  -13.3806  -16.6544 C   0  0  0  0  0  0  0  0  0  0  0  0
   28.3099  -14.7346  -16.3281 C   0  0  0  0  0  0  0  0  0  0  0  0
   27.1273  -15.4318  -16.2971 C   0  0  0  0  0  0  0  0  0  0  0  0
   25.9197  -14.8408  -16.5798 C   0  0  0  0  0  0  0  0  0  0  0  0
   25.9069  -13.4879  -16.9075 C   0  0  0  0  0  0  0  0  0  0  0  0
   27.1002  -12.7960  -16.9359 C   0  0  0  0  0  0  0  0  0  0  0  0
   30.9677  -11.2692  -18.2624 C   0  0  0  0  0  0  0  0  0  0  0  0
   31.9440  -11.5271  -19.0393 O   0  0  0  0  0  0  0  0  0  0  0  0
   33.0951   -7.7131  -19.5668 O   0  0  0  0  0  0  0  0  0  0  0  0
   32.0733   -8.5943  -19.2795 C   0  0  0  0  0  0  0  0  0  0  0  0
   32.1353   -9.0807  -17.8362 C   0  0  2  0  0  0  0  0  0  0  0  0
   31.0748  -10.0253  -17.5598 N   0  0  0  0  0  0  0  0  0  0  0  0
   32.0566   -7.8820  -16.9782 C   0  0  0  0  0  0  0  0  0  0  0  0
   30.9618   -7.2253  -16.8780 O   0  0  0  0  0  0  0  0  0  0  0  0
   35.3529   -6.3153  -15.4307 O   0  0  0  0  0  0  0  0  0  0  0  0
   34.2999   -5.9697  -14.5635 C   0  0  0  0  0  0  0  0  0  0  0  0
   33.0298   -6.1853  -15.3881 C   0  0  2  0  0  0  0  0  0  0  0  0
   33.1361   -7.3623  -16.2138 N   0  0  0  0  0  0  0  0  0  0  0  0
   32.7365   -4.9677  -16.1441 C   0  0  0  0  0  0  0  0  0  0  0  0
   32.8451   -4.9589  -17.3876 O   0  0  0  0  0  0  0  0  0  0  0  0
   32.3362   -3.8097  -15.5080 O   0  0  0  0  0  0  0  0  0  0  0  0
  2  1  1  6
  2  3  1  0
  4  3  1  0
  5  4  2  0
  6  5  1  0
  7  6  2  0
  7  8  1  0
  8  9  2  0
  9  4  1  0
 10  2  1  0
 10 11  2  0
 12 13  1  0
 14 13  1  6
 14 15  1  0
 15 10  1  0
 16 14  1  0
 17 16  2  0
 18 19  1  0
 20 19  1  6
 20 21  1  0
 20 22  1  0
 21 16  1  0
 22 23  2  0
 22 24  1  0
M  END
$$$$
