QES.pdb
     RDKit          3D

 25 24  0  0  1  0  0  0  0  0999 V2000
   28.6131  -11.0498  -17.7841 N   0  0  0  0  0  0  0  0  0  0  0  0
   28.4305  -12.1039  -16.8566 C   0  0  0  0  0  0  0  0  0  0  0  0
   29.4156  -12.8232  -16.5680 O   0  0  0  0  0  0  0  0  0  0  0  0
   27.1345  -12.3746  -16.2308 C   0  0  0  0  0  0  0  0  0  0  0  0
   26.1214  -11.3025  -16.6349 C   0  0  0  0  0  0  0  0  0  0  0  0
   24.8160  -11.6841  -16.0251 C   0  0  2  0  0  0  0  0  0  0  0  0
   24.5119  -13.0412  -16.4017 N   0  0  0  0  0  0  0  0  0  0  0  0
   23.7120  -10.7442  -16.3024 C   0  0  0  0  0  0  0  0  0  0  0  0
   22.7879  -11.1087  -17.0760 O   0  0  0  0  0  0  0  0  0  0  0  0
   23.6110   -9.4480  -15.7588 N   0  0  0  0  0  0  0  0  0  0  0  0
   22.4335   -8.5795  -15.9244 C   0  0  1  0  0  0  0  0  0  0  0  0
   21.2454   -9.4010  -15.5708 C   0  0  0  0  0  0  0  0  0  0  0  0
   19.9265   -8.6825  -15.6035 C   0  0  0  0  0  0  0  0  0  0  0  0
   18.7643   -9.5099  -15.2452 C   0  0  0  0  0  0  0  0  0  0  0  0
   17.7596   -9.0224  -14.7084 O   0  0  0  0  0  0  0  0  0  0  0  0
   22.5904   -7.3195  -15.2015 C   0  0  0  0  0  0  0  0  0  0  0  0
   23.0344   -7.2921  -14.0307 O   0  0  0  0  0  0  0  0  0  0  0  0
   18.7813  -10.8822  -15.5118 O   0  0  0  0  0  0  0  0  0  0  0  0
   22.4327   -2.4500  -15.2022 O   0  0  0  0  0  0  0  0  0  0  0  0
   22.1844   -3.5894  -15.9528 C   0  0  0  0  0  0  0  0  0  0  0  0
   22.4365   -4.7944  -15.0927 C   0  0  2  0  0  0  0  0  0  0  0  0
   22.2517   -6.0411  -15.7729 N   0  0  0  0  0  0  0  0  0  0  0  0
   21.6209   -4.7044  -13.8472 C   0  0  0  0  0  0  0  0  0  0  0  0
   20.4845   -5.2307  -13.8479 O   0  0  0  0  0  0  0  0  0  0  0  0
   22.0858   -4.0667  -12.7219 O   0  0  0  0  0  0  0  0  0  0  0  0
  2  4  1  0
  2  1  1  0
  3  2  2  0
  5  4  1  0
  6  5  1  0
  6  8  1  0
  6  7  1  6
  8 10  1  0
  9  8  2  0
 10 11  1  0
 11 16  1  0
 11 12  1  1
 12 13  1  0
 13 14  1  0
 14 18  1  0
 14 15  2  0
 16 17  2  0
 19 20  1  0
 21 20  1  6
 21 22  1  0
 21 23  1  0
 22 16  1  0
 23 24  2  0
 23 25  1  0
M  END
$$$$
