QES.pdb
     RDKit          3D

 25 24  0  0  1  0  0  0  0  0999 V2000
   13.0047  -19.6335    4.2982 N   0  0  0  0  0  0  0  0  0  0  0  0
   12.7853  -20.6074    3.2942 C   0  0  0  0  0  0  0  0  0  0  0  0
   11.6054  -20.8630    2.9572 O   0  0  0  0  0  0  0  0  0  0  0  0
   13.8888  -21.3178    2.6442 C   0  0  0  0  0  0  0  0  0  0  0  0
   15.2138  -20.9612    3.3196 C   0  0  0  0  0  0  0  0  0  0  0  0
   15.6765  -19.6769    2.7210 C   0  0  2  0  0  0  0  0  0  0  0  0
   15.9734  -19.8993    1.3287 N   0  0  0  0  0  0  0  0  0  0  0  0
   16.7796  -19.0225    3.4517 C   0  0  0  0  0  0  0  0  0  0  0  0
   17.9602  -19.2048    3.0537 O   0  0  0  0  0  0  0  0  0  0  0  0
   16.6103  -18.1954    4.5800 N   0  0  0  0  0  0  0  0  0  0  0  0
   17.7234  -17.5568    5.3022 C   0  0  1  0  0  0  0  0  0  0  0  0
   17.2294  -16.2307    5.7593 C   0  0  0  0  0  0  0  0  0  0  0  0
   17.6800  -15.0534    4.9422 C   0  0  0  0  0  0  0  0  0  0  0  0
   17.1784  -13.7513    5.4076 C   0  0  0  0  0  0  0  0  0  0  0  0
   17.4930  -12.6938    4.8437 O   0  0  0  0  0  0  0  0  0  0  0  0
   18.2693  -18.4370    6.3329 C   0  0  0  0  0  0  0  0  0  0  0  0
   17.5431  -19.2587    6.9379 O   0  0  0  0  0  0  0  0  0  0  0  0
   16.3244  -13.6919    6.5129 O   0  0  0  0  0  0  0  0  0  0  0  0
   22.0970  -19.9851    8.9236 O   0  0  0  0  0  0  0  0  0  0  0  0
   21.6786  -19.0878    7.9524 C   0  0  0  0  0  0  0  0  0  0  0  0
   20.1962  -19.2395    7.7662 C   0  0  2  0  0  0  0  0  0  0  0  0
   19.6568  -18.4233    6.7202 N   0  0  0  0  0  0  0  0  0  0  0  0
   19.4999  -19.0230    9.0673 C   0  0  0  0  0  0  0  0  0  0  0  0
   19.1552  -17.8561    9.3640 O   0  0  0  0  0  0  0  0  0  0  0  0
   19.2356  -20.0610    9.9285 O   0  0  0  0  0  0  0  0  0  0  0  0
  2  4  1  0
  2  1  1  0
  3  2  2  0
  5  4  1  0
  6  5  1  0
  6  8  1  0
  6  7  1  6
  8 10  1  0
  9  8  2  0
 10 11  1  0
 11 16  1  0
 11 12  1  1
 12 13  1  0
 13 14  1  0
 14 18  1  0
 14 15  2  0
 16 17  2  0
 19 20  1  0
 21 20  1  1
 21 22  1  0
 21 23  1  0
 22 16  1  0
 23 24  2  0
 23 25  1  0
M  END
$$$$
