QES.pdb
     RDKit          3D

 25 24  0  0  1  0  0  0  0  0999 V2000
   22.1585  -10.2847    6.1910 N   0  0  0  0  0  0  0  0  0  0  0  0
   21.0711  -10.9588    6.7973 C   0  0  0  0  0  0  0  0  0  0  0  0
   20.8812  -10.8023    8.0263 O   0  0  0  0  0  0  0  0  0  0  0  0
   20.1700  -11.8260    6.0352 C   0  0  0  0  0  0  0  0  0  0  0  0
   19.0212  -12.3022    6.9254 C   0  0  0  0  0  0  0  0  0  0  0  0
   18.1682  -13.1985    6.0942 C   0  0  2  0  0  0  0  0  0  0  0  0
   16.9506  -12.5011    5.7672 N   0  0  0  0  0  0  0  0  0  0  0  0
   17.9327  -14.5341    6.6772 C   0  0  0  0  0  0  0  0  0  0  0  0
   17.0074  -14.6710    7.5201 O   0  0  0  0  0  0  0  0  0  0  0  0
   18.6765  -15.6875    6.3578 N   0  0  0  0  0  0  0  0  0  0  0  0
   18.5553  -16.9663    7.0779 C   0  0  1  0  0  0  0  0  0  0  0  0
   17.9588  -17.9377    6.1230 C   0  0  0  0  0  0  0  0  0  0  0  0
   17.7685  -19.3318    6.6494 C   0  0  0  0  0  0  0  0  0  0  0  0
   17.2976  -20.3079    5.6548 C   0  0  0  0  0  0  0  0  0  0  0  0
   16.6257  -19.9629    4.6726 O   0  0  0  0  0  0  0  0  0  0  0  0
   19.8207  -17.3561    7.6956 C   0  0  0  0  0  0  0  0  0  0  0  0
   20.9136  -17.1698    7.1130 O   0  0  0  0  0  0  0  0  0  0  0  0
   17.6093  -21.6618    5.8103 O   0  0  0  0  0  0  0  0  0  0  0  0
   23.0833  -17.6000   10.7235 O   0  0  0  0  0  0  0  0  0  0  0  0
   21.8819  -17.1486   10.1980 C   0  0  0  0  0  0  0  0  0  0  0  0
   21.1350  -18.3222    9.6323 C   0  0  2  0  0  0  0  0  0  0  0  0
   19.9009  -17.9717    8.9956 N   0  0  0  0  0  0  0  0  0  0  0  0
   20.9509  -19.3592   10.6884 C   0  0  0  0  0  0  0  0  0  0  0  0
   19.7818  -19.6920   10.9898 O   0  0  0  0  0  0  0  0  0  0  0  0
   22.0206  -19.9437   11.3234 O   0  0  0  0  0  0  0  0  0  0  0  0
  2  4  1  0
  2  1  1  0
  3  2  2  0
  5  4  1  0
  6  5  1  0
  6  8  1  0
  6  7  1  1
  8 10  1  0
  9  8  2  0
 10 11  1  0
 11 16  1  0
 11 12  1  6
 12 13  1  0
 13 14  1  0
 14 18  1  0
 14 15  2  0
 16 17  2  0
 19 20  1  0
 21 20  1  1
 21 22  1  0
 21 23  1  0
 22 16  1  0
 23 24  2  0
 23 25  1  0
M  END
$$$$
