QES.pdb
     RDKit          3D

 25 24  0  0  1  0  0  0  0  0999 V2000
   27.5294  -10.4602  -16.4882 N   0  0  0  0  0  0  0  0  0  0  0  0
   27.0694  -11.6842  -15.9453 C   0  0  0  0  0  0  0  0  0  0  0  0
   27.9132  -12.5662  -15.6605 O   0  0  0  0  0  0  0  0  0  0  0  0
   25.6480  -11.9460  -15.7094 C   0  0  0  0  0  0  0  0  0  0  0  0
   24.8206  -10.7076  -16.0572 C   0  0  0  0  0  0  0  0  0  0  0  0
   23.3881  -11.0723  -15.8654 C   0  0  2  0  0  0  0  0  0  0  0  0
   23.1101  -12.2615  -16.6300 N   0  0  0  0  0  0  0  0  0  0  0  0
   22.4359   -9.9762  -16.1314 C   0  0  0  0  0  0  0  0  0  0  0  0
   21.6707  -10.0686  -17.1271 O   0  0  0  0  0  0  0  0  0  0  0  0
   22.3151   -8.8142  -15.3433 N   0  0  0  0  0  0  0  0  0  0  0  0
   21.3129   -7.7622  -15.5827 C   0  0  1  0  0  0  0  0  0  0  0  0
   19.9803   -8.4173  -15.5013 C   0  0  0  0  0  0  0  0  0  0  0  0
   18.7999   -7.5189  -15.7383 C   0  0  0  0  0  0  0  0  0  0  0  0
   17.4949   -8.1975  -15.7208 C   0  0  0  0  0  0  0  0  0  0  0  0
   16.9512   -8.5885  -16.7632 O   0  0  0  0  0  0  0  0  0  0  0  0
   21.5249   -6.6106  -14.7088 C   0  0  0  0  0  0  0  0  0  0  0  0
   22.1449   -6.7207  -13.6263 O   0  0  0  0  0  0  0  0  0  0  0  0
   16.8414   -8.4125  -14.5037 O   0  0  0  0  0  0  0  0  0  0  0  0
   23.7379   -2.9120  -14.4352 O   0  0  0  0  0  0  0  0  0  0  0  0
   23.1905   -4.0933  -14.9129 C   0  0  0  0  0  0  0  0  0  0  0  0
   21.7155   -4.0869  -14.6302 C   0  0  2  0  0  0  0  0  0  0  0  0
   21.0446   -5.2894  -15.0239 N   0  0  0  0  0  0  0  0  0  0  0  0
   21.0928   -2.8709  -15.2286 C   0  0  0  0  0  0  0  0  0  0  0  0
   20.6186   -2.9599  -16.3843 O   0  0  0  0  0  0  0  0  0  0  0  0
   21.0316   -1.6788  -14.5472 O   0  0  0  0  0  0  0  0  0  0  0  0
  2  4  1  0
  2  1  1  0
  3  2  2  0
  5  4  1  0
  6  5  1  0
  6  8  1  0
  6  7  1  6
  8 10  1  0
  9  8  2  0
 10 11  1  0
 11 16  1  0
 11 12  1  1
 12 13  1  0
 13 14  1  0
 14 18  1  0
 14 15  2  0
 16 17  2  0
 19 20  1  0
 21 20  1  6
 21 22  1  0
 21 23  1  0
 22 16  1  0
 23 24  2  0
 23 25  1  0
M  END
$$$$
