QES.pdb
     RDKit          3D

 25 24  0  0  1  0  0  0  0  0999 V2000
   24.3528  -10.3598  -21.5949 N   0  0  0  0  0  0  0  0  0  0  0  0
   23.2449   -9.5933  -22.0300 C   0  0  0  0  0  0  0  0  0  0  0  0
   23.4126   -8.3703  -22.2471 O   0  0  0  0  0  0  0  0  0  0  0  0
   21.9202  -10.1843  -22.2315 C   0  0  0  0  0  0  0  0  0  0  0  0
   20.8634   -9.3748  -21.4785 C   0  0  0  0  0  0  0  0  0  0  0  0
   20.5549  -10.1199  -20.2249 C   0  0  2  0  0  0  0  0  0  0  0  0
   19.6984  -11.2320  -20.5500 N   0  0  0  0  0  0  0  0  0  0  0  0
   20.0280   -9.2833  -19.1288 C   0  0  0  0  0  0  0  0  0  0  0  0
   19.1103   -8.4599  -19.3844 O   0  0  0  0  0  0  0  0  0  0  0  0
   20.4807   -9.3360  -17.7953 N   0  0  0  0  0  0  0  0  0  0  0  0
   19.9242   -8.5135  -16.7079 C   0  0  1  0  0  0  0  0  0  0  0  0
   19.2830   -9.4524  -15.7494 C   0  0  0  0  0  0  0  0  0  0  0  0
   17.7808   -9.4568  -15.7517 C   0  0  0  0  0  0  0  0  0  0  0  0
   17.1648  -10.3159  -14.7289 C   0  0  0  0  0  0  0  0  0  0  0  0
   17.8463  -10.9058  -13.8787 O   0  0  0  0  0  0  0  0  0  0  0  0
   20.9267   -7.6053  -16.1555 C   0  0  0  0  0  0  0  0  0  0  0  0
   22.1273   -7.9465  -16.0525 O   0  0  0  0  0  0  0  0  0  0  0  0
   15.7765  -10.4792  -14.7048 O   0  0  0  0  0  0  0  0  0  0  0  0
   20.1181   -3.5417  -15.0749 O   0  0  0  0  0  0  0  0  0  0  0  0
   21.3628   -3.9398  -15.5391 C   0  0  0  0  0  0  0  0  0  0  0  0
   21.5820   -5.3744  -15.1529 C   0  0  2  0  0  0  0  0  0  0  0  0
   20.6118   -6.2762  -15.6976 N   0  0  0  0  0  0  0  0  0  0  0  0
   21.6872   -5.4868  -13.6695 C   0  0  0  0  0  0  0  0  0  0  0  0
   20.8973   -6.2593  -13.0797 O   0  0  0  0  0  0  0  0  0  0  0  0
   22.6172   -4.7717  -12.9533 O   0  0  0  0  0  0  0  0  0  0  0  0
  2  4  1  0
  2  1  1  0
  3  2  2  0
  5  4  1  0
  6  5  1  0
  6  8  1  0
  6  7  1  6
  8 10  1  0
  9  8  2  0
 10 11  1  0
 11 16  1  0
 11 12  1  1
 12 13  1  0
 13 14  1  0
 14 18  1  0
 14 15  2  0
 16 17  2  0
 19 20  1  0
 21 20  1  1
 21 22  1  0
 21 23  1  0
 22 16  1  0
 23 24  2  0
 23 25  1  0
M  END
$$$$
