QES.pdb
     RDKit          3D

 25 24  0  0  1  0  0  0  0  0999 V2000
   15.4506  -11.0787   -9.1863 N   0  0  0  0  0  0  0  0  0  0  0  0
   14.5621  -11.8524   -9.9715 C   0  0  0  0  0  0  0  0  0  0  0  0
   13.9294  -12.7817   -9.4174 O   0  0  0  0  0  0  0  0  0  0  0  0
   14.3637  -11.5994  -11.4003 C   0  0  0  0  0  0  0  0  0  0  0  0
   15.2969  -10.4828  -11.8709 C   0  0  0  0  0  0  0  0  0  0  0  0
   14.5804   -9.1943  -11.6513 C   0  0  2  0  0  0  0  0  0  0  0  0
   13.4420   -9.1451  -12.5332 N   0  0  0  0  0  0  0  0  0  0  0  0
   15.4357   -7.9945  -11.7413 C   0  0  0  0  0  0  0  0  0  0  0  0
   15.6016   -7.4535  -12.8661 O   0  0  0  0  0  0  0  0  0  0  0  0
   16.0924   -7.3978  -10.6464 N   0  0  0  0  0  0  0  0  0  0  0  0
   16.9268   -6.1890  -10.7511 C   0  0  1  0  0  0  0  0  0  0  0  0
   16.5205   -5.2933   -9.6357 C   0  0  0  0  0  0  0  0  0  0  0  0
   15.1740   -4.6436   -9.7826 C   0  0  0  0  0  0  0  0  0  0  0  0
   14.8235   -3.7009   -8.7092 C   0  0  0  0  0  0  0  0  0  0  0  0
   15.5469   -3.5495   -7.7147 O   0  0  0  0  0  0  0  0  0  0  0  0
   18.3470   -6.5229  -10.8316 C   0  0  0  0  0  0  0  0  0  0  0  0
   18.8970   -7.2392   -9.9639 O   0  0  0  0  0  0  0  0  0  0  0  0
   13.6473   -2.9509   -8.8016 O   0  0  0  0  0  0  0  0  0  0  0  0
   20.2657   -7.4024  -14.1097 O   0  0  0  0  0  0  0  0  0  0  0  0
   20.8427   -7.6133  -12.8664 C   0  0  0  0  0  0  0  0  0  0  0  0
   20.5862   -6.4078  -12.0082 C   0  0  2  0  0  0  0  0  0  0  0  0
   19.2013   -6.0605  -11.8955 N   0  0  0  0  0  0  0  0  0  0  0  0
   21.4181   -5.2647  -12.4830 C   0  0  0  0  0  0  0  0  0  0  0  0
   20.8297   -4.2511  -12.9244 O   0  0  0  0  0  0  0  0  0  0  0  0
   22.7915   -5.3038  -12.4451 O   0  0  0  0  0  0  0  0  0  0  0  0
  2  4  1  0
  2  1  1  0
  3  2  2  0
  5  4  1  0
  6  5  1  0
  6  8  1  0
  6  7  1  6
  8 10  1  0
  9  8  2  0
 10 11  1  0
 11 16  1  0
 11 12  1  1
 12 13  1  0
 13 14  1  0
 14 18  1  0
 14 15  2  0
 16 17  2  0
 19 20  1  0
 21 20  1  6
 21 22  1  0
 21 23  1  0
 22 16  1  0
 23 24  2  0
 23 25  1  0
M  END
$$$$
