QES.pdb
     RDKit          3D

 25 24  0  0  1  0  0  0  0  0999 V2000
   14.1336  -12.9449  -14.5993 N   0  0  0  0  0  0  0  0  0  0  0  0
   14.8134  -11.8052  -15.0926 C   0  0  0  0  0  0  0  0  0  0  0  0
   14.4556  -10.6742  -14.6877 O   0  0  0  0  0  0  0  0  0  0  0  0
   15.9131  -11.9100  -16.0540 C   0  0  0  0  0  0  0  0  0  0  0  0
   17.2084  -11.3886  -15.4299 C   0  0  0  0  0  0  0  0  0  0  0  0
   18.2631  -11.4729  -16.4798 C   0  0  2  0  0  0  0  0  0  0  0  0
   18.8317  -12.7965  -16.4550 N   0  0  0  0  0  0  0  0  0  0  0  0
   19.2791  -10.4040  -16.4148 C   0  0  0  0  0  0  0  0  0  0  0  0
   20.2294  -10.5223  -15.5972 O   0  0  0  0  0  0  0  0  0  0  0  0
   19.2673   -9.2413  -17.2110 N   0  0  0  0  0  0  0  0  0  0  0  0
   20.3203   -8.2126  -17.1747 C   0  0  1  0  0  0  0  0  0  0  0  0
   20.1974   -7.4328  -18.4349 C   0  0  0  0  0  0  0  0  0  0  0  0
   21.2350   -6.3664  -18.6421 C   0  0  0  0  0  0  0  0  0  0  0  0
   21.0913   -5.6000  -19.8894 C   0  0  0  0  0  0  0  0  0  0  0  0
   21.8535   -5.7735  -20.8508 O   0  0  0  0  0  0  0  0  0  0  0  0
   20.2798   -7.4473  -15.9307 C   0  0  0  0  0  0  0  0  0  0  0  0
   19.1954   -7.0494  -15.4467 O   0  0  0  0  0  0  0  0  0  0  0  0
   20.0732   -4.6489  -20.0056 O   0  0  0  0  0  0  0  0  0  0  0  0
   21.7045   -6.5548  -11.5944 O   0  0  0  0  0  0  0  0  0  0  0  0
   21.8480   -7.2872  -12.7632 C   0  0  0  0  0  0  0  0  0  0  0  0
   21.4353   -6.4261  -13.9223 C   0  0  2  0  0  0  0  0  0  0  0  0
   21.4629   -7.1014  -15.1850 N   0  0  0  0  0  0  0  0  0  0  0  0
   22.2455   -5.1739  -13.9337 C   0  0  0  0  0  0  0  0  0  0  0  0
   23.2298   -5.1162  -14.7059 O   0  0  0  0  0  0  0  0  0  0  0  0
   21.9366   -4.1043  -13.1278 O   0  0  0  0  0  0  0  0  0  0  0  0
  2  4  1  0
  2  1  1  0
  3  2  2  0
  5  4  1  0
  6  5  1  0
  6  8  1  0
  6  7  1  1
  8 10  1  0
  9  8  2  0
 10 11  1  0
 11 16  1  0
 11 12  1  6
 12 13  1  0
 13 14  1  0
 14 18  1  0
 14 15  2  0
 16 17  2  0
 19 20  1  0
 21 20  1  1
 21 22  1  0
 21 23  1  0
 22 16  1  0
 23 24  2  0
 23 25  1  0
M  END
$$$$
