QES.pdb
     RDKit          3D

 25 24  0  0  1  0  0  0  0  0999 V2000
   15.1803  -12.9357  -13.2292 N   0  0  0  0  0  0  0  0  0  0  0  0
   14.8084  -12.2286  -14.3981 C   0  0  0  0  0  0  0  0  0  0  0  0
   13.5974  -12.2015  -14.7202 O   0  0  0  0  0  0  0  0  0  0  0  0
   15.7905  -11.5342  -15.2336 C   0  0  0  0  0  0  0  0  0  0  0  0
   17.1759  -11.6110  -14.5903 C   0  0  0  0  0  0  0  0  0  0  0  0
   17.8547  -10.3117  -14.8604 C   0  0  2  0  0  0  0  0  0  0  0  0
   18.8857  -10.5273  -15.8434 N   0  0  0  0  0  0  0  0  0  0  0  0
   18.3402   -9.6118  -13.6548 C   0  0  0  0  0  0  0  0  0  0  0  0
   19.4889   -9.8862  -13.2181 O   0  0  0  0  0  0  0  0  0  0  0  0
   17.6046   -8.6436  -12.9426 N   0  0  0  0  0  0  0  0  0  0  0  0
   18.1807   -7.7838  -11.8951 C   0  0  1  0  0  0  0  0  0  0  0  0
   19.3557   -7.1033  -12.5015 C   0  0  0  0  0  0  0  0  0  0  0  0
   20.0094   -6.0536  -11.6484 C   0  0  0  0  0  0  0  0  0  0  0  0
   21.2050   -5.4343  -12.2404 C   0  0  0  0  0  0  0  0  0  0  0  0
   21.1315   -4.4093  -12.9326 O   0  0  0  0  0  0  0  0  0  0  0  0
   17.1680   -6.9190  -11.2940 C   0  0  0  0  0  0  0  0  0  0  0  0
   16.5046   -6.1145  -11.9877 O   0  0  0  0  0  0  0  0  0  0  0  0
   22.4619   -6.0070  -12.0239 O   0  0  0  0  0  0  0  0  0  0  0  0
   14.4686   -5.6699   -7.4513 O   0  0  0  0  0  0  0  0  0  0  0  0
   15.4441   -6.5388   -7.9168 C   0  0  0  0  0  0  0  0  0  0  0  0
   15.8801   -6.0840   -9.2800 C   0  0  2  0  0  0  0  0  0  0  0  0
   16.8652   -6.9292   -9.8856 N   0  0  0  0  0  0  0  0  0  0  0  0
   16.3182   -4.6596   -9.2201 C   0  0  0  0  0  0  0  0  0  0  0  0
   17.5408   -4.4138   -9.3356 O   0  0  0  0  0  0  0  0  0  0  0  0
   15.4213   -3.6331   -9.0440 O   0  0  0  0  0  0  0  0  0  0  0  0
  2  4  1  0
  2  1  1  0
  3  2  2  0
  5  4  1  0
  6  5  1  0
  6  8  1  0
  6  7  1  6
  8 10  1  0
  9  8  2  0
 10 11  1  0
 11 16  1  0
 11 12  1  6
 12 13  1  0
 13 14  1  0
 14 18  1  0
 14 15  2  0
 16 17  2  0
 19 20  1  0
 21 20  1  1
 21 22  1  0
 21 23  1  0
 22 16  1  0
 23 24  2  0
 23 25  1  0
M  END
$$$$
