QES.pdb
     RDKit          3D

 25 24  0  0  1  0  0  0  0  0999 V2000
   16.5468  -14.8592  -15.3077 N   0  0  0  0  0  0  0  0  0  0  0  0
   17.4765  -13.8694  -15.7082 C   0  0  0  0  0  0  0  0  0  0  0  0
   18.6945  -14.1649  -15.7235 O   0  0  0  0  0  0  0  0  0  0  0  0
   17.0585  -12.5221  -16.1016 C   0  0  0  0  0  0  0  0  0  0  0  0
   17.6732  -11.4852  -15.1603 C   0  0  0  0  0  0  0  0  0  0  0  0
   18.0322  -10.3008  -15.9910 C   0  0  2  0  0  0  0  0  0  0  0  0
   19.2313  -10.6041  -16.7300 N   0  0  0  0  0  0  0  0  0  0  0  0
   18.1175   -9.0310  -15.2432 C   0  0  0  0  0  0  0  0  0  0  0  0
   17.2296   -8.7719  -14.3888 O   0  0  0  0  0  0  0  0  0  0  0  0
   19.1336   -8.0697  -15.4148 N   0  0  0  0  0  0  0  0  0  0  0  0
   19.1438   -6.7594  -14.7429 C   0  0  1  0  0  0  0  0  0  0  0  0
   20.5435   -6.5178  -14.3025 C   0  0  0  0  0  0  0  0  0  0  0  0
   20.7836   -5.2189  -13.5869 C   0  0  0  0  0  0  0  0  0  0  0  0
   22.1804   -4.9813  -13.1917 C   0  0  0  0  0  0  0  0  0  0  0  0
   22.7470   -3.9036  -13.4213 O   0  0  0  0  0  0  0  0  0  0  0  0
   18.5375   -5.7242  -15.5769 C   0  0  0  0  0  0  0  0  0  0  0  0
   18.9340   -5.5160  -16.7465 O   0  0  0  0  0  0  0  0  0  0  0  0
   22.8977   -5.9890  -12.5401 O   0  0  0  0  0  0  0  0  0  0  0  0
   15.0046   -3.7490  -14.4801 O   0  0  0  0  0  0  0  0  0  0  0  0
   15.3469   -3.8365  -15.8211 C   0  0  0  0  0  0  0  0  0  0  0  0
   16.8441   -3.8755  -15.9322 C   0  0  2  0  0  0  0  0  0  0  0  0
   17.4594   -4.8837  -15.1222 N   0  0  0  0  0  0  0  0  0  0  0  0
   17.4047   -2.5189  -15.6679 C   0  0  0  0  0  0  0  0  0  0  0  0
   18.2558   -2.4004  -14.7568 O   0  0  0  0  0  0  0  0  0  0  0  0
   17.0112   -1.4192  -16.3924 O   0  0  0  0  0  0  0  0  0  0  0  0
  2  4  1  0
  2  1  1  0
  3  2  2  0
  5  4  1  0
  6  5  1  0
  6  8  1  0
  6  7  1  1
  8 10  1  0
  9  8  2  0
 10 11  1  0
 11 16  1  0
 11 12  1  6
 12 13  1  0
 13 14  1  0
 14 18  1  0
 14 15  2  0
 16 17  2  0
 19 20  1  0
 21 20  1  1
 21 22  1  0
 21 23  1  0
 22 16  1  0
 23 24  2  0
 23 25  1  0
M  END
$$$$
