QES.pdb
     RDKit          3D

 25 24  0  0  1  0  0  0  0  0999 V2000
   27.6342  -10.7970  -15.7523 N   0  0  0  0  0  0  0  0  0  0  0  0
   27.6941  -12.1631  -16.1193 C   0  0  0  0  0  0  0  0  0  0  0  0
   28.5264  -12.9012  -15.5418 O   0  0  0  0  0  0  0  0  0  0  0  0
   26.8184  -12.7327  -17.1457 C   0  0  0  0  0  0  0  0  0  0  0  0
   25.8432  -11.6696  -17.6536 C   0  0  0  0  0  0  0  0  0  0  0  0
   24.4724  -12.1230  -17.2834 C   0  0  2  0  0  0  0  0  0  0  0  0
   24.1403  -13.2786  -18.0773 N   0  0  0  0  0  0  0  0  0  0  0  0
   23.4423  -11.0670  -17.3374 C   0  0  0  0  0  0  0  0  0  0  0  0
   23.0162  -10.6953  -18.4624 O   0  0  0  0  0  0  0  0  0  0  0  0
   22.8897  -10.4317  -16.2073 N   0  0  0  0  0  0  0  0  0  0  0  0
   21.8701   -9.3718  -16.2800 C   0  0  1  0  0  0  0  0  0  0  0  0
   20.6138   -9.9515  -15.7347 C   0  0  0  0  0  0  0  0  0  0  0  0
   19.4212   -9.0381  -15.7414 C   0  0  0  0  0  0  0  0  0  0  0  0
   18.1798   -9.6407  -15.2319 C   0  0  0  0  0  0  0  0  0  0  0  0
   17.1695   -9.7468  -15.9414 O   0  0  0  0  0  0  0  0  0  0  0  0
   22.3375   -8.1345  -15.6592 C   0  0  0  0  0  0  0  0  0  0  0  0
   23.0004   -8.1497  -14.5967 O   0  0  0  0  0  0  0  0  0  0  0  0
   18.1257  -10.1093  -13.9159 O   0  0  0  0  0  0  0  0  0  0  0  0
   22.7514   -3.2782  -15.8006 O   0  0  0  0  0  0  0  0  0  0  0  0
   22.2014   -4.3850  -16.4297 C   0  0  0  0  0  0  0  0  0  0  0  0
   22.5675   -5.6129  -15.6463 C   0  0  2  0  0  0  0  0  0  0  0  0
   22.0741   -6.8315  -16.2145 N   0  0  0  0  0  0  0  0  0  0  0  0
   22.1535   -5.4451  -14.2233 C   0  0  0  0  0  0  0  0  0  0  0  0
   20.9909   -5.7840  -13.9041 O   0  0  0  0  0  0  0  0  0  0  0  0
   23.0088   -4.9352  -13.2758 O   0  0  0  0  0  0  0  0  0  0  0  0
  2  4  1  0
  2  1  1  0
  3  2  2  0
  5  4  1  0
  6  5  1  0
  6  8  1  0
  6  7  1  6
  8 10  1  0
  9  8  2  0
 10 11  1  0
 11 16  1  0
 11 12  1  1
 12 13  1  0
 13 14  1  0
 14 18  1  0
 14 15  2  0
 16 17  2  0
 19 20  1  0
 21 20  1  6
 21 22  1  0
 21 23  1  0
 22 16  1  0
 23 24  2  0
 23 25  1  0
M  END
$$$$
