QES.pdb
     RDKit          3D

 25 24  0  0  1  0  0  0  0  0999 V2000
   18.1330  -13.2298  -15.9355 N   0  0  0  0  0  0  0  0  0  0  0  0
   18.9344  -13.6790  -17.0128 C   0  0  0  0  0  0  0  0  0  0  0  0
   19.0952  -14.9128  -17.1640 O   0  0  0  0  0  0  0  0  0  0  0  0
   19.5748  -12.7505  -17.9468 C   0  0  0  0  0  0  0  0  0  0  0  0
   19.1530  -11.3144  -17.6325 C   0  0  0  0  0  0  0  0  0  0  0  0
   20.3771  -10.5870  -17.1915 C   0  0  2  0  0  0  0  0  0  0  0  0
   20.9864  -11.3240  -16.1137 N   0  0  0  0  0  0  0  0  0  0  0  0
   20.1611   -9.1625  -16.8704 C   0  0  0  0  0  0  0  0  0  0  0  0
   19.6482   -8.4167  -17.7457 O   0  0  0  0  0  0  0  0  0  0  0  0
   20.4906   -8.5625  -15.6386 N   0  0  0  0  0  0  0  0  0  0  0  0
   20.2399   -7.1459  -15.3242 C   0  0  1  0  0  0  0  0  0  0  0  0
   20.0685   -7.0610  -13.8495 C   0  0  0  0  0  0  0  0  0  0  0  0
   18.7776   -7.6115  -13.3134 C   0  0  0  0  0  0  0  0  0  0  0  0
   18.6855   -7.6498  -11.8458 C   0  0  0  0  0  0  0  0  0  0  0  0
   18.6003   -8.7199  -11.2272 O   0  0  0  0  0  0  0  0  0  0  0  0
   21.2585   -6.2779  -15.9107 C   0  0  0  0  0  0  0  0  0  0  0  0
   22.3978   -6.7127  -16.1963 O   0  0  0  0  0  0  0  0  0  0  0  0
   18.6932   -6.4554  -11.1191 O   0  0  0  0  0  0  0  0  0  0  0  0
   23.3417   -3.8187  -18.8001 O   0  0  0  0  0  0  0  0  0  0  0  0
   22.4394   -4.6860  -18.2028 C   0  0  0  0  0  0  0  0  0  0  0  0
   21.9493   -4.0639  -16.9268 C   0  0  2  0  0  0  0  0  0  0  0  0
   21.0298   -4.8848  -16.1974 N   0  0  0  0  0  0  0  0  0  0  0  0
   21.3956   -2.7077  -17.2073 C   0  0  0  0  0  0  0  0  0  0  0  0
   20.1545   -2.5533  -17.1431 O   0  0  0  0  0  0  0  0  0  0  0  0
   22.2077   -1.6464  -17.5284 O   0  0  0  0  0  0  0  0  0  0  0  0
  2  4  1  0
  2  1  1  0
  3  2  2  0
  5  4  1  0
  6  5  1  0
  6  8  1  0
  6  7  1  1
  8 10  1  0
  9  8  2  0
 10 11  1  0
 11 16  1  0
 11 12  1  1
 12 13  1  0
 13 14  1  0
 14 18  1  0
 14 15  2  0
 16 17  2  0
 19 20  1  0
 21 20  1  6
 21 22  1  0
 21 23  1  0
 22 16  1  0
 23 24  2  0
 23 25  1  0
M  END
$$$$
