QES.pdb
     RDKit          3D

 25 24  0  0  1  0  0  0  0  0999 V2000
   14.1742  -21.6256   -3.9832 N   0  0  0  0  0  0  0  0  0  0  0  0
   14.2263  -22.8826   -4.6327 C   0  0  0  0  0  0  0  0  0  0  0  0
   14.6014  -22.9225   -5.8281 O   0  0  0  0  0  0  0  0  0  0  0  0
   13.8575  -24.1262   -3.9529 C   0  0  0  0  0  0  0  0  0  0  0  0
   13.3678  -23.8251   -2.5357 C   0  0  0  0  0  0  0  0  0  0  0  0
   14.5541  -23.9095   -1.6372 C   0  0  2  0  0  0  0  0  0  0  0  0
   15.0271  -25.2705   -1.6270 N   0  0  0  0  0  0  0  0  0  0  0  0
   14.3383  -23.3605   -0.2841 C   0  0  0  0  0  0  0  0  0  0  0  0
   13.6439  -24.0210    0.5325 O   0  0  0  0  0  0  0  0  0  0  0  0
   14.8585  -22.1328    0.1721 N   0  0  0  0  0  0  0  0  0  0  0  0
   14.6027  -21.5824    1.5138 C   0  0  1  0  0  0  0  0  0  0  0  0
   15.9318  -21.3428    2.1361 C   0  0  0  0  0  0  0  0  0  0  0  0
   15.9084  -20.6605    3.4744 C   0  0  0  0  0  0  0  0  0  0  0  0
   17.2339  -20.3643    4.0391 C   0  0  0  0  0  0  0  0  0  0  0  0
   18.2768  -20.7107    3.4668 O   0  0  0  0  0  0  0  0  0  0  0  0
   13.6949  -20.4388    1.4602 C   0  0  0  0  0  0  0  0  0  0  0  0
   13.6983  -19.6505    0.4870 O   0  0  0  0  0  0  0  0  0  0  0  0
   17.3329  -19.6751    5.2514 O   0  0  0  0  0  0  0  0  0  0  0  0
    9.9543  -17.9617    3.3419 O   0  0  0  0  0  0  0  0  0  0  0  0
   10.7587  -19.0818    3.4887 C   0  0  0  0  0  0  0  0  0  0  0  0
   11.8662  -19.0126    2.4768 C   0  0  2  0  0  0  0  0  0  0  0  0
   12.7478  -20.1410    2.5041 N   0  0  0  0  0  0  0  0  0  0  0  0
   12.5980  -17.7207    2.6178 C   0  0  0  0  0  0  0  0  0  0  0  0
   13.6958  -17.7282    3.2205 O   0  0  0  0  0  0  0  0  0  0  0  0
   12.0984  -16.5461    2.1080 O   0  0  0  0  0  0  0  0  0  0  0  0
  2  4  1  0
  2  1  1  0
  3  2  2  0
  5  4  1  0
  6  5  1  0
  6  8  1  0
  6  7  1  1
  8 10  1  0
  9  8  2  0
 10 11  1  0
 11 16  1  0
 11 12  1  6
 12 13  1  0
 13 14  1  0
 14 18  1  0
 14 15  2  0
 16 17  2  0
 19 20  1  0
 21 20  1  1
 21 22  1  0
 21 23  1  0
 22 16  1  0
 23 24  2  0
 23 25  1  0
M  END
$$$$
