RTW.pdb
     RDKit          3D

 33 34  0  0  1  0  0  0  0  0999 V2000
   29.1330  -23.3718  -22.5573 N   0  0  0  0  0  0  0  0  0  0  0  0
   28.9958  -24.7758  -22.3022 C   0  0  0  0  0  0  0  0  0  0  0  0
   29.8855  -25.5630  -22.7713 N   0  0  0  0  0  0  0  0  0  0  0  0
   27.8987  -25.2538  -21.5501 N   0  0  0  0  0  0  0  0  0  0  0  0
   27.5971  -24.6360  -20.2516 C   0  0  0  0  0  0  0  0  0  0  0  0
   28.8894  -24.3540  -19.5297 C   0  0  0  0  0  0  0  0  0  0  0  0
   28.7214  -23.7356  -18.1939 C   0  0  0  0  0  0  0  0  0  0  0  0
   28.1640  -22.3604  -18.1873 C   0  0  2  0  0  0  0  0  0  0  0  0
   28.5083  -21.5107  -19.2713 N   0  0  0  0  0  0  0  0  0  0  0  0
   28.4001  -21.7076  -16.8546 C   0  0  0  0  0  0  0  0  0  0  0  0
   29.5356  -21.6952  -16.3220 O   0  0  0  0  0  0  0  0  0  0  0  0
   29.8241  -26.6019  -22.7078 C   0  0  0  0  0  0  0  0  0  0  0  0
   28.2112  -18.2382  -16.2357 C   0  0  2  0  0  0  0  0  0  0  0  0
   27.2862  -18.8860  -15.2530 O   0  0  0  0  0  0  0  0  0  0  0  0
   25.9829  -18.7658  -15.7396 C   0  0  2  0  0  0  0  0  0  0  0  0
   27.6219  -20.3220  -14.9303 N   0  0  0  0  0  0  0  0  0  0  0  0
   27.3293  -21.0860  -16.1659 C   0  0  0  0  0  0  0  0  0  0  0  0
   26.7723  -20.9216  -13.8807 O   0  0  0  0  0  0  0  0  0  0  0  0
   25.8421  -21.7472  -14.1955 N   0  0  0  0  0  0  0  0  0  0  0  0
   26.8602  -20.6887  -12.4891 C   0  0  1  0  0  0  0  0  0  0  0  0
   25.9804  -21.3020  -11.5201 C   0  0  0  0  0  0  0  0  0  0  0  0
   26.6617  -21.7641  -10.2615 C   0  0  0  0  0  0  0  0  0  0  0  0
   26.5240  -20.7761   -9.1867 C   0  0  0  0  0  0  0  0  0  0  0  0
   25.4055  -19.9641   -8.9651 N   0  0  0  0  0  0  0  0  0  0  0  0
   25.7054  -19.1998   -7.9173 C   0  0  0  0  0  0  0  0  0  0  0  0
   26.9438  -19.4562   -7.4370 C   0  0  0  0  0  0  0  0  0  0  0  0
   27.6653  -18.9362   -6.3878 C   0  0  0  0  0  0  0  0  0  0  0  0
   28.9218  -19.4167   -6.1319 C   0  0  0  0  0  0  0  0  0  0  0  0
   29.4533  -20.4181   -6.9282 C   0  0  0  0  0  0  0  0  0  0  0  0
   28.7466  -20.9513   -7.9837 C   0  0  0  0  0  0  0  0  0  0  0  0
   27.4727  -20.4663   -8.2471 C   0  0  0  0  0  0  0  0  0  0  0  0
   24.8863  -20.3572  -11.2343 O   0  0  0  0  0  0  0  0  0  0  0  0
   23.7129  -20.8111  -10.6747 O   0  0  0  0  0  0  0  0  0  0  0  0
  2  4  1  0
  2  1  1  0
  3  2  2  0
  5  4  1  0
  6  5  1  0
  7  6  1  0
  8  7  1  0
  8  9  1  6
 10  8  1  0
 11 10  2  0
 13 12  1  1
 13 14  1  0
 13 15  1  0
 15 17  1  0
 15 16  1  1
 16 10  1  0
 17 18  2  0
 19 20  1  0
 19 17  1  0
 20 21  1  1
 20 31  1  0
 21 22  1  0
 22 30  1  0
 23 22  2  0
 23 24  1  0
 24 25  1  0
 25 26  1  0
 26 27  2  0
 28 27  1  0
 29 28  2  0
 30 25  2  0
 30 29  1  0
 31 33  2  0
 31 32  1  0
M  END
$$$$
