RTW.pdb
     RDKit          3D

 33 34  0  0  1  0  0  0  0  0999 V2000
   19.9152  -20.6158  -14.0952 N   0  0  0  0  0  0  0  0  0  0  0  0
   19.2121  -19.7439  -14.9898 C   0  0  0  0  0  0  0  0  0  0  0  0
   19.0487  -18.5264  -14.6399 N   0  0  0  0  0  0  0  0  0  0  0  0
   18.7220  -20.2386  -16.2198 N   0  0  0  0  0  0  0  0  0  0  0  0
   19.3086  -21.4616  -16.7844 C   0  0  0  0  0  0  0  0  0  0  0  0
   20.4884  -21.0889  -17.6445 C   0  0  0  0  0  0  0  0  0  0  0  0
   21.8067  -21.3491  -17.0204 C   0  0  0  0  0  0  0  0  0  0  0  0
   22.3903  -22.6876  -17.2843 C   0  0  2  0  0  0  0  0  0  0  0  0
   21.5113  -23.8020  -17.2500 N   0  0  0  0  0  0  0  0  0  0  0  0
   23.6131  -22.9004  -16.4372 C   0  0  0  0  0  0  0  0  0  0  0  0
   23.6275  -23.7388  -15.5046 O   0  0  0  0  0  0  0  0  0  0  0  0
   18.4875  -17.8412  -15.1900 C   0  0  0  0  0  0  0  0  0  0  0  0
   28.4752  -21.9305  -15.9621 C   0  0  1  0  0  0  0  0  0  0  0  0
   27.1529  -21.8595  -16.6601 O   0  0  0  0  0  0  0  0  0  0  0  0
   27.2824  -22.4886  -17.9000 C   0  0  1  0  0  0  0  0  0  0  0  0
   25.9981  -22.4297  -15.8725 N   0  0  0  0  0  0  0  0  0  0  0  0
   24.7881  -22.1469  -16.6800 C   0  0  0  0  0  0  0  0  0  0  0  0
   25.7699  -21.7718  -14.5694 O   0  0  0  0  0  0  0  0  0  0  0  0
   25.1283  -20.6625  -14.5091 N   0  0  0  0  0  0  0  0  0  0  0  0
   26.1926  -22.2382  -13.3036 C   0  0  2  0  0  0  0  0  0  0  0  0
   26.0322  -21.4843  -12.0809 C   0  0  0  0  0  0  0  0  0  0  0  0
   26.2935  -22.2682  -10.8243 C   0  0  0  0  0  0  0  0  0  0  0  0
   26.3064  -21.3968   -9.6450 C   0  0  0  0  0  0  0  0  0  0  0  0
   25.1986  -20.7225   -9.1182 N   0  0  0  0  0  0  0  0  0  0  0  0
   25.6501  -20.0270   -8.0768 C   0  0  0  0  0  0  0  0  0  0  0  0
   26.9780  -20.2003   -7.8851 C   0  0  0  0  0  0  0  0  0  0  0  0
   27.8600  -19.7052   -6.9530 C   0  0  0  0  0  0  0  0  0  0  0  0
   29.1762  -20.0791   -7.0073 C   0  0  0  0  0  0  0  0  0  0  0  0
   29.6065  -20.9490   -7.9959 C   0  0  0  0  0  0  0  0  0  0  0  0
   28.7386  -21.4551   -8.9385 C   0  0  0  0  0  0  0  0  0  0  0  0
   27.4034  -21.0779   -8.8876 C   0  0  0  0  0  0  0  0  0  0  0  0
   26.8878  -20.2876  -12.1668 O   0  0  0  0  0  0  0  0  0  0  0  0
   26.4089  -19.0670  -11.7465 O   0  0  0  0  0  0  0  0  0  0  0  0
  2  4  1  0
  2  1  1  0
  3  2  2  0
  5  4  1  0
  6  5  1  0
  7  6  1  0
  8  7  1  0
  8  9  1  1
 10  8  1  0
 11 10  2  0
 13 12  1  6
 13 14  1  0
 13 15  1  0
 15 17  1  0
 15 16  1  6
 16 10  1  0
 17 18  2  0
 19 20  1  0
 19 17  1  0
 20 21  1  6
 20 31  1  0
 21 22  1  0
 22 30  1  0
 23 22  2  0
 23 24  1  0
 24 25  1  0
 25 26  1  0
 26 27  2  0
 28 27  1  0
 29 28  2  0
 30 25  2  0
 30 29  1  0
 31 33  2  0
 31 32  1  0
M  END
$$$$
