RTW.pdb
     RDKit          3D

 33 34  0  0  1  0  0  0  0  0999 V2000
   27.2806  -24.8270  -15.8738 N   0  0  0  0  0  0  0  0  0  0  0  0
   27.5463  -24.1890  -17.1297 C   0  0  0  0  0  0  0  0  0  0  0  0
   27.5751  -24.9151  -18.1800 N   0  0  0  0  0  0  0  0  0  0  0  0
   27.7674  -22.7939  -17.1812 N   0  0  0  0  0  0  0  0  0  0  0  0
   27.5872  -21.9948  -15.9615 C   0  0  0  0  0  0  0  0  0  0  0  0
   26.1231  -21.9641  -15.6061 C   0  0  0  0  0  0  0  0  0  0  0  0
   25.4199  -20.7263  -16.0166 C   0  0  0  0  0  0  0  0  0  0  0  0
   23.9670  -20.6830  -15.7185 C   0  0  2  0  0  0  0  0  0  0  0  0
   23.1076  -20.1768  -16.7289 N   0  0  0  0  0  0  0  0  0  0  0  0
   23.7263  -20.0305  -14.3865 C   0  0  0  0  0  0  0  0  0  0  0  0
   23.6815  -18.7829  -14.2655 O   0  0  0  0  0  0  0  0  0  0  0  0
   27.8180  -24.5484  -19.1253 C   0  0  0  0  0  0  0  0  0  0  0  0
   20.8303  -19.9809  -12.2545 C   0  0  2  0  0  0  0  0  0  0  0  0
   21.9573  -20.5734  -11.4674 O   0  0  0  0  0  0  0  0  0  0  0  0
   21.8204  -21.9629  -11.4922 C   0  0  2  0  0  0  0  0  0  0  0  0
   23.3317  -20.1485  -11.9251 N   0  0  0  0  0  0  0  0  0  0  0  0
   23.5436  -20.8238  -13.2270 C   0  0  0  0  0  0  0  0  0  0  0  0
   24.4307  -20.6113  -11.0528 O   0  0  0  0  0  0  0  0  0  0  0  0
   25.0515  -21.7021  -11.3190 N   0  0  0  0  0  0  0  0  0  0  0  0
   24.9160  -19.9653   -9.8928 C   0  0  1  0  0  0  0  0  0  0  0  0
   25.9995  -20.4804   -9.0866 C   0  0  0  0  0  0  0  0  0  0  0  0
   27.0162  -19.4515   -8.6748 C   0  0  0  0  0  0  0  0  0  0  0  0
   28.0470  -20.0360   -7.8110 C   0  0  0  0  0  0  0  0  0  0  0  0
   28.9199  -21.0698   -8.1696 N   0  0  0  0  0  0  0  0  0  0  0  0
   29.6649  -21.3143   -7.0937 C   0  0  0  0  0  0  0  0  0  0  0  0
   29.3399  -20.5106   -6.0552 C   0  0  0  0  0  0  0  0  0  0  0  0
   29.8300  -20.3934   -4.7754 C   0  0  0  0  0  0  0  0  0  0  0  0
   29.2945  -19.4555   -3.9333 C   0  0  0  0  0  0  0  0  0  0  0  0
   28.2685  -18.6364   -4.3756 C   0  0  0  0  0  0  0  0  0  0  0  0
   27.7640  -18.7388   -5.6534 C   0  0  0  0  0  0  0  0  0  0  0  0
   28.3034  -19.6890   -6.5100 C   0  0  0  0  0  0  0  0  0  0  0  0
   25.4150  -21.1683   -7.9219 O   0  0  0  0  0  0  0  0  0  0  0  0
   26.0021  -22.3136   -7.4324 O   0  0  0  0  0  0  0  0  0  0  0  0
  2  4  1  0
  2  1  1  0
  3  2  2  0
  5  4  1  0
  6  5  1  0
  7  6  1  0
  8  7  1  0
  8  9  1  6
 10  8  1  0
 11 10  2  0
 13 12  1  1
 13 14  1  0
 13 15  1  0
 15 17  1  0
 15 16  1  1
 16 10  1  0
 17 18  2  0
 19 20  1  0
 19 17  1  0
 20 21  1  1
 20 31  1  0
 21 22  1  0
 22 30  1  0
 23 22  2  0
 23 24  1  0
 24 25  1  0
 25 26  1  0
 26 27  2  0
 28 27  1  0
 29 28  2  0
 30 25  2  0
 30 29  1  0
 31 33  2  0
 31 32  1  0
M  END
$$$$
