RTW.pdb
     RDKit          3D

 33 34  0  0  1  0  0  0  0  0999 V2000
   19.7410  -21.7360  -15.8482 N   0  0  0  0  0  0  0  0  0  0  0  0
   19.5601  -20.3837  -16.2879 C   0  0  0  0  0  0  0  0  0  0  0  0
   18.3966  -19.8670  -16.1842 N   0  0  0  0  0  0  0  0  0  0  0  0
   20.6527  -19.6604  -16.8180 N   0  0  0  0  0  0  0  0  0  0  0  0
   21.9574  -20.3241  -16.9435 C   0  0  0  0  0  0  0  0  0  0  0  0
   22.1760  -21.2091  -15.7436 C   0  0  0  0  0  0  0  0  0  0  0  0
   23.3789  -20.8729  -14.9467 C   0  0  0  0  0  0  0  0  0  0  0  0
   24.6750  -20.9828  -15.6609 C   0  0  2  0  0  0  0  0  0  0  0  0
   24.7011  -21.7548  -16.8521 N   0  0  0  0  0  0  0  0  0  0  0  0
   25.7665  -21.3735  -14.7049 C   0  0  0  0  0  0  0  0  0  0  0  0
   26.1986  -22.5495  -14.6473 O   0  0  0  0  0  0  0  0  0  0  0  0
   18.1639  -18.9053  -16.5128 C   0  0  0  0  0  0  0  0  0  0  0  0
   29.2379  -19.8432  -13.7693 C   0  0  2  0  0  0  0  0  0  0  0  0
   28.2967  -19.8547  -12.6053 O   0  0  0  0  0  0  0  0  0  0  0  0
   27.7962  -18.5617  -12.4392 C   0  0  2  0  0  0  0  0  0  0  0  0
   27.1812  -20.8662  -12.7124 N   0  0  0  0  0  0  0  0  0  0  0  0
   26.3349  -20.4069  -13.8389 C   0  0  0  0  0  0  0  0  0  0  0  0
   26.2885  -20.9104  -11.5359 O   0  0  0  0  0  0  0  0  0  0  0  0
   25.0603  -20.5553  -11.6429 N   0  0  0  0  0  0  0  0  0  0  0  0
   26.6359  -21.3209  -10.2285 C   0  0  2  0  0  0  0  0  0  0  0  0
   25.7066  -21.3298   -9.1215 C   0  0  0  0  0  0  0  0  0  0  0  0
   26.3302  -21.6212   -7.7842 C   0  0  0  0  0  0  0  0  0  0  0  0
   26.8865  -20.4069   -7.1791 C   0  0  0  0  0  0  0  0  0  0  0  0
   26.5015  -19.0957   -7.4824 N   0  0  0  0  0  0  0  0  0  0  0  0
   27.2690  -18.3034   -6.7373 C   0  0  0  0  0  0  0  0  0  0  0  0
   28.1301  -19.0062   -5.9661 C   0  0  0  0  0  0  0  0  0  0  0  0
   29.0855  -18.6300   -5.0509 C   0  0  0  0  0  0  0  0  0  0  0  0
   29.8112  -19.5929   -4.4018 C   0  0  0  0  0  0  0  0  0  0  0  0
   29.5780  -20.9318   -4.6709 C   0  0  0  0  0  0  0  0  0  0  0  0
   28.6260  -21.3283   -5.5843 C   0  0  0  0  0  0  0  0  0  0  0  0
   27.8886  -20.3552   -6.2453 C   0  0  0  0  0  0  0  0  0  0  0  0
   24.9855  -20.0448   -9.1202 O   0  0  0  0  0  0  0  0  0  0  0  0
   23.7106  -19.9711   -8.6052 O   0  0  0  0  0  0  0  0  0  0  0  0
  2  4  1  0
  2  1  1  0
  3  2  2  0
  5  4  1  0
  6  5  1  0
  7  6  1  0
  8  7  1  0
  8  9  1  6
 10  8  1  0
 11 10  2  0
 13 12  1  1
 13 14  1  0
 13 15  1  0
 15 17  1  0
 15 16  1  1
 16 10  1  0
 17 18  2  0
 19 20  1  0
 19 17  1  0
 20 21  1  6
 20 31  1  0
 21 22  1  0
 22 30  1  0
 23 22  2  0
 23 24  1  0
 24 25  1  0
 25 26  1  0
 26 27  2  0
 28 27  1  0
 29 28  2  0
 30 25  2  0
 30 29  1  0
 31 33  2  0
 31 32  1  0
M  END
$$$$
