RTW.pdb
     RDKit          3D

 33 34  0  0  1  0  0  0  0  0999 V2000
   29.1446  -26.9299  -16.2676 N   0  0  0  0  0  0  0  0  0  0  0  0
   29.0187  -26.4742  -17.6208 C   0  0  0  0  0  0  0  0  0  0  0  0
   29.2540  -27.3060  -18.5610 N   0  0  0  0  0  0  0  0  0  0  0  0
   28.6431  -25.1373  -17.8846 N   0  0  0  0  0  0  0  0  0  0  0  0
   28.1376  -24.3051  -16.7842 C   0  0  0  0  0  0  0  0  0  0  0  0
   26.8248  -24.8686  -16.3051 C   0  0  0  0  0  0  0  0  0  0  0  0
   26.1784  -24.0825  -15.2283 C   0  0  0  0  0  0  0  0  0  0  0  0
   25.2969  -22.9773  -15.6793 C   0  0  2  0  0  0  0  0  0  0  0  0
   25.4106  -22.5614  -17.0320 N   0  0  0  0  0  0  0  0  0  0  0  0
   25.3742  -21.8232  -14.7201 C   0  0  0  0  0  0  0  0  0  0  0  0
   25.9813  -20.7657  -15.0135 O   0  0  0  0  0  0  0  0  0  0  0  0
   29.2727  -27.0426  -19.5696 C   0  0  0  0  0  0  0  0  0  0  0  0
   22.5729  -19.8482  -13.6092 C   0  0  2  0  0  0  0  0  0  0  0  0
   23.2576  -20.3877  -12.3922 O   0  0  0  0  0  0  0  0  0  0  0  0
   22.5475  -21.5079  -11.9556 C   0  0  2  0  0  0  0  0  0  0  0  0
   24.7205  -20.7058  -12.5864 N   0  0  0  0  0  0  0  0  0  0  0  0
   24.7542  -21.9103  -13.4491 C   0  0  0  0  0  0  0  0  0  0  0  0
   25.4280  -21.0846  -11.3458 O   0  0  0  0  0  0  0  0  0  0  0  0
   25.4555  -22.3097  -10.9659 N   0  0  0  0  0  0  0  0  0  0  0  0
   26.1221  -20.2167  -10.4721 C   0  0  2  0  0  0  0  0  0  0  0  0
   26.7239  -20.6478   -9.2307 C   0  0  0  0  0  0  0  0  0  0  0  0
   27.7607  -19.7082   -8.6792 C   0  0  0  0  0  0  0  0  0  0  0  0
   28.3213  -20.2113   -7.4211 C   0  0  0  0  0  0  0  0  0  0  0  0
   29.0231  -21.4123   -7.2647 N   0  0  0  0  0  0  0  0  0  0  0  0
   29.3246  -21.4984   -5.9710 C   0  0  0  0  0  0  0  0  0  0  0  0
   28.8687  -20.4354   -5.2694 C   0  0  0  0  0  0  0  0  0  0  0  0
   28.9469  -20.0899   -3.9404 C   0  0  0  0  0  0  0  0  0  0  0  0
   28.3860  -18.9146   -3.5167 C   0  0  0  0  0  0  0  0  0  0  0  0
   27.7476  -18.0872   -4.4262 C   0  0  0  0  0  0  0  0  0  0  0  0
   27.6586  -18.4160   -5.7611 C   0  0  0  0  0  0  0  0  0  0  0  0
   28.2251  -19.6071   -6.1946 C   0  0  0  0  0  0  0  0  0  0  0  0
   25.6424  -20.8983   -8.2617 O   0  0  0  0  0  0  0  0  0  0  0  0
   24.5463  -20.0658   -8.2224 O   0  0  0  0  0  0  0  0  0  0  0  0
  2  4  1  0
  2  1  1  0
  3  2  2  0
  5  4  1  0
  6  5  1  0
  7  6  1  0
  8  7  1  0
  8  9  1  6
 10  8  1  0
 11 10  2  0
 13 12  1  1
 13 14  1  0
 13 15  1  0
 15 17  1  0
 15 16  1  1
 16 10  1  0
 17 18  2  0
 19 20  1  0
 19 17  1  0
 20 21  1  1
 20 31  1  0
 21 22  1  0
 22 30  1  0
 23 22  2  0
 23 24  1  0
 24 25  1  0
 25 26  1  0
 26 27  2  0
 28 27  1  0
 29 28  2  0
 30 25  2  0
 30 29  1  0
 31 33  2  0
 31 32  1  0
M  END
$$$$
