RTW.pdb
     RDKit          3D

 33 34  0  0  1  0  0  0  0  0999 V2000
   25.9581  -19.5954   -9.3157 N   0  0  0  0  0  0  0  0  0  0  0  0
   24.7934  -20.3811   -9.6005 C   0  0  0  0  0  0  0  0  0  0  0  0
   23.8272  -20.3507   -8.7656 N   0  0  0  0  0  0  0  0  0  0  0  0
   24.7369  -21.1604  -10.7784 N   0  0  0  0  0  0  0  0  0  0  0  0
   25.8088  -21.0308  -11.7748 C   0  0  0  0  0  0  0  0  0  0  0  0
   25.5355  -21.9760  -12.9162 C   0  0  0  0  0  0  0  0  0  0  0  0
   24.2266  -21.7716  -13.5795 C   0  0  0  0  0  0  0  0  0  0  0  0
   23.9723  -22.6143  -14.7740 C   0  0  2  0  0  0  0  0  0  0  0  0
   24.2407  -24.0039  -14.6624 N   0  0  0  0  0  0  0  0  0  0  0  0
   24.6146  -22.0059  -15.9886 C   0  0  0  0  0  0  0  0  0  0  0  0
   25.7161  -22.4180  -16.4244 O   0  0  0  0  0  0  0  0  0  0  0  0
   22.9608  -20.9213   -8.8689 C   0  0  0  0  0  0  0  0  0  0  0  0
   23.0518  -21.8287  -19.4072 C   0  0  2  0  0  0  0  0  0  0  0  0
   23.4525  -20.4620  -18.9464 O   0  0  0  0  0  0  0  0  0  0  0  0
   22.3152  -19.8196  -18.4528 C   0  0  2  0  0  0  0  0  0  0  0  0
   24.5744  -20.4460  -17.9364 N   0  0  0  0  0  0  0  0  0  0  0  0
   23.9788  -20.9405  -16.6728 C   0  0  0  0  0  0  0  0  0  0  0  0
   25.0949  -19.0975  -17.6303 O   0  0  0  0  0  0  0  0  0  0  0  0
   24.3793  -18.2634  -16.9684 N   0  0  0  0  0  0  0  0  0  0  0  0
   26.3583  -18.5783  -17.9945 C   0  0  1  0  0  0  0  0  0  0  0  0
   26.7745  -17.2225  -17.7159 C   0  0  0  0  0  0  0  0  0  0  0  0
   27.8994  -17.1051  -16.7245 C   0  0  0  0  0  0  0  0  0  0  0  0
   27.5029  -17.6089  -15.4057 C   0  0  0  0  0  0  0  0  0  0  0  0
   26.7778  -16.8942  -14.4450 N   0  0  0  0  0  0  0  0  0  0  0  0
   26.6612  -17.7022  -13.3935 C   0  0  0  0  0  0  0  0  0  0  0  0
   27.2599  -18.8975  -13.6002 C   0  0  0  0  0  0  0  0  0  0  0  0
   27.3884  -20.0250  -12.8229 C   0  0  0  0  0  0  0  0  0  0  0  0
   28.0561  -21.1123  -13.3201 C   0  0  0  0  0  0  0  0  0  0  0  0
   28.5940  -21.0678  -14.5960 C   0  0  0  0  0  0  0  0  0  0  0  0
   28.4761  -19.9478  -15.3895 C   0  0  0  0  0  0  0  0  0  0  0  0
   27.8007  -18.8430  -14.8888 C   0  0  0  0  0  0  0  0  0  0  0  0
   27.1048  -16.5737  -18.9970 O   0  0  0  0  0  0  0  0  0  0  0  0
   27.4218  -15.2341  -19.0291 O   0  0  0  0  0  0  0  0  0  0  0  0
  2  4  1  0
  2  1  1  0
  3  2  2  0
  5  4  1  0
  6  5  1  0
  7  6  1  0
  8  7  1  0
  8  9  1  1
 10  8  1  0
 11 10  2  0
 13 12  1  6
 13 14  1  0
 13 15  1  0
 15 17  1  0
 15 16  1  6
 16 10  1  0
 17 18  2  0
 19 20  1  0
 19 17  1  0
 20 21  1  1
 20 31  1  0
 21 22  1  0
 22 30  1  0
 23 22  2  0
 23 24  1  0
 24 25  1  0
 25 26  1  0
 26 27  2  0
 28 27  1  0
 29 28  2  0
 30 25  2  0
 30 29  1  0
 31 33  2  0
 31 32  1  0
M  END
$$$$
