RTW.pdb
     RDKit          3D

 33 34  0  0  1  0  0  0  0  0999 V2000
   22.5620  -17.3870  -22.5580 N   0  0  0  0  0  0  0  0  0  0  0  0
   22.3450  -16.3950  -21.5463 C   0  0  0  0  0  0  0  0  0  0  0  0
   21.2686  -15.7093  -21.5959 N   0  0  0  0  0  0  0  0  0  0  0  0
   23.3085  -16.1981  -20.5310 N   0  0  0  0  0  0  0  0  0  0  0  0
   24.5513  -16.9813  -20.5616 C   0  0  0  0  0  0  0  0  0  0  0  0
   25.3039  -16.7590  -19.2752 C   0  0  0  0  0  0  0  0  0  0  0  0
   25.0506  -17.7819  -18.2338 C   0  0  0  0  0  0  0  0  0  0  0  0
   25.9808  -18.9379  -18.2278 C   0  0  2  0  0  0  0  0  0  0  0  0
   26.2052  -19.6023  -19.4623 N   0  0  0  0  0  0  0  0  0  0  0  0
   25.6208  -19.8923  -17.1245 C   0  0  0  0  0  0  0  0  0  0  0  0
   24.5360  -20.5218  -17.1294 O   0  0  0  0  0  0  0  0  0  0  0  0
   21.0816  -14.8886  -20.9806 C   0  0  0  0  0  0  0  0  0  0  0  0
   26.4859  -22.9196  -16.7907 C   0  0  2  0  0  0  0  0  0  0  0  0
   26.9140  -22.3762  -15.4632 O   0  0  0  0  0  0  0  0  0  0  0  0
   28.2935  -22.1640  -15.5056 C   0  0  2  0  0  0  0  0  0  0  0  0
   26.1795  -21.1301  -15.0307 N   0  0  0  0  0  0  0  0  0  0  0  0
   26.5124  -20.1007  -16.0434 C   0  0  0  0  0  0  0  0  0  0  0  0
   26.6328  -20.5778  -13.7374 O   0  0  0  0  0  0  0  0  0  0  0  0
   27.7036  -19.8739  -13.6751 N   0  0  0  0  0  0  0  0  0  0  0  0
   25.9975  -20.7343  -12.4843 C   0  0  1  0  0  0  0  0  0  0  0  0
   26.5035  -20.1640  -11.2563 C   0  0  0  0  0  0  0  0  0  0  0  0
   25.5328  -19.2690  -10.5362 C   0  0  0  0  0  0  0  0  0  0  0  0
   24.3139  -19.9941  -10.1638 C   0  0  0  0  0  0  0  0  0  0  0  0
   24.0298  -20.5122   -8.8948 N   0  0  0  0  0  0  0  0  0  0  0  0
   22.8470  -21.1141   -8.9977 C   0  0  0  0  0  0  0  0  0  0  0  0
   22.3365  -21.0249  -10.2473 C   0  0  0  0  0  0  0  0  0  0  0  0
   21.1664  -21.4753  -10.8130 C   0  0  0  0  0  0  0  0  0  0  0  0
   20.9142  -21.2155  -12.1337 C   0  0  0  0  0  0  0  0  0  0  0  0
   21.8354  -20.5044  -12.8854 C   0  0  0  0  0  0  0  0  0  0  0  0
   23.0129  -20.0455  -12.3370 C   0  0  0  0  0  0  0  0  0  0  0  0
   23.2729  -20.3075  -10.9986 C   0  0  0  0  0  0  0  0  0  0  0  0
   26.9695  -21.2677  -10.3983 O   0  0  0  0  0  0  0  0  0  0  0  0
   27.6458  -20.9938   -9.2305 O   0  0  0  0  0  0  0  0  0  0  0  0
  2  4  1  0
  2  1  1  0
  3  2  2  0
  5  4  1  0
  6  5  1  0
  7  6  1  0
  8  7  1  0
  8  9  1  6
 10  8  1  0
 11 10  2  0
 13 12  1  1
 13 14  1  0
 13 15  1  0
 15 17  1  0
 15 16  1  1
 16 10  1  0
 17 18  2  0
 19 20  1  0
 19 17  1  0
 20 21  1  1
 20 31  1  0
 21 22  1  0
 22 30  1  0
 23 22  2  0
 23 24  1  0
 24 25  1  0
 25 26  1  0
 26 27  2  0
 28 27  1  0
 29 28  2  0
 30 25  2  0
 30 29  1  0
 31 33  2  0
 31 32  1  0
M  END
$$$$
