RTW.pdb
     RDKit          3D

 33 34  0  0  1  0  0  0  0  0999 V2000
   11.8339  -13.4195  -10.0175 N   0  0  0  0  0  0  0  0  0  0  0  0
   11.4067  -14.5926  -10.7220 C   0  0  0  0  0  0  0  0  0  0  0  0
   10.5857  -15.3792  -10.1401 N   0  0  0  0  0  0  0  0  0  0  0  0
   11.8930  -14.8520  -12.0235 N   0  0  0  0  0  0  0  0  0  0  0  0
   12.3603  -13.7308  -12.8500 C   0  0  0  0  0  0  0  0  0  0  0  0
   12.8582  -14.2659  -14.1678 C   0  0  0  0  0  0  0  0  0  0  0  0
   13.5255  -13.2579  -15.0244 C   0  0  0  0  0  0  0  0  0  0  0  0
   14.8778  -13.6234  -15.5137 C   0  0  2  0  0  0  0  0  0  0  0  0
   15.2542  -14.9900  -15.4336 N   0  0  0  0  0  0  0  0  0  0  0  0
   15.9128  -12.7116  -14.9178 C   0  0  0  0  0  0  0  0  0  0  0  0
   16.9487  -13.1622  -14.3728 O   0  0  0  0  0  0  0  0  0  0  0  0
   10.2330  -16.2614  -10.5695 C   0  0  0  0  0  0  0  0  0  0  0  0
   17.9877  -10.3991  -16.6635 C   0  0  2  0  0  0  0  0  0  0  0  0
   17.2825   -9.6131  -15.6025 O   0  0  0  0  0  0  0  0  0  0  0  0
   16.2262   -8.9245  -16.2025 C   0  0  2  0  0  0  0  0  0  0  0  0
   16.8068  -10.4336  -14.4279 N   0  0  0  0  0  0  0  0  0  0  0  0
   15.7347  -11.3067  -14.9611 C   0  0  0  0  0  0  0  0  0  0  0  0
   16.1769   -9.6417  -13.3512 O   0  0  0  0  0  0  0  0  0  0  0  0
   14.8989   -9.5633  -13.2697 N   0  0  0  0  0  0  0  0  0  0  0  0
   16.8434   -8.9169  -12.3369 C   0  0  1  0  0  0  0  0  0  0  0  0
   16.1610   -8.0933  -11.3647 C   0  0  0  0  0  0  0  0  0  0  0  0
   16.2123   -8.6168   -9.9557 C   0  0  0  0  0  0  0  0  0  0  0  0
   15.5992   -7.6749   -9.0139 C   0  0  0  0  0  0  0  0  0  0  0  0
   16.2767   -6.6794   -8.3002 N   0  0  0  0  0  0  0  0  0  0  0  0
   15.3603   -6.0769   -7.5458 C   0  0  0  0  0  0  0  0  0  0  0  0
   14.1285   -6.6094   -7.7172 C   0  0  0  0  0  0  0  0  0  0  0  0
   12.8999   -6.3164   -7.1727 C   0  0  0  0  0  0  0  0  0  0  0  0
   11.8031   -7.0395   -7.5593 C   0  0  0  0  0  0  0  0  0  0  0  0
   11.9396   -8.0553   -8.4913 C   0  0  0  0  0  0  0  0  0  0  0  0
   13.1616   -8.3641   -9.0475 C   0  0  0  0  0  0  0  0  0  0  0  0
   14.2762   -7.6339   -8.6577 C   0  0  0  0  0  0  0  0  0  0  0  0
   16.7054   -6.7274  -11.4607 O   0  0  0  0  0  0  0  0  0  0  0  0
   17.9868   -6.5277  -11.9234 O   0  0  0  0  0  0  0  0  0  0  0  0
  2  4  1  0
  2  1  1  0
  3  2  2  0
  5  4  1  0
  6  5  1  0
  7  6  1  0
  8  7  1  0
  8  9  1  1
 10  8  1  0
 11 10  2  0
 13 12  1  6
 13 14  1  0
 13 15  1  0
 15 17  1  0
 15 16  1  1
 16 10  1  0
 17 18  2  0
 19 20  1  0
 19 17  1  0
 20 21  1  6
 20 31  1  0
 21 22  1  0
 22 30  1  0
 23 22  2  0
 23 24  1  0
 24 25  1  0
 25 26  1  0
 26 27  2  0
 28 27  1  0
 29 28  2  0
 30 25  2  0
 30 29  1  0
 31 33  2  0
 31 32  1  0
M  END
$$$$
