RTW.pdb
     RDKit          3D

 33 34  0  0  1  0  0  0  0  0999 V2000
   22.2209  -24.6404  -19.7213 N   0  0  0  0  0  0  0  0  0  0  0  0
   21.8236  -25.9596  -19.3254 C   0  0  0  0  0  0  0  0  0  0  0  0
   21.4845  -26.7861  -20.2382 N   0  0  0  0  0  0  0  0  0  0  0  0
   21.8150  -26.3147  -17.9573 N   0  0  0  0  0  0  0  0  0  0  0  0
   22.4007  -25.3928  -16.9746 C   0  0  0  0  0  0  0  0  0  0  0  0
   23.6938  -25.9748  -16.4647 C   0  0  0  0  0  0  0  0  0  0  0  0
   24.4270  -25.1010  -15.5192 C   0  0  0  0  0  0  0  0  0  0  0  0
   24.6994  -23.7227  -15.9963 C   0  0  2  0  0  0  0  0  0  0  0  0
   24.8388  -23.5315  -17.3962 N   0  0  0  0  0  0  0  0  0  0  0  0
   25.8366  -23.1175  -15.2227 C   0  0  0  0  0  0  0  0  0  0  0  0
   27.0030  -23.5707  -15.3081 O   0  0  0  0  0  0  0  0  0  0  0  0
   21.1000  -27.7348  -20.0401 C   0  0  0  0  0  0  0  0  0  0  0  0
   27.5036  -20.0539  -15.6763 C   0  0  2  0  0  0  0  0  0  0  0  0
   26.9397  -20.0347  -14.2898 O   0  0  0  0  0  0  0  0  0  0  0  0
   25.7352  -19.3290  -14.3210 C   0  0  2  0  0  0  0  0  0  0  0  0
   26.7616  -21.3986  -13.6676 N   0  0  0  0  0  0  0  0  0  0  0  0
   25.6086  -22.0087  -14.3707 C   0  0  0  0  0  0  0  0  0  0  0  0
   26.3862  -21.3684  -12.2389 O   0  0  0  0  0  0  0  0  0  0  0  0
   25.1862  -21.6459  -11.8800 N   0  0  0  0  0  0  0  0  0  0  0  0
   27.2327  -21.0554  -11.1509 C   0  0  1  0  0  0  0  0  0  0  0  0
   26.7514  -20.8078   -9.8106 C   0  0  0  0  0  0  0  0  0  0  0  0
   27.7252  -20.0866   -8.9199 C   0  0  0  0  0  0  0  0  0  0  0  0
   27.2060  -19.9595   -7.5545 C   0  0  0  0  0  0  0  0  0  0  0  0
   25.8530  -19.9119   -7.1986 N   0  0  0  0  0  0  0  0  0  0  0  0
   25.8237  -19.7639   -5.8760 C   0  0  0  0  0  0  0  0  0  0  0  0
   27.0653  -19.7119   -5.3412 C   0  0  0  0  0  0  0  0  0  0  0  0
   27.5218  -19.5798   -4.0505 C   0  0  0  0  0  0  0  0  0  0  0  0
   28.8702  -19.5720   -3.8115 C   0  0  0  0  0  0  0  0  0  0  0  0
   29.7590  -19.6969   -4.8668 C   0  0  0  0  0  0  0  0  0  0  0  0
   29.3212  -19.8299   -6.1662 C   0  0  0  0  0  0  0  0  0  0  0  0
   27.9549  -19.8373   -6.4130 C   0  0  0  0  0  0  0  0  0  0  0  0
   25.4680  -20.0909   -9.9115 O   0  0  0  0  0  0  0  0  0  0  0  0
   24.3726  -20.5370   -9.2065 O   0  0  0  0  0  0  0  0  0  0  0  0
  2  4  1  0
  2  1  1  0
  3  2  2  0
  5  4  1  0
  6  5  1  0
  7  6  1  0
  8  7  1  0
  8  9  1  6
 10  8  1  0
 11 10  2  0
 13 12  1  1
 13 14  1  0
 13 15  1  0
 15 17  1  0
 15 16  1  1
 16 10  1  0
 17 18  2  0
 19 20  1  0
 19 17  1  0
 20 21  1  6
 20 31  1  0
 21 22  1  0
 22 30  1  0
 23 22  2  0
 23 24  1  0
 24 25  1  0
 25 26  1  0
 26 27  2  0
 28 27  1  0
 29 28  2  0
 30 25  2  0
 30 29  1  0
 31 33  2  0
 31 32  1  0
M  END
$$$$
