RTW.pdb
     RDKit          3D

 33 34  0  0  1  0  0  0  0  0999 V2000
   29.9291  -22.4057  -19.8352 N   0  0  0  0  0  0  0  0  0  0  0  0
   29.9036  -23.8360  -19.7431 C   0  0  0  0  0  0  0  0  0  0  0  0
   30.6409  -24.5045  -20.5436 N   0  0  0  0  0  0  0  0  0  0  0  0
   29.0782  -24.4682  -18.7856 N   0  0  0  0  0  0  0  0  0  0  0  0
   28.1708  -23.6494  -17.9701 C   0  0  0  0  0  0  0  0  0  0  0  0
   28.8902  -23.2170  -16.7186 C   0  0  0  0  0  0  0  0  0  0  0  0
   28.0573  -22.4384  -15.7725 C   0  0  0  0  0  0  0  0  0  0  0  0
   27.1296  -21.4580  -16.3888 C   0  0  2  0  0  0  0  0  0  0  0  0
   27.5952  -20.7410  -17.5223 N   0  0  0  0  0  0  0  0  0  0  0  0
   26.5548  -20.5509  -15.3377 C   0  0  0  0  0  0  0  0  0  0  0  0
   27.2908  -19.8600  -14.5934 O   0  0  0  0  0  0  0  0  0  0  0  0
   30.6210  -25.5448  -20.6095 C   0  0  0  0  0  0  0  0  0  0  0  0
   24.7252  -17.5517  -15.7591 C   0  0  2  0  0  0  0  0  0  0  0  0
   23.8592  -18.4687  -14.9528 O   0  0  0  0  0  0  0  0  0  0  0  0
   22.9323  -19.0591  -15.8142 C   0  0  2  0  0  0  0  0  0  0  0  0
   24.6151  -19.5093  -14.1624 N   0  0  0  0  0  0  0  0  0  0  0  0
   25.1515  -20.4587  -15.1659 C   0  0  0  0  0  0  0  0  0  0  0  0
   23.7688  -20.3185  -13.2612 O   0  0  0  0  0  0  0  0  0  0  0  0
   23.4106  -21.5025  -13.6012 N   0  0  0  0  0  0  0  0  0  0  0  0
   23.2750  -19.9313  -11.9944 C   0  0  2  0  0  0  0  0  0  0  0  0
   22.3857  -20.7487  -11.2006 C   0  0  0  0  0  0  0  0  0  0  0  0
   22.1837  -20.2652   -9.7909 C   0  0  0  0  0  0  0  0  0  0  0  0
   21.3288  -21.1820   -9.0299 C   0  0  0  0  0  0  0  0  0  0  0  0
   21.7786  -22.1841   -8.1622 N   0  0  0  0  0  0  0  0  0  0  0  0
   20.6875  -22.7963   -7.7076 C   0  0  0  0  0  0  0  0  0  0  0  0
   19.5537  -22.2631   -8.2177 C   0  0  0  0  0  0  0  0  0  0  0  0
   18.2212  -22.5520   -8.0360 C   0  0  0  0  0  0  0  0  0  0  0  0
   17.2765  -21.8121   -8.6958 C   0  0  0  0  0  0  0  0  0  0  0  0
   17.6689  -20.7836   -9.5369 C   0  0  0  0  0  0  0  0  0  0  0  0
   18.9983  -20.4793   -9.7321 C   0  0  0  0  0  0  0  0  0  0  0  0
   19.9593  -21.2276   -9.0657 C   0  0  0  0  0  0  0  0  0  0  0  0
   21.1084  -20.8703  -11.9253 O   0  0  0  0  0  0  0  0  0  0  0  0
   20.5201  -22.1054  -12.0816 O   0  0  0  0  0  0  0  0  0  0  0  0
  2  4  1  0
  2  1  1  0
  3  2  2  0
  5  4  1  0
  6  5  1  0
  7  6  1  0
  8  7  1  0
  8  9  1  6
 10  8  1  0
 11 10  2  0
 13 12  1  1
 13 14  1  0
 13 15  1  0
 15 17  1  0
 15 16  1  1
 16 10  1  0
 17 18  2  0
 19 20  1  0
 19 17  1  0
 20 21  1  6
 20 31  1  0
 21 22  1  0
 22 30  1  0
 23 22  2  0
 23 24  1  0
 24 25  1  0
 25 26  1  0
 26 27  2  0
 28 27  1  0
 29 28  2  0
 30 25  2  0
 30 29  1  0
 31 33  2  0
 31 32  1  0
M  END
$$$$
