RTW.pdb
     RDKit          3D

 33 34  0  0  1  0  0  0  0  0999 V2000
   30.6002  -24.1830  -18.0214 N   0  0  0  0  0  0  0  0  0  0  0  0
   30.3620  -23.5617  -19.2911 C   0  0  0  0  0  0  0  0  0  0  0  0
   30.4403  -24.2858  -20.3403 N   0  0  0  0  0  0  0  0  0  0  0  0
   30.0505  -22.1846  -19.3569 N   0  0  0  0  0  0  0  0  0  0  0  0
   29.7225  -21.4646  -18.1189 C   0  0  0  0  0  0  0  0  0  0  0  0
   28.2412  -21.1895  -18.0882 C   0  0  0  0  0  0  0  0  0  0  0  0
   27.7805  -20.4545  -16.8871 C   0  0  0  0  0  0  0  0  0  0  0  0
   27.6470  -21.2631  -15.6501 C   0  0  2  0  0  0  0  0  0  0  0  0
   27.1792  -22.5964  -15.7884 N   0  0  0  0  0  0  0  0  0  0  0  0
   26.8849  -20.4976  -14.6055 C   0  0  0  0  0  0  0  0  0  0  0  0
   26.5585  -19.2990  -14.7781 O   0  0  0  0  0  0  0  0  0  0  0  0
   30.2687  -23.9231  -21.3025 C   0  0  0  0  0  0  0  0  0  0  0  0
   23.6891  -20.8966  -14.2768 C   0  0  2  0  0  0  0  0  0  0  0  0
   24.1871  -21.1786  -12.8936 O   0  0  0  0  0  0  0  0  0  0  0  0
   24.2933  -22.5629  -12.7445 C   0  0  2  0  0  0  0  0  0  0  0  0
   25.4820  -20.4871  -12.5414 N   0  0  0  0  0  0  0  0  0  0  0  0
   26.5165  -21.1247  -13.3896 C   0  0  0  0  0  0  0  0  0  0  0  0
   25.9231  -20.7003  -11.1475 O   0  0  0  0  0  0  0  0  0  0  0  0
   26.6090  -21.7395  -10.8384 N   0  0  0  0  0  0  0  0  0  0  0  0
   25.6718  -19.8527  -10.0443 C   0  0  1  0  0  0  0  0  0  0  0  0
   26.0543  -20.1735   -8.6879 C   0  0  0  0  0  0  0  0  0  0  0  0
   26.7180  -19.0483   -7.9428 C   0  0  0  0  0  0  0  0  0  0  0  0
   27.0015  -19.4224   -6.5536 C   0  0  0  0  0  0  0  0  0  0  0  0
   26.0619  -19.4799   -5.5175 N   0  0  0  0  0  0  0  0  0  0  0  0
   26.7375  -19.8294   -4.4250 C   0  0  0  0  0  0  0  0  0  0  0  0
   28.0553  -20.0056   -4.6750 C   0  0  0  0  0  0  0  0  0  0  0  0
   29.1168  -20.3687   -3.8793 C   0  0  0  0  0  0  0  0  0  0  0  0
   30.3649  -20.4791   -4.4320 C   0  0  0  0  0  0  0  0  0  0  0  0
   30.5469  -20.2255   -5.7818 C   0  0  0  0  0  0  0  0  0  0  0  0
   29.4964  -19.8602   -6.5948 C   0  0  0  0  0  0  0  0  0  0  0  0
   28.2296  -19.7462   -6.0382 C   0  0  0  0  0  0  0  0  0  0  0  0
   24.8594  -20.6676   -7.9812 O   0  0  0  0  0  0  0  0  0  0  0  0
   24.9925  -21.5768   -6.9557 O   0  0  0  0  0  0  0  0  0  0  0  0
  2  4  1  0
  2  1  1  0
  3  2  2  0
  5  4  1  0
  6  5  1  0
  7  6  1  0
  8  7  1  0
  8  9  1  6
 10  8  1  0
 11 10  2  0
 13 12  1  1
 13 14  1  0
 13 15  1  0
 15 17  1  0
 15 16  1  1
 16 10  1  0
 17 18  2  0
 19 20  1  0
 19 17  1  0
 20 21  1  1
 20 31  1  0
 21 22  1  0
 22 30  1  0
 23 22  2  0
 23 24  1  0
 24 25  1  0
 25 26  1  0
 26 27  2  0
 28 27  1  0
 29 28  2  0
 30 25  2  0
 30 29  1  0
 31 33  2  0
 31 32  1  0
M  END
$$$$
