RTW.pdb
     RDKit          3D

 33 34  0  0  1  0  0  0  0  0999 V2000
   23.4734  -25.9335  -14.7727 N   0  0  0  0  0  0  0  0  0  0  0  0
   22.1322  -25.9343  -15.2788 C   0  0  0  0  0  0  0  0  0  0  0  0
   21.2330  -26.5373  -14.6013 N   0  0  0  0  0  0  0  0  0  0  0  0
   21.8354  -25.2795  -16.4958 N   0  0  0  0  0  0  0  0  0  0  0  0
   22.7460  -24.2370  -16.9887 C   0  0  0  0  0  0  0  0  0  0  0  0
   22.6546  -23.0364  -16.0827 C   0  0  0  0  0  0  0  0  0  0  0  0
   23.8442  -22.8253  -15.2252 C   0  0  0  0  0  0  0  0  0  0  0  0
   24.9305  -22.0092  -15.8218 C   0  0  2  0  0  0  0  0  0  0  0  0
   25.3152  -22.3082  -17.1553 N   0  0  0  0  0  0  0  0  0  0  0  0
   26.1077  -21.9454  -14.8901 C   0  0  0  0  0  0  0  0  0  0  0  0
   27.2682  -22.2186  -15.2793 O   0  0  0  0  0  0  0  0  0  0  0  0
   20.2499  -26.6548  -14.9280 C   0  0  0  0  0  0  0  0  0  0  0  0
   28.2814  -20.4875  -14.7333 C   0  0  2  0  0  0  0  0  0  0  0  0
   27.9017  -20.2613  -13.3031 O   0  0  0  0  0  0  0  0  0  0  0  0
   27.2031  -19.0547  -13.2253 C   0  0  2  0  0  0  0  0  0  0  0  0
   27.1193  -21.3905  -12.6771 N   0  0  0  0  0  0  0  0  0  0  0  0
   25.9252  -21.5707  -13.5360 C   0  0  0  0  0  0  0  0  0  0  0  0
   26.5978  -21.0909  -11.3276 O   0  0  0  0  0  0  0  0  0  0  0  0
   25.7536  -20.1399  -11.1574 N   0  0  0  0  0  0  0  0  0  0  0  0
   26.9291  -21.7605  -10.1275 C   0  0  2  0  0  0  0  0  0  0  0  0
   26.8612  -21.1414   -8.8232 C   0  0  0  0  0  0  0  0  0  0  0  0
   27.9964  -20.2036   -8.5165 C   0  0  0  0  0  0  0  0  0  0  0  0
   27.8357  -19.5852   -7.1967 C   0  0  0  0  0  0  0  0  0  0  0  0
   27.0758  -18.4427   -6.9195 N   0  0  0  0  0  0  0  0  0  0  0  0
   27.2239  -18.2072   -5.6177 C   0  0  0  0  0  0  0  0  0  0  0  0
   28.0284  -19.1179   -5.0231 C   0  0  0  0  0  0  0  0  0  0  0  0
   28.4538  -19.2830   -3.7256 C   0  0  0  0  0  0  0  0  0  0  0  0
   29.2764  -20.3330   -3.4158 C   0  0  0  0  0  0  0  0  0  0  0  0
   29.6713  -21.2163   -4.4073 C   0  0  0  0  0  0  0  0  0  0  0  0
   29.2563  -21.0675   -5.7125 C   0  0  0  0  0  0  0  0  0  0  0  0
   28.4229  -20.0037   -6.0310 C   0  0  0  0  0  0  0  0  0  0  0  0
   25.5529  -20.4743   -8.7018 O   0  0  0  0  0  0  0  0  0  0  0  0
   25.2181  -19.4530   -9.5625 O   0  0  0  0  0  0  0  0  0  0  0  0
  2  4  1  0
  2  1  1  0
  3  2  2  0
  5  4  1  0
  6  5  1  0
  7  6  1  0
  8  7  1  0
  8  9  1  6
 10  8  1  0
 11 10  2  0
 13 12  1  1
 13 14  1  0
 13 15  1  0
 15 17  1  0
 15 16  1  1
 16 10  1  0
 17 18  2  0
 19 20  1  0
 19 17  1  0
 20 21  1  6
 20 31  1  0
 21 22  1  0
 22 30  1  0
 23 22  2  0
 23 24  1  0
 24 25  1  0
 25 26  1  0
 26 27  2  0
 28 27  1  0
 29 28  2  0
 30 25  2  0
 30 29  1  0
 31 33  2  0
 31 32  1  0
M  END
$$$$
