RTW.pdb
     RDKit          3D

 33 34  0  0  1  0  0  0  0  0999 V2000
   19.3996  -19.8569  -17.7848 N   0  0  0  0  0  0  0  0  0  0  0  0
   19.9665  -19.7044  -16.4770 C   0  0  0  0  0  0  0  0  0  0  0  0
   19.2430  -19.1800  -15.5642 N   0  0  0  0  0  0  0  0  0  0  0  0
   21.2910  -20.1294  -16.2265 N   0  0  0  0  0  0  0  0  0  0  0  0
   22.2749  -20.0872  -17.3169 C   0  0  0  0  0  0  0  0  0  0  0  0
   22.4137  -21.4667  -17.9071 C   0  0  0  0  0  0  0  0  0  0  0  0
   23.7606  -22.0647  -17.7541 C   0  0  0  0  0  0  0  0  0  0  0  0
   24.9014  -21.1289  -17.9110 C   0  0  2  0  0  0  0  0  0  0  0  0
   25.4994  -21.0374  -19.1954 N   0  0  0  0  0  0  0  0  0  0  0  0
   25.9154  -21.3550  -16.8253 C   0  0  0  0  0  0  0  0  0  0  0  0
   26.4876  -22.4618  -16.6820 O   0  0  0  0  0  0  0  0  0  0  0  0
   19.5596  -19.0610  -14.5780 C   0  0  0  0  0  0  0  0  0  0  0  0
   28.9316  -18.9992  -15.9691 C   0  0  2  0  0  0  0  0  0  0  0  0
   28.0656  -19.2832  -14.7815 O   0  0  0  0  0  0  0  0  0  0  0  0
   27.2381  -18.1777  -14.5737 C   0  0  2  0  0  0  0  0  0  0  0  0
   27.2639  -20.5584  -14.8822 N   0  0  0  0  0  0  0  0  0  0  0  0
   26.2477  -20.3073  -15.9313 C   0  0  0  0  0  0  0  0  0  0  0  0
   26.5017  -20.8928  -13.6614 O   0  0  0  0  0  0  0  0  0  0  0  0
   25.2222  -20.8000  -13.6527 N   0  0  0  0  0  0  0  0  0  0  0  0
   27.0350  -21.3303  -12.4275 C   0  0  2  0  0  0  0  0  0  0  0  0
   26.2853  -21.3378  -11.1918 C   0  0  0  0  0  0  0  0  0  0  0  0
   27.0623  -21.8057   -9.9920 C   0  0  0  0  0  0  0  0  0  0  0  0
   26.8579  -20.9164   -8.8442 C   0  0  0  0  0  0  0  0  0  0  0  0
   25.6284  -20.3912   -8.4293 N   0  0  0  0  0  0  0  0  0  0  0  0
   25.8925  -19.6182   -7.3783 C   0  0  0  0  0  0  0  0  0  0  0  0
   27.2110  -19.6016   -7.0760 C   0  0  0  0  0  0  0  0  0  0  0  0
   27.9364  -18.9696   -6.0930 C   0  0  0  0  0  0  0  0  0  0  0  0
   29.2913  -19.1585   -6.0302 C   0  0  0  0  0  0  0  0  0  0  0  0
   29.9171  -19.9809   -6.9528 C   0  0  0  0  0  0  0  0  0  0  0  0
   29.2079  -20.6222   -7.9447 C   0  0  0  0  0  0  0  0  0  0  0  0
   27.8342  -20.4326   -8.0125 C   0  0  0  0  0  0  0  0  0  0  0  0
   25.7256  -19.9898  -10.9891 O   0  0  0  0  0  0  0  0  0  0  0  0
   24.4608  -19.8409  -10.4656 O   0  0  0  0  0  0  0  0  0  0  0  0
  2  4  1  0
  2  1  1  0
  3  2  2  0
  5  4  1  0
  6  5  1  0
  7  6  1  0
  8  7  1  0
  8  9  1  6
 10  8  1  0
 11 10  2  0
 13 12  1  1
 13 14  1  0
 13 15  1  0
 15 17  1  0
 15 16  1  1
 16 10  1  0
 17 18  2  0
 19 20  1  0
 19 17  1  0
 20 21  1  6
 20 31  1  0
 21 22  1  0
 22 30  1  0
 23 22  2  0
 23 24  1  0
 24 25  1  0
 25 26  1  0
 26 27  2  0
 28 27  1  0
 29 28  2  0
 30 25  2  0
 30 29  1  0
 31 33  2  0
 31 32  1  0
M  END
$$$$
