RTW.pdb
     RDKit          3D

 33 34  0  0  1  0  0  0  0  0999 V2000
   26.3816  -27.2332  -15.9880 N   0  0  0  0  0  0  0  0  0  0  0  0
   27.6110  -27.5298  -16.6628 C   0  0  0  0  0  0  0  0  0  0  0  0
   27.9487  -28.7552  -16.7887 N   0  0  0  0  0  0  0  0  0  0  0  0
   28.4118  -26.4800  -17.1671 N   0  0  0  0  0  0  0  0  0  0  0  0
   27.7649  -25.3470  -17.8428 C   0  0  0  0  0  0  0  0  0  0  0  0
   28.8273  -24.4135  -18.3631 C   0  0  0  0  0  0  0  0  0  0  0  0
   29.2111  -23.3374  -17.4199 C   0  0  0  0  0  0  0  0  0  0  0  0
   28.3658  -22.1184  -17.4563 C   0  0  2  0  0  0  0  0  0  0  0  0
   28.4685  -21.2861  -18.6019 N   0  0  0  0  0  0  0  0  0  0  0  0
   28.5089  -21.3452  -16.1759 C   0  0  0  0  0  0  0  0  0  0  0  0
   29.6229  -20.9201  -15.7870 O   0  0  0  0  0  0  0  0  0  0  0  0
   28.8262  -29.0636  -17.2597 C   0  0  0  0  0  0  0  0  0  0  0  0
   28.2107  -18.2360  -15.4166 C   0  0  2  0  0  0  0  0  0  0  0  0
   27.2278  -18.8735  -14.4848 O   0  0  0  0  0  0  0  0  0  0  0  0
   25.9571  -18.7638  -15.0532 C   0  0  2  0  0  0  0  0  0  0  0  0
   27.5460  -20.3040  -14.1223 N   0  0  0  0  0  0  0  0  0  0  0  0
   27.3721  -21.0792  -15.3732 C   0  0  0  0  0  0  0  0  0  0  0  0
   26.6111  -20.9045  -13.1484 O   0  0  0  0  0  0  0  0  0  0  0  0
   25.7140  -21.7336  -13.5404 N   0  0  0  0  0  0  0  0  0  0  0  0
   26.5785  -20.6689  -11.7549 C   0  0  1  0  0  0  0  0  0  0  0  0
   25.6231  -21.2864  -10.8633 C   0  0  0  0  0  0  0  0  0  0  0  0
   26.2188  -21.8531   -9.6039 C   0  0  0  0  0  0  0  0  0  0  0  0
   26.6855  -20.7894   -8.7090 C   0  0  0  0  0  0  0  0  0  0  0  0
   26.3392  -19.4363   -8.8021 N   0  0  0  0  0  0  0  0  0  0  0  0
   26.9984  -18.8181   -7.8246 C   0  0  0  0  0  0  0  0  0  0  0  0
   27.7522  -19.6740   -7.0972 C   0  0  0  0  0  0  0  0  0  0  0  0
   28.5765  -19.5007   -6.0098 C   0  0  0  0  0  0  0  0  0  0  0  0
   29.2134  -20.5857   -5.4689 C   0  0  0  0  0  0  0  0  0  0  0  0
   29.0228  -21.8429   -6.0188 C   0  0  0  0  0  0  0  0  0  0  0  0
   28.2017  -22.0366   -7.1079 C   0  0  0  0  0  0  0  0  0  0  0  0
   27.5548  -20.9391   -7.6599 C   0  0  0  0  0  0  0  0  0  0  0  0
   24.5663  -20.3014  -10.5731 O   0  0  0  0  0  0  0  0  0  0  0  0
   23.3189  -20.7268  -10.1743 O   0  0  0  0  0  0  0  0  0  0  0  0
  2  4  1  0
  2  1  1  0
  3  2  2  0
  5  4  1  0
  6  5  1  0
  7  6  1  0
  8  7  1  0
  8  9  1  6
 10  8  1  0
 11 10  2  0
 13 12  1  1
 13 14  1  0
 13 15  1  0
 15 17  1  0
 15 16  1  1
 16 10  1  0
 17 18  2  0
 19 20  1  0
 19 17  1  0
 20 21  1  1
 20 31  1  0
 21 22  1  0
 22 30  1  0
 23 22  2  0
 23 24  1  0
 24 25  1  0
 25 26  1  0
 26 27  2  0
 28 27  1  0
 29 28  2  0
 30 25  2  0
 30 29  1  0
 31 33  2  0
 31 32  1  0
M  END
$$$$
