LWH.pdb
     RDKit          3D

 33 35  0  0  1  0  0  0  0  0999 V2000
   28.8192  -20.4384   -9.4243 C   0  0  0  0  0  0  0  0  0  0  0  0
   28.3606  -20.6958  -10.8408 C   0  0  1  0  0  0  0  0  0  0  0  0
   29.4276  -21.4723  -11.5542 C   0  0  0  0  0  0  0  0  0  0  0  0
   26.9975  -21.2755  -10.9340 C   0  0  0  0  0  0  0  0  0  0  0  0
   26.4679  -21.4575  -12.3408 C   0  0  2  0  0  0  0  0  0  0  0  0
   27.1497  -20.5809  -13.2401 N   0  0  0  0  0  0  0  0  0  0  0  0
   25.0019  -21.2204  -12.2502 C   0  0  0  0  0  0  0  0  0  0  0  0
   24.4091  -21.9009  -11.3480 O   0  0  0  0  0  0  0  0  0  0  0  0
   24.2453  -20.3506  -13.0354 N   0  0  0  0  0  0  0  0  0  0  0  0
   22.8105  -20.2648  -12.8843 C   0  0  1  0  0  0  0  0  0  0  0  0
   22.3503  -18.8152  -12.8682 C   0  0  0  0  0  0  0  0  0  0  0  0
   20.9281  -18.6905  -12.4615 C   0  0  0  0  0  0  0  0  0  0  0  0
   20.3857  -18.9103  -11.2114 C   0  0  0  0  0  0  0  0  0  0  0  0
   19.0579  -18.6977  -11.2260 N   0  0  0  0  0  0  0  0  0  0  0  0
   18.7037  -18.3364  -12.4775 C   0  0  0  0  0  0  0  0  0  0  0  0
   17.4723  -18.0146  -13.0069 C   0  0  0  0  0  0  0  0  0  0  0  0
   17.4022  -17.6789  -14.3427 C   0  0  0  0  0  0  0  0  0  0  0  0
   18.5479  -17.6698  -15.1191 C   0  0  0  0  0  0  0  0  0  0  0  0
   19.7750  -17.9894  -14.5954 C   0  0  0  0  0  0  0  0  0  0  0  0
   19.8518  -18.3242  -13.2680 C   0  0  0  0  0  0  0  0  0  0  0  0
   22.0709  -21.0065  -13.9290 C   0  0  0  0  0  0  0  0  0  0  0  0
   21.5656  -20.3313  -14.8613 O   0  0  0  0  0  0  0  0  0  0  0  0
   21.9001  -22.4012  -13.9472 N   0  0  0  0  0  0  0  0  0  0  0  0
   20.7319  -23.0937  -13.3898 C   0  0  1  0  0  0  0  0  0  0  0  0
   20.8016  -22.8280  -11.8942 C   0  0  0  0  0  0  0  0  0  0  0  0
   19.7057  -23.4609  -11.1340 C   0  0  0  0  0  0  0  0  0  0  0  0
   18.6593  -24.2198  -11.6661 C   0  0  0  0  0  0  0  0  0  0  0  0
   17.8543  -24.6160  -10.6648 N   0  0  0  0  0  0  0  0  0  0  0  0
   18.3508  -24.1354   -9.5052 C   0  0  0  0  0  0  0  0  0  0  0  0
   19.4615  -23.4458   -9.8123 N   0  0  0  0  0  0  0  0  0  0  0  0
   19.4796  -22.5713  -13.9233 C   0  0  0  0  0  0  0  0  0  0  0  0
   18.3831  -22.9617  -13.4554 O   0  0  0  0  0  0  0  0  0  0  0  0
   19.4218  -21.6336  -14.9555 O   0  0  0  0  0  0  0  0  0  0  0  0
  2  1  1  1
  2  3  1  0
  4  2  1  0
  5  4  1  0
  5  6  1  6
  7  5  1  0
  7  8  2  0
  9  7  1  0
 10  9  1  0
 10 11  1  6
 11 12  1  0
 12 13  2  0
 12 20  1  0
 13 14  1  0
 14 15  1  0
 15 16  2  0
 16 17  1  0
 18 17  2  0
 19 18  1  0
 20 19  2  0
 20 15  1  0
 21 10  1  0
 22 21  2  0
 23 21  1  0
 24 25  1  1
 24 23  1  0
 25 26  1  0
 26 27  2  0
 28 27  1  0
 29 28  1  0
 30 29  2  0
 30 26  1  0
 31 24  1  0
 32 31  2  0
 33 31  1  0
M  END
$$$$
