LWH.pdb
     RDKit          3D

 33 35  0  0  1  0  0  0  0  0999 V2000
   30.6938  -23.8035  -18.8872 C   0  0  0  0  0  0  0  0  0  0  0  0
   29.6332  -22.7305  -18.8030 C   0  0  1  0  0  0  0  0  0  0  0  0
   28.8672  -22.7144  -20.0928 C   0  0  0  0  0  0  0  0  0  0  0  0
   28.7962  -22.8091  -17.5798 C   0  0  0  0  0  0  0  0  0  0  0  0
   27.7253  -21.7454  -17.4607 C   0  0  2  0  0  0  0  0  0  0  0  0
   28.2405  -20.4799  -17.8793 N   0  0  0  0  0  0  0  0  0  0  0  0
   27.2789  -21.7843  -16.0419 C   0  0  0  0  0  0  0  0  0  0  0  0
   26.9522  -22.9435  -15.6201 O   0  0  0  0  0  0  0  0  0  0  0  0
   27.1899  -20.7047  -15.1632 N   0  0  0  0  0  0  0  0  0  0  0  0
   26.6154  -20.8593  -13.8461 C   0  0  1  0  0  0  0  0  0  0  0  0
   27.3448  -19.9953  -12.8289 C   0  0  0  0  0  0  0  0  0  0  0  0
   26.8412  -20.2186  -11.4505 C   0  0  0  0  0  0  0  0  0  0  0  0
   25.5719  -19.9744  -10.9662 C   0  0  0  0  0  0  0  0  0  0  0  0
   25.4895  -20.3014   -9.6643 N   0  0  0  0  0  0  0  0  0  0  0  0
   26.6948  -20.7639   -9.2699 C   0  0  0  0  0  0  0  0  0  0  0  0
   27.1259  -21.2210   -8.0430 C   0  0  0  0  0  0  0  0  0  0  0  0
   28.4349  -21.6384   -7.9237 C   0  0  0  0  0  0  0  0  0  0  0  0
   29.2822  -21.5935   -9.0172 C   0  0  0  0  0  0  0  0  0  0  0  0
   28.8564  -21.1392  -10.2396 C   0  0  0  0  0  0  0  0  0  0  0  0
   27.5561  -20.7227  -10.3652 C   0  0  0  0  0  0  0  0  0  0  0  0
   25.1680  -20.5562  -13.8044 C   0  0  0  0  0  0  0  0  0  0  0  0
   24.8077  -19.4254  -14.2188 O   0  0  0  0  0  0  0  0  0  0  0  0
   24.1810  -21.4414  -13.3384 N   0  0  0  0  0  0  0  0  0  0  0  0
   22.7498  -21.1203  -13.2810 C   0  0  1  0  0  0  0  0  0  0  0  0
   22.0539  -22.3537  -13.8351 C   0  0  0  0  0  0  0  0  0  0  0  0
   21.9965  -22.3825  -15.3099 C   0  0  0  0  0  0  0  0  0  0  0  0
   22.4206  -21.3696  -16.1751 C   0  0  0  0  0  0  0  0  0  0  0  0
   22.1971  -21.7568  -17.4431 N   0  0  0  0  0  0  0  0  0  0  0  0
   21.6424  -22.9871  -17.4201 C   0  0  0  0  0  0  0  0  0  0  0  0
   21.5320  -23.3413  -16.1294 N   0  0  0  0  0  0  0  0  0  0  0  0
   22.2982  -20.8731  -11.9170 C   0  0  0  0  0  0  0  0  0  0  0  0
   22.9699  -21.2933  -10.9444 O   0  0  0  0  0  0  0  0  0  0  0  0
   21.1276  -20.1756  -11.6151 O   0  0  0  0  0  0  0  0  0  0  0  0
  2  1  1  6
  2  3  1  0
  4  2  1  0
  5  4  1  0
  5  6  1  1
  7  5  1  0
  7  8  2  0
  9  7  1  0
 10  9  1  0
 10 11  1  1
 11 12  1  0
 12 13  2  0
 12 20  1  0
 13 14  1  0
 14 15  1  0
 15 16  2  0
 16 17  1  0
 18 17  2  0
 19 18  1  0
 20 19  2  0
 20 15  1  0
 21 10  1  0
 22 21  2  0
 23 21  1  0
 24 25  1  1
 24 23  1  0
 25 26  1  0
 26 27  2  0
 28 27  1  0
 29 28  1  0
 30 29  2  0
 30 26  1  0
 31 24  1  0
 32 31  2  0
 33 31  1  0
M  END
$$$$
