LWH.pdb
     RDKit          3D

 33 35  0  0  1  0  0  0  0  0999 V2000
   25.6262  -18.9655  -17.0688 C   0  0  0  0  0  0  0  0  0  0  0  0
   26.5857  -19.7293  -16.1862 C   0  0  1  0  0  0  0  0  0  0  0  0
   27.8134  -18.8924  -15.9796 C   0  0  0  0  0  0  0  0  0  0  0  0
   25.9690  -20.2524  -14.9416 C   0  0  0  0  0  0  0  0  0  0  0  0
   26.9309  -20.8955  -13.9651 C   0  0  2  0  0  0  0  0  0  0  0  0
   27.5127  -22.0646  -14.5456 N   0  0  0  0  0  0  0  0  0  0  0  0
   26.1371  -21.1552  -12.7337 C   0  0  0  0  0  0  0  0  0  0  0  0
   25.3492  -22.1560  -12.8117 O   0  0  0  0  0  0  0  0  0  0  0  0
   26.1771  -20.4282  -11.5440 N   0  0  0  0  0  0  0  0  0  0  0  0
   25.2736  -20.7263  -10.4561 C   0  0  1  0  0  0  0  0  0  0  0  0
   25.7052  -20.0194   -9.1804 C   0  0  0  0  0  0  0  0  0  0  0  0
   27.0589  -20.4436   -8.7435 C   0  0  0  0  0  0  0  0  0  0  0  0
   27.9531  -21.2443   -9.4250 C   0  0  0  0  0  0  0  0  0  0  0  0
   29.0810  -21.4103   -8.7117 N   0  0  0  0  0  0  0  0  0  0  0  0
   28.9512  -20.7267   -7.5549 C   0  0  0  0  0  0  0  0  0  0  0  0
   29.8186  -20.5808   -6.4936 C   0  0  0  0  0  0  0  0  0  0  0  0
   29.4168  -19.8119   -5.4215 C   0  0  0  0  0  0  0  0  0  0  0  0
   28.1713  -19.2083   -5.4259 C   0  0  0  0  0  0  0  0  0  0  0  0
   27.3057  -19.3513   -6.4805 C   0  0  0  0  0  0  0  0  0  0  0  0
   27.6989  -20.1145   -7.5496 C   0  0  0  0  0  0  0  0  0  0  0  0
   23.8666  -20.3839  -10.7590 C   0  0  0  0  0  0  0  0  0  0  0  0
   23.6676  -19.4204  -11.5415 O   0  0  0  0  0  0  0  0  0  0  0  0
   22.7510  -21.0594  -10.2356 N   0  0  0  0  0  0  0  0  0  0  0  0
   21.3866  -20.9222  -10.7595 C   0  0  1  0  0  0  0  0  0  0  0  0
   21.4534  -21.4927  -12.1675 C   0  0  0  0  0  0  0  0  0  0  0  0
   20.1559  -21.4719  -12.8713 C   0  0  0  0  0  0  0  0  0  0  0  0
   18.9441  -20.9981  -12.3603 C   0  0  0  0  0  0  0  0  0  0  0  0
   17.9866  -21.1556  -13.2909 N   0  0  0  0  0  0  0  0  0  0  0  0
   18.5452  -21.7160  -14.3845 C   0  0  0  0  0  0  0  0  0  0  0  0
   19.8470  -21.8963  -14.1087 N   0  0  0  0  0  0  0  0  0  0  0  0
   20.4188  -21.6748   -9.9704 C   0  0  0  0  0  0  0  0  0  0  0  0
   20.7091  -22.8155   -9.5368 O   0  0  0  0  0  0  0  0  0  0  0  0
   19.1481  -21.1901   -9.6565 O   0  0  0  0  0  0  0  0  0  0  0  0
  2  1  1  1
  2  3  1  0
  4  2  1  0
  5  4  1  0
  5  6  1  6
  7  5  1  0
  7  8  2  0
  9  7  1  0
 10  9  1  0
 10 11  1  1
 11 12  1  0
 12 13  2  0
 12 20  1  0
 13 14  1  0
 14 15  1  0
 15 16  2  0
 16 17  1  0
 18 17  2  0
 19 18  1  0
 20 19  2  0
 20 15  1  0
 21 10  1  0
 22 21  2  0
 23 21  1  0
 24 25  1  6
 24 23  1  0
 25 26  1  0
 26 27  2  0
 28 27  1  0
 29 28  1  0
 30 29  2  0
 30 26  1  0
 31 24  1  0
 32 31  2  0
 33 31  1  0
M  END
$$$$
