LWH.pdb
     RDKit          3D

 33 35  0  0  1  0  0  0  0  0999 V2000
   36.8284   -3.0084  -12.3165 C   0  0  0  0  0  0  0  0  0  0  0  0
   37.7050   -4.2339  -12.4298 C   0  0  1  0  0  0  0  0  0  0  0  0
   37.9332   -4.7862  -11.0537 C   0  0  0  0  0  0  0  0  0  0  0  0
   37.2280   -5.2224  -13.4289 C   0  0  0  0  0  0  0  0  0  0  0  0
   38.0020   -6.5230  -13.4711 C   0  0  2  0  0  0  0  0  0  0  0  0
   39.3653   -6.2727  -13.8194 N   0  0  0  0  0  0  0  0  0  0  0  0
   37.2743   -7.3906  -14.4362 C   0  0  0  0  0  0  0  0  0  0  0  0
   37.2843   -6.9690  -15.6406 O   0  0  0  0  0  0  0  0  0  0  0  0
   36.6068   -8.5817  -14.1514 N   0  0  0  0  0  0  0  0  0  0  0  0
   35.9014   -9.3075  -15.1832 C   0  0  1  0  0  0  0  0  0  0  0  0
   35.6633  -10.7511  -14.7679 C   0  0  0  0  0  0  0  0  0  0  0  0
   35.0620  -11.5506  -15.8646 C   0  0  0  0  0  0  0  0  0  0  0  0
   33.7707  -12.0308  -15.9484 C   0  0  0  0  0  0  0  0  0  0  0  0
   33.5917  -12.7142  -17.0928 N   0  0  0  0  0  0  0  0  0  0  0  0
   34.7540  -12.6967  -17.7790 C   0  0  0  0  0  0  0  0  0  0  0  0
   35.0884  -13.2488  -18.9970 C   0  0  0  0  0  0  0  0  0  0  0  0
   36.3739  -13.0722  -19.4643 C   0  0  0  0  0  0  0  0  0  0  0  0
   37.2935  -12.3563  -18.7178 C   0  0  0  0  0  0  0  0  0  0  0  0
   36.9641  -11.8054  -17.5054 C   0  0  0  0  0  0  0  0  0  0  0  0
   35.6877  -11.9773  -17.0349 C   0  0  0  0  0  0  0  0  0  0  0  0
   34.6139   -8.6820  -15.5567 C   0  0  0  0  0  0  0  0  0  0  0  0
   33.9383   -8.1657  -14.6308 O   0  0  0  0  0  0  0  0  0  0  0  0
   34.1039   -8.6268  -16.8650 N   0  0  0  0  0  0  0  0  0  0  0  0
   32.8219   -8.0073  -17.2222 C   0  0  1  0  0  0  0  0  0  0  0  0
   33.1008   -6.5125  -17.2219 C   0  0  0  0  0  0  0  0  0  0  0  0
   31.9513   -5.7008  -17.6681 C   0  0  0  0  0  0  0  0  0  0  0  0
   30.6652   -6.1709  -17.9497 C   0  0  0  0  0  0  0  0  0  0  0  0
   29.8979   -5.1373  -18.3376 N   0  0  0  0  0  0  0  0  0  0  0  0
   30.6507   -4.0172  -18.3142 C   0  0  0  0  0  0  0  0  0  0  0  0
   31.8786   -4.3806  -17.9095 N   0  0  0  0  0  0  0  0  0  0  0  0
   32.3631   -8.4208  -18.5429 C   0  0  0  0  0  0  0  0  0  0  0  0
   31.2146   -8.9037  -18.6890 O   0  0  0  0  0  0  0  0  0  0  0  0
   33.1466   -8.3093  -19.6926 O   0  0  0  0  0  0  0  0  0  0  0  0
  2  1  1  1
  2  3  1  0
  4  2  1  0
  5  4  1  0
  5  6  1  6
  7  5  1  0
  7  8  2  0
  9  7  1  0
 10  9  1  0
 10 11  1  1
 11 12  1  0
 12 13  2  0
 12 20  1  0
 13 14  1  0
 14 15  1  0
 15 16  2  0
 16 17  1  0
 18 17  2  0
 19 18  1  0
 20 19  2  0
 20 15  1  0
 21 10  1  0
 22 21  2  0
 23 21  1  0
 24 25  1  6
 24 23  1  0
 25 26  1  0
 26 27  2  0
 28 27  1  0
 29 28  1  0
 30 29  2  0
 30 26  1  0
 31 24  1  0
 32 31  2  0
 33 31  1  0
M  END
$$$$
