LWH.pdb
     RDKit          3D

 33 35  0  0  1  0  0  0  0  0999 V2000
   30.3319  -24.9855  -15.5664 C   0  0  0  0  0  0  0  0  0  0  0  0
   29.8941  -24.0819  -16.6955 C   0  0  1  0  0  0  0  0  0  0  0  0
   29.2865  -24.9277  -17.7753 C   0  0  0  0  0  0  0  0  0  0  0  0
   29.0611  -22.9345  -16.2571 C   0  0  0  0  0  0  0  0  0  0  0  0
   28.5008  -22.0792  -17.3737 C   0  0  2  0  0  0  0  0  0  0  0  0
   29.5544  -21.3609  -18.0189 N   0  0  0  0  0  0  0  0  0  0  0  0
   27.4719  -21.2134  -16.7369 C   0  0  0  0  0  0  0  0  0  0  0  0
   27.8140  -20.7251  -15.6087 O   0  0  0  0  0  0  0  0  0  0  0  0
   26.2120  -20.8988  -17.2461 N   0  0  0  0  0  0  0  0  0  0  0  0
   25.3215  -20.0080  -16.5375 C   0  0  1  0  0  0  0  0  0  0  0  0
   24.7429  -18.9581  -17.4738 C   0  0  0  0  0  0  0  0  0  0  0  0
   25.7345  -17.9041  -17.8039 C   0  0  0  0  0  0  0  0  0  0  0  0
   26.3686  -17.6908  -19.0113 C   0  0  0  0  0  0  0  0  0  0  0  0
   27.2025  -16.6387  -18.9302 N   0  0  0  0  0  0  0  0  0  0  0  0
   27.1333  -16.1432  -17.6764 C   0  0  0  0  0  0  0  0  0  0  0  0
   27.7869  -15.0796  -17.0917 C   0  0  0  0  0  0  0  0  0  0  0  0
   27.5199  -14.7951  -15.7690 C   0  0  0  0  0  0  0  0  0  0  0  0
   26.6161  -15.5670  -15.0598 C   0  0  0  0  0  0  0  0  0  0  0  0
   25.9639  -16.6260  -15.6386 C   0  0  0  0  0  0  0  0  0  0  0  0
   26.2247  -16.9144  -16.9534 C   0  0  0  0  0  0  0  0  0  0  0  0
   24.2205  -20.7150  -15.8472 C   0  0  0  0  0  0  0  0  0  0  0  0
   23.9340  -21.8679  -16.2583 O   0  0  0  0  0  0  0  0  0  0  0  0
   23.4840  -20.1877  -14.7729 N   0  0  0  0  0  0  0  0  0  0  0  0
   22.4498  -20.9303  -14.0423 C   0  0  1  0  0  0  0  0  0  0  0  0
   23.2087  -22.0113  -13.2888 C   0  0  0  0  0  0  0  0  0  0  0  0
   24.2130  -21.4763  -12.3483 C   0  0  0  0  0  0  0  0  0  0  0  0
   24.5345  -20.1292  -12.1580 C   0  0  0  0  0  0  0  0  0  0  0  0
   25.5019  -20.0384  -11.2288 N   0  0  0  0  0  0  0  0  0  0  0  0
   25.8125  -21.2854  -10.8157 C   0  0  0  0  0  0  0  0  0  0  0  0
   25.0263  -22.1308  -11.5016 N   0  0  0  0  0  0  0  0  0  0  0  0
   21.7330  -20.0836  -13.0961 C   0  0  0  0  0  0  0  0  0  0  0  0
   20.7893  -20.5550  -12.4172 O   0  0  0  0  0  0  0  0  0  0  0  0
   22.0407  -18.7377  -12.8913 O   0  0  0  0  0  0  0  0  0  0  0  0
  2  1  1  1
  2  3  1  0
  4  2  1  0
  5  4  1  0
  5  6  1  1
  7  5  1  0
  7  8  2  0
  9  7  1  0
 10  9  1  0
 10 11  1  6
 11 12  1  0
 12 13  2  0
 12 20  1  0
 13 14  1  0
 14 15  1  0
 15 16  2  0
 16 17  1  0
 18 17  2  0
 19 18  1  0
 20 19  2  0
 20 15  1  0
 21 10  1  0
 22 21  2  0
 23 21  1  0
 24 25  1  1
 24 23  1  0
 25 26  1  0
 26 27  2  0
 28 27  1  0
 29 28  1  0
 30 29  2  0
 30 26  1  0
 31 24  1  0
 32 31  2  0
 33 31  1  0
M  END
$$$$
