LWH.pdb
     RDKit          3D

 33 35  0  0  1  0  0  0  0  0999 V2000
   28.6694  -18.9887   -5.9170 C   0  0  0  0  0  0  0  0  0  0  0  0
   27.7863  -20.0290   -6.5658 C   0  0  1  0  0  0  0  0  0  0  0  0
   26.8601  -20.5849   -5.5248 C   0  0  0  0  0  0  0  0  0  0  0  0
   27.1222  -19.5619   -7.8081 C   0  0  0  0  0  0  0  0  0  0  0  0
   26.4229  -20.6386   -8.6107 C   0  0  2  0  0  0  0  0  0  0  0  0
   27.1228  -21.8782   -8.4853 N   0  0  0  0  0  0  0  0  0  0  0  0
   26.3495  -20.1165  -10.0021 C   0  0  0  0  0  0  0  0  0  0  0  0
   25.7539  -18.9937  -10.1166 O   0  0  0  0  0  0  0  0  0  0  0  0
   26.8565  -20.7234  -11.1509 N   0  0  0  0  0  0  0  0  0  0  0  0
   26.5673  -20.1946  -12.4645 C   0  0  1  0  0  0  0  0  0  0  0  0
   27.5393  -20.7421  -13.4983 C   0  0  0  0  0  0  0  0  0  0  0  0
   27.3717  -20.0847  -14.8185 C   0  0  0  0  0  0  0  0  0  0  0  0
   27.8900  -18.8733  -15.2296 C   0  0  0  0  0  0  0  0  0  0  0  0
   27.5238  -18.6053  -16.4956 N   0  0  0  0  0  0  0  0  0  0  0  0
   26.7627  -19.6284  -16.9386 C   0  0  0  0  0  0  0  0  0  0  0  0
   26.1481  -19.8317  -18.1555 C   0  0  0  0  0  0  0  0  0  0  0  0
   25.4180  -20.9880  -18.3344 C   0  0  0  0  0  0  0  0  0  0  0  0
   25.3144  -21.9114  -17.3086 C   0  0  0  0  0  0  0  0  0  0  0  0
   25.9249  -21.7122  -16.0964 C   0  0  0  0  0  0  0  0  0  0  0  0
   26.6523  -20.5647  -15.9118 C   0  0  0  0  0  0  0  0  0  0  0  0
   25.1792  -20.4569  -12.9037 C   0  0  0  0  0  0  0  0  0  0  0  0
   24.6073  -21.4670  -12.4212 O   0  0  0  0  0  0  0  0  0  0  0  0
   24.4663  -19.6580  -13.8138 N   0  0  0  0  0  0  0  0  0  0  0  0
   23.0539  -19.8633  -14.1570 C   0  0  1  0  0  0  0  0  0  0  0  0
   22.3046  -19.6627  -12.8491 C   0  0  0  0  0  0  0  0  0  0  0  0
   20.8374  -19.7326  -12.9966 C   0  0  0  0  0  0  0  0  0  0  0  0
   20.1285  -19.8060  -14.1992 C   0  0  0  0  0  0  0  0  0  0  0  0
   18.8121  -19.8427  -13.9284 N   0  0  0  0  0  0  0  0  0  0  0  0
   18.6525  -19.7952  -12.5889 C   0  0  0  0  0  0  0  0  0  0  0  0
   19.8815  -19.7295  -12.0516 N   0  0  0  0  0  0  0  0  0  0  0  0
   22.5845  -18.8988  -15.1445 C   0  0  0  0  0  0  0  0  0  0  0  0
   23.1599  -17.7909  -15.2672 O   0  0  0  0  0  0  0  0  0  0  0  0
   21.4999  -19.1383  -15.9897 O   0  0  0  0  0  0  0  0  0  0  0  0
  2  1  1  1
  2  3  1  0
  4  2  1  0
  5  4  1  0
  5  6  1  6
  7  5  1  0
  7  8  2  0
  9  7  1  0
 10  9  1  0
 10 11  1  6
 11 12  1  0
 12 13  2  0
 12 20  1  0
 13 14  1  0
 14 15  1  0
 15 16  2  0
 16 17  1  0
 18 17  2  0
 19 18  1  0
 20 19  2  0
 20 15  1  0
 21 10  1  0
 22 21  2  0
 23 21  1  0
 24 25  1  1
 24 23  1  0
 25 26  1  0
 26 27  2  0
 28 27  1  0
 29 28  1  0
 30 29  2  0
 30 26  1  0
 31 24  1  0
 32 31  2  0
 33 31  1  0
M  END
$$$$
