LWH.pdb
     RDKit          3D

 33 35  0  0  1  0  0  0  0  0999 V2000
   36.7540  -31.3327    9.0460 C   0  0  0  0  0  0  0  0  0  0  0  0
   37.4850  -30.2413    8.2993 C   0  0  1  0  0  0  0  0  0  0  0  0
   37.1039  -30.3168    6.8503 C   0  0  0  0  0  0  0  0  0  0  0  0
   37.3453  -28.8972    8.9131 C   0  0  0  0  0  0  0  0  0  0  0  0
   37.8830  -27.7497    8.0845 C   0  0  2  0  0  0  0  0  0  0  0  0
   39.2216  -27.4428    8.4798 N   0  0  0  0  0  0  0  0  0  0  0  0
   36.9186  -26.6327    8.2743 C   0  0  0  0  0  0  0  0  0  0  0  0
   36.8571  -26.1818    9.4665 O   0  0  0  0  0  0  0  0  0  0  0  0
   36.1056  -26.0550    7.2993 N   0  0  0  0  0  0  0  0  0  0  0  0
   35.2639  -24.9206    7.6052 C   0  0  1  0  0  0  0  0  0  0  0  0
   34.9239  -24.1392    6.3454 C   0  0  0  0  0  0  0  0  0  0  0  0
   34.1992  -22.8809    6.6532 C   0  0  0  0  0  0  0  0  0  0  0  0
   34.2190  -22.1626    7.8318 C   0  0  0  0  0  0  0  0  0  0  0  0
   33.4358  -21.0735    7.7372 N   0  0  0  0  0  0  0  0  0  0  0  0
   32.8894  -21.0546    6.5029 C   0  0  0  0  0  0  0  0  0  0  0  0
   32.0228  -20.1576    5.9160 C   0  0  0  0  0  0  0  0  0  0  0  0
   31.6195  -20.3914    4.6180 C   0  0  0  0  0  0  0  0  0  0  0  0
   32.0820  -21.5029    3.9351 C   0  0  0  0  0  0  0  0  0  0  0  0
   32.9445  -22.3975    4.5162 C   0  0  0  0  0  0  0  0  0  0  0  0
   33.3494  -22.1710    5.8064 C   0  0  0  0  0  0  0  0  0  0  0  0
   34.0162  -25.2952    8.3062 C   0  0  0  0  0  0  0  0  0  0  0  0
   33.3409  -26.2329    7.8112 O   0  0  0  0  0  0  0  0  0  0  0  0
   33.5434  -24.6788    9.4772 N   0  0  0  0  0  0  0  0  0  0  0  0
   32.3566  -25.1227   10.2183 C   0  0  1  0  0  0  0  0  0  0  0  0
   32.8113  -25.1994   11.6673 C   0  0  0  0  0  0  0  0  0  0  0  0
   32.8827  -26.5790   12.1878 C   0  0  0  0  0  0  0  0  0  0  0  0
   32.5866  -27.7475   11.4800 C   0  0  0  0  0  0  0  0  0  0  0  0
   32.7573  -28.8051   12.2925 N   0  0  0  0  0  0  0  0  0  0  0  0
   33.1540  -28.3528   13.5008 C   0  0  0  0  0  0  0  0  0  0  0  0
   33.2220  -27.0144   13.4134 N   0  0  0  0  0  0  0  0  0  0  0  0
   31.2521  -24.1785   10.0997 C   0  0  0  0  0  0  0  0  0  0  0  0
   31.4289  -23.0673    9.5450 O   0  0  0  0  0  0  0  0  0  0  0  0
   29.9683  -24.4414   10.5801 O   0  0  0  0  0  0  0  0  0  0  0  0
  2  1  1  1
  2  3  1  0
  4  2  1  0
  5  4  1  0
  5  6  1  1
  7  5  1  0
  7  8  2  0
  9  7  1  0
 10  9  1  0
 10 11  1  6
 11 12  1  0
 12 13  2  0
 12 20  1  0
 13 14  1  0
 14 15  1  0
 15 16  2  0
 16 17  1  0
 18 17  2  0
 19 18  1  0
 20 19  2  0
 20 15  1  0
 21 10  1  0
 22 21  2  0
 23 21  1  0
 24 25  1  1
 24 23  1  0
 25 26  1  0
 26 27  2  0
 28 27  1  0
 29 28  1  0
 30 29  2  0
 30 26  1  0
 31 24  1  0
 32 31  2  0
 33 31  1  0
M  END
$$$$
