LWH.pdb
     RDKit          3D

 33 35  0  0  1  0  0  0  0  0999 V2000
   17.5353  -19.4093    0.2124 C   0  0  0  0  0  0  0  0  0  0  0  0
   16.8907  -19.7366    1.5392 C   0  0  1  0  0  0  0  0  0  0  0  0
   16.7723  -21.2274    1.6574 C   0  0  0  0  0  0  0  0  0  0  0  0
   17.5308  -19.0665    2.6986 C   0  0  0  0  0  0  0  0  0  0  0  0
   16.9095  -19.3722    4.0451 C   0  0  2  0  0  0  0  0  0  0  0  0
   15.4946  -19.1790    3.9891 N   0  0  0  0  0  0  0  0  0  0  0  0
   17.6086  -18.4899    5.0179 C   0  0  0  0  0  0  0  0  0  0  0  0
   18.8619  -18.7052    5.1239 O   0  0  0  0  0  0  0  0  0  0  0  0
   17.0361  -17.4836    5.7958 N   0  0  0  0  0  0  0  0  0  0  0  0
   17.8185  -16.7556    6.7688 C   0  0  1  0  0  0  0  0  0  0  0  0
   17.2236  -15.3798    7.0268 C   0  0  0  0  0  0  0  0  0  0  0  0
   17.5996  -14.4072    5.9703 C   0  0  0  0  0  0  0  0  0  0  0  0
   17.0139  -14.2386    4.7318 C   0  0  0  0  0  0  0  0  0  0  0  0
   17.6274  -13.2578    4.0461 N   0  0  0  0  0  0  0  0  0  0  0  0
   18.6217  -12.7657    4.8152 C   0  0  0  0  0  0  0  0  0  0  0  0
   19.5346  -11.7618    4.5724 C   0  0  0  0  0  0  0  0  0  0  0  0
   20.4564  -11.4645    5.5542 C   0  0  0  0  0  0  0  0  0  0  0  0
   20.4523  -12.1651    6.7478 C   0  0  0  0  0  0  0  0  0  0  0  0
   19.5451  -13.1646    6.9927 C   0  0  0  0  0  0  0  0  0  0  0  0
   18.6260  -13.4654    6.0208 C   0  0  0  0  0  0  0  0  0  0  0  0
   17.9684  -17.4775    8.0513 C   0  0  0  0  0  0  0  0  0  0  0  0
   17.1578  -18.4103    8.2814 O   0  0  0  0  0  0  0  0  0  0  0  0
   18.9483  -17.1921    9.0173 N   0  0  0  0  0  0  0  0  0  0  0  0
   19.2016  -18.0217   10.2015 C   0  0  1  0  0  0  0  0  0  0  0  0
   19.5072  -19.4044    9.6472 C   0  0  0  0  0  0  0  0  0  0  0  0
   18.3359  -20.3030    9.6328 C   0  0  0  0  0  0  0  0  0  0  0  0
   17.0344  -19.9732   10.0219 C   0  0  0  0  0  0  0  0  0  0  0  0
   16.2488  -21.0548    9.8788 N   0  0  0  0  0  0  0  0  0  0  0  0
   17.0048  -22.0699    9.4098 C   0  0  0  0  0  0  0  0  0  0  0  0
   18.2531  -21.5946    9.2704 N   0  0  0  0  0  0  0  0  0  0  0  0
   20.3402  -17.5401   10.9743 C   0  0  0  0  0  0  0  0  0  0  0  0
   21.4148  -17.2461   10.3977 O   0  0  0  0  0  0  0  0  0  0  0  0
   20.3090  -17.3800   12.3605 O   0  0  0  0  0  0  0  0  0  0  0  0
  2  1  1  6
  2  3  1  0
  4  2  1  0
  5  4  1  0
  5  6  1  6
  7  5  1  0
  7  8  2  0
  9  7  1  0
 10  9  1  0
 10 11  1  1
 11 12  1  0
 12 13  2  0
 12 20  1  0
 13 14  1  0
 14 15  1  0
 15 16  2  0
 16 17  1  0
 18 17  2  0
 19 18  1  0
 20 19  2  0
 20 15  1  0
 21 10  1  0
 22 21  2  0
 23 21  1  0
 24 25  1  6
 24 23  1  0
 25 26  1  0
 26 27  2  0
 28 27  1  0
 29 28  1  0
 30 29  2  0
 30 26  1  0
 31 24  1  0
 32 31  2  0
 33 31  1  0
M  END
$$$$
