LWH.pdb
     RDKit          3D

 33 35  0  0  1  0  0  0  0  0999 V2000
   24.0537  -14.5870  -21.8515 C   0  0  0  0  0  0  0  0  0  0  0  0
   23.6781  -14.4203  -20.3974 C   0  0  1  0  0  0  0  0  0  0  0  0
   24.7268  -15.0839  -19.5546 C   0  0  0  0  0  0  0  0  0  0  0  0
   23.3626  -13.0212  -20.0159 C   0  0  0  0  0  0  0  0  0  0  0  0
   22.9828  -12.8175  -18.5644 C   0  0  2  0  0  0  0  0  0  0  0  0
   22.1219  -13.8717  -18.1289 N   0  0  0  0  0  0  0  0  0  0  0  0
   22.3718  -11.4625  -18.4970 C   0  0  0  0  0  0  0  0  0  0  0  0
   23.1605  -10.5089  -18.8080 O   0  0  0  0  0  0  0  0  0  0  0  0
   21.0599  -11.1536  -18.1378 N   0  0  0  0  0  0  0  0  0  0  0  0
   20.5977   -9.7846  -18.1040 C   0  0  1  0  0  0  0  0  0  0  0  0
   19.3174   -9.6220  -18.9087 C   0  0  0  0  0  0  0  0  0  0  0  0
   19.4086  -10.2846  -20.2339 C   0  0  0  0  0  0  0  0  0  0  0  0
   20.1562   -9.8896  -21.3249 C   0  0  0  0  0  0  0  0  0  0  0  0
   19.9847  -10.7413  -22.3514 N   0  0  0  0  0  0  0  0  0  0  0  0
   19.1268  -11.7065  -21.9580 C   0  0  0  0  0  0  0  0  0  0  0  0
   18.6313  -12.8005  -22.6345 C   0  0  0  0  0  0  0  0  0  0  0  0
   17.7524  -13.6341  -21.9752 C   0  0  0  0  0  0  0  0  0  0  0  0
   17.3868  -13.3658  -20.6675 C   0  0  0  0  0  0  0  0  0  0  0  0
   17.8781  -12.2780  -19.9914 C   0  0  0  0  0  0  0  0  0  0  0  0
   18.7523  -11.4451  -20.6410 C   0  0  0  0  0  0  0  0  0  0  0  0
   20.3861   -9.2766  -16.7308 C   0  0  0  0  0  0  0  0  0  0  0  0
   19.7997  -10.0398  -15.9221 O   0  0  0  0  0  0  0  0  0  0  0  0
   20.7951   -8.0112  -16.2768 N   0  0  0  0  0  0  0  0  0  0  0  0
   20.6358   -7.5426  -14.8948 C   0  0  1  0  0  0  0  0  0  0  0  0
   21.4771   -8.4978  -14.0628 C   0  0  0  0  0  0  0  0  0  0  0  0
   21.4323   -8.2108  -12.6154 C   0  0  0  0  0  0  0  0  0  0  0  0
   20.7343   -7.1681  -11.9991 C   0  0  0  0  0  0  0  0  0  0  0  0
   20.9449   -7.2261  -10.6725 N   0  0  0  0  0  0  0  0  0  0  0  0
   21.7566   -8.2738  -10.4166 C   0  0  0  0  0  0  0  0  0  0  0  0
   22.0355   -8.8488  -11.5977 N   0  0  0  0  0  0  0  0  0  0  0  0
   21.1225   -6.1795  -14.7192 C   0  0  0  0  0  0  0  0  0  0  0  0
   21.0592   -5.6271  -13.5947 O   0  0  0  0  0  0  0  0  0  0  0  0
   21.6726   -5.4258  -15.7572 O   0  0  0  0  0  0  0  0  0  0  0  0
  2  1  1  6
  2  3  1  0
  4  2  1  0
  5  4  1  0
  5  6  1  6
  7  5  1  0
  7  8  2  0
  9  7  1  0
 10  9  1  0
 10 11  1  6
 11 12  1  0
 12 13  2  0
 12 20  1  0
 13 14  1  0
 14 15  1  0
 15 16  2  0
 16 17  1  0
 18 17  2  0
 19 18  1  0
 20 19  2  0
 20 15  1  0
 21 10  1  0
 22 21  2  0
 23 21  1  0
 24 25  1  1
 24 23  1  0
 25 26  1  0
 26 27  2  0
 28 27  1  0
 29 28  1  0
 30 29  2  0
 30 26  1  0
 31 24  1  0
 32 31  2  0
 33 31  1  0
M  END
$$$$
