LWH.pdb
     RDKit          3D

 33 35  0  0  1  0  0  0  0  0999 V2000
   29.1383  -23.6483  -17.8180 C   0  0  0  0  0  0  0  0  0  0  0  0
   28.8176  -22.2936  -17.2304 C   0  0  1  0  0  0  0  0  0  0  0  0
   28.8985  -21.2685  -18.3227 C   0  0  0  0  0  0  0  0  0  0  0  0
   27.5629  -22.2652  -16.4381 C   0  0  0  0  0  0  0  0  0  0  0  0
   27.2239  -20.9285  -15.8131 C   0  0  2  0  0  0  0  0  0  0  0  0
   28.3592  -20.0619  -15.8594 N   0  0  0  0  0  0  0  0  0  0  0  0
   26.7479  -21.2389  -14.4380 C   0  0  0  0  0  0  0  0  0  0  0  0
   25.8420  -22.1358  -14.3801 O   0  0  0  0  0  0  0  0  0  0  0  0
   27.1890  -20.6579  -13.2492 N   0  0  0  0  0  0  0  0  0  0  0  0
   26.5011  -20.8972  -12.0009 C   0  0  1  0  0  0  0  0  0  0  0  0
   27.2253  -20.2280  -10.8429 C   0  0  0  0  0  0  0  0  0  0  0  0
   26.5582  -20.4954   -9.5442 C   0  0  0  0  0  0  0  0  0  0  0  0
   25.2997  -21.0224   -9.3349 C   0  0  0  0  0  0  0  0  0  0  0  0
   25.0382  -21.1190   -8.0192 N   0  0  0  0  0  0  0  0  0  0  0  0
   26.1124  -20.6604   -7.3424 C   0  0  0  0  0  0  0  0  0  0  0  0
   26.3422  -20.5488   -5.9878 C   0  0  0  0  0  0  0  0  0  0  0  0
   27.5517  -20.0345   -5.5699 C   0  0  0  0  0  0  0  0  0  0  0  0
   28.5007  -19.6449   -6.4990 C   0  0  0  0  0  0  0  0  0  0  0  0
   28.2753  -19.7548   -7.8477 C   0  0  0  0  0  0  0  0  0  0  0  0
   27.0749  -20.2652   -8.2701 C   0  0  0  0  0  0  0  0  0  0  0  0
   25.0892  -20.4562  -12.0218 C   0  0  0  0  0  0  0  0  0  0  0  0
   24.8730  -19.2390  -12.2498 O   0  0  0  0  0  0  0  0  0  0  0  0
   23.9866  -21.3007  -11.8073 N   0  0  0  0  0  0  0  0  0  0  0  0
   22.5969  -20.9281  -12.0982 C   0  0  1  0  0  0  0  0  0  0  0  0
   22.0166  -22.1328  -12.8223 C   0  0  0  0  0  0  0  0  0  0  0  0
   20.5920  -21.9750  -13.1757 C   0  0  0  0  0  0  0  0  0  0  0  0
   19.5025  -22.5110  -12.4829 C   0  0  0  0  0  0  0  0  0  0  0  0
   18.3685  -22.1609  -13.1146 N   0  0  0  0  0  0  0  0  0  0  0  0
   18.6949  -21.4164  -14.1922 C   0  0  0  0  0  0  0  0  0  0  0  0
   20.0342  -21.3188  -14.2077 N   0  0  0  0  0  0  0  0  0  0  0  0
   21.8331  -20.6708  -10.8832 C   0  0  0  0  0  0  0  0  0  0  0  0
   20.8856  -19.8488  -10.8961 O   0  0  0  0  0  0  0  0  0  0  0  0
   22.0982  -21.3021   -9.6670 O   0  0  0  0  0  0  0  0  0  0  0  0
  2  1  1  6
  2  3  1  0
  4  2  1  0
  5  4  1  0
  5  6  1  1
  7  5  1  0
  7  8  2  0
  9  7  1  0
 10  9  1  0
 10 11  1  1
 11 12  1  0
 12 13  2  0
 12 20  1  0
 13 14  1  0
 14 15  1  0
 15 16  2  0
 16 17  1  0
 18 17  2  0
 19 18  1  0
 20 19  2  0
 20 15  1  0
 21 10  1  0
 22 21  2  0
 23 21  1  0
 24 25  1  1
 24 23  1  0
 25 26  1  0
 26 27  2  0
 28 27  1  0
 29 28  1  0
 30 29  2  0
 30 26  1  0
 31 24  1  0
 32 31  2  0
 33 31  1  0
M  END
$$$$
