GMS.pdb
     RDKit          3D

 19 18  0  0  1  0  0  0  0  0999 V2000
   18.5802  -11.0036  -13.2308 N   0  0  0  0  0  0  0  0  0  0  0  0
   18.4713  -10.5206  -11.8906 C   0  0  0  0  0  0  0  0  0  0  0  0
   17.4810   -9.4086  -11.7690 C   0  0  0  0  0  0  0  0  0  0  0  0
   16.8505   -9.0264  -12.8001 O   0  0  0  0  0  0  0  0  0  0  0  0
   12.1751   -6.3461   -6.9548 C   0  0  0  0  0  0  0  0  0  0  0  0
   13.5404   -7.5386   -7.1945 S   0  0  0  0  0  0  0  0  0  0  0  0
   14.3077   -7.0786   -8.8099 C   0  0  0  0  0  0  0  0  0  0  0  0
   15.4268   -8.0332   -9.1144 C   0  0  0  0  0  0  0  0  0  0  0  0
   16.0859   -7.7914  -10.4225 C   0  0  2  0  0  0  0  0  0  0  0  0
   17.2108   -8.7534  -10.5405 N   0  0  0  0  0  0  0  0  0  0  0  0
   16.5759   -6.4761  -10.7394 C   0  0  0  0  0  0  0  0  0  0  0  0
   17.6508   -6.0811  -10.1576 O   0  0  0  0  0  0  0  0  0  0  0  0
   16.5416   -4.7294  -14.2149 O   0  0  0  0  0  0  0  0  0  0  0  0
   17.3745   -4.2223  -13.2452 C   0  0  0  0  0  0  0  0  0  0  0  0
   16.6692   -4.2644  -11.9223 C   0  0  2  0  0  0  0  0  0  0  0  0
   16.0430   -5.5117  -11.6273 N   0  0  0  0  0  0  0  0  0  0  0  0
   15.7055   -3.1302  -11.8953 C   0  0  0  0  0  0  0  0  0  0  0  0
   16.1586   -1.8298  -11.9292 O   0  0  0  0  0  0  0  0  0  0  0  0
   14.4525   -3.2982  -11.8410 O   0  0  0  0  0  0  0  0  0  0  0  0
  1  2  1  0
  2  3  1  0
  3 10  1  0
  3  4  2  0
  6  5  1  0
  7  8  1  0
  7  6  1  0
  9  8  1  1
 10  9  1  0
 11  9  1  0
 11 16  1  0
 12 11  2  0
 14 13  1  0
 15 14  1  6
 15 16  1  0
 15 17  1  0
 17 18  1  0
 19 17  2  0
M  END
$$$$
