GMS.pdb
     RDKit          3D

 19 18  0  0  1  0  0  0  0  0999 V2000
   16.7640  -14.3577  -14.8946 N   0  0  0  0  0  0  0  0  0  0  0  0
   16.1634  -13.0654  -14.9964 C   0  0  0  0  0  0  0  0  0  0  0  0
   17.0617  -12.0752  -15.6633 C   0  0  0  0  0  0  0  0  0  0  0  0
   18.2498  -12.4123  -15.9487 O   0  0  0  0  0  0  0  0  0  0  0  0
   17.4510   -6.4718  -20.9884 C   0  0  0  0  0  0  0  0  0  0  0  0
   16.3774   -7.5004  -19.9240 S   0  0  0  0  0  0  0  0  0  0  0  0
   17.5099   -8.2479  -18.6715 C   0  0  0  0  0  0  0  0  0  0  0  0
   16.7325   -9.2016  -17.8100 C   0  0  0  0  0  0  0  0  0  0  0  0
   17.5391   -9.8425  -16.7411 C   0  0  2  0  0  0  0  0  0  0  0  0
   16.6426  -10.7616  -15.9952 N   0  0  0  0  0  0  0  0  0  0  0  0
   18.2418   -9.0210  -15.7914 C   0  0  0  0  0  0  0  0  0  0  0  0
   17.5705   -8.5282  -14.8133 O   0  0  0  0  0  0  0  0  0  0  0  0
   22.3090   -8.7572  -15.1437 O   0  0  0  0  0  0  0  0  0  0  0  0
   21.4427   -8.3847  -14.1427 C   0  0  0  0  0  0  0  0  0  0  0  0
   20.1932   -7.8281  -14.7576 C   0  0  2  0  0  0  0  0  0  0  0  0
   19.6091   -8.6580  -15.7601 N   0  0  0  0  0  0  0  0  0  0  0  0
   20.5167   -6.4686  -15.2702 C   0  0  0  0  0  0  0  0  0  0  0  0
   21.0186   -5.5055  -14.4228 O   0  0  0  0  0  0  0  0  0  0  0  0
   20.3514   -6.1363  -16.4799 O   0  0  0  0  0  0  0  0  0  0  0  0
  1  2  1  0
  2  3  1  0
  3 10  1  0
  3  4  2  0
  6  5  1  0
  7  8  1  0
  7  6  1  0
  9  8  1  6
 10  9  1  0
 11  9  1  0
 11 16  1  0
 12 11  2  0
 14 13  1  0
 15 14  1  6
 15 16  1  0
 15 17  1  0
 17 18  1  0
 19 17  2  0
M  END
$$$$
