GMS.pdb
     RDKit          3D

 19 18  0  0  1  0  0  0  0  0999 V2000
   28.5772  -21.1732  -15.2696 N   0  0  0  0  0  0  0  0  0  0  0  0
   28.0237  -20.2608  -14.3197 C   0  0  0  0  0  0  0  0  0  0  0  0
   26.9240  -20.8770  -13.5179 C   0  0  0  0  0  0  0  0  0  0  0  0
   26.3556  -21.9243  -13.9501 O   0  0  0  0  0  0  0  0  0  0  0  0
   28.4003  -20.5929   -7.0295 C   0  0  0  0  0  0  0  0  0  0  0  0
   26.7594  -20.1786   -7.7218 S   0  0  0  0  0  0  0  0  0  0  0  0
   26.7743  -20.8531   -9.4408 C   0  0  0  0  0  0  0  0  0  0  0  0
   25.4763  -20.5127  -10.1159 C   0  0  0  0  0  0  0  0  0  0  0  0
   25.3847  -20.9870  -11.5196 C   0  0  2  0  0  0  0  0  0  0  0  0
   26.4815  -20.3390  -12.2825 N   0  0  0  0  0  0  0  0  0  0  0  0
   24.1571  -20.8134  -12.2500 C   0  0  0  0  0  0  0  0  0  0  0  0
   23.9302  -19.6634  -12.7754 O   0  0  0  0  0  0  0  0  0  0  0  0
   22.6856  -23.1900  -14.7215 O   0  0  0  0  0  0  0  0  0  0  0  0
   21.5605  -22.6022  -14.1925 C   0  0  0  0  0  0  0  0  0  0  0  0
   21.9729  -21.4728  -13.2960 C   0  0  2  0  0  0  0  0  0  0  0  0
   23.1208  -21.7455  -12.4941 N   0  0  0  0  0  0  0  0  0  0  0  0
   20.7882  -21.1006  -12.4751 C   0  0  0  0  0  0  0  0  0  0  0  0
   19.5921  -20.7847  -13.0810 O   0  0  0  0  0  0  0  0  0  0  0  0
   20.8184  -21.0563  -11.2109 O   0  0  0  0  0  0  0  0  0  0  0  0
  1  2  1  0
  2  3  1  0
  3 10  1  0
  3  4  2  0
  6  5  1  0
  7  8  1  0
  7  6  1  0
  9  8  1  1
 10  9  1  0
 11  9  1  0
 11 16  1  0
 12 11  2  0
 14 13  1  0
 15 14  1  1
 15 16  1  0
 15 17  1  0
 17 18  1  0
 19 17  2  0
M  END
$$$$
