GMS.pdb
     RDKit          3D

 19 18  0  0  1  0  0  0  0  0999 V2000
   13.8484  -11.5380  -15.3918 N   0  0  0  0  0  0  0  0  0  0  0  0
   15.1630  -11.9604  -15.7585 C   0  0  0  0  0  0  0  0  0  0  0  0
   16.2213  -11.0690  -15.1949 C   0  0  0  0  0  0  0  0  0  0  0  0
   16.1355  -10.6946  -13.9869 O   0  0  0  0  0  0  0  0  0  0  0  0
   23.4057   -9.3160  -13.9699 C   0  0  0  0  0  0  0  0  0  0  0  0
   22.1736  -10.4773  -14.6605 S   0  0  0  0  0  0  0  0  0  0  0  0
   20.8535   -9.4087  -15.3855 C   0  0  0  0  0  0  0  0  0  0  0  0
   19.6929  -10.2689  -15.7973 C   0  0  0  0  0  0  0  0  0  0  0  0
   18.3744   -9.7590  -15.3440 C   0  0  2  0  0  0  0  0  0  0  0  0
   17.3290  -10.6173  -15.9566 N   0  0  0  0  0  0  0  0  0  0  0  0
   18.0268   -8.3820  -15.5755 C   0  0  0  0  0  0  0  0  0  0  0  0
   17.7200   -8.0349  -16.7736 O   0  0  0  0  0  0  0  0  0  0  0  0
   15.4501   -5.9765  -14.3320 O   0  0  0  0  0  0  0  0  0  0  0  0
   16.6337   -5.2907  -14.1913 C   0  0  0  0  0  0  0  0  0  0  0  0
   17.6883   -5.9570  -15.0239 C   0  0  2  0  0  0  0  0  0  0  0  0
   17.9634   -7.3077  -14.6567 N   0  0  0  0  0  0  0  0  0  0  0  0
   18.9045   -5.1003  -14.9711 C   0  0  0  0  0  0  0  0  0  0  0  0
   18.8494   -3.7860  -15.3801 O   0  0  0  0  0  0  0  0  0  0  0  0
   20.0228   -5.5245  -14.5583 O   0  0  0  0  0  0  0  0  0  0  0  0
  1  2  1  0
  2  3  1  0
  3 10  1  0
  3  4  2  0
  6  5  1  0
  7  8  1  0
  7  6  1  0
  9  8  1  6
 10  9  1  0
 11  9  1  0
 11 16  1  0
 12 11  2  0
 14 13  1  0
 15 14  1  1
 15 16  1  0
 15 17  1  0
 17 18  1  0
 19 17  2  0
M  END
$$$$
