GMS.pdb
     RDKit          3D

 19 18  0  0  1  0  0  0  0  0999 V2000
   20.4100  -12.9212  -16.9677 N   0  0  0  0  0  0  0  0  0  0  0  0
   20.3454  -11.5465  -17.3510 C   0  0  0  0  0  0  0  0  0  0  0  0
   21.1142  -10.6637  -16.4227 C   0  0  0  0  0  0  0  0  0  0  0  0
   20.6949  -10.4980  -15.2380 O   0  0  0  0  0  0  0  0  0  0  0  0
   27.3461  -12.2844  -14.9051 C   0  0  0  0  0  0  0  0  0  0  0  0
   26.8358  -10.7109  -15.6842 S   0  0  0  0  0  0  0  0  0  0  0  0
   25.0143  -10.5988  -15.4022 C   0  0  0  0  0  0  0  0  0  0  0  0
   24.4879   -9.3569  -16.0633 C   0  0  0  0  0  0  0  0  0  0  0  0
   23.0364   -9.1300  -15.8505 C   0  0  2  0  0  0  0  0  0  0  0  0
   22.3037   -9.9951  -16.8093 N   0  0  0  0  0  0  0  0  0  0  0  0
   22.5044   -7.7961  -15.9417 C   0  0  0  0  0  0  0  0  0  0  0  0
   22.2630   -7.3263  -17.1127 O   0  0  0  0  0  0  0  0  0  0  0  0
   21.2560   -5.3084  -12.8171 O   0  0  0  0  0  0  0  0  0  0  0  0
   20.6239   -5.1992  -14.0335 C   0  0  0  0  0  0  0  0  0  0  0  0
   21.5722   -5.6161  -15.1180 C   0  0  2  0  0  0  0  0  0  0  0  0
   22.1892   -6.8848  -14.9061 N   0  0  0  0  0  0  0  0  0  0  0  0
   22.5710   -4.5244  -15.2800 C   0  0  0  0  0  0  0  0  0  0  0  0
   22.1597   -3.2391  -15.5566 O   0  0  0  0  0  0  0  0  0  0  0  0
   23.8173   -4.7160  -15.1748 O   0  0  0  0  0  0  0  0  0  0  0  0
  1  2  1  0
  2  3  1  0
  3 10  1  0
  3  4  2  0
  6  5  1  0
  7  8  1  0
  7  6  1  0
  9  8  1  6
 10  9  1  0
 11  9  1  0
 11 16  1  0
 12 11  2  0
 14 13  1  0
 15 14  1  1
 15 16  1  0
 15 17  1  0
 17 18  1  0
 19 17  2  0
M  END
$$$$
