GMS.pdb
     RDKit          3D

 19 18  0  0  1  0  0  0  0  0999 V2000
   25.3982  -34.4723  -13.1019 N   0  0  0  0  0  0  0  0  0  0  0  0
   25.5823  -33.4670  -12.1037 C   0  0  0  0  0  0  0  0  0  0  0  0
   25.6640  -34.0440  -10.7280 C   0  0  0  0  0  0  0  0  0  0  0  0
   25.5277  -35.2947  -10.5730 O   0  0  0  0  0  0  0  0  0  0  0  0
   28.8693  -32.9052   -4.1477 C   0  0  0  0  0  0  0  0  0  0  0  0
   28.1474  -34.0684   -5.3599 S   0  0  0  0  0  0  0  0  0  0  0  0
   26.5423  -33.3079   -5.8649 C   0  0  0  0  0  0  0  0  0  0  0  0
   26.6124  -32.9244   -7.3156 C   0  0  0  0  0  0  0  0  0  0  0  0
   25.8963  -33.8579   -8.2209 C   0  0  2  0  0  0  0  0  0  0  0  0
   25.8890  -33.2493   -9.5752 N   0  0  0  0  0  0  0  0  0  0  0  0
   24.5560  -34.2717   -7.9000 C   0  0  0  0  0  0  0  0  0  0  0  0
   23.6019  -33.4429   -8.1301 O   0  0  0  0  0  0  0  0  0  0  0  0
   23.1827  -38.0605   -6.6670 O   0  0  0  0  0  0  0  0  0  0  0  0
   22.3597  -37.2309   -7.3921 C   0  0  0  0  0  0  0  0  0  0  0  0
   22.7316  -35.8051   -7.1126 C   0  0  2  0  0  0  0  0  0  0  0  0
   24.1033  -35.4956   -7.3527 N   0  0  0  0  0  0  0  0  0  0  0  0
   22.3233  -35.5046   -5.7130 C   0  0  0  0  0  0  0  0  0  0  0  0
   21.0616  -35.8347   -5.2691 O   0  0  0  0  0  0  0  0  0  0  0  0
   23.0943  -34.9448   -4.8805 O   0  0  0  0  0  0  0  0  0  0  0  0
  1  2  1  0
  2  3  1  0
  3 10  1  0
  3  4  2  0
  6  5  1  0
  7  8  1  0
  7  6  1  0
  9  8  1  1
 10  9  1  0
 11  9  1  0
 11 16  1  0
 12 11  2  0
 14 13  1  0
 15 14  1  1
 15 16  1  0
 15 17  1  0
 17 18  1  0
 19 17  2  0
M  END
$$$$
