GMS.pdb
     RDKit          3D

 19 18  0  0  1  0  0  0  0  0999 V2000
   20.6153  -20.5456  -10.7865 N   0  0  0  0  0  0  0  0  0  0  0  0
   21.6498  -21.4007  -11.2761 C   0  0  0  0  0  0  0  0  0  0  0  0
   22.9711  -20.7068  -11.3466 C   0  0  0  0  0  0  0  0  0  0  0  0
   23.0124  -19.4900  -11.6993 O   0  0  0  0  0  0  0  0  0  0  0  0
   27.3437  -19.8858   -6.1974 C   0  0  0  0  0  0  0  0  0  0  0  0
   27.6147  -20.8707   -7.7140 S   0  0  0  0  0  0  0  0  0  0  0  0
   26.2694  -20.3591   -8.8709 C   0  0  0  0  0  0  0  0  0  0  0  0
   26.4110  -21.1183  -10.1593 C   0  0  0  0  0  0  0  0  0  0  0  0
   25.4928  -20.6608  -11.2323 C   0  0  2  0  0  0  0  0  0  0  0  0
   24.1942  -21.3530  -11.0342 N   0  0  0  0  0  0  0  0  0  0  0  0
   25.8811  -20.8062  -12.6103 C   0  0  0  0  0  0  0  0  0  0  0  0
   25.6731  -21.9412  -13.1747 O   0  0  0  0  0  0  0  0  0  0  0  0
   27.8157  -19.3709  -16.8183 O   0  0  0  0  0  0  0  0  0  0  0  0
   27.5019  -18.9855  -15.5360 C   0  0  0  0  0  0  0  0  0  0  0  0
   26.9163  -20.1550  -14.8021 C   0  0  2  0  0  0  0  0  0  0  0  0
   26.4761  -19.8597  -13.4777 N   0  0  0  0  0  0  0  0  0  0  0  0
   27.9259  -21.2485  -14.8292 C   0  0  0  0  0  0  0  0  0  0  0  0
   27.9594  -22.1401  -15.8787 O   0  0  0  0  0  0  0  0  0  0  0  0
   28.7833  -21.4110  -13.9129 O   0  0  0  0  0  0  0  0  0  0  0  0
  1  2  1  0
  2  3  1  0
  3 10  1  0
  3  4  2  0
  6  5  1  0
  7  8  1  0
  7  6  1  0
  9  8  1  1
 10  9  1  0
 11  9  1  0
 11 16  1  0
 12 11  2  0
 14 13  1  0
 15 14  1  1
 15 16  1  0
 15 17  1  0
 17 18  1  0
 19 17  2  0
M  END
$$$$
