GMS.pdb
     RDKit          3D

 19 18  0  0  1  0  0  0  0  0999 V2000
   21.0311  -20.5327   -9.1117 N   0  0  0  0  0  0  0  0  0  0  0  0
   22.2102  -21.3162   -8.9193 C   0  0  0  0  0  0  0  0  0  0  0  0
   23.4235  -20.6635   -9.4972 C   0  0  0  0  0  0  0  0  0  0  0  0
   23.2801  -19.7154  -10.3262 O   0  0  0  0  0  0  0  0  0  0  0  0
   27.6902  -19.5891   -4.9383 C   0  0  0  0  0  0  0  0  0  0  0  0
   28.4105  -19.8205   -6.6029 S   0  0  0  0  0  0  0  0  0  0  0  0
   27.0241  -19.4996   -7.7798 C   0  0  0  0  0  0  0  0  0  0  0  0
   27.0598  -20.5258   -8.8761 C   0  0  0  0  0  0  0  0  0  0  0  0
   25.9174  -20.4389   -9.8202 C   0  0  2  0  0  0  0  0  0  0  0  0
   24.7424  -21.0596   -9.1579 N   0  0  0  0  0  0  0  0  0  0  0  0
   26.0428  -20.9955  -11.1412 C   0  0  0  0  0  0  0  0  0  0  0  0
   26.0126  -22.2744  -11.2577 O   0  0  0  0  0  0  0  0  0  0  0  0
   25.9838  -18.9165  -14.7033 O   0  0  0  0  0  0  0  0  0  0  0  0
   25.5646  -20.2251  -14.7569 C   0  0  0  0  0  0  0  0  0  0  0  0
   26.2145  -20.9940  -13.6453 C   0  0  2  0  0  0  0  0  0  0  0  0
   26.1969  -20.3322  -12.3817 N   0  0  0  0  0  0  0  0  0  0  0  0
   27.5961  -21.3308  -14.0853 C   0  0  0  0  0  0  0  0  0  0  0  0
   27.8015  -22.0908  -15.2157 O   0  0  0  0  0  0  0  0  0  0  0  0
   28.6263  -20.9462  -13.4594 O   0  0  0  0  0  0  0  0  0  0  0  0
  1  2  1  0
  2  3  1  0
  3 10  1  0
  3  4  2  0
  6  5  1  0
  7  8  1  0
  7  6  1  0
  9  8  1  1
 10  9  1  0
 11  9  1  0
 11 16  1  0
 12 11  2  0
 14 13  1  0
 15 14  1  6
 15 16  1  0
 15 17  1  0
 17 18  1  0
 19 17  2  0
M  END
$$$$
