GMS.pdb
     RDKit          3D

 19 18  0  0  1  0  0  0  0  0999 V2000
   28.6574  -21.6964  -16.2716 N   0  0  0  0  0  0  0  0  0  0  0  0
   28.1549  -20.7289  -15.3483 C   0  0  0  0  0  0  0  0  0  0  0  0
   27.0932  -21.2920  -14.4608 C   0  0  0  0  0  0  0  0  0  0  0  0
   26.4870  -22.3474  -14.8147 O   0  0  0  0  0  0  0  0  0  0  0  0
   26.1448  -19.3844   -8.3926 C   0  0  0  0  0  0  0  0  0  0  0  0
   25.2697  -20.9888   -8.3359 S   0  0  0  0  0  0  0  0  0  0  0  0
   24.7521  -21.3204  -10.0772 C   0  0  0  0  0  0  0  0  0  0  0  0
   25.8719  -20.9443  -11.0051 C   0  0  0  0  0  0  0  0  0  0  0  0
   25.5869  -21.2194  -12.4359 C   0  0  2  0  0  0  0  0  0  0  0  0
   26.7280  -20.6943  -13.2276 N   0  0  0  0  0  0  0  0  0  0  0  0
   24.3648  -20.7373  -13.0229 C   0  0  0  0  0  0  0  0  0  0  0  0
   24.3213  -19.5073  -13.3907 O   0  0  0  0  0  0  0  0  0  0  0  0
   22.5676  -21.3983  -16.0425 O   0  0  0  0  0  0  0  0  0  0  0  0
   21.5419  -21.4574  -15.1283 C   0  0  0  0  0  0  0  0  0  0  0  0
   21.9944  -20.8316  -13.8427 C   0  0  2  0  0  0  0  0  0  0  0  0
   23.1567  -21.4305  -13.2723 N   0  0  0  0  0  0  0  0  0  0  0  0
   20.8362  -20.8477  -12.9078 C   0  0  0  0  0  0  0  0  0  0  0  0
   19.6590  -20.2171  -13.2458 O   0  0  0  0  0  0  0  0  0  0  0  0
   20.8726  -21.4267  -11.7833 O   0  0  0  0  0  0  0  0  0  0  0  0
  1  2  1  0
  2  3  1  0
  3 10  1  0
  3  4  2  0
  6  5  1  0
  7  8  1  0
  7  6  1  0
  9  8  1  1
 10  9  1  0
 11  9  1  0
 11 16  1  0
 12 11  2  0
 14 13  1  0
 15 14  1  6
 15 16  1  0
 15 17  1  0
 17 18  1  0
 19 17  2  0
M  END
$$$$
