GMS.pdb
     RDKit          3D

 19 18  0  0  1  0  0  0  0  0999 V2000
   16.2741   -9.1531  -17.7993 N   0  0  0  0  0  0  0  0  0  0  0  0
   16.4075   -7.9262  -17.0797 C   0  0  0  0  0  0  0  0  0  0  0  0
   16.9002   -8.1388  -15.6854 C   0  0  0  0  0  0  0  0  0  0  0  0
   16.1609   -8.7464  -14.8542 O   0  0  0  0  0  0  0  0  0  0  0  0
   23.1980   -9.0255  -11.1292 C   0  0  0  0  0  0  0  0  0  0  0  0
   22.5402   -8.7535  -12.8135 S   0  0  0  0  0  0  0  0  0  0  0  0
   20.7232   -8.5109  -12.5908 C   0  0  0  0  0  0  0  0  0  0  0  0
   20.0981   -8.2118  -13.9235 C   0  0  0  0  0  0  0  0  0  0  0  0
   18.6362   -7.9613  -13.8607 C   0  0  2  0  0  0  0  0  0  0  0  0
   18.1701   -7.6875  -15.2437 N   0  0  0  0  0  0  0  0  0  0  0  0
   18.1281   -6.9295  -12.9960 C   0  0  0  0  0  0  0  0  0  0  0  0
   18.2406   -5.7111  -13.3869 O   0  0  0  0  0  0  0  0  0  0  0  0
   14.9145   -6.8163  -10.6857 O   0  0  0  0  0  0  0  0  0  0  0  0
   15.5970   -5.6657  -11.0044 C   0  0  0  0  0  0  0  0  0  0  0  0
   17.0707   -5.9381  -10.9469 C   0  0  2  0  0  0  0  0  0  0  0  0
   17.4964   -7.0481  -11.7353 N   0  0  0  0  0  0  0  0  0  0  0  0
   17.4395   -6.0916   -9.5129 C   0  0  0  0  0  0  0  0  0  0  0  0
   18.1215   -7.2093   -9.0846 O   0  0  0  0  0  0  0  0  0  0  0  0
   17.1526   -5.2255   -8.6362 O   0  0  0  0  0  0  0  0  0  0  0  0
  1  2  1  0
  2  3  1  0
  3 10  1  0
  3  4  2  0
  6  5  1  0
  7  8  1  0
  7  6  1  0
  9  8  1  6
 10  9  1  0
 11  9  1  0
 11 16  1  0
 12 11  2  0
 14 13  1  0
 15 14  1  1
 15 16  1  0
 15 17  1  0
 17 18  1  0
 19 17  2  0
M  END
$$$$
