GMS.pdb
     RDKit          3D

 19 18  0  0  1  0  0  0  0  0999 V2000
   17.1600   -9.5186  -19.3355 N   0  0  0  0  0  0  0  0  0  0  0  0
   17.3893   -8.1440  -19.0211 C   0  0  0  0  0  0  0  0  0  0  0  0
   18.2371   -7.9763  -17.8023 C   0  0  0  0  0  0  0  0  0  0  0  0
   17.7131   -7.5186  -16.7428 O   0  0  0  0  0  0  0  0  0  0  0  0
   24.8503  -10.2164  -14.1785 C   0  0  0  0  0  0  0  0  0  0  0  0
   23.6526  -10.5024  -15.5302 S   0  0  0  0  0  0  0  0  0  0  0  0
   22.4721   -9.0853  -15.4396 C   0  0  0  0  0  0  0  0  0  0  0  0
   21.5051   -9.1743  -16.5856 C   0  0  0  0  0  0  0  0  0  0  0  0
   20.4054   -8.1788  -16.5248 C   0  0  2  0  0  0  0  0  0  0  0  0
   19.6155   -8.3088  -17.7754 N   0  0  0  0  0  0  0  0  0  0  0  0
   20.7155   -6.7881  -16.3242 C   0  0  0  0  0  0  0  0  0  0  0  0
   21.2248   -6.1398  -17.3093 O   0  0  0  0  0  0  0  0  0  0  0  0
   18.6648   -3.8898  -15.2856 O   0  0  0  0  0  0  0  0  0  0  0  0
   19.8078   -3.7259  -14.5385 C   0  0  0  0  0  0  0  0  0  0  0  0
   20.8869   -4.6072  -15.0938 C   0  0  2  0  0  0  0  0  0  0  0  0
   20.5390   -5.9885  -15.1701 N   0  0  0  0  0  0  0  0  0  0  0  0
   22.1113   -4.3792  -14.2786 C   0  0  0  0  0  0  0  0  0  0  0  0
   22.7460   -5.4360  -13.6638 O   0  0  0  0  0  0  0  0  0  0  0  0
   22.6190   -3.2321  -14.1126 O   0  0  0  0  0  0  0  0  0  0  0  0
  1  2  1  0
  2  3  1  0
  3 10  1  0
  3  4  2  0
  6  5  1  0
  7  8  1  0
  7  6  1  0
  9  8  1  6
 10  9  1  0
 11  9  1  0
 11 16  1  0
 12 11  2  0
 14 13  1  0
 15 14  1  1
 15 16  1  0
 15 17  1  0
 17 18  1  0
 19 17  2  0
M  END
$$$$
