GMS.pdb
     RDKit          3D

 19 18  0  0  1  0  0  0  0  0999 V2000
   17.9290  -12.2570  -12.1497 N   0  0  0  0  0  0  0  0  0  0  0  0
   17.2664  -11.7231  -13.2973 C   0  0  0  0  0  0  0  0  0  0  0  0
   16.3069  -10.6347  -12.9412 C   0  0  0  0  0  0  0  0  0  0  0  0
   15.4644  -10.2461  -13.8048 O   0  0  0  0  0  0  0  0  0  0  0  0
   11.5088   -7.8693   -7.6034 C   0  0  0  0  0  0  0  0  0  0  0  0
   12.7432   -9.1233   -8.1007 S   0  0  0  0  0  0  0  0  0  0  0  0
   13.5594   -8.4300   -9.6051 C   0  0  0  0  0  0  0  0  0  0  0  0
   14.6239   -9.3814  -10.0720 C   0  0  0  0  0  0  0  0  0  0  0  0
   15.2824   -8.9744  -11.3387 C   0  0  2  0  0  0  0  0  0  0  0  0
   16.2948  -10.0093  -11.6684 N   0  0  0  0  0  0  0  0  0  0  0  0
   15.9058   -7.6809  -11.4323 C   0  0  0  0  0  0  0  0  0  0  0  0
   16.9301   -7.4545  -10.6910 O   0  0  0  0  0  0  0  0  0  0  0  0
   17.4650   -5.9372  -14.2214 O   0  0  0  0  0  0  0  0  0  0  0  0
   16.7209   -4.9288  -13.6553 C   0  0  0  0  0  0  0  0  0  0  0  0
   16.2877   -5.3505  -12.2828 C   0  0  2  0  0  0  0  0  0  0  0  0
   15.5584   -6.5760  -12.2452 N   0  0  0  0  0  0  0  0  0  0  0  0
   15.5204   -4.2204  -11.6912 C   0  0  0  0  0  0  0  0  0  0  0  0
   16.1518   -3.0356  -11.3823 O   0  0  0  0  0  0  0  0  0  0  0  0
   14.2806   -4.2883  -11.4478 O   0  0  0  0  0  0  0  0  0  0  0  0
  1  2  1  0
  2  3  1  0
  3 10  1  0
  3  4  2  0
  6  5  1  0
  7  8  1  0
  7  6  1  0
  9  8  1  1
 10  9  1  0
 11  9  1  0
 11 16  1  0
 12 11  2  0
 14 13  1  0
 15 14  1  6
 15 16  1  0
 15 17  1  0
 17 18  1  0
 19 17  2  0
M  END
$$$$
