GMS.pdb
     RDKit          3D

 19 18  0  0  1  0  0  0  0  0999 V2000
   24.2280  -10.2396  -19.2929 N   0  0  0  0  0  0  0  0  0  0  0  0
   23.8076  -10.6638  -17.9950 C   0  0  0  0  0  0  0  0  0  0  0  0
   22.6164   -9.9038  -17.5098 C   0  0  0  0  0  0  0  0  0  0  0  0
   22.2731   -8.8422  -18.1114 O   0  0  0  0  0  0  0  0  0  0  0  0
   16.9555  -13.3535  -16.9866 C   0  0  0  0  0  0  0  0  0  0  0  0
   17.7526  -12.4288  -15.6253 S   0  0  0  0  0  0  0  0  0  0  0  0
   18.9736  -11.3135  -16.4469 C   0  0  0  0  0  0  0  0  0  0  0  0
   19.6714  -10.4904  -15.4019 C   0  0  0  0  0  0  0  0  0  0  0  0
   20.6641   -9.5335  -15.9523 C   0  0  2  0  0  0  0  0  0  0  0  0
   21.8435  -10.3191  -16.3955 N   0  0  0  0  0  0  0  0  0  0  0  0
   21.1245   -8.4399  -15.1383 C   0  0  0  0  0  0  0  0  0  0  0  0
   22.1209   -8.6534  -14.3562 O   0  0  0  0  0  0  0  0  0  0  0  0
   22.9887   -4.5635  -13.9813 O   0  0  0  0  0  0  0  0  0  0  0  0
   22.5317   -5.5645  -14.8062 C   0  0  0  0  0  0  0  0  0  0  0  0
   21.2330   -6.0879  -14.2689 C   0  0  2  0  0  0  0  0  0  0  0  0
   20.6375   -7.1135  -15.0616 N   0  0  0  0  0  0  0  0  0  0  0  0
   20.3262   -4.9222  -14.0826 C   0  0  0  0  0  0  0  0  0  0  0  0
   19.1622   -4.8213  -14.8123 O   0  0  0  0  0  0  0  0  0  0  0  0
   20.5718   -3.9880  -13.2653 O   0  0  0  0  0  0  0  0  0  0  0  0
  1  2  1  0
  2  3  1  0
  3 10  1  0
  3  4  2  0
  6  5  1  0
  7  8  1  0
  7  6  1  0
  9  8  1  1
 10  9  1  0
 11  9  1  0
 11 16  1  0
 12 11  2  0
 14 13  1  0
 15 14  1  6
 15 16  1  0
 15 17  1  0
 17 18  1  0
 19 17  2  0
M  END
$$$$
