GMS.pdb
     RDKit          3D

 19 18  0  0  1  0  0  0  0  0999 V2000
   22.9490  -20.6884  -10.0973 N   0  0  0  0  0  0  0  0  0  0  0  0
   23.7232  -21.4591  -11.0181 C   0  0  0  0  0  0  0  0  0  0  0  0
   24.9543  -20.7392  -11.4632 C   0  0  0  0  0  0  0  0  0  0  0  0
   24.9189  -19.4795  -11.5993 O   0  0  0  0  0  0  0  0  0  0  0  0
   31.5019  -21.5721  -10.9322 C   0  0  0  0  0  0  0  0  0  0  0  0
   30.3252  -21.8998   -9.5715 S   0  0  0  0  0  0  0  0  0  0  0  0
   28.7350  -21.1310  -10.1102 C   0  0  0  0  0  0  0  0  0  0  0  0
   28.5624  -21.3378  -11.5880 C   0  0  0  0  0  0  0  0  0  0  0  0
   27.3795  -20.6462  -12.1591 C   0  0  2  0  0  0  0  0  0  0  0  0
   26.1737  -21.4067  -11.7438 N   0  0  0  0  0  0  0  0  0  0  0  0
   27.3067  -20.4159  -13.5777 C   0  0  0  0  0  0  0  0  0  0  0  0
   26.6825  -21.2806  -14.2937 O   0  0  0  0  0  0  0  0  0  0  0  0
   27.9941  -17.9115  -17.6731 O   0  0  0  0  0  0  0  0  0  0  0  0
   28.1934  -17.9206  -16.3125 C   0  0  0  0  0  0  0  0  0  0  0  0
   27.6349  -19.1911  -15.7437 C   0  0  2  0  0  0  0  0  0  0  0  0
   27.8311  -19.3446  -14.3391 N   0  0  0  0  0  0  0  0  0  0  0  0
   28.2167  -20.3200  -16.5203 C   0  0  0  0  0  0  0  0  0  0  0  0
   27.5893  -20.7802  -17.6570 O   0  0  0  0  0  0  0  0  0  0  0  0
   29.2898  -20.9001  -16.1844 O   0  0  0  0  0  0  0  0  0  0  0  0
  1  2  1  0
  2  3  1  0
  3 10  1  0
  3  4  2  0
  6  5  1  0
  7  8  1  0
  7  6  1  0
  9  8  1  6
 10  9  1  0
 11  9  1  0
 11 16  1  0
 12 11  2  0
 14 13  1  0
 15 14  1  6
 15 16  1  0
 15 17  1  0
 17 18  1  0
 19 17  2  0
M  END
$$$$
