YHL.pdb
     RDKit          3D

 31 32  0  0  1  0  0  0  0  0999 V2000
    8.1667  -12.3327   18.4007 O   0  0  0  0  0  0  0  0  0  0  0  0
    7.9702  -13.1430   19.4944 C   0  0  0  0  0  0  0  0  0  0  0  0
    6.7312  -13.7199   19.7226 C   0  0  0  0  0  0  0  0  0  0  0  0
    6.5177  -14.5376   20.8184 C   0  0  0  0  0  0  0  0  0  0  0  0
    7.5498  -14.7847   21.6984 C   0  0  0  0  0  0  0  0  0  0  0  0
    7.3062  -15.6754   22.8844 C   0  0  0  0  0  0  0  0  0  0  0  0
    7.6871  -17.0786   22.4154 C   0  0  2  0  0  0  0  0  0  0  0  0
    6.5792  -17.9738   22.3561 N   0  0  0  0  0  0  0  0  0  0  0  0
    8.8471  -17.6108   23.1679 C   0  0  0  0  0  0  0  0  0  0  0  0
    8.6936  -18.4633   24.0778 O   0  0  0  0  0  0  0  0  0  0  0  0
    8.7820  -14.1997   21.4550 C   0  0  0  0  0  0  0  0  0  0  0  0
    8.9940  -13.3918   20.3729 C   0  0  0  0  0  0  0  0  0  0  0  0
   10.1727  -17.1928   22.9054 N   0  0  0  0  0  0  0  0  0  0  0  0
   11.3289  -17.7217   23.5939 C   0  0  1  0  0  0  0  0  0  0  0  0
   12.6070  -17.4668   22.8792 C   0  0  0  0  0  0  0  0  0  0  0  0
   12.6244  -18.0564   21.5199 C   0  0  0  0  0  0  0  0  0  0  0  0
   11.7960  -19.0604   21.0221 C   0  0  0  0  0  0  0  0  0  0  0  0
   12.1113  -19.3323   19.7459 N   0  0  0  0  0  0  0  0  0  0  0  0
   13.1246  -18.5187   19.4260 C   0  0  0  0  0  0  0  0  0  0  0  0
   13.4373  -17.7524   20.4818 N   0  0  0  0  0  0  0  0  0  0  0  0
   11.3701  -17.2365   25.0167 C   0  0  0  0  0  0  0  0  0  0  0  0
   12.2958  -17.5769   25.7900 O   0  0  0  0  0  0  0  0  0  0  0  0
    8.4491  -12.8418   28.0951 C   0  0  0  0  0  0  0  0  0  0  0  0
    9.4255  -13.9666   28.1833 C   0  0  2  0  0  0  0  0  0  0  0  0
   10.7751  -13.4803   28.7269 C   0  0  0  0  0  0  0  0  0  0  0  0
    9.6382  -14.6474   26.8880 C   0  0  0  0  0  0  0  0  0  0  0  0
   10.3417  -15.9431   26.8611 C   0  0  2  0  0  0  0  0  0  0  0  0
   10.3198  -16.3857   25.4286 N   0  0  0  0  0  0  0  0  0  0  0  0
   10.0173  -17.0532   27.7000 C   0  0  0  0  0  0  0  0  0  0  0  0
   10.5920  -17.4538   28.8984 O   0  0  0  0  0  0  0  0  0  0  0  0
    9.0568  -17.8399   27.3278 O   0  0  0  0  0  0  0  0  0  0  0  0
  1  2  1  0
  2 12  2  0
  3  2  1  0
  3  4  2  0
  4  5  1  0
  5 11  2  0
  5  6  1  0
  7  6  1  0
  7  8  1  1
  9  7  1  0
 10  9  2  0
 12 11  1  0
 13  9  1  0
 14 13  1  0
 14 15  1  6
 16 15  1  0
 17 16  2  0
 18 17  1  0
 19 18  1  0
 19 20  2  0
 20 16  1  0
 21 14  1  0
 21 28  1  0
 22 21  2  0
 24 23  1  6
 24 26  1  0
 24 25  1  0
 27 26  1  6
 27 28  1  0
 27 29  1  0
 29 31  2  0
 29 30  1  0
M  END
$$$$
