YHL.pdb
     RDKit          3D

 31 32  0  0  1  0  0  0  0  0999 V2000
    5.8203  -23.4806   29.0838 O   0  0  0  0  0  0  0  0  0  0  0  0
    6.1263  -22.3700   28.3326 C   0  0  0  0  0  0  0  0  0  0  0  0
    5.3673  -22.0496   27.2185 C   0  0  0  0  0  0  0  0  0  0  0  0
    5.6623  -20.9355   26.4525 C   0  0  0  0  0  0  0  0  0  0  0  0
    6.7260  -20.1297   26.7992 C   0  0  0  0  0  0  0  0  0  0  0  0
    7.0359  -18.9217   25.9602 C   0  0  0  0  0  0  0  0  0  0  0  0
    7.3231  -19.4684   24.5629 C   0  0  2  0  0  0  0  0  0  0  0  0
    8.0728  -20.6809   24.5746 N   0  0  0  0  0  0  0  0  0  0  0  0
    7.8845  -18.4260   23.6722 C   0  0  0  0  0  0  0  0  0  0  0  0
    9.1016  -18.4261   23.3611 O   0  0  0  0  0  0  0  0  0  0  0  0
    7.4742  -20.4648   27.9161 C   0  0  0  0  0  0  0  0  0  0  0  0
    7.1836  -21.5651   28.6734 C   0  0  0  0  0  0  0  0  0  0  0  0
    7.0901  -17.3880   23.1315 N   0  0  0  0  0  0  0  0  0  0  0  0
    7.6371  -16.2265   22.4664 C   0  0  1  0  0  0  0  0  0  0  0  0
    6.6423  -15.5037   21.6314 C   0  0  0  0  0  0  0  0  0  0  0  0
    7.2251  -14.3260   20.9465 C   0  0  0  0  0  0  0  0  0  0  0  0
    8.3816  -14.2849   20.1700 C   0  0  0  0  0  0  0  0  0  0  0  0
    8.5916  -13.0393   19.7155 N   0  0  0  0  0  0  0  0  0  0  0  0
    7.5891  -12.2905   20.1899 C   0  0  0  0  0  0  0  0  0  0  0  0
    6.7675  -13.0528   20.9273 N   0  0  0  0  0  0  0  0  0  0  0  0
    8.3144  -15.3167   23.4539 C   0  0  0  0  0  0  0  0  0  0  0  0
    8.9796  -14.3261   23.0703 O   0  0  0  0  0  0  0  0  0  0  0  0
    7.1676  -12.0835   25.4834 C   0  0  0  0  0  0  0  0  0  0  0  0
    6.6750  -13.3794   26.0351 C   0  0  2  0  0  0  0  0  0  0  0  0
    5.5607  -13.1496   27.0641 C   0  0  0  0  0  0  0  0  0  0  0  0
    7.7486  -14.1882   26.6513 C   0  0  0  0  0  0  0  0  0  0  0  0
    8.8301  -14.7191   25.8010 C   0  0  2  0  0  0  0  0  0  0  0  0
    8.1613  -15.6366   24.8216 N   0  0  0  0  0  0  0  0  0  0  0  0
   10.0123  -15.3472   26.3002 C   0  0  0  0  0  0  0  0  0  0  0  0
   11.1102  -14.7859   26.9376 O   0  0  0  0  0  0  0  0  0  0  0  0
   10.1312  -16.6295   26.1532 O   0  0  0  0  0  0  0  0  0  0  0  0
  1  2  1  0
  2 12  2  0
  3  2  1  0
  3  4  2  0
  4  5  1  0
  5 11  2  0
  5  6  1  0
  7  6  1  0
  7  8  1  1
  9  7  1  0
 10  9  2  0
 12 11  1  0
 13  9  1  0
 14 13  1  0
 14 15  1  1
 16 15  1  0
 17 16  2  0
 18 17  1  0
 19 18  1  0
 19 20  2  0
 20 16  1  0
 21 14  1  0
 21 28  1  0
 22 21  2  0
 24 23  1  1
 24 26  1  0
 24 25  1  0
 27 26  1  1
 27 28  1  0
 27 29  1  0
 29 31  2  0
 29 30  1  0
M  END
$$$$
