YHL.pdb
     RDKit          3D

 31 32  0  0  1  0  0  0  0  0999 V2000
    8.5303  -12.1337   16.4526 O   0  0  0  0  0  0  0  0  0  0  0  0
    8.2051  -12.7296   17.6487 C   0  0  0  0  0  0  0  0  0  0  0  0
    6.9581  -13.3075   17.8248 C   0  0  0  0  0  0  0  0  0  0  0  0
    6.6160  -13.9110   19.0221 C   0  0  0  0  0  0  0  0  0  0  0  0
    7.5259  -13.9402   20.0575 C   0  0  0  0  0  0  0  0  0  0  0  0
    7.1432  -14.5996   21.3529 C   0  0  0  0  0  0  0  0  0  0  0  0
    7.5917  -16.0530   21.2094 C   0  0  2  0  0  0  0  0  0  0  0  0
    6.7635  -16.8152   20.3345 N   0  0  0  0  0  0  0  0  0  0  0  0
    7.8145  -16.6896   22.5285 C   0  0  0  0  0  0  0  0  0  0  0  0
    6.9073  -17.3534   23.0894 O   0  0  0  0  0  0  0  0  0  0  0  0
    8.7680  -13.3576   19.8642 C   0  0  0  0  0  0  0  0  0  0  0  0
    9.1070  -12.7611   18.6818 C   0  0  0  0  0  0  0  0  0  0  0  0
    9.0451  -16.5853   23.2183 N   0  0  0  0  0  0  0  0  0  0  0  0
    9.2728  -17.1379   24.5349 C   0  0  1  0  0  0  0  0  0  0  0  0
   10.1726  -18.3209   24.5290 C   0  0  0  0  0  0  0  0  0  0  0  0
   10.3360  -18.9164   25.8759 C   0  0  0  0  0  0  0  0  0  0  0  0
    9.6891  -18.5404   27.0517 C   0  0  0  0  0  0  0  0  0  0  0  0
   10.0958  -19.3118   28.0724 N   0  0  0  0  0  0  0  0  0  0  0  0
   10.9886  -20.1697   27.5646 C   0  0  0  0  0  0  0  0  0  0  0  0
   11.1378  -19.9395   26.2513 N   0  0  0  0  0  0  0  0  0  0  0  0
    9.7453  -16.0726   25.4855 C   0  0  0  0  0  0  0  0  0  0  0  0
   10.8359  -15.4819   25.3051 O   0  0  0  0  0  0  0  0  0  0  0  0
    7.8618  -12.4274   25.7916 C   0  0  0  0  0  0  0  0  0  0  0  0
    7.1740  -13.4189   26.6692 C   0  0  2  0  0  0  0  0  0  0  0  0
    5.8910  -12.8264   27.2661 C   0  0  0  0  0  0  0  0  0  0  0  0
    8.0364  -13.9158   27.7627 C   0  0  0  0  0  0  0  0  0  0  0  0
    9.2956  -14.6077   27.4306 C   0  0  2  0  0  0  0  0  0  0  0  0
    8.9019  -15.7782   26.5802 N   0  0  0  0  0  0  0  0  0  0  0  0
   10.2599  -15.0321   28.3955 C   0  0  0  0  0  0  0  0  0  0  0  0
   11.1571  -14.2786   29.1399 O   0  0  0  0  0  0  0  0  0  0  0  0
   10.3586  -16.3006   28.6433 O   0  0  0  0  0  0  0  0  0  0  0  0
  1  2  1  0
  2 12  2  0
  3  2  1  0
  3  4  2  0
  4  5  1  0
  5 11  2  0
  5  6  1  0
  7  6  1  0
  7  8  1  1
  9  7  1  0
 10  9  2  0
 12 11  1  0
 13  9  1  0
 14 13  1  0
 14 15  1  6
 16 15  1  0
 17 16  2  0
 18 17  1  0
 19 18  1  0
 19 20  2  0
 20 16  1  0
 21 14  1  0
 21 28  1  0
 22 21  2  0
 24 23  1  1
 24 26  1  0
 24 25  1  0
 27 26  1  1
 27 28  1  0
 27 29  1  0
 29 31  2  0
 29 30  1  0
M  END
$$$$
