YHL.pdb
     RDKit          3D

 31 32  0  0  1  0  0  0  0  0999 V2000
    8.2391  -12.2654   16.4554 O   0  0  0  0  0  0  0  0  0  0  0  0
    8.0263  -12.7846   17.7110 C   0  0  0  0  0  0  0  0  0  0  0  0
    6.7679  -13.2347   18.0766 C   0  0  0  0  0  0  0  0  0  0  0  0
    6.5379  -13.7599   19.3360 C   0  0  0  0  0  0  0  0  0  0  0  0
    7.5729  -13.8385   20.2434 C   0  0  0  0  0  0  0  0  0  0  0  0
    7.3112  -14.4120   21.6079 C   0  0  0  0  0  0  0  0  0  0  0  0
    7.4931  -15.9205   21.4492 C   0  0  2  0  0  0  0  0  0  0  0  0
    6.4317  -16.5442   20.7304 N   0  0  0  0  0  0  0  0  0  0  0  0
    7.8048  -16.5730   22.7423 C   0  0  0  0  0  0  0  0  0  0  0  0
    6.8928  -16.8810   23.5495 O   0  0  0  0  0  0  0  0  0  0  0  0
    8.8247  -13.3839   19.8612 C   0  0  0  0  0  0  0  0  0  0  0  0
    9.0530  -12.8649   18.6173 C   0  0  0  0  0  0  0  0  0  0  0  0
    9.1294  -16.8802   23.1323 N   0  0  0  0  0  0  0  0  0  0  0  0
    9.4793  -17.3970   24.4365 C   0  0  1  0  0  0  0  0  0  0  0  0
   10.4732  -18.5010   24.3849 C   0  0  0  0  0  0  0  0  0  0  0  0
   10.7580  -19.0712   25.7225 C   0  0  0  0  0  0  0  0  0  0  0  0
   11.9639  -19.0321   26.4200 C   0  0  0  0  0  0  0  0  0  0  0  0
   11.8373  -19.6566   27.6015 N   0  0  0  0  0  0  0  0  0  0  0  0
   10.5731  -20.0907   27.6653 C   0  0  0  0  0  0  0  0  0  0  0  0
    9.9210  -19.7445   26.5451 N   0  0  0  0  0  0  0  0  0  0  0  0
    9.9157  -16.2854   25.3507 C   0  0  0  0  0  0  0  0  0  0  0  0
   10.8600  -15.5232   25.0375 O   0  0  0  0  0  0  0  0  0  0  0  0
    8.7665  -12.5707   25.6615 C   0  0  0  0  0  0  0  0  0  0  0  0
    7.9075  -13.5875   26.3360 C   0  0  2  0  0  0  0  0  0  0  0  0
    6.5229  -13.0101   26.6569 C   0  0  0  0  0  0  0  0  0  0  0  0
    8.5123  -14.1215   27.5751 C   0  0  0  0  0  0  0  0  0  0  0  0
    9.6575  -15.0456   27.4786 C   0  0  2  0  0  0  0  0  0  0  0  0
    9.2108  -16.1497   26.5676 N   0  0  0  0  0  0  0  0  0  0  0  0
   10.3337  -15.6102   28.6034 C   0  0  0  0  0  0  0  0  0  0  0  0
   11.2246  -15.0184   29.4882 O   0  0  0  0  0  0  0  0  0  0  0  0
   10.1261  -16.8601   28.8765 O   0  0  0  0  0  0  0  0  0  0  0  0
  1  2  1  0
  2 12  2  0
  3  2  1  0
  3  4  2  0
  4  5  1  0
  5 11  2  0
  5  6  1  0
  7  6  1  0
  7  8  1  1
  9  7  1  0
 10  9  2  0
 12 11  1  0
 13  9  1  0
 14 13  1  0
 14 15  1  6
 16 15  1  0
 17 16  2  0
 18 17  1  0
 19 18  1  0
 19 20  2  0
 20 16  1  0
 21 14  1  0
 21 28  1  0
 22 21  2  0
 24 23  1  1
 24 26  1  0
 24 25  1  0
 27 26  1  1
 27 28  1  0
 27 29  1  0
 29 31  2  0
 29 30  1  0
M  END
$$$$
