YHL.pdb
     RDKit          3D

 31 32  0  0  1  0  0  0  0  0999 V2000
    8.0665  -12.0538   16.7466 O   0  0  0  0  0  0  0  0  0  0  0  0
    7.9963  -12.7001   17.9585 C   0  0  0  0  0  0  0  0  0  0  0  0
    9.1453  -12.9166   18.7021 C   0  0  0  0  0  0  0  0  0  0  0  0
    9.0912  -13.5651   19.9233 C   0  0  0  0  0  0  0  0  0  0  0  0
    7.8787  -14.0038   20.4113 C   0  0  0  0  0  0  0  0  0  0  0  0
    7.8323  -14.7059   21.7395 C   0  0  0  0  0  0  0  0  0  0  0  0
    8.1312  -16.1713   21.4277 C   0  0  2  0  0  0  0  0  0  0  0  0
    7.1779  -16.7674   20.5513 N   0  0  0  0  0  0  0  0  0  0  0  0
    8.3814  -16.9531   22.6612 C   0  0  0  0  0  0  0  0  0  0  0  0
    7.4363  -17.4897   23.2913 O   0  0  0  0  0  0  0  0  0  0  0  0
    6.7399  -13.7789   19.6548 C   0  0  0  0  0  0  0  0  0  0  0  0
    6.7922  -13.1384   18.4483 C   0  0  0  0  0  0  0  0  0  0  0  0
    9.6813  -17.1346   23.1886 N   0  0  0  0  0  0  0  0  0  0  0  0
    9.9556  -17.8686   24.4038 C   0  0  1  0  0  0  0  0  0  0  0  0
   10.9072  -18.9938   24.2095 C   0  0  0  0  0  0  0  0  0  0  0  0
   11.2002  -19.7133   25.4713 C   0  0  0  0  0  0  0  0  0  0  0  0
   12.3139  -19.5589   26.2947 C   0  0  0  0  0  0  0  0  0  0  0  0
   12.2292  -20.3845   27.3499 N   0  0  0  0  0  0  0  0  0  0  0  0
   11.0820  -21.0592   27.2099 C   0  0  0  0  0  0  0  0  0  0  0  0
   10.4607  -20.6635   26.0886 N   0  0  0  0  0  0  0  0  0  0  0  0
   10.3960  -16.9383   25.5003 C   0  0  0  0  0  0  0  0  0  0  0  0
   11.4444  -16.2603   25.3914 O   0  0  0  0  0  0  0  0  0  0  0  0
    9.8511  -13.0010   26.5106 C   0  0  0  0  0  0  0  0  0  0  0  0
    8.8138  -14.0552   26.7087 C   0  0  2  0  0  0  0  0  0  0  0  0
    7.4178  -13.4333   26.8421 C   0  0  0  0  0  0  0  0  0  0  0  0
    9.0805  -14.9118   27.8841 C   0  0  0  0  0  0  0  0  0  0  0  0
   10.0604  -16.0079   27.7705 C   0  0  2  0  0  0  0  0  0  0  0  0
    9.5723  -16.8720   26.6464 N   0  0  0  0  0  0  0  0  0  0  0  0
   10.4682  -16.8395   28.8583 C   0  0  0  0  0  0  0  0  0  0  0  0
   10.3473  -18.2134   29.0149 O   0  0  0  0  0  0  0  0  0  0  0  0
   11.0322  -16.2756   29.8800 O   0  0  0  0  0  0  0  0  0  0  0  0
  1  2  1  0
  2 12  2  0
  3  2  1  0
  3  4  2  0
  4  5  1  0
  5 11  2  0
  5  6  1  0
  7  6  1  0
  7  8  1  1
  9  7  1  0
 10  9  2  0
 12 11  1  0
 13  9  1  0
 14 13  1  0
 14 15  1  6
 16 15  1  0
 17 16  2  0
 18 17  1  0
 19 18  1  0
 19 20  2  0
 20 16  1  0
 21 14  1  0
 21 28  1  0
 22 21  2  0
 24 23  1  1
 24 26  1  0
 24 25  1  0
 27 26  1  1
 27 28  1  0
 27 29  1  0
 29 31  2  0
 29 30  1  0
M  END
$$$$
