YHL.pdb
     RDKit          3D

 31 32  0  0  1  0  0  0  0  0999 V2000
    7.6104  -12.0324   16.6280 O   0  0  0  0  0  0  0  0  0  0  0  0
    7.7041  -12.7051   17.8239 C   0  0  0  0  0  0  0  0  0  0  0  0
    6.6445  -13.4741   18.2775 C   0  0  0  0  0  0  0  0  0  0  0  0
    6.7234  -14.1569   19.4785 C   0  0  0  0  0  0  0  0  0  0  0  0
    7.8711  -14.0739   20.2380 C   0  0  0  0  0  0  0  0  0  0  0  0
    7.9455  -14.8210   21.5401 C   0  0  0  0  0  0  0  0  0  0  0  0
    8.7889  -16.0596   21.2427 C   0  0  2  0  0  0  0  0  0  0  0  0
    8.2373  -16.8855   20.2200 N   0  0  0  0  0  0  0  0  0  0  0  0
    9.1387  -16.7936   22.4812 C   0  0  0  0  0  0  0  0  0  0  0  0
    8.3296  -17.5966   23.0092 O   0  0  0  0  0  0  0  0  0  0  0  0
    8.9208  -13.3005   19.7693 C   0  0  0  0  0  0  0  0  0  0  0  0
    8.8439  -12.6255   18.5831 C   0  0  0  0  0  0  0  0  0  0  0  0
   10.3866  -16.6315   23.1273 N   0  0  0  0  0  0  0  0  0  0  0  0
   10.7321  -17.2796   24.3728 C   0  0  1  0  0  0  0  0  0  0  0  0
   11.8762  -18.2203   24.2490 C   0  0  0  0  0  0  0  0  0  0  0  0
   11.6122  -19.3107   23.2810 C   0  0  0  0  0  0  0  0  0  0  0  0
   12.0010  -19.3682   21.9440 C   0  0  0  0  0  0  0  0  0  0  0  0
   11.5788  -20.5141   21.3866 N   0  0  0  0  0  0  0  0  0  0  0  0
   10.9296  -21.1838   22.3462 C   0  0  0  0  0  0  0  0  0  0  0  0
   10.9451  -20.4705   23.4824 N   0  0  0  0  0  0  0  0  0  0  0  0
   10.9505  -16.2634   25.4596 C   0  0  0  0  0  0  0  0  0  0  0  0
   11.8469  -15.3930   25.3610 O   0  0  0  0  0  0  0  0  0  0  0  0
    8.3003  -13.3972   25.4578 C   0  0  0  0  0  0  0  0  0  0  0  0
    8.3860  -14.1516   26.7424 C   0  0  2  0  0  0  0  0  0  0  0  0
    7.3747  -13.6140   27.7630 C   0  0  0  0  0  0  0  0  0  0  0  0
    9.7397  -14.1248   27.3366 C   0  0  0  0  0  0  0  0  0  0  0  0
   10.3890  -15.3952   27.7097 C   0  0  2  0  0  0  0  0  0  0  0  0
   10.0994  -16.3432   26.5846 N   0  0  0  0  0  0  0  0  0  0  0  0
   10.1868  -16.0679   28.9538 C   0  0  0  0  0  0  0  0  0  0  0  0
    9.7258  -17.3540   29.1990 O   0  0  0  0  0  0  0  0  0  0  0  0
   10.4494  -15.4226   30.0468 O   0  0  0  0  0  0  0  0  0  0  0  0
  1  2  1  0
  2 12  2  0
  3  2  1  0
  3  4  2  0
  4  5  1  0
  5 11  2  0
  5  6  1  0
  7  6  1  0
  7  8  1  6
  9  7  1  0
 10  9  2  0
 12 11  1  0
 13  9  1  0
 14 13  1  0
 14 15  1  6
 16 15  1  0
 17 16  2  0
 18 17  1  0
 19 18  1  0
 19 20  2  0
 20 16  1  0
 21 14  1  0
 21 28  1  0
 22 21  2  0
 24 23  1  6
 24 26  1  0
 24 25  1  0
 27 26  1  1
 27 28  1  0
 27 29  1  0
 29 31  2  0
 29 30  1  0
M  END
$$$$
