YHL.pdb
     RDKit          3D

 31 32  0  0  1  0  0  0  0  0999 V2000
    3.4979  -23.3508   21.9469 O   0  0  0  0  0  0  0  0  0  0  0  0
    4.3600  -22.3052   22.1811 C   0  0  0  0  0  0  0  0  0  0  0  0
    4.2708  -21.5762   23.3560 C   0  0  0  0  0  0  0  0  0  0  0  0
    5.1310  -20.5215   23.6064 C   0  0  0  0  0  0  0  0  0  0  0  0
    6.0923  -20.1877   22.6762 C   0  0  0  0  0  0  0  0  0  0  0  0
    7.0216  -19.0410   22.9599 C   0  0  0  0  0  0  0  0  0  0  0  0
    7.5430  -18.6013   21.5928 C   0  0  2  0  0  0  0  0  0  0  0  0
    8.1615  -19.6556   20.8591 N   0  0  0  0  0  0  0  0  0  0  0  0
    8.3691  -17.3753   21.6907 C   0  0  0  0  0  0  0  0  0  0  0  0
    9.6228  -17.4322   21.6340 O   0  0  0  0  0  0  0  0  0  0  0  0
    6.1674  -20.9272   21.5069 C   0  0  0  0  0  0  0  0  0  0  0  0
    5.3182  -21.9692   21.2586 C   0  0  0  0  0  0  0  0  0  0  0  0
    7.7976  -16.0914   21.8513 N   0  0  0  0  0  0  0  0  0  0  0  0
    8.5749  -14.8750   21.9342 C   0  0  1  0  0  0  0  0  0  0  0  0
    7.9625  -13.7345   21.2038 C   0  0  0  0  0  0  0  0  0  0  0  0
    8.0270  -13.9022   19.7330 C   0  0  0  0  0  0  0  0  0  0  0  0
    7.5576  -13.0225   18.7594 C   0  0  0  0  0  0  0  0  0  0  0  0
    7.7942  -13.5170   17.5340 N   0  0  0  0  0  0  0  0  0  0  0  0
    8.4050  -14.6940   17.7135 C   0  0  0  0  0  0  0  0  0  0  0  0
    8.5480  -14.9316   19.0261 N   0  0  0  0  0  0  0  0  0  0  0  0
    8.8772  -14.5323   23.3669 C   0  0  0  0  0  0  0  0  0  0  0  0
    9.4003  -13.4354   23.6733 O   0  0  0  0  0  0  0  0  0  0  0  0
    5.6866  -12.7497   26.9974 C   0  0  0  0  0  0  0  0  0  0  0  0
    7.0629  -13.3246   27.0370 C   0  0  2  0  0  0  0  0  0  0  0  0
    8.0916  -12.2587   27.4358 C   0  0  0  0  0  0  0  0  0  0  0  0
    7.4681  -13.9373   25.7537 C   0  0  0  0  0  0  0  0  0  0  0  0
    8.4596  -15.0288   25.7567 C   0  0  2  0  0  0  0  0  0  0  0  0
    8.5429  -15.5038   24.3369 N   0  0  0  0  0  0  0  0  0  0  0  0
    8.4091  -16.1603   26.6276 C   0  0  0  0  0  0  0  0  0  0  0  0
    9.0846  -16.3909   27.8181 O   0  0  0  0  0  0  0  0  0  0  0  0
    7.6401  -17.1505   26.2985 O   0  0  0  0  0  0  0  0  0  0  0  0
  1  2  1  0
  2 12  2  0
  3  2  1  0
  3  4  2  0
  4  5  1  0
  5 11  2  0
  5  6  1  0
  7  6  1  0
  7  8  1  1
  9  7  1  0
 10  9  2  0
 12 11  1  0
 13  9  1  0
 14 13  1  0
 14 15  1  1
 16 15  1  0
 17 16  2  0
 18 17  1  0
 19 18  1  0
 19 20  2  0
 20 16  1  0
 21 14  1  0
 21 28  1  0
 22 21  2  0
 24 23  1  6
 24 26  1  0
 24 25  1  0
 27 26  1  6
 27 28  1  0
 27 29  1  0
 29 31  2  0
 29 30  1  0
M  END
$$$$
