YHL.pdb
     RDKit          3D

 31 32  0  0  1  0  0  0  0  0999 V2000
    7.8755  -11.9667   16.4722 O   0  0  0  0  0  0  0  0  0  0  0  0
    7.8401  -12.7827   17.5786 C   0  0  0  0  0  0  0  0  0  0  0  0
    9.0183  -13.2283   18.1558 C   0  0  0  0  0  0  0  0  0  0  0  0
    8.9992  -14.0496   19.2694 C   0  0  0  0  0  0  0  0  0  0  0  0
    7.7928  -14.4326   19.8158 C   0  0  0  0  0  0  0  0  0  0  0  0
    7.7848  -15.3240   21.0260 C   0  0  0  0  0  0  0  0  0  0  0  0
    9.2526  -15.4722   21.4230 C   0  0  2  0  0  0  0  0  0  0  0  0
   10.1035  -15.7980   20.3266 N   0  0  0  0  0  0  0  0  0  0  0  0
    9.4153  -16.3662   22.5933 C   0  0  0  0  0  0  0  0  0  0  0  0
    8.6051  -16.3319   23.5527 O   0  0  0  0  0  0  0  0  0  0  0  0
    6.6245  -13.9779   19.2260 C   0  0  0  0  0  0  0  0  0  0  0  0
    6.6421  -13.1665   18.1259 C   0  0  0  0  0  0  0  0  0  0  0  0
   10.4782  -17.2944   22.6914 N   0  0  0  0  0  0  0  0  0  0  0  0
   10.7529  -18.0725   23.8788 C   0  0  1  0  0  0  0  0  0  0  0  0
   11.8238  -19.0847   23.6843 C   0  0  0  0  0  0  0  0  0  0  0  0
   11.4295  -20.1530   22.7363 C   0  0  0  0  0  0  0  0  0  0  0  0
   10.1583  -20.4015   22.2222 C   0  0  0  0  0  0  0  0  0  0  0  0
   10.1912  -21.4561   21.3921 N   0  0  0  0  0  0  0  0  0  0  0  0
   11.4602  -21.8802   21.3710 C   0  0  0  0  0  0  0  0  0  0  0  0
   12.2072  -21.1060   22.1725 N   0  0  0  0  0  0  0  0  0  0  0  0
   11.0303  -17.1739   25.0524 C   0  0  0  0  0  0  0  0  0  0  0  0
   11.9466  -16.3199   25.0110 O   0  0  0  0  0  0  0  0  0  0  0  0
    8.3943  -13.3709   28.2310 C   0  0  0  0  0  0  0  0  0  0  0  0
    9.5155  -14.3451   28.3730 C   0  0  2  0  0  0  0  0  0  0  0  0
   10.8684  -13.6228   28.4113 C   0  0  0  0  0  0  0  0  0  0  0  0
    9.5353  -15.3609   27.2988 C   0  0  0  0  0  0  0  0  0  0  0  0
   10.5110  -16.4644   27.3673 C   0  0  2  0  0  0  0  0  0  0  0  0
   10.2106  -17.3439   26.1906 N   0  0  0  0  0  0  0  0  0  0  0  0
   10.7242  -17.2805   28.5205 C   0  0  0  0  0  0  0  0  0  0  0  0
   11.6583  -17.1464   29.5385 O   0  0  0  0  0  0  0  0  0  0  0  0
    9.9649  -18.3184   28.6831 O   0  0  0  0  0  0  0  0  0  0  0  0
  1  2  1  0
  2 12  2  0
  3  2  1  0
  3  4  2  0
  4  5  1  0
  5 11  2  0
  5  6  1  0
  7  6  1  0
  7  8  1  6
  9  7  1  0
 10  9  2  0
 12 11  1  0
 13  9  1  0
 14 13  1  0
 14 15  1  6
 16 15  1  0
 17 16  2  0
 18 17  1  0
 19 18  1  0
 19 20  2  0
 20 16  1  0
 21 14  1  0
 21 28  1  0
 22 21  2  0
 24 23  1  6
 24 26  1  0
 24 25  1  0
 27 26  1  1
 27 28  1  0
 27 29  1  0
 29 31  2  0
 29 30  1  0
M  END
$$$$
