YHL.pdb
     RDKit          3D

 31 32  0  0  1  0  0  0  0  0999 V2000
   10.5683  -15.4993   31.4852 O   0  0  0  0  0  0  0  0  0  0  0  0
   10.4355  -15.4865   30.1164 C   0  0  0  0  0  0  0  0  0  0  0  0
   10.3546  -14.2834   29.4338 C   0  0  0  0  0  0  0  0  0  0  0  0
   10.2209  -14.2539   28.0567 C   0  0  0  0  0  0  0  0  0  0  0  0
   10.1672  -15.4363   27.3496 C   0  0  0  0  0  0  0  0  0  0  0  0
   10.0231  -15.3915   25.8541 C   0  0  0  0  0  0  0  0  0  0  0  0
   11.1729  -16.2415   25.3161 C   0  0  2  0  0  0  0  0  0  0  0  0
   12.4496  -15.8390   25.8066 N   0  0  0  0  0  0  0  0  0  0  0  0
   11.1125  -16.3732   23.8416 C   0  0  0  0  0  0  0  0  0  0  0  0
   11.5513  -15.4663   23.0913 O   0  0  0  0  0  0  0  0  0  0  0  0
   10.2496  -16.6300   28.0481 C   0  0  0  0  0  0  0  0  0  0  0  0
   10.3816  -16.6603   29.4084 C   0  0  0  0  0  0  0  0  0  0  0  0
   10.5644  -17.5130   23.2079 N   0  0  0  0  0  0  0  0  0  0  0  0
   10.3771  -17.6201   21.7782 C   0  0  1  0  0  0  0  0  0  0  0  0
   10.7731  -18.9439   21.2304 C   0  0  0  0  0  0  0  0  0  0  0  0
   10.5640  -19.0379   19.7666 C   0  0  0  0  0  0  0  0  0  0  0  0
   11.3624  -18.4962   18.7610 C   0  0  0  0  0  0  0  0  0  0  0  0
   10.8526  -18.7902   17.5544 N   0  0  0  0  0  0  0  0  0  0  0  0
    9.7455  -19.5083   17.7773 C   0  0  0  0  0  0  0  0  0  0  0  0
    9.5660  -19.6607   19.0980 N   0  0  0  0  0  0  0  0  0  0  0  0
    8.9714  -17.2473   21.3955 C   0  0  0  0  0  0  0  0  0  0  0  0
    7.9983  -17.5635   22.1192 O   0  0  0  0  0  0  0  0  0  0  0  0
    7.3661  -13.6703   21.5455 C   0  0  0  0  0  0  0  0  0  0  0  0
    8.0384  -13.8005   20.2198 C   0  0  2  0  0  0  0  0  0  0  0  0
    8.0695  -12.4538   19.4858 C   0  0  0  0  0  0  0  0  0  0  0  0
    7.4053  -14.8152   19.3504 C   0  0  0  0  0  0  0  0  0  0  0  0
    7.4013  -16.2274   19.7748 C   0  0  2  0  0  0  0  0  0  0  0  0
    8.8103  -16.5294   20.1892 N   0  0  0  0  0  0  0  0  0  0  0  0
    6.9048  -17.3058   18.9799 C   0  0  0  0  0  0  0  0  0  0  0  0
    7.5565  -18.4458   18.5298 O   0  0  0  0  0  0  0  0  0  0  0  0
    5.6708  -17.2569   18.5865 O   0  0  0  0  0  0  0  0  0  0  0  0
  1  2  1  0
  2 12  2  0
  3  2  1  0
  3  4  2  0
  4  5  1  0
  5 11  2  0
  5  6  1  0
  7  6  1  0
  7  8  1  6
  9  7  1  0
 10  9  2  0
 12 11  1  0
 13  9  1  0
 14 13  1  0
 14 15  1  1
 16 15  1  0
 17 16  2  0
 18 17  1  0
 19 18  1  0
 19 20  2  0
 20 16  1  0
 21 14  1  0
 21 28  1  0
 22 21  2  0
 24 23  1  1
 24 26  1  0
 24 25  1  0
 27 26  1  6
 27 28  1  0
 27 29  1  0
 29 31  2  0
 29 30  1  0
M  END
$$$$
