YHL.pdb
     RDKit          3D

 31 32  0  0  1  0  0  0  0  0999 V2000
    9.8480  -18.7816   29.1114 O   0  0  0  0  0  0  0  0  0  0  0  0
    8.8596  -18.7430   28.1560 C   0  0  0  0  0  0  0  0  0  0  0  0
    8.1702  -19.8963   27.8173 C   0  0  0  0  0  0  0  0  0  0  0  0
    7.1730  -19.8738   26.8582 C   0  0  0  0  0  0  0  0  0  0  0  0
    6.8575  -18.6889   26.2278 C   0  0  0  0  0  0  0  0  0  0  0  0
    5.7717  -18.6768   25.1885 C   0  0  0  0  0  0  0  0  0  0  0  0
    6.4171  -19.2528   23.9293 C   0  0  2  0  0  0  0  0  0  0  0  0
    7.1273  -20.4664   24.1641 N   0  0  0  0  0  0  0  0  0  0  0  0
    7.2036  -18.2302   23.2008 C   0  0  0  0  0  0  0  0  0  0  0  0
    8.4403  -18.3663   23.0268 O   0  0  0  0  0  0  0  0  0  0  0  0
    7.5567  -17.5455   26.5786 C   0  0  0  0  0  0  0  0  0  0  0  0
    8.5420  -17.5666   27.5259 C   0  0  0  0  0  0  0  0  0  0  0  0
    6.6116  -17.0608   22.6690 N   0  0  0  0  0  0  0  0  0  0  0  0
    7.3518  -16.0428   21.9573 C   0  0  1  0  0  0  0  0  0  0  0  0
    6.6051  -15.4674   20.8082 C   0  0  0  0  0  0  0  0  0  0  0  0
    7.4132  -14.4945   20.0362 C   0  0  0  0  0  0  0  0  0  0  0  0
    7.4222  -13.1073   20.1693 C   0  0  0  0  0  0  0  0  0  0  0  0
    8.2834  -12.5626   19.2953 N   0  0  0  0  0  0  0  0  0  0  0  0
    8.8202  -13.5796   18.6109 C   0  0  0  0  0  0  0  0  0  0  0  0
    8.3048  -14.7385   19.0481 N   0  0  0  0  0  0  0  0  0  0  0  0
    7.8409  -14.9805   22.9029 C   0  0  0  0  0  0  0  0  0  0  0  0
    7.6072  -13.7677   22.6903 O   0  0  0  0  0  0  0  0  0  0  0  0
    5.9945  -12.9462   27.1471 C   0  0  0  0  0  0  0  0  0  0  0  0
    7.3463  -12.8695   26.5201 C   0  0  2  0  0  0  0  0  0  0  0  0
    7.6651  -11.4359   26.0769 C   0  0  0  0  0  0  0  0  0  0  0  0
    7.4985  -13.7819   25.3665 C   0  0  0  0  0  0  0  0  0  0  0  0
    8.8096  -14.4053   25.1080 C   0  0  2  0  0  0  0  0  0  0  0  0
    8.5697  -15.4202   24.0306 N   0  0  0  0  0  0  0  0  0  0  0  0
    9.6409  -14.9806   26.1176 C   0  0  0  0  0  0  0  0  0  0  0  0
    9.5251  -16.2007   26.7693 O   0  0  0  0  0  0  0  0  0  0  0  0
   10.6639  -14.2987   26.5281 O   0  0  0  0  0  0  0  0  0  0  0  0
  1  2  1  0
  2 12  2  0
  3  2  1  0
  3  4  2  0
  4  5  1  0
  5 11  2  0
  5  6  1  0
  7  6  1  0
  7  8  1  1
  9  7  1  0
 10  9  2  0
 12 11  1  0
 13  9  1  0
 14 13  1  0
 14 15  1  6
 16 15  1  0
 17 16  2  0
 18 17  1  0
 19 18  1  0
 19 20  2  0
 20 16  1  0
 21 14  1  0
 21 28  1  0
 22 21  2  0
 24 23  1  6
 24 26  1  0
 24 25  1  0
 27 26  1  1
 27 28  1  0
 27 29  1  0
 29 31  2  0
 29 30  1  0
M  END
$$$$
