YHL.pdb
     RDKit          3D

 31 32  0  0  1  0  0  0  0  0999 V2000
   18.3867  -14.7185   18.4898 O   0  0  0  0  0  0  0  0  0  0  0  0
   17.0161  -14.6080   18.4670 C   0  0  0  0  0  0  0  0  0  0  0  0
   16.4167  -13.4441   18.0133 C   0  0  0  0  0  0  0  0  0  0  0  0
   15.0390  -13.3176   17.9841 C   0  0  0  0  0  0  0  0  0  0  0  0
   14.2473  -14.3623   18.4115 C   0  0  0  0  0  0  0  0  0  0  0  0
   12.7521  -14.2135   18.3739 C   0  0  0  0  0  0  0  0  0  0  0  0
   12.2344  -15.5256   17.7869 C   0  0  2  0  0  0  0  0  0  0  0  0
   11.0255  -15.3743   17.0466 N   0  0  0  0  0  0  0  0  0  0  0  0
   12.1812  -16.5983   18.8075 C   0  0  0  0  0  0  0  0  0  0  0  0
   11.1854  -16.7257   19.5626 O   0  0  0  0  0  0  0  0  0  0  0  0
   14.8633  -15.5187   18.8620 C   0  0  0  0  0  0  0  0  0  0  0  0
   16.2241  -15.6447   18.8913 C   0  0  0  0  0  0  0  0  0  0  0  0
   13.2356  -17.5246   18.9839 N   0  0  0  0  0  0  0  0  0  0  0  0
   13.1892  -18.6181   19.9287 C   0  0  1  0  0  0  0  0  0  0  0  0
   14.1947  -19.6774   19.6527 C   0  0  0  0  0  0  0  0  0  0  0  0
   13.8516  -20.4889   18.4614 C   0  0  0  0  0  0  0  0  0  0  0  0
   12.5916  -20.6676   17.8932 C   0  0  0  0  0  0  0  0  0  0  0  0
   12.6752  -21.4725   16.8221 N   0  0  0  0  0  0  0  0  0  0  0  0
   13.9653  -21.8070   16.7013 C   0  0  0  0  0  0  0  0  0  0  0  0
   14.6754  -21.2227   17.6781 N   0  0  0  0  0  0  0  0  0  0  0  0
   13.2791  -18.1071   21.3402 C   0  0  0  0  0  0  0  0  0  0  0  0
   14.2901  -17.4830   21.7393 O   0  0  0  0  0  0  0  0  0  0  0  0
   10.9421  -15.1116   22.9861 C   0  0  0  0  0  0  0  0  0  0  0  0
   10.2075  -16.4076   23.0709 C   0  0  2  0  0  0  0  0  0  0  0  0
    8.7781  -16.1955   23.5859 C   0  0  0  0  0  0  0  0  0  0  0  0
   10.8912  -17.4021   23.9254 C   0  0  0  0  0  0  0  0  0  0  0  0
   12.2590  -17.8313   23.5798 C   0  0  2  0  0  0  0  0  0  0  0  0
   12.1739  -18.3664   22.1816 N   0  0  0  0  0  0  0  0  0  0  0  0
   13.0498  -18.7175   24.3738 C   0  0  0  0  0  0  0  0  0  0  0  0
   13.7207  -18.4773   25.5651 O   0  0  0  0  0  0  0  0  0  0  0  0
   13.2027  -19.9363   23.9602 O   0  0  0  0  0  0  0  0  0  0  0  0
  1  2  1  0
  2 12  2  0
  3  2  1  0
  3  4  2  0
  4  5  1  0
  5 11  2  0
  5  6  1  0
  7  6  1  0
  7  8  1  1
  9  7  1  0
 10  9  2  0
 12 11  1  0
 13  9  1  0
 14 13  1  0
 14 15  1  6
 16 15  1  0
 17 16  2  0
 18 17  1  0
 19 18  1  0
 19 20  2  0
 20 16  1  0
 21 14  1  0
 21 28  1  0
 22 21  2  0
 24 23  1  1
 24 26  1  0
 24 25  1  0
 27 26  1  1
 27 28  1  0
 27 29  1  0
 29 31  2  0
 29 30  1  0
M  END
$$$$
