YHL.pdb
     RDKit          3D

 31 32  0  0  1  0  0  0  0  0999 V2000
    7.9413  -11.9757   16.5007 O   0  0  0  0  0  0  0  0  0  0  0  0
    7.8616  -12.5823   17.7324 C   0  0  0  0  0  0  0  0  0  0  0  0
    8.9124  -12.4814   18.6300 C   0  0  0  0  0  0  0  0  0  0  0  0
    8.8473  -13.0859   19.8730 C   0  0  0  0  0  0  0  0  0  0  0  0
    7.7225  -13.7999   20.2280 C   0  0  0  0  0  0  0  0  0  0  0  0
    7.6630  -14.4511   21.5813 C   0  0  0  0  0  0  0  0  0  0  0  0
    8.1915  -15.8683   21.3667 C   0  0  2  0  0  0  0  0  0  0  0  0
    7.3635  -16.6562   20.5147 N   0  0  0  0  0  0  0  0  0  0  0  0
    8.5281  -16.5271   22.6504 C   0  0  0  0  0  0  0  0  0  0  0  0
    7.6373  -17.0577   23.3597 O   0  0  0  0  0  0  0  0  0  0  0  0
    6.6813  -13.8906   19.3184 C   0  0  0  0  0  0  0  0  0  0  0  0
    6.7446  -13.2938   18.0901 C   0  0  0  0  0  0  0  0  0  0  0  0
    9.8536  -16.5928   23.1398 N   0  0  0  0  0  0  0  0  0  0  0  0
   10.2204  -17.2640   24.3668 C   0  0  1  0  0  0  0  0  0  0  0  0
   11.4076  -18.1467   24.2225 C   0  0  0  0  0  0  0  0  0  0  0  0
   11.1802  -19.2508   23.2607 C   0  0  0  0  0  0  0  0  0  0  0  0
   10.2333  -20.2693   23.3499 C   0  0  0  0  0  0  0  0  0  0  0  0
   10.3292  -21.0866   22.2891 N   0  0  0  0  0  0  0  0  0  0  0  0
   11.3198  -20.6042   21.5296 C   0  0  0  0  0  0  0  0  0  0  0  0
   11.8339  -19.5062   22.1040 N   0  0  0  0  0  0  0  0  0  0  0  0
   10.3843  -16.2744   25.4872 C   0  0  0  0  0  0  0  0  0  0  0  0
   11.2940  -15.4126   25.4614 O   0  0  0  0  0  0  0  0  0  0  0  0
    8.9973  -12.5245   26.5786 C   0  0  0  0  0  0  0  0  0  0  0  0
    8.0136  -13.6450   26.6362 C   0  0  2  0  0  0  0  0  0  0  0  0
    6.5890  -13.1144   26.8425 C   0  0  0  0  0  0  0  0  0  0  0  0
    8.3248  -14.6306   27.6937 C   0  0  0  0  0  0  0  0  0  0  0  0
    9.6098  -15.3526   27.6511 C   0  0  2  0  0  0  0  0  0  0  0  0
    9.4670  -16.3688   26.5578 N   0  0  0  0  0  0  0  0  0  0  0  0
   10.2266  -15.9665   28.7843 C   0  0  0  0  0  0  0  0  0  0  0  0
   10.9098  -15.3841   29.8430 O   0  0  0  0  0  0  0  0  0  0  0  0
   10.1771  -17.2580   28.8816 O   0  0  0  0  0  0  0  0  0  0  0  0
  1  2  1  0
  2 12  2  0
  3  2  1  0
  3  4  2  0
  4  5  1  0
  5 11  2  0
  5  6  1  0
  7  6  1  0
  7  8  1  1
  9  7  1  0
 10  9  2  0
 12 11  1  0
 13  9  1  0
 14 13  1  0
 14 15  1  6
 16 15  1  0
 17 16  2  0
 18 17  1  0
 19 18  1  0
 19 20  2  0
 20 16  1  0
 21 14  1  0
 21 28  1  0
 22 21  2  0
 24 23  1  1
 24 26  1  0
 24 25  1  0
 27 26  1  1
 27 28  1  0
 27 29  1  0
 29 31  2  0
 29 30  1  0
M  END
$$$$
