YHL.pdb
     RDKit          3D

 31 32  0  0  1  0  0  0  0  0999 V2000
    9.0350  -12.0358   17.6285 O   0  0  0  0  0  0  0  0  0  0  0  0
    8.4349  -12.6790   18.6856 C   0  0  0  0  0  0  0  0  0  0  0  0
    7.3987  -13.5716   18.4628 C   0  0  0  0  0  0  0  0  0  0  0  0
    6.7848  -14.2268   19.5159 C   0  0  0  0  0  0  0  0  0  0  0  0
    7.2071  -13.9912   20.8070 C   0  0  0  0  0  0  0  0  0  0  0  0
    6.5335  -14.7097   21.9424 C   0  0  0  0  0  0  0  0  0  0  0  0
    6.9332  -16.1754   21.7813 C   0  0  2  0  0  0  0  0  0  0  0  0
    5.8589  -17.0094   21.3538 N   0  0  0  0  0  0  0  0  0  0  0  0
    7.6456  -16.6828   22.9772 C   0  0  0  0  0  0  0  0  0  0  0  0
    7.0199  -16.9922   24.0217 O   0  0  0  0  0  0  0  0  0  0  0  0
    8.2444  -13.0958   21.0115 C   0  0  0  0  0  0  0  0  0  0  0  0
    8.8515  -12.4480   19.9720 C   0  0  0  0  0  0  0  0  0  0  0  0
    9.0506  -16.8440   23.0063 N   0  0  0  0  0  0  0  0  0  0  0  0
    9.7800  -17.2902   24.1723 C   0  0  1  0  0  0  0  0  0  0  0  0
   11.0645  -17.9611   23.8417 C   0  0  0  0  0  0  0  0  0  0  0  0
   11.7254  -18.5407   25.0346 C   0  0  0  0  0  0  0  0  0  0  0  0
   11.2116  -18.6310   26.3268 C   0  0  0  0  0  0  0  0  0  0  0  0
   12.1029  -19.2183   27.1409 N   0  0  0  0  0  0  0  0  0  0  0  0
   13.1722  -19.5018   26.3878 C   0  0  0  0  0  0  0  0  0  0  0  0
   12.9542  -19.0995   25.1266 N   0  0  0  0  0  0  0  0  0  0  0  0
    9.9664  -16.1615   25.1485 C   0  0  0  0  0  0  0  0  0  0  0  0
   10.8262  -15.2712   24.9518 O   0  0  0  0  0  0  0  0  0  0  0  0
    8.7253  -12.4967   25.7528 C   0  0  0  0  0  0  0  0  0  0  0  0
    7.8234  -13.5945   26.2087 C   0  0  2  0  0  0  0  0  0  0  0  0
    6.3986  -13.0743   26.4386 C   0  0  0  0  0  0  0  0  0  0  0  0
    8.3035  -14.2609   27.4382 C   0  0  0  0  0  0  0  0  0  0  0  0
    9.4625  -15.1693   27.3607 C   0  0  2  0  0  0  0  0  0  0  0  0
    9.1286  -16.1605   26.2863 N   0  0  0  0  0  0  0  0  0  0  0  0
   10.0202  -15.8607   28.4798 C   0  0  0  0  0  0  0  0  0  0  0  0
   10.1362  -17.2249   28.7083 O   0  0  0  0  0  0  0  0  0  0  0  0
   10.4940  -15.1558   29.4589 O   0  0  0  0  0  0  0  0  0  0  0  0
  1  2  1  0
  2 12  2  0
  3  2  1  0
  3  4  2  0
  4  5  1  0
  5 11  2  0
  5  6  1  0
  7  6  1  0
  7  8  1  1
  9  7  1  0
 10  9  2  0
 12 11  1  0
 13  9  1  0
 14 13  1  0
 14 15  1  6
 16 15  1  0
 17 16  2  0
 18 17  1  0
 19 18  1  0
 19 20  2  0
 20 16  1  0
 21 14  1  0
 21 28  1  0
 22 21  2  0
 24 23  1  1
 24 26  1  0
 24 25  1  0
 27 26  1  1
 27 28  1  0
 27 29  1  0
 29 31  2  0
 29 30  1  0
M  END
$$$$
