YHL.pdb
     RDKit          3D

 31 32  0  0  1  0  0  0  0  0999 V2000
    8.8273  -12.2963   16.5498 O   0  0  0  0  0  0  0  0  0  0  0  0
    8.4811  -12.8732   17.7493 C   0  0  0  0  0  0  0  0  0  0  0  0
    7.3527  -13.6721   17.8401 C   0  0  0  0  0  0  0  0  0  0  0  0
    6.9911  -14.2597   19.0397 C   0  0  0  0  0  0  0  0  0  0  0  0
    7.7620  -14.0500   20.1633 C   0  0  0  0  0  0  0  0  0  0  0  0
    7.3600  -14.6944   21.4603 C   0  0  0  0  0  0  0  0  0  0  0  0
    7.9495  -16.1028   21.4066 C   0  0  2  0  0  0  0  0  0  0  0  0
    7.3290  -16.9373   20.4314 N   0  0  0  0  0  0  0  0  0  0  0  0
    8.0298  -16.7141   22.7538 C   0  0  0  0  0  0  0  0  0  0  0  0
    7.0215  -17.2392   23.2884 O   0  0  0  0  0  0  0  0  0  0  0  0
    8.8869  -13.2484   20.0545 C   0  0  0  0  0  0  0  0  0  0  0  0
    9.2449  -12.6675   18.8701 C   0  0  0  0  0  0  0  0  0  0  0  0
    9.2308  -16.7389   23.5006 N   0  0  0  0  0  0  0  0  0  0  0  0
    9.2884  -17.0480   24.9119 C   0  0  1  0  0  0  0  0  0  0  0  0
   10.1685  -18.2039   25.2257 C   0  0  0  0  0  0  0  0  0  0  0  0
   10.3511  -19.1091   24.0669 C   0  0  0  0  0  0  0  0  0  0  0  0
    9.7605  -19.0035   22.8090 C   0  0  0  0  0  0  0  0  0  0  0  0
   10.1668  -20.0102   22.0194 N   0  0  0  0  0  0  0  0  0  0  0  0
   11.0041  -20.7518   22.7541 C   0  0  0  0  0  0  0  0  0  0  0  0
   11.1195  -20.2194   23.9801 N   0  0  0  0  0  0  0  0  0  0  0  0
    9.6525  -15.8268   25.7105 C   0  0  0  0  0  0  0  0  0  0  0  0
   10.5571  -15.0488   25.3269 O   0  0  0  0  0  0  0  0  0  0  0  0
    7.4152  -12.5734   25.9856 C   0  0  0  0  0  0  0  0  0  0  0  0
    7.0472  -13.5637   27.0393 C   0  0  2  0  0  0  0  0  0  0  0  0
    5.7243  -13.1801   27.7148 C   0  0  0  0  0  0  0  0  0  0  0  0
    8.0940  -13.7218   28.0716 C   0  0  0  0  0  0  0  0  0  0  0  0
    9.3426  -14.4283   27.7305 C   0  0  2  0  0  0  0  0  0  0  0  0
    8.9269  -15.6077   26.9030 N   0  0  0  0  0  0  0  0  0  0  0  0
   10.3182  -14.8467   28.6866 C   0  0  0  0  0  0  0  0  0  0  0  0
   11.1434  -14.0827   29.5004 O   0  0  0  0  0  0  0  0  0  0  0  0
   10.5063  -16.1186   28.8508 O   0  0  0  0  0  0  0  0  0  0  0  0
  1  2  1  0
  2 12  2  0
  3  2  1  0
  3  4  2  0
  4  5  1  0
  5 11  2  0
  5  6  1  0
  7  6  1  0
  7  8  1  6
  9  7  1  0
 10  9  2  0
 12 11  1  0
 13  9  1  0
 14 13  1  0
 14 15  1  6
 16 15  1  0
 17 16  2  0
 18 17  1  0
 19 18  1  0
 19 20  2  0
 20 16  1  0
 21 14  1  0
 21 28  1  0
 22 21  2  0
 24 23  1  6
 24 26  1  0
 24 25  1  0
 27 26  1  1
 27 28  1  0
 27 29  1  0
 29 31  2  0
 29 30  1  0
M  END
$$$$
