YHL.pdb
     RDKit          3D

 31 32  0  0  1  0  0  0  0  0999 V2000
    9.1277  -12.9763   15.9542 O   0  0  0  0  0  0  0  0  0  0  0  0
    8.6465  -13.3190   17.1961 C   0  0  0  0  0  0  0  0  0  0  0  0
    7.3157  -13.1004   17.5141 C   0  0  0  0  0  0  0  0  0  0  0  0
    6.8163  -13.4399   18.7593 C   0  0  0  0  0  0  0  0  0  0  0  0
    7.6514  -14.0042   19.7000 C   0  0  0  0  0  0  0  0  0  0  0  0
    7.0972  -14.3699   21.0485 C   0  0  0  0  0  0  0  0  0  0  0  0
    6.9326  -15.8883   21.0148 C   0  0  2  0  0  0  0  0  0  0  0  0
    5.9280  -16.3267   20.1031 N   0  0  0  0  0  0  0  0  0  0  0  0
    6.7928  -16.4540   22.3770 C   0  0  0  0  0  0  0  0  0  0  0  0
    5.6728  -16.5115   22.9431 O   0  0  0  0  0  0  0  0  0  0  0  0
    8.9791  -14.2158   19.3652 C   0  0  0  0  0  0  0  0  0  0  0  0
    9.4734  -13.8807   18.1356 C   0  0  0  0  0  0  0  0  0  0  0  0
    7.8990  -16.9531   23.1037 N   0  0  0  0  0  0  0  0  0  0  0  0
    7.8298  -17.3500   24.4923 C   0  0  1  0  0  0  0  0  0  0  0  0
    8.1509  -18.7847   24.7109 C   0  0  0  0  0  0  0  0  0  0  0  0
    7.9840  -19.1945   26.1251 C   0  0  0  0  0  0  0  0  0  0  0  0
    7.0778  -18.6844   27.0528 C   0  0  0  0  0  0  0  0  0  0  0  0
    7.2238  -19.3050   28.2342 N   0  0  0  0  0  0  0  0  0  0  0  0
    8.2062  -20.1992   28.0717 C   0  0  0  0  0  0  0  0  0  0  0  0
    8.6661  -20.1392   26.8128 N   0  0  0  0  0  0  0  0  0  0  0  0
    8.6727  -16.4450   25.3479 C   0  0  0  0  0  0  0  0  0  0  0  0
    9.8820  -16.2474   25.0847 O   0  0  0  0  0  0  0  0  0  0  0  0
    7.3265  -12.4992   25.6650 C   0  0  0  0  0  0  0  0  0  0  0  0
    6.7763  -13.3234   26.7806 C   0  0  2  0  0  0  0  0  0  0  0  0
    5.7405  -12.5315   27.5888 C   0  0  0  0  0  0  0  0  0  0  0  0
    7.8238  -13.8295   27.6933 C   0  0  0  0  0  0  0  0  0  0  0  0
    8.8191  -14.7920   27.1859 C   0  0  2  0  0  0  0  0  0  0  0  0
    8.0336  -15.8372   26.4518 N   0  0  0  0  0  0  0  0  0  0  0  0
    9.8075  -15.4308   27.9959 C   0  0  0  0  0  0  0  0  0  0  0  0
    9.8916  -16.7529   28.4105 O   0  0  0  0  0  0  0  0  0  0  0  0
   10.7883  -14.7114   28.4438 O   0  0  0  0  0  0  0  0  0  0  0  0
  1  2  1  0
  2 12  2  0
  3  2  1  0
  3  4  2  0
  4  5  1  0
  5 11  2  0
  5  6  1  0
  7  6  1  0
  7  8  1  6
  9  7  1  0
 10  9  2  0
 12 11  1  0
 13  9  1  0
 14 13  1  0
 14 15  1  6
 16 15  1  0
 17 16  2  0
 18 17  1  0
 19 18  1  0
 19 20  2  0
 20 16  1  0
 21 14  1  0
 21 28  1  0
 22 21  2  0
 24 23  1  6
 24 26  1  0
 24 25  1  0
 27 26  1  1
 27 28  1  0
 27 29  1  0
 29 31  2  0
 29 30  1  0
M  END
$$$$
