YHL.pdb
     RDKit          3D

 31 32  0  0  1  0  0  0  0  0999 V2000
    5.7556  -23.1568   28.9018 O   0  0  0  0  0  0  0  0  0  0  0  0
    6.1487  -22.1033   28.1099 C   0  0  0  0  0  0  0  0  0  0  0  0
    5.3380  -21.6679   27.0740 C   0  0  0  0  0  0  0  0  0  0  0  0
    5.7193  -20.6092   26.2685 C   0  0  0  0  0  0  0  0  0  0  0  0
    6.9223  -19.9754   26.4965 C   0  0  0  0  0  0  0  0  0  0  0  0
    7.3251  -18.8259   25.6158 C   0  0  0  0  0  0  0  0  0  0  0  0
    7.4784  -19.4267   24.2195 C   0  0  2  0  0  0  0  0  0  0  0  0
    8.2075  -20.6517   24.2094 N   0  0  0  0  0  0  0  0  0  0  0  0
    7.9742  -18.4268   23.2451 C   0  0  0  0  0  0  0  0  0  0  0  0
    9.1496  -18.4783   22.8048 O   0  0  0  0  0  0  0  0  0  0  0  0
    7.7204  -20.4238   27.5366 C   0  0  0  0  0  0  0  0  0  0  0  0
    7.3447  -21.4695   28.3328 C   0  0  0  0  0  0  0  0  0  0  0  0
    7.1608  -17.3740   22.7646 N   0  0  0  0  0  0  0  0  0  0  0  0
    7.6795  -16.2146   22.0736 C   0  0  1  0  0  0  0  0  0  0  0  0
    6.6317  -15.4349   21.3641 C   0  0  0  0  0  0  0  0  0  0  0  0
    7.1972  -14.3311   20.5532 C   0  0  0  0  0  0  0  0  0  0  0  0
    7.2319  -12.9758   20.8756 C   0  0  0  0  0  0  0  0  0  0  0  0
    7.8242  -12.2797   19.8923 N   0  0  0  0  0  0  0  0  0  0  0  0
    8.1654  -13.1695   18.9528 C   0  0  0  0  0  0  0  0  0  0  0  0
    7.7937  -14.3988   19.3407 N   0  0  0  0  0  0  0  0  0  0  0  0
    8.4890  -15.3564   23.0062 C   0  0  0  0  0  0  0  0  0  0  0  0
    9.2631  -14.4744   22.5661 O   0  0  0  0  0  0  0  0  0  0  0  0
    7.5945  -11.8826   25.2371 C   0  0  0  0  0  0  0  0  0  0  0  0
    6.9531  -13.1475   25.7008 C   0  0  2  0  0  0  0  0  0  0  0  0
    5.9048  -12.8658   26.7848 C   0  0  0  0  0  0  0  0  0  0  0  0
    7.9288  -14.1345   26.2108 C   0  0  0  0  0  0  0  0  0  0  0  0
    8.9949  -14.6232   25.3167 C   0  0  2  0  0  0  0  0  0  0  0  0
    8.3307  -15.5966   24.3895 N   0  0  0  0  0  0  0  0  0  0  0  0
   10.2336  -15.1747   25.7669 C   0  0  0  0  0  0  0  0  0  0  0  0
   11.3474  -14.5347   26.2928 O   0  0  0  0  0  0  0  0  0  0  0  0
   10.3963  -16.4580   25.6854 O   0  0  0  0  0  0  0  0  0  0  0  0
  1  2  1  0
  2 12  2  0
  3  2  1  0
  3  4  2  0
  4  5  1  0
  5 11  2  0
  5  6  1  0
  7  6  1  0
  7  8  1  1
  9  7  1  0
 10  9  2  0
 12 11  1  0
 13  9  1  0
 14 13  1  0
 14 15  1  1
 16 15  1  0
 17 16  2  0
 18 17  1  0
 19 18  1  0
 19 20  2  0
 20 16  1  0
 21 14  1  0
 21 28  1  0
 22 21  2  0
 24 23  1  1
 24 26  1  0
 24 25  1  0
 27 26  1  1
 27 28  1  0
 27 29  1  0
 29 31  2  0
 29 30  1  0
M  END
$$$$
