VSL.pdb
     RDKit          3D

 22 21  0  0  1  0  0  0  0  0999 V2000
    8.5745  -12.6929   18.0221 C   0  0  0  0  0  0  0  0  0  0  0  0
    8.1343  -13.3270   19.3328 C   0  0  2  0  0  0  0  0  0  0  0  0
    8.6967  -12.5966   20.5059 C   0  0  0  0  0  0  0  0  0  0  0  0
    8.5195  -14.7921   19.3174 C   0  0  2  0  0  0  0  0  0  0  0  0
    8.0364  -15.4265   18.1043 N   0  0  0  0  0  0  0  0  0  0  0  0
    7.9752  -15.4166   20.5324 C   0  0  0  0  0  0  0  0  0  0  0  0
    6.7445  -15.7223   20.6626 O   0  0  0  0  0  0  0  0  0  0  0  0
   10.3149  -17.9002   22.7032 O   0  0  0  0  0  0  0  0  0  0  0  0
    8.9336  -17.8210   22.8087 C   0  0  0  0  0  0  0  0  0  0  0  0
    8.4692  -16.3808   22.7840 C   0  0  2  0  0  0  0  0  0  0  0  0
    8.8787  -15.6839   21.5992 N   0  0  0  0  0  0  0  0  0  0  0  0
    8.8692  -15.6562   24.0169 C   0  0  0  0  0  0  0  0  0  0  0  0
   10.0422  -15.1695   24.0603 O   0  0  0  0  0  0  0  0  0  0  0  0
    7.8532  -11.9249   25.8943 C   0  0  0  0  0  0  0  0  0  0  0  0
    6.7937  -13.0295   25.9969 C   0  0  2  0  0  0  0  0  0  0  0  0
    5.5789  -12.3794   26.6224 C   0  0  0  0  0  0  0  0  0  0  0  0
    7.3798  -14.0677   26.9175 C   0  0  0  0  0  0  0  0  0  0  0  0
    8.5520  -14.8141   26.3355 C   0  0  2  0  0  0  0  0  0  0  0  0
    8.0381  -15.4772   25.1279 N   0  0  0  0  0  0  0  0  0  0  0  0
    9.1795  -15.7755   27.2421 C   0  0  0  0  0  0  0  0  0  0  0  0
    8.9898  -17.0183   27.1164 O   0  0  0  0  0  0  0  0  0  0  0  0
   10.0075  -15.3800   28.2764 O   0  0  0  0  0  0  0  0  0  0  0  0
  2  3  1  1
  2  1  1  0
  4  2  1  0
  4  5  1  6
  6  4  1  0
  7  6  2  0
  8  9  1  0
 10  9  1  1
 10 12  1  0
 10 11  1  0
 11  6  1  0
 12 19  1  0
 13 12  2  0
 15 14  1  1
 16 15  1  0
 17 15  1  0
 18 17  1  1
 18 20  1  0
 19 18  1  0
 20 22  1  0
 21 20  2  0
M  END
$$$$
