VSL.pdb
     RDKit          3D

 22 21  0  0  1  0  0  0  0  0999 V2000
    8.1077  -12.7862   18.0530 C   0  0  0  0  0  0  0  0  0  0  0  0
    7.9440  -13.4948   19.3889 C   0  0  2  0  0  0  0  0  0  0  0  0
    8.6356  -12.7552   20.4848 C   0  0  0  0  0  0  0  0  0  0  0  0
    8.4351  -14.9208   19.2461 C   0  0  2  0  0  0  0  0  0  0  0  0
    7.7672  -15.5738   18.1347 N   0  0  0  0  0  0  0  0  0  0  0  0
    8.2027  -15.6103   20.5241 C   0  0  0  0  0  0  0  0  0  0  0  0
    7.0366  -15.8646   20.9721 O   0  0  0  0  0  0  0  0  0  0  0  0
   11.4850  -17.3808   22.6873 O   0  0  0  0  0  0  0  0  0  0  0  0
   10.1592  -17.7833   22.7622 C   0  0  0  0  0  0  0  0  0  0  0  0
    9.2241  -16.6083   22.5745 C   0  0  2  0  0  0  0  0  0  0  0  0
    9.3431  -16.0033   21.2795 N   0  0  0  0  0  0  0  0  0  0  0  0
    9.3723  -15.6118   23.6653 C   0  0  0  0  0  0  0  0  0  0  0  0
   10.2192  -14.6789   23.5003 O   0  0  0  0  0  0  0  0  0  0  0  0
    7.6014  -13.2589   28.1498 C   0  0  0  0  0  0  0  0  0  0  0  0
    7.5266  -12.5982   26.7674 C   0  0  2  0  0  0  0  0  0  0  0  0
    6.1897  -11.8909   26.7198 C   0  0  0  0  0  0  0  0  0  0  0  0
    7.5695  -13.7307   25.7752 C   0  0  0  0  0  0  0  0  0  0  0  0
    8.8174  -14.5711   25.8549 C   0  0  2  0  0  0  0  0  0  0  0  0
    8.6406  -15.6367   24.8574 N   0  0  0  0  0  0  0  0  0  0  0  0
    9.1010  -15.1255   27.1786 C   0  0  0  0  0  0  0  0  0  0  0  0
    8.5435  -16.1857   27.5807 O   0  0  0  0  0  0  0  0  0  0  0  0
    9.9874  -14.5253   28.0538 O   0  0  0  0  0  0  0  0  0  0  0  0
  2  3  1  1
  2  1  1  0
  4  2  1  0
  4  5  1  6
  6  4  1  0
  7  6  2  0
  8  9  1  0
 10  9  1  1
 10 12  1  0
 10 11  1  0
 11  6  1  0
 12 19  1  0
 13 12  2  0
 15 14  1  1
 16 15  1  0
 17 15  1  0
 18 17  1  1
 18 20  1  0
 19 18  1  0
 20 22  1  0
 21 20  2  0
M  END
$$$$
