VSL.pdb
     RDKit          3D

 22 21  0  0  1  0  0  0  0  0999 V2000
    8.2955  -12.6450   17.7016 C   0  0  0  0  0  0  0  0  0  0  0  0
    7.9717  -13.4165   18.9719 C   0  0  2  0  0  0  0  0  0  0  0  0
    8.4067  -12.6690   20.1876 C   0  0  0  0  0  0  0  0  0  0  0  0
    8.5978  -14.7929   18.8774 C   0  0  2  0  0  0  0  0  0  0  0  0
    8.2076  -15.4388   17.6371 N   0  0  0  0  0  0  0  0  0  0  0  0
    8.1871  -15.5599   20.0630 C   0  0  0  0  0  0  0  0  0  0  0  0
    6.9993  -15.9905   20.2324 O   0  0  0  0  0  0  0  0  0  0  0  0
   11.0115  -17.5023   22.5154 O   0  0  0  0  0  0  0  0  0  0  0  0
    9.6492  -17.7640   22.4821 C   0  0  0  0  0  0  0  0  0  0  0  0
    8.8567  -16.4901   22.2833 C   0  0  2  0  0  0  0  0  0  0  0  0
    9.1742  -15.8229   21.0540 N   0  0  0  0  0  0  0  0  0  0  0  0
    8.9789  -15.5822   23.4519 C   0  0  0  0  0  0  0  0  0  0  0  0
   10.0421  -14.8940   23.5550 O   0  0  0  0  0  0  0  0  0  0  0  0
    5.7083  -12.2509   27.1673 C   0  0  0  0  0  0  0  0  0  0  0  0
    7.1065  -12.8672   27.0316 C   0  0  2  0  0  0  0  0  0  0  0  0
    8.0349  -11.7169   26.7082 C   0  0  0  0  0  0  0  0  0  0  0  0
    7.0155  -13.8248   25.8724 C   0  0  0  0  0  0  0  0  0  0  0  0
    8.2707  -14.6234   25.6347 C   0  0  2  0  0  0  0  0  0  0  0  0
    8.0004  -15.4386   24.4413 N   0  0  0  0  0  0  0  0  0  0  0  0
    8.6918  -15.4559   26.7615 C   0  0  0  0  0  0  0  0  0  0  0  0
    8.1613  -16.5813   26.9818 O   0  0  0  0  0  0  0  0  0  0  0  0
    9.6848  -15.0604   27.6386 O   0  0  0  0  0  0  0  0  0  0  0  0
  2  3  1  1
  2  1  1  0
  4  2  1  0
  4  5  1  6
  6  4  1  0
  7  6  2  0
  8  9  1  0
 10  9  1  1
 10 12  1  0
 10 11  1  0
 11  6  1  0
 12 19  1  0
 13 12  2  0
 15 14  1  6
 16 15  1  0
 17 15  1  0
 18 17  1  1
 18 20  1  0
 19 18  1  0
 20 22  1  0
 21 20  2  0
M  END
$$$$
