VSL.pdb
     RDKit          3D

 22 21  0  0  1  0  0  0  0  0999 V2000
    8.4551  -12.6584   17.7583 C   0  0  0  0  0  0  0  0  0  0  0  0
    8.0335  -13.3602   19.0402 C   0  0  2  0  0  0  0  0  0  0  0  0
    8.5018  -12.6169   20.2461 C   0  0  0  0  0  0  0  0  0  0  0  0
    8.5388  -14.7879   19.0015 C   0  0  2  0  0  0  0  0  0  0  0  0
    8.1253  -15.4345   17.7691 N   0  0  0  0  0  0  0  0  0  0  0  0
    8.0326  -15.4805   20.1959 C   0  0  0  0  0  0  0  0  0  0  0  0
    6.8165  -15.8408   20.3246 O   0  0  0  0  0  0  0  0  0  0  0  0
   10.5985  -17.7000   22.4926 O   0  0  0  0  0  0  0  0  0  0  0  0
    9.2169  -17.7984   22.5764 C   0  0  0  0  0  0  0  0  0  0  0  0
    8.5669  -16.4384   22.4409 C   0  0  2  0  0  0  0  0  0  0  0  0
    8.9568  -15.7516   21.2436 N   0  0  0  0  0  0  0  0  0  0  0  0
    8.7842  -15.6055   23.6509 C   0  0  0  0  0  0  0  0  0  0  0  0
    9.9299  -15.0780   23.8054 O   0  0  0  0  0  0  0  0  0  0  0  0
    5.5919  -12.2424   27.1493 C   0  0  0  0  0  0  0  0  0  0  0  0
    7.0182  -12.8028   27.0796 C   0  0  2  0  0  0  0  0  0  0  0  0
    7.7870  -11.8633   26.1761 C   0  0  0  0  0  0  0  0  0  0  0  0
    6.8872  -14.1647   26.4497 C   0  0  0  0  0  0  0  0  0  0  0  0
    8.1753  -14.7096   25.8897 C   0  0  2  0  0  0  0  0  0  0  0  0
    7.8101  -15.3673   24.6264 N   0  0  0  0  0  0  0  0  0  0  0  0
    8.8918  -15.6259   26.7768 C   0  0  0  0  0  0  0  0  0  0  0  0
    9.8036  -15.2150   27.5490 O   0  0  0  0  0  0  0  0  0  0  0  0
    8.6124  -16.9794   26.8188 O   0  0  0  0  0  0  0  0  0  0  0  0
  2  3  1  1
  2  1  1  0
  4  2  1  0
  4  5  1  6
  6  4  1  0
  7  6  2  0
  8  9  1  0
 10  9  1  1
 10 12  1  0
 10 11  1  0
 11  6  1  0
 12 19  1  0
 13 12  2  0
 15 14  1  6
 16 15  1  0
 17 15  1  0
 18 17  1  1
 18 20  1  0
 19 18  1  0
 20 22  1  0
 21 20  2  0
M  END
$$$$
