VSL.pdb
     RDKit          3D

 22 21  0  0  1  0  0  0  0  0999 V2000
    7.3107  -12.7402   19.8172 C   0  0  0  0  0  0  0  0  0  0  0  0
    8.7818  -13.0626   19.6033 C   0  0  2  0  0  0  0  0  0  0  0  0
    9.3679  -12.2293   18.5133 C   0  0  0  0  0  0  0  0  0  0  0  0
    8.9206  -14.5484   19.3416 C   0  0  2  0  0  0  0  0  0  0  0  0
    8.3196  -14.8926   18.0656 N   0  0  0  0  0  0  0  0  0  0  0  0
    8.3013  -15.2664   20.4656 C   0  0  0  0  0  0  0  0  0  0  0  0
    7.0734  -15.6090   20.4767 O   0  0  0  0  0  0  0  0  0  0  0  0
   10.4255  -17.8912   22.6433 O   0  0  0  0  0  0  0  0  0  0  0  0
    9.0443  -17.7699   22.6985 C   0  0  0  0  0  0  0  0  0  0  0  0
    8.6274  -16.3150   22.7100 C   0  0  2  0  0  0  0  0  0  0  0  0
    9.1260  -15.5840   21.5812 N   0  0  0  0  0  0  0  0  0  0  0  0
    8.9782  -15.6558   23.9935 C   0  0  0  0  0  0  0  0  0  0  0  0
   10.1524  -15.1847   24.1126 O   0  0  0  0  0  0  0  0  0  0  0  0
    7.9602  -12.0667   26.2934 C   0  0  0  0  0  0  0  0  0  0  0  0
    6.8638  -13.1364   26.2109 C   0  0  2  0  0  0  0  0  0  0  0  0
    5.6523  -12.5392   26.8932 C   0  0  0  0  0  0  0  0  0  0  0  0
    7.3897  -14.3151   26.9875 C   0  0  0  0  0  0  0  0  0  0  0  0
    8.5817  -14.9855   26.3554 C   0  0  2  0  0  0  0  0  0  0  0  0
    8.0999  -15.5223   25.0742 N   0  0  0  0  0  0  0  0  0  0  0  0
    9.2014  -16.0313   27.1692 C   0  0  0  0  0  0  0  0  0  0  0  0
    8.9467  -17.2534   26.9744 O   0  0  0  0  0  0  0  0  0  0  0  0
   10.0922  -15.7420   28.1864 O   0  0  0  0  0  0  0  0  0  0  0  0
  2  3  1  6
  2  1  1  0
  4  2  1  0
  4  5  1  6
  6  4  1  0
  7  6  2  0
  8  9  1  0
 10  9  1  1
 10 12  1  0
 10 11  1  0
 11  6  1  0
 12 19  1  0
 13 12  2  0
 15 14  1  1
 16 15  1  0
 17 15  1  0
 18 17  1  1
 18 20  1  0
 19 18  1  0
 20 22  1  0
 21 20  2  0
M  END
$$$$
