KSW.pdb
     RDKit          3D

 30 31  0  0  1  0  0  0  0  0999 V2000
   20.3142  -10.1771  -19.5988 N   0  0  0  0  0  0  0  0  0  0  0  0
   19.5102   -9.6548  -18.5701 C   0  0  1  0  0  0  0  0  0  0  0  0
   19.4434  -10.5276  -17.3718 C   0  0  0  0  0  0  0  0  0  0  0  0
   18.8624  -11.8522  -17.4263 C   0  0  0  0  0  0  0  0  0  0  0  0
   18.6853  -12.7922  -16.3454 C   0  0  0  0  0  0  0  0  0  0  0  0
   17.9838  -14.0685  -16.4414 C   0  0  0  0  0  0  0  0  0  0  0  0
   18.1785  -14.9282  -15.2692 N   0  0  0  0  0  0  0  0  0  0  0  0
   19.8641   -8.2376  -18.2104 C   0  0  0  0  0  0  0  0  0  0  0  0
   21.0744   -7.8985  -18.2476 O   0  0  0  0  0  0  0  0  0  0  0  0
   18.2953   -3.6813  -17.7809 O   0  0  0  0  0  0  0  0  0  0  0  0
   18.0048   -5.0432  -17.8160 C   0  0  0  0  0  0  0  0  0  0  0  0
   19.2379   -5.8676  -17.6293 C   0  0  2  0  0  0  0  0  0  0  0  0
   18.9261   -7.2598  -17.8325 N   0  0  0  0  0  0  0  0  0  0  0  0
   19.9357   -5.6020  -16.3625 C   0  0  0  0  0  0  0  0  0  0  0  0
   19.6372   -6.2292  -15.3318 O   0  0  0  0  0  0  0  0  0  0  0  0
   20.9556   -4.6249  -16.3141 N   0  0  0  0  0  0  0  0  0  0  0  0
   21.5708   -4.1873  -15.0616 C   0  0  1  0  0  0  0  0  0  0  0  0
   23.0407   -4.5155  -15.1810 C   0  0  0  0  0  0  0  0  0  0  0  0
   23.3534   -5.9483  -15.2189 C   0  0  0  0  0  0  0  0  0  0  0  0
   24.1265   -6.5863  -16.2013 C   0  0  0  0  0  0  0  0  0  0  0  0
   24.2513   -7.8896  -15.9067 N   0  0  0  0  0  0  0  0  0  0  0  0
   23.5887   -8.1392  -14.7658 C   0  0  0  0  0  0  0  0  0  0  0  0
   23.4105   -9.3092  -14.0615 C   0  0  0  0  0  0  0  0  0  0  0  0
   22.6723   -9.3565  -12.9002 C   0  0  0  0  0  0  0  0  0  0  0  0
   22.1011   -8.1650  -12.4515 C   0  0  0  0  0  0  0  0  0  0  0  0
   22.2955   -7.0156  -13.1729 C   0  0  0  0  0  0  0  0  0  0  0  0
   23.0262   -6.9323  -14.3330 C   0  0  0  0  0  0  0  0  0  0  0  0
   21.3486   -2.7724  -14.7614 C   0  0  0  0  0  0  0  0  0  0  0  0
   21.8210   -2.2383  -13.5518 O   0  0  0  0  0  0  0  0  0  0  0  0
   20.7350   -2.0672  -15.6024 O   0  0  0  0  0  0  0  0  0  0  0  0
  2  1  1  6
  2  3  1  0
  2  8  1  0
  4  5  1  0
  4  3  1  0
  6  5  1  0
  7  6  1  0
  8  9  2  0
 10 11  1  0
 12 11  1  1
 12 14  1  0
 13 12  1  0
 13  8  1  0
 14 15  2  0
 16 17  1  0
 16 14  1  0
 17 28  1  0
 17 18  1  6
 19 27  1  0
 19 18  1  0
 20 19  2  0
 21 20  1  0
 21 22  1  0
 22 27  2  0
 23 22  1  0
 23 24  2  0
 24 25  1  0
 25 26  2  0
 27 26  1  0
 28 30  2  0
 28 29  1  0
M  END
$$$$
