KSW.pdb
     RDKit          3D

 30 31  0  0  1  0  0  0  0  0999 V2000
   27.5074  -21.0257  -17.1796 N   0  0  0  0  0  0  0  0  0  0  0  0
   27.0708  -21.8336  -16.1146 C   0  0  1  0  0  0  0  0  0  0  0  0
   28.0646  -22.8558  -15.7029 C   0  0  0  0  0  0  0  0  0  0  0  0
   28.0027  -24.2174  -16.1904 C   0  0  0  0  0  0  0  0  0  0  0  0
   27.9661  -24.6723  -17.5597 C   0  0  0  0  0  0  0  0  0  0  0  0
   27.6173  -26.0216  -17.9931 C   0  0  0  0  0  0  0  0  0  0  0  0
   27.6429  -26.1887  -19.4500 N   0  0  0  0  0  0  0  0  0  0  0  0
   26.5689  -21.0374  -14.9410 C   0  0  0  0  0  0  0  0  0  0  0  0
   27.2377  -20.0399  -14.5686 O   0  0  0  0  0  0  0  0  0  0  0  0
   22.8003  -21.6765  -13.1186 O   0  0  0  0  0  0  0  0  0  0  0  0
   23.4424  -20.4409  -13.1537 C   0  0  0  0  0  0  0  0  0  0  0  0
   24.9275  -20.5972  -13.0813 C   0  0  2  0  0  0  0  0  0  0  0  0
   25.3940  -21.3359  -14.2273 N   0  0  0  0  0  0  0  0  0  0  0  0
   25.3987  -21.1436  -11.8000 C   0  0  0  0  0  0  0  0  0  0  0  0
   25.6361  -22.3576  -11.6786 O   0  0  0  0  0  0  0  0  0  0  0  0
   25.5842  -20.2823  -10.6951 N   0  0  0  0  0  0  0  0  0  0  0  0
   25.8623  -20.7764   -9.3470 C   0  0  1  0  0  0  0  0  0  0  0  0
   26.6902  -19.7076   -8.6727 C   0  0  0  0  0  0  0  0  0  0  0  0
   27.8023  -20.2089   -7.8577 C   0  0  0  0  0  0  0  0  0  0  0  0
   28.7537  -21.1535   -8.2731 C   0  0  0  0  0  0  0  0  0  0  0  0
   29.6545  -21.3507   -7.2982 N   0  0  0  0  0  0  0  0  0  0  0  0
   29.3349  -20.5725   -6.2516 C   0  0  0  0  0  0  0  0  0  0  0  0
   29.9347  -20.4214   -5.0212 C   0  0  0  0  0  0  0  0  0  0  0  0
   29.4337  -19.5661   -4.0655 C   0  0  0  0  0  0  0  0  0  0  0  0
   28.2821  -18.8461   -4.3860 C   0  0  0  0  0  0  0  0  0  0  0  0
   27.7069  -19.0166   -5.6187 C   0  0  0  0  0  0  0  0  0  0  0  0
   28.1802  -19.8589   -6.5949 C   0  0  0  0  0  0  0  0  0  0  0  0
   24.6585  -21.1010   -8.5808 C   0  0  0  0  0  0  0  0  0  0  0  0
   24.7300  -22.0478   -7.5465 O   0  0  0  0  0  0  0  0  0  0  0  0
   23.5832  -20.5179   -8.8724 O   0  0  0  0  0  0  0  0  0  0  0  0
  2  1  1  6
  2  3  1  0
  2  8  1  0
  4  5  1  0
  4  3  1  0
  6  5  1  0
  7  6  1  0
  8  9  2  0
 10 11  1  0
 12 11  1  1
 12 14  1  0
 13 12  1  0
 13  8  1  0
 14 15  2  0
 16 17  1  0
 16 14  1  0
 17 28  1  0
 17 18  1  1
 19 27  1  0
 19 18  1  0
 20 19  2  0
 21 20  1  0
 21 22  1  0
 22 27  2  0
 23 22  1  0
 23 24  2  0
 24 25  1  0
 25 26  2  0
 27 26  1  0
 28 30  2  0
 28 29  1  0
M  END
$$$$
