KSW.pdb
     RDKit          3D

 30 31  0  0  1  0  0  0  0  0999 V2000
   30.0544  -24.9494  -17.5755 N   0  0  0  0  0  0  0  0  0  0  0  0
   28.8376  -24.3772  -17.9871 C   0  0  1  0  0  0  0  0  0  0  0  0
   27.9300  -25.3395  -18.6596 C   0  0  0  0  0  0  0  0  0  0  0  0
   27.9255  -26.7466  -18.3198 C   0  0  0  0  0  0  0  0  0  0  0  0
   27.4438  -27.3690  -17.1099 C   0  0  0  0  0  0  0  0  0  0  0  0
   27.4166  -28.8052  -16.8512 C   0  0  0  0  0  0  0  0  0  0  0  0
   26.9007  -29.1463  -15.5214 N   0  0  0  0  0  0  0  0  0  0  0  0
   28.1396  -23.6263  -16.8861 C   0  0  0  0  0  0  0  0  0  0  0  0
   28.2773  -24.0368  -15.7056 O   0  0  0  0  0  0  0  0  0  0  0  0
   26.5825  -19.7651  -17.4214 O   0  0  0  0  0  0  0  0  0  0  0  0
   27.1195  -20.2565  -16.2338 C   0  0  0  0  0  0  0  0  0  0  0  0
   26.7662  -21.6951  -16.0313 C   0  0  2  0  0  0  0  0  0  0  0  0
   27.3378  -22.4886  -17.0897 N   0  0  0  0  0  0  0  0  0  0  0  0
   25.3267  -21.9248  -15.8382 C   0  0  0  0  0  0  0  0  0  0  0  0
   24.6171  -22.3208  -16.7788 O   0  0  0  0  0  0  0  0  0  0  0  0
   24.7424  -21.6938  -14.5723 N   0  0  0  0  0  0  0  0  0  0  0  0
   23.2995  -21.7639  -14.3443 C   0  0  1  0  0  0  0  0  0  0  0  0
   23.1121  -21.7470  -12.8453 C   0  0  0  0  0  0  0  0  0  0  0  0
   21.7208  -21.6214  -12.3973 C   0  0  0  0  0  0  0  0  0  0  0  0
   21.1248  -20.4460  -11.9144 C   0  0  0  0  0  0  0  0  0  0  0  0
   19.8315  -20.6725  -11.6370 N   0  0  0  0  0  0  0  0  0  0  0  0
   19.5484  -21.9549  -11.9173 C   0  0  0  0  0  0  0  0  0  0  0  0
   18.3771  -22.6691  -11.7965 C   0  0  0  0  0  0  0  0  0  0  0  0
   18.2977  -24.0022  -12.1317 C   0  0  0  0  0  0  0  0  0  0  0  0
   19.4576  -24.6174  -12.6045 C   0  0  0  0  0  0  0  0  0  0  0  0
   20.6090  -23.8814  -12.7145 C   0  0  0  0  0  0  0  0  0  0  0  0
   20.7232  -22.5514  -12.3911 C   0  0  0  0  0  0  0  0  0  0  0  0
   22.5487  -20.6937  -15.0018 C   0  0  0  0  0  0  0  0  0  0  0  0
   21.2799  -20.9660  -15.5380 O   0  0  0  0  0  0  0  0  0  0  0  0
   23.0649  -19.5491  -15.0693 O   0  0  0  0  0  0  0  0  0  0  0  0
  2  1  1  1
  2  3  1  0
  2  8  1  0
  4  5  1  0
  4  3  1  0
  6  5  1  0
  7  6  1  0
  8  9  2  0
 10 11  1  0
 12 11  1  6
 12 14  1  0
 13 12  1  0
 13  8  1  0
 14 15  2  0
 16 17  1  0
 16 14  1  0
 17 28  1  0
 17 18  1  1
 19 27  1  0
 19 18  1  0
 20 19  2  0
 21 20  1  0
 21 22  1  0
 22 27  2  0
 23 22  1  0
 23 24  2  0
 24 25  1  0
 25 26  2  0
 27 26  1  0
 28 30  2  0
 28 29  1  0
M  END
$$$$
