KSW.pdb
     RDKit          3D

 30 31  0  0  1  0  0  0  0  0999 V2000
   11.6041  -24.2645   -5.2358 N   0  0  0  0  0  0  0  0  0  0  0  0
   12.6127  -23.5340   -4.5827 C   0  0  1  0  0  0  0  0  0  0  0  0
   12.9933  -22.2878   -5.2927 C   0  0  0  0  0  0  0  0  0  0  0  0
   13.1842  -22.2569   -6.7273 C   0  0  0  0  0  0  0  0  0  0  0  0
   14.4188  -22.1001   -7.4583 C   0  0  0  0  0  0  0  0  0  0  0  0
   14.5417  -22.0650   -8.9122 C   0  0  0  0  0  0  0  0  0  0  0  0
   15.9200  -21.8705   -9.3743 N   0  0  0  0  0  0  0  0  0  0  0  0
   12.3077  -23.2797   -3.1317 C   0  0  0  0  0  0  0  0  0  0  0  0
   11.2426  -22.6763   -2.8442 O   0  0  0  0  0  0  0  0  0  0  0  0
   12.9973  -24.4435    1.4836 O   0  0  0  0  0  0  0  0  0  0  0  0
   13.3313  -24.5965    0.1400 C   0  0  0  0  0  0  0  0  0  0  0  0
   12.8467  -23.4413   -0.6761 C   0  0  2  0  0  0  0  0  0  0  0  0
   13.1393  -23.6740   -2.0678 N   0  0  0  0  0  0  0  0  0  0  0  0
   13.3198  -22.1376   -0.1875 C   0  0  0  0  0  0  0  0  0  0  0  0
   14.4245  -21.6916   -0.5422 O   0  0  0  0  0  0  0  0  0  0  0  0
   12.5128  -21.3830    0.6936 N   0  0  0  0  0  0  0  0  0  0  0  0
   12.9274  -20.0870    1.2295 C   0  0  1  0  0  0  0  0  0  0  0  0
   13.0144  -19.1533    0.0450 C   0  0  0  0  0  0  0  0  0  0  0  0
   11.7322  -18.5943   -0.3974 C   0  0  0  0  0  0  0  0  0  0  0  0
   10.9189  -17.7312    0.3534 C   0  0  0  0  0  0  0  0  0  0  0  0
    9.8443  -17.3766   -0.3679 N   0  0  0  0  0  0  0  0  0  0  0  0
    9.9146  -17.9735   -1.5687 C   0  0  0  0  0  0  0  0  0  0  0  0
    9.0600  -17.9364   -2.6479 C   0  0  0  0  0  0  0  0  0  0  0  0
    9.3117  -18.6430   -3.8025 C   0  0  0  0  0  0  0  0  0  0  0  0
   10.4766  -19.4100   -3.8468 C   0  0  0  0  0  0  0  0  0  0  0  0
   11.3089  -19.4277   -2.7576 C   0  0  0  0  0  0  0  0  0  0  0  0
   11.0895  -18.7347   -1.5921 C   0  0  0  0  0  0  0  0  0  0  0  0
   12.0373  -19.5700    2.2697 C   0  0  0  0  0  0  0  0  0  0  0  0
   12.4050  -18.4210    2.9880 O   0  0  0  0  0  0  0  0  0  0  0  0
   10.9577  -20.1745    2.4940 O   0  0  0  0  0  0  0  0  0  0  0  0
  2  1  1  6
  2  3  1  0
  2  8  1  0
  4  5  1  0
  4  3  1  0
  6  5  1  0
  7  6  1  0
  8  9  2  0
 10 11  1  0
 12 11  1  1
 12 14  1  0
 13 12  1  0
 13  8  1  0
 14 15  2  0
 16 17  1  0
 16 14  1  0
 17 28  1  0
 17 18  1  6
 19 27  1  0
 19 18  1  0
 20 19  2  0
 21 20  1  0
 21 22  1  0
 22 27  2  0
 23 22  1  0
 23 24  2  0
 24 25  1  0
 25 26  2  0
 27 26  1  0
 28 30  2  0
 28 29  1  0
M  END
$$$$
