KSW.pdb
     RDKit          3D

 30 31  0  0  1  0  0  0  0  0999 V2000
   25.8015  -21.4836  -17.0320 N   0  0  0  0  0  0  0  0  0  0  0  0
   26.6048  -22.3577  -16.2783 C   0  0  1  0  0  0  0  0  0  0  0  0
   27.4592  -23.2404  -17.1108 C   0  0  0  0  0  0  0  0  0  0  0  0
   26.9518  -23.8881  -18.3017 C   0  0  0  0  0  0  0  0  0  0  0  0
   25.6662  -23.7102  -18.9332 C   0  0  0  0  0  0  0  0  0  0  0  0
   25.1857  -24.4505  -20.0957 C   0  0  0  0  0  0  0  0  0  0  0  0
   23.7886  -24.1590  -20.4333 N   0  0  0  0  0  0  0  0  0  0  0  0
   27.3997  -21.6533  -15.2129 C   0  0  0  0  0  0  0  0  0  0  0  0
   28.2916  -22.3021  -14.6089 O   0  0  0  0  0  0  0  0  0  0  0  0
   27.5767  -17.7552  -12.2802 O   0  0  0  0  0  0  0  0  0  0  0  0
   27.4051  -18.2947  -13.5529 C   0  0  0  0  0  0  0  0  0  0  0  0
   27.4333  -19.7891  -13.5187 C   0  0  2  0  0  0  0  0  0  0  0  0
   27.2110  -20.3090  -14.8442 N   0  0  0  0  0  0  0  0  0  0  0  0
   26.5418  -20.3703  -12.5040 C   0  0  0  0  0  0  0  0  0  0  0  0
   25.3358  -20.5471  -12.7475 O   0  0  0  0  0  0  0  0  0  0  0  0
   27.0588  -20.7320  -11.2394 N   0  0  0  0  0  0  0  0  0  0  0  0
   26.2217  -21.2747  -10.1702 C   0  0  1  0  0  0  0  0  0  0  0  0
   27.1619  -21.6271   -9.0413 C   0  0  0  0  0  0  0  0  0  0  0  0
   27.2539  -20.6221   -7.9765 C   0  0  0  0  0  0  0  0  0  0  0  0
   26.4445  -19.4810   -7.8630 C   0  0  0  0  0  0  0  0  0  0  0  0
   26.7660  -18.8042   -6.7498 N   0  0  0  0  0  0  0  0  0  0  0  0
   27.7592  -19.4539   -6.1216 C   0  0  0  0  0  0  0  0  0  0  0  0
   28.4364  -19.1621   -4.9585 C   0  0  0  0  0  0  0  0  0  0  0  0
   29.4496  -19.9642   -4.4834 C   0  0  0  0  0  0  0  0  0  0  0  0
   29.7750  -21.0991   -5.2275 C   0  0  0  0  0  0  0  0  0  0  0  0
   29.0836  -21.3645   -6.3812 C   0  0  0  0  0  0  0  0  0  0  0  0
   28.0677  -20.5879   -6.8827 C   0  0  0  0  0  0  0  0  0  0  0  0
   25.1613  -20.3647   -9.7355 C   0  0  0  0  0  0  0  0  0  0  0  0
   24.0216  -20.8823   -9.0995 O   0  0  0  0  0  0  0  0  0  0  0  0
   25.3011  -19.1327   -9.9454 O   0  0  0  0  0  0  0  0  0  0  0  0
  2  1  1  6
  2  3  1  0
  2  8  1  0
  4  5  1  0
  4  3  1  0
  6  5  1  0
  7  6  1  0
  8  9  2  0
 10 11  1  0
 12 11  1  6
 12 14  1  0
 13 12  1  0
 13  8  1  0
 14 15  2  0
 16 17  1  0
 16 14  1  0
 17 28  1  0
 17 18  1  1
 19 27  1  0
 19 18  1  0
 20 19  2  0
 21 20  1  0
 21 22  1  0
 22 27  2  0
 23 22  1  0
 23 24  2  0
 24 25  1  0
 25 26  2  0
 27 26  1  0
 28 30  2  0
 28 29  1  0
M  END
$$$$
