KSW.pdb
     RDKit          3D

 30 31  0  0  1  0  0  0  0  0999 V2000
   27.1375  -21.3848  -17.2592 N   0  0  0  0  0  0  0  0  0  0  0  0
   28.2431  -21.7529  -16.4720 C   0  0  1  0  0  0  0  0  0  0  0  0
   29.5456  -21.5612  -17.1567 C   0  0  0  0  0  0  0  0  0  0  0  0
   29.9423  -22.3813  -18.2816 C   0  0  0  0  0  0  0  0  0  0  0  0
   29.1137  -23.2393  -19.0943 C   0  0  0  0  0  0  0  0  0  0  0  0
   29.5827  -24.0630  -20.2042 C   0  0  0  0  0  0  0  0  0  0  0  0
   28.5420  -24.9324  -20.7628 N   0  0  0  0  0  0  0  0  0  0  0  0
   28.2300  -21.1188  -15.1079 C   0  0  0  0  0  0  0  0  0  0  0  0
   29.2928  -21.1299  -14.4360 O   0  0  0  0  0  0  0  0  0  0  0  0
   25.0960  -18.6734  -13.6254 O   0  0  0  0  0  0  0  0  0  0  0  0
   26.4347  -18.5922  -13.2492 C   0  0  0  0  0  0  0  0  0  0  0  0
   27.0703  -19.9447  -13.2044 C   0  0  2  0  0  0  0  0  0  0  0  0
   27.1013  -20.5103  -14.5295 N   0  0  0  0  0  0  0  0  0  0  0  0
   26.4775  -20.8391  -12.1990 C   0  0  0  0  0  0  0  0  0  0  0  0
   25.7395  -21.7780  -12.5435 O   0  0  0  0  0  0  0  0  0  0  0  0
   26.7481  -20.6313  -10.8276 N   0  0  0  0  0  0  0  0  0  0  0  0
   26.1220  -21.4243   -9.7703 C   0  0  1  0  0  0  0  0  0  0  0  0
   27.2070  -21.6985   -8.7554 C   0  0  0  0  0  0  0  0  0  0  0  0
   27.5242  -20.5728   -7.8697 C   0  0  0  0  0  0  0  0  0  0  0  0
   27.0307  -19.2660   -8.0067 C   0  0  0  0  0  0  0  0  0  0  0  0
   27.4845  -18.5007   -7.0021 N   0  0  0  0  0  0  0  0  0  0  0  0
   28.2612  -19.2517   -6.2047 C   0  0  0  0  0  0  0  0  0  0  0  0
   28.9589  -18.9319   -5.0612 C   0  0  0  0  0  0  0  0  0  0  0  0
   29.7202  -19.8605   -4.3874 C   0  0  0  0  0  0  0  0  0  0  0  0
   29.7645  -21.1552   -4.9062 C   0  0  0  0  0  0  0  0  0  0  0  0
   29.0596  -21.4447   -6.0458 C   0  0  0  0  0  0  0  0  0  0  0  0
   28.2900  -20.5445   -6.7415 C   0  0  0  0  0  0  0  0  0  0  0  0
   24.9565  -20.7792   -9.1647 C   0  0  0  0  0  0  0  0  0  0  0  0
   24.6086  -19.4745   -9.5499 O   0  0  0  0  0  0  0  0  0  0  0  0
   24.2922  -21.4167   -8.3082 O   0  0  0  0  0  0  0  0  0  0  0  0
  2  1  1  6
  2  3  1  0
  2  8  1  0
  4  5  1  0
  4  3  1  0
  6  5  1  0
  7  6  1  0
  8  9  2  0
 10 11  1  0
 12 11  1  6
 12 14  1  0
 13 12  1  0
 13  8  1  0
 14 15  2  0
 16 17  1  0
 16 14  1  0
 17 28  1  0
 17 18  1  1
 19 27  1  0
 19 18  1  0
 20 19  2  0
 21 20  1  0
 21 22  1  0
 22 27  2  0
 23 22  1  0
 23 24  2  0
 24 25  1  0
 25 26  2  0
 27 26  1  0
 28 30  2  0
 28 29  1  0
M  END
$$$$
