KSW.pdb
     RDKit          3D

 30 31  0  0  1  0  0  0  0  0999 V2000
   27.3893  -21.7482  -17.6777 N   0  0  0  0  0  0  0  0  0  0  0  0
   28.3525  -22.2136  -16.7650 C   0  0  1  0  0  0  0  0  0  0  0  0
   29.7292  -22.2347  -17.3187 C   0  0  0  0  0  0  0  0  0  0  0  0
   29.9758  -22.3223  -18.7423 C   0  0  0  0  0  0  0  0  0  0  0  0
   30.2396  -23.5030  -19.5295 C   0  0  0  0  0  0  0  0  0  0  0  0
   31.5445  -23.8971  -20.0511 C   0  0  0  0  0  0  0  0  0  0  0  0
   31.7495  -23.5158  -21.4523 N   0  0  0  0  0  0  0  0  0  0  0  0
   28.2943  -21.5067  -15.4384 C   0  0  0  0  0  0  0  0  0  0  0  0
   29.1218  -21.8371  -14.5510 O   0  0  0  0  0  0  0  0  0  0  0  0
   25.2179  -18.7057  -14.1963 O   0  0  0  0  0  0  0  0  0  0  0  0
   26.5839  -18.5300  -13.9880 C   0  0  0  0  0  0  0  0  0  0  0  0
   27.2848  -19.8422  -13.8393 C   0  0  2  0  0  0  0  0  0  0  0  0
   27.3703  -20.4945  -15.1215 N   0  0  0  0  0  0  0  0  0  0  0  0
   26.7172  -20.6950  -12.7845 C   0  0  0  0  0  0  0  0  0  0  0  0
   25.9511  -21.6310  -13.0709 O   0  0  0  0  0  0  0  0  0  0  0  0
   27.0444  -20.4501  -11.4316 N   0  0  0  0  0  0  0  0  0  0  0  0
   26.4450  -21.1974  -10.3267 C   0  0  1  0  0  0  0  0  0  0  0  0
   27.5095  -21.2900   -9.2587 C   0  0  0  0  0  0  0  0  0  0  0  0
   27.1601  -20.6597   -7.9808 C   0  0  0  0  0  0  0  0  0  0  0  0
   25.8623  -20.3156   -7.5717 C   0  0  0  0  0  0  0  0  0  0  0  0
   25.8973  -19.8009   -6.3329 N   0  0  0  0  0  0  0  0  0  0  0  0
   27.1704  -19.7902   -5.9061 C   0  0  0  0  0  0  0  0  0  0  0  0
   27.7230  -19.3561   -4.7217 C   0  0  0  0  0  0  0  0  0  0  0  0
   29.0771  -19.4213   -4.4813 C   0  0  0  0  0  0  0  0  0  0  0  0
   29.8854  -19.9484   -5.4894 C   0  0  0  0  0  0  0  0  0  0  0  0
   29.3075  -20.3730   -6.6579 C   0  0  0  0  0  0  0  0  0  0  0  0
   27.9621  -20.3240   -6.9302 C   0  0  0  0  0  0  0  0  0  0  0  0
   25.2091  -20.6018   -9.8174 C   0  0  0  0  0  0  0  0  0  0  0  0
   24.3697  -21.3558   -8.9818 O   0  0  0  0  0  0  0  0  0  0  0  0
   24.9301  -19.4202  -10.1451 O   0  0  0  0  0  0  0  0  0  0  0  0
  2  1  1  6
  2  3  1  0
  2  8  1  0
  4  5  1  0
  4  3  1  0
  6  5  1  0
  7  6  1  0
  8  9  2  0
 10 11  1  0
 12 11  1  6
 12 14  1  0
 13 12  1  0
 13  8  1  0
 14 15  2  0
 16 17  1  0
 16 14  1  0
 17 28  1  0
 17 18  1  1
 19 27  1  0
 19 18  1  0
 20 19  2  0
 21 20  1  0
 21 22  1  0
 22 27  2  0
 23 22  1  0
 23 24  2  0
 24 25  1  0
 25 26  2  0
 27 26  1  0
 28 30  2  0
 28 29  1  0
M  END
$$$$
