KSW.pdb
     RDKit          3D

 30 31  0  0  1  0  0  0  0  0999 V2000
   25.4788  -18.0577  -14.9052 N   0  0  0  0  0  0  0  0  0  0  0  0
   24.5837  -19.0043  -14.3759 C   0  0  1  0  0  0  0  0  0  0  0  0
   23.6881  -19.6048  -15.3954 C   0  0  0  0  0  0  0  0  0  0  0  0
   22.8230  -18.7910  -16.2228 C   0  0  0  0  0  0  0  0  0  0  0  0
   22.6120  -17.3646  -16.1574 C   0  0  0  0  0  0  0  0  0  0  0  0
   21.6119  -16.6223  -16.9183 C   0  0  0  0  0  0  0  0  0  0  0  0
   20.3162  -16.5281  -16.2377 N   0  0  0  0  0  0  0  0  0  0  0  0
   25.2651  -20.0548  -13.5421 C   0  0  0  0  0  0  0  0  0  0  0  0
   24.5598  -20.9679  -13.0422 O   0  0  0  0  0  0  0  0  0  0  0  0
   29.4404  -20.0432  -12.6848 O   0  0  0  0  0  0  0  0  0  0  0  0
   28.7273  -21.2202  -12.9006 C   0  0  0  0  0  0  0  0  0  0  0  0
   27.3022  -21.0794  -12.4711 C   0  0  2  0  0  0  0  0  0  0  0  0
   26.6472  -20.0844  -13.2820 N   0  0  0  0  0  0  0  0  0  0  0  0
   27.1435  -20.8556  -11.0265 C   0  0  0  0  0  0  0  0  0  0  0  0
   27.9701  -20.1732  -10.3971 O   0  0  0  0  0  0  0  0  0  0  0  0
   26.0418  -21.4206  -10.3453 N   0  0  0  0  0  0  0  0  0  0  0  0
   25.8576  -21.2936   -8.9001 C   0  0  1  0  0  0  0  0  0  0  0  0
   25.7922  -19.8113   -8.6158 C   0  0  0  0  0  0  0  0  0  0  0  0
   26.8594  -19.3001   -7.7487 C   0  0  0  0  0  0  0  0  0  0  0  0
   27.6334  -18.1564   -7.9996 C   0  0  0  0  0  0  0  0  0  0  0  0
   28.4848  -17.9512   -6.9828 N   0  0  0  0  0  0  0  0  0  0  0  0
   28.3045  -18.9171   -6.0676 C   0  0  0  0  0  0  0  0  0  0  0  0
   28.9332  -19.1515   -4.8650 C   0  0  0  0  0  0  0  0  0  0  0  0
   28.6043  -20.2239   -4.0666 C   0  0  0  0  0  0  0  0  0  0  0  0
   27.5993  -21.0796   -4.5197 C   0  0  0  0  0  0  0  0  0  0  0  0
   26.9907  -20.8213   -5.7207 C   0  0  0  0  0  0  0  0  0  0  0  0
   27.2926  -19.7614   -6.5406 C   0  0  0  0  0  0  0  0  0  0  0  0
   24.6805  -22.0005   -8.3939 C   0  0  0  0  0  0  0  0  0  0  0  0
   24.6129  -22.3497   -7.0357 O   0  0  0  0  0  0  0  0  0  0  0  0
   23.7532  -22.2783   -9.1966 O   0  0  0  0  0  0  0  0  0  0  0  0
  2  1  1  6
  2  3  1  0
  2  8  1  0
  4  5  1  0
  4  3  1  0
  6  5  1  0
  7  6  1  0
  8  9  2  0
 10 11  1  0
 12 11  1  1
 12 14  1  0
 13 12  1  0
 13  8  1  0
 14 15  2  0
 16 17  1  0
 16 14  1  0
 17 28  1  0
 17 18  1  6
 19 27  1  0
 19 18  1  0
 20 19  2  0
 21 20  1  0
 21 22  1  0
 22 27  2  0
 23 22  1  0
 23 24  2  0
 24 25  1  0
 25 26  2  0
 27 26  1  0
 28 30  2  0
 28 29  1  0
M  END
$$$$
