KSW.pdb
     RDKit          3D

 30 31  0  0  1  0  0  0  0  0999 V2000
   26.7802  -21.5930  -17.1335 N   0  0  0  0  0  0  0  0  0  0  0  0
   27.9602  -21.8392  -16.4094 C   0  0  1  0  0  0  0  0  0  0  0  0
   29.1942  -21.4798  -17.1511 C   0  0  0  0  0  0  0  0  0  0  0  0
   29.5421  -22.1164  -18.4037 C   0  0  0  0  0  0  0  0  0  0  0  0
   29.0936  -23.3917  -18.9093 C   0  0  0  0  0  0  0  0  0  0  0  0
   29.4821  -23.9781  -20.1882 C   0  0  0  0  0  0  0  0  0  0  0  0
   28.9675  -25.3373  -20.3844 N   0  0  0  0  0  0  0  0  0  0  0  0
   27.9404  -21.2356  -15.0316 C   0  0  0  0  0  0  0  0  0  0  0  0
   28.9801  -21.3203  -14.3295 O   0  0  0  0  0  0  0  0  0  0  0  0
   24.6869  -18.9352  -13.4611 O   0  0  0  0  0  0  0  0  0  0  0  0
   26.0364  -18.6945  -13.2135 C   0  0  0  0  0  0  0  0  0  0  0  0
   26.8167  -19.9689  -13.1662 C   0  0  2  0  0  0  0  0  0  0  0  0
   26.8296  -20.5785  -14.4719 N   0  0  0  0  0  0  0  0  0  0  0  0
   26.3859  -20.8820  -12.0972 C   0  0  0  0  0  0  0  0  0  0  0  0
   25.6320  -21.8382  -12.3469 O   0  0  0  0  0  0  0  0  0  0  0  0
   26.8319  -20.6724  -10.7726 N   0  0  0  0  0  0  0  0  0  0  0  0
   26.3286  -21.4463   -9.6384 C   0  0  1  0  0  0  0  0  0  0  0  0
   27.4814  -21.5654   -8.6693 C   0  0  0  0  0  0  0  0  0  0  0  0
   27.6126  -20.4510   -7.7242 C   0  0  0  0  0  0  0  0  0  0  0  0
   27.0426  -19.1783   -7.8833 C   0  0  0  0  0  0  0  0  0  0  0  0
   27.3223  -18.4176   -6.8138 N   0  0  0  0  0  0  0  0  0  0  0  0
   28.0575  -19.1387   -5.9519 C   0  0  0  0  0  0  0  0  0  0  0  0
   28.5962  -18.8097   -4.7280 C   0  0  0  0  0  0  0  0  0  0  0  0
   29.3432  -19.7047   -3.9953 C   0  0  0  0  0  0  0  0  0  0  0  0
   29.5412  -20.9747   -4.5388 C   0  0  0  0  0  0  0  0  0  0  0  0
   28.9927  -21.2741   -5.7590 C   0  0  0  0  0  0  0  0  0  0  0  0
   28.2421  -20.4072   -6.5151 C   0  0  0  0  0  0  0  0  0  0  0  0
   25.1430  -20.8629   -9.0096 C   0  0  0  0  0  0  0  0  0  0  0  0
   24.3130  -21.6691   -8.2143 O   0  0  0  0  0  0  0  0  0  0  0  0
   24.8977  -19.6444   -9.2004 O   0  0  0  0  0  0  0  0  0  0  0  0
  2  1  1  6
  2  3  1  0
  2  8  1  0
  4  5  1  0
  4  3  1  0
  6  5  1  0
  7  6  1  0
  8  9  2  0
 10 11  1  0
 12 11  1  6
 12 14  1  0
 13 12  1  0
 13  8  1  0
 14 15  2  0
 16 17  1  0
 16 14  1  0
 17 28  1  0
 17 18  1  1
 19 27  1  0
 19 18  1  0
 20 19  2  0
 21 20  1  0
 21 22  1  0
 22 27  2  0
 23 22  1  0
 23 24  2  0
 24 25  1  0
 25 26  2  0
 27 26  1  0
 28 30  2  0
 28 29  1  0
M  END
$$$$
