KSW.pdb
     RDKit          3D

 30 31  0  0  1  0  0  0  0  0999 V2000
   28.1564  -22.4129  -17.9955 N   0  0  0  0  0  0  0  0  0  0  0  0
   28.6804  -22.6799  -16.7182 C   0  0  1  0  0  0  0  0  0  0  0  0
   30.1624  -22.7516  -16.6909 C   0  0  0  0  0  0  0  0  0  0  0  0
   30.8910  -23.7395  -17.4580 C   0  0  0  0  0  0  0  0  0  0  0  0
   30.8628  -23.9575  -18.8846 C   0  0  0  0  0  0  0  0  0  0  0  0
   32.0304  -23.9764  -19.7601 C   0  0  0  0  0  0  0  0  0  0  0  0
   31.6952  -24.1948  -21.1710 N   0  0  0  0  0  0  0  0  0  0  0  0
   28.1459  -21.7548  -15.6591 C   0  0  0  0  0  0  0  0  0  0  0  0
   28.8925  -20.8329  -15.2420 O   0  0  0  0  0  0  0  0  0  0  0  0
   24.0342  -21.5081  -14.5125 O   0  0  0  0  0  0  0  0  0  0  0  0
   24.9642  -20.4732  -14.5798 C   0  0  0  0  0  0  0  0  0  0  0  0
   26.3174  -20.9282  -14.1360 C   0  0  2  0  0  0  0  0  0  0  0  0
   26.8588  -21.8524  -15.1000 N   0  0  0  0  0  0  0  0  0  0  0  0
   26.3427  -21.4378  -12.7569 C   0  0  0  0  0  0  0  0  0  0  0  0
   26.4146  -22.6586  -12.5344 O   0  0  0  0  0  0  0  0  0  0  0  0
   26.2848  -20.5331  -11.6728 N   0  0  0  0  0  0  0  0  0  0  0  0
   26.1404  -20.9718  -10.2852 C   0  0  1  0  0  0  0  0  0  0  0  0
   27.4014  -20.5369   -9.5760 C   0  0  0  0  0  0  0  0  0  0  0  0
   27.2237  -20.1723   -8.1661 C   0  0  0  0  0  0  0  0  0  0  0  0
   25.9994  -19.8604   -7.5548 C   0  0  0  0  0  0  0  0  0  0  0  0
   26.1915  -19.6187   -6.2489 N   0  0  0  0  0  0  0  0  0  0  0  0
   27.4981  -19.7579   -5.9721 C   0  0  0  0  0  0  0  0  0  0  0  0
   28.1930  -19.6080   -4.7927 C   0  0  0  0  0  0  0  0  0  0  0  0
   29.5565  -19.7861   -4.7216 C   0  0  0  0  0  0  0  0  0  0  0  0
   30.2233  -20.1280   -5.8988 C   0  0  0  0  0  0  0  0  0  0  0  0
   29.5055  -20.2708   -7.0580 C   0  0  0  0  0  0  0  0  0  0  0  0
   28.1464  -20.1023   -7.1643 C   0  0  0  0  0  0  0  0  0  0  0  0
   24.9380  -20.4571   -9.6289 C   0  0  0  0  0  0  0  0  0  0  0  0
   24.4598  -21.0851   -8.4678 O   0  0  0  0  0  0  0  0  0  0  0  0
   24.3607  -19.4573  -10.1273 O   0  0  0  0  0  0  0  0  0  0  0  0
  2  1  1  6
  2  3  1  0
  2  8  1  0
  4  5  1  0
  4  3  1  0
  6  5  1  0
  7  6  1  0
  8  9  2  0
 10 11  1  0
 12 11  1  6
 12 14  1  0
 13 12  1  0
 13  8  1  0
 14 15  2  0
 16 17  1  0
 16 14  1  0
 17 28  1  0
 17 18  1  1
 19 27  1  0
 19 18  1  0
 20 19  2  0
 21 20  1  0
 21 22  1  0
 22 27  2  0
 23 22  1  0
 23 24  2  0
 24 25  1  0
 25 26  2  0
 27 26  1  0
 28 30  2  0
 28 29  1  0
M  END
$$$$
