KSW.pdb
     RDKit          3D

 30 31  0  0  1  0  0  0  0  0999 V2000
   27.7220  -21.8198  -16.5984 N   0  0  0  0  0  0  0  0  0  0  0  0
   27.3776  -20.8339  -15.6567 C   0  0  1  0  0  0  0  0  0  0  0  0
   26.8677  -19.5830  -16.2709 C   0  0  0  0  0  0  0  0  0  0  0  0
   27.5964  -18.8961  -17.3160 C   0  0  0  0  0  0  0  0  0  0  0  0
   29.0173  -18.6567  -17.4014 C   0  0  0  0  0  0  0  0  0  0  0  0
   29.6891  -17.9304  -18.4744 C   0  0  0  0  0  0  0  0  0  0  0  0
   31.1478  -17.8933  -18.3262 N   0  0  0  0  0  0  0  0  0  0  0  0
   26.4571  -21.3445  -14.5819 C   0  0  0  0  0  0  0  0  0  0  0  0
   25.4817  -22.0605  -14.9243 O   0  0  0  0  0  0  0  0  0  0  0  0
   25.1132  -20.9680   -9.8994 O   0  0  0  0  0  0  0  0  0  0  0  0
   26.0998  -20.8556  -10.8762 C   0  0  0  0  0  0  0  0  0  0  0  0
   25.5618  -21.1802  -12.2328 C   0  0  2  0  0  0  0  0  0  0  0  0
   26.6149  -21.0730  -13.2107 N   0  0  0  0  0  0  0  0  0  0  0  0
   24.3554  -20.4166  -12.5843 C   0  0  0  0  0  0  0  0  0  0  0  0
   24.4213  -19.1952  -12.8051 O   0  0  0  0  0  0  0  0  0  0  0  0
   23.1083  -21.0754  -12.6727 N   0  0  0  0  0  0  0  0  0  0  0  0
   21.9014  -20.4174  -13.1718 C   0  0  1  0  0  0  0  0  0  0  0  0
   22.2281  -19.9505  -14.5709 C   0  0  0  0  0  0  0  0  0  0  0  0
   21.0945  -19.3948  -15.3181 C   0  0  0  0  0  0  0  0  0  0  0  0
   20.1034  -18.5550  -14.7866 C   0  0  0  0  0  0  0  0  0  0  0  0
   19.2449  -18.1960  -15.7535 N   0  0  0  0  0  0  0  0  0  0  0  0
   19.6297  -18.7675  -16.9061 C   0  0  0  0  0  0  0  0  0  0  0  0
   19.0802  -18.7164  -18.1678 C   0  0  0  0  0  0  0  0  0  0  0  0
   19.6301  -19.3969  -19.2311 C   0  0  0  0  0  0  0  0  0  0  0  0
   20.7783  -20.1517  -18.9879 C   0  0  0  0  0  0  0  0  0  0  0  0
   21.3033  -20.1837  -17.7219 C   0  0  0  0  0  0  0  0  0  0  0  0
   20.7822  -19.5168  -16.6400 C   0  0  0  0  0  0  0  0  0  0  0  0
   20.7129  -21.2708  -13.1431 C   0  0  0  0  0  0  0  0  0  0  0  0
   19.4615  -20.7062  -12.8489 O   0  0  0  0  0  0  0  0  0  0  0  0
   20.8461  -22.4976  -13.3849 O   0  0  0  0  0  0  0  0  0  0  0  0
  2  1  1  6
  2  3  1  0
  2  8  1  0
  4  5  1  0
  4  3  1  0
  6  5  1  0
  7  6  1  0
  8  9  2  0
 10 11  1  0
 12 11  1  1
 12 14  1  0
 13 12  1  0
 13  8  1  0
 14 15  2  0
 16 17  1  0
 16 14  1  0
 17 28  1  0
 17 18  1  6
 19 27  1  0
 19 18  1  0
 20 19  2  0
 21 20  1  0
 21 22  1  0
 22 27  2  0
 23 22  1  0
 23 24  2  0
 24 25  1  0
 25 26  2  0
 27 26  1  0
 28 30  2  0
 28 29  1  0
M  END
$$$$
