KSW.pdb
     RDKit          3D

 30 31  0  0  1  0  0  0  0  0999 V2000
   26.9129  -18.6391  -20.1162 N   0  0  0  0  0  0  0  0  0  0  0  0
   26.6371  -18.1881  -18.8132 C   0  0  1  0  0  0  0  0  0  0  0  0
   26.8636  -16.7328  -18.6316 C   0  0  0  0  0  0  0  0  0  0  0  0
   28.0460  -16.0763  -19.1474 C   0  0  0  0  0  0  0  0  0  0  0  0
   29.4258  -16.4646  -18.9779 C   0  0  0  0  0  0  0  0  0  0  0  0
   30.5792  -15.7339  -19.4938 C   0  0  0  0  0  0  0  0  0  0  0  0
   30.2933  -14.3242  -19.7799 N   0  0  0  0  0  0  0  0  0  0  0  0
   25.2787  -18.6080  -18.3216 C   0  0  0  0  0  0  0  0  0  0  0  0
   24.2666  -18.0638  -18.8319 O   0  0  0  0  0  0  0  0  0  0  0  0
   24.6813  -21.1303  -14.9511 O   0  0  0  0  0  0  0  0  0  0  0  0
   23.8608  -21.2338  -16.0720 C   0  0  0  0  0  0  0  0  0  0  0  0
   23.7683  -19.9315  -16.8006 C   0  0  2  0  0  0  0  0  0  0  0  0
   25.0632  -19.5747  -17.3227 N   0  0  0  0  0  0  0  0  0  0  0  0
   23.1386  -18.8614  -16.0130 C   0  0  0  0  0  0  0  0  0  0  0  0
   23.8253  -17.9494  -15.5213 O   0  0  0  0  0  0  0  0  0  0  0  0
   21.7397  -18.8676  -15.8119 N   0  0  0  0  0  0  0  0  0  0  0  0
   21.0490  -17.8380  -15.0364 C   0  0  1  0  0  0  0  0  0  0  0  0
   21.3373  -16.5278  -15.7311 C   0  0  0  0  0  0  0  0  0  0  0  0
   20.6942  -16.3670  -17.0398 C   0  0  0  0  0  0  0  0  0  0  0  0
   19.3545  -16.6685  -17.3302 C   0  0  0  0  0  0  0  0  0  0  0  0
   19.0857  -16.3606  -18.6084 N   0  0  0  0  0  0  0  0  0  0  0  0
   20.1978  -15.8668  -19.1763 C   0  0  0  0  0  0  0  0  0  0  0  0
   20.4373  -15.4214  -20.4572 C   0  0  0  0  0  0  0  0  0  0  0  0
   21.6731  -14.9578  -20.8493 C   0  0  0  0  0  0  0  0  0  0  0  0
   22.6914  -14.9532  -19.8952 C   0  0  0  0  0  0  0  0  0  0  0  0
   22.4239  -15.4023  -18.6278 C   0  0  0  0  0  0  0  0  0  0  0  0
   21.2042  -15.8694  -18.2027 C   0  0  0  0  0  0  0  0  0  0  0  0
   19.6124  -18.0765  -14.8923 C   0  0  0  0  0  0  0  0  0  0  0  0
   19.0275  -19.1859  -15.5236 O   0  0  0  0  0  0  0  0  0  0  0  0
   18.9349  -17.2742  -14.2006 O   0  0  0  0  0  0  0  0  0  0  0  0
  2  1  1  6
  2  3  1  0
  2  8  1  0
  4  5  1  0
  4  3  1  0
  6  5  1  0
  7  6  1  0
  8  9  2  0
 10 11  1  0
 12 11  1  1
 12 14  1  0
 13 12  1  0
 13  8  1  0
 14 15  2  0
 16 17  1  0
 16 14  1  0
 17 28  1  0
 17 18  1  6
 19 27  1  0
 19 18  1  0
 20 19  2  0
 21 20  1  0
 21 22  1  0
 22 27  2  0
 23 22  1  0
 23 24  2  0
 24 25  1  0
 25 26  2  0
 27 26  1  0
 28 30  2  0
 28 29  1  0
M  END
$$$$
