KSW.pdb
     RDKit          3D

 30 31  0  0  1  0  0  0  0  0999 V2000
   23.0119  -18.6277  -17.1044 N   0  0  0  0  0  0  0  0  0  0  0  0
   23.5267  -18.0538  -15.9284 C   0  0  1  0  0  0  0  0  0  0  0  0
   22.5483  -17.1993  -15.2109 C   0  0  0  0  0  0  0  0  0  0  0  0
   21.7347  -16.2249  -15.9064 C   0  0  0  0  0  0  0  0  0  0  0  0
   22.1606  -15.0035  -16.5469 C   0  0  0  0  0  0  0  0  0  0  0  0
   21.2756  -14.0143  -17.1539 C   0  0  0  0  0  0  0  0  0  0  0  0
   21.9929  -12.8916  -17.7671 N   0  0  0  0  0  0  0  0  0  0  0  0
   24.1644  -19.0631  -15.0130 C   0  0  0  0  0  0  0  0  0  0  0  0
   23.4181  -19.7382  -14.2591 O   0  0  0  0  0  0  0  0  0  0  0  0
   28.2909  -19.5058  -14.8202 O   0  0  0  0  0  0  0  0  0  0  0  0
   27.5142  -20.6478  -14.6393 C   0  0  0  0  0  0  0  0  0  0  0  0
   26.1596  -20.3059  -14.1069 C   0  0  2  0  0  0  0  0  0  0  0  0
   25.5486  -19.3038  -14.9430 N   0  0  0  0  0  0  0  0  0  0  0  0
   26.1610  -19.9564  -12.6786 C   0  0  0  0  0  0  0  0  0  0  0  0
   26.1214  -18.7676  -12.3178 O   0  0  0  0  0  0  0  0  0  0  0  0
   26.2078  -20.9799  -11.7053 N   0  0  0  0  0  0  0  0  0  0  0  0
   26.7498  -20.7691  -10.3634 C   0  0  1  0  0  0  0  0  0  0  0  0
   25.7042  -19.9816   -9.6092 C   0  0  0  0  0  0  0  0  0  0  0  0
   25.8732  -19.9662   -8.1520 C   0  0  0  0  0  0  0  0  0  0  0  0
   24.9999  -20.5572   -7.2257 C   0  0  0  0  0  0  0  0  0  0  0  0
   25.4776  -20.3943   -5.9823 N   0  0  0  0  0  0  0  0  0  0  0  0
   26.6348  -19.7165   -6.0500 C   0  0  0  0  0  0  0  0  0  0  0  0
   27.4956  -19.2966   -5.0605 C   0  0  0  0  0  0  0  0  0  0  0  0
   28.6434  -18.5905   -5.3431 C   0  0  0  0  0  0  0  0  0  0  0  0
   28.9122  -18.3087   -6.6832 C   0  0  0  0  0  0  0  0  0  0  0  0
   28.0375  -18.7395   -7.6469 C   0  0  0  0  0  0  0  0  0  0  0  0
   26.8858  -19.4463   -7.4007 C   0  0  0  0  0  0  0  0  0  0  0  0
   27.1052  -22.0092   -9.6724 C   0  0  0  0  0  0  0  0  0  0  0  0
   28.2517  -22.0471   -8.8628 O   0  0  0  0  0  0  0  0  0  0  0  0
   26.3673  -23.0161   -9.8240 O   0  0  0  0  0  0  0  0  0  0  0  0
  2  1  1  6
  2  3  1  0
  2  8  1  0
  4  5  1  0
  4  3  1  0
  6  5  1  0
  7  6  1  0
  8  9  2  0
 10 11  1  0
 12 11  1  6
 12 14  1  0
 13 12  1  0
 13  8  1  0
 14 15  2  0
 16 17  1  0
 16 14  1  0
 17 28  1  0
 17 18  1  1
 19 27  1  0
 19 18  1  0
 20 19  2  0
 21 20  1  0
 21 22  1  0
 22 27  2  0
 23 22  1  0
 23 24  2  0
 24 25  1  0
 25 26  2  0
 27 26  1  0
 28 30  2  0
 28 29  1  0
M  END
$$$$
