KSW.pdb
     RDKit          3D

 30 31  0  0  1  0  0  0  0  0999 V2000
   28.2453  -27.9527  -16.3801 N   0  0  0  0  0  0  0  0  0  0  0  0
   28.8431  -26.8019  -16.9241 C   0  0  1  0  0  0  0  0  0  0  0  0
   29.3591  -26.9993  -18.3014 C   0  0  0  0  0  0  0  0  0  0  0  0
   30.4962  -27.8527  -18.5732 C   0  0  0  0  0  0  0  0  0  0  0  0
   30.4931  -29.2308  -19.0025 C   0  0  0  0  0  0  0  0  0  0  0  0
   30.9870  -30.3605  -18.2214 C   0  0  0  0  0  0  0  0  0  0  0  0
   30.9176  -31.6376  -18.9391 N   0  0  0  0  0  0  0  0  0  0  0  0
   27.9677  -25.5825  -16.8245 C   0  0  0  0  0  0  0  0  0  0  0  0
   26.7214  -25.7457  -16.7892 O   0  0  0  0  0  0  0  0  0  0  0  0
   29.4391  -21.5914  -16.9469 O   0  0  0  0  0  0  0  0  0  0  0  0
   28.4463  -21.9734  -16.0476 C   0  0  0  0  0  0  0  0  0  0  0  0
   27.6239  -23.0979  -16.5904 C   0  0  2  0  0  0  0  0  0  0  0  0
   28.4527  -24.2633  -16.7680 N   0  0  0  0  0  0  0  0  0  0  0  0
   26.8549  -22.7369  -17.7907 C   0  0  0  0  0  0  0  0  0  0  0  0
   27.3618  -22.8375  -18.9212 O   0  0  0  0  0  0  0  0  0  0  0  0
   25.5271  -22.2711  -17.6602 N   0  0  0  0  0  0  0  0  0  0  0  0
   24.7054  -21.8961  -18.8103 C   0  0  1  0  0  0  0  0  0  0  0  0
   24.5985  -23.1344  -19.6691 C   0  0  0  0  0  0  0  0  0  0  0  0
   23.7862  -24.2146  -19.0985 C   0  0  0  0  0  0  0  0  0  0  0  0
   22.5455  -24.0506  -18.4632 C   0  0  0  0  0  0  0  0  0  0  0  0
   22.0576  -25.2473  -18.1020 N   0  0  0  0  0  0  0  0  0  0  0  0
   22.9295  -26.1986  -18.4736 C   0  0  0  0  0  0  0  0  0  0  0  0
   22.8931  -27.5669  -18.3223 C   0  0  0  0  0  0  0  0  0  0  0  0
   23.9120  -28.3778  -18.7697 C   0  0  0  0  0  0  0  0  0  0  0  0
   24.9995  -27.7619  -19.3904 C   0  0  0  0  0  0  0  0  0  0  0  0
   25.0083  -26.3979  -19.5275 C   0  0  0  0  0  0  0  0  0  0  0  0
   24.0096  -25.5600  -19.0948 C   0  0  0  0  0  0  0  0  0  0  0  0
   23.3903  -21.3682  -18.4450 C   0  0  0  0  0  0  0  0  0  0  0  0
   22.5519  -20.8458  -19.4428 O   0  0  0  0  0  0  0  0  0  0  0  0
   23.0439  -21.3971  -17.2365 O   0  0  0  0  0  0  0  0  0  0  0  0
  2  1  1  6
  2  3  1  0
  2  8  1  0
  4  5  1  0
  4  3  1  0
  6  5  1  0
  7  6  1  0
  8  9  2  0
 10 11  1  0
 12 11  1  6
 12 14  1  0
 13 12  1  0
 13  8  1  0
 14 15  2  0
 16 17  1  0
 16 14  1  0
 17 28  1  0
 17 18  1  6
 19 27  1  0
 19 18  1  0
 20 19  2  0
 21 20  1  0
 21 22  1  0
 22 27  2  0
 23 22  1  0
 23 24  2  0
 24 25  1  0
 25 26  2  0
 27 26  1  0
 28 30  2  0
 28 29  1  0
M  END
$$$$
