GHQ.pdb
     RDKit          3D

 24 24  0  0  1  0  0  0  0  0999 V2000
   14.5387  -11.4018    3.7593 N   0  0  0  0  0  0  0  0  0  0  0  0
   15.0182  -11.4321    5.1097 C   0  0  0  0  0  0  0  0  0  0  0  0
   15.9939  -12.5428    5.2432 C   0  0  0  0  0  0  0  0  0  0  0  0
   16.1791  -13.3309    4.2965 O   0  0  0  0  0  0  0  0  0  0  0  0
   16.7458  -12.7441    6.4476 N   0  0  0  0  0  0  0  0  0  0  0  0
   17.7088  -13.8064    6.5593 C   0  0  1  0  0  0  0  0  0  0  0  0
   18.6888  -13.5744    7.6879 C   0  0  0  0  0  0  0  0  0  0  0  0
   19.7527  -12.6344    7.3610 C   0  0  0  0  0  0  0  0  0  0  0  0
   19.9390  -12.0151    6.1488 C   0  0  0  0  0  0  0  0  0  0  0  0
   21.0261  -11.2293    6.2586 N   0  0  0  0  0  0  0  0  0  0  0  0
   21.5267  -11.3357    7.4984 C   0  0  0  0  0  0  0  0  0  0  0  0
   20.7256  -12.2111    8.1703 N   0  0  0  0  0  0  0  0  0  0  0  0
   17.0555  -15.1343    6.6692 C   0  0  0  0  0  0  0  0  0  0  0  0
   16.0235  -15.2469    7.3605 O   0  0  0  0  0  0  0  0  0  0  0  0
   16.8687  -19.6559    2.4379 N   0  0  0  0  0  0  0  0  0  0  0  0
   16.1980  -20.2990    3.4870 C   0  0  0  0  0  0  0  0  0  0  0  0
   15.5579  -21.3753    3.3649 O   0  0  0  0  0  0  0  0  0  0  0  0
   16.2541  -19.6502    4.8438 C   0  0  0  0  0  0  0  0  0  0  0  0
   16.9594  -18.3298    4.7756 C   0  0  0  0  0  0  0  0  0  0  0  0
   16.8659  -17.5921    6.0432 C   0  0  2  0  0  0  0  0  0  0  0  0
   17.5317  -16.3027    6.0319 N   0  0  0  0  0  0  0  0  0  0  0  0
   17.4846  -18.3729    7.1321 C   0  0  0  0  0  0  0  0  0  0  0  0
   16.7799  -19.4977    7.6190 O   0  0  0  0  0  0  0  0  0  0  0  0
   18.5682  -18.1693    7.6921 O   0  0  0  0  0  0  0  0  0  0  0  0
  1  2  1  0
  3  2  1  0
  3  5  1  0
  4  3  2  0
  6  5  1  0
  6  7  1  1
  8 12  1  0
  8  7  1  0
  9  8  2  0
 10  9  1  0
 10 11  1  0
 11 12  2  0
 13  6  1  0
 13 21  1  0
 14 13  2  0
 16 18  1  0
 16 15  1  0
 17 16  2  0
 19 18  1  0
 20 21  1  0
 20 19  1  6
 22 20  1  0
 23 22  1  0
 24 22  2  0
M  END
$$$$
