GHQ.pdb
     RDKit          3D

 24 24  0  0  1  0  0  0  0  0999 V2000
   21.7982  -16.9894  -19.0912 N   0  0  0  0  0  0  0  0  0  0  0  0
   21.6186  -15.5762  -19.2499 C   0  0  0  0  0  0  0  0  0  0  0  0
   22.5235  -14.8730  -18.3064 C   0  0  0  0  0  0  0  0  0  0  0  0
   22.2901  -14.8921  -17.0829 O   0  0  0  0  0  0  0  0  0  0  0  0
   23.6797  -14.1581  -18.7631 N   0  0  0  0  0  0  0  0  0  0  0  0
   24.4576  -13.3442  -17.8682 C   0  0  1  0  0  0  0  0  0  0  0  0
   25.9379  -13.4143  -18.1711 C   0  0  0  0  0  0  0  0  0  0  0  0
   26.7671  -12.6667  -17.2353 C   0  0  0  0  0  0  0  0  0  0  0  0
   27.4206  -13.1844  -16.1433 C   0  0  0  0  0  0  0  0  0  0  0  0
   28.0727  -12.1712  -15.5437 N   0  0  0  0  0  0  0  0  0  0  0  0
   27.8495  -11.0366  -16.2234 C   0  0  0  0  0  0  0  0  0  0  0  0
   27.0378  -11.3604  -17.2702 N   0  0  0  0  0  0  0  0  0  0  0  0
   23.9736  -11.9417  -17.8361 C   0  0  0  0  0  0  0  0  0  0  0  0
   23.5643  -11.4174  -18.8911 O   0  0  0  0  0  0  0  0  0  0  0  0
   21.4912   -8.9184  -12.9774 N   0  0  0  0  0  0  0  0  0  0  0  0
   21.4386   -7.8997  -13.9384 C   0  0  0  0  0  0  0  0  0  0  0  0
   20.8795   -6.7865  -13.7615 O   0  0  0  0  0  0  0  0  0  0  0  0
   22.0974   -8.1664  -15.2650 C   0  0  0  0  0  0  0  0  0  0  0  0
   22.6786   -9.5471  -15.3046 C   0  0  0  0  0  0  0  0  0  0  0  0
   23.3613   -9.8182  -16.5774 C   0  0  2  0  0  0  0  0  0  0  0  0
   23.9440  -11.1441  -16.6695 N   0  0  0  0  0  0  0  0  0  0  0  0
   24.4671   -8.8607  -16.7747 C   0  0  0  0  0  0  0  0  0  0  0  0
   24.1675   -7.6278  -17.3984 O   0  0  0  0  0  0  0  0  0  0  0  0
   25.6549   -8.9962  -16.4587 O   0  0  0  0  0  0  0  0  0  0  0  0
  1  2  1  0
  3  2  1  0
  3  5  1  0
  4  3  2  0
  6  5  1  0
  6  7  1  6
  8 12  1  0
  8  7  1  0
  9  8  2  0
 10  9  1  0
 10 11  1  0
 11 12  2  0
 13  6  1  0
 13 21  1  0
 14 13  2  0
 16 18  1  0
 16 15  1  0
 17 16  2  0
 19 18  1  0
 20 21  1  0
 20 19  1  1
 22 20  1  0
 23 22  1  0
 24 22  2  0
M  END
$$$$
