GHQ.pdb
     RDKit          3D

 24 24  0  0  1  0  0  0  0  0999 V2000
   27.3294  -18.1602  -18.9552 N   0  0  0  0  0  0  0  0  0  0  0  0
   26.7780  -17.3944  -17.8763 C   0  0  0  0  0  0  0  0  0  0  0  0
   26.2177  -18.3285  -16.8678 C   0  0  0  0  0  0  0  0  0  0  0  0
   25.8467  -19.4681  -17.2076 O   0  0  0  0  0  0  0  0  0  0  0  0
   26.0858  -17.9576  -15.4889 N   0  0  0  0  0  0  0  0  0  0  0  0
   25.6200  -18.8957  -14.5033 C   0  0  1  0  0  0  0  0  0  0  0  0
   26.0891  -18.5420  -13.1094 C   0  0  0  0  0  0  0  0  0  0  0  0
   25.8155  -19.5721  -12.1163 C   0  0  0  0  0  0  0  0  0  0  0  0
   25.2057  -20.7803  -12.3526 C   0  0  0  0  0  0  0  0  0  0  0  0
   25.1421  -21.4379  -11.1800 N   0  0  0  0  0  0  0  0  0  0  0  0
   25.6915  -20.6822  -10.2176 C   0  0  0  0  0  0  0  0  0  0  0  0
   26.1046  -19.5278  -10.8143 N   0  0  0  0  0  0  0  0  0  0  0  0
   24.1466  -19.0654  -14.5559 C   0  0  0  0  0  0  0  0  0  0  0  0
   23.4203  -18.0519  -14.5844 O   0  0  0  0  0  0  0  0  0  0  0  0
   20.5611  -24.2169  -14.6046 N   0  0  0  0  0  0  0  0  0  0  0  0
   19.6815  -23.2954  -15.1888 C   0  0  0  0  0  0  0  0  0  0  0  0
   18.4697  -23.5293  -15.4339 O   0  0  0  0  0  0  0  0  0  0  0  0
   20.2340  -21.9407  -15.5417 C   0  0  0  0  0  0  0  0  0  0  0  0
   21.6929  -21.8560  -15.2098 C   0  0  0  0  0  0  0  0  0  0  0  0
   22.0677  -20.5210  -14.7229 C   0  0  2  0  0  0  0  0  0  0  0  0
   23.4976  -20.3209  -14.5761 N   0  0  0  0  0  0  0  0  0  0  0  0
   21.4729  -20.2795  -13.3939 C   0  0  0  0  0  0  0  0  0  0  0  0
   22.2053  -20.6964  -12.2588 O   0  0  0  0  0  0  0  0  0  0  0  0
   20.3883  -19.7462  -13.1325 O   0  0  0  0  0  0  0  0  0  0  0  0
  1  2  1  0
  3  2  1  0
  3  5  1  0
  4  3  2  0
  6  5  1  0
  6  7  1  1
  8 12  1  0
  8  7  1  0
  9  8  2  0
 10  9  1  0
 10 11  1  0
 11 12  2  0
 13  6  1  0
 13 21  1  0
 14 13  2  0
 16 18  1  0
 16 15  1  0
 17 16  2  0
 19 18  1  0
 20 21  1  0
 20 19  1  1
 22 20  1  0
 23 22  1  0
 24 22  2  0
M  END
$$$$
