GHQ.pdb
     RDKit          3D

 24 24  0  0  1  0  0  0  0  0999 V2000
   27.0322  -25.1074  -16.4579 N   0  0  0  0  0  0  0  0  0  0  0  0
   26.7785  -23.6991  -16.5391 C   0  0  0  0  0  0  0  0  0  0  0  0
   25.5220  -23.3993  -15.8077 C   0  0  0  0  0  0  0  0  0  0  0  0
   24.6710  -24.2919  -15.6327 O   0  0  0  0  0  0  0  0  0  0  0  0
   25.2482  -22.0922  -15.2852 N   0  0  0  0  0  0  0  0  0  0  0  0
   24.0436  -21.8183  -14.5488 C   0  0  1  0  0  0  0  0  0  0  0  0
   24.2003  -20.6411  -13.6120 C   0  0  0  0  0  0  0  0  0  0  0  0
   23.0418  -20.4071  -12.7604 C   0  0  0  0  0  0  0  0  0  0  0  0
   21.8892  -21.1546  -12.7412 C   0  0  0  0  0  0  0  0  0  0  0  0
   21.0704  -20.6125  -11.8210 N   0  0  0  0  0  0  0  0  0  0  0  0
   21.6712  -19.5508  -11.2634 C   0  0  0  0  0  0  0  0  0  0  0  0
   22.8936  -19.4363  -11.8568 N   0  0  0  0  0  0  0  0  0  0  0  0
   22.8744  -21.6484  -15.4468 C   0  0  0  0  0  0  0  0  0  0  0  0
   22.9620  -20.8669  -16.4149 O   0  0  0  0  0  0  0  0  0  0  0  0
   17.7768  -25.3632  -15.9386 N   0  0  0  0  0  0  0  0  0  0  0  0
   17.5653  -24.4779  -17.0042 C   0  0  0  0  0  0  0  0  0  0  0  0
   16.6170  -24.5714  -17.8260 O   0  0  0  0  0  0  0  0  0  0  0  0
   18.5428  -23.3452  -17.1661 C   0  0  0  0  0  0  0  0  0  0  0  0
   19.6089  -23.4055  -16.1146 C   0  0  0  0  0  0  0  0  0  0  0  0
   20.5182  -22.2534  -16.1892 C   0  0  2  0  0  0  0  0  0  0  0  0
   21.6447  -22.3244  -15.2769 N   0  0  0  0  0  0  0  0  0  0  0  0
   19.7920  -21.0110  -15.8613 C   0  0  0  0  0  0  0  0  0  0  0  0
   19.2104  -20.2871  -16.9273 O   0  0  0  0  0  0  0  0  0  0  0  0
   19.6193  -20.5036  -14.7470 O   0  0  0  0  0  0  0  0  0  0  0  0
  1  2  1  0
  3  2  1  0
  3  5  1  0
  4  3  2  0
  6  5  1  0
  6  7  1  6
  8 12  1  0
  8  7  1  0
  9  8  2  0
 10  9  1  0
 10 11  1  0
 11 12  2  0
 13  6  1  0
 13 21  1  0
 14 13  2  0
 16 18  1  0
 16 15  1  0
 17 16  2  0
 19 18  1  0
 20 21  1  0
 20 19  1  1
 22 20  1  0
 23 22  1  0
 24 22  2  0
M  END
$$$$
