GHQ.pdb
     RDKit          3D

 24 24  0  0  1  0  0  0  0  0999 V2000
   20.5278  -19.1631  -19.5633 N   0  0  0  0  0  0  0  0  0  0  0  0
   19.9014  -17.9149  -19.8858 C   0  0  0  0  0  0  0  0  0  0  0  0
   19.6414  -17.1739  -18.6261 C   0  0  0  0  0  0  0  0  0  0  0  0
   18.7272  -17.5382  -17.8625 O   0  0  0  0  0  0  0  0  0  0  0  0
   20.4214  -16.0308  -18.2500 N   0  0  0  0  0  0  0  0  0  0  0  0
   20.1318  -15.2889  -17.0524 C   0  0  1  0  0  0  0  0  0  0  0  0
   21.2396  -15.3995  -16.0284 C   0  0  0  0  0  0  0  0  0  0  0  0
   21.3580  -16.7217  -15.4286 C   0  0  0  0  0  0  0  0  0  0  0  0
   22.3445  -17.6417  -15.6895 C   0  0  0  0  0  0  0  0  0  0  0  0
   22.0943  -18.7283  -14.9358 N   0  0  0  0  0  0  0  0  0  0  0  0
   20.9846  -18.5198  -14.2119 C   0  0  0  0  0  0  0  0  0  0  0  0
   20.5394  -17.2704  -14.5287 N   0  0  0  0  0  0  0  0  0  0  0  0
   19.8013  -13.8724  -17.3470 C   0  0  0  0  0  0  0  0  0  0  0  0
   20.4866  -13.2514  -18.1839 O   0  0  0  0  0  0  0  0  0  0  0  0
   16.1228  -10.8584  -19.4594 N   0  0  0  0  0  0  0  0  0  0  0  0
   16.1412   -9.7858  -18.5576 C   0  0  0  0  0  0  0  0  0  0  0  0
   15.7698   -8.6169  -18.8386 O   0  0  0  0  0  0  0  0  0  0  0  0
   16.6398  -10.0624  -17.1649 C   0  0  0  0  0  0  0  0  0  0  0  0
   16.9426  -11.5190  -16.9855 C   0  0  0  0  0  0  0  0  0  0  0  0
   18.3877  -11.7854  -17.0082 C   0  0  2  0  0  0  0  0  0  0  0  0
   18.7428  -13.1653  -16.7325 N   0  0  0  0  0  0  0  0  0  0  0  0
   19.0714  -10.9658  -15.9888 C   0  0  0  0  0  0  0  0  0  0  0  0
   19.5195   -9.6800  -16.3693 O   0  0  0  0  0  0  0  0  0  0  0  0
   19.3120  -11.2616  -14.8124 O   0  0  0  0  0  0  0  0  0  0  0  0
  1  2  1  0
  3  2  1  0
  3  5  1  0
  4  3  2  0
  6  5  1  0
  6  7  1  1
  8 12  1  0
  8  7  1  0
  9  8  2  0
 10  9  1  0
 10 11  1  0
 11 12  2  0
 13  6  1  0
 13 21  1  0
 14 13  2  0
 16 18  1  0
 16 15  1  0
 17 16  2  0
 19 18  1  0
 20 21  1  0
 20 19  1  1
 22 20  1  0
 23 22  1  0
 24 22  2  0
M  END
$$$$
