GHQ.pdb
     RDKit          3D

 24 24  0  0  1  0  0  0  0  0999 V2000
   19.8297  -22.4934  -11.0123 N   0  0  0  0  0  0  0  0  0  0  0  0
   20.8146  -22.8015  -12.0071 C   0  0  0  0  0  0  0  0  0  0  0  0
   21.5251  -21.5515  -12.3760 C   0  0  0  0  0  0  0  0  0  0  0  0
   21.3547  -20.5138  -11.7083 O   0  0  0  0  0  0  0  0  0  0  0  0
   22.4185  -21.4955  -13.4964 N   0  0  0  0  0  0  0  0  0  0  0  0
   23.1489  -20.2974  -13.8114 C   0  0  1  0  0  0  0  0  0  0  0  0
   24.6358  -20.4567  -13.5838 C   0  0  0  0  0  0  0  0  0  0  0  0
   24.9955  -20.7127  -12.1955 C   0  0  0  0  0  0  0  0  0  0  0  0
   25.4946  -21.8905  -11.6944 C   0  0  0  0  0  0  0  0  0  0  0  0
   25.6946  -21.7166  -10.3749 N   0  0  0  0  0  0  0  0  0  0  0  0
   25.3376  -20.4697  -10.0329 C   0  0  0  0  0  0  0  0  0  0  0  0
   24.9060  -19.8594  -11.1734 N   0  0  0  0  0  0  0  0  0  0  0  0
   22.8562  -19.8176  -15.1849 C   0  0  0  0  0  0  0  0  0  0  0  0
   22.7971  -20.6450  -16.1164 O   0  0  0  0  0  0  0  0  0  0  0  0
   21.2275  -13.9473  -17.0206 N   0  0  0  0  0  0  0  0  0  0  0  0
   21.0245  -14.6636  -18.2080 C   0  0  0  0  0  0  0  0  0  0  0  0
   20.6015  -14.1559  -19.2787 O   0  0  0  0  0  0  0  0  0  0  0  0
   21.3362  -16.1358  -18.1888 C   0  0  0  0  0  0  0  0  0  0  0  0
   21.8473  -16.5559  -16.8442 C   0  0  0  0  0  0  0  0  0  0  0  0
   22.2305  -17.9745  -16.8221 C   0  0  2  0  0  0  0  0  0  0  0  0
   22.6354  -18.4613  -15.5163 N   0  0  0  0  0  0  0  0  0  0  0  0
   23.3727  -18.2064  -17.7276 C   0  0  0  0  0  0  0  0  0  0  0  0
   23.0914  -18.6145  -19.0517 O   0  0  0  0  0  0  0  0  0  0  0  0
   24.5777  -18.0883  -17.4762 O   0  0  0  0  0  0  0  0  0  0  0  0
  1  2  1  0
  3  2  1  0
  3  5  1  0
  4  3  2  0
  6  5  1  0
  6  7  1  6
  8 12  1  0
  8  7  1  0
  9  8  2  0
 10  9  1  0
 10 11  1  0
 11 12  2  0
 13  6  1  0
 13 21  1  0
 14 13  2  0
 16 18  1  0
 16 15  1  0
 17 16  2  0
 19 18  1  0
 20 21  1  0
 20 19  1  1
 22 20  1  0
 23 22  1  0
 24 22  2  0
M  END
$$$$
