GHQ.pdb
     RDKit          3D

 24 24  0  0  1  0  0  0  0  0999 V2000
   39.9469   -2.5062   -3.4623 N   0  0  0  0  0  0  0  0  0  0  0  0
   40.2313   -2.7043   -4.8532 C   0  0  0  0  0  0  0  0  0  0  0  0
   40.3399   -4.1617   -5.1135 C   0  0  0  0  0  0  0  0  0  0  0  0
   40.6866   -4.9366   -4.2019 O   0  0  0  0  0  0  0  0  0  0  0  0
   40.0540   -4.7198   -6.4032 N   0  0  0  0  0  0  0  0  0  0  0  0
   40.2287   -6.1229   -6.6664 C   0  0  1  0  0  0  0  0  0  0  0  0
   39.2172   -6.6492   -7.6604 C   0  0  0  0  0  0  0  0  0  0  0  0
   37.9298   -6.9871   -7.0684 C   0  0  0  0  0  0  0  0  0  0  0  0
   37.6104   -6.9152   -5.7341 C   0  0  0  0  0  0  0  0  0  0  0  0
   36.3308   -7.3109   -5.6022 N   0  0  0  0  0  0  0  0  0  0  0  0
   35.8383   -7.6282   -6.8088 C   0  0  0  0  0  0  0  0  0  0  0  0
   36.8423   -7.4220   -7.7081 N   0  0  0  0  0  0  0  0  0  0  0  0
   41.6176   -6.4374   -7.0837 C   0  0  0  0  0  0  0  0  0  0  0  0
   42.2617   -5.5902   -7.7343 O   0  0  0  0  0  0  0  0  0  0  0  0
   45.3538  -11.1871   -5.1559 N   0  0  0  0  0  0  0  0  0  0  0  0
   46.1432  -10.6398   -6.1764 C   0  0  0  0  0  0  0  0  0  0  0  0
   47.2734  -11.0796   -6.5116 O   0  0  0  0  0  0  0  0  0  0  0  0
   45.5925   -9.4482   -6.9124 C   0  0  0  0  0  0  0  0  0  0  0  0
   44.1942   -9.1448   -6.4668 C   0  0  0  0  0  0  0  0  0  0  0  0
   43.6309   -7.9886   -7.1779 C   0  0  2  0  0  0  0  0  0  0  0  0
   42.2733   -7.6544   -6.7889 N   0  0  0  0  0  0  0  0  0  0  0  0
   43.5972   -8.2523   -8.6297 C   0  0  0  0  0  0  0  0  0  0  0  0
   44.8027   -8.1071   -9.3538 O   0  0  0  0  0  0  0  0  0  0  0  0
   42.6277   -8.5929   -9.3177 O   0  0  0  0  0  0  0  0  0  0  0  0
  1  2  1  0
  3  2  1  0
  3  5  1  0
  4  3  2  0
  6  5  1  0
  6  7  1  6
  8 12  1  0
  8  7  1  0
  9  8  2  0
 10  9  1  0
 10 11  1  0
 11 12  2  0
 13  6  1  0
 13 21  1  0
 14 13  2  0
 16 18  1  0
 16 15  1  0
 17 16  2  0
 19 18  1  0
 20 21  1  0
 20 19  1  1
 22 20  1  0
 23 22  1  0
 24 22  2  0
M  END
$$$$
