GHQ.pdb
     RDKit          3D

 24 24  0  0  1  0  0  0  0  0999 V2000
   17.6964  -15.2947  -16.3709 N   0  0  0  0  0  0  0  0  0  0  0  0
   17.4925  -13.9701  -16.8794 C   0  0  0  0  0  0  0  0  0  0  0  0
   18.5695  -13.0903  -16.3601 C   0  0  0  0  0  0  0  0  0  0  0  0
   18.4140  -12.4766  -15.2873 O   0  0  0  0  0  0  0  0  0  0  0  0
   19.8070  -12.9189  -17.0640 N   0  0  0  0  0  0  0  0  0  0  0  0
   20.8652  -12.1050  -16.5291 C   0  0  1  0  0  0  0  0  0  0  0  0
   22.2288  -12.5510  -17.0084 C   0  0  0  0  0  0  0  0  0  0  0  0
   23.3328  -11.7982  -16.4284 C   0  0  0  0  0  0  0  0  0  0  0  0
   23.9398  -12.0542  -15.2227 C   0  0  0  0  0  0  0  0  0  0  0  0
   24.9090  -11.1358  -15.0543 N   0  0  0  0  0  0  0  0  0  0  0  0
   24.9295  -10.3134  -16.1137 C   0  0  0  0  0  0  0  0  0  0  0  0
   23.9457  -10.7374  -16.9575 N   0  0  0  0  0  0  0  0  0  0  0  0
   20.6394  -10.6623  -16.7938 C   0  0  0  0  0  0  0  0  0  0  0  0
   20.2988  -10.3020  -17.9384 O   0  0  0  0  0  0  0  0  0  0  0  0
   17.0258   -6.5384  -14.9314 N   0  0  0  0  0  0  0  0  0  0  0  0
   17.9257   -5.6494  -15.5347 C   0  0  0  0  0  0  0  0  0  0  0  0
   17.6858   -4.4325  -15.7460 O   0  0  0  0  0  0  0  0  0  0  0  0
   19.2634   -6.1978  -15.9529 C   0  0  0  0  0  0  0  0  0  0  0  0
   19.3451   -7.6696  -15.6832 C   0  0  0  0  0  0  0  0  0  0  0  0
   20.6507   -8.2254  -16.0658 C   0  0  2  0  0  0  0  0  0  0  0  0
   20.7867   -9.6491  -15.8193 N   0  0  0  0  0  0  0  0  0  0  0  0
   21.7274   -7.5641  -15.3031 C   0  0  0  0  0  0  0  0  0  0  0  0
   22.0784   -6.2442  -15.6684 O   0  0  0  0  0  0  0  0  0  0  0  0
   22.3829   -8.0230  -14.3604 O   0  0  0  0  0  0  0  0  0  0  0  0
  1  2  1  0
  3  2  1  0
  3  5  1  0
  4  3  2  0
  6  5  1  0
  6  7  1  6
  8 12  1  0
  8  7  1  0
  9  8  2  0
 10  9  1  0
 10 11  1  0
 11 12  2  0
 13  6  1  0
 13 21  1  0
 14 13  2  0
 16 18  1  0
 16 15  1  0
 17 16  2  0
 19 18  1  0
 20 21  1  0
 20 19  1  1
 22 20  1  0
 23 22  1  0
 24 22  2  0
M  END
$$$$
