GHQ.pdb
     RDKit          3D

 24 24  0  0  1  0  0  0  0  0999 V2000
   28.5108  -21.8205  -16.4128 N   0  0  0  0  0  0  0  0  0  0  0  0
   27.9750  -20.7154  -15.6738 C   0  0  0  0  0  0  0  0  0  0  0  0
   27.1316  -21.2441  -14.5725 C   0  0  0  0  0  0  0  0  0  0  0  0
   26.5949  -22.3633  -14.6766 O   0  0  0  0  0  0  0  0  0  0  0  0
   26.9086  -20.4965  -13.3692 N   0  0  0  0  0  0  0  0  0  0  0  0
   25.9621  -20.9366  -12.3798 C   0  0  1  0  0  0  0  0  0  0  0  0
   26.3510  -20.5046  -10.9833 C   0  0  0  0  0  0  0  0  0  0  0  0
   27.7143  -20.8615  -10.6141 C   0  0  0  0  0  0  0  0  0  0  0  0
   28.5963  -21.5835  -11.3812 C   0  0  0  0  0  0  0  0  0  0  0  0
   29.7422  -21.6946  -10.6843 N   0  0  0  0  0  0  0  0  0  0  0  0
   29.6075  -21.0666   -9.5067 C   0  0  0  0  0  0  0  0  0  0  0  0
   28.3439  -20.5549   -9.4781 N   0  0  0  0  0  0  0  0  0  0  0  0
   24.5785  -20.5172  -12.7146 C   0  0  0  0  0  0  0  0  0  0  0  0
   24.3805  -19.3586  -13.1320 O   0  0  0  0  0  0  0  0  0  0  0  0
   24.1002  -24.7968  -14.4449 N   0  0  0  0  0  0  0  0  0  0  0  0
   23.3139  -23.8599  -15.1291 C   0  0  0  0  0  0  0  0  0  0  0  0
   23.5496  -23.4542  -16.2965 O   0  0  0  0  0  0  0  0  0  0  0  0
   22.1114  -23.3104  -14.4101 C   0  0  0  0  0  0  0  0  0  0  0  0
   22.0429  -21.8196  -14.5465 C   0  0  0  0  0  0  0  0  0  0  0  0
   22.1720  -21.1437  -13.2479 C   0  0  2  0  0  0  0  0  0  0  0  0
   23.4481  -21.3567  -12.5905 N   0  0  0  0  0  0  0  0  0  0  0  0
   21.1353  -21.6302  -12.3168 C   0  0  0  0  0  0  0  0  0  0  0  0
   19.7909  -21.2901  -12.5917 O   0  0  0  0  0  0  0  0  0  0  0  0
   21.2895  -22.3151  -11.2988 O   0  0  0  0  0  0  0  0  0  0  0  0
  1  2  1  0
  3  2  1  0
  3  5  1  0
  4  3  2  0
  6  5  1  0
  6  7  1  1
  8 12  1  0
  8  7  1  0
  9  8  2  0
 10  9  1  0
 10 11  1  0
 11 12  2  0
 13  6  1  0
 13 21  1  0
 14 13  2  0
 16 18  1  0
 16 15  1  0
 17 16  2  0
 19 18  1  0
 20 21  1  0
 20 19  1  6
 22 20  1  0
 23 22  1  0
 24 22  2  0
M  END
$$$$
