GHQ.pdb
     RDKit          3D

 24 24  0  0  1  0  0  0  0  0999 V2000
   21.3324  -12.5459  -17.8183 N   0  0  0  0  0  0  0  0  0  0  0  0
   20.3787  -12.6057  -16.7499 C   0  0  0  0  0  0  0  0  0  0  0  0
   20.7835  -11.6412  -15.6966 C   0  0  0  0  0  0  0  0  0  0  0  0
   20.7617  -11.9777  -14.4975 O   0  0  0  0  0  0  0  0  0  0  0  0
   21.2072  -10.3093  -16.0176 N   0  0  0  0  0  0  0  0  0  0  0  0
   21.3888   -9.3152  -14.9942 C   0  0  1  0  0  0  0  0  0  0  0  0
   22.5870   -8.4313  -15.2608 C   0  0  0  0  0  0  0  0  0  0  0  0
   23.8563   -9.1461  -15.2701 C   0  0  0  0  0  0  0  0  0  0  0  0
   24.0429  -10.4656  -14.9358 C   0  0  0  0  0  0  0  0  0  0  0  0
   25.3537  -10.7369  -15.0744 N   0  0  0  0  0  0  0  0  0  0  0  0
   25.9943   -9.6319  -15.4841 C   0  0  0  0  0  0  0  0  0  0  0  0
   25.0517   -8.6535  -15.6009 N   0  0  0  0  0  0  0  0  0  0  0  0
   20.1582   -8.5145  -14.7780 C   0  0  0  0  0  0  0  0  0  0  0  0
   19.4689   -8.1841  -15.7637 O   0  0  0  0  0  0  0  0  0  0  0  0
   16.9188   -7.6592   -9.4306 N   0  0  0  0  0  0  0  0  0  0  0  0
   16.2698   -6.7318  -10.2569 C   0  0  0  0  0  0  0  0  0  0  0  0
   15.3077   -6.0080   -9.8912 O   0  0  0  0  0  0  0  0  0  0  0  0
   16.7648   -6.6020  -11.6722 C   0  0  0  0  0  0  0  0  0  0  0  0
   17.9366   -7.5045  -11.9129 C   0  0  0  0  0  0  0  0  0  0  0  0
   18.4937   -7.3316  -13.2618 C   0  0  2  0  0  0  0  0  0  0  0  0
   19.7048   -8.0926  -13.5074 N   0  0  0  0  0  0  0  0  0  0  0  0
   18.8361   -5.9146  -13.4923 C   0  0  0  0  0  0  0  0  0  0  0  0
   17.8337   -5.0734  -14.0275 O   0  0  0  0  0  0  0  0  0  0  0  0
   19.9133   -5.3480  -13.2739 O   0  0  0  0  0  0  0  0  0  0  0  0
  1  2  1  0
  3  2  1  0
  3  5  1  0
  4  3  2  0
  6  5  1  0
  6  7  1  6
  8 12  1  0
  8  7  1  0
  9  8  2  0
 10  9  1  0
 10 11  1  0
 11 12  2  0
 13  6  1  0
 13 21  1  0
 14 13  2  0
 16 18  1  0
 16 15  1  0
 17 16  2  0
 19 18  1  0
 20 21  1  0
 20 19  1  1
 22 20  1  0
 23 22  1  0
 24 22  2  0
M  END
$$$$
