GHQ.pdb
     RDKit          3D

 24 24  0  0  1  0  0  0  0  0999 V2000
   18.3855  -22.8336  -14.3033 N   0  0  0  0  0  0  0  0  0  0  0  0
   19.2723  -22.7857  -13.1782 C   0  0  0  0  0  0  0  0  0  0  0  0
   20.0284  -21.5090  -13.2227 C   0  0  0  0  0  0  0  0  0  0  0  0
   19.4300  -20.4225  -13.1090 O   0  0  0  0  0  0  0  0  0  0  0  0
   21.4517  -21.4823  -13.3954 N   0  0  0  0  0  0  0  0  0  0  0  0
   22.1782  -20.2414  -13.4268 C   0  0  1  0  0  0  0  0  0  0  0  0
   23.5603  -20.3718  -12.8263 C   0  0  0  0  0  0  0  0  0  0  0  0
   23.5588  -20.6029  -11.3880 C   0  0  0  0  0  0  0  0  0  0  0  0
   22.4508  -20.6355  -10.5763 C   0  0  0  0  0  0  0  0  0  0  0  0
   22.8750  -20.8747   -9.3217 N   0  0  0  0  0  0  0  0  0  0  0  0
   24.2110  -20.9931   -9.3204 C   0  0  0  0  0  0  0  0  0  0  0  0
   24.6205  -20.8219  -10.6098 N   0  0  0  0  0  0  0  0  0  0  0  0
   22.2299  -19.6667  -14.7940 C   0  0  0  0  0  0  0  0  0  0  0  0
   22.3923  -20.4301  -15.7669 O   0  0  0  0  0  0  0  0  0  0  0  0
   19.3928  -15.9875  -17.2864 N   0  0  0  0  0  0  0  0  0  0  0  0
   20.3603  -15.5966  -18.2220 C   0  0  0  0  0  0  0  0  0  0  0  0
   20.0984  -15.1675  -19.3754 O   0  0  0  0  0  0  0  0  0  0  0  0
   21.8035  -15.7016  -17.8085 C   0  0  0  0  0  0  0  0  0  0  0  0
   21.9220  -16.2416  -16.4157 C   0  0  0  0  0  0  0  0  0  0  0  0
   22.0242  -17.7076  -16.4029 C   0  0  2  0  0  0  0  0  0  0  0  0
   22.1053  -18.2869  -15.0747 N   0  0  0  0  0  0  0  0  0  0  0  0
   23.2389  -18.1384  -17.1220 C   0  0  0  0  0  0  0  0  0  0  0  0
   24.4858  -17.9431  -16.4849 O   0  0  0  0  0  0  0  0  0  0  0  0
   23.3146  -18.6623  -18.2396 O   0  0  0  0  0  0  0  0  0  0  0  0
  1  2  1  0
  3  2  1  0
  3  5  1  0
  4  3  2  0
  6  5  1  0
  6  7  1  6
  8 12  1  0
  8  7  1  0
  9  8  2  0
 10  9  1  0
 10 11  1  0
 11 12  2  0
 13  6  1  0
 13 21  1  0
 14 13  2  0
 16 18  1  0
 16 15  1  0
 17 16  2  0
 19 18  1  0
 20 21  1  0
 20 19  1  1
 22 20  1  0
 23 22  1  0
 24 22  2  0
M  END
$$$$
