GHQ.pdb
     RDKit          3D

 24 24  0  0  1  0  0  0  0  0999 V2000
   22.2139  -13.2860  -17.2408 N   0  0  0  0  0  0  0  0  0  0  0  0
   21.7024  -12.0260  -17.6939 C   0  0  0  0  0  0  0  0  0  0  0  0
   22.2710  -10.9490  -16.8452 C   0  0  0  0  0  0  0  0  0  0  0  0
   21.8826  -10.8067  -15.6702 O   0  0  0  0  0  0  0  0  0  0  0  0
   23.2714  -10.0488  -17.3404 N   0  0  0  0  0  0  0  0  0  0  0  0
   23.7470   -8.9486  -16.5455 C   0  0  1  0  0  0  0  0  0  0  0  0
   25.2249   -8.6952  -16.7446 C   0  0  0  0  0  0  0  0  0  0  0  0
   26.0727   -9.8131  -16.3526 C   0  0  0  0  0  0  0  0  0  0  0  0
   25.6443  -11.0003  -15.8099 C   0  0  0  0  0  0  0  0  0  0  0  0
   26.7324  -11.7617  -15.5915 N   0  0  0  0  0  0  0  0  0  0  0  0
   27.8276  -11.0912  -15.9790 C   0  0  0  0  0  0  0  0  0  0  0  0
   27.4018   -9.8840  -16.4489 N   0  0  0  0  0  0  0  0  0  0  0  0
   22.9478   -7.7186  -16.7713 C   0  0  0  0  0  0  0  0  0  0  0  0
   22.4744   -7.5028  -17.9048 O   0  0  0  0  0  0  0  0  0  0  0  0
   19.0182   -2.9464  -17.9322 N   0  0  0  0  0  0  0  0  0  0  0  0
   19.2756   -4.2858  -17.6101 C   0  0  0  0  0  0  0  0  0  0  0  0
   19.2438   -5.2327  -18.4380 O   0  0  0  0  0  0  0  0  0  0  0  0
   19.6110   -4.5998  -16.1770 C   0  0  0  0  0  0  0  0  0  0  0  0
   20.4209   -5.8570  -16.0812 C   0  0  0  0  0  0  0  0  0  0  0  0
   21.8568   -5.5751  -15.9447 C   0  0  2  0  0  0  0  0  0  0  0  0
   22.6813   -6.7566  -15.7706 N   0  0  0  0  0  0  0  0  0  0  0  0
   22.0967   -4.7200  -14.7659 C   0  0  0  0  0  0  0  0  0  0  0  0
   22.5882   -5.3379  -13.5930 O   0  0  0  0  0  0  0  0  0  0  0  0
   21.9203   -3.5004  -14.6633 O   0  0  0  0  0  0  0  0  0  0  0  0
  1  2  1  0
  3  2  1  0
  3  5  1  0
  4  3  2  0
  6  5  1  0
  6  7  1  6
  8 12  1  0
  8  7  1  0
  9  8  2  0
 10  9  1  0
 10 11  1  0
 11 12  2  0
 13  6  1  0
 13 21  1  0
 14 13  2  0
 16 18  1  0
 16 15  1  0
 17 16  2  0
 19 18  1  0
 20 21  1  0
 20 19  1  1
 22 20  1  0
 23 22  1  0
 24 22  2  0
M  END
$$$$
