NDT.pdb
     RDKit          3D

 24 23  0  0  1  0  0  0  0  0999 V2000
   -2.3414  -20.4950   25.2009 N   0  0  0  0  0  0  0  0  0  0  0  0
   -2.8863  -21.7744   25.5257 C   0  0  0  0  0  0  0  0  0  0  0  0
   -2.9572  -22.7076   24.6958 O   0  0  0  0  0  0  0  0  0  0  0  0
   -3.3837  -21.9955   26.9010 C   0  0  0  0  0  0  0  0  0  0  0  0
   -4.1434  -23.3195   26.9669 C   0  0  2  0  0  0  0  0  0  0  0  0
   -5.2546  -23.2198   26.0603 N   0  0  0  0  0  0  0  0  0  0  0  0
   -4.5613  -23.5131   28.3772 C   0  0  0  0  0  0  0  0  0  0  0  0
   -3.6958  -23.4512   29.2883 O   0  0  0  0  0  0  0  0  0  0  0  0
   -5.9214  -23.7713   28.7582 N   0  0  0  0  0  0  0  0  0  0  0  0
   -6.2979  -23.8579   30.1592 C   0  0  1  0  0  0  0  0  0  0  0  0
   -7.6591  -23.2752   30.4100 C   0  0  0  0  0  0  0  0  0  0  0  0
   -7.7026  -21.8157   30.2736 C   0  0  0  0  0  0  0  0  0  0  0  0
   -8.4907  -21.1732   29.5415 O   0  0  0  0  0  0  0  0  0  0  0  0
   -6.2580  -25.2628   30.6427 C   0  0  0  0  0  0  0  0  0  0  0  0
   -6.9024  -26.1232   30.0077 O   0  0  0  0  0  0  0  0  0  0  0  0
   -6.7897  -21.0719   31.0216 O   0  0  0  0  0  0  0  0  0  0  0  0
   -3.5459  -27.6478   30.9595 C   0  0  0  0  0  0  0  0  0  0  0  0
   -4.0745  -27.5415   32.3800 C   0  0  1  0  0  0  0  0  0  0  0  0
   -3.2519  -26.6604   33.0650 O   0  0  0  0  0  0  0  0  0  0  0  0
   -5.4535  -26.9643   32.3182 C   0  0  2  0  0  0  0  0  0  0  0  0
   -5.5232  -25.6425   31.7829 N   0  0  0  0  0  0  0  0  0  0  0  0
   -6.1631  -27.0535   33.6242 C   0  0  0  0  0  0  0  0  0  0  0  0
   -6.4393  -28.2332   34.2591 O   0  0  0  0  0  0  0  0  0  0  0  0
   -6.5215  -25.9782   34.1608 O   0  0  0  0  0  0  0  0  0  0  0  0
  1  2  1  0
  2  3  2  0
  2  4  1  0
  4  5  1  0
  5  7  1  0
  5  6  1  6
  7  9  1  0
  7  8  2  0
  9 10  1  0
 10 14  1  0
 10 11  1  6
 12 11  1  0
 13 12  2  0
 14 21  1  0
 14 15  2  0
 16 12  1  0
 18 17  1  6
 18 20  1  0
 19 18  1  0
 20 22  1  0
 20 21  1  1
 22 23  1  0
 24 22  2  0
M  END
$$$$
