NDT.pdb
     RDKit          3D

 24 23  0  0  1  0  0  0  0  0999 V2000
    6.4797  -17.1545   13.3329 N   0  0  0  0  0  0  0  0  0  0  0  0
    7.4209  -16.1288   13.6510 C   0  0  0  0  0  0  0  0  0  0  0  0
    7.0746  -15.0015   14.0679 O   0  0  0  0  0  0  0  0  0  0  0  0
    8.8605  -16.4207   13.4778 C   0  0  0  0  0  0  0  0  0  0  0  0
    9.6811  -15.5395   14.4183 C   0  0  2  0  0  0  0  0  0  0  0  0
   11.0651  -15.7208   14.0744 N   0  0  0  0  0  0  0  0  0  0  0  0
    9.3667  -15.9682   15.8034 C   0  0  0  0  0  0  0  0  0  0  0  0
    8.1966  -15.8203   16.2415 O   0  0  0  0  0  0  0  0  0  0  0  0
   10.3443  -16.5502   16.6794 N   0  0  0  0  0  0  0  0  0  0  0  0
    9.9668  -17.0397   17.9948 C   0  0  1  0  0  0  0  0  0  0  0  0
   10.8556  -18.1609   18.4510 C   0  0  0  0  0  0  0  0  0  0  0  0
   10.4532  -18.7370   19.7382 C   0  0  0  0  0  0  0  0  0  0  0  0
    9.2986  -18.7062   20.2237 O   0  0  0  0  0  0  0  0  0  0  0  0
    9.9826  -15.9469   19.0021 C   0  0  0  0  0  0  0  0  0  0  0  0
   11.0493  -15.3223   19.1775 O   0  0  0  0  0  0  0  0  0  0  0  0
   11.4368  -19.3767   20.4926 O   0  0  0  0  0  0  0  0  0  0  0  0
    7.6623  -12.8915   19.3510 C   0  0  0  0  0  0  0  0  0  0  0  0
    7.5667  -13.6923   20.6386 C   0  0  1  0  0  0  0  0  0  0  0  0
    6.4423  -14.4980   20.5448 O   0  0  0  0  0  0  0  0  0  0  0  0
    8.7784  -14.5651   20.7313 C   0  0  2  0  0  0  0  0  0  0  0  0
    8.8416  -15.6034   19.7534 N   0  0  0  0  0  0  0  0  0  0  0  0
    8.9824  -15.1059   22.1036 C   0  0  0  0  0  0  0  0  0  0  0  0
    9.1783  -16.4321   22.3756 O   0  0  0  0  0  0  0  0  0  0  0  0
    8.9716  -14.2875   23.0538 O   0  0  0  0  0  0  0  0  0  0  0  0
  1  2  1  0
  2  3  2  0
  2  4  1  0
  4  5  1  0
  5  7  1  0
  5  6  1  6
  7  9  1  0
  7  8  2  0
  9 10  1  0
 10 14  1  0
 10 11  1  1
 12 11  1  0
 13 12  2  0
 14 21  1  0
 14 15  2  0
 16 12  1  0
 18 17  1  6
 18 20  1  0
 19 18  1  0
 20 22  1  0
 20 21  1  6
 22 23  1  0
 24 22  2  0
M  END
$$$$
