NDT.pdb
     RDKit          3D

 24 23  0  0  1  0  0  0  0  0999 V2000
    7.9192  -12.4717   16.9954 N   0  0  0  0  0  0  0  0  0  0  0  0
    8.2483  -13.8576   16.8943 C   0  0  0  0  0  0  0  0  0  0  0  0
    8.5522  -14.4011   15.8095 O   0  0  0  0  0  0  0  0  0  0  0  0
    8.2269  -14.6746   18.1271 C   0  0  0  0  0  0  0  0  0  0  0  0
    8.7395  -16.0811   17.8214 C   0  0  2  0  0  0  0  0  0  0  0  0
    7.6937  -16.7735   17.1191 N   0  0  0  0  0  0  0  0  0  0  0  0
    9.0828  -16.7121   19.1195 C   0  0  0  0  0  0  0  0  0  0  0  0
    8.1636  -17.1958   19.8295 O   0  0  0  0  0  0  0  0  0  0  0  0
   10.4289  -16.7986   19.6117 N   0  0  0  0  0  0  0  0  0  0  0  0
   10.7178  -17.4529   20.8769 C   0  0  1  0  0  0  0  0  0  0  0  0
   12.1053  -18.0266   20.9063 C   0  0  0  0  0  0  0  0  0  0  0  0
   12.4019  -18.7726   22.1336 C   0  0  0  0  0  0  0  0  0  0  0  0
   13.5258  -18.8642   22.6797 O   0  0  0  0  0  0  0  0  0  0  0  0
   10.5373  -16.5204   22.0202 C   0  0  0  0  0  0  0  0  0  0  0  0
   11.4239  -15.6668   22.2301 O   0  0  0  0  0  0  0  0  0  0  0  0
   11.3448  -19.4407   22.7519 O   0  0  0  0  0  0  0  0  0  0  0  0
    7.6094  -14.1946   25.1347 C   0  0  0  0  0  0  0  0  0  0  0  0
    7.7084  -15.2254   24.0228 C   0  0  1  0  0  0  0  0  0  0  0  0
    7.3639  -14.5934   22.8379 O   0  0  0  0  0  0  0  0  0  0  0  0
    9.1331  -15.6736   23.9333 C   0  0  2  0  0  0  0  0  0  0  0  0
    9.4084  -16.5750   22.8609 N   0  0  0  0  0  0  0  0  0  0  0  0
    9.6406  -16.2070   25.2276 C   0  0  0  0  0  0  0  0  0  0  0  0
    9.7852  -15.4487   26.3569 O   0  0  0  0  0  0  0  0  0  0  0  0
    9.9487  -17.4219   25.2700 O   0  0  0  0  0  0  0  0  0  0  0  0
  1  2  1  0
  2  3  2  0
  2  4  1  0
  4  5  1  0
  5  7  1  0
  5  6  1  1
  7  9  1  0
  7  8  2  0
  9 10  1  0
 10 14  1  0
 10 11  1  6
 12 11  1  0
 13 12  2  0
 14 21  1  0
 14 15  2  0
 16 12  1  0
 18 17  1  1
 18 20  1  0
 19 18  1  0
 20 22  1  0
 20 21  1  6
 22 23  1  0
 24 22  2  0
M  END
$$$$
