NDT.pdb
     RDKit          3D

 24 23  0  0  1  0  0  0  0  0999 V2000
    8.5351  -13.8908   15.1556 N   0  0  0  0  0  0  0  0  0  0  0  0
    8.1150  -14.6426   16.2947 C   0  0  0  0  0  0  0  0  0  0  0  0
    8.5246  -15.8016   16.5262 O   0  0  0  0  0  0  0  0  0  0  0  0
    7.1577  -14.0172   17.2328 C   0  0  0  0  0  0  0  0  0  0  0  0
    7.9125  -13.4380   18.4284 C   0  0  2  0  0  0  0  0  0  0  0  0
    8.9617  -12.6044   17.9080 N   0  0  0  0  0  0  0  0  0  0  0  0
    8.4218  -14.5847   19.2200 C   0  0  0  0  0  0  0  0  0  0  0  0
    7.6390  -15.5254   19.5124 O   0  0  0  0  0  0  0  0  0  0  0  0
    9.7808  -14.6748   19.6751 N   0  0  0  0  0  0  0  0  0  0  0  0
   10.2070  -15.7673   20.5336 C   0  0  1  0  0  0  0  0  0  0  0  0
   11.5905  -16.2406   20.1917 C   0  0  0  0  0  0  0  0  0  0  0  0
   12.0382  -17.3726   21.0097 C   0  0  0  0  0  0  0  0  0  0  0  0
   11.2965  -18.2438   21.5203 O   0  0  0  0  0  0  0  0  0  0  0  0
   10.1504  -15.3804   21.9676 C   0  0  0  0  0  0  0  0  0  0  0  0
   11.0565  -14.6483   22.4167 O   0  0  0  0  0  0  0  0  0  0  0  0
   13.4079  -17.4959   21.2433 O   0  0  0  0  0  0  0  0  0  0  0  0
    7.4689  -13.5579   23.8049 C   0  0  0  0  0  0  0  0  0  0  0  0
    7.6291  -14.8755   24.5443 C   0  0  1  0  0  0  0  0  0  0  0  0
    6.6436  -15.7342   24.0823 O   0  0  0  0  0  0  0  0  0  0  0  0
    8.9675  -15.4438   24.1915 C   0  0  2  0  0  0  0  0  0  0  0  0
    9.1160  -15.8128   22.8203 N   0  0  0  0  0  0  0  0  0  0  0  0
    9.3642  -16.5594   25.0945 C   0  0  0  0  0  0  0  0  0  0  0  0
    9.3919  -16.4590   26.4584 O   0  0  0  0  0  0  0  0  0  0  0  0
    9.6884  -17.6467   24.5602 O   0  0  0  0  0  0  0  0  0  0  0  0
  1  2  1  0
  2  3  2  0
  2  4  1  0
  4  5  1  0
  5  7  1  0
  5  6  1  6
  7  9  1  0
  7  8  2  0
  9 10  1  0
 10 14  1  0
 10 11  1  6
 12 11  1  0
 13 12  2  0
 14 21  1  0
 14 15  2  0
 16 12  1  0
 18 17  1  6
 18 20  1  0
 19 18  1  0
 20 22  1  0
 20 21  1  6
 22 23  1  0
 24 22  2  0
M  END
$$$$
