NDT.pdb
     RDKit          3D

 24 23  0  0  1  0  0  0  0  0999 V2000
    6.6714  -12.6883   18.2323 N   0  0  0  0  0  0  0  0  0  0  0  0
    7.8320  -13.4730   18.5088 C   0  0  0  0  0  0  0  0  0  0  0  0
    8.5680  -13.9296   17.6063 O   0  0  0  0  0  0  0  0  0  0  0  0
    8.1694  -13.7511   19.9217 C   0  0  0  0  0  0  0  0  0  0  0  0
    8.6235  -15.2028   20.0663 C   0  0  2  0  0  0  0  0  0  0  0  0
    7.5110  -16.0367   19.7009 N   0  0  0  0  0  0  0  0  0  0  0  0
    9.0492  -15.3886   21.4753 C   0  0  0  0  0  0  0  0  0  0  0  0
   10.0388  -14.7434   21.9082 O   0  0  0  0  0  0  0  0  0  0  0  0
    8.3796  -16.2800   22.3802 N   0  0  0  0  0  0  0  0  0  0  0  0
    8.9867  -16.6467   23.6488 C   0  0  1  0  0  0  0  0  0  0  0  0
   10.3064  -17.3376   23.4587 C   0  0  0  0  0  0  0  0  0  0  0  0
   10.9708  -17.6828   24.7197 C   0  0  0  0  0  0  0  0  0  0  0  0
   10.3949  -17.9997   25.7863 O   0  0  0  0  0  0  0  0  0  0  0  0
    9.1650  -15.4593   24.5248 C   0  0  0  0  0  0  0  0  0  0  0  0
   10.1741  -14.7450   24.3513 O   0  0  0  0  0  0  0  0  0  0  0  0
   12.3654  -17.6580   24.7402 O   0  0  0  0  0  0  0  0  0  0  0  0
    7.0893  -12.4480   24.9326 C   0  0  0  0  0  0  0  0  0  0  0  0
    7.1314  -13.0709   26.3178 C   0  0  1  0  0  0  0  0  0  0  0  0
    5.9805  -13.8292   26.4680 O   0  0  0  0  0  0  0  0  0  0  0  0
    8.3185  -13.9794   26.3803 C   0  0  2  0  0  0  0  0  0  0  0  0
    8.2383  -15.1247   25.5316 N   0  0  0  0  0  0  0  0  0  0  0  0
    8.6606  -14.3679   27.7765 C   0  0  0  0  0  0  0  0  0  0  0  0
    8.7356  -15.6640   28.2072 O   0  0  0  0  0  0  0  0  0  0  0  0
    8.8906  -13.4438   28.5926 O   0  0  0  0  0  0  0  0  0  0  0  0
  1  2  1  0
  2  3  2  0
  2  4  1  0
  4  5  1  0
  5  7  1  0
  5  6  1  1
  7  9  1  0
  7  8  2  0
  9 10  1  0
 10 14  1  0
 10 11  1  6
 12 11  1  0
 13 12  2  0
 14 21  1  0
 14 15  2  0
 16 12  1  0
 18 17  1  6
 18 20  1  0
 19 18  1  0
 20 22  1  0
 20 21  1  6
 22 23  1  0
 24 22  2  0
M  END
$$$$
