NDT.pdb
     RDKit          3D

 24 23  0  0  1  0  0  0  0  0999 V2000
    8.6102  -13.0127   16.2821 N   0  0  0  0  0  0  0  0  0  0  0  0
    7.8040  -14.1907   16.2424 C   0  0  0  0  0  0  0  0  0  0  0  0
    7.4572  -14.7347   15.1709 O   0  0  0  0  0  0  0  0  0  0  0  0
    7.3670  -14.7841   17.5248 C   0  0  0  0  0  0  0  0  0  0  0  0
    7.9038  -13.9503   18.6872 C   0  0  2  0  0  0  0  0  0  0  0  0
    9.1313  -13.3450   18.2475 N   0  0  0  0  0  0  0  0  0  0  0  0
    8.0900  -14.8712   19.8354 C   0  0  0  0  0  0  0  0  0  0  0  0
    7.0797  -15.3890   20.3777 O   0  0  0  0  0  0  0  0  0  0  0  0
    9.3824  -15.2042   20.3651 N   0  0  0  0  0  0  0  0  0  0  0  0
    9.5083  -16.0111   21.5673 C   0  0  1  0  0  0  0  0  0  0  0  0
   10.8122  -16.7550   21.6080 C   0  0  0  0  0  0  0  0  0  0  0  0
   10.9735  -17.7096   20.5064 C   0  0  0  0  0  0  0  0  0  0  0  0
   11.7450  -17.5736   19.5286 O   0  0  0  0  0  0  0  0  0  0  0  0
    9.3674  -15.1806   22.7918 C   0  0  0  0  0  0  0  0  0  0  0  0
   10.1262  -14.1986   22.9285 O   0  0  0  0  0  0  0  0  0  0  0  0
   10.2038  -18.8724   20.5445 O   0  0  0  0  0  0  0  0  0  0  0  0
    6.8441  -13.2370   26.3512 C   0  0  0  0  0  0  0  0  0  0  0  0
    6.8246  -14.2208   25.1935 C   0  0  1  0  0  0  0  0  0  0  0  0
    6.4279  -13.5242   24.0623 O   0  0  0  0  0  0  0  0  0  0  0  0
    8.2200  -14.7199   24.9874 C   0  0  2  0  0  0  0  0  0  0  0  0
    8.4141  -15.4694   23.7878 N   0  0  0  0  0  0  0  0  0  0  0  0
    8.7374  -15.4584   26.1723 C   0  0  0  0  0  0  0  0  0  0  0  0
    8.8548  -14.9071   27.4187 O   0  0  0  0  0  0  0  0  0  0  0  0
    9.0809  -16.6526   26.0031 O   0  0  0  0  0  0  0  0  0  0  0  0
  1  2  1  0
  2  3  2  0
  2  4  1  0
  4  5  1  0
  5  7  1  0
  5  6  1  6
  7  9  1  0
  7  8  2  0
  9 10  1  0
 10 14  1  0
 10 11  1  1
 12 11  1  0
 13 12  2  0
 14 21  1  0
 14 15  2  0
 16 12  1  0
 18 17  1  1
 18 20  1  0
 19 18  1  0
 20 22  1  0
 20 21  1  6
 22 23  1  0
 24 22  2  0
M  END
$$$$
