NDT.pdb
     RDKit          3D

 24 23  0  0  1  0  0  0  0  0999 V2000
   -1.0596  -27.2023   26.4614 N   0  0  0  0  0  0  0  0  0  0  0  0
   -1.6642  -28.2859   27.1682 C   0  0  0  0  0  0  0  0  0  0  0  0
   -1.6483  -29.4616   26.7415 O   0  0  0  0  0  0  0  0  0  0  0  0
   -2.3329  -27.9966   28.4553 C   0  0  0  0  0  0  0  0  0  0  0  0
   -2.3221  -26.4908   28.7140 C   0  0  2  0  0  0  0  0  0  0  0  0
   -1.1538  -26.2010   29.4999 N   0  0  0  0  0  0  0  0  0  0  0  0
   -3.5880  -26.1589   29.4128 C   0  0  0  0  0  0  0  0  0  0  0  0
   -4.6760  -26.2456   28.7870 O   0  0  0  0  0  0  0  0  0  0  0  0
   -3.6331  -25.7380   30.7849 N   0  0  0  0  0  0  0  0  0  0  0  0
   -4.9032  -25.4813   31.4429 C   0  0  1  0  0  0  0  0  0  0  0  0
   -4.8782  -25.8914   32.8873 C   0  0  0  0  0  0  0  0  0  0  0  0
   -4.9818  -27.3411   33.0836 C   0  0  0  0  0  0  0  0  0  0  0  0
   -5.4784  -28.1551   32.2708 O   0  0  0  0  0  0  0  0  0  0  0  0
   -5.2867  -24.0493   31.3358 C   0  0  0  0  0  0  0  0  0  0  0  0
   -4.7471  -23.2349   32.1133 O   0  0  0  0  0  0  0  0  0  0  0  0
   -4.4861  -27.8660   34.2772 O   0  0  0  0  0  0  0  0  0  0  0  0
   -4.9363  -21.7856   28.4916 C   0  0  0  0  0  0  0  0  0  0  0  0
   -6.4198  -21.7167   28.8127 C   0  0  1  0  0  0  0  0  0  0  0  0
   -7.0765  -22.5573   27.9271 O   0  0  0  0  0  0  0  0  0  0  0  0
   -6.6164  -22.2331   30.2031 C   0  0  2  0  0  0  0  0  0  0  0  0
   -6.2300  -23.5943   30.3938 N   0  0  0  0  0  0  0  0  0  0  0  0
   -7.9964  -21.9904   30.7068 C   0  0  0  0  0  0  0  0  0  0  0  0
   -8.5440  -20.7452   30.8509 O   0  0  0  0  0  0  0  0  0  0  0  0
   -8.6840  -22.9938   31.0121 O   0  0  0  0  0  0  0  0  0  0  0  0
  1  2  1  0
  2  3  2  0
  2  4  1  0
  4  5  1  0
  5  7  1  0
  5  6  1  1
  7  9  1  0
  7  8  2  0
  9 10  1  0
 10 14  1  0
 10 11  1  1
 12 11  1  0
 13 12  2  0
 14 21  1  0
 14 15  2  0
 16 12  1  0
 18 17  1  6
 18 20  1  0
 19 18  1  0
 20 22  1  0
 20 21  1  6
 22 23  1  0
 24 22  2  0
M  END
$$$$
