NDT.pdb
     RDKit          3D

 24 23  0  0  1  0  0  0  0  0999 V2000
   13.0471  -13.9759   19.1255 N   0  0  0  0  0  0  0  0  0  0  0  0
   11.6502  -14.2569   19.0311 C   0  0  0  0  0  0  0  0  0  0  0  0
   10.9711  -13.9686   18.0210 O   0  0  0  0  0  0  0  0  0  0  0  0
   10.9890  -14.9159   20.1784 C   0  0  0  0  0  0  0  0  0  0  0  0
   11.9963  -15.1105   21.3107 C   0  0  2  0  0  0  0  0  0  0  0  0
   12.9461  -16.0966   20.8725 N   0  0  0  0  0  0  0  0  0  0  0  0
   11.2302  -15.5351   22.5081 C   0  0  0  0  0  0  0  0  0  0  0  0
   10.2731  -14.8236   22.9092 O   0  0  0  0  0  0  0  0  0  0  0  0
   11.5312  -16.7325   23.2411 N   0  0  0  0  0  0  0  0  0  0  0  0
   10.7181  -17.1337   24.3769 C   0  0  1  0  0  0  0  0  0  0  0  0
   10.9317  -18.5760   24.7365 C   0  0  0  0  0  0  0  0  0  0  0  0
   10.6534  -19.4997   23.6320 C   0  0  0  0  0  0  0  0  0  0  0  0
    9.5430  -19.6575   23.0734 O   0  0  0  0  0  0  0  0  0  0  0  0
   10.9862  -16.2774   25.5618 C   0  0  0  0  0  0  0  0  0  0  0  0
   12.1471  -15.8495   25.7292 O   0  0  0  0  0  0  0  0  0  0  0  0
   11.7129  -20.2729   23.1571 O   0  0  0  0  0  0  0  0  0  0  0  0
    9.3338  -13.0407   26.6858 C   0  0  0  0  0  0  0  0  0  0  0  0
    9.1414  -14.0428   27.8116 C   0  0  1  0  0  0  0  0  0  0  0  0
    7.8768  -14.5926   27.6674 O   0  0  0  0  0  0  0  0  0  0  0  0
   10.1597  -15.1262   27.6453 C   0  0  2  0  0  0  0  0  0  0  0  0
    9.9789  -15.9419   26.4876 N   0  0  0  0  0  0  0  0  0  0  0  0
   10.3058  -15.9582   28.8716 C   0  0  0  0  0  0  0  0  0  0  0  0
   10.1674  -17.3190   28.8868 O   0  0  0  0  0  0  0  0  0  0  0  0
   10.5709  -15.3641   29.9437 O   0  0  0  0  0  0  0  0  0  0  0  0
  1  2  1  0
  2  3  2  0
  2  4  1  0
  4  5  1  0
  5  7  1  0
  5  6  1  6
  7  9  1  0
  7  8  2  0
  9 10  1  0
 10 14  1  0
 10 11  1  1
 12 11  1  0
 13 12  2  0
 14 21  1  0
 14 15  2  0
 16 12  1  0
 18 17  1  6
 18 20  1  0
 19 18  1  0
 20 22  1  0
 20 21  1  6
 22 23  1  0
 24 22  2  0
M  END
$$$$
