NDT.pdb
     RDKit          3D

 24 23  0  0  1  0  0  0  0  0999 V2000
    8.4746  -12.3889   17.3778 N   0  0  0  0  0  0  0  0  0  0  0  0
    8.0039  -13.7052   17.0860 C   0  0  0  0  0  0  0  0  0  0  0  0
    7.6929  -14.0694   15.9305 O   0  0  0  0  0  0  0  0  0  0  0  0
    7.8832  -14.6693   18.2011 C   0  0  0  0  0  0  0  0  0  0  0  0
    8.8388  -15.8399   17.9750 C   0  0  2  0  0  0  0  0  0  0  0  0
    8.2093  -16.7301   17.0381 N   0  0  0  0  0  0  0  0  0  0  0  0
    9.0814  -16.4670   19.2975 C   0  0  0  0  0  0  0  0  0  0  0  0
    8.1910  -17.1978   19.8034 O   0  0  0  0  0  0  0  0  0  0  0  0
   10.2971  -16.2780   20.0378 N   0  0  0  0  0  0  0  0  0  0  0  0
   10.5045  -16.9474   21.3110 C   0  0  1  0  0  0  0  0  0  0  0  0
   11.8663  -17.5741   21.3985 C   0  0  0  0  0  0  0  0  0  0  0  0
   12.0806  -18.3329   22.6352 C   0  0  0  0  0  0  0  0  0  0  0  0
   11.1902  -18.9071   23.3039 O   0  0  0  0  0  0  0  0  0  0  0  0
   10.3095  -16.0127   22.4501 C   0  0  0  0  0  0  0  0  0  0  0  0
   11.1843  -15.1466   22.6582 O   0  0  0  0  0  0  0  0  0  0  0  0
   13.3875  -18.4273   23.1140 O   0  0  0  0  0  0  0  0  0  0  0  0
    7.3836  -13.7178   23.0564 C   0  0  0  0  0  0  0  0  0  0  0  0
    7.4916  -14.5943   24.2928 C   0  0  1  0  0  0  0  0  0  0  0  0
    6.5883  -15.6355   24.1447 O   0  0  0  0  0  0  0  0  0  0  0  0
    8.8759  -15.1601   24.3388 C   0  0  2  0  0  0  0  0  0  0  0  0
    9.1798  -16.0787   23.2889 N   0  0  0  0  0  0  0  0  0  0  0  0
    9.2069  -15.7375   25.6709 C   0  0  0  0  0  0  0  0  0  0  0  0
    9.1201  -15.0392   26.8438 O   0  0  0  0  0  0  0  0  0  0  0  0
    9.5852  -16.9327   25.7038 O   0  0  0  0  0  0  0  0  0  0  0  0
  1  2  1  0
  2  3  2  0
  2  4  1  0
  4  5  1  0
  5  7  1  0
  5  6  1  6
  7  9  1  0
  7  8  2  0
  9 10  1  0
 10 14  1  0
 10 11  1  6
 12 11  1  0
 13 12  2  0
 14 21  1  0
 14 15  2  0
 16 12  1  0
 18 17  1  6
 18 20  1  0
 19 18  1  0
 20 22  1  0
 20 21  1  6
 22 23  1  0
 24 22  2  0
M  END
$$$$
