NDT.pdb
     RDKit          3D

 24 23  0  0  1  0  0  0  0  0999 V2000
    7.6903  -19.0619   13.7654 N   0  0  0  0  0  0  0  0  0  0  0  0
    8.1011  -18.8736   15.1200 C   0  0  0  0  0  0  0  0  0  0  0  0
    9.2538  -19.1498   15.5197 O   0  0  0  0  0  0  0  0  0  0  0  0
    7.1176  -18.3292   16.0813 C   0  0  0  0  0  0  0  0  0  0  0  0
    7.7158  -17.1217   16.8013 C   0  0  2  0  0  0  0  0  0  0  0  0
    8.7815  -16.6185   15.9783 N   0  0  0  0  0  0  0  0  0  0  0  0
    8.1811  -17.5919   18.1293 C   0  0  0  0  0  0  0  0  0  0  0  0
    7.3522  -18.1062   18.9239 O   0  0  0  0  0  0  0  0  0  0  0  0
    9.5476  -17.4871   18.5577 N   0  0  0  0  0  0  0  0  0  0  0  0
    9.9373  -17.8750   19.9030 C   0  0  1  0  0  0  0  0  0  0  0  0
   11.2239  -18.6494   19.9116 C   0  0  0  0  0  0  0  0  0  0  0  0
   11.5353  -19.2481   21.2137 C   0  0  0  0  0  0  0  0  0  0  0  0
   10.7852  -19.2460   22.2173 O   0  0  0  0  0  0  0  0  0  0  0  0
   10.0602  -16.6902   20.7920 C   0  0  0  0  0  0  0  0  0  0  0  0
   11.0411  -15.9342   20.6341 O   0  0  0  0  0  0  0  0  0  0  0  0
   12.7730  -19.8763   21.3537 O   0  0  0  0  0  0  0  0  0  0  0  0
    7.7397  -13.8006   21.4120 C   0  0  0  0  0  0  0  0  0  0  0  0
    7.9270  -14.4743   22.7609 C   0  0  1  0  0  0  0  0  0  0  0  0
    6.8440  -15.3170   22.9589 O   0  0  0  0  0  0  0  0  0  0  0  0
    9.1737  -15.2990   22.6967 C   0  0  2  0  0  0  0  0  0  0  0  0
    9.1124  -16.4032   21.7938 N   0  0  0  0  0  0  0  0  0  0  0  0
    9.6357  -15.7316   24.0445 C   0  0  0  0  0  0  0  0  0  0  0  0
    9.9251  -14.8648   25.0623 O   0  0  0  0  0  0  0  0  0  0  0  0
    9.7619  -16.9634   24.2433 O   0  0  0  0  0  0  0  0  0  0  0  0
  1  2  1  0
  2  3  2  0
  2  4  1  0
  4  5  1  0
  5  7  1  0
  5  6  1  6
  7  9  1  0
  7  8  2  0
  9 10  1  0
 10 14  1  0
 10 11  1  6
 12 11  1  0
 13 12  2  0
 14 21  1  0
 14 15  2  0
 16 12  1  0
 18 17  1  6
 18 20  1  0
 19 18  1  0
 20 22  1  0
 20 21  1  6
 22 23  1  0
 24 22  2  0
M  END
$$$$
