NDT.pdb
     RDKit          3D

 24 23  0  0  1  0  0  0  0  0999 V2000
    8.7044  -12.1870   18.3467 N   0  0  0  0  0  0  0  0  0  0  0  0
    7.9032  -13.3682   18.3028 C   0  0  0  0  0  0  0  0  0  0  0  0
    7.4010  -13.8034   17.2431 O   0  0  0  0  0  0  0  0  0  0  0  0
    7.6636  -14.0997   19.5658 C   0  0  0  0  0  0  0  0  0  0  0  0
    8.7228  -15.1871   19.7396 C   0  0  2  0  0  0  0  0  0  0  0  0
    8.4344  -16.2208   18.7831 N   0  0  0  0  0  0  0  0  0  0  0  0
    8.6393  -15.6571   21.1443 C   0  0  0  0  0  0  0  0  0  0  0  0
    7.5429  -16.0920   21.5824 O   0  0  0  0  0  0  0  0  0  0  0  0
    9.7618  -15.6395   22.0396 N   0  0  0  0  0  0  0  0  0  0  0  0
    9.6331  -16.1242   23.4036 C   0  0  1  0  0  0  0  0  0  0  0  0
   10.7669  -17.0324   23.7842 C   0  0  0  0  0  0  0  0  0  0  0  0
   10.8898  -18.2072   22.9149 C   0  0  0  0  0  0  0  0  0  0  0  0
   10.0762  -19.1578   22.8516 O   0  0  0  0  0  0  0  0  0  0  0  0
    9.5473  -14.9986   24.3704 C   0  0  0  0  0  0  0  0  0  0  0  0
   10.4563  -14.1428   24.3608 O   0  0  0  0  0  0  0  0  0  0  0  0
   12.0078  -18.2786   22.0837 O   0  0  0  0  0  0  0  0  0  0  0  0
    7.0102  -12.2431   25.0113 C   0  0  0  0  0  0  0  0  0  0  0  0
    7.0419  -13.1261   26.2475 C   0  0  1  0  0  0  0  0  0  0  0  0
    6.0221  -14.0566   26.1202 O   0  0  0  0  0  0  0  0  0  0  0  0
    8.3527  -13.8473   26.2669 C   0  0  2  0  0  0  0  0  0  0  0  0
    8.4825  -14.8749   25.2843 N   0  0  0  0  0  0  0  0  0  0  0  0
    8.6994  -14.3538   27.6236 C   0  0  0  0  0  0  0  0  0  0  0  0
    8.7891  -13.5568   28.7316 O   0  0  0  0  0  0  0  0  0  0  0  0
    8.9188  -15.5829   27.7419 O   0  0  0  0  0  0  0  0  0  0  0  0
  1  2  1  0
  2  3  2  0
  2  4  1  0
  4  5  1  0
  5  7  1  0
  5  6  1  6
  7  9  1  0
  7  8  2  0
  9 10  1  0
 10 14  1  0
 10 11  1  1
 12 11  1  0
 13 12  2  0
 14 21  1  0
 14 15  2  0
 16 12  1  0
 18 17  1  6
 18 20  1  0
 19 18  1  0
 20 22  1  0
 20 21  1  6
 22 23  1  0
 24 22  2  0
M  END
$$$$
