NDT.pdb
     RDKit          3D

 24 23  0  0  1  0  0  0  0  0999 V2000
   13.4691  -22.9947   16.3796 N   0  0  0  0  0  0  0  0  0  0  0  0
   13.2889  -21.7280   17.0138 C   0  0  0  0  0  0  0  0  0  0  0  0
   12.1605  -21.2210   17.1989 O   0  0  0  0  0  0  0  0  0  0  0  0
   14.4904  -20.9942   17.4671 C   0  0  0  0  0  0  0  0  0  0  0  0
   14.2263  -20.3703   18.8366 C   0  0  2  0  0  0  0  0  0  0  0  0
   13.4643  -21.3213   19.5993 N   0  0  0  0  0  0  0  0  0  0  0  0
   13.4996  -19.0981   18.6038 C   0  0  0  0  0  0  0  0  0  0  0  0
   14.1028  -18.1365   18.0610 O   0  0  0  0  0  0  0  0  0  0  0  0
   12.1250  -18.9075   18.9725 N   0  0  0  0  0  0  0  0  0  0  0  0
   11.4839  -17.6132   18.8108 C   0  0  1  0  0  0  0  0  0  0  0  0
   10.1315  -17.7348   18.1696 C   0  0  0  0  0  0  0  0  0  0  0  0
   10.1838  -18.2146   16.7847 C   0  0  0  0  0  0  0  0  0  0  0  0
   11.2249  -18.3814   16.1079 O   0  0  0  0  0  0  0  0  0  0  0  0
   11.3591  -16.9066   20.1124 C   0  0  0  0  0  0  0  0  0  0  0  0
   10.7469  -15.8188   20.1362 O   0  0  0  0  0  0  0  0  0  0  0  0
    8.9723  -18.5130   16.1608 O   0  0  0  0  0  0  0  0  0  0  0  0
    9.4901  -16.6517   22.8817 C   0  0  0  0  0  0  0  0  0  0  0  0
   10.7901  -17.1614   23.4808 C   0  0  1  0  0  0  0  0  0  0  0  0
   10.7158  -18.5452   23.5194 O   0  0  0  0  0  0  0  0  0  0  0  0
   11.9069  -16.7641   22.5678 C   0  0  2  0  0  0  0  0  0  0  0  0
   11.9064  -17.4251   21.3023 N   0  0  0  0  0  0  0  0  0  0  0  0
   13.2387  -16.8646   23.2263 C   0  0  0  0  0  0  0  0  0  0  0  0
   13.5703  -16.1986   24.3741 O   0  0  0  0  0  0  0  0  0  0  0  0
   14.0946  -17.6057   22.6869 O   0  0  0  0  0  0  0  0  0  0  0  0
  1  2  1  0
  2  3  2  0
  2  4  1  0
  4  5  1  0
  5  7  1  0
  5  6  1  1
  7  9  1  0
  7  8  2  0
  9 10  1  0
 10 14  1  0
 10 11  1  1
 12 11  1  0
 13 12  2  0
 14 21  1  0
 14 15  2  0
 16 12  1  0
 18 17  1  6
 18 20  1  0
 19 18  1  0
 20 22  1  0
 20 21  1  6
 22 23  1  0
 24 22  2  0
M  END
$$$$
