GGT.pdb
     RDKit          3D

 16 15  0  0  1  0  0  0  0  0999 V2000
   14.7814  -21.8161    0.7029 N   0  0  0  0  0  0  0  0  0  0  0  0
   14.6069  -21.1326    1.9764 C   0  0  0  0  0  0  0  0  0  0  0  0
   15.9309  -20.6076    2.4023 C   0  0  0  0  0  0  0  0  0  0  0  0
   16.8969  -20.5177    1.5892 O   0  0  0  0  0  0  0  0  0  0  0  0
   16.1273  -20.1995    3.7317 N   0  0  0  0  0  0  0  0  0  0  0  0
   17.3946  -19.6326    4.1611 C   0  0  0  0  0  0  0  0  0  0  0  0
   17.3998  -19.4206    5.6281 C   0  0  0  0  0  0  0  0  0  0  0  0
   16.4120  -19.6662    6.3640 O   0  0  0  0  0  0  0  0  0  0  0  0
   20.3197  -18.7467    9.5612 C   0  0  0  0  0  0  0  0  0  0  0  0
   20.0679  -18.9315    8.0972 C   0  0  1  0  0  0  0  0  0  0  0  0
   20.4286  -20.2053    7.6608 O   0  0  0  0  0  0  0  0  0  0  0  0
   18.6424  -18.6946    7.6915 C   0  0  2  0  0  0  0  0  0  0  0  0
   18.5721  -18.9156    6.2449 N   0  0  0  0  0  0  0  0  0  0  0  0
   18.1736  -17.3296    8.0015 C   0  0  0  0  0  0  0  0  0  0  0  0
   18.4290  -16.3873    7.2083 O   0  0  0  0  0  0  0  0  0  0  0  0
   17.4485  -16.9975    9.1396 O   0  0  0  0  0  0  0  0  0  0  0  0
  2  1  1  0
  3  5  1  0
  3  2  1  0
  4  3  2  0
  6  5  1  0
  7  6  1  0
  8  7  2  0
 10 12  1  0
 10  9  1  1
 11 10  1  0
 12 13  1  6
 13  7  1  0
 14 16  1  0
 14 12  1  0
 15 14  2  0
M  END
$$$$
