GGT.pdb
     RDKit          3D

 16 15  0  0  1  0  0  0  0  0999 V2000
   16.9631  -11.1118  -15.3343 N   0  0  0  0  0  0  0  0  0  0  0  0
   17.5543   -9.7968  -15.5349 C   0  0  0  0  0  0  0  0  0  0  0  0
   18.9709   -9.9863  -15.9437 C   0  0  0  0  0  0  0  0  0  0  0  0
   19.2744  -10.6290  -16.9912 O   0  0  0  0  0  0  0  0  0  0  0  0
   20.0038   -9.4462  -15.1602 N   0  0  0  0  0  0  0  0  0  0  0  0
   21.3935   -9.5656  -15.5681 C   0  0  0  0  0  0  0  0  0  0  0  0
   22.0777   -8.2540  -15.4763 C   0  0  0  0  0  0  0  0  0  0  0  0
   23.2946   -8.0908  -15.7411 O   0  0  0  0  0  0  0  0  0  0  0  0
   21.1449   -5.1313  -17.2395 C   0  0  0  0  0  0  0  0  0  0  0  0
   21.1171   -4.8520  -15.7690 C   0  0  1  0  0  0  0  0  0  0  0  0
   19.8216   -4.8810  -15.2552 O   0  0  0  0  0  0  0  0  0  0  0  0
   21.9540   -5.7958  -14.9557 C   0  0  2  0  0  0  0  0  0  0  0  0
   21.3332   -7.1178  -15.0705 N   0  0  0  0  0  0  0  0  0  0  0  0
   22.0346   -5.4148  -13.5318 C   0  0  0  0  0  0  0  0  0  0  0  0
   21.4833   -6.1362  -12.6611 O   0  0  0  0  0  0  0  0  0  0  0  0
   22.6945   -4.2836  -13.0668 O   0  0  0  0  0  0  0  0  0  0  0  0
  2  1  1  0
  3  5  1  0
  3  2  1  0
  4  3  2  0
  6  5  1  0
  7  6  1  0
  8  7  2  0
 10 12  1  0
 10  9  1  6
 11 10  1  0
 12 13  1  1
 13  7  1  0
 14 16  1  0
 14 12  1  0
 15 14  2  0
M  END
$$$$
