GGT.pdb
     RDKit          3D

 16 15  0  0  1  0  0  0  0  0999 V2000
   16.6634  -12.9090  -15.7354 N   0  0  0  0  0  0  0  0  0  0  0  0
   17.8961  -12.5057  -15.0743 C   0  0  0  0  0  0  0  0  0  0  0  0
   17.9237  -11.0205  -15.0181 C   0  0  0  0  0  0  0  0  0  0  0  0
   17.0009  -10.3651  -14.4512 O   0  0  0  0  0  0  0  0  0  0  0  0
   18.9901  -10.3176  -15.6021 N   0  0  0  0  0  0  0  0  0  0  0  0
   19.0187   -8.8647  -15.6011 C   0  0  0  0  0  0  0  0  0  0  0  0
   20.3797   -8.3708  -15.2833 C   0  0  0  0  0  0  0  0  0  0  0  0
   21.4067   -9.0914  -15.3450 O   0  0  0  0  0  0  0  0  0  0  0  0
   22.1914   -6.3557  -17.2331 C   0  0  0  0  0  0  0  0  0  0  0  0
   22.1054   -5.5743  -15.9591 C   0  0  1  0  0  0  0  0  0  0  0  0
   21.1002   -4.6097  -16.0036 O   0  0  0  0  0  0  0  0  0  0  0  0
   21.8745   -6.4212  -14.7417 C   0  0  2  0  0  0  0  0  0  0  0  0
   20.5452   -7.0194  -14.8885 N   0  0  0  0  0  0  0  0  0  0  0  0
   21.9281   -5.6503  -13.4839 C   0  0  0  0  0  0  0  0  0  0  0  0
   20.8596   -5.2718  -12.9384 O   0  0  0  0  0  0  0  0  0  0  0  0
   23.1074   -5.3006  -12.8372 O   0  0  0  0  0  0  0  0  0  0  0  0
  2  1  1  0
  3  5  1  0
  3  2  1  0
  4  3  2  0
  6  5  1  0
  7  6  1  0
  8  7  2  0
 10 12  1  0
 10  9  1  6
 11 10  1  0
 12 13  1  6
 13  7  1  0
 14 16  1  0
 14 12  1  0
 15 14  2  0
M  END
$$$$
