GGT.pdb
     RDKit          3D

 16 15  0  0  1  0  0  0  0  0999 V2000
   16.1659  -12.7254  -15.2484 N   0  0  0  0  0  0  0  0  0  0  0  0
   17.2977  -12.0821  -15.8999 C   0  0  0  0  0  0  0  0  0  0  0  0
   17.3628  -10.6747  -15.4258 C   0  0  0  0  0  0  0  0  0  0  0  0
   16.3169   -9.9731  -15.2983 O   0  0  0  0  0  0  0  0  0  0  0  0
   18.6043  -10.0994  -15.1094 N   0  0  0  0  0  0  0  0  0  0  0  0
   18.6985   -8.7177  -14.6691 C   0  0  0  0  0  0  0  0  0  0  0  0
   20.1163   -8.3218  -14.4960 C   0  0  0  0  0  0  0  0  0  0  0  0
   21.0763   -9.1219  -14.6228 O   0  0  0  0  0  0  0  0  0  0  0  0
   21.0605   -5.5202  -16.5074 C   0  0  0  0  0  0  0  0  0  0  0  0
   22.0743   -6.3220  -15.7523 C   0  0  1  0  0  0  0  0  0  0  0  0
   23.3597   -5.7995  -15.8858 O   0  0  0  0  0  0  0  0  0  0  0  0
   21.7802   -6.4466  -14.2858 C   0  0  2  0  0  0  0  0  0  0  0  0
   20.4188   -6.9755  -14.1708 N   0  0  0  0  0  0  0  0  0  0  0  0
   21.8675   -5.1595  -13.5684 C   0  0  0  0  0  0  0  0  0  0  0  0
   20.8308   -4.4665  -13.4023 O   0  0  0  0  0  0  0  0  0  0  0  0
   23.0459   -4.6397  -13.0465 O   0  0  0  0  0  0  0  0  0  0  0  0
  2  1  1  0
  3  5  1  0
  3  2  1  0
  4  3  2  0
  6  5  1  0
  7  6  1  0
  8  7  2  0
 10 12  1  0
 10  9  1  1
 11 10  1  0
 12 13  1  6
 13  7  1  0
 14 16  1  0
 14 12  1  0
 15 14  2  0
M  END
$$$$
