GGT.pdb
     RDKit          3D

 16 15  0  0  1  0  0  0  0  0999 V2000
   14.0432  -13.5197  -14.8171 N   0  0  0  0  0  0  0  0  0  0  0  0
   14.7760  -12.4984  -14.0830 C   0  0  0  0  0  0  0  0  0  0  0  0
   15.9242  -12.0635  -14.9212 C   0  0  0  0  0  0  0  0  0  0  0  0
   16.1096  -12.5354  -16.0810 O   0  0  0  0  0  0  0  0  0  0  0  0
   16.8294  -11.1099  -14.4278 N   0  0  0  0  0  0  0  0  0  0  0  0
   17.8940  -10.5846  -15.2659 C   0  0  0  0  0  0  0  0  0  0  0  0
   18.7357   -9.6324  -14.5030 C   0  0  0  0  0  0  0  0  0  0  0  0
   18.6310   -9.4595  -13.2633 O   0  0  0  0  0  0  0  0  0  0  0  0
   22.3735   -9.8437  -14.2902 C   0  0  0  0  0  0  0  0  0  0  0  0
   22.0367   -8.4948  -14.8451 C   0  0  1  0  0  0  0  0  0  0  0  0
   22.1469   -8.4579  -16.2342 O   0  0  0  0  0  0  0  0  0  0  0  0
   20.6620   -8.0145  -14.4815 C   0  0  2  0  0  0  0  0  0  0  0  0
   19.7119   -8.8720  -15.1946 N   0  0  0  0  0  0  0  0  0  0  0  0
   20.4255   -6.6059  -14.8547 C   0  0  0  0  0  0  0  0  0  0  0  0
   19.7829   -6.3378  -15.9024 O   0  0  0  0  0  0  0  0  0  0  0  0
   20.8736   -5.5202  -14.1120 O   0  0  0  0  0  0  0  0  0  0  0  0
  2  1  1  0
  3  5  1  0
  3  2  1  0
  4  3  2  0
  6  5  1  0
  7  6  1  0
  8  7  2  0
 10 12  1  0
 10  9  1  6
 11 10  1  0
 12 13  1  6
 13  7  1  0
 14 16  1  0
 14 12  1  0
 15 14  2  0
M  END
$$$$
