GGT.pdb
     RDKit          3D

 16 15  0  0  1  0  0  0  0  0999 V2000
   18.1125  -18.0009  -14.8566 N   0  0  0  0  0  0  0  0  0  0  0  0
   17.7715  -17.2064  -16.0278 C   0  0  0  0  0  0  0  0  0  0  0  0
   17.3093  -15.8729  -15.5608 C   0  0  0  0  0  0  0  0  0  0  0  0
   16.4437  -15.7591  -14.6442 O   0  0  0  0  0  0  0  0  0  0  0  0
   17.8361  -14.7071  -16.1404 N   0  0  0  0  0  0  0  0  0  0  0  0
   17.3861  -13.3917  -15.7172 C   0  0  0  0  0  0  0  0  0  0  0  0
   18.4644  -12.3904  -15.8948 C   0  0  0  0  0  0  0  0  0  0  0  0
   19.6653  -12.6984  -16.0964 O   0  0  0  0  0  0  0  0  0  0  0  0
   18.6081  -10.0261  -18.5758 C   0  0  0  0  0  0  0  0  0  0  0  0
   18.6420   -9.2166  -17.3170 C   0  0  1  0  0  0  0  0  0  0  0  0
   17.3915   -8.6880  -17.0009 O   0  0  0  0  0  0  0  0  0  0  0  0
   19.1346   -9.9760  -16.1197 C   0  0  2  0  0  0  0  0  0  0  0  0
   18.1381  -11.0120  -15.8366 N   0  0  0  0  0  0  0  0  0  0  0  0
   19.3071   -9.1238  -14.9268 C   0  0  0  0  0  0  0  0  0  0  0  0
   18.4125   -9.1000  -14.0427 O   0  0  0  0  0  0  0  0  0  0  0  0
   20.4184   -8.3207  -14.7004 O   0  0  0  0  0  0  0  0  0  0  0  0
  2  1  1  0
  3  5  1  0
  3  2  1  0
  4  3  2  0
  6  5  1  0
  7  6  1  0
  8  7  2  0
 10 12  1  0
 10  9  1  6
 11 10  1  0
 12 13  1  1
 13  7  1  0
 14 16  1  0
 14 12  1  0
 15 14  2  0
M  END
$$$$
