GGT.pdb
     RDKit          3D

 16 15  0  0  1  0  0  0  0  0999 V2000
   22.2997  -13.2900  -18.9961 N   0  0  0  0  0  0  0  0  0  0  0  0
   21.2975  -12.2395  -18.8903 C   0  0  0  0  0  0  0  0  0  0  0  0
   21.4233  -11.6168  -17.5463 C   0  0  0  0  0  0  0  0  0  0  0  0
   21.4425  -12.3195  -16.4935 O   0  0  0  0  0  0  0  0  0  0  0  0
   21.5238  -10.2210  -17.4282 N   0  0  0  0  0  0  0  0  0  0  0  0
   21.6273   -9.5856  -16.1254 C   0  0  0  0  0  0  0  0  0  0  0  0
   21.8451   -8.1269  -16.2733 C   0  0  0  0  0  0  0  0  0  0  0  0
   21.8201   -7.5346  -17.3806 O   0  0  0  0  0  0  0  0  0  0  0  0
   19.5099   -6.3292  -14.5459 C   0  0  0  0  0  0  0  0  0  0  0  0
   20.4785   -5.6339  -15.4510 C   0  0  1  0  0  0  0  0  0  0  0  0
   20.2870   -4.2532  -15.4607 O   0  0  0  0  0  0  0  0  0  0  0  0
   21.9179   -5.8947  -15.1155 C   0  0  2  0  0  0  0  0  0  0  0  0
   22.0953   -7.3489  -15.1149 N   0  0  0  0  0  0  0  0  0  0  0  0
   22.3109   -5.3531  -13.7996 C   0  0  0  0  0  0  0  0  0  0  0  0
   22.3172   -6.1062  -12.7920 O   0  0  0  0  0  0  0  0  0  0  0  0
   22.6861   -4.0326  -13.5841 O   0  0  0  0  0  0  0  0  0  0  0  0
  2  1  1  0
  3  5  1  0
  3  2  1  0
  4  3  2  0
  6  5  1  0
  7  6  1  0
  8  7  2  0
 10 12  1  0
 10  9  1  1
 11 10  1  0
 12 13  1  1
 13  7  1  0
 14 16  1  0
 14 12  1  0
 15 14  2  0
M  END
$$$$
