GGT.pdb
     RDKit          3D

 16 15  0  0  1  0  0  0  0  0999 V2000
   18.2218  -13.9478  -17.4362 N   0  0  0  0  0  0  0  0  0  0  0  0
   18.4607  -12.5176  -17.3071 C   0  0  0  0  0  0  0  0  0  0  0  0
   19.8994  -12.3179  -16.9908 C   0  0  0  0  0  0  0  0  0  0  0  0
   20.7056  -13.2927  -16.9446 O   0  0  0  0  0  0  0  0  0  0  0  0
   20.3872  -11.0258  -16.7359 N   0  0  0  0  0  0  0  0  0  0  0  0
   21.7867  -10.8043  -16.4129 C   0  0  0  0  0  0  0  0  0  0  0  0
   22.0554   -9.3587  -16.2258 C   0  0  0  0  0  0  0  0  0  0  0  0
   23.2008   -8.8932  -16.0039 O   0  0  0  0  0  0  0  0  0  0  0  0
   20.7697   -6.5954  -18.5992 C   0  0  0  0  0  0  0  0  0  0  0  0
   20.3268   -6.3351  -17.1931 C   0  0  1  0  0  0  0  0  0  0  0  0
   19.0080   -6.7318  -16.9779 O   0  0  0  0  0  0  0  0  0  0  0  0
   21.1812   -7.0009  -16.1541 C   0  0  2  0  0  0  0  0  0  0  0  0
   20.9747   -8.4442  -16.2983 N   0  0  0  0  0  0  0  0  0  0  0  0
   20.8388   -6.5925  -14.7775 C   0  0  0  0  0  0  0  0  0  0  0  0
   20.2026   -7.3819  -14.0329 O   0  0  0  0  0  0  0  0  0  0  0  0
   21.1775   -5.3630  -14.2254 O   0  0  0  0  0  0  0  0  0  0  0  0
  2  1  1  0
  3  5  1  0
  3  2  1  0
  4  3  2  0
  6  5  1  0
  7  6  1  0
  8  7  2  0
 10 12  1  0
 10  9  1  6
 11 10  1  0
 12 13  1  1
 13  7  1  0
 14 16  1  0
 14 12  1  0
 15 14  2  0
M  END
$$$$
