GGT.pdb
     RDKit          3D

 16 15  0  0  1  0  0  0  0  0999 V2000
   17.4745  -12.0657  -16.6722 N   0  0  0  0  0  0  0  0  0  0  0  0
   18.6027  -11.3155  -17.2047 C   0  0  0  0  0  0  0  0  0  0  0  0
   19.5123  -10.9884  -16.0753 C   0  0  0  0  0  0  0  0  0  0  0  0
   19.6222  -11.7552  -15.0741 O   0  0  0  0  0  0  0  0  0  0  0  0
   20.2712   -9.8072  -16.1074 N   0  0  0  0  0  0  0  0  0  0  0  0
   21.2497   -9.5178  -15.0726 C   0  0  0  0  0  0  0  0  0  0  0  0
   21.9183   -8.2215  -15.3360 C   0  0  0  0  0  0  0  0  0  0  0  0
   22.9210   -8.1018  -16.0830 O   0  0  0  0  0  0  0  0  0  0  0  0
   20.3850   -5.4335  -16.9763 C   0  0  0  0  0  0  0  0  0  0  0  0
   20.8299   -4.9309  -15.6382 C   0  0  1  0  0  0  0  0  0  0  0  0
   19.7846   -4.9010  -14.7165 O   0  0  0  0  0  0  0  0  0  0  0  0
   21.9515   -5.7242  -15.0337 C   0  0  2  0  0  0  0  0  0  0  0  0
   21.4113   -7.0495  -14.7203 N   0  0  0  0  0  0  0  0  0  0  0  0
   22.4930   -5.1130  -13.8040 C   0  0  0  0  0  0  0  0  0  0  0  0
   23.1752   -4.0588  -13.8797 O   0  0  0  0  0  0  0  0  0  0  0  0
   22.2995   -5.6313  -12.5291 O   0  0  0  0  0  0  0  0  0  0  0  0
  2  1  1  0
  3  5  1  0
  3  2  1  0
  4  3  2  0
  6  5  1  0
  7  6  1  0
  8  7  2  0
 10 12  1  0
 10  9  1  6
 11 10  1  0
 12 13  1  1
 13  7  1  0
 14 16  1  0
 14 12  1  0
 15 14  2  0
M  END
$$$$
