GGT.pdb
     RDKit          3D

 16 15  0  0  1  0  0  0  0  0999 V2000
   15.6723  -12.1358  -14.9092 N   0  0  0  0  0  0  0  0  0  0  0  0
   14.9695  -10.9893  -14.3516 C   0  0  0  0  0  0  0  0  0  0  0  0
   15.7316  -10.5136  -13.1672 C   0  0  0  0  0  0  0  0  0  0  0  0
   16.7698  -11.1164  -12.7658 O   0  0  0  0  0  0  0  0  0  0  0  0
   15.3015   -9.3728  -12.4701 N   0  0  0  0  0  0  0  0  0  0  0  0
   16.1031   -8.8028  -11.4004 C   0  0  0  0  0  0  0  0  0  0  0  0
   15.4382   -7.6060  -10.8324 C   0  0  0  0  0  0  0  0  0  0  0  0
   14.7439   -6.8131  -11.5159 O   0  0  0  0  0  0  0  0  0  0  0  0
   13.8016   -5.3628   -6.7982 C   0  0  0  0  0  0  0  0  0  0  0  0
   14.3915   -6.5083   -7.5604 C   0  0  1  0  0  0  0  0  0  0  0  0
   13.4430   -7.4879   -7.8499 O   0  0  0  0  0  0  0  0  0  0  0  0
   15.0446   -6.1070   -8.8507 C   0  0  2  0  0  0  0  0  0  0  0  0
   15.5848   -7.3301   -9.4496 N   0  0  0  0  0  0  0  0  0  0  0  0
   16.1353   -5.1296   -8.6658 C   0  0  0  0  0  0  0  0  0  0  0  0
   17.2499   -5.5144   -8.2277 O   0  0  0  0  0  0  0  0  0  0  0  0
   16.0191   -3.7739   -8.9483 O   0  0  0  0  0  0  0  0  0  0  0  0
  2  1  1  0
  3  5  1  0
  3  2  1  0
  4  3  2  0
  6  5  1  0
  7  6  1  0
  8  7  2  0
 10 12  1  0
 10  9  1  6
 11 10  1  0
 12 13  1  1
 13  7  1  0
 14 16  1  0
 14 12  1  0
 15 14  2  0
M  END
$$$$
