GGT.pdb
     RDKit          3D

 16 15  0  0  1  0  0  0  0  0999 V2000
   25.8621  -22.6187  -17.4383 N   0  0  0  0  0  0  0  0  0  0  0  0
   26.5122  -21.3261  -17.2783 C   0  0  0  0  0  0  0  0  0  0  0  0
   26.9860  -21.2199  -15.8732 C   0  0  0  0  0  0  0  0  0  0  0  0
   26.7306  -22.1209  -15.0216 O   0  0  0  0  0  0  0  0  0  0  0  0
   27.7335  -20.1016  -15.4693 N   0  0  0  0  0  0  0  0  0  0  0  0
   28.2251  -19.9823  -14.1070 C   0  0  0  0  0  0  0  0  0  0  0  0
   27.1361  -19.5574  -13.1957 C   0  0  0  0  0  0  0  0  0  0  0  0
   26.7041  -18.3793  -13.1394 O   0  0  0  0  0  0  0  0  0  0  0  0
   23.9800  -21.5313  -13.0788 C   0  0  0  0  0  0  0  0  0  0  0  0
   24.1811  -20.2227  -12.3801 C   0  0  1  0  0  0  0  0  0  0  0  0
   23.0775  -19.8677  -11.6061 O   0  0  0  0  0  0  0  0  0  0  0  0
   25.3926  -20.1868  -11.4949 C   0  0  2  0  0  0  0  0  0  0  0  0
   26.5432  -20.5186  -12.3389 N   0  0  0  0  0  0  0  0  0  0  0  0
   25.3162  -21.1435  -10.3733 C   0  0  0  0  0  0  0  0  0  0  0  0
   26.0374  -22.1741  -10.3825 O   0  0  0  0  0  0  0  0  0  0  0  0
   24.4810  -20.9858   -9.2738 O   0  0  0  0  0  0  0  0  0  0  0  0
  2  1  1  0
  3  5  1  0
  3  2  1  0
  4  3  2  0
  6  5  1  0
  7  6  1  0
  8  7  2  0
 10 12  1  0
 10  9  1  1
 11 10  1  0
 12 13  1  6
 13  7  1  0
 14 16  1  0
 14 12  1  0
 15 14  2  0
M  END
$$$$
