GGT.pdb
     RDKit          3D

 16 15  0  0  1  0  0  0  0  0999 V2000
   15.6909  -11.6622  -14.5221 N   0  0  0  0  0  0  0  0  0  0  0  0
   16.8879  -11.6578  -15.3505 C   0  0  0  0  0  0  0  0  0  0  0  0
   17.2450  -10.2432  -15.6360 C   0  0  0  0  0  0  0  0  0  0  0  0
   16.5753   -9.5465  -16.4536 O   0  0  0  0  0  0  0  0  0  0  0  0
   18.3459   -9.6555  -14.9919 N   0  0  0  0  0  0  0  0  0  0  0  0
   18.6734   -8.2547  -15.1977 C   0  0  0  0  0  0  0  0  0  0  0  0
   19.8776   -7.8814  -14.4183 C   0  0  0  0  0  0  0  0  0  0  0  0
   20.2910   -8.5383  -13.4308 O   0  0  0  0  0  0  0  0  0  0  0  0
   23.2002   -7.8529  -15.6626 C   0  0  0  0  0  0  0  0  0  0  0  0
   22.9440   -6.4600  -15.1776 C   0  0  1  0  0  0  0  0  0  0  0  0
   22.6039   -5.5976  -16.2187 O   0  0  0  0  0  0  0  0  0  0  0  0
   21.8673   -6.3680  -14.1360 C   0  0  2  0  0  0  0  0  0  0  0  0
   20.6092   -6.7271  -14.7953 N   0  0  0  0  0  0  0  0  0  0  0  0
   21.7451   -5.0186  -13.5501 C   0  0  0  0  0  0  0  0  0  0  0  0
   20.8776   -4.2226  -13.9931 O   0  0  0  0  0  0  0  0  0  0  0  0
   22.5415   -4.5472  -12.5134 O   0  0  0  0  0  0  0  0  0  0  0  0
  2  1  1  0
  3  5  1  0
  3  2  1  0
  4  3  2  0
  6  5  1  0
  7  6  1  0
  8  7  2  0
 10 12  1  0
 10  9  1  6
 11 10  1  0
 12 13  1  6
 13  7  1  0
 14 16  1  0
 14 12  1  0
 15 14  2  0
M  END
$$$$
