GGT.pdb
     RDKit          3D

 16 15  0  0  1  0  0  0  0  0999 V2000
   19.1739  -13.4497  -17.4317 N   0  0  0  0  0  0  0  0  0  0  0  0
   20.6207  -13.2888  -17.4360 C   0  0  0  0  0  0  0  0  0  0  0  0
   21.0213  -12.6911  -16.1351 C   0  0  0  0  0  0  0  0  0  0  0  0
   20.2760  -12.7722  -15.1151 O   0  0  0  0  0  0  0  0  0  0  0  0
   22.2497  -12.0199  -16.0219 N   0  0  0  0  0  0  0  0  0  0  0  0
   22.6156  -11.3302  -14.7962 C   0  0  0  0  0  0  0  0  0  0  0  0
   22.6959   -9.8680  -15.0256 C   0  0  0  0  0  0  0  0  0  0  0  0
   23.7813   -9.2477  -15.1482 O   0  0  0  0  0  0  0  0  0  0  0  0
   21.7285   -7.9308  -17.8199 C   0  0  0  0  0  0  0  0  0  0  0  0
   20.8979   -7.4293  -16.6799 C   0  0  1  0  0  0  0  0  0  0  0  0
   19.6219   -7.9904  -16.6756 O   0  0  0  0  0  0  0  0  0  0  0  0
   21.5094   -7.6708  -15.3307 C   0  0  2  0  0  0  0  0  0  0  0  0
   21.4952   -9.1195  -15.1130 N   0  0  0  0  0  0  0  0  0  0  0  0
   20.7755   -7.0043  -14.2370 C   0  0  0  0  0  0  0  0  0  0  0  0
   20.7959   -5.7497  -14.1461 O   0  0  0  0  0  0  0  0  0  0  0  0
   20.0409   -7.6801  -13.2701 O   0  0  0  0  0  0  0  0  0  0  0  0
  2  1  1  0
  3  5  1  0
  3  2  1  0
  4  3  2  0
  6  5  1  0
  7  6  1  0
  8  7  2  0
 10 12  1  0
 10  9  1  6
 11 10  1  0
 12 13  1  1
 13  7  1  0
 14 16  1  0
 14 12  1  0
 15 14  2  0
M  END
$$$$
