GGT.pdb
     RDKit          3D

 16 15  0  0  1  0  0  0  0  0999 V2000
   16.8902  -13.0612  -15.5161 N   0  0  0  0  0  0  0  0  0  0  0  0
   17.9916  -12.2341  -15.9875 C   0  0  0  0  0  0  0  0  0  0  0  0
   17.8328  -10.8777  -15.4004 C   0  0  0  0  0  0  0  0  0  0  0  0
   16.6930  -10.4235  -15.0890 O   0  0  0  0  0  0  0  0  0  0  0  0
   18.9628  -10.0730  -15.1816 N   0  0  0  0  0  0  0  0  0  0  0  0
   18.8448   -8.7764  -14.5361 C   0  0  0  0  0  0  0  0  0  0  0  0
   20.1840   -8.2402  -14.1959 C   0  0  0  0  0  0  0  0  0  0  0  0
   21.0260   -8.8716  -13.5101 O   0  0  0  0  0  0  0  0  0  0  0  0
   22.8125   -7.4510  -16.4939 C   0  0  0  0  0  0  0  0  0  0  0  0
   22.5148   -6.1820  -15.7578 C   0  0  1  0  0  0  0  0  0  0  0  0
   21.6877   -5.3331  -16.4915 O   0  0  0  0  0  0  0  0  0  0  0  0
   21.8787   -6.3938  -14.4149 C   0  0  2  0  0  0  0  0  0  0  0  0
   20.5463   -6.9510  -14.6612 N   0  0  0  0  0  0  0  0  0  0  0  0
   21.7514   -5.1477  -13.6339 C   0  0  0  0  0  0  0  0  0  0  0  0
   22.7611   -4.6668  -13.0579 O   0  0  0  0  0  0  0  0  0  0  0  0
   20.5625   -4.4442  -13.4825 O   0  0  0  0  0  0  0  0  0  0  0  0
  2  1  1  0
  3  5  1  0
  3  2  1  0
  4  3  2  0
  6  5  1  0
  7  6  1  0
  8  7  2  0
 10 12  1  0
 10  9  1  6
 11 10  1  0
 12 13  1  6
 13  7  1  0
 14 16  1  0
 14 12  1  0
 15 14  2  0
M  END
$$$$
