GGT.pdb
     RDKit          3D

 16 15  0  0  1  0  0  0  0  0999 V2000
   18.5695  -16.6246  -14.7977 N   0  0  0  0  0  0  0  0  0  0  0  0
   18.6669  -15.6198  -15.8465 C   0  0  0  0  0  0  0  0  0  0  0  0
   17.9710  -14.3935  -15.3753 C   0  0  0  0  0  0  0  0  0  0  0  0
   17.0194  -14.4543  -14.5428 O   0  0  0  0  0  0  0  0  0  0  0  0
   18.3678  -13.1350  -15.8561 N   0  0  0  0  0  0  0  0  0  0  0  0
   17.7186  -11.9191  -15.3958 C   0  0  0  0  0  0  0  0  0  0  0  0
   18.3899  -10.7244  -15.9605 C   0  0  0  0  0  0  0  0  0  0  0  0
   19.4487  -10.7820  -16.6339 O   0  0  0  0  0  0  0  0  0  0  0  0
   16.8387   -8.2443  -18.2734 C   0  0  0  0  0  0  0  0  0  0  0  0
   17.3082   -7.5249  -17.0474 C   0  0  1  0  0  0  0  0  0  0  0  0
   16.2705   -7.2961  -16.1453 O   0  0  0  0  0  0  0  0  0  0  0  0
   18.4077   -8.2333  -16.3113 C   0  0  2  0  0  0  0  0  0  0  0  0
   17.8194   -9.4461  -15.7372 N   0  0  0  0  0  0  0  0  0  0  0  0
   18.9982   -7.4176  -15.2319 C   0  0  0  0  0  0  0  0  0  0  0  0
   18.5826   -7.5495  -14.0519 O   0  0  0  0  0  0  0  0  0  0  0  0
   20.0105   -6.4859  -15.4280 O   0  0  0  0  0  0  0  0  0  0  0  0
  2  1  1  0
  3  5  1  0
  3  2  1  0
  4  3  2  0
  6  5  1  0
  7  6  1  0
  8  7  2  0
 10 12  1  0
 10  9  1  6
 11 10  1  0
 12 13  1  1
 13  7  1  0
 14 16  1  0
 14 12  1  0
 15 14  2  0
M  END
$$$$
