CVF.pdb
     RDKit          3D

 25 25  0  0  1  0  0  0  0  0999 V2000
   26.1734  -16.2523  -17.0127 N   0  0  0  0  0  0  0  0  0  0  0  0
   26.2481  -16.3762  -15.5891 C   0  0  1  0  0  0  0  0  0  0  0  0
   25.2913  -15.4888  -14.8330 C   0  0  0  0  0  0  0  0  0  0  0  0
   26.0419  -13.8267  -14.7350 S   0  0  0  0  0  0  0  0  0  0  0  0
   26.1331  -17.7866  -15.1686 C   0  0  0  0  0  0  0  0  0  0  0  0
   25.2131  -18.4962  -15.6649 O   0  0  0  0  0  0  0  0  0  0  0  0
   27.7767  -22.0471  -13.6569 C   0  0  0  0  0  0  0  0  0  0  0  0
   28.1286  -20.5880  -13.9875 C   0  0  1  0  0  0  0  0  0  0  0  0
   28.7676  -20.5872  -15.3335 C   0  0  0  0  0  0  0  0  0  0  0  0
   26.8668  -19.8069  -13.8773 C   0  0  2  0  0  0  0  0  0  0  0  0
   26.9867  -18.4111  -14.2406 N   0  0  0  0  0  0  0  0  0  0  0  0
   26.1533  -19.9850  -12.5903 C   0  0  0  0  0  0  0  0  0  0  0  0
   26.8426  -20.0046  -11.5262 O   0  0  0  0  0  0  0  0  0  0  0  0
   24.7684  -20.1340  -12.4604 N   0  0  0  0  0  0  0  0  0  0  0  0
   24.1256  -20.7490  -11.2882 C   0  0  1  0  0  0  0  0  0  0  0  0
   24.0928  -19.7639  -10.1514 C   0  0  0  0  0  0  0  0  0  0  0  0
   25.0786  -20.0309   -9.0893 C   0  0  0  0  0  0  0  0  0  0  0  0
   25.1596  -21.2466   -8.4297 C   0  0  0  0  0  0  0  0  0  0  0  0
   26.0957  -21.4514   -7.4577 C   0  0  0  0  0  0  0  0  0  0  0  0
   26.9882  -20.4484   -7.1070 C   0  0  0  0  0  0  0  0  0  0  0  0
   26.9200  -19.2303   -7.7561 C   0  0  0  0  0  0  0  0  0  0  0  0
   25.9673  -19.0433   -8.7353 C   0  0  0  0  0  0  0  0  0  0  0  0
   22.8028  -21.2791  -11.6267 C   0  0  0  0  0  0  0  0  0  0  0  0
   22.3181  -21.2184  -12.8075 O   0  0  0  0  0  0  0  0  0  0  0  0
   21.9913  -21.8816  -10.6878 O   0  0  0  0  0  0  0  0  0  0  0  0
  2  5  1  0
  2  1  1  6
  3  2  1  0
  4  3  1  0
  5  6  2  0
  8  7  1  6
  8  9  1  0
  8 10  1  0
 10 12  1  0
 10 11  1  1
 11  5  1  0
 12 13  2  0
 12 14  1  0
 14 15  1  0
 15 16  1  1
 15 23  1  0
 17 22  2  0
 17 16  1  0
 18 17  1  0
 19 20  1  0
 19 18  2  0
 20 21  2  0
 21 22  1  0
 23 25  1  0
 24 23  2  0
M  END
$$$$
