CVF.pdb
     RDKit          3D

 25 25  0  0  1  0  0  0  0  0999 V2000
   19.0394  -11.9530  -17.7008 N   0  0  0  0  0  0  0  0  0  0  0  0
   18.6410  -11.0280  -16.6843 C   0  0  1  0  0  0  0  0  0  0  0  0
   18.8100  -11.5368  -15.2747 C   0  0  0  0  0  0  0  0  0  0  0  0
   17.5921  -12.8742  -15.0220 S   0  0  0  0  0  0  0  0  0  0  0  0
   19.2892   -9.7151  -16.8725 C   0  0  0  0  0  0  0  0  0  0  0  0
   20.5130   -9.6801  -17.1843 O   0  0  0  0  0  0  0  0  0  0  0  0
   18.7568   -7.1140  -19.3893 C   0  0  0  0  0  0  0  0  0  0  0  0
   18.5802   -6.3880  -18.0462 C   0  0  1  0  0  0  0  0  0  0  0  0
   17.1163   -6.2028  -17.8391 C   0  0  0  0  0  0  0  0  0  0  0  0
   19.2730   -7.2120  -17.0189 C   0  0  2  0  0  0  0  0  0  0  0  0
   18.6346   -8.4779  -16.7287 N   0  0  0  0  0  0  0  0  0  0  0  0
   19.6238   -6.4723  -15.7832 C   0  0  0  0  0  0  0  0  0  0  0  0
   18.8219   -6.5379  -14.8032 O   0  0  0  0  0  0  0  0  0  0  0  0
   20.7799   -5.7026  -15.6157 N   0  0  0  0  0  0  0  0  0  0  0  0
   21.1393   -5.0445  -14.3495 C   0  0  1  0  0  0  0  0  0  0  0  0
   21.7028   -6.0589  -13.3917 C   0  0  0  0  0  0  0  0  0  0  0  0
   22.6831   -6.9805  -13.9924 C   0  0  0  0  0  0  0  0  0  0  0  0
   22.6881   -8.3418  -13.7351 C   0  0  0  0  0  0  0  0  0  0  0  0
   23.6108   -9.1588  -14.3218 C   0  0  0  0  0  0  0  0  0  0  0  0
   24.5651   -8.6466  -15.1893 C   0  0  0  0  0  0  0  0  0  0  0  0
   24.5727   -7.2906  -15.4559 C   0  0  0  0  0  0  0  0  0  0  0  0
   23.6321   -6.4822  -14.8534 C   0  0  0  0  0  0  0  0  0  0  0  0
   22.0374   -3.9103  -14.5783 C   0  0  0  0  0  0  0  0  0  0  0  0
   22.3546   -3.0858  -13.6551 O   0  0  0  0  0  0  0  0  0  0  0  0
   22.6018   -3.6583  -15.8117 O   0  0  0  0  0  0  0  0  0  0  0  0
  2  5  1  0
  2  1  1  6
  3  2  1  0
  4  3  1  0
  5  6  2  0
  8  7  1  6
  8  9  1  0
  8 10  1  0
 10 12  1  0
 10 11  1  1
 11  5  1  0
 12 13  2  0
 12 14  1  0
 14 15  1  0
 15 16  1  1
 15 23  1  0
 17 22  2  0
 17 16  1  0
 18 17  1  0
 19 20  1  0
 19 18  2  0
 20 21  2  0
 21 22  1  0
 23 25  1  0
 24 23  2  0
M  END
$$$$
