CVF.pdb
     RDKit          3D

 25 25  0  0  1  0  0  0  0  0999 V2000
   26.1649  -20.3607  -16.2214 N   0  0  0  0  0  0  0  0  0  0  0  0
   26.8418  -20.7618  -15.0261 C   0  0  1  0  0  0  0  0  0  0  0  0
   28.3279  -20.5053  -15.0329 C   0  0  0  0  0  0  0  0  0  0  0  0
   29.1507  -22.0463  -15.5657 S   0  0  0  0  0  0  0  0  0  0  0  0
   26.1945  -20.1914  -13.8283 C   0  0  0  0  0  0  0  0  0  0  0  0
   25.5547  -19.1078  -13.9404 O   0  0  0  0  0  0  0  0  0  0  0  0
   23.6249  -19.7405  -12.9783 C   0  0  0  0  0  0  0  0  0  0  0  0
   23.9536  -20.4568  -11.6588 C   0  0  1  0  0  0  0  0  0  0  0  0
   23.4576  -21.8561  -11.7862 C   0  0  0  0  0  0  0  0  0  0  0  0
   25.4195  -20.3139  -11.4467 C   0  0  2  0  0  0  0  0  0  0  0  0
   26.2370  -20.7747  -12.5485 N   0  0  0  0  0  0  0  0  0  0  0  0
   25.8982  -20.8371  -10.1451 C   0  0  0  0  0  0  0  0  0  0  0  0
   26.3115  -22.0349  -10.1016 O   0  0  0  0  0  0  0  0  0  0  0  0
   25.9284  -20.1044   -8.9537 N   0  0  0  0  0  0  0  0  0  0  0  0
   26.7254  -20.4969   -7.7806 C   0  0  1  0  0  0  0  0  0  0  0  0
   27.7214  -19.4162   -7.4582 C   0  0  0  0  0  0  0  0  0  0  0  0
   28.3683  -19.5611   -6.1422 C   0  0  0  0  0  0  0  0  0  0  0  0
   27.9411  -18.8748   -5.0170 C   0  0  0  0  0  0  0  0  0  0  0  0
   28.5662  -19.0477   -3.8160 C   0  0  0  0  0  0  0  0  0  0  0  0
   29.6432  -19.9140   -3.6927 C   0  0  0  0  0  0  0  0  0  0  0  0
   30.0806  -20.6057   -4.8061 C   0  0  0  0  0  0  0  0  0  0  0  0
   29.4358  -20.4174   -6.0103 C   0  0  0  0  0  0  0  0  0  0  0  0
   25.8645  -20.8410   -6.6465 C   0  0  0  0  0  0  0  0  0  0  0  0
   24.6296  -20.5163   -6.5959 O   0  0  0  0  0  0  0  0  0  0  0  0
   26.3340  -21.5417   -5.5549 O   0  0  0  0  0  0  0  0  0  0  0  0
  2  5  1  0
  2  1  1  6
  3  2  1  0
  4  3  1  0
  5  6  2  0
  8  7  1  6
  8  9  1  0
  8 10  1  0
 10 12  1  0
 10 11  1  6
 11  5  1  0
 12 13  2  0
 12 14  1  0
 14 15  1  0
 15 16  1  1
 15 23  1  0
 17 22  2  0
 17 16  1  0
 18 17  1  0
 19 20  1  0
 19 18  2  0
 20 21  2  0
 21 22  1  0
 23 25  1  0
 24 23  2  0
M  END
$$$$
