CVF.pdb
     RDKit          3D

 25 25  0  0  1  0  0  0  0  0999 V2000
   25.9573  -18.5045  -16.2050 N   0  0  0  0  0  0  0  0  0  0  0  0
   26.8679  -18.9875  -15.2124 C   0  0  1  0  0  0  0  0  0  0  0  0
   28.1224  -18.1643  -15.0610 C   0  0  0  0  0  0  0  0  0  0  0  0
   29.1911  -19.0075  -13.8434 S   0  0  0  0  0  0  0  0  0  0  0  0
   26.1885  -19.1909  -13.9176 C   0  0  0  0  0  0  0  0  0  0  0  0
   25.5351  -18.2328  -13.4164 O   0  0  0  0  0  0  0  0  0  0  0  0
   23.5300  -21.2581  -13.3916 C   0  0  0  0  0  0  0  0  0  0  0  0
   24.3512  -21.6428  -12.1507 C   0  0  1  0  0  0  0  0  0  0  0  0
   24.8364  -23.0356  -12.3627 C   0  0  0  0  0  0  0  0  0  0  0  0
   25.4127  -20.6106  -12.0019 C   0  0  2  0  0  0  0  0  0  0  0  0
   26.2143  -20.3932  -13.1871 N   0  0  0  0  0  0  0  0  0  0  0  0
   26.2495  -20.7712  -10.7890 C   0  0  0  0  0  0  0  0  0  0  0  0
   27.2860  -21.4966  -10.8736 O   0  0  0  0  0  0  0  0  0  0  0  0
   25.9802  -20.1791   -9.5505 N   0  0  0  0  0  0  0  0  0  0  0  0
   26.7355  -20.4839   -8.3248 C   0  0  1  0  0  0  0  0  0  0  0  0
   27.3838  -19.2306   -7.8026 C   0  0  0  0  0  0  0  0  0  0  0  0
   28.0565  -19.3930   -6.5017 C   0  0  0  0  0  0  0  0  0  0  0  0
   27.5281  -18.9041   -5.3180 C   0  0  0  0  0  0  0  0  0  0  0  0
   28.1830  -19.0863   -4.1344 C   0  0  0  0  0  0  0  0  0  0  0  0
   29.3925  -19.7649   -4.0878 C   0  0  0  0  0  0  0  0  0  0  0  0
   29.9322  -20.2586   -5.2602 C   0  0  0  0  0  0  0  0  0  0  0  0
   29.2551  -20.0643   -6.4456 C   0  0  0  0  0  0  0  0  0  0  0  0
   25.8881  -21.1484   -7.3320 C   0  0  0  0  0  0  0  0  0  0  0  0
   24.6137  -21.0555   -7.3414 O   0  0  0  0  0  0  0  0  0  0  0  0
   26.4143  -21.9218   -6.3179 O   0  0  0  0  0  0  0  0  0  0  0  0
  2  5  1  0
  2  1  1  6
  3  2  1  0
  4  3  1  0
  5  6  2  0
  8  7  1  6
  8  9  1  0
  8 10  1  0
 10 12  1  0
 10 11  1  6
 11  5  1  0
 12 13  2  0
 12 14  1  0
 14 15  1  0
 15 16  1  1
 15 23  1  0
 17 22  2  0
 17 16  1  0
 18 17  1  0
 19 20  1  0
 19 18  2  0
 20 21  2  0
 21 22  1  0
 23 25  1  0
 24 23  2  0
M  END
$$$$
