CVF.pdb
     RDKit          3D

 25 25  0  0  1  0  0  0  0  0999 V2000
   13.8604  -22.2905   -1.4022 N   0  0  0  0  0  0  0  0  0  0  0  0
   14.6862  -22.6401   -0.2871 C   0  0  1  0  0  0  0  0  0  0  0  0
   16.1402  -22.8514   -0.6275 C   0  0  0  0  0  0  0  0  0  0  0  0
   16.2201  -24.1181   -1.9409 S   0  0  0  0  0  0  0  0  0  0  0  0
   14.5189  -21.6818    0.8231 C   0  0  0  0  0  0  0  0  0  0  0  0
   13.9065  -20.5986    0.6046 O   0  0  0  0  0  0  0  0  0  0  0  0
   13.5431  -20.9522    5.4613 C   0  0  0  0  0  0  0  0  0  0  0  0
   13.6255  -21.8010    4.1827 C   0  0  1  0  0  0  0  0  0  0  0  0
   12.2332  -21.9672    3.6784 C   0  0  0  0  0  0  0  0  0  0  0  0
   14.5605  -21.0997    3.2618 C   0  0  2  0  0  0  0  0  0  0  0  0
   14.9984  -21.8881    2.1298 N   0  0  0  0  0  0  0  0  0  0  0  0
   15.6945  -20.4302    3.9424 C   0  0  0  0  0  0  0  0  0  0  0  0
   16.7323  -21.1174    4.1838 O   0  0  0  0  0  0  0  0  0  0  0  0
   15.7059  -19.0893    4.3409 N   0  0  0  0  0  0  0  0  0  0  0  0
   16.8199  -18.4721    5.0782 C   0  0  1  0  0  0  0  0  0  0  0  0
   16.7717  -16.9773    4.9139 C   0  0  0  0  0  0  0  0  0  0  0  0
   17.3809  -16.4848    3.6659 C   0  0  0  0  0  0  0  0  0  0  0  0
   18.2483  -17.2490    2.9023 C   0  0  0  0  0  0  0  0  0  0  0  0
   18.7818  -16.7536    1.7477 C   0  0  0  0  0  0  0  0  0  0  0  0
   18.4687  -15.4742    1.3109 C   0  0  0  0  0  0  0  0  0  0  0  0
   17.6048  -14.7000    2.0618 C   0  0  0  0  0  0  0  0  0  0  0  0
   17.0763  -15.2186    3.2250 C   0  0  0  0  0  0  0  0  0  0  0  0
   16.8262  -18.8956    6.4804 C   0  0  0  0  0  0  0  0  0  0  0  0
   15.7835  -19.3405    7.0701 O   0  0  0  0  0  0  0  0  0  0  0  0
   17.9642  -18.8415    7.2582 O   0  0  0  0  0  0  0  0  0  0  0  0
  2  5  1  0
  2  1  1  6
  3  2  1  0
  4  3  1  0
  5  6  2  0
  8  7  1  1
  8  9  1  0
  8 10  1  0
 10 12  1  0
 10 11  1  6
 11  5  1  0
 12 13  2  0
 12 14  1  0
 14 15  1  0
 15 16  1  1
 15 23  1  0
 17 22  2  0
 17 16  1  0
 18 17  1  0
 19 20  1  0
 19 18  2  0
 20 21  2  0
 21 22  1  0
 23 25  1  0
 24 23  2  0
M  END
$$$$
