CVF.pdb
     RDKit          3D

 25 25  0  0  1  0  0  0  0  0999 V2000
   22.9523  -13.5693  -18.3530 N   0  0  0  0  0  0  0  0  0  0  0  0
   22.5430  -13.0005  -17.1054 C   0  0  1  0  0  0  0  0  0  0  0  0
   23.5680  -13.1050  -16.0041 C   0  0  0  0  0  0  0  0  0  0  0  0
   23.7547  -14.8743  -15.5912 S   0  0  0  0  0  0  0  0  0  0  0  0
   22.0687  -11.6136  -17.2802 C   0  0  0  0  0  0  0  0  0  0  0  0
   22.7424  -10.8270  -18.0040 O   0  0  0  0  0  0  0  0  0  0  0  0
   18.1276  -10.5233  -17.0767 C   0  0  0  0  0  0  0  0  0  0  0  0
   19.1972   -9.6739  -17.7814 C   0  0  1  0  0  0  0  0  0  0  0  0
   18.6249   -8.3095  -17.9578 C   0  0  0  0  0  0  0  0  0  0  0  0
   20.4252   -9.7498  -16.9444 C   0  0  2  0  0  0  0  0  0  0  0  0
   20.9018  -11.0927  -16.6913 N   0  0  0  0  0  0  0  0  0  0  0  0
   20.3653   -8.9403  -15.7041 C   0  0  0  0  0  0  0  0  0  0  0  0
   19.7704   -9.4350  -14.6996 O   0  0  0  0  0  0  0  0  0  0  0  0
   20.9188   -7.6639  -15.5575 N   0  0  0  0  0  0  0  0  0  0  0  0
   20.7828   -6.8568  -14.3346 C   0  0  1  0  0  0  0  0  0  0  0  0
   22.1419   -6.5962  -13.7440 C   0  0  0  0  0  0  0  0  0  0  0  0
   23.0709   -5.8949  -14.6474 C   0  0  0  0  0  0  0  0  0  0  0  0
   23.9626   -6.5621  -15.4715 C   0  0  0  0  0  0  0  0  0  0  0  0
   24.7988   -5.8700  -16.2990 C   0  0  0  0  0  0  0  0  0  0  0  0
   24.7763   -4.4831  -16.3352 C   0  0  0  0  0  0  0  0  0  0  0  0
   23.8922   -3.8034  -15.5191 C   0  0  0  0  0  0  0  0  0  0  0  0
   23.0556   -4.5207  -14.6904 C   0  0  0  0  0  0  0  0  0  0  0  0
   20.0235   -5.6307  -14.5909 C   0  0  0  0  0  0  0  0  0  0  0  0
   19.5518   -4.9038  -13.6518 O   0  0  0  0  0  0  0  0  0  0  0  0
   19.7682   -5.1794  -15.8692 O   0  0  0  0  0  0  0  0  0  0  0  0
  2  5  1  0
  2  1  1  6
  3  2  1  0
  4  3  1  0
  5  6  2  0
  8  7  1  1
  8  9  1  0
  8 10  1  0
 10 12  1  0
 10 11  1  1
 11  5  1  0
 12 13  2  0
 12 14  1  0
 14 15  1  0
 15 16  1  6
 15 23  1  0
 17 22  2  0
 17 16  1  0
 18 17  1  0
 19 20  1  0
 19 18  2  0
 20 21  2  0
 21 22  1  0
 23 25  1  0
 24 23  2  0
M  END
$$$$
