CVF.pdb
     RDKit          3D

 25 25  0  0  1  0  0  0  0  0999 V2000
   19.6400  -15.1230  -17.2078 N   0  0  0  0  0  0  0  0  0  0  0  0
   19.0958  -14.0089  -16.4934 C   0  0  1  0  0  0  0  0  0  0  0  0
   18.9941  -14.2114  -15.0024 C   0  0  0  0  0  0  0  0  0  0  0  0
   17.6490  -15.4092  -14.6995 S   0  0  0  0  0  0  0  0  0  0  0  0
   19.8084  -12.7600  -16.8276 C   0  0  0  0  0  0  0  0  0  0  0  0
   21.0614  -12.7979  -16.9845 O   0  0  0  0  0  0  0  0  0  0  0  0
   17.8870   -9.2722  -18.2494 C   0  0  0  0  0  0  0  0  0  0  0  0
   19.3425   -9.6318  -18.5879 C   0  0  1  0  0  0  0  0  0  0  0  0
   20.0252   -8.3665  -18.9791 C   0  0  0  0  0  0  0  0  0  0  0  0
   19.9034  -10.3190  -17.3932 C   0  0  2  0  0  0  0  0  0  0  0  0
   19.1856  -11.5085  -16.9878 N   0  0  0  0  0  0  0  0  0  0  0  0
   20.1757   -9.4189  -16.2474 C   0  0  0  0  0  0  0  0  0  0  0  0
   19.2394   -9.2130  -15.4176 O   0  0  0  0  0  0  0  0  0  0  0  0
   21.3952   -8.7754  -16.0111 N   0  0  0  0  0  0  0  0  0  0  0  0
   21.6358   -7.8918  -14.8593 C   0  0  1  0  0  0  0  0  0  0  0  0
   22.6332   -8.5285  -13.9299 C   0  0  0  0  0  0  0  0  0  0  0  0
   23.8245   -9.0762  -14.6024 C   0  0  0  0  0  0  0  0  0  0  0  0
   24.2587  -10.3784  -14.4157 C   0  0  0  0  0  0  0  0  0  0  0  0
   25.3636  -10.8450  -15.0673 C   0  0  0  0  0  0  0  0  0  0  0  0
   26.0779  -10.0276  -15.9316 C   0  0  0  0  0  0  0  0  0  0  0  0
   25.6569   -8.7261  -16.1283 C   0  0  0  0  0  0  0  0  0  0  0  0
   24.5383   -8.2738  -15.4608 C   0  0  0  0  0  0  0  0  0  0  0  0
   22.0317   -6.5503  -15.2944 C   0  0  0  0  0  0  0  0  0  0  0  0
   22.3261   -6.2788  -16.5078 O   0  0  0  0  0  0  0  0  0  0  0  0
   22.1122   -5.4883  -14.4175 O   0  0  0  0  0  0  0  0  0  0  0  0
  2  5  1  0
  2  1  1  6
  3  2  1  0
  4  3  1  0
  5  6  2  0
  8  7  1  1
  8  9  1  0
  8 10  1  0
 10 12  1  0
 10 11  1  1
 11  5  1  0
 12 13  2  0
 12 14  1  0
 14 15  1  0
 15 16  1  1
 15 23  1  0
 17 22  2  0
 17 16  1  0
 18 17  1  0
 19 20  1  0
 19 18  2  0
 20 21  2  0
 21 22  1  0
 23 25  1  0
 24 23  2  0
M  END
$$$$
