CVF.pdb
     RDKit          3D

 25 25  0  0  1  0  0  0  0  0999 V2000
   15.0337  -13.0871  -16.3174 N   0  0  0  0  0  0  0  0  0  0  0  0
   16.2998  -12.9571  -15.6634 C   0  0  1  0  0  0  0  0  0  0  0  0
   17.1000  -14.2334  -15.5907 C   0  0  0  0  0  0  0  0  0  0  0  0
   16.3715  -15.2662  -14.2724 S   0  0  0  0  0  0  0  0  0  0  0  0
   17.0882  -11.8502  -16.2399 C   0  0  0  0  0  0  0  0  0  0  0  0
   17.3319  -11.8583  -17.4796 O   0  0  0  0  0  0  0  0  0  0  0  0
   16.4844   -8.5217  -17.0305 C   0  0  0  0  0  0  0  0  0  0  0  0
   17.7166   -8.3792  -16.1230 C   0  0  1  0  0  0  0  0  0  0  0  0
   17.2334   -7.8759  -14.8064 C   0  0  0  0  0  0  0  0  0  0  0  0
   18.3843   -9.7087  -16.0943 C   0  0  2  0  0  0  0  0  0  0  0  0
   17.5971  -10.7674  -15.4994 N   0  0  0  0  0  0  0  0  0  0  0  0
   19.7678   -9.6816  -15.5629 C   0  0  0  0  0  0  0  0  0  0  0  0
   19.9412   -9.9732  -14.3412 O   0  0  0  0  0  0  0  0  0  0  0  0
   20.9036   -9.3566  -16.3123 N   0  0  0  0  0  0  0  0  0  0  0  0
   22.2607   -9.3032  -15.7457 C   0  0  1  0  0  0  0  0  0  0  0  0
   23.1848  -10.1692  -16.5581 C   0  0  0  0  0  0  0  0  0  0  0  0
   24.5844  -10.1611  -16.0972 C   0  0  0  0  0  0  0  0  0  0  0  0
   25.0501  -11.0016  -15.0993 C   0  0  0  0  0  0  0  0  0  0  0  0
   26.3581  -10.9648  -14.7109 C   0  0  0  0  0  0  0  0  0  0  0  0
   27.2523  -10.0858  -15.3054 C   0  0  0  0  0  0  0  0  0  0  0  0
   26.8026   -9.2412  -16.3024 C   0  0  0  0  0  0  0  0  0  0  0  0
   25.4776   -9.2939  -16.6806 C   0  0  0  0  0  0  0  0  0  0  0  0
   22.7294   -7.9210  -15.6229 C   0  0  0  0  0  0  0  0  0  0  0  0
   22.5475   -7.0481  -16.5382 O   0  0  0  0  0  0  0  0  0  0  0  0
   23.4003   -7.4702  -14.5049 O   0  0  0  0  0  0  0  0  0  0  0  0
  2  5  1  0
  2  1  1  6
  3  2  1  0
  4  3  1  0
  5  6  2  0
  8  7  1  6
  8  9  1  0
  8 10  1  0
 10 12  1  0
 10 11  1  1
 11  5  1  0
 12 13  2  0
 12 14  1  0
 14 15  1  0
 15 16  1  6
 15 23  1  0
 17 22  2  0
 17 16  1  0
 18 17  1  0
 19 20  1  0
 19 18  2  0
 20 21  2  0
 21 22  1  0
 23 25  1  0
 24 23  2  0
M  END
$$$$
