CVF.pdb
     RDKit          3D

 25 25  0  0  1  0  0  0  0  0999 V2000
   21.9893  -22.3858  -14.0112 N   0  0  0  0  0  0  0  0  0  0  0  0
   22.4142  -21.2994  -13.1825 C   0  0  1  0  0  0  0  0  0  0  0  0
   21.4297  -20.9097  -12.1086 C   0  0  0  0  0  0  0  0  0  0  0  0
   20.3157  -19.6463  -12.8145 S   0  0  0  0  0  0  0  0  0  0  0  0
   23.7596  -21.5454  -12.6268 C   0  0  0  0  0  0  0  0  0  0  0  0
   23.9776  -22.6317  -12.0197 O   0  0  0  0  0  0  0  0  0  0  0  0
   28.4980  -20.5954  -11.8392 C   0  0  0  0  0  0  0  0  0  0  0  0
   27.2805  -20.2797  -12.7225 C   0  0  1  0  0  0  0  0  0  0  0  0
   27.5608  -20.8472  -14.0714 C   0  0  0  0  0  0  0  0  0  0  0  0
   26.0897  -20.8392  -12.0274 C   0  0  2  0  0  0  0  0  0  0  0  0
   24.8365  -20.6451  -12.7247 N   0  0  0  0  0  0  0  0  0  0  0  0
   25.9910  -20.4653  -10.5964 C   0  0  0  0  0  0  0  0  0  0  0  0
   25.2596  -19.4762  -10.2895 O   0  0  0  0  0  0  0  0  0  0  0  0
   26.6481  -21.1256   -9.5527 N   0  0  0  0  0  0  0  0  0  0  0  0
   26.7492  -20.5850   -8.1877 C   0  0  1  0  0  0  0  0  0  0  0  0
   27.7904  -21.3481   -7.4148 C   0  0  0  0  0  0  0  0  0  0  0  0
   28.1260  -20.7597   -6.1061 C   0  0  0  0  0  0  0  0  0  0  0  0
   27.4131  -21.0418   -4.9522 C   0  0  0  0  0  0  0  0  0  0  0  0
   27.7664  -20.4796   -3.7596 C   0  0  0  0  0  0  0  0  0  0  0  0
   28.8468  -19.6131   -3.6739 C   0  0  0  0  0  0  0  0  0  0  0  0
   29.5678  -19.3222   -4.8164 C   0  0  0  0  0  0  0  0  0  0  0  0
   29.1951  -19.9004   -6.0114 C   0  0  0  0  0  0  0  0  0  0  0  0
   26.9923  -19.1407   -8.2067 C   0  0  0  0  0  0  0  0  0  0  0  0
   27.8072  -18.5901   -9.0225 O   0  0  0  0  0  0  0  0  0  0  0  0
   26.3532  -18.2775   -7.3408 O   0  0  0  0  0  0  0  0  0  0  0  0
  2  5  1  0
  2  1  1  1
  3  2  1  0
  4  3  1  0
  5  6  2  0
  8  7  1  1
  8  9  1  0
  8 10  1  0
 10 12  1  0
 10 11  1  6
 11  5  1  0
 12 13  2  0
 12 14  1  0
 14 15  1  0
 15 16  1  6
 15 23  1  0
 17 22  2  0
 17 16  1  0
 18 17  1  0
 19 20  1  0
 19 18  2  0
 20 21  2  0
 21 22  1  0
 23 25  1  0
 24 23  2  0
M  END
$$$$
