CVF.pdb
     RDKit          3D

 25 25  0  0  1  0  0  0  0  0999 V2000
   18.1928  -12.9385  -18.1519 N   0  0  0  0  0  0  0  0  0  0  0  0
   18.4339  -12.2571  -16.9169 C   0  0  1  0  0  0  0  0  0  0  0  0
   19.3261  -13.0017  -15.9557 C   0  0  0  0  0  0  0  0  0  0  0  0
   18.3450  -14.3632  -15.2351 S   0  0  0  0  0  0  0  0  0  0  0  0
   18.9115  -10.8800  -17.1506 C   0  0  0  0  0  0  0  0  0  0  0  0
   19.6375  -10.6509  -18.1589 O   0  0  0  0  0  0  0  0  0  0  0  0
   16.8432   -7.5470  -16.5522 C   0  0  0  0  0  0  0  0  0  0  0  0
   18.1592   -7.5818  -17.3453 C   0  0  1  0  0  0  0  0  0  0  0  0
   18.5944   -6.1690  -17.5315 C   0  0  0  0  0  0  0  0  0  0  0  0
   19.0986   -8.4455  -16.5799 C   0  0  2  0  0  0  0  0  0  0  0  0
   18.6133   -9.7840  -16.3201 N   0  0  0  0  0  0  0  0  0  0  0  0
   19.6502   -7.8098  -15.3598 C   0  0  0  0  0  0  0  0  0  0  0  0
   18.9303   -7.8021  -14.3161 O   0  0  0  0  0  0  0  0  0  0  0  0
   20.9129   -7.2140  -15.2725 N   0  0  0  0  0  0  0  0  0  0  0  0
   21.4242   -6.5731  -14.0504 C   0  0  1  0  0  0  0  0  0  0  0  0
   22.3935   -7.4944  -13.3609 C   0  0  0  0  0  0  0  0  0  0  0  0
   23.3885   -8.1085  -14.2576 C   0  0  0  0  0  0  0  0  0  0  0  0
   24.0175   -7.4062  -15.2728 C   0  0  0  0  0  0  0  0  0  0  0  0
   24.9401   -8.0149  -16.0737 C   0  0  0  0  0  0  0  0  0  0  0  0
   25.2702   -9.3503  -15.8909 C   0  0  0  0  0  0  0  0  0  0  0  0
   24.6513  -10.0639  -14.8822 C   0  0  0  0  0  0  0  0  0  0  0  0
   23.7223   -9.4309  -14.0838 C   0  0  0  0  0  0  0  0  0  0  0  0
   21.9931   -5.2552  -14.3418 C   0  0  0  0  0  0  0  0  0  0  0  0
   22.3371   -4.4353  -13.4240 O   0  0  0  0  0  0  0  0  0  0  0  0
   22.1957   -4.8124  -15.6326 O   0  0  0  0  0  0  0  0  0  0  0  0
  2  5  1  0
  2  1  1  6
  3  2  1  0
  4  3  1  0
  5  6  2  0
  8  7  1  1
  8  9  1  0
  8 10  1  0
 10 12  1  0
 10 11  1  1
 11  5  1  0
 12 13  2  0
 12 14  1  0
 14 15  1  0
 15 16  1  6
 15 23  1  0
 17 22  2  0
 17 16  1  0
 18 17  1  0
 19 20  1  0
 19 18  2  0
 20 21  2  0
 21 22  1  0
 23 25  1  0
 24 23  2  0
M  END
$$$$
