CVF.pdb
     RDKit          3D

 25 25  0  0  1  0  0  0  0  0999 V2000
   25.2471  -24.5113  -15.5723 N   0  0  0  0  0  0  0  0  0  0  0  0
   24.5603  -23.7626  -14.5646 C   0  0  1  0  0  0  0  0  0  0  0  0
   23.7971  -24.6034  -13.5721 C   0  0  0  0  0  0  0  0  0  0  0  0
   22.5095  -25.5123  -14.4948 S   0  0  0  0  0  0  0  0  0  0  0  0
   25.4686  -22.8132  -13.8918 C   0  0  0  0  0  0  0  0  0  0  0  0
   26.6196  -23.2087  -13.5529 O   0  0  0  0  0  0  0  0  0  0  0  0
   26.9430  -18.3678  -12.4603 C   0  0  0  0  0  0  0  0  0  0  0  0
   25.9227  -19.1502  -13.3023 C   0  0  1  0  0  0  0  0  0  0  0  0
   26.2141  -18.8491  -14.7322 C   0  0  0  0  0  0  0  0  0  0  0  0
   26.0495  -20.5801  -12.9103 C   0  0  2  0  0  0  0  0  0  0  0  0
   25.1431  -21.4769  -13.5948 N   0  0  0  0  0  0  0  0  0  0  0  0
   26.0553  -20.8097  -11.4459 C   0  0  0  0  0  0  0  0  0  0  0  0
   24.9861  -21.2245  -10.9051 O   0  0  0  0  0  0  0  0  0  0  0  0
   27.1581  -20.6020  -10.6106 N   0  0  0  0  0  0  0  0  0  0  0  0
   27.1035  -20.7400   -9.1465 C   0  0  1  0  0  0  0  0  0  0  0  0
   28.3800  -20.2242   -8.5396 C   0  0  0  0  0  0  0  0  0  0  0  0
   28.3630  -20.1455   -7.0683 C   0  0  0  0  0  0  0  0  0  0  0  0
   29.0580  -21.0321   -6.2618 C   0  0  0  0  0  0  0  0  0  0  0  0
   29.0199  -20.9149   -4.9025 C   0  0  0  0  0  0  0  0  0  0  0  0
   28.2853  -19.9060   -4.2958 C   0  0  0  0  0  0  0  0  0  0  0  0
   27.5870  -19.0138   -5.0870 C   0  0  0  0  0  0  0  0  0  0  0  0
   27.6383  -19.1490   -6.4582 C   0  0  0  0  0  0  0  0  0  0  0  0
   25.9067  -20.0977   -8.5982 C   0  0  0  0  0  0  0  0  0  0  0  0
   25.1105  -20.6948   -7.7968 O   0  0  0  0  0  0  0  0  0  0  0  0
   25.5608  -18.7998   -8.9132 O   0  0  0  0  0  0  0  0  0  0  0  0
  2  5  1  0
  2  1  1  6
  3  2  1  0
  4  3  1  0
  5  6  2  0
  8  7  1  1
  8  9  1  0
  8 10  1  0
 10 12  1  0
 10 11  1  6
 11  5  1  0
 12 13  2  0
 12 14  1  0
 14 15  1  0
 15 16  1  1
 15 23  1  0
 17 22  2  0
 17 16  1  0
 18 17  1  0
 19 20  1  0
 19 18  2  0
 20 21  2  0
 21 22  1  0
 23 25  1  0
 24 23  2  0
M  END
$$$$
