CVF.pdb
     RDKit          3D

 25 25  0  0  1  0  0  0  0  0999 V2000
   20.3400  -20.7336  -14.2705 N   0  0  0  0  0  0  0  0  0  0  0  0
   21.1075  -19.9213  -13.3770 C   0  0  1  0  0  0  0  0  0  0  0  0
   20.2961  -19.2175  -12.3183 C   0  0  0  0  0  0  0  0  0  0  0  0
   19.5039  -17.7707  -13.1025 S   0  0  0  0  0  0  0  0  0  0  0  0
   22.2273  -20.6833  -12.7901 C   0  0  0  0  0  0  0  0  0  0  0  0
   21.9712  -21.5883  -11.9465 O   0  0  0  0  0  0  0  0  0  0  0  0
   24.5734  -22.6875  -14.5784 C   0  0  0  0  0  0  0  0  0  0  0  0
   25.5101  -21.9314  -13.6228 C   0  0  1  0  0  0  0  0  0  0  0  0
   26.3084  -20.9850  -14.4519 C   0  0  0  0  0  0  0  0  0  0  0  0
   24.6483  -21.3033  -12.5850 C   0  0  2  0  0  0  0  0  0  0  0  0
   23.5825  -20.4741  -13.1057 N   0  0  0  0  0  0  0  0  0  0  0  0
   25.3992  -20.6249  -11.5019 C   0  0  0  0  0  0  0  0  0  0  0  0
   25.5596  -19.3700  -11.5856 O   0  0  0  0  0  0  0  0  0  0  0  0
   25.9476  -21.2689  -10.3876 N   0  0  0  0  0  0  0  0  0  0  0  0
   26.9737  -20.6626   -9.5244 C   0  0  1  0  0  0  0  0  0  0  0  0
   26.6797  -20.9825   -8.0839 C   0  0  0  0  0  0  0  0  0  0  0  0
   27.6054  -20.3573   -7.1230 C   0  0  0  0  0  0  0  0  0  0  0  0
   27.4220  -19.0755   -6.6304 C   0  0  0  0  0  0  0  0  0  0  0  0
   28.3016  -18.5405   -5.7343 C   0  0  0  0  0  0  0  0  0  0  0  0
   29.3996  -19.2665   -5.2951 C   0  0  0  0  0  0  0  0  0  0  0  0
   29.5959  -20.5465   -5.7774 C   0  0  0  0  0  0  0  0  0  0  0  0
   28.6959  -21.0690   -6.6819 C   0  0  0  0  0  0  0  0  0  0  0  0
   28.3197  -21.0653   -9.9387 C   0  0  0  0  0  0  0  0  0  0  0  0
   28.6480  -22.2869  -10.1196 O   0  0  0  0  0  0  0  0  0  0  0  0
   29.3244  -20.1467  -10.1618 O   0  0  0  0  0  0  0  0  0  0  0  0
  2  5  1  0
  2  1  1  1
  3  2  1  0
  4  3  1  0
  5  6  2  0
  8  7  1  6
  8  9  1  0
  8 10  1  0
 10 12  1  0
 10 11  1  6
 11  5  1  0
 12 13  2  0
 12 14  1  0
 14 15  1  0
 15 16  1  1
 15 23  1  0
 17 22  2  0
 17 16  1  0
 18 17  1  0
 19 20  1  0
 19 18  2  0
 20 21  2  0
 21 22  1  0
 23 25  1  0
 24 23  2  0
M  END
$$$$
