CVF.pdb
     RDKit          3D

 25 25  0  0  1  0  0  0  0  0999 V2000
   28.9111  -21.4714  -17.2528 N   0  0  0  0  0  0  0  0  0  0  0  0
   28.7101  -21.9858  -15.9327 C   0  0  1  0  0  0  0  0  0  0  0  0
   29.9797  -22.2224  -15.1538 C   0  0  0  0  0  0  0  0  0  0  0  0
   30.7371  -23.7585  -15.7880 S   0  0  0  0  0  0  0  0  0  0  0  0
   27.7516  -21.1565  -15.1761 C   0  0  0  0  0  0  0  0  0  0  0  0
   27.8786  -19.8998  -15.2058 O   0  0  0  0  0  0  0  0  0  0  0  0
   23.5491  -19.7100  -13.7033 C   0  0  0  0  0  0  0  0  0  0  0  0
   24.4598  -20.6106  -14.5529 C   0  0  1  0  0  0  0  0  0  0  0  0
   24.6414  -19.9323  -15.8671 C   0  0  0  0  0  0  0  0  0  0  0  0
   25.7044  -20.8262  -13.7663 C   0  0  2  0  0  0  0  0  0  0  0  0
   26.6880  -21.6697  -14.4110 N   0  0  0  0  0  0  0  0  0  0  0  0
   25.4707  -21.2247  -12.3578 C   0  0  0  0  0  0  0  0  0  0  0  0
   25.1437  -22.4277  -12.1268 O   0  0  0  0  0  0  0  0  0  0  0  0
   25.5845  -20.3682  -11.2575 N   0  0  0  0  0  0  0  0  0  0  0  0
   25.1984  -20.7499   -9.8898 C   0  0  1  0  0  0  0  0  0  0  0  0
   25.7033  -19.7221   -8.9138 C   0  0  0  0  0  0  0  0  0  0  0  0
   27.0425  -20.0088   -8.3703 C   0  0  0  0  0  0  0  0  0  0  0  0
   27.7711  -21.1324   -8.7253 C   0  0  0  0  0  0  0  0  0  0  0  0
   29.0127  -21.3521   -8.2024 C   0  0  0  0  0  0  0  0  0  0  0  0
   29.5747  -20.4566   -7.3037 C   0  0  0  0  0  0  0  0  0  0  0  0
   28.8602  -19.3311   -6.9400 C   0  0  0  0  0  0  0  0  0  0  0  0
   27.6077  -19.1271   -7.4795 C   0  0  0  0  0  0  0  0  0  0  0  0
   23.7545  -20.9754   -9.7904 C   0  0  0  0  0  0  0  0  0  0  0  0
   22.9121  -20.3903  -10.5525 O   0  0  0  0  0  0  0  0  0  0  0  0
   23.2087  -21.8388   -8.8632 O   0  0  0  0  0  0  0  0  0  0  0  0
  2  5  1  0
  2  1  1  6
  3  2  1  0
  4  3  1  0
  5  6  2  0
  8  7  1  1
  8  9  1  0
  8 10  1  0
 10 12  1  0
 10 11  1  6
 11  5  1  0
 12 13  2  0
 12 14  1  0
 14 15  1  0
 15 16  1  1
 15 23  1  0
 17 22  2  0
 17 16  1  0
 18 17  1  0
 19 20  1  0
 19 18  2  0
 20 21  2  0
 21 22  1  0
 23 25  1  0
 24 23  2  0
M  END
$$$$
