CVF.pdb
     RDKit          3D

 25 25  0  0  1  0  0  0  0  0999 V2000
   26.5638  -17.8200  -15.5753 N   0  0  0  0  0  0  0  0  0  0  0  0
   27.0888  -18.8520  -14.7344 C   0  0  1  0  0  0  0  0  0  0  0  0
   28.5749  -18.7663  -14.4928 C   0  0  0  0  0  0  0  0  0  0  0  0
   29.4139  -19.3167  -16.0189 S   0  0  0  0  0  0  0  0  0  0  0  0
   26.3343  -18.9460  -13.4691 C   0  0  0  0  0  0  0  0  0  0  0  0
   26.0079  -17.8799  -12.8748 O   0  0  0  0  0  0  0  0  0  0  0  0
   23.0339  -20.8635  -10.5795 C   0  0  0  0  0  0  0  0  0  0  0  0
   23.8105  -20.9490  -11.9031 C   0  0  1  0  0  0  0  0  0  0  0  0
   22.9197  -20.4077  -12.9678 C   0  0  0  0  0  0  0  0  0  0  0  0
   25.0868  -20.2115  -11.7000 C   0  0  2  0  0  0  0  0  0  0  0  0
   25.9440  -20.1552  -12.8647 N   0  0  0  0  0  0  0  0  0  0  0  0
   25.8319  -20.6118  -10.4826 C   0  0  0  0  0  0  0  0  0  0  0  0
   26.3248  -21.7793  -10.4444 O   0  0  0  0  0  0  0  0  0  0  0  0
   26.0334  -19.7935   -9.3660 N   0  0  0  0  0  0  0  0  0  0  0  0
   26.7549  -20.2306   -8.1602 C   0  0  1  0  0  0  0  0  0  0  0  0
   27.3710  -19.0399   -7.4772 C   0  0  0  0  0  0  0  0  0  0  0  0
   28.1532  -19.3697   -6.2728 C   0  0  0  0  0  0  0  0  0  0  0  0
   27.6494  -19.2297   -4.9898 C   0  0  0  0  0  0  0  0  0  0  0  0
   28.4083  -19.5564   -3.9033 C   0  0  0  0  0  0  0  0  0  0  0  0
   29.7013  -20.0363   -4.0570 C   0  0  0  0  0  0  0  0  0  0  0  0
   30.2177  -20.1815   -5.3306 C   0  0  0  0  0  0  0  0  0  0  0  0
   29.4350  -19.8462   -6.4152 C   0  0  0  0  0  0  0  0  0  0  0  0
   25.8863  -21.0128   -7.2776 C   0  0  0  0  0  0  0  0  0  0  0  0
   24.6308  -20.7964   -7.1785 O   0  0  0  0  0  0  0  0  0  0  0  0
   26.3703  -22.0391   -6.4930 O   0  0  0  0  0  0  0  0  0  0  0  0
  2  5  1  0
  2  1  1  1
  3  2  1  0
  4  3  1  0
  5  6  2  0
  8  7  1  1
  8  9  1  0
  8 10  1  0
 10 12  1  0
 10 11  1  6
 11  5  1  0
 12 13  2  0
 12 14  1  0
 14 15  1  0
 15 16  1  1
 15 23  1  0
 17 22  2  0
 17 16  1  0
 18 17  1  0
 19 20  1  0
 19 18  2  0
 20 21  2  0
 21 22  1  0
 23 25  1  0
 24 23  2  0
M  END
$$$$
