CVF.pdb
     RDKit          3D

 25 25  0  0  1  0  0  0  0  0999 V2000
   25.0217  -24.2782  -16.2310 N   0  0  0  0  0  0  0  0  0  0  0  0
   24.5619  -23.8809  -14.9355 C   0  0  1  0  0  0  0  0  0  0  0  0
   24.1161  -25.0201  -14.0536 C   0  0  0  0  0  0  0  0  0  0  0  0
   22.3233  -25.2503  -14.3150 S   0  0  0  0  0  0  0  0  0  0  0  0
   25.5516  -23.0205  -14.2578 C   0  0  0  0  0  0  0  0  0  0  0  0
   26.7586  -23.3924  -14.2231 O   0  0  0  0  0  0  0  0  0  0  0  0
   24.9395  -18.9298  -13.0143 C   0  0  0  0  0  0  0  0  0  0  0  0
   26.2794  -19.5603  -13.4260 C   0  0  1  0  0  0  0  0  0  0  0  0
   27.3576  -18.7256  -12.8252 C   0  0  0  0  0  0  0  0  0  0  0  0
   26.2422  -20.9784  -12.9769 C   0  0  2  0  0  0  0  0  0  0  0  0
   25.2464  -21.7952  -13.6369 N   0  0  0  0  0  0  0  0  0  0  0  0
   26.2107  -21.1481  -11.5047 C   0  0  0  0  0  0  0  0  0  0  0  0
   25.1186  -21.5090  -10.9711 O   0  0  0  0  0  0  0  0  0  0  0  0
   27.3017  -20.9388  -10.6544 N   0  0  0  0  0  0  0  0  0  0  0  0
   27.1916  -20.9063   -9.1873 C   0  0  1  0  0  0  0  0  0  0  0  0
   28.4581  -20.3504   -8.5949 C   0  0  0  0  0  0  0  0  0  0  0  0
   28.3803  -20.0725   -7.1499 C   0  0  0  0  0  0  0  0  0  0  0  0
   27.7847  -18.9318   -6.6367 C   0  0  0  0  0  0  0  0  0  0  0  0
   27.7281  -18.7209   -5.2893 C   0  0  0  0  0  0  0  0  0  0  0  0
   28.2650  -19.6427   -4.4018 C   0  0  0  0  0  0  0  0  0  0  0  0
   28.8622  -20.7855   -4.8987 C   0  0  0  0  0  0  0  0  0  0  0  0
   28.9091  -20.9802   -6.2630 C   0  0  0  0  0  0  0  0  0  0  0  0
   25.9923  -20.1809   -8.7621 C   0  0  0  0  0  0  0  0  0  0  0  0
   25.1817  -20.6424   -7.8887 O   0  0  0  0  0  0  0  0  0  0  0  0
   25.6595  -18.9461   -9.2795 O   0  0  0  0  0  0  0  0  0  0  0  0
  2  5  1  0
  2  1  1  6
  3  2  1  0
  4  3  1  0
  5  6  2  0
  8  7  1  1
  8  9  1  0
  8 10  1  0
 10 12  1  0
 10 11  1  6
 11  5  1  0
 12 13  2  0
 12 14  1  0
 14 15  1  0
 15 16  1  1
 15 23  1  0
 17 22  2  0
 17 16  1  0
 18 17  1  0
 19 20  1  0
 19 18  2  0
 20 21  2  0
 21 22  1  0
 23 25  1  0
 24 23  2  0
M  END
$$$$
