CVF.pdb
     RDKit          3D

 25 25  0  0  1  0  0  0  0  0999 V2000
   26.9321  -24.0278  -16.4193 N   0  0  0  0  0  0  0  0  0  0  0  0
   25.9382  -23.1686  -15.8522 C   0  0  1  0  0  0  0  0  0  0  0  0
   24.7345  -23.8868  -15.2956 C   0  0  0  0  0  0  0  0  0  0  0  0
   25.2674  -24.7684  -13.7875 S   0  0  0  0  0  0  0  0  0  0  0  0
   26.5301  -22.2469  -14.8626 C   0  0  0  0  0  0  0  0  0  0  0  0
   27.7254  -22.4321  -14.4977 O   0  0  0  0  0  0  0  0  0  0  0  0
   26.7689  -17.9663  -12.5173 C   0  0  0  0  0  0  0  0  0  0  0  0
   26.1694  -18.7856  -13.6713 C   0  0  1  0  0  0  0  0  0  0  0  0
   26.7293  -18.2325  -14.9365 C   0  0  0  0  0  0  0  0  0  0  0  0
   26.4928  -20.2121  -13.3978 C   0  0  2  0  0  0  0  0  0  0  0  0
   25.8511  -21.1580  -14.2855 N   0  0  0  0  0  0  0  0  0  0  0  0
   26.3523  -20.6043  -11.9752 C   0  0  0  0  0  0  0  0  0  0  0  0
   25.2715  -21.1616  -11.6162 O   0  0  0  0  0  0  0  0  0  0  0  0
   27.3282  -20.4046  -10.9930 N   0  0  0  0  0  0  0  0  0  0  0  0
   27.1129  -20.6924   -9.5659 C   0  0  1  0  0  0  0  0  0  0  0  0
   28.3070  -20.2394   -8.7705 C   0  0  0  0  0  0  0  0  0  0  0  0
   28.1067  -20.2614   -7.3108 C   0  0  0  0  0  0  0  0  0  0  0  0
   28.4899  -21.3306   -6.5174 C   0  0  0  0  0  0  0  0  0  0  0  0
   28.2921  -21.3027   -5.1671 C   0  0  0  0  0  0  0  0  0  0  0  0
   27.7034  -20.2043   -4.5568 C   0  0  0  0  0  0  0  0  0  0  0  0
   27.3161  -19.1301   -5.3351 C   0  0  0  0  0  0  0  0  0  0  0  0
   27.5246  -19.1775   -6.6973 C   0  0  0  0  0  0  0  0  0  0  0  0
   25.8541  -20.1119   -9.0926 C   0  0  0  0  0  0  0  0  0  0  0  0
   25.4670  -18.9409   -9.4269 O   0  0  0  0  0  0  0  0  0  0  0  0
   25.0011  -20.7960   -8.2515 O   0  0  0  0  0  0  0  0  0  0  0  0
  2  5  1  0
  2  1  1  1
  3  2  1  0
  4  3  1  0
  5  6  2  0
  8  7  1  1
  8  9  1  0
  8 10  1  0
 10 12  1  0
 10 11  1  6
 11  5  1  0
 12 13  2  0
 12 14  1  0
 14 15  1  0
 15 16  1  1
 15 23  1  0
 17 22  2  0
 17 16  1  0
 18 17  1  0
 19 20  1  0
 19 18  2  0
 20 21  2  0
 21 22  1  0
 23 25  1  0
 24 23  2  0
M  END
$$$$
