LTR.pdb
     RDKit          3D

 27 26  0  0  1  0  0  0  0  0999 V2000
   33.4181   57.2753 -102.5691 C   0  0  0  0  0  0  0  0  0  0  0  0
   33.3291   58.7160 -102.1806 C   0  0  1  0  0  0  0  0  0  0  0  0
   34.7352   59.2826 -102.1078 C   0  0  0  0  0  0  0  0  0  0  0  0
   32.4922   59.5389 -103.1205 C   0  0  0  0  0  0  0  0  0  0  0  0
   33.2826   60.7565 -103.5682 C   0  0  2  0  0  0  0  0  0  0  0  0
   34.3085   60.3098 -104.4881 N   0  0  0  0  0  0  0  0  0  0  0  0
   33.9485   61.4211 -102.4254 C   0  0  0  0  0  0  0  0  0  0  0  0
   35.0422   60.9982 -102.0190 O   0  0  0  0  0  0  0  0  0  0  0  0
   32.3455   60.2995 -102.3158 C   0  0  0  0  0  0  0  0  0  0  0  0
   31.6215   61.0316 -101.2055 C   0  0  1  0  0  0  0  0  0  0  0  0
   31.6207   60.3199 -100.0102 O   0  0  0  0  0  0  0  0  0  0  0  0
   32.1092   62.4533 -101.0563 C   0  0  2  0  0  0  0  0  0  0  0  0
   33.3747   62.5584 -101.7496 N   0  0  0  0  0  0  0  0  0  0  0  0
   32.1958   62.8980  -99.6564 C   0  0  0  0  0  0  0  0  0  0  0  0
   31.6721   64.0187  -99.3698 O   0  0  0  0  0  0  0  0  0  0  0  0
   39.4870   63.8680 -101.9829 N   0  0  0  0  0  0  0  0  0  0  0  0
   38.1394   63.6062 -102.3530 C   0  0  0  0  0  0  0  0  0  0  0  0
   37.8143   63.6862 -103.5893 N   0  0  0  0  0  0  0  0  0  0  0  0
   37.1324   63.2607 -101.4275 N   0  0  0  0  0  0  0  0  0  0  0  0
   35.7421   63.3739 -101.7189 C   0  0  0  0  0  0  0  0  0  0  0  0
   34.8375   62.4656 -100.9785 C   0  0  0  0  0  0  0  0  0  0  0  0
   35.0344   62.5469  -99.5125 C   0  0  0  0  0  0  0  0  0  0  0  0
   34.2022   61.6800  -98.6678 C   0  0  2  0  0  0  0  0  0  0  0  0
   32.8166   62.1684  -98.6200 N   0  0  0  0  0  0  0  0  0  0  0  0
   34.7207   61.1858  -97.4410 C   0  0  0  0  0  0  0  0  0  0  0  0
   35.8132   61.5049  -96.8674 O   0  0  0  0  0  0  0  0  0  0  0  0
   33.9865   60.2213  -96.7177 O   0  0  0  0  0  0  0  0  0  0  0  0
  2  1  1  6
  3  2  1  0
  4  2  1  0
  5  4  1  0
  5  6  1  6
  7  5  1  0
  8  7  2  0
 10  9  1  6
 10 12  1  0
 11 10  1  0
 12 13  1  1
 13  7  1  0
 14 12  1  0
 14 15  2  0
 16 17  1  0
 17 18  2  0
 17 19  1  0
 19 20  1  0
 20 21  1  0
 21 22  1  0
 23 24  1  0
 23 22  1  1
 24 14  1  0
 25 23  1  0
 26 25  2  0
 27 25  1  0
M  END
$$$$
