LTR.pdb
     RDKit          3D

 27 26  0  0  1  0  0  0  0  0999 V2000
    6.6399  -12.5429   18.6306 C   0  0  0  0  0  0  0  0  0  0  0  0
    7.9653  -13.0155   19.1350 C   0  0  1  0  0  0  0  0  0  0  0  0
    8.7209  -11.8234   19.6929 C   0  0  0  0  0  0  0  0  0  0  0  0
    7.8591  -14.0909   20.1805 C   0  0  0  0  0  0  0  0  0  0  0  0
    9.2412  -14.4021   20.7289 C   0  0  2  0  0  0  0  0  0  0  0  0
   10.1568  -14.4893   19.6099 N   0  0  0  0  0  0  0  0  0  0  0  0
    9.2624  -15.6992   21.4419 C   0  0  0  0  0  0  0  0  0  0  0  0
    8.3954  -15.9476   22.2944 O   0  0  0  0  0  0  0  0  0  0  0  0
    9.6021  -19.2516   19.8939 C   0  0  0  0  0  0  0  0  0  0  0  0
   10.6527  -19.0515   20.9660 C   0  0  1  0  0  0  0  0  0  0  0  0
   11.9319  -18.9086   20.4383 O   0  0  0  0  0  0  0  0  0  0  0  0
   10.2741  -17.9495   21.9271 C   0  0  2  0  0  0  0  0  0  0  0  0
   10.2625  -16.7064   21.1872 N   0  0  0  0  0  0  0  0  0  0  0  0
   11.1384  -17.8884   23.1164 C   0  0  0  0  0  0  0  0  0  0  0  0
   12.1628  -17.1409   23.0517 O   0  0  0  0  0  0  0  0  0  0  0  0
    9.6215  -14.2130   27.7372 N   0  0  0  0  0  0  0  0  0  0  0  0
   10.2885  -14.7294   28.8818 C   0  0  0  0  0  0  0  0  0  0  0  0
   10.8473  -13.9085   29.6907 N   0  0  0  0  0  0  0  0  0  0  0  0
   10.3699  -16.1061   29.1784 N   0  0  0  0  0  0  0  0  0  0  0  0
    9.8913  -17.1172   28.2955 C   0  0  0  0  0  0  0  0  0  0  0  0
   10.5305  -17.1842   26.9621 C   0  0  0  0  0  0  0  0  0  0  0  0
   11.1836  -18.4909   26.7159 C   0  0  0  0  0  0  0  0  0  0  0  0
   11.8633  -18.6768   25.4270 C   0  0  2  0  0  0  0  0  0  0  0  0
   10.9067  -18.5987   24.3137 N   0  0  0  0  0  0  0  0  0  0  0  0
   12.8718  -19.6693   25.3003 C   0  0  0  0  0  0  0  0  0  0  0  0
   12.8857  -20.6763   24.5191 O   0  0  0  0  0  0  0  0  0  0  0  0
   14.0263  -19.5903   26.1086 O   0  0  0  0  0  0  0  0  0  0  0  0
  2  1  1  1
  3  2  1  0
  4  2  1  0
  5  4  1  0
  5  6  1  6
  7  5  1  0
  8  7  2  0
 10  9  1  6
 10 12  1  0
 11 10  1  0
 12 13  1  6
 13  7  1  0
 14 12  1  0
 14 15  2  0
 16 17  1  0
 17 18  2  0
 17 19  1  0
 19 20  1  0
 20 21  1  0
 21 22  1  0
 23 24  1  0
 23 22  1  1
 24 14  1  0
 25 23  1  0
 26 25  2  0
 27 25  1  0
M  END
$$$$
