LTR.pdb
     RDKit          3D

 27 26  0  0  1  0  0  0  0  0999 V2000
    7.3350  -12.4328   20.5213 C   0  0  0  0  0  0  0  0  0  0  0  0
    7.9378  -13.6180   19.8384 C   0  0  1  0  0  0  0  0  0  0  0  0
    9.1777  -13.1635   19.0905 C   0  0  0  0  0  0  0  0  0  0  0  0
    8.2876  -14.7373   20.7796 C   0  0  0  0  0  0  0  0  0  0  0  0
    8.8223  -15.9174   19.9863 C   0  0  2  0  0  0  0  0  0  0  0  0
    7.7863  -16.3451   19.0687 N   0  0  0  0  0  0  0  0  0  0  0  0
    9.1539  -17.0586   20.8688 C   0  0  0  0  0  0  0  0  0  0  0  0
    8.2422  -17.7437   21.3585 O   0  0  0  0  0  0  0  0  0  0  0  0
   11.1982  -20.0780   20.2720 C   0  0  0  0  0  0  0  0  0  0  0  0
   11.7789  -19.4178   21.5048 C   0  0  1  0  0  0  0  0  0  0  0  0
   13.0265  -18.8498   21.2674 O   0  0  0  0  0  0  0  0  0  0  0  0
   10.7992  -18.4652   22.1484 C   0  0  2  0  0  0  0  0  0  0  0  0
   10.5124  -17.4181   21.1921 N   0  0  0  0  0  0  0  0  0  0  0  0
   11.2617  -17.9356   23.4409 C   0  0  0  0  0  0  0  0  0  0  0  0
   12.0514  -16.9417   23.4120 O   0  0  0  0  0  0  0  0  0  0  0  0
    6.9234  -12.4573   25.9723 N   0  0  0  0  0  0  0  0  0  0  0  0
    7.8633  -13.0797   26.8387 C   0  0  0  0  0  0  0  0  0  0  0  0
    7.7438  -12.9067   28.1021 N   0  0  0  0  0  0  0  0  0  0  0  0
    8.9285  -13.8833   26.3809 N   0  0  0  0  0  0  0  0  0  0  0  0
    9.5762  -14.8507   27.2027 C   0  0  0  0  0  0  0  0  0  0  0  0
   10.6679  -15.6264   26.5720 C   0  0  0  0  0  0  0  0  0  0  0  0
   10.4356  -17.0876   26.6455 C   0  0  0  0  0  0  0  0  0  0  0  0
   11.4113  -17.9633   25.9832 C   0  0  2  0  0  0  0  0  0  0  0  0
   10.8891  -18.4538   24.6996 N   0  0  0  0  0  0  0  0  0  0  0  0
   12.1411  -18.9103   26.7503 C   0  0  0  0  0  0  0  0  0  0  0  0
   11.7988  -20.0986   27.0591 O   0  0  0  0  0  0  0  0  0  0  0  0
   13.4076  -18.5569   27.2638 O   0  0  0  0  0  0  0  0  0  0  0  0
  2  1  1  1
  3  2  1  0
  4  2  1  0
  5  4  1  0
  5  6  1  6
  7  5  1  0
  8  7  2  0
 10  9  1  6
 10 12  1  0
 11 10  1  0
 12 13  1  6
 13  7  1  0
 14 12  1  0
 14 15  2  0
 16 17  1  0
 17 18  2  0
 17 19  1  0
 19 20  1  0
 20 21  1  0
 21 22  1  0
 23 24  1  0
 23 22  1  1
 24 14  1  0
 25 23  1  0
 26 25  2  0
 27 25  1  0
M  END
$$$$
