LTR.pdb
     RDKit          3D

 27 26  0  0  1  0  0  0  0  0999 V2000
   10.1234  -17.0183   12.8969 C   0  0  0  0  0  0  0  0  0  0  0  0
    9.8244  -17.6455   14.2204 C   0  0  1  0  0  0  0  0  0  0  0  0
   10.4171  -19.0425   14.2359 C   0  0  0  0  0  0  0  0  0  0  0  0
   10.3442  -16.8544   15.3888 C   0  0  0  0  0  0  0  0  0  0  0  0
    9.4431  -15.6553   15.6292 C   0  0  2  0  0  0  0  0  0  0  0  0
    9.6673  -14.7059   14.5584 N   0  0  0  0  0  0  0  0  0  0  0  0
    9.7614  -14.9859   16.9106 C   0  0  0  0  0  0  0  0  0  0  0  0
   10.8277  -14.3624   17.0314 O   0  0  0  0  0  0  0  0  0  0  0  0
    7.3899  -12.6606   18.9216 C   0  0  0  0  0  0  0  0  0  0  0  0
    7.9398  -13.7410   19.8291 C   0  0  1  0  0  0  0  0  0  0  0  0
    6.9801  -14.6877   20.1726 O   0  0  0  0  0  0  0  0  0  0  0  0
    9.2094  -14.3467   19.2790 C   0  0  2  0  0  0  0  0  0  0  0  0
    8.8738  -15.0255   18.0463 N   0  0  0  0  0  0  0  0  0  0  0  0
    9.8999  -15.2261   20.2356 C   0  0  0  0  0  0  0  0  0  0  0  0
    9.8549  -16.4753   20.0127 O   0  0  0  0  0  0  0  0  0  0  0  0
   18.2136  -15.4397   22.3384 N   0  0  0  0  0  0  0  0  0  0  0  0
   17.0319  -14.9132   21.7486 C   0  0  0  0  0  0  0  0  0  0  0  0
   17.1232  -13.8653   21.0179 N   0  0  0  0  0  0  0  0  0  0  0  0
   15.7543  -15.4848   21.9250 N   0  0  0  0  0  0  0  0  0  0  0  0
   15.0751  -15.4892   23.1778 C   0  0  0  0  0  0  0  0  0  0  0  0
   13.6965  -16.0281   23.1781 C   0  0  0  0  0  0  0  0  0  0  0  0
   12.7792  -15.2286   22.3332 C   0  0  0  0  0  0  0  0  0  0  0  0
   11.3746  -15.6535   22.2675 C   0  0  2  0  0  0  0  0  0  0  0  0
   10.6031  -14.7776   21.3741 N   0  0  0  0  0  0  0  0  0  0  0  0
   10.7069  -16.0613   23.4531 C   0  0  0  0  0  0  0  0  0  0  0  0
   11.1234  -16.8666   24.3490 O   0  0  0  0  0  0  0  0  0  0  0  0
    9.4216  -15.5500   23.7347 O   0  0  0  0  0  0  0  0  0  0  0  0
  2  1  1  6
  3  2  1  0
  4  2  1  0
  5  4  1  0
  5  6  1  6
  7  5  1  0
  8  7  2  0
 10  9  1  6
 10 12  1  0
 11 10  1  0
 12 13  1  6
 13  7  1  0
 14 12  1  0
 14 15  2  0
 16 17  1  0
 17 18  2  0
 17 19  1  0
 19 20  1  0
 20 21  1  0
 21 22  1  0
 23 24  1  0
 23 22  1  1
 24 14  1  0
 25 23  1  0
 26 25  2  0
 27 25  1  0
M  END
$$$$
