LTR.pdb
     RDKit          3D

 27 26  0  0  1  0  0  0  0  0999 V2000
    8.9058  -19.9141   15.4049 C   0  0  0  0  0  0  0  0  0  0  0  0
    8.1938  -18.6456   15.7492 C   0  0  1  0  0  0  0  0  0  0  0  0
    6.8219  -18.9967   16.2952 C   0  0  0  0  0  0  0  0  0  0  0  0
    8.9369  -17.7916   16.7388 C   0  0  0  0  0  0  0  0  0  0  0  0
    8.0947  -16.5781   17.0933 C   0  0  2  0  0  0  0  0  0  0  0  0
    8.0420  -15.7157   15.9307 N   0  0  0  0  0  0  0  0  0  0  0  0
    8.6928  -15.8097   18.2083 C   0  0  0  0  0  0  0  0  0  0  0  0
    9.6217  -15.0183   17.9822 O   0  0  0  0  0  0  0  0  0  0  0  0
    7.0296  -13.4496   20.5404 C   0  0  0  0  0  0  0  0  0  0  0  0
    7.7367  -14.4821   21.3931 C   0  0  1  0  0  0  0  0  0  0  0  0
    6.8519  -15.3641   22.0051 O   0  0  0  0  0  0  0  0  0  0  0  0
    8.8457  -15.1742   20.6363 C   0  0  2  0  0  0  0  0  0  0  0  0
    8.2379  -15.9405   19.5703 N   0  0  0  0  0  0  0  0  0  0  0  0
    9.7154  -15.9946   21.4939 C   0  0  0  0  0  0  0  0  0  0  0  0
    9.5391  -17.2517   21.4661 O   0  0  0  0  0  0  0  0  0  0  0  0
   17.5342  -15.4023   24.7439 N   0  0  0  0  0  0  0  0  0  0  0  0
   17.5113  -16.7674   24.3470 C   0  0  0  0  0  0  0  0  0  0  0  0
   18.4618  -17.5356   24.7304 N   0  0  0  0  0  0  0  0  0  0  0  0
   16.4924  -17.3274   23.5481 N   0  0  0  0  0  0  0  0  0  0  0  0
   15.4307  -16.5546   22.9948 C   0  0  0  0  0  0  0  0  0  0  0  0
   14.0615  -16.9056   23.4343 C   0  0  0  0  0  0  0  0  0  0  0  0
   13.0304  -16.0508   22.8013 C   0  0  0  0  0  0  0  0  0  0  0  0
   11.6270  -16.3134   23.1464 C   0  0  2  0  0  0  0  0  0  0  0  0
   10.7238  -15.4820   22.3378 N   0  0  0  0  0  0  0  0  0  0  0  0
   11.2559  -16.4762   24.5079 C   0  0  0  0  0  0  0  0  0  0  0  0
   10.4128  -15.7934   25.1769 O   0  0  0  0  0  0  0  0  0  0  0  0
   11.8562  -17.5006   25.2714 O   0  0  0  0  0  0  0  0  0  0  0  0
  2  1  1  1
  3  2  1  0
  4  2  1  0
  5  4  1  0
  5  6  1  6
  7  5  1  0
  8  7  2  0
 10  9  1  6
 10 12  1  0
 11 10  1  0
 12 13  1  6
 13  7  1  0
 14 12  1  0
 14 15  2  0
 16 17  1  0
 17 18  2  0
 17 19  1  0
 19 20  1  0
 20 21  1  0
 21 22  1  0
 23 24  1  0
 23 22  1  1
 24 14  1  0
 25 23  1  0
 26 25  2  0
 27 25  1  0
M  END
$$$$
