LTR.pdb
     RDKit          3D

 27 26  0  0  1  0  0  0  0  0999 V2000
    6.9874  -12.2266   19.8510 C   0  0  0  0  0  0  0  0  0  0  0  0
    8.0327  -13.0222   19.1377 C   0  0  1  0  0  0  0  0  0  0  0  0
    9.3410  -12.2549   19.1903 C   0  0  0  0  0  0  0  0  0  0  0  0
    8.2239  -14.4024   19.7031 C   0  0  0  0  0  0  0  0  0  0  0  0
    9.2755  -15.1403   18.8923 C   0  0  2  0  0  0  0  0  0  0  0  0
    8.7180  -15.4179   17.5846 N   0  0  0  0  0  0  0  0  0  0  0  0
    9.6377  -16.4309   19.5205 C   0  0  0  0  0  0  0  0  0  0  0  0
    8.8095  -17.3546   19.5514 O   0  0  0  0  0  0  0  0  0  0  0  0
   11.9568  -19.0416   18.8094 C   0  0  0  0  0  0  0  0  0  0  0  0
   12.3204  -18.6088   20.2142 C   0  0  1  0  0  0  0  0  0  0  0  0
   13.5353  -17.9331   20.2658 O   0  0  0  0  0  0  0  0  0  0  0  0
   11.1907  -17.8630   20.8843 C   0  0  2  0  0  0  0  0  0  0  0  0
   10.9323  -16.6690   20.1093 N   0  0  0  0  0  0  0  0  0  0  0  0
   11.4449  -17.5688   22.3034 C   0  0  0  0  0  0  0  0  0  0  0  0
   11.9994  -16.4595   22.5760 O   0  0  0  0  0  0  0  0  0  0  0  0
   10.6511  -13.5333   28.2163 N   0  0  0  0  0  0  0  0  0  0  0  0
   10.2826  -14.5965   29.0854 C   0  0  0  0  0  0  0  0  0  0  0  0
   10.6718  -14.5572   30.3049 N   0  0  0  0  0  0  0  0  0  0  0  0
    9.5063  -15.7010   28.6761 N   0  0  0  0  0  0  0  0  0  0  0  0
    9.4236  -16.1280   27.3191 C   0  0  0  0  0  0  0  0  0  0  0  0
   10.5583  -16.9310   26.8105 C   0  0  0  0  0  0  0  0  0  0  0  0
   10.3491  -17.3803   25.4144 C   0  0  0  0  0  0  0  0  0  0  0  0
   11.4267  -18.1528   24.7823 C   0  0  2  0  0  0  0  0  0  0  0  0
   11.1161  -18.4295   23.3724 N   0  0  0  0  0  0  0  0  0  0  0  0
   12.0408  -19.2171   25.4951 C   0  0  0  0  0  0  0  0  0  0  0  0
   11.9942  -20.4638   25.2342 O   0  0  0  0  0  0  0  0  0  0  0  0
   12.8111  -18.9285   26.6422 O   0  0  0  0  0  0  0  0  0  0  0  0
  2  1  1  1
  3  2  1  0
  4  2  1  0
  5  4  1  0
  5  6  1  6
  7  5  1  0
  8  7  2  0
 10  9  1  6
 10 12  1  0
 11 10  1  0
 12 13  1  6
 13  7  1  0
 14 12  1  0
 14 15  2  0
 16 17  1  0
 17 18  2  0
 17 19  1  0
 19 20  1  0
 20 21  1  0
 21 22  1  0
 23 24  1  0
 23 22  1  1
 24 14  1  0
 25 23  1  0
 26 25  2  0
 27 25  1  0
M  END
$$$$
