LTR.pdb
     RDKit          3D

 27 26  0  0  1  0  0  0  0  0999 V2000
    6.7250  -12.4491   18.8777 C   0  0  0  0  0  0  0  0  0  0  0  0
    8.0501  -13.0778   19.1662 C   0  0  1  0  0  0  0  0  0  0  0  0
    8.8637  -12.1179   20.0147 C   0  0  0  0  0  0  0  0  0  0  0  0
    7.9434  -14.4092   19.8567 C   0  0  0  0  0  0  0  0  0  0  0  0
    9.3322  -14.8986   20.2302 C   0  0  2  0  0  0  0  0  0  0  0  0
   10.0901  -15.0678   19.0074 N   0  0  0  0  0  0  0  0  0  0  0  0
    9.2787  -16.2063   20.9219 C   0  0  0  0  0  0  0  0  0  0  0  0
    8.5056  -16.3651   21.8797 O   0  0  0  0  0  0  0  0  0  0  0  0
    9.5087  -19.7640   19.1467 C   0  0  0  0  0  0  0  0  0  0  0  0
   10.4572  -19.6767   20.3238 C   0  0  1  0  0  0  0  0  0  0  0  0
   11.7911  -19.6356   19.9312 O   0  0  0  0  0  0  0  0  0  0  0  0
   10.0770  -18.5647   21.2727 C   0  0  2  0  0  0  0  0  0  0  0  0
   10.0984  -17.3250   20.5273 N   0  0  0  0  0  0  0  0  0  0  0  0
   10.9191  -18.5111   22.4781 C   0  0  0  0  0  0  0  0  0  0  0  0
   11.7048  -17.5204   22.5938 O   0  0  0  0  0  0  0  0  0  0  0  0
    9.2836  -13.5673   28.0122 N   0  0  0  0  0  0  0  0  0  0  0  0
   10.0825  -14.4349   28.8063 C   0  0  0  0  0  0  0  0  0  0  0  0
   10.4515  -14.0403   29.9676 N   0  0  0  0  0  0  0  0  0  0  0  0
   10.4948  -15.7159   28.3832 N   0  0  0  0  0  0  0  0  0  0  0  0
   10.4034  -16.1498   27.0289 C   0  0  0  0  0  0  0  0  0  0  0  0
   11.0206  -17.4576   26.7128 C   0  0  0  0  0  0  0  0  0  0  0  0
   10.7054  -17.9113   25.3383 C   0  0  0  0  0  0  0  0  0  0  0  0
   11.2609  -19.2005   24.9059 C   0  0  2  0  0  0  0  0  0  0  0  0
   10.9116  -19.4788   23.5055 N   0  0  0  0  0  0  0  0  0  0  0  0
   11.2130  -20.3168   25.7831 C   0  0  0  0  0  0  0  0  0  0  0  0
   10.5042  -21.3703   25.6720 O   0  0  0  0  0  0  0  0  0  0  0  0
   12.0244  -20.3251   26.9382 O   0  0  0  0  0  0  0  0  0  0  0  0
  2  1  1  1
  3  2  1  0
  4  2  1  0
  5  4  1  0
  5  6  1  6
  7  5  1  0
  8  7  2  0
 10  9  1  6
 10 12  1  0
 11 10  1  0
 12 13  1  6
 13  7  1  0
 14 12  1  0
 14 15  2  0
 16 17  1  0
 17 18  2  0
 17 19  1  0
 19 20  1  0
 20 21  1  0
 21 22  1  0
 23 24  1  0
 23 22  1  1
 24 14  1  0
 25 23  1  0
 26 25  2  0
 27 25  1  0
M  END
$$$$
