LTR.pdb
     RDKit          3D

 27 26  0  0  1  0  0  0  0  0999 V2000
    7.8931  -11.7823   19.5365 C   0  0  0  0  0  0  0  0  0  0  0  0
    8.6872  -13.0405   19.3925 C   0  0  1  0  0  0  0  0  0  0  0  0
    8.4585  -13.8976   20.6238 C   0  0  0  0  0  0  0  0  0  0  0  0
    8.3504  -13.8224   18.1530 C   0  0  0  0  0  0  0  0  0  0  0  0
    9.2147  -15.0701   18.0911 C   0  0  2  0  0  0  0  0  0  0  0  0
    8.9281  -15.7508   16.8450 N   0  0  0  0  0  0  0  0  0  0  0  0
    8.9078  -15.9983   19.2026 C   0  0  0  0  0  0  0  0  0  0  0  0
    7.7552  -16.4384   19.3370 O   0  0  0  0  0  0  0  0  0  0  0  0
   10.4539  -19.1758   19.4403 C   0  0  0  0  0  0  0  0  0  0  0  0
   10.6151  -18.5993   20.8313 C   0  0  1  0  0  0  0  0  0  0  0  0
   11.9319  -18.2515   21.1145 O   0  0  0  0  0  0  0  0  0  0  0  0
    9.6303  -17.4853   21.0972 C   0  0  2  0  0  0  0  0  0  0  0  0
    9.9044  -16.4227   20.1545 N   0  0  0  0  0  0  0  0  0  0  0  0
    9.6404  -17.0166   22.4919 C   0  0  0  0  0  0  0  0  0  0  0  0
   10.4444  -16.0780   22.7832 O   0  0  0  0  0  0  0  0  0  0  0  0
    6.3421  -21.5858   27.1104 N   0  0  0  0  0  0  0  0  0  0  0  0
    7.2738  -21.3700   28.1624 C   0  0  0  0  0  0  0  0  0  0  0  0
    7.6890  -22.3791   28.8331 N   0  0  0  0  0  0  0  0  0  0  0  0
    7.7700  -20.0965   28.5118 N   0  0  0  0  0  0  0  0  0  0  0  0
    7.2775  -18.8897   27.9358 C   0  0  0  0  0  0  0  0  0  0  0  0
    8.2679  -18.0418   27.2349 C   0  0  0  0  0  0  0  0  0  0  0  0
    8.0981  -18.0767   25.7637 C   0  0  0  0  0  0  0  0  0  0  0  0
    9.0533  -17.3104   24.9527 C   0  0  2  0  0  0  0  0  0  0  0  0
    8.8229  -17.5359   23.5185 N   0  0  0  0  0  0  0  0  0  0  0  0
   10.4150  -17.2379   25.3509 C   0  0  0  0  0  0  0  0  0  0  0  0
   11.3669  -18.0232   25.0322 O   0  0  0  0  0  0  0  0  0  0  0  0
   10.8324  -16.1931   26.2034 O   0  0  0  0  0  0  0  0  0  0  0  0
  2  1  1  1
  3  2  1  0
  4  2  1  0
  5  4  1  0
  5  6  1  6
  7  5  1  0
  8  7  2  0
 10  9  1  6
 10 12  1  0
 11 10  1  0
 12 13  1  6
 13  7  1  0
 14 12  1  0
 14 15  2  0
 16 17  1  0
 17 18  2  0
 17 19  1  0
 19 20  1  0
 20 21  1  0
 21 22  1  0
 23 24  1  0
 23 22  1  1
 24 14  1  0
 25 23  1  0
 26 25  2  0
 27 25  1  0
M  END
$$$$
