LTR.pdb
     RDKit          3D

 27 26  0  0  1  0  0  0  0  0999 V2000
    7.2253  -11.9564   19.5091 C   0  0  0  0  0  0  0  0  0  0  0  0
    8.0686  -13.0178   18.8792 C   0  0  1  0  0  0  0  0  0  0  0  0
    9.5061  -12.5325   18.8439 C   0  0  0  0  0  0  0  0  0  0  0  0
    7.9912  -14.3423   19.5868 C   0  0  0  0  0  0  0  0  0  0  0  0
    8.8743  -15.3506   18.8719 C   0  0  2  0  0  0  0  0  0  0  0  0
    8.1463  -15.8458   17.7217 N   0  0  0  0  0  0  0  0  0  0  0  0
    9.1961  -16.5034   19.7429 C   0  0  0  0  0  0  0  0  0  0  0  0
    8.2784  -17.1628   20.2559 O   0  0  0  0  0  0  0  0  0  0  0  0
   11.3714  -19.4705   19.0384 C   0  0  0  0  0  0  0  0  0  0  0  0
   11.8637  -18.8737   20.3401 C   0  0  1  0  0  0  0  0  0  0  0  0
   13.1171  -18.2832   20.2152 O   0  0  0  0  0  0  0  0  0  0  0  0
   10.8333  -17.9658   20.9691 C   0  0  2  0  0  0  0  0  0  0  0  0
   10.5518  -16.9033   20.0285 N   0  0  0  0  0  0  0  0  0  0  0  0
   11.2318  -17.4564   22.2908 C   0  0  0  0  0  0  0  0  0  0  0  0
   11.8325  -16.3383   22.3250 O   0  0  0  0  0  0  0  0  0  0  0  0
   10.2987  -13.4417   29.6257 N   0  0  0  0  0  0  0  0  0  0  0  0
   10.2022  -14.8217   29.9538 C   0  0  0  0  0  0  0  0  0  0  0  0
   10.2113  -15.1627   31.1883 N   0  0  0  0  0  0  0  0  0  0  0  0
   10.0962  -15.8444   28.9879 N   0  0  0  0  0  0  0  0  0  0  0  0
   10.4030  -15.6427   27.6110 C   0  0  0  0  0  0  0  0  0  0  0  0
   10.1169  -16.7735   26.6996 C   0  0  0  0  0  0  0  0  0  0  0  0
   10.7157  -16.5808   25.3583 C   0  0  0  0  0  0  0  0  0  0  0  0
   11.5210  -17.6806   24.8111 C   0  0  2  0  0  0  0  0  0  0  0  0
   10.9927  -18.1217   23.5123 N   0  0  0  0  0  0  0  0  0  0  0  0
   11.9752  -18.7157   25.6716 C   0  0  0  0  0  0  0  0  0  0  0  0
   11.5800  -19.9266   25.7165 O   0  0  0  0  0  0  0  0  0  0  0  0
   12.9863  -18.4368   26.6164 O   0  0  0  0  0  0  0  0  0  0  0  0
  2  1  1  1
  3  2  1  0
  4  2  1  0
  5  4  1  0
  5  6  1  6
  7  5  1  0
  8  7  2  0
 10  9  1  6
 10 12  1  0
 11 10  1  0
 12 13  1  6
 13  7  1  0
 14 12  1  0
 14 15  2  0
 16 17  1  0
 17 18  2  0
 17 19  1  0
 19 20  1  0
 20 21  1  0
 21 22  1  0
 23 24  1  0
 23 22  1  1
 24 14  1  0
 25 23  1  0
 26 25  2  0
 27 25  1  0
M  END
$$$$
