LTR.pdb
     RDKit          3D

 27 26  0  0  1  0  0  0  0  0999 V2000
    7.0408  -11.6458   19.3773 C   0  0  0  0  0  0  0  0  0  0  0  0
    8.0705  -12.7156   19.2048 C   0  0  1  0  0  0  0  0  0  0  0  0
    9.3808  -12.2213   19.7897 C   0  0  0  0  0  0  0  0  0  0  0  0
    7.6866  -14.0239   19.8386 C   0  0  0  0  0  0  0  0  0  0  0  0
    8.8209  -15.0202   19.6704 C   0  0  2  0  0  0  0  0  0  0  0  0
    8.6732  -15.6510   18.3748 N   0  0  0  0  0  0  0  0  0  0  0  0
    8.7715  -16.0781   20.7046 C   0  0  0  0  0  0  0  0  0  0  0  0
    8.3718  -17.2142   20.4048 O   0  0  0  0  0  0  0  0  0  0  0  0
   10.1253  -18.2421   21.0305 C   0  0  0  0  0  0  0  0  0  0  0  0
   10.3630  -17.8749   22.4802 C   0  0  1  0  0  0  0  0  0  0  0  0
   11.6582  -17.4219   22.7096 O   0  0  0  0  0  0  0  0  0  0  0  0
    9.2992  -16.9409   23.0067 C   0  0  2  0  0  0  0  0  0  0  0  0
    9.1736  -15.8458   22.0697 N   0  0  0  0  0  0  0  0  0  0  0  0
    9.5539  -16.4795   24.3805 C   0  0  0  0  0  0  0  0  0  0  0  0
   10.6840  -15.9501   24.6150 O   0  0  0  0  0  0  0  0  0  0  0  0
    5.7136  -22.1070   26.6841 N   0  0  0  0  0  0  0  0  0  0  0  0
    6.1794  -22.2985   28.0137 C   0  0  0  0  0  0  0  0  0  0  0  0
    6.0654  -23.4586   28.5444 N   0  0  0  0  0  0  0  0  0  0  0  0
    6.7644  -21.2741   28.7871 N   0  0  0  0  0  0  0  0  0  0  0  0
    7.0211  -19.9691   28.2754 C   0  0  0  0  0  0  0  0  0  0  0  0
    8.1153  -19.8529   27.2853 C   0  0  0  0  0  0  0  0  0  0  0  0
    7.9226  -18.7081   26.3650 C   0  0  0  0  0  0  0  0  0  0  0  0
    8.7711  -17.5262   26.5664 C   0  0  2  0  0  0  0  0  0  0  0  0
    8.6340  -16.5850   25.4456 N   0  0  0  0  0  0  0  0  0  0  0  0
   10.0874  -17.6839   27.0770 C   0  0  0  0  0  0  0  0  0  0  0  0
   11.0728  -18.2803   26.5312 O   0  0  0  0  0  0  0  0  0  0  0  0
   10.4111  -17.1376   28.3377 O   0  0  0  0  0  0  0  0  0  0  0  0
  2  1  1  1
  3  2  1  0
  4  2  1  0
  5  4  1  0
  5  6  1  6
  7  5  1  0
  8  7  2  0
 10  9  1  6
 10 12  1  0
 11 10  1  0
 12 13  1  6
 13  7  1  0
 14 12  1  0
 14 15  2  0
 16 17  1  0
 17 18  2  0
 17 19  1  0
 19 20  1  0
 20 21  1  0
 21 22  1  0
 23 24  1  0
 23 22  1  6
 24 14  1  0
 25 23  1  0
 26 25  2  0
 27 25  1  0
M  END
$$$$
