EWM.pdb
     RDKit          3D

 32 33  0  0  1  0  0  0  0  0999 V2000
   10.2302  -18.8878   19.4412 N   0  0  0  0  0  0  0  0  0  0  0  0
   11.2760  -17.9574   19.7910 C   0  0  1  0  0  0  0  0  0  0  0  0
   11.6294  -17.1147   18.6054 C   0  0  0  0  0  0  0  0  0  0  0  0
   12.4409  -17.8727   17.6035 C   0  0  0  0  0  0  0  0  0  0  0  0
   12.9021  -16.9528   16.5320 C   0  0  0  0  0  0  0  0  0  0  0  0
   13.6676  -17.3800   15.6265 O   0  0  0  0  0  0  0  0  0  0  0  0
   10.7765  -17.1386   20.9357 C   0  0  0  0  0  0  0  0  0  0  0  0
   11.4472  -16.1808   21.4218 O   0  0  0  0  0  0  0  0  0  0  0  0
   12.4912  -15.6462   16.5373 O   0  0  0  0  0  0  0  0  0  0  0  0
    9.5046  -17.3895   21.5532 N   0  0  0  0  0  0  0  0  0  0  0  0
    9.0357  -16.6008   22.6789 C   0  0  1  0  0  0  0  0  0  0  0  0
    7.5621  -16.7806   22.7975 C   0  0  0  0  0  0  0  0  0  0  0  0
    6.9609  -16.0072   23.9138 C   0  0  0  0  0  0  0  0  0  0  0  0
    6.2573  -16.4719   25.0095 C   0  0  0  0  0  0  0  0  0  0  0  0
    5.8930  -15.4249   25.7786 N   0  0  0  0  0  0  0  0  0  0  0  0
    6.3283  -14.2797   25.2351 C   0  0  0  0  0  0  0  0  0  0  0  0
    6.2059  -12.9692   25.6442 C   0  0  0  0  0  0  0  0  0  0  0  0
    6.7770  -11.9995   24.8481 C   0  0  0  0  0  0  0  0  0  0  0  0
    7.4526  -12.3419   23.6721 C   0  0  0  0  0  0  0  0  0  0  0  0
    7.5565  -13.6589   23.2929 C   0  0  0  0  0  0  0  0  0  0  0  0
    6.9926  -14.6295   24.0770 C   0  0  0  0  0  0  0  0  0  0  0  0
    9.6826  -17.0832   23.9315 C   0  0  0  0  0  0  0  0  0  0  0  0
   10.0675  -18.2648   24.0043 O   0  0  0  0  0  0  0  0  0  0  0  0
   10.3169  -12.5987   28.6308 C   0  0  0  0  0  0  0  0  0  0  0  0
   11.3604  -13.9089   29.3263 S   0  0  0  0  0  0  0  0  0  0  0  0
   11.1535  -15.4368   28.4416 C   0  0  0  0  0  0  0  0  0  0  0  0
   10.6922  -15.3642   27.0431 C   0  0  0  0  0  0  0  0  0  0  0  0
   10.6195  -16.6013   26.2321 C   0  0  2  0  0  0  0  0  0  0  0  0
    9.8513  -16.2042   25.0137 N   0  0  0  0  0  0  0  0  0  0  0  0
    9.8484  -17.7216   26.7963 C   0  0  0  0  0  0  0  0  0  0  0  0
    8.6048  -17.8048   26.6970 O   0  0  0  0  0  0  0  0  0  0  0  0
   10.4425  -18.7946   27.4950 O   0  0  0  0  0  0  0  0  0  0  0  0
  2  1  1  6
  3  2  1  0
  3  4  1  0
  4  5  1  0
  5  9  1  0
  6  5  2  0
  7  2  1  0
  8  7  2  0
 10  7  1  0
 11 10  1  0
 11 12  1  1
 12 13  1  0
 13 21  1  0
 13 14  2  0
 14 15  1  0
 16 17  2  0
 16 15  1  0
 18 17  1  0
 19 18  2  0
 20 19  1  0
 20 21  2  0
 21 16  1  0
 22 23  2  0
 22 11  1  0
 25 26  1  0
 25 24  1  0
 26 27  1  0
 28 27  1  1
 28 29  1  0
 29 22  1  0
 30 32  1  0
 30 28  1  0
 31 30  2  0
M  END
$$$$
