EWM.pdb
     RDKit          3D

 32 33  0  0  1  0  0  0  0  0999 V2000
   10.1277  -17.5681   18.6417 N   0  0  0  0  0  0  0  0  0  0  0  0
   11.2156  -17.5159   19.5880 C   0  0  1  0  0  0  0  0  0  0  0  0
   12.4161  -16.8858   18.9537 C   0  0  0  0  0  0  0  0  0  0  0  0
   12.8854  -17.6550   17.7599 C   0  0  0  0  0  0  0  0  0  0  0  0
   14.0944  -17.0074   17.1890 C   0  0  0  0  0  0  0  0  0  0  0  0
   14.8874  -16.3847   17.9452 O   0  0  0  0  0  0  0  0  0  0  0  0
   10.7352  -16.7457   20.7739 C   0  0  0  0  0  0  0  0  0  0  0  0
   11.3056  -15.6844   21.1637 O   0  0  0  0  0  0  0  0  0  0  0  0
   14.3372  -17.0921   15.8436 O   0  0  0  0  0  0  0  0  0  0  0  0
    9.5969  -17.1637   21.5428 N   0  0  0  0  0  0  0  0  0  0  0  0
    9.1162  -16.3902   22.6740 C   0  0  1  0  0  0  0  0  0  0  0  0
    7.6429  -16.5793   22.7808 C   0  0  0  0  0  0  0  0  0  0  0  0
    7.0421  -15.8874   23.9496 C   0  0  0  0  0  0  0  0  0  0  0  0
    6.3132  -16.4252   24.9943 C   0  0  0  0  0  0  0  0  0  0  0  0
    5.9600  -15.4373   25.8426 N   0  0  0  0  0  0  0  0  0  0  0  0
    6.4267  -14.2611   25.4011 C   0  0  0  0  0  0  0  0  0  0  0  0
    6.3260  -12.9863   25.9156 C   0  0  0  0  0  0  0  0  0  0  0  0
    6.9285  -11.9671   25.2095 C   0  0  0  0  0  0  0  0  0  0  0  0
    7.6136  -12.2264   24.0179 C   0  0  0  0  0  0  0  0  0  0  0  0
    7.6954  -13.5096   23.5324 C   0  0  0  0  0  0  0  0  0  0  0  0
    7.1001  -14.5288   24.2265 C   0  0  0  0  0  0  0  0  0  0  0  0
    9.7575  -16.8829   23.9255 C   0  0  0  0  0  0  0  0  0  0  0  0
   10.1743  -18.0547   23.9779 O   0  0  0  0  0  0  0  0  0  0  0  0
    9.9111  -12.7061   28.8996 C   0  0  0  0  0  0  0  0  0  0  0  0
   10.5218  -14.1827   29.7574 S   0  0  0  0  0  0  0  0  0  0  0  0
   10.8871  -15.4907   28.6104 C   0  0  0  0  0  0  0  0  0  0  0  0
   10.3304  -15.3866   27.2491 C   0  0  0  0  0  0  0  0  0  0  0  0
   10.6657  -16.4187   26.2412 C   0  0  2  0  0  0  0  0  0  0  0  0
    9.8852  -16.0245   25.0296 N   0  0  0  0  0  0  0  0  0  0  0  0
   10.2222  -17.7937   26.5251 C   0  0  0  0  0  0  0  0  0  0  0  0
   10.9431  -18.6292   27.1130 O   0  0  0  0  0  0  0  0  0  0  0  0
    8.9507  -18.2866   26.1607 O   0  0  0  0  0  0  0  0  0  0  0  0
  2  1  1  6
  3  2  1  0
  3  4  1  0
  4  5  1  0
  5  9  1  0
  6  5  2  0
  7  2  1  0
  8  7  2  0
 10  7  1  0
 11 10  1  0
 11 12  1  1
 12 13  1  0
 13 21  1  0
 13 14  2  0
 14 15  1  0
 16 17  2  0
 16 15  1  0
 18 17  1  0
 19 18  2  0
 20 19  1  0
 20 21  2  0
 21 16  1  0
 22 23  2  0
 22 11  1  0
 25 26  1  0
 25 24  1  0
 26 27  1  0
 28 27  1  1
 28 29  1  0
 29 22  1  0
 30 32  1  0
 30 28  1  0
 31 30  2  0
M  END
$$$$
