EWM.pdb
     RDKit          3D

 32 33  0  0  1  0  0  0  0  0999 V2000
    9.4079  -18.0533   19.0349 N   0  0  0  0  0  0  0  0  0  0  0  0
   10.3413  -16.9652   19.1977 C   0  0  1  0  0  0  0  0  0  0  0  0
   10.2026  -15.9977   18.0640 C   0  0  0  0  0  0  0  0  0  0  0  0
   11.0804  -16.3612   16.9089 C   0  0  0  0  0  0  0  0  0  0  0  0
   10.4686  -17.4795   16.1460 C   0  0  0  0  0  0  0  0  0  0  0  0
    9.4280  -17.2771   15.4645 O   0  0  0  0  0  0  0  0  0  0  0  0
   10.0560  -16.3300   20.5188 C   0  0  0  0  0  0  0  0  0  0  0  0
   10.7554  -15.3770   20.9729 O   0  0  0  0  0  0  0  0  0  0  0  0
   11.0413  -18.7230   16.1900 O   0  0  0  0  0  0  0  0  0  0  0  0
    8.9705  -16.7631   21.3530 N   0  0  0  0  0  0  0  0  0  0  0  0
    8.8595  -16.3419   22.7384 C   0  0  1  0  0  0  0  0  0  0  0  0
    7.4664  -16.5986   23.1978 C   0  0  0  0  0  0  0  0  0  0  0  0
    7.0578  -15.7505   24.3464 C   0  0  0  0  0  0  0  0  0  0  0  0
    6.5185  -16.1364   25.5597 C   0  0  0  0  0  0  0  0  0  0  0  0
    6.2972  -15.0403   26.3147 N   0  0  0  0  0  0  0  0  0  0  0  0
    6.6692  -13.9383   25.6487 C   0  0  0  0  0  0  0  0  0  0  0  0
    6.6381  -12.6052   25.9973 C   0  0  0  0  0  0  0  0  0  0  0  0
    7.1024  -11.6957   25.0712 C   0  0  0  0  0  0  0  0  0  0  0  0
    7.5847  -12.1189   23.8283 C   0  0  0  0  0  0  0  0  0  0  0  0
    7.6020  -13.4564   23.5123 C   0  0  0  0  0  0  0  0  0  0  0  0
    7.1429  -14.3676   24.4254 C   0  0  0  0  0  0  0  0  0  0  0  0
    9.7985  -17.1365   23.5793 C   0  0  0  0  0  0  0  0  0  0  0  0
    9.5081  -18.3096   23.8776 O   0  0  0  0  0  0  0  0  0  0  0  0
   10.5570  -12.5395   28.4228 C   0  0  0  0  0  0  0  0  0  0  0  0
    9.5377  -14.0264   28.2243 S   0  0  0  0  0  0  0  0  0  0  0  0
   10.4838  -15.3722   27.5506 C   0  0  0  0  0  0  0  0  0  0  0  0
   10.4842  -15.5470   26.0866 C   0  0  0  0  0  0  0  0  0  0  0  0
   11.3759  -16.5566   25.4711 C   0  0  2  0  0  0  0  0  0  0  0  0
   10.9974  -16.5570   24.0256 N   0  0  0  0  0  0  0  0  0  0  0  0
   11.1887  -17.9546   25.8940 C   0  0  0  0  0  0  0  0  0  0  0  0
   12.1245  -18.6612   26.3280 O   0  0  0  0  0  0  0  0  0  0  0  0
    9.9426  -18.6161   25.8472 O   0  0  0  0  0  0  0  0  0  0  0  0
  2  1  1  6
  3  2  1  0
  3  4  1  0
  4  5  1  0
  5  9  1  0
  6  5  2  0
  7  2  1  0
  8  7  2  0
 10  7  1  0
 11 10  1  0
 11 12  1  1
 12 13  1  0
 13 21  1  0
 13 14  2  0
 14 15  1  0
 16 17  2  0
 16 15  1  0
 18 17  1  0
 19 18  2  0
 20 19  1  0
 20 21  2  0
 21 16  1  0
 22 23  2  0
 22 11  1  0
 25 26  1  0
 25 24  1  0
 26 27  1  0
 28 27  1  1
 28 29  1  0
 29 22  1  0
 30 32  1  0
 30 28  1  0
 31 30  2  0
M  END
$$$$
