EWM.pdb
     RDKit          3D

 32 33  0  0  1  0  0  0  0  0999 V2000
   10.3691  -17.9857   19.0150 N   0  0  0  0  0  0  0  0  0  0  0  0
   11.4166  -18.0638   20.0040 C   0  0  1  0  0  0  0  0  0  0  0  0
   12.7217  -17.6458   19.4018 C   0  0  0  0  0  0  0  0  0  0  0  0
   12.7783  -17.9351   17.9355 C   0  0  0  0  0  0  0  0  0  0  0  0
   14.1459  -17.6633   17.4227 C   0  0  0  0  0  0  0  0  0  0  0  0
   14.8058  -18.5885   16.8779 O   0  0  0  0  0  0  0  0  0  0  0  0
   11.0158  -17.1872   21.1447 C   0  0  0  0  0  0  0  0  0  0  0  0
   11.6969  -16.1767   21.4891 O   0  0  0  0  0  0  0  0  0  0  0  0
   14.6789  -16.4076   17.5468 O   0  0  0  0  0  0  0  0  0  0  0  0
    9.8331  -17.4388   21.9190 N   0  0  0  0  0  0  0  0  0  0  0  0
    9.4842  -16.6182   23.0653 C   0  0  1  0  0  0  0  0  0  0  0  0
    8.0164  -16.7269   23.2921 C   0  0  0  0  0  0  0  0  0  0  0  0
    7.3431  -15.4116   23.4414 C   0  0  0  0  0  0  0  0  0  0  0  0
    6.5351  -14.7445   22.5391 C   0  0  0  0  0  0  0  0  0  0  0  0
    6.1321  -13.5778   23.0840 N   0  0  0  0  0  0  0  0  0  0  0  0
    6.6421  -13.4434   24.3161 C   0  0  0  0  0  0  0  0  0  0  0  0
    6.5175  -12.4397   25.2525 C   0  0  0  0  0  0  0  0  0  0  0  0
    7.1800  -12.6030   26.4504 C   0  0  0  0  0  0  0  0  0  0  0  0
    7.9466  -13.7467   26.6968 C   0  0  0  0  0  0  0  0  0  0  0  0
    8.0499  -14.7292   25.7413 C   0  0  0  0  0  0  0  0  0  0  0  0
    7.3956  -14.5762   24.5482 C   0  0  0  0  0  0  0  0  0  0  0  0
   10.1972  -17.1186   24.2742 C   0  0  0  0  0  0  0  0  0  0  0  0
   10.2565  -18.3440   24.4849 O   0  0  0  0  0  0  0  0  0  0  0  0
    9.9725  -13.0475   29.0467 C   0  0  0  0  0  0  0  0  0  0  0  0
   10.9383  -14.3182   29.9079 S   0  0  0  0  0  0  0  0  0  0  0  0
   11.2740  -15.7038   28.8461 C   0  0  0  0  0  0  0  0  0  0  0  0
   11.0475  -15.5320   27.3994 C   0  0  0  0  0  0  0  0  0  0  0  0
   11.3557  -16.6461   26.4736 C   0  0  2  0  0  0  0  0  0  0  0  0
   10.7932  -16.2071   25.1609 N   0  0  0  0  0  0  0  0  0  0  0  0
   10.6921  -17.9335   26.7388 C   0  0  0  0  0  0  0  0  0  0  0  0
   11.3257  -18.9891   26.9565 O   0  0  0  0  0  0  0  0  0  0  0  0
    9.2894  -18.0879   26.7706 O   0  0  0  0  0  0  0  0  0  0  0  0
  2  1  1  6
  3  2  1  0
  3  4  1  0
  4  5  1  0
  5  9  1  0
  6  5  2  0
  7  2  1  0
  8  7  2  0
 10  7  1  0
 11 10  1  0
 11 12  1  1
 12 13  1  0
 13 21  1  0
 13 14  2  0
 14 15  1  0
 16 17  2  0
 16 15  1  0
 18 17  1  0
 19 18  2  0
 20 19  1  0
 20 21  2  0
 21 16  1  0
 22 23  2  0
 22 11  1  0
 25 26  1  0
 25 24  1  0
 26 27  1  0
 28 27  1  1
 28 29  1  0
 29 22  1  0
 30 32  1  0
 30 28  1  0
 31 30  2  0
M  END
$$$$
