EWM.pdb
     RDKit          3D

 32 33  0  0  1  0  0  0  0  0999 V2000
   10.4269  -18.6014   20.5809 N   0  0  0  0  0  0  0  0  0  0  0  0
   11.5803  -17.8812   21.0631 C   0  0  1  0  0  0  0  0  0  0  0  0
   12.0484  -16.9099   20.0248 C   0  0  0  0  0  0  0  0  0  0  0  0
   12.2193  -17.5599   18.6886 C   0  0  0  0  0  0  0  0  0  0  0  0
   12.7144  -16.5627   17.7050 C   0  0  0  0  0  0  0  0  0  0  0  0
   12.0412  -16.3185   16.6679 O   0  0  0  0  0  0  0  0  0  0  0  0
   11.1805  -17.2014   22.3313 C   0  0  0  0  0  0  0  0  0  0  0  0
   11.9184  -16.3408   22.8956 O   0  0  0  0  0  0  0  0  0  0  0  0
   13.9002  -15.9162   17.9337 O   0  0  0  0  0  0  0  0  0  0  0  0
    9.9342  -17.4839   22.9861 N   0  0  0  0  0  0  0  0  0  0  0  0
    9.5859  -16.8732   24.2568 C   0  0  1  0  0  0  0  0  0  0  0  0
    8.1023  -16.7755   24.3405 C   0  0  0  0  0  0  0  0  0  0  0  0
    7.5686  -15.4735   23.8656 C   0  0  0  0  0  0  0  0  0  0  0  0
    7.2520  -15.0850   22.5769 C   0  0  0  0  0  0  0  0  0  0  0  0
    6.7957  -13.8155   22.5964 N   0  0  0  0  0  0  0  0  0  0  0  0
    6.7968  -13.3440   23.8510 C   0  0  0  0  0  0  0  0  0  0  0  0
    6.4254  -12.1217   24.3686 C   0  0  0  0  0  0  0  0  0  0  0  0
    6.5476  -11.9452   25.7303 C   0  0  0  0  0  0  0  0  0  0  0  0
    7.0308  -12.9727   26.5472 C   0  0  0  0  0  0  0  0  0  0  0  0
    7.3924  -14.1799   25.9988 C   0  0  0  0  0  0  0  0  0  0  0  0
    7.2748  -14.3651   24.6472 C   0  0  0  0  0  0  0  0  0  0  0  0
   10.0765  -17.7286   25.3739 C   0  0  0  0  0  0  0  0  0  0  0  0
   10.3887  -18.9118   25.1456 O   0  0  0  0  0  0  0  0  0  0  0  0
    9.2787  -14.1019   29.9171 C   0  0  0  0  0  0  0  0  0  0  0  0
   10.3185  -14.2421   28.4379 S   0  0  0  0  0  0  0  0  0  0  0  0
   11.5091  -15.5512   28.6076 C   0  0  0  0  0  0  0  0  0  0  0  0
   11.0022  -16.9135   28.8546 C   0  0  0  0  0  0  0  0  0  0  0  0
   10.9552  -17.8892   27.7414 C   0  0  2  0  0  0  0  0  0  0  0  0
   10.1818  -17.1942   26.6684 N   0  0  0  0  0  0  0  0  0  0  0  0
   10.2049  -19.1336   27.9795 C   0  0  0  0  0  0  0  0  0  0  0  0
    9.0413  -19.3131   27.5586 O   0  0  0  0  0  0  0  0  0  0  0  0
   10.7310  -20.2276   28.6998 O   0  0  0  0  0  0  0  0  0  0  0  0
  2  1  1  6
  3  2  1  0
  3  4  1  0
  4  5  1  0
  5  9  1  0
  6  5  2  0
  7  2  1  0
  8  7  2  0
 10  7  1  0
 11 10  1  0
 11 12  1  1
 12 13  1  0
 13 21  1  0
 13 14  2  0
 14 15  1  0
 16 17  2  0
 16 15  1  0
 18 17  1  0
 19 18  2  0
 20 19  1  0
 20 21  2  0
 21 16  1  0
 22 23  2  0
 22 11  1  0
 25 26  1  0
 25 24  1  0
 26 27  1  0
 28 27  1  1
 28 29  1  0
 29 22  1  0
 30 32  1  0
 30 28  1  0
 31 30  2  0
M  END
$$$$
