EWM.pdb
     RDKit          3D

 32 33  0  0  1  0  0  0  0  0999 V2000
    9.5648  -18.4694   19.9981 N   0  0  0  0  0  0  0  0  0  0  0  0
   10.2365  -17.1945   19.9281 C   0  0  1  0  0  0  0  0  0  0  0  0
    9.6640  -16.3744   18.8144 C   0  0  0  0  0  0  0  0  0  0  0  0
    9.8249  -17.0451   17.4872 C   0  0  0  0  0  0  0  0  0  0  0  0
    9.3601  -16.1377   16.4067 C   0  0  0  0  0  0  0  0  0  0  0  0
    8.1390  -15.8373   16.3232 O   0  0  0  0  0  0  0  0  0  0  0  0
   10.0723  -16.5331   21.2570 C   0  0  0  0  0  0  0  0  0  0  0  0
   10.4957  -15.3612   21.4829 O   0  0  0  0  0  0  0  0  0  0  0  0
   10.2639  -15.6345   15.5088 O   0  0  0  0  0  0  0  0  0  0  0  0
    9.4238  -17.1878   22.3581 N   0  0  0  0  0  0  0  0  0  0  0  0
    9.2761  -16.5401   23.6495 C   0  0  1  0  0  0  0  0  0  0  0  0
    8.0059  -17.0102   24.2687 C   0  0  0  0  0  0  0  0  0  0  0  0
    6.9375  -15.9787   24.2801 C   0  0  0  0  0  0  0  0  0  0  0  0
    5.6624  -16.0461   23.7496 C   0  0  0  0  0  0  0  0  0  0  0  0
    5.0218  -14.8826   23.9870 N   0  0  0  0  0  0  0  0  0  0  0  0
    5.8236  -14.0426   24.6561 C   0  0  0  0  0  0  0  0  0  0  0  0
    5.6225  -12.7593   25.1173 C   0  0  0  0  0  0  0  0  0  0  0  0
    6.6661  -12.1531   25.7834 C   0  0  0  0  0  0  0  0  0  0  0  0
    7.8787  -12.8224   25.9790 C   0  0  0  0  0  0  0  0  0  0  0  0
    8.0462  -14.1020   25.5063 C   0  0  0  0  0  0  0  0  0  0  0  0
    7.0156  -14.7128   24.8433 C   0  0  0  0  0  0  0  0  0  0  0  0
   10.4133  -16.9217   24.5334 C   0  0  0  0  0  0  0  0  0  0  0  0
   11.4001  -17.5011   24.0434 O   0  0  0  0  0  0  0  0  0  0  0  0
   10.8686  -13.2791   29.8377 C   0  0  0  0  0  0  0  0  0  0  0  0
   11.8009  -14.7186   30.4275 S   0  0  0  0  0  0  0  0  0  0  0  0
   12.1745  -15.8354   29.0960 C   0  0  0  0  0  0  0  0  0  0  0  0
   11.2467  -15.8744   27.9507 C   0  0  0  0  0  0  0  0  0  0  0  0
   11.5783  -16.7032   26.7690 C   0  0  2  0  0  0  0  0  0  0  0  0
   10.3617  -16.6252   25.9051 N   0  0  0  0  0  0  0  0  0  0  0  0
   11.7656  -18.1453   27.0001 C   0  0  0  0  0  0  0  0  0  0  0  0
   12.8917  -18.6886   27.0079 O   0  0  0  0  0  0  0  0  0  0  0  0
   10.6957  -19.0363   27.2322 O   0  0  0  0  0  0  0  0  0  0  0  0
  2  1  1  1
  3  2  1  0
  3  4  1  0
  4  5  1  0
  5  9  1  0
  6  5  2  0
  7  2  1  0
  8  7  2  0
 10  7  1  0
 11 10  1  0
 11 12  1  1
 12 13  1  0
 13 21  1  0
 13 14  2  0
 14 15  1  0
 16 17  2  0
 16 15  1  0
 18 17  1  0
 19 18  2  0
 20 19  1  0
 20 21  2  0
 21 16  1  0
 22 23  2  0
 22 11  1  0
 25 26  1  0
 25 24  1  0
 26 27  1  0
 28 27  1  1
 28 29  1  0
 29 22  1  0
 30 32  1  0
 30 28  1  0
 31 30  2  0
M  END
$$$$
