EWM.pdb
     RDKit          3D

 32 33  0  0  1  0  0  0  0  0999 V2000
    8.5209  -18.3217   20.9110 N   0  0  0  0  0  0  0  0  0  0  0  0
    9.5667  -17.3558   20.6771 C   0  0  1  0  0  0  0  0  0  0  0  0
    9.1924  -16.4617   19.5364 C   0  0  0  0  0  0  0  0  0  0  0  0
    8.1464  -17.0787   18.6633 C   0  0  0  0  0  0  0  0  0  0  0  0
    8.1243  -16.3929   17.3456 C   0  0  0  0  0  0  0  0  0  0  0  0
    7.1987  -16.6399   16.5266 O   0  0  0  0  0  0  0  0  0  0  0  0
    9.7612  -16.5962   21.9482 C   0  0  0  0  0  0  0  0  0  0  0  0
   10.3352  -15.4679   21.9773 O   0  0  0  0  0  0  0  0  0  0  0  0
    9.1116  -15.4971   17.0312 O   0  0  0  0  0  0  0  0  0  0  0  0
    9.3081  -17.1013   23.2136 N   0  0  0  0  0  0  0  0  0  0  0  0
    9.8322  -16.5923   24.4687 C   0  0  1  0  0  0  0  0  0  0  0  0
    8.7392  -16.6187   25.4798 C   0  0  0  0  0  0  0  0  0  0  0  0
    7.5712  -15.7799   25.1087 C   0  0  0  0  0  0  0  0  0  0  0  0
    6.2866  -16.1772   24.7864 C   0  0  0  0  0  0  0  0  0  0  0  0
    5.5405  -15.0863   24.5153 N   0  0  0  0  0  0  0  0  0  0  0  0
    6.2810  -13.9768   24.6451 C   0  0  0  0  0  0  0  0  0  0  0  0
    5.9695  -12.6447   24.4766 C   0  0  0  0  0  0  0  0  0  0  0  0
    6.9744  -11.7256   24.6903 C   0  0  0  0  0  0  0  0  0  0  0  0
    8.2577  -12.1383   25.0636 C   0  0  0  0  0  0  0  0  0  0  0  0
    8.5350  -13.4749   25.2233 C   0  0  0  0  0  0  0  0  0  0  0  0
    7.5435  -14.3957   25.0133 C   0  0  0  0  0  0  0  0  0  0  0  0
   10.9440  -17.4664   24.9377 C   0  0  0  0  0  0  0  0  0  0  0  0
   10.8554  -18.6993   24.7906 O   0  0  0  0  0  0  0  0  0  0  0  0
    8.9754  -14.0027   28.9476 C   0  0  0  0  0  0  0  0  0  0  0  0
   10.3842  -14.7033   29.8496 S   0  0  0  0  0  0  0  0  0  0  0  0
   11.0034  -16.1631   29.0462 C   0  0  0  0  0  0  0  0  0  0  0  0
   11.2964  -16.0820   27.6035 C   0  0  0  0  0  0  0  0  0  0  0  0
   12.3111  -16.9839   27.0116 C   0  0  2  0  0  0  0  0  0  0  0  0
   12.0767  -16.8937   25.5387 N   0  0  0  0  0  0  0  0  0  0  0  0
   12.1798  -18.4195   27.3112 C   0  0  0  0  0  0  0  0  0  0  0  0
   11.4706  -19.1909   26.6290 O   0  0  0  0  0  0  0  0  0  0  0  0
   12.8400  -19.0477   28.3891 O   0  0  0  0  0  0  0  0  0  0  0  0
  2  1  1  1
  3  2  1  0
  3  4  1  0
  4  5  1  0
  5  9  1  0
  6  5  2  0
  7  2  1  0
  8  7  2  0
 10  7  1  0
 11 10  1  0
 11 12  1  1
 12 13  1  0
 13 21  1  0
 13 14  2  0
 14 15  1  0
 16 17  2  0
 16 15  1  0
 18 17  1  0
 19 18  2  0
 20 19  1  0
 20 21  2  0
 21 16  1  0
 22 23  2  0
 22 11  1  0
 25 26  1  0
 25 24  1  0
 26 27  1  0
 28 27  1  1
 28 29  1  0
 29 22  1  0
 30 32  1  0
 30 28  1  0
 31 30  2  0
M  END
$$$$
