EWM.pdb
     RDKit          3D

 32 33  0  0  1  0  0  0  0  0999 V2000
   10.9737  -16.7040   18.5857 N   0  0  0  0  0  0  0  0  0  0  0  0
   11.2776  -17.5076   19.7448 C   0  0  1  0  0  0  0  0  0  0  0  0
   12.7445  -17.8015   19.7939 C   0  0  0  0  0  0  0  0  0  0  0  0
   13.4181  -17.5015   18.4927 C   0  0  0  0  0  0  0  0  0  0  0  0
   14.7207  -18.2126   18.4261 C   0  0  0  0  0  0  0  0  0  0  0  0
   15.0854  -18.9426   19.3865 O   0  0  0  0  0  0  0  0  0  0  0  0
   10.8144  -16.7484   20.9446 C   0  0  0  0  0  0  0  0  0  0  0  0
   11.5069  -15.8252   21.4659 O   0  0  0  0  0  0  0  0  0  0  0  0
   15.5158  -18.0684   17.3201 O   0  0  0  0  0  0  0  0  0  0  0  0
    9.5552  -17.0209   21.5784 N   0  0  0  0  0  0  0  0  0  0  0  0
    9.1447  -16.3276   22.7866 C   0  0  1  0  0  0  0  0  0  0  0  0
    7.6595  -16.3835   22.8793 C   0  0  0  0  0  0  0  0  0  0  0  0
    7.1154  -15.6827   24.0704 C   0  0  0  0  0  0  0  0  0  0  0  0
    6.4509  -16.2145   25.1600 C   0  0  0  0  0  0  0  0  0  0  0  0
    6.1331  -15.2193   26.0139 N   0  0  0  0  0  0  0  0  0  0  0  0
    6.5617  -14.0441   25.5328 C   0  0  0  0  0  0  0  0  0  0  0  0
    6.4746  -12.7638   26.0359 C   0  0  0  0  0  0  0  0  0  0  0  0
    7.0260  -11.7476   25.2851 C   0  0  0  0  0  0  0  0  0  0  0  0
    7.6479  -12.0152   24.0612 C   0  0  0  0  0  0  0  0  0  0  0  0
    7.7178  -13.3038   23.5881 C   0  0  0  0  0  0  0  0  0  0  0  0
    7.1730  -14.3201   24.3265 C   0  0  0  0  0  0  0  0  0  0  0  0
    9.7280  -17.0087   23.9766 C   0  0  0  0  0  0  0  0  0  0  0  0
    9.8042  -18.2511   23.9931 O   0  0  0  0  0  0  0  0  0  0  0  0
   10.6827  -12.1439   28.3252 C   0  0  0  0  0  0  0  0  0  0  0  0
   11.2413  -13.7500   28.9556 S   0  0  0  0  0  0  0  0  0  0  0  0
   10.5550  -15.0891   28.0090 C   0  0  0  0  0  0  0  0  0  0  0  0
   11.4173  -15.7295   26.9990 C   0  0  0  0  0  0  0  0  0  0  0  0
   10.8993  -16.8746   26.2156 C   0  0  2  0  0  0  0  0  0  0  0  0
   10.1844  -16.2460   25.0640 N   0  0  0  0  0  0  0  0  0  0  0  0
    9.8762  -17.7135   26.8618 C   0  0  0  0  0  0  0  0  0  0  0  0
    8.6500  -17.5286   26.7018 O   0  0  0  0  0  0  0  0  0  0  0  0
   10.1884  -18.7946   27.7139 O   0  0  0  0  0  0  0  0  0  0  0  0
  2  1  1  6
  3  2  1  0
  3  4  1  0
  4  5  1  0
  5  9  1  0
  6  5  2  0
  7  2  1  0
  8  7  2  0
 10  7  1  0
 11 10  1  0
 11 12  1  1
 12 13  1  0
 13 21  1  0
 13 14  2  0
 14 15  1  0
 16 17  2  0
 16 15  1  0
 18 17  1  0
 19 18  2  0
 20 19  1  0
 20 21  2  0
 21 16  1  0
 22 23  2  0
 22 11  1  0
 25 26  1  0
 25 24  1  0
 26 27  1  0
 28 27  1  1
 28 29  1  0
 29 22  1  0
 30 32  1  0
 30 28  1  0
 31 30  2  0
M  END
$$$$
