EWM.pdb
     RDKit          3D

 32 33  0  0  1  0  0  0  0  0999 V2000
   11.0256  -18.8426   20.0337 N   0  0  0  0  0  0  0  0  0  0  0  0
   11.7513  -17.5957   20.0459 C   0  0  1  0  0  0  0  0  0  0  0  0
   11.4848  -16.8357   18.7842 C   0  0  0  0  0  0  0  0  0  0  0  0
   10.8473  -17.6947   17.7389 C   0  0  0  0  0  0  0  0  0  0  0  0
   10.6566  -16.9098   16.4920 C   0  0  0  0  0  0  0  0  0  0  0  0
    9.6764  -16.1243   16.3903 O   0  0  0  0  0  0  0  0  0  0  0  0
   11.3176  -16.8420   21.2601 C   0  0  0  0  0  0  0  0  0  0  0  0
   11.9198  -15.8013   21.6575 O   0  0  0  0  0  0  0  0  0  0  0  0
   11.5489  -17.0470   15.4618 O   0  0  0  0  0  0  0  0  0  0  0  0
   10.1909  -17.2536   22.0492 N   0  0  0  0  0  0  0  0  0  0  0  0
    9.8263  -16.5639   23.2742 C   0  0  1  0  0  0  0  0  0  0  0  0
    8.3639  -16.7386   23.4947 C   0  0  0  0  0  0  0  0  0  0  0  0
    7.5863  -15.4857   23.3182 C   0  0  0  0  0  0  0  0  0  0  0  0
    6.8799  -15.0530   22.2111 C   0  0  0  0  0  0  0  0  0  0  0  0
    6.3194  -13.8563   22.4833 N   0  0  0  0  0  0  0  0  0  0  0  0
    6.6267  -13.4759   23.7311 C   0  0  0  0  0  0  0  0  0  0  0  0
    6.2928  -12.3494   24.4518 C   0  0  0  0  0  0  0  0  0  0  0  0
    6.7763  -12.2528   25.7392 C   0  0  0  0  0  0  0  0  0  0  0  0
    7.5741  -13.2641   26.2844 C   0  0  0  0  0  0  0  0  0  0  0  0
    7.8884  -14.3748   25.5385 C   0  0  0  0  0  0  0  0  0  0  0  0
    7.4130  -14.4801   24.2587 C   0  0  0  0  0  0  0  0  0  0  0  0
   10.5620  -17.1628   24.4232 C   0  0  0  0  0  0  0  0  0  0  0  0
   11.0544  -18.3002   24.3073 O   0  0  0  0  0  0  0  0  0  0  0  0
    8.8219  -13.5117   30.1254 C   0  0  0  0  0  0  0  0  0  0  0  0
   10.4553  -14.0169   29.5207 S   0  0  0  0  0  0  0  0  0  0  0  0
   10.3241  -15.3226   28.3215 C   0  0  0  0  0  0  0  0  0  0  0  0
   11.5699  -15.8264   27.7148 C   0  0  0  0  0  0  0  0  0  0  0  0
   11.5128  -16.9563   26.7591 C   0  0  2  0  0  0  0  0  0  0  0  0
   10.6925  -16.4416   25.6212 N   0  0  0  0  0  0  0  0  0  0  0  0
   10.7985  -18.1656   27.2015 C   0  0  0  0  0  0  0  0  0  0  0  0
   11.2898  -18.9841   28.0089 O   0  0  0  0  0  0  0  0  0  0  0  0
    9.5030  -18.5048   26.7554 O   0  0  0  0  0  0  0  0  0  0  0  0
  2  1  1  6
  3  2  1  0
  3  4  1  0
  4  5  1  0
  5  9  1  0
  6  5  2  0
  7  2  1  0
  8  7  2  0
 10  7  1  0
 11 10  1  0
 11 12  1  1
 12 13  1  0
 13 21  1  0
 13 14  2  0
 14 15  1  0
 16 17  2  0
 16 15  1  0
 18 17  1  0
 19 18  2  0
 20 19  1  0
 20 21  2  0
 21 16  1  0
 22 23  2  0
 22 11  1  0
 25 26  1  0
 25 24  1  0
 26 27  1  0
 28 27  1  1
 28 29  1  0
 29 22  1  0
 30 32  1  0
 30 28  1  0
 31 30  2  0
M  END
$$$$
