EWM.pdb
     RDKit          3D

 32 33  0  0  1  0  0  0  0  0999 V2000
    9.7644  -18.5900   19.6344 N   0  0  0  0  0  0  0  0  0  0  0  0
   10.6827  -17.4878   19.7871 C   0  0  1  0  0  0  0  0  0  0  0  0
   10.5966  -16.5811   18.5992 C   0  0  0  0  0  0  0  0  0  0  0  0
   10.9553  -17.2873   17.3305 C   0  0  0  0  0  0  0  0  0  0  0  0
   12.4132  -17.5718   17.3094 C   0  0  0  0  0  0  0  0  0  0  0  0
   13.2371  -16.6320   17.4719 O   0  0  0  0  0  0  0  0  0  0  0  0
   10.3277  -16.7875   21.0575 C   0  0  0  0  0  0  0  0  0  0  0  0
   10.8827  -15.7043   21.4072 O   0  0  0  0  0  0  0  0  0  0  0  0
   12.8504  -18.8550   17.1129 O   0  0  0  0  0  0  0  0  0  0  0  0
    9.3349  -17.3019   21.9583 N   0  0  0  0  0  0  0  0  0  0  0  0
    9.0786  -16.6796   23.2453 C   0  0  1  0  0  0  0  0  0  0  0  0
    7.7676  -17.1712   23.7525 C   0  0  0  0  0  0  0  0  0  0  0  0
    7.0406  -16.1716   24.5758 C   0  0  0  0  0  0  0  0  0  0  0  0
    6.0218  -16.3765   25.4879 C   0  0  0  0  0  0  0  0  0  0  0  0
    5.6513  -15.1897   26.0120 N   0  0  0  0  0  0  0  0  0  0  0  0
    6.3859  -14.2018   25.4823 C   0  0  0  0  0  0  0  0  0  0  0  0
    6.3782  -12.8404   25.6976 C   0  0  0  0  0  0  0  0  0  0  0  0
    7.2771  -12.0791   24.9815 C   0  0  0  0  0  0  0  0  0  0  0  0
    8.1592  -12.6743   24.0737 C   0  0  0  0  0  0  0  0  0  0  0  0
    8.1409  -14.0353   23.8828 C   0  0  0  0  0  0  0  0  0  0  0  0
    7.2517  -14.8001   24.5894 C   0  0  0  0  0  0  0  0  0  0  0  0
   10.1453  -17.0687   24.2101 C   0  0  0  0  0  0  0  0  0  0  0  0
   11.0640  -17.8202   23.8348 O   0  0  0  0  0  0  0  0  0  0  0  0
    9.8518  -11.9404   27.9394 C   0  0  0  0  0  0  0  0  0  0  0  0
    9.4968  -13.7160   28.0409 S   0  0  0  0  0  0  0  0  0  0  0  0
   10.9402  -14.6850   27.6699 C   0  0  0  0  0  0  0  0  0  0  0  0
   10.8162  -16.1530   27.7278 C   0  0  0  0  0  0  0  0  0  0  0  0
   11.1455  -16.9623   26.5320 C   0  0  2  0  0  0  0  0  0  0  0  0
   10.1047  -16.5858   25.5283 N   0  0  0  0  0  0  0  0  0  0  0  0
   11.0118  -18.4230   26.6607 C   0  0  0  0  0  0  0  0  0  0  0  0
    9.9782  -19.0402   26.3230 O   0  0  0  0  0  0  0  0  0  0  0  0
   12.0339  -19.2505   27.1736 O   0  0  0  0  0  0  0  0  0  0  0  0
  2  1  1  6
  3  2  1  0
  3  4  1  0
  4  5  1  0
  5  9  1  0
  6  5  2  0
  7  2  1  0
  8  7  2  0
 10  7  1  0
 11 10  1  0
 11 12  1  1
 12 13  1  0
 13 21  1  0
 13 14  2  0
 14 15  1  0
 16 17  2  0
 16 15  1  0
 18 17  1  0
 19 18  2  0
 20 19  1  0
 20 21  2  0
 21 16  1  0
 22 23  2  0
 22 11  1  0
 25 26  1  0
 25 24  1  0
 26 27  1  0
 28 27  1  1
 28 29  1  0
 29 22  1  0
 30 32  1  0
 30 28  1  0
 31 30  2  0
M  END
$$$$
