EWM.pdb
     RDKit          3D

 32 33  0  0  1  0  0  0  0  0999 V2000
   11.2591  -18.9793   19.7631 N   0  0  0  0  0  0  0  0  0  0  0  0
   12.3309  -18.2988   20.4485 C   0  0  1  0  0  0  0  0  0  0  0  0
   13.1871  -17.5680   19.4620 C   0  0  0  0  0  0  0  0  0  0  0  0
   12.7088  -17.7592   18.0578 C   0  0  0  0  0  0  0  0  0  0  0  0
   13.6251  -17.0653   17.1166 C   0  0  0  0  0  0  0  0  0  0  0  0
   13.4085  -17.1209   15.8763 O   0  0  0  0  0  0  0  0  0  0  0  0
   11.7062  -17.3774   21.4440 C   0  0  0  0  0  0  0  0  0  0  0  0
   12.2588  -16.2947   21.7989 O   0  0  0  0  0  0  0  0  0  0  0  0
   14.6995  -16.3703   17.6053 O   0  0  0  0  0  0  0  0  0  0  0  0
   10.4405  -17.6652   22.0580 N   0  0  0  0  0  0  0  0  0  0  0  0
    9.8250  -16.7477   23.0006 C   0  0  1  0  0  0  0  0  0  0  0  0
    8.3469  -16.9076   22.9154 C   0  0  0  0  0  0  0  0  0  0  0  0
    7.7494  -16.2493   21.7257 C   0  0  0  0  0  0  0  0  0  0  0  0
    6.9154  -16.7893   20.7642 C   0  0  0  0  0  0  0  0  0  0  0  0
    6.6069  -15.8367   19.8599 N   0  0  0  0  0  0  0  0  0  0  0  0
    7.2050  -14.6819   20.1838 C   0  0  0  0  0  0  0  0  0  0  0  0
    7.1927  -13.4443   19.5771 C   0  0  0  0  0  0  0  0  0  0  0  0
    7.9261  -12.4390   20.1703 C   0  0  0  0  0  0  0  0  0  0  0  0
    8.6516  -12.6753   21.3426 C   0  0  0  0  0  0  0  0  0  0  0  0
    8.6424  -13.9214   21.9222 C   0  0  0  0  0  0  0  0  0  0  0  0
    7.9170  -14.9266   21.3406 C   0  0  0  0  0  0  0  0  0  0  0  0
   10.2670  -17.0809   24.3840 C   0  0  0  0  0  0  0  0  0  0  0  0
   10.9114  -18.1270   24.5842 O   0  0  0  0  0  0  0  0  0  0  0  0
    9.5527  -12.2532   28.6477 C   0  0  0  0  0  0  0  0  0  0  0  0
    9.9545  -13.5781   29.8191 S   0  0  0  0  0  0  0  0  0  0  0  0
   10.4838  -15.0492   28.9729 C   0  0  0  0  0  0  0  0  0  0  0  0
   10.1858  -15.1589   27.5331 C   0  0  0  0  0  0  0  0  0  0  0  0
   10.5489  -16.3954   26.8034 C   0  0  2  0  0  0  0  0  0  0  0  0
    9.9539  -16.2154   25.4447 N   0  0  0  0  0  0  0  0  0  0  0  0
    9.9595  -17.6530   27.2923 C   0  0  0  0  0  0  0  0  0  0  0  0
   10.5156  -18.3721   28.1508 O   0  0  0  0  0  0  0  0  0  0  0  0
    8.7210  -18.1544   26.8372 O   0  0  0  0  0  0  0  0  0  0  0  0
  2  1  1  6
  3  2  1  0
  3  4  1  0
  4  5  1  0
  5  9  1  0
  6  5  2  0
  7  2  1  0
  8  7  2  0
 10  7  1  0
 11 10  1  0
 11 12  1  1
 12 13  1  0
 13 21  1  0
 13 14  2  0
 14 15  1  0
 16 17  2  0
 16 15  1  0
 18 17  1  0
 19 18  2  0
 20 19  1  0
 20 21  2  0
 21 16  1  0
 22 23  2  0
 22 11  1  0
 25 26  1  0
 25 24  1  0
 26 27  1  0
 28 27  1  1
 28 29  1  0
 29 22  1  0
 30 32  1  0
 30 28  1  0
 31 30  2  0
M  END
$$$$
