EWM.pdb
     RDKit          3D

 32 33  0  0  1  0  0  0  0  0999 V2000
   10.0770  -19.5028   19.8469 N   0  0  0  0  0  0  0  0  0  0  0  0
   11.3273  -19.0198   20.3807 C   0  0  1  0  0  0  0  0  0  0  0  0
   12.3025  -18.7863   19.2694 C   0  0  0  0  0  0  0  0  0  0  0  0
   11.8343  -19.3838   17.9807 C   0  0  0  0  0  0  0  0  0  0  0  0
   12.1383  -18.4587   16.8588 C   0  0  0  0  0  0  0  0  0  0  0  0
   12.6818  -17.3462   17.0942 O   0  0  0  0  0  0  0  0  0  0  0  0
   11.0311  -17.7700   21.1425 C   0  0  0  0  0  0  0  0  0  0  0  0
   11.8795  -16.8376   21.2629 O   0  0  0  0  0  0  0  0  0  0  0  0
   11.8248  -18.8230   15.5761 O   0  0  0  0  0  0  0  0  0  0  0  0
    9.7652  -17.5516   21.7841 N   0  0  0  0  0  0  0  0  0  0  0  0
    9.5462  -16.4243   22.6731 C   0  0  1  0  0  0  0  0  0  0  0  0
    8.1528  -15.9362   22.4790 C   0  0  0  0  0  0  0  0  0  0  0  0
    7.9253  -14.5705   23.0166 C   0  0  0  0  0  0  0  0  0  0  0  0
    8.2838  -13.3528   22.4683 C   0  0  0  0  0  0  0  0  0  0  0  0
    7.8808  -12.3614   23.2900 N   0  0  0  0  0  0  0  0  0  0  0  0
    7.2671  -12.8741   24.3655 C   0  0  0  0  0  0  0  0  0  0  0  0
    6.6932  -12.2718   25.4644 C   0  0  0  0  0  0  0  0  0  0  0  0
    6.1314  -13.0937   26.4180 C   0  0  0  0  0  0  0  0  0  0  0  0
    6.1479  -14.4842   26.2673 C   0  0  0  0  0  0  0  0  0  0  0  0
    6.7284  -15.0528   25.1589 C   0  0  0  0  0  0  0  0  0  0  0  0
    7.2891  -14.2449   24.2061 C   0  0  0  0  0  0  0  0  0  0  0  0
    9.7106  -16.8636   24.0874 C   0  0  0  0  0  0  0  0  0  0  0  0
    8.8976  -17.6703   24.5749 O   0  0  0  0  0  0  0  0  0  0  0  0
   11.0681  -14.2925   30.2564 C   0  0  0  0  0  0  0  0  0  0  0  0
    9.7658  -13.8612   29.0702 S   0  0  0  0  0  0  0  0  0  0  0  0
    9.2748  -15.2736   28.1089 C   0  0  0  0  0  0  0  0  0  0  0  0
    9.7544  -15.3583   26.7172 C   0  0  0  0  0  0  0  0  0  0  0  0
   10.7468  -16.3936   26.3476 C   0  0  2  0  0  0  0  0  0  0  0  0
   10.7767  -16.3655   24.8540 N   0  0  0  0  0  0  0  0  0  0  0  0
   10.4062  -17.7880   26.6760 C   0  0  0  0  0  0  0  0  0  0  0  0
    9.6762  -18.4955   25.9482 O   0  0  0  0  0  0  0  0  0  0  0  0
   10.8721  -18.4449   27.8352 O   0  0  0  0  0  0  0  0  0  0  0  0
  2  1  1  6
  3  2  1  0
  3  4  1  0
  4  5  1  0
  5  9  1  0
  6  5  2  0
  7  2  1  0
  8  7  2  0
 10  7  1  0
 11 10  1  0
 11 12  1  1
 12 13  1  0
 13 21  1  0
 13 14  2  0
 14 15  1  0
 16 17  2  0
 16 15  1  0
 18 17  1  0
 19 18  2  0
 20 19  1  0
 20 21  2  0
 21 16  1  0
 22 23  2  0
 22 11  1  0
 25 26  1  0
 25 24  1  0
 26 27  1  0
 28 27  1  6
 28 29  1  0
 29 22  1  0
 30 32  1  0
 30 28  1  0
 31 30  2  0
M  END
$$$$
