EWM.pdb
     RDKit          3D

 32 33  0  0  1  0  0  0  0  0999 V2000
    9.4851  -19.2268   20.7269 N   0  0  0  0  0  0  0  0  0  0  0  0
   10.7219  -18.4941   20.6038 C   0  0  1  0  0  0  0  0  0  0  0  0
   11.1219  -18.4028   19.1643 C   0  0  0  0  0  0  0  0  0  0  0  0
    9.9524  -18.1176   18.2766 C   0  0  0  0  0  0  0  0  0  0  0  0
   10.2558  -18.5566   16.8902 C   0  0  0  0  0  0  0  0  0  0  0  0
   11.3837  -19.0511   16.6226 O   0  0  0  0  0  0  0  0  0  0  0  0
   10.5030  -17.1488   21.2143 C   0  0  0  0  0  0  0  0  0  0  0  0
   11.3324  -16.2024   21.0735 O   0  0  0  0  0  0  0  0  0  0  0  0
    9.3059  -18.4197   15.9129 O   0  0  0  0  0  0  0  0  0  0  0  0
    9.3377  -16.8491   21.9979 N   0  0  0  0  0  0  0  0  0  0  0  0
    9.1106  -15.5250   22.5495 C   0  0  1  0  0  0  0  0  0  0  0  0
    7.6415  -15.2965   22.6343 C   0  0  0  0  0  0  0  0  0  0  0  0
    7.1553  -15.0896   24.0222 C   0  0  0  0  0  0  0  0  0  0  0  0
    6.6583  -16.0219   24.9142 C   0  0  0  0  0  0  0  0  0  0  0  0
    6.3338  -15.4020   26.0678 N   0  0  0  0  0  0  0  0  0  0  0  0
    6.5962  -14.0908   25.9768 C   0  0  0  0  0  0  0  0  0  0  0  0
    6.4372  -13.0618   26.8800 C   0  0  0  0  0  0  0  0  0  0  0  0
    6.8095  -11.7979   26.4746 C   0  0  0  0  0  0  0  0  0  0  0  0
    7.3278  -11.5781   25.1942 C   0  0  0  0  0  0  0  0  0  0  0  0
    7.4736  -12.6266   24.3177 C   0  0  0  0  0  0  0  0  0  0  0  0
    7.1066  -13.8858   24.7110 C   0  0  0  0  0  0  0  0  0  0  0  0
    9.6903  -15.4481   23.9200 C   0  0  0  0  0  0  0  0  0  0  0  0
    9.4923  -14.4317   24.6109 O   0  0  0  0  0  0  0  0  0  0  0  0
   10.1787  -14.6499   30.2331 C   0  0  0  0  0  0  0  0  0  0  0  0
    9.5968  -14.0182   28.6358 S   0  0  0  0  0  0  0  0  0  0  0  0
   10.6555  -14.5455   27.3087 C   0  0  0  0  0  0  0  0  0  0  0  0
   10.3614  -15.8402   26.6677 C   0  0  0  0  0  0  0  0  0  0  0  0
   11.2895  -16.3781   25.6465 C   0  0  2  0  0  0  0  0  0  0  0  0
   10.4514  -16.5184   24.4175 N   0  0  0  0  0  0  0  0  0  0  0  0
   11.8206  -17.7317   25.8783 C   0  0  0  0  0  0  0  0  0  0  0  0
   12.7311  -17.9695   26.7015 O   0  0  0  0  0  0  0  0  0  0  0  0
   11.3504  -18.8739   25.1951 O   0  0  0  0  0  0  0  0  0  0  0  0
  2  1  1  6
  3  2  1  0
  3  4  1  0
  4  5  1  0
  5  9  1  0
  6  5  2  0
  7  2  1  0
  8  7  2  0
 10  7  1  0
 11 10  1  0
 11 12  1  1
 12 13  1  0
 13 21  1  0
 13 14  2  0
 14 15  1  0
 16 17  2  0
 16 15  1  0
 18 17  1  0
 19 18  2  0
 20 19  1  0
 20 21  2  0
 21 16  1  0
 22 23  2  0
 22 11  1  0
 25 26  1  0
 25 24  1  0
 26 27  1  0
 28 27  1  1
 28 29  1  0
 29 22  1  0
 30 32  1  0
 30 28  1  0
 31 30  2  0
M  END
$$$$
