WKM.pdb
     RDKit          3D

 32 33  0  0  1  0  0  0  0  0999 V2000
   24.8464  -19.6095  -16.8595 N   0  0  0  0  0  0  0  0  0  0  0  0
   24.5833  -19.1971  -15.5092 C   0  0  1  0  0  0  0  0  0  0  0  0
   23.5696  -18.0824  -15.4256 C   0  0  0  0  0  0  0  0  0  0  0  0
   23.9502  -16.8661  -16.1385 C   0  0  0  0  0  0  0  0  0  0  0  0
   23.2329  -16.2289  -17.1273 C   0  0  0  0  0  0  0  0  0  0  0  0
   23.9520  -15.1560  -17.4989 N   0  0  0  0  0  0  0  0  0  0  0  0
   25.0960  -15.0959  -16.7789 C   0  0  0  0  0  0  0  0  0  0  0  0
   26.1560  -14.2119  -16.7706 C   0  0  0  0  0  0  0  0  0  0  0  0
   27.2404  -14.3522  -15.9304 C   0  0  0  0  0  0  0  0  0  0  0  0
   27.2439  -15.4299  -15.0702 C   0  0  0  0  0  0  0  0  0  0  0  0
   26.2008  -16.3305  -15.0539 C   0  0  0  0  0  0  0  0  0  0  0  0
   25.1185  -16.1657  -15.9120 C   0  0  0  0  0  0  0  0  0  0  0  0
   24.1002  -20.3014  -14.6639 C   0  0  0  0  0  0  0  0  0  0  0  0
   23.2194  -21.0717  -15.1249 O   0  0  0  0  0  0  0  0  0  0  0  0
   24.5545  -20.5777  -13.3408 N   0  0  0  0  0  0  0  0  0  0  0  0
   24.0621  -21.6707  -12.5534 C   0  0  1  0  0  0  0  0  0  0  0  0
   24.8011  -22.0608  -11.3457 C   0  0  0  0  0  0  0  0  0  0  0  0
   24.8803  -21.0368  -10.2894 C   0  0  0  0  0  0  0  0  0  0  0  0
   25.5779  -21.4685   -9.0427 C   0  0  0  0  0  0  0  0  0  0  0  0
   25.6448  -20.2461   -8.1034 C   0  0  0  0  0  0  0  0  0  0  0  0
   26.3875  -20.6678   -6.9136 N   0  0  0  0  0  0  0  0  0  0  0  0
   22.6319  -21.2664  -12.1979 C   0  0  0  0  0  0  0  0  0  0  0  0
   22.3886  -20.1237  -11.7590 O   0  0  0  0  0  0  0  0  0  0  0  0
   15.2014  -22.2446  -14.1421 C   0  0  0  0  0  0  0  0  0  0  0  0
   16.9591  -22.6472  -14.3926 S   0  0  0  0  0  0  0  0  0  0  0  0
   17.8718  -22.0712  -12.9683 C   0  0  0  0  0  0  0  0  0  0  0  0
   19.3356  -22.2322  -13.0980 C   0  0  0  0  0  0  0  0  0  0  0  0
   20.2136  -21.7284  -12.0022 C   0  0  2  0  0  0  0  0  0  0  0  0
   21.5714  -22.1794  -12.3619 N   0  0  0  0  0  0  0  0  0  0  0  0
   19.8972  -22.1329  -10.6323 C   0  0  0  0  0  0  0  0  0  0  0  0
   20.5079  -23.0325  -10.0067 O   0  0  0  0  0  0  0  0  0  0  0  0
   18.8604  -21.5252   -9.9037 O   0  0  0  0  0  0  0  0  0  0  0  0
  2  1  1  6
  2  3  1  0
  4  5  2  0
  4  3  1  0
  6  5  1  0
  7 12  2  0
  7  6  1  0
  8  7  1  0
  9  8  2  0
  9 10  1  0
 10 11  2  0
 11 12  1  0
 12  4  1  0
 13  2  1  0
 13 14  2  0
 15 13  1  0
 16 15  1  0
 16 17  1  1
 18 17  1  0
 19 18  1  0
 20 19  1  0
 21 20  1  0
 22 29  1  0
 22 16  1  0
 23 22  2  0
 24 25  1  0
 25 26  1  0
 26 27  1  0
 28 29  1  0
 28 27  1  6
 30 32  1  0
 30 28  1  0
 31 30  2  0
M  END
$$$$
