WKM.pdb
     RDKit          3D

 32 33  0  0  1  0  0  0  0  0999 V2000
   27.8676  -21.8611  -12.8425 N   0  0  0  0  0  0  0  0  0  0  0  0
   26.6852  -21.8579  -12.0274 C   0  0  1  0  0  0  0  0  0  0  0  0
   26.6793  -20.7432  -11.0103 C   0  0  0  0  0  0  0  0  0  0  0  0
   27.7998  -20.7746  -10.0743 C   0  0  0  0  0  0  0  0  0  0  0  0
   29.1228  -21.0121  -10.3764 C   0  0  0  0  0  0  0  0  0  0  0  0
   29.8034  -20.9474   -9.2193 N   0  0  0  0  0  0  0  0  0  0  0  0
   28.9552  -20.6775   -8.2002 C   0  0  0  0  0  0  0  0  0  0  0  0
   29.1400  -20.5109   -6.8425 C   0  0  0  0  0  0  0  0  0  0  0  0
   28.1044  -20.2346   -5.9750 C   0  0  0  0  0  0  0  0  0  0  0  0
   26.8381  -20.1246   -6.5098 C   0  0  0  0  0  0  0  0  0  0  0  0
   26.6203  -20.2856   -7.8612 C   0  0  0  0  0  0  0  0  0  0  0  0
   27.6828  -20.5637   -8.7147 C   0  0  0  0  0  0  0  0  0  0  0  0
   25.4506  -21.7417  -12.8211 C   0  0  0  0  0  0  0  0  0  0  0  0
   25.2467  -20.6810  -13.4653 O   0  0  0  0  0  0  0  0  0  0  0  0
   24.4465  -22.7488  -12.9237 N   0  0  0  0  0  0  0  0  0  0  0  0
   23.4222  -22.7375  -13.9276 C   0  0  1  0  0  0  0  0  0  0  0  0
   22.9521  -24.0178  -14.4721 C   0  0  0  0  0  0  0  0  0  0  0  0
   23.5901  -24.4477  -15.7286 C   0  0  0  0  0  0  0  0  0  0  0  0
   25.0470  -24.7544  -15.6241 C   0  0  0  0  0  0  0  0  0  0  0  0
   25.5347  -25.1655  -17.0291 C   0  0  0  0  0  0  0  0  0  0  0  0
   26.9798  -25.3813  -16.9282 N   0  0  0  0  0  0  0  0  0  0  0  0
   22.2667  -21.9751  -13.2802 C   0  0  0  0  0  0  0  0  0  0  0  0
   21.9762  -22.1664  -12.0816 O   0  0  0  0  0  0  0  0  0  0  0  0
   20.5844  -15.7094  -14.2405 C   0  0  0  0  0  0  0  0  0  0  0  0
   19.0754  -16.6539  -14.6216 S   0  0  0  0  0  0  0  0  0  0  0  0
   19.1213  -18.1782  -13.6900 C   0  0  0  0  0  0  0  0  0  0  0  0
   20.2315  -19.0750  -14.0757 C   0  0  0  0  0  0  0  0  0  0  0  0
   20.3883  -20.3736  -13.3584 C   0  0  2  0  0  0  0  0  0  0  0  0
   21.5163  -21.0473  -14.0292 N   0  0  0  0  0  0  0  0  0  0  0  0
   19.2315  -21.2675  -13.3026 C   0  0  0  0  0  0  0  0  0  0  0  0
   18.9722  -22.1358  -14.1701 O   0  0  0  0  0  0  0  0  0  0  0  0
   18.3072  -21.2139  -12.2454 O   0  0  0  0  0  0  0  0  0  0  0  0
  2  1  1  6
  2  3  1  0
  4  5  2  0
  4  3  1  0
  6  5  1  0
  7 12  2  0
  7  6  1  0
  8  7  1  0
  9  8  2  0
  9 10  1  0
 10 11  2  0
 11 12  1  0
 12  4  1  0
 13  2  1  0
 13 14  2  0
 15 13  1  0
 16 15  1  0
 16 17  1  1
 18 17  1  0
 19 18  1  0
 20 19  1  0
 21 20  1  0
 22 29  1  0
 22 16  1  0
 23 22  2  0
 24 25  1  0
 25 26  1  0
 26 27  1  0
 28 29  1  0
 28 27  1  6
 30 32  1  0
 30 28  1  0
 31 30  2  0
M  END
$$$$
