WKM.pdb
     RDKit          3D

 32 33  0  0  1  0  0  0  0  0999 V2000
   22.5480  -18.3474  -18.4820 N   0  0  0  0  0  0  0  0  0  0  0  0
   21.9168  -18.0239  -17.2333 C   0  0  1  0  0  0  0  0  0  0  0  0
   20.5708  -17.3656  -17.4120 C   0  0  0  0  0  0  0  0  0  0  0  0
   20.6136  -16.0852  -18.1131 C   0  0  0  0  0  0  0  0  0  0  0  0
   20.5054  -15.8827  -19.4715 C   0  0  0  0  0  0  0  0  0  0  0  0
   20.5980  -14.5575  -19.6755 N   0  0  0  0  0  0  0  0  0  0  0  0
   20.7605  -13.9195  -18.4933 C   0  0  0  0  0  0  0  0  0  0  0  0
   20.9030  -12.5889  -18.1553 C   0  0  0  0  0  0  0  0  0  0  0  0
   21.0585  -12.1604  -16.8538 C   0  0  0  0  0  0  0  0  0  0  0  0
   21.0692  -13.1207  -15.8644 C   0  0  0  0  0  0  0  0  0  0  0  0
   20.9293  -14.4575  -16.1690 C   0  0  0  0  0  0  0  0  0  0  0  0
   20.7737  -14.8632  -17.4904 C   0  0  0  0  0  0  0  0  0  0  0  0
   21.7238  -19.2036  -16.3740 C   0  0  0  0  0  0  0  0  0  0  0  0
   21.2597  -20.2534  -16.8880 O   0  0  0  0  0  0  0  0  0  0  0  0
   22.0239  -19.2588  -14.9811 N   0  0  0  0  0  0  0  0  0  0  0  0
   21.9317  -20.4612  -14.2047 C   0  0  1  0  0  0  0  0  0  0  0  0
   22.9264  -20.7000  -13.1510 C   0  0  0  0  0  0  0  0  0  0  0  0
   24.2323  -21.2038  -13.6109 C   0  0  0  0  0  0  0  0  0  0  0  0
   25.2971  -21.2438  -12.5659 C   0  0  0  0  0  0  0  0  0  0  0  0
   26.5628  -21.8382  -13.2182 C   0  0  0  0  0  0  0  0  0  0  0  0
   27.6155  -21.8101  -12.2003 N   0  0  0  0  0  0  0  0  0  0  0  0
   20.5238  -20.4215  -13.6119 C   0  0  0  0  0  0  0  0  0  0  0  0
   20.1723  -19.4731  -12.8807 O   0  0  0  0  0  0  0  0  0  0  0  0
   15.2302  -21.4868  -16.4694 C   0  0  0  0  0  0  0  0  0  0  0  0
   14.7259  -21.2832  -14.7320 S   0  0  0  0  0  0  0  0  0  0  0  0
   15.9185  -22.1268  -13.7026 C   0  0  0  0  0  0  0  0  0  0  0  0
   17.3174  -21.9425  -14.1438 C   0  0  0  0  0  0  0  0  0  0  0  0
   18.3212  -21.4432  -13.1597 C   0  0  2  0  0  0  0  0  0  0  0  0
   19.6061  -21.4553  -13.8844 N   0  0  0  0  0  0  0  0  0  0  0  0
   18.4529  -22.1631  -11.8929 C   0  0  0  0  0  0  0  0  0  0  0  0
   17.6333  -22.0766  -10.9473 O   0  0  0  0  0  0  0  0  0  0  0  0
   19.5351  -23.0239  -11.6419 O   0  0  0  0  0  0  0  0  0  0  0  0
  2  1  1  6
  2  3  1  0
  4  5  2  0
  4  3  1  0
  6  5  1  0
  7 12  2  0
  7  6  1  0
  8  7  1  0
  9  8  2  0
  9 10  1  0
 10 11  2  0
 11 12  1  0
 12  4  1  0
 13  2  1  0
 13 14  2  0
 15 13  1  0
 16 15  1  0
 16 17  1  1
 18 17  1  0
 19 18  1  0
 20 19  1  0
 21 20  1  0
 22 29  1  0
 22 16  1  0
 23 22  2  0
 24 25  1  0
 25 26  1  0
 26 27  1  0
 28 29  1  0
 28 27  1  6
 30 32  1  0
 30 28  1  0
 31 30  2  0
M  END
$$$$
