WKM.pdb
     RDKit          3D

 32 33  0  0  1  0  0  0  0  0999 V2000
   26.5995  -18.6275   -9.3267 N   0  0  0  0  0  0  0  0  0  0  0  0
   26.4987  -20.0229   -9.6511 C   0  0  1  0  0  0  0  0  0  0  0  0
   25.8064  -20.8243   -8.5763 C   0  0  0  0  0  0  0  0  0  0  0  0
   26.2351  -20.5074   -7.2167 C   0  0  0  0  0  0  0  0  0  0  0  0
   25.4256  -20.3109   -6.1194 C   0  0  0  0  0  0  0  0  0  0  0  0
   26.2362  -20.0439   -5.0813 N   0  0  0  0  0  0  0  0  0  0  0  0
   27.5269  -20.0657   -5.4868 C   0  0  0  0  0  0  0  0  0  0  0  0
   28.7227  -19.8618   -4.8282 C   0  0  0  0  0  0  0  0  0  0  0  0
   29.9464  -19.9363   -5.4594 C   0  0  0  0  0  0  0  0  0  0  0  0
   29.9509  -20.2284   -6.8070 C   0  0  0  0  0  0  0  0  0  0  0  0
   28.7742  -20.4373   -7.4935 C   0  0  0  0  0  0  0  0  0  0  0  0
   27.5528  -20.3564   -6.8327 C   0  0  0  0  0  0  0  0  0  0  0  0
   25.7807  -20.2600  -10.9144 C   0  0  0  0  0  0  0  0  0  0  0  0
   24.8296  -19.4956  -11.2189 O   0  0  0  0  0  0  0  0  0  0  0  0
   26.0771  -21.3031  -11.8402 N   0  0  0  0  0  0  0  0  0  0  0  0
   25.5316  -21.3555  -13.1656 C   0  0  1  0  0  0  0  0  0  0  0  0
   26.3015  -22.0269  -14.2207 C   0  0  0  0  0  0  0  0  0  0  0  0
   27.7160  -21.6287  -14.3277 C   0  0  0  0  0  0  0  0  0  0  0  0
   28.1463  -21.1867  -15.6867 C   0  0  0  0  0  0  0  0  0  0  0  0
   29.1733  -22.2155  -16.2038 C   0  0  0  0  0  0  0  0  0  0  0  0
   29.6801  -21.7024  -17.4785 N   0  0  0  0  0  0  0  0  0  0  0  0
   24.1701  -22.0266  -12.9878 C   0  0  0  0  0  0  0  0  0  0  0  0
   24.0815  -23.1373  -12.4256 O   0  0  0  0  0  0  0  0  0  0  0  0
   18.1142  -19.8070  -10.7410 C   0  0  0  0  0  0  0  0  0  0  0  0
   18.1986  -20.0882  -12.5378 S   0  0  0  0  0  0  0  0  0  0  0  0
   19.2980  -21.4651  -12.8359 C   0  0  0  0  0  0  0  0  0  0  0  0
   20.7110  -21.0675  -13.0116 C   0  0  0  0  0  0  0  0  0  0  0  0
   21.7229  -22.1232  -13.3067 C   0  0  2  0  0  0  0  0  0  0  0  0
   22.9991  -21.3986  -13.4564 N   0  0  0  0  0  0  0  0  0  0  0  0
   21.4949  -22.9829  -14.4683 C   0  0  0  0  0  0  0  0  0  0  0  0
   22.0010  -22.7849  -15.5989 O   0  0  0  0  0  0  0  0  0  0  0  0
   20.6718  -24.1196  -14.3955 O   0  0  0  0  0  0  0  0  0  0  0  0
  2  1  1  1
  2  3  1  0
  4  5  2  0
  4  3  1  0
  6  5  1  0
  7 12  2  0
  7  6  1  0
  8  7  1  0
  9  8  2  0
  9 10  1  0
 10 11  2  0
 11 12  1  0
 12  4  1  0
 13  2  1  0
 13 14  2  0
 15 13  1  0
 16 15  1  0
 16 17  1  6
 18 17  1  0
 19 18  1  0
 20 19  1  0
 21 20  1  0
 22 29  1  0
 22 16  1  0
 23 22  2  0
 24 25  1  0
 25 26  1  0
 26 27  1  0
 28 29  1  0
 28 27  1  6
 30 32  1  0
 30 28  1  0
 31 30  2  0
M  END
$$$$
