WKM.pdb
     RDKit          3D

 32 33  0  0  1  0  0  0  0  0999 V2000
   22.5332  -18.7318  -17.3417 N   0  0  0  0  0  0  0  0  0  0  0  0
   23.1921  -19.4681  -16.2995 C   0  0  1  0  0  0  0  0  0  0  0  0
   23.4047  -18.6492  -15.0500 C   0  0  0  0  0  0  0  0  0  0  0  0
   24.4502  -17.6360  -15.1633 C   0  0  0  0  0  0  0  0  0  0  0  0
   24.3221  -16.2856  -14.9223 C   0  0  0  0  0  0  0  0  0  0  0  0
   25.5270  -15.7345  -15.1479 N   0  0  0  0  0  0  0  0  0  0  0  0
   26.4083  -16.6906  -15.5221 C   0  0  0  0  0  0  0  0  0  0  0  0
   27.7459  -16.6552  -15.8609 C   0  0  0  0  0  0  0  0  0  0  0  0
   28.4573  -17.7815  -16.2171 C   0  0  0  0  0  0  0  0  0  0  0  0
   27.7822  -18.9838  -16.2284 C   0  0  0  0  0  0  0  0  0  0  0  0
   26.4465  -19.0527  -15.8954 C   0  0  0  0  0  0  0  0  0  0  0  0
   25.7521  -17.9012  -15.5395 C   0  0  0  0  0  0  0  0  0  0  0  0
   22.4575  -20.6844  -15.9140 C   0  0  0  0  0  0  0  0  0  0  0  0
   21.2300  -20.7555  -16.1785 O   0  0  0  0  0  0  0  0  0  0  0  0
   23.0299  -21.8107  -15.2532 N   0  0  0  0  0  0  0  0  0  0  0  0
   22.4226  -23.1100  -15.2467 C   0  0  1  0  0  0  0  0  0  0  0  0
   23.2865  -24.2944  -15.3338 C   0  0  0  0  0  0  0  0  0  0  0  0
   22.5971  -25.5932  -15.2423 C   0  0  0  0  0  0  0  0  0  0  0  0
   23.4847  -26.7881  -15.3508 C   0  0  0  0  0  0  0  0  0  0  0  0
   22.5905  -28.0402  -15.2349 C   0  0  0  0  0  0  0  0  0  0  0  0
   23.4540  -29.1993  -15.4716 N   0  0  0  0  0  0  0  0  0  0  0  0
   21.6046  -23.1386  -13.9562 C   0  0  0  0  0  0  0  0  0  0  0  0
   22.1010  -22.7363  -12.8841 O   0  0  0  0  0  0  0  0  0  0  0  0
   14.7167  -21.5278  -11.0672 C   0  0  0  0  0  0  0  0  0  0  0  0
   15.7822  -21.8026  -12.5176 S   0  0  0  0  0  0  0  0  0  0  0  0
   17.2108  -22.7380  -11.9909 C   0  0  0  0  0  0  0  0  0  0  0  0
   18.2422  -22.8850  -13.0398 C   0  0  0  0  0  0  0  0  0  0  0  0
   19.5238  -23.5670  -12.6966 C   0  0  2  0  0  0  0  0  0  0  0  0
   20.2802  -23.6193  -13.9621 N   0  0  0  0  0  0  0  0  0  0  0  0
   19.4497  -24.9013  -12.1011 C   0  0  0  0  0  0  0  0  0  0  0  0
   19.5367  -25.9683  -12.7550 O   0  0  0  0  0  0  0  0  0  0  0  0
   19.2717  -25.0842  -10.7191 O   0  0  0  0  0  0  0  0  0  0  0  0
  2  1  1  6
  2  3  1  0
  4  5  2  0
  4  3  1  0
  6  5  1  0
  7 12  2  0
  7  6  1  0
  8  7  1  0
  9  8  2  0
  9 10  1  0
 10 11  2  0
 11 12  1  0
 12  4  1  0
 13  2  1  0
 13 14  2  0
 15 13  1  0
 16 15  1  0
 16 17  1  1
 18 17  1  0
 19 18  1  0
 20 19  1  0
 21 20  1  0
 22 29  1  0
 22 16  1  0
 23 22  2  0
 24 25  1  0
 25 26  1  0
 26 27  1  0
 28 29  1  0
 28 27  1  6
 30 32  1  0
 30 28  1  0
 31 30  2  0
M  END
$$$$
