WKM.pdb
     RDKit          3D

 32 33  0  0  1  0  0  0  0  0999 V2000
   25.8920  -18.6188   -8.2500 N   0  0  0  0  0  0  0  0  0  0  0  0
   26.4934  -19.7750   -8.8532 C   0  0  1  0  0  0  0  0  0  0  0  0
   26.2448  -21.0397   -8.0685 C   0  0  0  0  0  0  0  0  0  0  0  0
   26.5446  -20.9342   -6.6432 C   0  0  0  0  0  0  0  0  0  0  0  0
   25.7019  -21.2382   -5.5965 C   0  0  0  0  0  0  0  0  0  0  0  0
   26.3844  -20.9947   -4.4647 N   0  0  0  0  0  0  0  0  0  0  0  0
   27.6266  -20.5484   -4.7625 C   0  0  0  0  0  0  0  0  0  0  0  0
   28.6994  -20.1648   -3.9833 C   0  0  0  0  0  0  0  0  0  0  0  0
   29.8959  -19.7350   -4.5173 C   0  0  0  0  0  0  0  0  0  0  0  0
   30.0018  -19.6949   -5.8916 C   0  0  0  0  0  0  0  0  0  0  0  0
   28.9490  -20.0712   -6.6975 C   0  0  0  0  0  0  0  0  0  0  0  0
   27.7525  -20.5012   -6.1331 C   0  0  0  0  0  0  0  0  0  0  0  0
   26.0221  -20.0057  -10.2288 C   0  0  0  0  0  0  0  0  0  0  0  0
   24.8828  -19.5835  -10.5537 O   0  0  0  0  0  0  0  0  0  0  0  0
   26.7614  -20.6805  -11.2443 N   0  0  0  0  0  0  0  0  0  0  0  0
   26.6169  -20.3948  -12.6424 C   0  0  1  0  0  0  0  0  0  0  0  0
   27.7655  -20.6139  -13.5308 C   0  0  0  0  0  0  0  0  0  0  0  0
   28.1152  -19.4841  -14.4095 C   0  0  0  0  0  0  0  0  0  0  0  0
   27.8729  -19.7167  -15.8636 C   0  0  0  0  0  0  0  0  0  0  0  0
   28.3215  -18.4465  -16.6160 C   0  0  0  0  0  0  0  0  0  0  0  0
   28.0007  -18.6573  -18.0294 N   0  0  0  0  0  0  0  0  0  0  0  0
   25.4296  -21.2505  -13.0824 C   0  0  0  0  0  0  0  0  0  0  0  0
   25.4428  -22.4865  -12.9095 O   0  0  0  0  0  0  0  0  0  0  0  0
   18.1497  -22.4893  -12.1533 C   0  0  0  0  0  0  0  0  0  0  0  0
   19.5058  -21.2757  -12.2068 S   0  0  0  0  0  0  0  0  0  0  0  0
   20.8465  -21.9790  -13.1561 C   0  0  0  0  0  0  0  0  0  0  0  0
   22.0490  -21.1207  -13.2087 C   0  0  0  0  0  0  0  0  0  0  0  0
   23.1879  -21.5322  -14.0799 C   0  0  2  0  0  0  0  0  0  0  0  0
   24.3062  -20.6536  -13.6880 N   0  0  0  0  0  0  0  0  0  0  0  0
   22.9933  -21.4804  -15.5290 C   0  0  0  0  0  0  0  0  0  0  0  0
   23.1474  -20.4461  -16.2219 O   0  0  0  0  0  0  0  0  0  0  0  0
   22.6105  -22.6156  -16.2637 O   0  0  0  0  0  0  0  0  0  0  0  0
  2  1  1  1
  2  3  1  0
  4  5  2  0
  4  3  1  0
  6  5  1  0
  7 12  2  0
  7  6  1  0
  8  7  1  0
  9  8  2  0
  9 10  1  0
 10 11  2  0
 11 12  1  0
 12  4  1  0
 13  2  1  0
 13 14  2  0
 15 13  1  0
 16 15  1  0
 16 17  1  6
 18 17  1  0
 19 18  1  0
 20 19  1  0
 21 20  1  0
 22 29  1  0
 22 16  1  0
 23 22  2  0
 24 25  1  0
 25 26  1  0
 26 27  1  0
 28 29  1  0
 28 27  1  1
 30 32  1  0
 30 28  1  0
 31 30  2  0
M  END
$$$$
