WKM.pdb
     RDKit          3D

 32 33  0  0  1  0  0  0  0  0999 V2000
   26.3704  -18.2561   -9.3417 N   0  0  0  0  0  0  0  0  0  0  0  0
   26.8574  -19.6034   -9.4419 C   0  0  1  0  0  0  0  0  0  0  0  0
   26.7797  -20.3518   -8.1339 C   0  0  0  0  0  0  0  0  0  0  0  0
   27.2983  -19.6144   -6.9851 C   0  0  0  0  0  0  0  0  0  0  0  0
   27.1838  -18.2616   -6.7511 C   0  0  0  0  0  0  0  0  0  0  0  0
   27.8029  -18.0153   -5.5839 N   0  0  0  0  0  0  0  0  0  0  0  0
   28.3025  -19.1654   -5.0755 C   0  0  0  0  0  0  0  0  0  0  0  0
   29.0093  -19.4560   -3.9260 C   0  0  0  0  0  0  0  0  0  0  0  0
   29.4244  -20.7313   -3.6057 C   0  0  0  0  0  0  0  0  0  0  0  0
   29.1086  -21.7439   -4.4868 C   0  0  0  0  0  0  0  0  0  0  0  0
   28.4041  -21.4865   -5.6432 C   0  0  0  0  0  0  0  0  0  0  0  0
   27.9969  -20.1907   -5.9427 C   0  0  0  0  0  0  0  0  0  0  0  0
   26.1321  -20.3940  -10.4501 C   0  0  0  0  0  0  0  0  0  0  0  0
   24.8746  -20.3839  -10.4325 O   0  0  0  0  0  0  0  0  0  0  0  0
   26.7456  -21.1861  -11.4646 N   0  0  0  0  0  0  0  0  0  0  0  0
   26.4796  -21.0146  -12.8635 C   0  0  1  0  0  0  0  0  0  0  0  0
   27.4671  -21.5012  -13.8355 C   0  0  0  0  0  0  0  0  0  0  0  0
   27.1419  -21.2543  -15.2511 C   0  0  0  0  0  0  0  0  0  0  0  0
   28.1048  -21.8373  -16.2311 C   0  0  0  0  0  0  0  0  0  0  0  0
   27.7266  -21.2993  -17.6268 C   0  0  0  0  0  0  0  0  0  0  0  0
   28.7799  -21.7341  -18.5469 N   0  0  0  0  0  0  0  0  0  0  0  0
   25.1325  -21.7031  -13.0794 C   0  0  0  0  0  0  0  0  0  0  0  0
   24.9501  -22.8729  -12.6846 O   0  0  0  0  0  0  0  0  0  0  0  0
   19.3878  -21.4003  -10.1427 C   0  0  0  0  0  0  0  0  0  0  0  0
   19.4747  -20.4766  -11.7093 S   0  0  0  0  0  0  0  0  0  0  0  0
   20.4518  -21.4280  -12.8642 C   0  0  0  0  0  0  0  0  0  0  0  0
   21.8763  -21.0340  -12.9001 C   0  0  0  0  0  0  0  0  0  0  0  0
   22.7886  -21.7243  -13.8575 C   0  0  2  0  0  0  0  0  0  0  0  0
   24.0808  -21.0248  -13.7266 N   0  0  0  0  0  0  0  0  0  0  0  0
   22.3885  -21.7798  -15.2636 C   0  0  0  0  0  0  0  0  0  0  0  0
   22.8226  -21.0041  -16.1487 O   0  0  0  0  0  0  0  0  0  0  0  0
   21.4663  -22.7313  -15.7319 O   0  0  0  0  0  0  0  0  0  0  0  0
  2  1  1  1
  2  3  1  0
  4  5  2  0
  4  3  1  0
  6  5  1  0
  7 12  2  0
  7  6  1  0
  8  7  1  0
  9  8  2  0
  9 10  1  0
 10 11  2  0
 11 12  1  0
 12  4  1  0
 13  2  1  0
 13 14  2  0
 15 13  1  0
 16 15  1  0
 16 17  1  6
 18 17  1  0
 19 18  1  0
 20 19  1  0
 21 20  1  0
 22 29  1  0
 22 16  1  0
 23 22  2  0
 24 25  1  0
 25 26  1  0
 26 27  1  0
 28 29  1  0
 28 27  1  1
 30 32  1  0
 30 28  1  0
 31 30  2  0
M  END
$$$$
