WKM.pdb
     RDKit          3D

 32 33  0  0  1  0  0  0  0  0999 V2000
   25.6026  -18.9158   -9.4247 N   0  0  0  0  0  0  0  0  0  0  0  0
   26.4768  -19.9796   -9.8329 C   0  0  1  0  0  0  0  0  0  0  0  0
   26.5372  -21.1044   -8.8289 C   0  0  0  0  0  0  0  0  0  0  0  0
   26.7640  -20.6729   -7.4523 C   0  0  0  0  0  0  0  0  0  0  0  0
   25.8036  -20.3841   -6.5077 C   0  0  0  0  0  0  0  0  0  0  0  0
   26.4551  -20.0296   -5.3869 N   0  0  0  0  0  0  0  0  0  0  0  0
   27.7912  -20.0854   -5.5932 C   0  0  0  0  0  0  0  0  0  0  0  0
   28.8788  -19.8259   -4.7839 C   0  0  0  0  0  0  0  0  0  0  0  0
   30.1814  -19.9534   -5.2180 C   0  0  0  0  0  0  0  0  0  0  0  0
   30.3816  -20.3590   -6.5207 C   0  0  0  0  0  0  0  0  0  0  0  0
   29.3168  -20.6258   -7.3541 C   0  0  0  0  0  0  0  0  0  0  0  0
   28.0123  -20.4894   -6.8911 C   0  0  0  0  0  0  0  0  0  0  0  0
   26.0931  -20.5615  -11.1297 C   0  0  0  0  0  0  0  0  0  0  0  0
   24.8733  -20.6051  -11.4328 O   0  0  0  0  0  0  0  0  0  0  0  0
   27.0043  -21.0907  -12.0903 N   0  0  0  0  0  0  0  0  0  0  0  0
   26.7550  -21.0730  -13.5026 C   0  0  1  0  0  0  0  0  0  0  0  0
   27.8436  -21.4410  -14.4171 C   0  0  0  0  0  0  0  0  0  0  0  0
   27.4835  -21.4988  -15.8446 C   0  0  0  0  0  0  0  0  0  0  0  0
   28.2961  -20.6207  -16.7367 C   0  0  0  0  0  0  0  0  0  0  0  0
   27.7408  -20.7752  -18.1679 C   0  0  0  0  0  0  0  0  0  0  0  0
   28.5909  -19.9627  -19.0409 N   0  0  0  0  0  0  0  0  0  0  0  0
   25.5616  -22.0095  -13.6876 C   0  0  0  0  0  0  0  0  0  0  0  0
   25.5537  -23.1367  -13.1517 O   0  0  0  0  0  0  0  0  0  0  0  0
   19.8906  -21.2927  -11.7180 C   0  0  0  0  0  0  0  0  0  0  0  0
   19.4980  -21.6378  -13.4620 S   0  0  0  0  0  0  0  0  0  0  0  0
   20.8448  -22.5820  -14.1605 C   0  0  0  0  0  0  0  0  0  0  0  0
   22.1563  -21.9072  -14.0595 C   0  0  0  0  0  0  0  0  0  0  0  0
   23.3555  -22.5768  -14.6419 C   0  0  2  0  0  0  0  0  0  0  0  0
   24.4564  -21.6109  -14.4652 N   0  0  0  0  0  0  0  0  0  0  0  0
   23.2864  -23.0088  -16.0380 C   0  0  0  0  0  0  0  0  0  0  0  0
   22.6181  -23.9927  -16.4366 O   0  0  0  0  0  0  0  0  0  0  0  0
   23.9819  -22.3333  -17.0552 O   0  0  0  0  0  0  0  0  0  0  0  0
  2  1  1  1
  2  3  1  0
  4  5  2  0
  4  3  1  0
  6  5  1  0
  7 12  2  0
  7  6  1  0
  8  7  1  0
  9  8  2  0
  9 10  1  0
 10 11  2  0
 11 12  1  0
 12  4  1  0
 13  2  1  0
 13 14  2  0
 15 13  1  0
 16 15  1  0
 16 17  1  6
 18 17  1  0
 19 18  1  0
 20 19  1  0
 21 20  1  0
 22 29  1  0
 22 16  1  0
 23 22  2  0
 24 25  1  0
 25 26  1  0
 26 27  1  0
 28 29  1  0
 28 27  1  6
 30 32  1  0
 30 28  1  0
 31 30  2  0
M  END
$$$$
