WKM.pdb
     RDKit          3D

 32 33  0  0  1  0  0  0  0  0999 V2000
   17.8032  -14.2513    8.6459 N   0  0  0  0  0  0  0  0  0  0  0  0
   17.7080  -15.1774    7.5524 C   0  0  1  0  0  0  0  0  0  0  0  0
   18.9581  -15.2154    6.7080 C   0  0  0  0  0  0  0  0  0  0  0  0
   19.1308  -14.0587    5.8335 C   0  0  0  0  0  0  0  0  0  0  0  0
   19.5113  -12.7887    6.2081 C   0  0  0  0  0  0  0  0  0  0  0  0
   19.5423  -12.0461    5.0884 N   0  0  0  0  0  0  0  0  0  0  0  0
   19.1951  -12.8042    4.0228 C   0  0  0  0  0  0  0  0  0  0  0  0
   19.0731  -12.5317    2.6752 C   0  0  0  0  0  0  0  0  0  0  0  0
   18.6966  -13.4831    1.7508 C   0  0  0  0  0  0  0  0  0  0  0  0
   18.4357  -14.7547    2.2161 C   0  0  0  0  0  0  0  0  0  0  0  0
   18.5483  -15.0589    3.5556 C   0  0  0  0  0  0  0  0  0  0  0  0
   18.9301  -14.0804    4.4675 C   0  0  0  0  0  0  0  0  0  0  0  0
   17.4306  -16.5529    7.9978 C   0  0  0  0  0  0  0  0  0  0  0  0
   17.8470  -16.9153    9.1279 O   0  0  0  0  0  0  0  0  0  0  0  0
   16.7164  -17.5289    7.2425 N   0  0  0  0  0  0  0  0  0  0  0  0
   16.5954  -18.9000    7.6456 C   0  0  1  0  0  0  0  0  0  0  0  0
   15.6260  -19.7576    6.9518 C   0  0  0  0  0  0  0  0  0  0  0  0
   15.4762  -21.1185    7.4961 C   0  0  0  0  0  0  0  0  0  0  0  0
   14.4823  -21.9764    6.7865 C   0  0  0  0  0  0  0  0  0  0  0  0
   14.4210  -23.3260    7.5318 C   0  0  0  0  0  0  0  0  0  0  0  0
   13.3774  -24.1211    6.8808 N   0  0  0  0  0  0  0  0  0  0  0  0
   18.0085  -19.4632    7.4991 C   0  0  0  0  0  0  0  0  0  0  0  0
   18.6800  -19.2269    6.4740 O   0  0  0  0  0  0  0  0  0  0  0  0
   24.9001  -20.0882   10.4122 C   0  0  0  0  0  0  0  0  0  0  0  0
   23.1787  -19.4969   10.4543 S   0  0  0  0  0  0  0  0  0  0  0  0
   22.2072  -20.5307    9.3675 C   0  0  0  0  0  0  0  0  0  0  0  0
   20.8207  -20.0536    9.1792 C   0  0  0  0  0  0  0  0  0  0  0  0
   19.9089  -20.8288    8.2886 C   0  0  2  0  0  0  0  0  0  0  0  0
   18.5695  -20.2556    8.5201 N   0  0  0  0  0  0  0  0  0  0  0  0
   19.8676  -22.2822    8.4513 C   0  0  0  0  0  0  0  0  0  0  0  0
   18.9542  -22.8959    9.0534 O   0  0  0  0  0  0  0  0  0  0  0  0
   20.8746  -23.1124    7.9302 O   0  0  0  0  0  0  0  0  0  0  0  0
  2  1  1  1
  2  3  1  0
  4  5  2  0
  4  3  1  0
  6  5  1  0
  7 12  2  0
  7  6  1  0
  8  7  1  0
  9  8  2  0
  9 10  1  0
 10 11  2  0
 11 12  1  0
 12  4  1  0
 13  2  1  0
 13 14  2  0
 15 13  1  0
 16 15  1  0
 16 17  1  6
 18 17  1  0
 19 18  1  0
 20 19  1  0
 21 20  1  0
 22 29  1  0
 22 16  1  0
 23 22  2  0
 24 25  1  0
 25 26  1  0
 26 27  1  0
 28 29  1  0
 28 27  1  1
 30 32  1  0
 30 28  1  0
 31 30  2  0
M  END
$$$$
