WKM.pdb
     RDKit          3D

 32 33  0  0  1  0  0  0  0  0999 V2000
   26.0735  -19.7422  -12.4311 N   0  0  0  0  0  0  0  0  0  0  0  0
   26.3125  -21.1582  -12.4186 C   0  0  1  0  0  0  0  0  0  0  0  0
   25.8272  -21.8218  -11.1532 C   0  0  0  0  0  0  0  0  0  0  0  0
   26.2828  -21.1807   -9.9227 C   0  0  0  0  0  0  0  0  0  0  0  0
   25.4942  -20.6943   -8.9032 C   0  0  0  0  0  0  0  0  0  0  0  0
   26.3257  -20.1917   -7.9746 N   0  0  0  0  0  0  0  0  0  0  0  0
   27.6094  -20.3451   -8.3741 C   0  0  0  0  0  0  0  0  0  0  0  0
   28.8189  -20.0084   -7.8004 C   0  0  0  0  0  0  0  0  0  0  0  0
   30.0311  -20.2684   -8.4041 C   0  0  0  0  0  0  0  0  0  0  0  0
   30.0092  -20.8923   -9.6336 C   0  0  0  0  0  0  0  0  0  0  0  0
   28.8182  -21.2412  -10.2331 C   0  0  0  0  0  0  0  0  0  0  0  0
   27.6090  -20.9676   -9.6025 C   0  0  0  0  0  0  0  0  0  0  0  0
   25.6793  -21.8494  -13.5538 C   0  0  0  0  0  0  0  0  0  0  0  0
   24.7530  -21.2661  -14.1731 O   0  0  0  0  0  0  0  0  0  0  0  0
   26.0332  -23.1494  -14.0204 N   0  0  0  0  0  0  0  0  0  0  0  0
   25.4775  -23.7373  -15.2047 C   0  0  1  0  0  0  0  0  0  0  0  0
   26.2230  -24.8082  -15.8788 C   0  0  0  0  0  0  0  0  0  0  0  0
   27.4687  -24.3931  -16.5472 C   0  0  0  0  0  0  0  0  0  0  0  0
   28.1969  -25.4842  -17.2590 C   0  0  0  0  0  0  0  0  0  0  0  0
   28.9092  -26.3386  -16.1898 C   0  0  0  0  0  0  0  0  0  0  0  0
   29.6829  -27.3543  -16.9073 N   0  0  0  0  0  0  0  0  0  0  0  0
   24.1007  -24.2369  -14.7686 C   0  0  0  0  0  0  0  0  0  0  0  0
   23.9218  -24.6662  -13.6104 O   0  0  0  0  0  0  0  0  0  0  0  0
   18.1674  -21.8917  -11.8196 C   0  0  0  0  0  0  0  0  0  0  0  0
   19.7605  -21.7491  -12.6893 S   0  0  0  0  0  0  0  0  0  0  0  0
   20.0342  -23.2601  -13.6032 C   0  0  0  0  0  0  0  0  0  0  0  0
   21.3583  -23.3249  -14.2576 C   0  0  0  0  0  0  0  0  0  0  0  0
   21.6713  -24.4926  -15.1316 C   0  0  2  0  0  0  0  0  0  0  0  0
   23.0174  -24.2183  -15.6691 N   0  0  0  0  0  0  0  0  0  0  0  0
   20.7469  -24.7955  -16.2245 C   0  0  0  0  0  0  0  0  0  0  0  0
   20.8372  -24.3073  -17.3765 O   0  0  0  0  0  0  0  0  0  0  0  0
   19.6661  -25.6775  -16.0544 O   0  0  0  0  0  0  0  0  0  0  0  0
  2  1  1  1
  2  3  1  0
  4  5  2  0
  4  3  1  0
  6  5  1  0
  7 12  2  0
  7  6  1  0
  8  7  1  0
  9  8  2  0
  9 10  1  0
 10 11  2  0
 11 12  1  0
 12  4  1  0
 13  2  1  0
 13 14  2  0
 15 13  1  0
 16 15  1  0
 16 17  1  1
 18 17  1  0
 19 18  1  0
 20 19  1  0
 21 20  1  0
 22 29  1  0
 22 16  1  0
 23 22  2  0
 24 25  1  0
 25 26  1  0
 26 27  1  0
 28 29  1  0
 28 27  1  6
 30 32  1  0
 30 28  1  0
 31 30  2  0
M  END
$$$$
