EIE.pdb
     RDKit          3D

 27 26  0  0  1  0  0  0  0  0999 V2000
    7.4667  -14.3273   20.2055 N   0  0  0  0  0  0  0  0  0  0  0  0
    6.9346  -15.0462   21.3452 C   0  0  1  0  0  0  0  0  0  0  0  0
    6.9718  -16.5602   21.1056 C   0  0  0  0  0  0  0  0  0  0  0  0
    7.2272  -16.8064   19.6218 C   0  0  0  0  0  0  0  0  0  0  0  0
    8.1853  -17.9021   19.4551 C   0  0  0  0  0  0  0  0  0  0  0  0
    8.6843  -18.5319   20.4108 O   0  0  0  0  0  0  0  0  0  0  0  0
    7.7112  -14.7056   22.5527 C   0  0  0  0  0  0  0  0  0  0  0  0
    8.9711  -14.5253   22.4353 O   0  0  0  0  0  0  0  0  0  0  0  0
    8.5610  -18.2658   18.1779 O   0  0  0  0  0  0  0  0  0  0  0  0
    5.5944  -11.4445   26.2310 C   0  0  0  0  0  0  0  0  0  0  0  0
    6.5873  -12.1203   25.2641 C   0  0  0  0  0  0  0  0  0  0  0  0
    7.1165  -13.3917   25.8599 C   0  0  2  0  0  0  0  0  0  0  0  0
    7.6484  -13.1447   27.2759 C   0  0  0  0  0  0  0  0  0  0  0  0
    7.8838  -14.2999   25.0372 C   0  0  2  0  0  0  0  0  0  0  0  0
    7.1043  -14.5809   23.8241 N   0  0  0  0  0  0  0  0  0  0  0  0
    8.5639  -15.4774   25.5045 C   0  0  0  0  0  0  0  0  0  0  0  0
    7.8282  -16.5370   25.6634 O   0  0  0  0  0  0  0  0  0  0  0  0
    9.9073  -15.6969   25.8239 N   0  0  0  0  0  0  0  0  0  0  0  0
   10.4463  -16.9933   26.2358 C   0  0  1  0  0  0  0  0  0  0  0  0
   11.4310  -17.5136   25.2394 C   0  0  0  0  0  0  0  0  0  0  0  0
   12.8216  -17.0304   25.3501 C   0  0  0  0  0  0  0  0  0  0  0  0
   13.4818  -16.5374   24.1497 C   0  0  0  0  0  0  0  0  0  0  0  0
   13.7445  -17.2109   23.1508 O   0  0  0  0  0  0  0  0  0  0  0  0
   10.7881  -17.1049   27.6412 C   0  0  0  0  0  0  0  0  0  0  0  0
   11.1783  -18.2902   28.1957 O   0  0  0  0  0  0  0  0  0  0  0  0
   13.8716  -15.1791   24.0896 O   0  0  0  0  0  0  0  0  0  0  0  0
   10.7274  -16.0949   28.3805 O   0  0  0  0  0  0  0  0  0  0  0  0
  2  7  1  0
  2  1  1  6
  3  2  1  0
  4  3  1  0
  5  6  2  0
  5  4  1  0
  7  8  2  0
  9  5  1  0
 11 10  1  0
 12 14  1  0
 12 11  1  0
 12 13  1  1
 14 15  1  6
 15  7  1  0
 16 17  2  0
 16 14  1  0
 18 16  1  0
 19 24  1  0
 19 18  1  0
 19 20  1  6
 21 22  1  0
 21 20  1  0
 22 26  1  0
 23 22  2  0
 24 25  1  0
 27 24  2  0
M  END
$$$$
