EIE.pdb
     RDKit          3D

 27 26  0  0  1  0  0  0  0  0999 V2000
    7.4881  -14.3220   20.2661 N   0  0  0  0  0  0  0  0  0  0  0  0
    7.0729  -15.1236   21.3993 C   0  0  1  0  0  0  0  0  0  0  0  0
    7.1485  -16.6194   21.0709 C   0  0  0  0  0  0  0  0  0  0  0  0
    6.7387  -16.8136   19.6142 C   0  0  0  0  0  0  0  0  0  0  0  0
    6.6456  -18.2432   19.3081 C   0  0  0  0  0  0  0  0  0  0  0  0
    7.0253  -18.7424   18.2285 O   0  0  0  0  0  0  0  0  0  0  0  0
    7.9268  -14.8169   22.5628 C   0  0  0  0  0  0  0  0  0  0  0  0
    9.1808  -14.6590   22.3726 O   0  0  0  0  0  0  0  0  0  0  0  0
    6.1130  -19.0913   20.2577 O   0  0  0  0  0  0  0  0  0  0  0  0
    5.9694  -11.5827   26.4038 C   0  0  0  0  0  0  0  0  0  0  0  0
    6.8766  -12.2483   25.3495 C   0  0  0  0  0  0  0  0  0  0  0  0
    7.4858  -13.5043   25.8998 C   0  0  2  0  0  0  0  0  0  0  0  0
    8.0811  -13.2525   27.2895 C   0  0  0  0  0  0  0  0  0  0  0  0
    8.2440  -14.3717   25.0261 C   0  0  2  0  0  0  0  0  0  0  0  0
    7.3995  -14.7006   23.8699 N   0  0  0  0  0  0  0  0  0  0  0  0
    9.0194  -15.5076   25.4455 C   0  0  0  0  0  0  0  0  0  0  0  0
    8.3524  -16.5958   25.6905 O   0  0  0  0  0  0  0  0  0  0  0  0
   10.3957  -15.6598   25.6394 N   0  0  0  0  0  0  0  0  0  0  0  0
   11.0290  -16.9170   26.0384 C   0  0  1  0  0  0  0  0  0  0  0  0
   12.3284  -17.1199   25.3288 C   0  0  0  0  0  0  0  0  0  0  0  0
   13.1455  -18.2798   25.7370 C   0  0  0  0  0  0  0  0  0  0  0  0
   14.4594  -18.4490   25.1329 C   0  0  0  0  0  0  0  0  0  0  0  0
   15.3409  -17.5878   25.0863 O   0  0  0  0  0  0  0  0  0  0  0  0
   10.9845  -17.2109   27.4583 C   0  0  0  0  0  0  0  0  0  0  0  0
   11.0328  -18.4911   27.9308 O   0  0  0  0  0  0  0  0  0  0  0  0
   14.7863  -19.6895   24.5374 O   0  0  0  0  0  0  0  0  0  0  0  0
   10.8980  -16.2749   28.2870 O   0  0  0  0  0  0  0  0  0  0  0  0
  2  7  1  0
  2  1  1  6
  3  2  1  0
  4  3  1  0
  5  6  2  0
  5  4  1  0
  7  8  2  0
  9  5  1  0
 11 10  1  0
 12 14  1  0
 12 11  1  0
 12 13  1  1
 14 15  1  6
 15  7  1  0
 16 17  2  0
 16 14  1  0
 18 16  1  0
 19 24  1  0
 19 18  1  0
 19 20  1  1
 21 22  1  0
 21 20  1  0
 22 26  1  0
 23 22  2  0
 24 25  1  0
 27 24  2  0
M  END
$$$$
