EIE.pdb
     RDKit          3D

 27 26  0  0  1  0  0  0  0  0999 V2000
    8.9445  -18.1278   16.4341 N   0  0  0  0  0  0  0  0  0  0  0  0
    8.6625  -18.4014   17.8286 C   0  0  1  0  0  0  0  0  0  0  0  0
    9.3268  -19.7085   18.2769 C   0  0  0  0  0  0  0  0  0  0  0  0
    8.5611  -20.8742   17.6586 C   0  0  0  0  0  0  0  0  0  0  0  0
    9.1259  -22.1442   18.1214 C   0  0  0  0  0  0  0  0  0  0  0  0
   10.1458  -22.2241   18.8373 O   0  0  0  0  0  0  0  0  0  0  0  0
    9.1398  -17.2798   18.6600 C   0  0  0  0  0  0  0  0  0  0  0  0
   10.3112  -16.8169   18.4433 O   0  0  0  0  0  0  0  0  0  0  0  0
    8.5039  -23.3199   17.7532 O   0  0  0  0  0  0  0  0  0  0  0  0
    8.0710  -12.2969   20.5881 C   0  0  0  0  0  0  0  0  0  0  0  0
    7.9500  -13.4731   21.5777 C   0  0  0  0  0  0  0  0  0  0  0  0
    7.7144  -14.7578   20.8391 C   0  0  2  0  0  0  0  0  0  0  0  0
    6.4402  -15.4449   21.3423 C   0  0  0  0  0  0  0  0  0  0  0  0
    8.8327  -15.6237   20.5389 C   0  0  2  0  0  0  0  0  0  0  0  0
    8.3447  -16.7141   19.6838 N   0  0  0  0  0  0  0  0  0  0  0  0
    9.7985  -16.1003   21.4914 C   0  0  0  0  0  0  0  0  0  0  0  0
    9.5332  -17.2428   22.0513 O   0  0  0  0  0  0  0  0  0  0  0  0
   11.0035  -15.5462   21.9340 N   0  0  0  0  0  0  0  0  0  0  0  0
   11.9751  -16.2620   22.7613 C   0  0  1  0  0  0  0  0  0  0  0  0
   13.3718  -15.8237   22.4612 C   0  0  0  0  0  0  0  0  0  0  0  0
   14.4581  -16.4567   23.2350 C   0  0  0  0  0  0  0  0  0  0  0  0
   15.8322  -16.0768   22.9393 C   0  0  0  0  0  0  0  0  0  0  0  0
   16.4714  -16.4248   21.9438 O   0  0  0  0  0  0  0  0  0  0  0  0
   11.6048  -16.4223   24.1548 C   0  0  0  0  0  0  0  0  0  0  0  0
   10.8031  -15.5214   24.7953 O   0  0  0  0  0  0  0  0  0  0  0  0
   16.5244  -15.2430   23.8481 O   0  0  0  0  0  0  0  0  0  0  0  0
   12.0252  -17.4090   24.8028 O   0  0  0  0  0  0  0  0  0  0  0  0
  2  7  1  0
  2  1  1  6
  3  2  1  0
  4  3  1  0
  5  6  2  0
  5  4  1  0
  7  8  2  0
  9  5  1  0
 11 10  1  0
 12 14  1  0
 12 11  1  0
 12 13  1  1
 14 15  1  1
 15  7  1  0
 16 17  2  0
 16 14  1  0
 18 16  1  0
 19 24  1  0
 19 18  1  0
 19 20  1  1
 21 22  1  0
 21 20  1  0
 22 26  1  0
 23 22  2  0
 24 25  1  0
 27 24  2  0
M  END
$$$$
