EIE.pdb
     RDKit          3D

 27 26  0  0  1  0  0  0  0  0999 V2000
    9.0428  -15.7078   20.5505 N   0  0  0  0  0  0  0  0  0  0  0  0
    8.3625  -16.1975   21.7322 C   0  0  1  0  0  0  0  0  0  0  0  0
    8.6986  -17.6715   21.9880 C   0  0  0  0  0  0  0  0  0  0  0  0
    8.1132  -18.5030   20.8506 C   0  0  0  0  0  0  0  0  0  0  0  0
    8.4354  -19.9181   21.0496 C   0  0  0  0  0  0  0  0  0  0  0  0
    7.9930  -20.8336   20.3248 O   0  0  0  0  0  0  0  0  0  0  0  0
    8.7467  -15.3808   22.8994 C   0  0  0  0  0  0  0  0  0  0  0  0
    9.9772  -15.0671   23.0444 O   0  0  0  0  0  0  0  0  0  0  0  0
    9.2726  -20.2677   22.0895 O   0  0  0  0  0  0  0  0  0  0  0  0
    6.1582  -11.3806   26.6746 C   0  0  0  0  0  0  0  0  0  0  0  0
    7.3825  -12.3052   26.5197 C   0  0  0  0  0  0  0  0  0  0  0  0
    7.1724  -13.2684   25.3886 C   0  0  2  0  0  0  0  0  0  0  0  0
    5.7251  -13.7722   25.3692 C   0  0  0  0  0  0  0  0  0  0  0  0
    8.1943  -14.2449   25.0838 C   0  0  2  0  0  0  0  0  0  0  0  0
    7.7989  -14.9461   23.8549 N   0  0  0  0  0  0  0  0  0  0  0  0
    8.7949  -15.1470   26.0286 C   0  0  0  0  0  0  0  0  0  0  0  0
    8.2324  -16.3131   26.1426 O   0  0  0  0  0  0  0  0  0  0  0  0
    9.9044  -14.9959   26.8661 N   0  0  0  0  0  0  0  0  0  0  0  0
   10.4289  -16.0582   27.7246 C   0  0  1  0  0  0  0  0  0  0  0  0
   11.6218  -16.7150   27.1090 C   0  0  0  0  0  0  0  0  0  0  0  0
   12.6717  -15.8315   26.5643 C   0  0  0  0  0  0  0  0  0  0  0  0
   13.7767  -16.4365   25.8344 C   0  0  0  0  0  0  0  0  0  0  0  0
   13.7562  -16.7578   24.6440 O   0  0  0  0  0  0  0  0  0  0  0  0
   10.4908  -15.7396   29.1384 C   0  0  0  0  0  0  0  0  0  0  0  0
   10.1537  -14.5048   29.6140 O   0  0  0  0  0  0  0  0  0  0  0  0
   14.9891  -16.6952   26.5153 O   0  0  0  0  0  0  0  0  0  0  0  0
   10.8633  -16.6105   29.9588 O   0  0  0  0  0  0  0  0  0  0  0  0
  2  7  1  0
  2  1  1  6
  3  2  1  0
  4  3  1  0
  5  6  2  0
  5  4  1  0
  7  8  2  0
  9  5  1  0
 11 10  1  0
 12 14  1  0
 12 11  1  0
 12 13  1  1
 14 15  1  6
 15  7  1  0
 16 17  2  0
 16 14  1  0
 18 16  1  0
 19 24  1  0
 19 18  1  0
 19 20  1  6
 21 22  1  0
 21 20  1  0
 22 26  1  0
 23 22  2  0
 24 25  1  0
 27 24  2  0
M  END
$$$$
