EIE.pdb
     RDKit          3D

 27 26  0  0  1  0  0  0  0  0999 V2000
   -1.2518  -26.6568   28.5185 N   0  0  0  0  0  0  0  0  0  0  0  0
   -2.5044  -26.4283   27.8274 C   0  0  1  0  0  0  0  0  0  0  0  0
   -3.5704  -27.4350   28.2758 C   0  0  0  0  0  0  0  0  0  0  0  0
   -3.1106  -28.8335   27.8751 C   0  0  0  0  0  0  0  0  0  0  0  0
   -4.1544  -29.8118   28.1905 C   0  0  0  0  0  0  0  0  0  0  0  0
   -5.2205  -29.5185   28.7705 O   0  0  0  0  0  0  0  0  0  0  0  0
   -2.9683  -25.0515   28.0844 C   0  0  0  0  0  0  0  0  0  0  0  0
   -2.8110  -24.5648   29.2558 O   0  0  0  0  0  0  0  0  0  0  0  0
   -3.9587  -31.1295   27.8301 O   0  0  0  0  0  0  0  0  0  0  0  0
   -1.8721  -21.1173   24.8153 C   0  0  0  0  0  0  0  0  0  0  0  0
   -2.1523  -21.9378   26.0903 C   0  0  0  0  0  0  0  0  0  0  0  0
   -3.6288  -22.0285   26.3416 C   0  0  2  0  0  0  0  0  0  0  0  0
   -4.2713  -20.6378   26.2966 C   0  0  0  0  0  0  0  0  0  0  0  0
   -4.1258  -22.9308   27.3563 C   0  0  2  0  0  0  0  0  0  0  0  0
   -3.5818  -24.2672   27.0800 N   0  0  0  0  0  0  0  0  0  0  0  0
   -5.4874  -23.0060   27.8119 C   0  0  0  0  0  0  0  0  0  0  0  0
   -6.3261  -23.5937   27.0116 O   0  0  0  0  0  0  0  0  0  0  0  0
   -6.0884  -22.5536   28.9905 N   0  0  0  0  0  0  0  0  0  0  0  0
   -7.5032  -22.7458   29.3103 C   0  0  1  0  0  0  0  0  0  0  0  0
   -7.7715  -24.1421   29.7701 C   0  0  0  0  0  0  0  0  0  0  0  0
   -9.1524  -24.4625   30.1825 C   0  0  0  0  0  0  0  0  0  0  0  0
   -9.4200  -25.7781   30.7458 C   0  0  0  0  0  0  0  0  0  0  0  0
   -8.5849  -26.6721   30.9016 O   0  0  0  0  0  0  0  0  0  0  0  0
   -8.1250  -21.6629   30.0486 C   0  0  0  0  0  0  0  0  0  0  0  0
   -9.4814  -21.5156   30.1056 O   0  0  0  0  0  0  0  0  0  0  0  0
  -10.7360  -26.0941   31.1564 O   0  0  0  0  0  0  0  0  0  0  0  0
   -7.4113  -20.8305   30.6553 O   0  0  0  0  0  0  0  0  0  0  0  0
  2  7  1  0
  2  1  1  1
  3  2  1  0
  4  3  1  0
  5  6  2  0
  5  4  1  0
  7  8  2  0
  9  5  1  0
 11 10  1  0
 12 14  1  0
 12 11  1  0
 12 13  1  1
 14 15  1  6
 15  7  1  0
 16 17  2  0
 16 14  1  0
 18 16  1  0
 19 24  1  0
 19 18  1  0
 19 20  1  1
 21 22  1  0
 21 20  1  0
 22 26  1  0
 23 22  2  0
 24 25  1  0
 27 24  2  0
M  END
$$$$
