EIE.pdb
     RDKit          3D

 27 26  0  0  1  0  0  0  0  0999 V2000
    8.5284  -14.7380   20.0006 N   0  0  0  0  0  0  0  0  0  0  0  0
    7.7637  -15.2940   21.0983 C   0  0  1  0  0  0  0  0  0  0  0  0
    7.6259  -16.8145   20.9569 C   0  0  0  0  0  0  0  0  0  0  0  0
    7.1807  -17.1268   19.5314 C   0  0  0  0  0  0  0  0  0  0  0  0
    8.0944  -18.0979   18.9244 C   0  0  0  0  0  0  0  0  0  0  0  0
    9.1421  -18.4953   19.4753 O   0  0  0  0  0  0  0  0  0  0  0  0
    8.4197  -14.9620   22.3776 C   0  0  0  0  0  0  0  0  0  0  0  0
    9.6784  -15.1568   22.4847 O   0  0  0  0  0  0  0  0  0  0  0  0
    7.7887  -18.6071   17.6787 O   0  0  0  0  0  0  0  0  0  0  0  0
    6.4495  -11.3631   26.0745 C   0  0  0  0  0  0  0  0  0  0  0  0
    7.2946  -12.2136   25.1049 C   0  0  0  0  0  0  0  0  0  0  0  0
    7.5137  -13.5875   25.6670 C   0  0  2  0  0  0  0  0  0  0  0  0
    7.9423  -13.5084   27.1363 C   0  0  0  0  0  0  0  0  0  0  0  0
    8.1720  -14.5914   24.8612 C   0  0  2  0  0  0  0  0  0  0  0  0
    7.6978  -14.4452   23.4784 N   0  0  0  0  0  0  0  0  0  0  0  0
    8.3270  -15.9762   25.2156 C   0  0  0  0  0  0  0  0  0  0  0  0
    8.0350  -16.8394   24.2888 O   0  0  0  0  0  0  0  0  0  0  0  0
    8.7487  -16.5789   26.4047 N   0  0  0  0  0  0  0  0  0  0  0  0
    9.9710  -17.3736   26.5274 C   0  0  1  0  0  0  0  0  0  0  0  0
   10.9417  -17.0490   25.4386 C   0  0  0  0  0  0  0  0  0  0  0  0
   11.0277  -17.9946   24.3080 C   0  0  0  0  0  0  0  0  0  0  0  0
   12.3167  -18.1816   23.6574 C   0  0  0  0  0  0  0  0  0  0  0  0
   12.6157  -17.7729   22.5330 O   0  0  0  0  0  0  0  0  0  0  0  0
   10.4912  -17.5077   27.8749 C   0  0  0  0  0  0  0  0  0  0  0  0
   10.8762  -16.4230   28.6097 O   0  0  0  0  0  0  0  0  0  0  0  0
   13.3337  -18.8889   24.3399 O   0  0  0  0  0  0  0  0  0  0  0  0
   10.5978  -18.6438   28.3927 O   0  0  0  0  0  0  0  0  0  0  0  0
  2  7  1  0
  2  1  1  6
  3  2  1  0
  4  3  1  0
  5  6  2  0
  5  4  1  0
  7  8  2  0
  9  5  1  0
 11 10  1  0
 12 14  1  0
 12 11  1  0
 12 13  1  1
 14 15  1  6
 15  7  1  0
 16 17  2  0
 16 14  1  0
 18 16  1  0
 19 24  1  0
 19 18  1  0
 19 20  1  6
 21 22  1  0
 21 20  1  0
 22 26  1  0
 23 22  2  0
 24 25  1  0
 27 24  2  0
M  END
$$$$
