EIE.pdb
     RDKit          3D

 27 26  0  0  1  0  0  0  0  0999 V2000
    7.0207  -14.9057   20.5414 N   0  0  0  0  0  0  0  0  0  0  0  0
    6.8092  -15.5929   21.7992 C   0  0  1  0  0  0  0  0  0  0  0  0
    7.0860  -17.0943   21.6578 C   0  0  0  0  0  0  0  0  0  0  0  0
    6.7336  -17.5168   20.2348 C   0  0  0  0  0  0  0  0  0  0  0  0
    6.9810  -18.9505   20.0638 C   0  0  0  0  0  0  0  0  0  0  0  0
    7.3340  -19.4642   18.9819 O   0  0  0  0  0  0  0  0  0  0  0  0
    7.6851  -15.0119   22.8348 C   0  0  0  0  0  0  0  0  0  0  0  0
    8.8510  -14.6150   22.4932 O   0  0  0  0  0  0  0  0  0  0  0  0
    6.8196  -19.7854   21.1508 O   0  0  0  0  0  0  0  0  0  0  0  0
    5.3937  -11.8152   26.3692 C   0  0  0  0  0  0  0  0  0  0  0  0
    6.4569  -12.3408   25.3839 C   0  0  0  0  0  0  0  0  0  0  0  0
    7.2787  -13.4198   26.0256 C   0  0  2  0  0  0  0  0  0  0  0  0
    7.8914  -12.9233   27.3398 C   0  0  0  0  0  0  0  0  0  0  0  0
    8.1212  -14.2593   25.2034 C   0  0  2  0  0  0  0  0  0  0  0  0
    7.2739  -14.8902   24.1825 N   0  0  0  0  0  0  0  0  0  0  0  0
    9.1186  -15.1731   25.6907 C   0  0  0  0  0  0  0  0  0  0  0  0
    8.6851  -16.3297   26.0951 O   0  0  0  0  0  0  0  0  0  0  0  0
   10.5057  -15.0423   25.8087 N   0  0  0  0  0  0  0  0  0  0  0  0
   11.3959  -16.1301   26.2147 C   0  0  1  0  0  0  0  0  0  0  0  0
   12.7332  -16.0114   25.5585 C   0  0  0  0  0  0  0  0  0  0  0  0
   13.7651  -16.9925   25.9486 C   0  0  0  0  0  0  0  0  0  0  0  0
   15.1163  -16.8185   25.4350 C   0  0  0  0  0  0  0  0  0  0  0  0
   15.4104  -16.2822   24.3642 O   0  0  0  0  0  0  0  0  0  0  0  0
   11.3661  -16.4620   27.6265 C   0  0  0  0  0  0  0  0  0  0  0  0
   11.7079  -17.7031   28.0822 O   0  0  0  0  0  0  0  0  0  0  0  0
   16.2074  -17.2946   26.1988 O   0  0  0  0  0  0  0  0  0  0  0  0
   11.0181  -15.5971   28.4639 O   0  0  0  0  0  0  0  0  0  0  0  0
  2  7  1  0
  2  1  1  6
  3  2  1  0
  4  3  1  0
  5  6  2  0
  5  4  1  0
  7  8  2  0
  9  5  1  0
 11 10  1  0
 12 14  1  0
 12 11  1  0
 12 13  1  1
 14 15  1  1
 15  7  1  0
 16 17  2  0
 16 14  1  0
 18 16  1  0
 19 24  1  0
 19 18  1  0
 19 20  1  1
 21 22  1  0
 21 20  1  0
 22 26  1  0
 23 22  2  0
 24 25  1  0
 27 24  2  0
M  END
$$$$
