EIE.pdb
     RDKit          3D

 27 26  0  0  1  0  0  0  0  0999 V2000
    9.3728  -17.5707   16.2822 N   0  0  0  0  0  0  0  0  0  0  0  0
    9.0357  -17.9806   17.6302 C   0  0  1  0  0  0  0  0  0  0  0  0
    9.6769  -19.3312   17.9700 C   0  0  0  0  0  0  0  0  0  0  0  0
    9.1185  -20.3827   17.0159 C   0  0  0  0  0  0  0  0  0  0  0  0
    9.6125  -21.7099   17.3909 C   0  0  0  0  0  0  0  0  0  0  0  0
   10.2694  -22.4426   16.6224 O   0  0  0  0  0  0  0  0  0  0  0  0
    9.4846  -16.9518   18.5880 C   0  0  0  0  0  0  0  0  0  0  0  0
   10.6157  -16.3899   18.3919 O   0  0  0  0  0  0  0  0  0  0  0  0
    9.3439  -22.1833   18.6591 O   0  0  0  0  0  0  0  0  0  0  0  0
    6.3835  -12.9051   20.0761 C   0  0  0  0  0  0  0  0  0  0  0  0
    7.5921  -13.7728   19.6711 C   0  0  0  0  0  0  0  0  0  0  0  0
    8.0455  -14.6133   20.8284 C   0  0  2  0  0  0  0  0  0  0  0  0
    8.0543  -13.7920   22.1224 C   0  0  0  0  0  0  0  0  0  0  0  0
    9.1408  -15.5404   20.6511 C   0  0  2  0  0  0  0  0  0  0  0  0
    8.7062  -16.5803   19.7088 N   0  0  0  0  0  0  0  0  0  0  0  0
    9.9434  -16.0957   21.7069 C   0  0  0  0  0  0  0  0  0  0  0  0
    9.4396  -17.1190   22.3299 O   0  0  0  0  0  0  0  0  0  0  0  0
   11.2009  -15.7284   22.1957 N   0  0  0  0  0  0  0  0  0  0  0  0
   11.9493  -16.5034   23.1856 C   0  0  1  0  0  0  0  0  0  0  0  0
   13.4144  -16.2217   23.1014 C   0  0  0  0  0  0  0  0  0  0  0  0
   14.2953  -16.9465   24.0387 C   0  0  0  0  0  0  0  0  0  0  0  0
   15.7053  -16.5865   24.0836 C   0  0  0  0  0  0  0  0  0  0  0  0
   16.2349  -15.6881   23.4255 O   0  0  0  0  0  0  0  0  0  0  0  0
   11.3509  -16.5666   24.5056 C   0  0  0  0  0  0  0  0  0  0  0  0
   11.4125  -17.6957   25.2712 O   0  0  0  0  0  0  0  0  0  0  0  0
   16.5707  -17.3074   24.9391 O   0  0  0  0  0  0  0  0  0  0  0  0
   10.7562  -15.5661   24.9699 O   0  0  0  0  0  0  0  0  0  0  0  0
  2  7  1  0
  2  1  1  6
  3  2  1  0
  4  3  1  0
  5  6  2  0
  5  4  1  0
  7  8  2  0
  9  5  1  0
 11 10  1  0
 12 14  1  0
 12 11  1  0
 12 13  1  1
 14 15  1  1
 15  7  1  0
 16 17  2  0
 16 14  1  0
 18 16  1  0
 19 24  1  0
 19 18  1  0
 19 20  1  1
 21 22  1  0
 21 20  1  0
 22 26  1  0
 23 22  2  0
 24 25  1  0
 27 24  2  0
M  END
$$$$
