EIE.pdb
     RDKit          3D

 27 26  0  0  1  0  0  0  0  0999 V2000
    7.6531  -15.1383   20.6802 N   0  0  0  0  0  0  0  0  0  0  0  0
    7.3025  -15.7911   21.9251 C   0  0  1  0  0  0  0  0  0  0  0  0
    7.5715  -17.2987   21.8493 C   0  0  0  0  0  0  0  0  0  0  0  0
    6.7759  -17.8713   20.6802 C   0  0  0  0  0  0  0  0  0  0  0  0
    6.8844  -19.3322   20.6703 C   0  0  0  0  0  0  0  0  0  0  0  0
    6.6726  -20.0452   21.6731 O   0  0  0  0  0  0  0  0  0  0  0  0
    8.0740  -15.1943   23.0322 C   0  0  0  0  0  0  0  0  0  0  0  0
    9.2947  -14.8789   22.8227 O   0  0  0  0  0  0  0  0  0  0  0  0
    7.2372  -19.9629   19.4945 O   0  0  0  0  0  0  0  0  0  0  0  0
    5.6680  -11.7740   26.4514 C   0  0  0  0  0  0  0  0  0  0  0  0
    6.6761  -12.4367   25.4910 C   0  0  0  0  0  0  0  0  0  0  0  0
    7.4091  -13.5471   26.1847 C   0  0  2  0  0  0  0  0  0  0  0  0
    7.9373  -13.0790   27.5451 C   0  0  0  0  0  0  0  0  0  0  0  0
    8.2818  -14.4116   25.4220 C   0  0  2  0  0  0  0  0  0  0  0  0
    7.5048  -14.9704   24.3074 N   0  0  0  0  0  0  0  0  0  0  0  0
    9.1784  -15.3901   25.9749 C   0  0  0  0  0  0  0  0  0  0  0  0
    8.6653  -16.5572   26.2277 O   0  0  0  0  0  0  0  0  0  0  0  0
   10.5374  -15.3142   26.2953 N   0  0  0  0  0  0  0  0  0  0  0  0
   11.3285  -16.4506   26.7681 C   0  0  1  0  0  0  0  0  0  0  0  0
   12.5724  -16.6212   25.9578 C   0  0  0  0  0  0  0  0  0  0  0  0
   13.4957  -17.7011   26.3592 C   0  0  0  0  0  0  0  0  0  0  0  0
   14.7391  -17.8609   25.6187 C   0  0  0  0  0  0  0  0  0  0  0  0
   14.8767  -18.5224   24.5872 O   0  0  0  0  0  0  0  0  0  0  0  0
   11.4424  -16.5704   28.2093 C   0  0  0  0  0  0  0  0  0  0  0  0
   11.3680  -15.4822   29.0308 O   0  0  0  0  0  0  0  0  0  0  0  0
   15.9077  -17.2215   26.0940 O   0  0  0  0  0  0  0  0  0  0  0  0
   11.6154  -17.6970   28.7302 O   0  0  0  0  0  0  0  0  0  0  0  0
  2  7  1  0
  2  1  1  6
  3  2  1  0
  4  3  1  0
  5  6  2  0
  5  4  1  0
  7  8  2  0
  9  5  1  0
 11 10  1  0
 12 14  1  0
 12 11  1  0
 12 13  1  1
 14 15  1  6
 15  7  1  0
 16 17  2  0
 16 14  1  0
 18 16  1  0
 19 24  1  0
 19 18  1  0
 19 20  1  6
 21 22  1  0
 21 20  1  0
 22 26  1  0
 23 22  2  0
 24 25  1  0
 27 24  2  0
M  END
$$$$
