EIE.pdb
     RDKit          3D

 27 26  0  0  1  0  0  0  0  0999 V2000
    8.1113  -14.4037   19.9871 N   0  0  0  0  0  0  0  0  0  0  0  0
    7.6953  -15.2431   21.0922 C   0  0  1  0  0  0  0  0  0  0  0  0
    8.0790  -16.7068   20.8447 C   0  0  0  0  0  0  0  0  0  0  0  0
    7.3581  -17.1876   19.5890 C   0  0  0  0  0  0  0  0  0  0  0  0
    7.6282  -18.6110   19.3723 C   0  0  0  0  0  0  0  0  0  0  0  0
    6.8272  -19.5184   19.6790 O   0  0  0  0  0  0  0  0  0  0  0  0
    8.3156  -14.7614   22.3413 C   0  0  0  0  0  0  0  0  0  0  0  0
    9.5694  -14.5132   22.3419 O   0  0  0  0  0  0  0  0  0  0  0  0
    8.8281  -18.9783   18.7978 O   0  0  0  0  0  0  0  0  0  0  0  0
    6.6850  -11.5516   27.1934 C   0  0  0  0  0  0  0  0  0  0  0  0
    7.7335  -12.5841   26.7328 C   0  0  0  0  0  0  0  0  0  0  0  0
    7.3371  -13.1818   25.4148 C   0  0  2  0  0  0  0  0  0  0  0  0
    5.8335  -13.4773   25.3856 C   0  0  0  0  0  0  0  0  0  0  0  0
    8.1948  -14.1638   24.7898 C   0  0  2  0  0  0  0  0  0  0  0  0
    7.5673  -14.5754   23.5269 N   0  0  0  0  0  0  0  0  0  0  0  0
    8.8080  -15.2809   25.4557 C   0  0  0  0  0  0  0  0  0  0  0  0
    8.0991  -16.3685   25.5179 O   0  0  0  0  0  0  0  0  0  0  0  0
   10.0612  -15.4151   26.0611 N   0  0  0  0  0  0  0  0  0  0  0  0
   10.5605  -16.6653   26.6341 C   0  0  1  0  0  0  0  0  0  0  0  0
   11.9390  -16.9739   26.1467 C   0  0  0  0  0  0  0  0  0  0  0  0
   12.1889  -16.8352   24.6983 C   0  0  0  0  0  0  0  0  0  0  0  0
   13.5032  -17.1931   24.1843 C   0  0  0  0  0  0  0  0  0  0  0  0
   14.5321  -16.5286   24.3280 O   0  0  0  0  0  0  0  0  0  0  0  0
   10.2884  -16.8526   28.0467 C   0  0  0  0  0  0  0  0  0  0  0  0
   10.5660  -18.0278   28.6841 O   0  0  0  0  0  0  0  0  0  0  0  0
   13.6498  -18.3940   23.4516 O   0  0  0  0  0  0  0  0  0  0  0  0
    9.7836  -15.9199   28.7141 O   0  0  0  0  0  0  0  0  0  0  0  0
  2  7  1  0
  2  1  1  6
  3  2  1  0
  4  3  1  0
  5  6  2  0
  5  4  1  0
  7  8  2  0
  9  5  1  0
 11 10  1  0
 12 14  1  0
 12 11  1  0
 12 13  1  1
 14 15  1  6
 15  7  1  0
 16 17  2  0
 16 14  1  0
 18 16  1  0
 19 24  1  0
 19 18  1  0
 19 20  1  1
 21 22  1  0
 21 20  1  0
 22 26  1  0
 23 22  2  0
 24 25  1  0
 27 24  2  0
M  END
$$$$
