EIE.pdb
     RDKit          3D

 27 26  0  0  1  0  0  0  0  0999 V2000
    7.3370  -14.2232   20.1987 N   0  0  0  0  0  0  0  0  0  0  0  0
    6.9703  -15.0561   21.3259 C   0  0  1  0  0  0  0  0  0  0  0  0
    7.0832  -16.5431   20.9696 C   0  0  0  0  0  0  0  0  0  0  0  0
    6.2085  -16.8133   19.7491 C   0  0  0  0  0  0  0  0  0  0  0  0
    6.3036  -18.2249   19.3692 C   0  0  0  0  0  0  0  0  0  0  0  0
    6.9919  -18.6356   18.4117 O   0  0  0  0  0  0  0  0  0  0  0  0
    7.8396  -14.7439   22.4765 C   0  0  0  0  0  0  0  0  0  0  0  0
    9.0836  -14.5431   22.2626 O   0  0  0  0  0  0  0  0  0  0  0  0
    5.6001  -19.1580   20.1035 O   0  0  0  0  0  0  0  0  0  0  0  0
    5.9464  -11.5563   26.3473 C   0  0  0  0  0  0  0  0  0  0  0  0
    6.8662  -12.2065   25.2943 C   0  0  0  0  0  0  0  0  0  0  0  0
    7.4578  -13.4778   25.8283 C   0  0  2  0  0  0  0  0  0  0  0  0
    8.0618  -13.2508   27.2185 C   0  0  0  0  0  0  0  0  0  0  0  0
    8.1995  -14.3470   24.9422 C   0  0  2  0  0  0  0  0  0  0  0  0
    7.3377  -14.6681   23.7966 N   0  0  0  0  0  0  0  0  0  0  0  0
    8.9741  -15.4882   25.3481 C   0  0  0  0  0  0  0  0  0  0  0  0
    8.3006  -16.5081   25.7902 O   0  0  0  0  0  0  0  0  0  0  0  0
   10.3550  -15.7078   25.3507 N   0  0  0  0  0  0  0  0  0  0  0  0
   10.9797  -16.9669   25.7570 C   0  0  1  0  0  0  0  0  0  0  0  0
   12.2881  -17.1723   25.0650 C   0  0  0  0  0  0  0  0  0  0  0  0
   13.0512  -18.3875   25.4124 C   0  0  0  0  0  0  0  0  0  0  0  0
   14.3497  -18.5931   24.7868 C   0  0  0  0  0  0  0  0  0  0  0  0
   14.5627  -19.2969   23.7969 O   0  0  0  0  0  0  0  0  0  0  0  0
   10.9153  -17.2620   27.1759 C   0  0  0  0  0  0  0  0  0  0  0  0
   10.9057  -16.2732   28.1176 O   0  0  0  0  0  0  0  0  0  0  0  0
   15.4846  -17.9508   25.3344 O   0  0  0  0  0  0  0  0  0  0  0  0
   10.8679  -18.4525   27.5643 O   0  0  0  0  0  0  0  0  0  0  0  0
  2  7  1  0
  2  1  1  6
  3  2  1  0
  4  3  1  0
  5  6  2  0
  5  4  1  0
  7  8  2  0
  9  5  1  0
 11 10  1  0
 12 14  1  0
 12 11  1  0
 12 13  1  1
 14 15  1  6
 15  7  1  0
 16 17  2  0
 16 14  1  0
 18 16  1  0
 19 24  1  0
 19 18  1  0
 19 20  1  1
 21 22  1  0
 21 20  1  0
 22 26  1  0
 23 22  2  0
 24 25  1  0
 27 24  2  0
M  END
$$$$
