GHR.pdb
     RDKit          3D

 26 26  0  0  1  0  0  0  0  0999 V2000
    9.6752  -18.4964   17.6106 N   0  0  0  0  0  0  0  0  0  0  0  0
    8.8296  -18.5576   18.7822 C   0  0  0  0  0  0  0  0  0  0  0  0
    9.1573  -17.3915   19.6422 C   0  0  0  0  0  0  0  0  0  0  0  0
   10.3685  -17.0798   19.8906 O   0  0  0  0  0  0  0  0  0  0  0  0
    8.1570  -16.5682   20.2289 N   0  0  0  0  0  0  0  0  0  0  0  0
    8.5279  -15.5576   21.2309 C   0  0  1  0  0  0  0  0  0  0  0  0
    7.5331  -14.4257   21.2224 C   0  0  0  0  0  0  0  0  0  0  0  0
    7.5709  -13.7474   19.9148 C   0  0  0  0  0  0  0  0  0  0  0  0
    8.2657  -12.5797   19.6657 C   0  0  0  0  0  0  0  0  0  0  0  0
    8.1097  -12.2142   18.4017 N   0  0  0  0  0  0  0  0  0  0  0  0
    7.3202  -13.1305   17.8218 C   0  0  0  0  0  0  0  0  0  0  0  0
    6.9943  -14.0604   18.7425 N   0  0  0  0  0  0  0  0  0  0  0  0
    8.6017  -16.2753   22.5238 C   0  0  0  0  0  0  0  0  0  0  0  0
    7.6051  -16.9545   22.8840 O   0  0  0  0  0  0  0  0  0  0  0  0
   14.5821  -19.5543   26.9803 N   0  0  0  0  0  0  0  0  0  0  0  0
   13.7718  -20.7233   27.0610 C   0  0  0  0  0  0  0  0  0  0  0  0
   14.1110  -21.6939   27.8043 N   0  0  0  0  0  0  0  0  0  0  0  0
   12.5761  -20.8015   26.3040 N   0  0  0  0  0  0  0  0  0  0  0  0
   12.3394  -19.9606   25.1581 C   0  0  0  0  0  0  0  0  0  0  0  0
   11.2396  -18.9636   25.4389 C   0  0  0  0  0  0  0  0  0  0  0  0
   10.9461  -18.0613   24.2877 C   0  0  0  0  0  0  0  0  0  0  0  0
    9.8676  -17.0307   24.5864 C   0  0  2  0  0  0  0  0  0  0  0  0
    9.7160  -16.2467   23.3765 N   0  0  0  0  0  0  0  0  0  0  0  0
   10.1708  -16.2147   25.7615 C   0  0  0  0  0  0  0  0  0  0  0  0
    9.8931  -16.6159   27.0386 O   0  0  0  0  0  0  0  0  0  0  0  0
   10.7119  -15.0882   25.6075 O   0  0  0  0  0  0  0  0  0  0  0  0
  2  1  1  0
  3  2  1  0
  3  4  2  0
  5  3  1  0
  6  5  1  0
  6  7  1  1
  8  7  1  0
  8  9  2  0
 10  9  1  0
 11 10  1  0
 12 11  2  0
 12  8  1  0
 13  6  1  0
 14 13  2  0
 16 15  1  0
 17 16  2  0
 18 16  1  0
 19 20  1  0
 19 18  1  0
 20 21  1  0
 22 23  1  0
 22 21  1  6
 23 13  1  0
 24 22  1  0
 25 24  1  0
 26 24  2  0
M  END
$$$$
