GHR.pdb
     RDKit          3D

 26 26  0  0  1  0  0  0  0  0999 V2000
    8.6153  -18.8390   17.5112 N   0  0  0  0  0  0  0  0  0  0  0  0
    7.9920  -18.6009   18.7943 C   0  0  0  0  0  0  0  0  0  0  0  0
    8.7724  -17.5465   19.4915 C   0  0  0  0  0  0  0  0  0  0  0  0
    9.9573  -17.2552   19.1215 O   0  0  0  0  0  0  0  0  0  0  0  0
    8.2532  -16.8125   20.5934 N   0  0  0  0  0  0  0  0  0  0  0  0
    9.1097  -15.8581   21.3132 C   0  0  1  0  0  0  0  0  0  0  0  0
    8.2803  -14.7283   21.8669 C   0  0  0  0  0  0  0  0  0  0  0  0
    7.7297  -13.9319   20.7560 C   0  0  0  0  0  0  0  0  0  0  0  0
    6.3907  -13.8917   20.4188 C   0  0  0  0  0  0  0  0  0  0  0  0
    6.2036  -13.0910   19.3797 N   0  0  0  0  0  0  0  0  0  0  0  0
    7.4061  -12.6075   19.0340 C   0  0  0  0  0  0  0  0  0  0  0  0
    8.3311  -13.1196   19.8710 N   0  0  0  0  0  0  0  0  0  0  0  0
    9.8118  -16.6455   22.3520 C   0  0  0  0  0  0  0  0  0  0  0  0
    9.1861  -17.5843   22.9100 O   0  0  0  0  0  0  0  0  0  0  0  0
   16.6276  -20.5963   20.2674 N   0  0  0  0  0  0  0  0  0  0  0  0
   16.1426  -21.4332   21.3135 C   0  0  0  0  0  0  0  0  0  0  0  0
   16.8449  -22.3962   21.7480 N   0  0  0  0  0  0  0  0  0  0  0  0
   14.8640  -21.1863   21.8732 N   0  0  0  0  0  0  0  0  0  0  0  0
   14.0197  -20.1145   21.4101 C   0  0  0  0  0  0  0  0  0  0  0  0
   13.4854  -19.3088   22.5710 C   0  0  0  0  0  0  0  0  0  0  0  0
   12.5823  -18.1958   22.1575 C   0  0  0  0  0  0  0  0  0  0  0  0
   12.0258  -17.4010   23.3293 C   0  0  2  0  0  0  0  0  0  0  0  0
   11.1354  -16.4113   22.7557 N   0  0  0  0  0  0  0  0  0  0  0  0
   13.0716  -16.8124   24.1649 C   0  0  0  0  0  0  0  0  0  0  0  0
   13.7459  -17.5188   25.1217 O   0  0  0  0  0  0  0  0  0  0  0  0
   13.3769  -15.6008   24.0093 O   0  0  0  0  0  0  0  0  0  0  0  0
  2  1  1  0
  3  2  1  0
  3  4  2  0
  5  3  1  0
  6  5  1  0
  6  7  1  1
  8  7  1  0
  8  9  2  0
 10  9  1  0
 11 10  1  0
 12 11  2  0
 12  8  1  0
 13  6  1  0
 14 13  2  0
 16 15  1  0
 17 16  2  0
 18 16  1  0
 19 20  1  0
 19 18  1  0
 20 21  1  0
 22 23  1  0
 22 21  1  6
 23 13  1  0
 24 22  1  0
 25 24  1  0
 26 24  2  0
M  END
$$$$
