GHR.pdb
     RDKit          3D

 26 26  0  0  1  0  0  0  0  0999 V2000
    9.9866  -19.1809   17.8685 N   0  0  0  0  0  0  0  0  0  0  0  0
    9.0549  -18.8156   18.9124 C   0  0  0  0  0  0  0  0  0  0  0  0
    9.6360  -17.6725   19.6623 C   0  0  0  0  0  0  0  0  0  0  0  0
   10.7887  -17.2137   19.3683 O   0  0  0  0  0  0  0  0  0  0  0  0
    8.9529  -17.0335   20.7336 N   0  0  0  0  0  0  0  0  0  0  0  0
    9.6062  -15.9498   21.4829 C   0  0  1  0  0  0  0  0  0  0  0  0
    8.5756  -14.9817   22.0042 C   0  0  0  0  0  0  0  0  0  0  0  0
    7.9772  -14.2457   20.8765 C   0  0  0  0  0  0  0  0  0  0  0  0
    8.4055  -14.3494   19.5672 C   0  0  0  0  0  0  0  0  0  0  0  0
    7.6756  -13.5696   18.7831 N   0  0  0  0  0  0  0  0  0  0  0  0
    6.7749  -12.9570   19.5659 C   0  0  0  0  0  0  0  0  0  0  0  0
    6.9600  -13.3692   20.8364 N   0  0  0  0  0  0  0  0  0  0  0  0
   10.3948  -16.6101   22.5479 C   0  0  0  0  0  0  0  0  0  0  0  0
    9.8366  -17.5086   23.2301 O   0  0  0  0  0  0  0  0  0  0  0  0
   15.5058  -23.0402   22.8933 N   0  0  0  0  0  0  0  0  0  0  0  0
   14.6562  -22.2694   22.0484 C   0  0  0  0  0  0  0  0  0  0  0  0
   14.8664  -22.2144   20.7985 N   0  0  0  0  0  0  0  0  0  0  0  0
   13.5665  -21.5583   22.6104 N   0  0  0  0  0  0  0  0  0  0  0  0
   13.7318  -20.2662   23.2263 C   0  0  0  0  0  0  0  0  0  0  0  0
   13.9806  -19.2003   22.1851 C   0  0  0  0  0  0  0  0  0  0  0  0
   12.8574  -18.2280   22.0485 C   0  0  0  0  0  0  0  0  0  0  0  0
   12.7548  -17.2546   23.2132 C   0  0  2  0  0  0  0  0  0  0  0  0
   11.7300  -16.2972   22.8464 N   0  0  0  0  0  0  0  0  0  0  0  0
   14.0330  -16.6251   23.5423 C   0  0  0  0  0  0  0  0  0  0  0  0
   14.9797  -17.2263   24.3243 O   0  0  0  0  0  0  0  0  0  0  0  0
   14.2890  -15.4769   23.0936 O   0  0  0  0  0  0  0  0  0  0  0  0
  2  1  1  0
  3  2  1  0
  3  4  2  0
  5  3  1  0
  6  5  1  0
  6  7  1  1
  8  7  1  0
  8  9  2  0
 10  9  1  0
 11 10  1  0
 12 11  2  0
 12  8  1  0
 13  6  1  0
 14 13  2  0
 16 15  1  0
 17 16  2  0
 18 16  1  0
 19 20  1  0
 19 18  1  0
 20 21  1  0
 22 23  1  0
 22 21  1  6
 23 13  1  0
 24 22  1  0
 25 24  1  0
 26 24  2  0
M  END
$$$$
