GHR.pdb
     RDKit          3D

 26 26  0  0  1  0  0  0  0  0999 V2000
    6.4771  -19.3012   17.5745 N   0  0  0  0  0  0  0  0  0  0  0  0
    6.3791  -19.6037   18.9853 C   0  0  0  0  0  0  0  0  0  0  0  0
    6.8476  -18.4132   19.7403 C   0  0  0  0  0  0  0  0  0  0  0  0
    7.4376  -17.4510   19.1469 O   0  0  0  0  0  0  0  0  0  0  0  0
    6.6689  -18.2786   21.1448 N   0  0  0  0  0  0  0  0  0  0  0  0
    7.2224  -17.1130   21.8502 C   0  0  1  0  0  0  0  0  0  0  0  0
    6.3953  -16.8014   23.0709 C   0  0  0  0  0  0  0  0  0  0  0  0
    6.9779  -15.6474   23.7783 C   0  0  0  0  0  0  0  0  0  0  0  0
    6.7315  -14.3290   23.4475 C   0  0  0  0  0  0  0  0  0  0  0  0
    7.3948  -13.5207   24.2613 N   0  0  0  0  0  0  0  0  0  0  0  0
    8.0723  -14.2966   25.1205 C   0  0  0  0  0  0  0  0  0  0  0  0
    7.8175  -15.5875   24.8252 N   0  0  0  0  0  0  0  0  0  0  0  0
    8.6302  -17.4542   22.1566 C   0  0  0  0  0  0  0  0  0  0  0  0
    8.8855  -18.6201   22.5562 O   0  0  0  0  0  0  0  0  0  0  0  0
    9.9466  -14.5746   17.7034 N   0  0  0  0  0  0  0  0  0  0  0  0
   10.3022  -13.4638   18.5216 C   0  0  0  0  0  0  0  0  0  0  0  0
    9.5928  -12.4120   18.5261 N   0  0  0  0  0  0  0  0  0  0  0  0
   11.4588  -13.5358   19.3377 N   0  0  0  0  0  0  0  0  0  0  0  0
   12.3324  -14.6816   19.3278 C   0  0  0  0  0  0  0  0  0  0  0  0
   11.6983  -15.8495   20.0463 C   0  0  0  0  0  0  0  0  0  0  0  0
   11.9018  -15.8208   21.5239 C   0  0  0  0  0  0  0  0  0  0  0  0
   11.0963  -16.8766   22.2662 C   0  0  2  0  0  0  0  0  0  0  0  0
    9.7023  -16.5575   22.0291 N   0  0  0  0  0  0  0  0  0  0  0  0
   11.4312  -16.9519   23.6877 C   0  0  0  0  0  0  0  0  0  0  0  0
   12.4833  -17.6814   24.1673 O   0  0  0  0  0  0  0  0  0  0  0  0
   10.7283  -16.3225   24.5215 O   0  0  0  0  0  0  0  0  0  0  0  0
  2  1  1  0
  3  2  1  0
  3  4  2  0
  5  3  1  0
  6  5  1  0
  6  7  1  1
  8  7  1  0
  8  9  2  0
 10  9  1  0
 11 10  1  0
 12 11  2  0
 12  8  1  0
 13  6  1  0
 14 13  2  0
 16 15  1  0
 17 16  2  0
 18 16  1  0
 19 20  1  0
 19 18  1  0
 20 21  1  0
 22 23  1  0
 22 21  1  6
 23 13  1  0
 24 22  1  0
 25 24  1  0
 26 24  2  0
M  END
$$$$
