GHR.pdb
     RDKit          3D

 26 26  0  0  1  0  0  0  0  0999 V2000
   15.3253  -24.8591   37.1580 N   0  0  0  0  0  0  0  0  0  0  0  0
   16.2893  -24.6767   36.0954 C   0  0  0  0  0  0  0  0  0  0  0  0
   15.5413  -24.3678   34.8496 C   0  0  0  0  0  0  0  0  0  0  0  0
   15.6566  -25.1052   33.8158 O   0  0  0  0  0  0  0  0  0  0  0  0
   14.6677  -23.2511   34.7384 N   0  0  0  0  0  0  0  0  0  0  0  0
   13.9481  -23.0000   33.4808 C   0  0  1  0  0  0  0  0  0  0  0  0
   12.5223  -22.6039   33.7662 C   0  0  0  0  0  0  0  0  0  0  0  0
   11.7125  -23.8132   33.9966 C   0  0  0  0  0  0  0  0  0  0  0  0
   12.1780  -25.1029   33.8280 C   0  0  0  0  0  0  0  0  0  0  0  0
   11.2218  -25.9758   34.1098 N   0  0  0  0  0  0  0  0  0  0  0  0
   10.1361  -25.2705   34.4606 C   0  0  0  0  0  0  0  0  0  0  0  0
   10.4365  -23.9577   34.3910 N   0  0  0  0  0  0  0  0  0  0  0  0
   14.7240  -21.9587   32.7696 C   0  0  0  0  0  0  0  0  0  0  0  0
   15.2299  -21.0273   33.4484 O   0  0  0  0  0  0  0  0  0  0  0  0
   20.3979  -21.6072   27.3114 N   0  0  0  0  0  0  0  0  0  0  0  0
   20.8843  -20.5049   28.0718 C   0  0  0  0  0  0  0  0  0  0  0  0
   21.6359  -19.6336   27.5376 N   0  0  0  0  0  0  0  0  0  0  0  0
   20.5243  -20.3816   29.4372 N   0  0  0  0  0  0  0  0  0  0  0  0
   19.5880  -21.2783   30.0659 C   0  0  0  0  0  0  0  0  0  0  0  0
   18.1940  -20.6960   30.0564 C   0  0  0  0  0  0  0  0  0  0  0  0
   17.1762  -21.5780   30.6980 C   0  0  0  0  0  0  0  0  0  0  0  0
   15.7695  -20.9993   30.6686 C   0  0  2  0  0  0  0  0  0  0  0  0
   14.9325  -21.9438   31.3817 N   0  0  0  0  0  0  0  0  0  0  0  0
   15.2952  -20.7264   29.3125 C   0  0  0  0  0  0  0  0  0  0  0  0
   15.7073  -19.6461   28.5828 O   0  0  0  0  0  0  0  0  0  0  0  0
   14.4691  -21.5118   28.7779 O   0  0  0  0  0  0  0  0  0  0  0  0
  2  1  1  0
  3  2  1  0
  3  4  2  0
  5  3  1  0
  6  5  1  0
  6  7  1  1
  8  7  1  0
  8  9  2  0
 10  9  1  0
 11 10  1  0
 12 11  2  0
 12  8  1  0
 13  6  1  0
 14 13  2  0
 16 15  1  0
 17 16  2  0
 18 16  1  0
 19 20  1  0
 19 18  1  0
 20 21  1  0
 22 23  1  0
 22 21  1  6
 23 13  1  0
 24 22  1  0
 25 24  1  0
 26 24  2  0
M  END
$$$$
