GHR.pdb
     RDKit          3D

 26 26  0  0  1  0  0  0  0  0999 V2000
   10.4348  -16.2673   14.6187 N   0  0  0  0  0  0  0  0  0  0  0  0
   10.0619  -16.7892   15.9148 C   0  0  0  0  0  0  0  0  0  0  0  0
   10.4732  -15.7970   16.9412 C   0  0  0  0  0  0  0  0  0  0  0  0
   11.2493  -14.8300   16.6442 O   0  0  0  0  0  0  0  0  0  0  0  0
   10.0331  -15.8660   18.2918 N   0  0  0  0  0  0  0  0  0  0  0  0
   10.5433  -14.9074   19.2835 C   0  0  1  0  0  0  0  0  0  0  0  0
    9.5352  -14.7124   20.3866 C   0  0  0  0  0  0  0  0  0  0  0  0
    8.3228  -14.0790   19.8385 C   0  0  0  0  0  0  0  0  0  0  0  0
    8.1925  -12.7235   19.6063 C   0  0  0  0  0  0  0  0  0  0  0  0
    6.9923  -12.4564   19.1126 N   0  0  0  0  0  0  0  0  0  0  0  0
    6.3364  -13.6228   19.0198 C   0  0  0  0  0  0  0  0  0  0  0  0
    7.1464  -14.6065   19.4612 N   0  0  0  0  0  0  0  0  0  0  0  0
   11.8372  -15.4553   19.7500 C   0  0  0  0  0  0  0  0  0  0  0  0
   11.9142  -16.6923   19.9695 O   0  0  0  0  0  0  0  0  0  0  0  0
   17.2737  -14.2388   15.4967 N   0  0  0  0  0  0  0  0  0  0  0  0
   17.9054  -13.5348   16.5622 C   0  0  0  0  0  0  0  0  0  0  0  0
   18.9783  -12.8881   16.3620 N   0  0  0  0  0  0  0  0  0  0  0  0
   17.3289  -13.5576   17.8568 N   0  0  0  0  0  0  0  0  0  0  0  0
   17.4261  -14.7089   18.7178 C   0  0  0  0  0  0  0  0  0  0  0  0
   16.7165  -14.4634   20.0287 C   0  0  0  0  0  0  0  0  0  0  0  0
   15.2833  -14.0823   19.8674 C   0  0  0  0  0  0  0  0  0  0  0  0
   14.3160  -15.2029   20.2185 C   0  0  2  0  0  0  0  0  0  0  0  0
   12.9880  -14.6808   19.9638 N   0  0  0  0  0  0  0  0  0  0  0  0
   14.4848  -15.6919   21.5864 C   0  0  0  0  0  0  0  0  0  0  0  0
   15.4616  -16.5787   21.9450 O   0  0  0  0  0  0  0  0  0  0  0  0
   13.7029  -15.2882   22.4869 O   0  0  0  0  0  0  0  0  0  0  0  0
  2  1  1  0
  3  2  1  0
  3  4  2  0
  5  3  1  0
  6  5  1  0
  6  7  1  1
  8  7  1  0
  8  9  2  0
 10  9  1  0
 11 10  1  0
 12 11  2  0
 12  8  1  0
 13  6  1  0
 14 13  2  0
 16 15  1  0
 17 16  2  0
 18 16  1  0
 19 20  1  0
 19 18  1  0
 20 21  1  0
 22 23  1  0
 22 21  1  1
 23 13  1  0
 24 22  1  0
 25 24  1  0
 26 24  2  0
M  END
$$$$
