GHR.pdb
     RDKit          3D

 26 26  0  0  1  0  0  0  0  0999 V2000
    6.8988  -12.4678   19.5862 N   0  0  0  0  0  0  0  0  0  0  0  0
    8.2255  -12.8877   19.1926 C   0  0  0  0  0  0  0  0  0  0  0  0
    8.4615  -14.2412   19.7577 C   0  0  0  0  0  0  0  0  0  0  0  0
    7.5715  -14.8217   20.4624 O   0  0  0  0  0  0  0  0  0  0  0  0
    9.6728  -14.9568   19.5497 N   0  0  0  0  0  0  0  0  0  0  0  0
    9.8616  -16.2808   20.1613 C   0  0  1  0  0  0  0  0  0  0  0  0
   10.3528  -17.2654   19.1315 C   0  0  0  0  0  0  0  0  0  0  0  0
    9.2342  -17.6633   18.2587 C   0  0  0  0  0  0  0  0  0  0  0  0
    9.0572  -17.2071   16.9668 C   0  0  0  0  0  0  0  0  0  0  0  0
    7.9656  -17.7403   16.4379 N   0  0  0  0  0  0  0  0  0  0  0  0
    7.4269  -18.5401   17.3703 C   0  0  0  0  0  0  0  0  0  0  0  0
    8.1989  -18.4917   18.4749 N   0  0  0  0  0  0  0  0  0  0  0  0
   10.8019  -16.0781   21.2868 C   0  0  0  0  0  0  0  0  0  0  0  0
   11.9425  -15.6111   21.0314 O   0  0  0  0  0  0  0  0  0  0  0  0
    9.3640  -14.1219   27.6564 N   0  0  0  0  0  0  0  0  0  0  0  0
   10.0810  -14.9031   28.6079 C   0  0  0  0  0  0  0  0  0  0  0  0
    9.7232  -14.9267   29.8249 N   0  0  0  0  0  0  0  0  0  0  0  0
   11.2038  -15.6607   28.1900 N   0  0  0  0  0  0  0  0  0  0  0  0
   11.6887  -15.6257   26.8336 C   0  0  0  0  0  0  0  0  0  0  0  0
   11.5252  -16.9718   26.1676 C   0  0  0  0  0  0  0  0  0  0  0  0
   10.6993  -16.9253   24.9261 C   0  0  0  0  0  0  0  0  0  0  0  0
   11.4607  -16.4156   23.7116 C   0  0  2  0  0  0  0  0  0  0  0  0
   10.5016  -16.3744   22.6254 N   0  0  0  0  0  0  0  0  0  0  0  0
   12.6409  -17.2213   23.4012 C   0  0  0  0  0  0  0  0  0  0  0  0
   12.5679  -18.4529   22.8121 O   0  0  0  0  0  0  0  0  0  0  0  0
   13.7841  -16.7754   23.6833 O   0  0  0  0  0  0  0  0  0  0  0  0
  2  1  1  0
  3  2  1  0
  3  4  2  0
  5  3  1  0
  6  5  1  0
  6  7  1  6
  8  7  1  0
  8  9  2  0
 10  9  1  0
 11 10  1  0
 12 11  2  0
 12  8  1  0
 13  6  1  0
 14 13  2  0
 16 15  1  0
 17 16  2  0
 18 16  1  0
 19 20  1  0
 19 18  1  0
 20 21  1  0
 22 23  1  0
 22 21  1  1
 23 13  1  0
 24 22  1  0
 25 24  1  0
 26 24  2  0
M  END
$$$$
