GHR.pdb
     RDKit          3D

 26 26  0  0  1  0  0  0  0  0999 V2000
    7.4801  -12.2991   19.5840 N   0  0  0  0  0  0  0  0  0  0  0  0
    8.8412  -12.5694   19.1769 C   0  0  0  0  0  0  0  0  0  0  0  0
    9.1535  -13.9766   19.5360 C   0  0  0  0  0  0  0  0  0  0  0  0
    8.3107  -14.6941   20.1691 O   0  0  0  0  0  0  0  0  0  0  0  0
   10.3891  -14.5959   19.2008 N   0  0  0  0  0  0  0  0  0  0  0  0
   10.6760  -15.9641   19.6571 C   0  0  1  0  0  0  0  0  0  0  0  0
   11.4780  -16.7030   18.6170 C   0  0  0  0  0  0  0  0  0  0  0  0
   10.5716  -17.2390   17.5862 C   0  0  0  0  0  0  0  0  0  0  0  0
    9.1944  -17.2506   17.6935 C   0  0  0  0  0  0  0  0  0  0  0  0
    8.6550  -17.7944   16.6123 N   0  0  0  0  0  0  0  0  0  0  0  0
    9.6649  -18.1387   15.7994 C   0  0  0  0  0  0  0  0  0  0  0  0
   10.8276  -17.8005   16.3929 N   0  0  0  0  0  0  0  0  0  0  0  0
   11.3731  -15.8216   20.9555 C   0  0  0  0  0  0  0  0  0  0  0  0
   12.4463  -15.1645   20.9847 O   0  0  0  0  0  0  0  0  0  0  0  0
   10.8399  -15.4541   29.8992 N   0  0  0  0  0  0  0  0  0  0  0  0
   10.2999  -14.6842   28.8289 C   0  0  0  0  0  0  0  0  0  0  0  0
    9.9570  -13.4764   29.0113 N   0  0  0  0  0  0  0  0  0  0  0  0
   10.1454  -15.2738   27.5493 N   0  0  0  0  0  0  0  0  0  0  0  0
   11.2480  -15.4119   26.6320 C   0  0  0  0  0  0  0  0  0  0  0  0
   11.1556  -16.7130   25.8698 C   0  0  0  0  0  0  0  0  0  0  0  0
   10.5770  -16.5623   24.5031 C   0  0  0  0  0  0  0  0  0  0  0  0
   11.6262  -16.3523   23.4216 C   0  0  2  0  0  0  0  0  0  0  0  0
   10.9120  -16.3743   22.1604 N   0  0  0  0  0  0  0  0  0  0  0  0
   12.7091  -17.3333   23.4819 C   0  0  0  0  0  0  0  0  0  0  0  0
   13.8872  -17.1028   24.1361 O   0  0  0  0  0  0  0  0  0  0  0  0
   12.5663  -18.4460   22.9101 O   0  0  0  0  0  0  0  0  0  0  0  0
  2  1  1  0
  3  2  1  0
  3  4  2  0
  5  3  1  0
  6  5  1  0
  6  7  1  6
  8  7  1  0
  8  9  2  0
 10  9  1  0
 11 10  1  0
 12 11  2  0
 12  8  1  0
 13  6  1  0
 14 13  2  0
 16 15  1  0
 17 16  2  0
 18 16  1  0
 19 20  1  0
 19 18  1  0
 20 21  1  0
 22 23  1  0
 22 21  1  1
 23 13  1  0
 24 22  1  0
 25 24  1  0
 26 24  2  0
M  END
$$$$
