GHR.pdb
     RDKit          3D

 26 26  0  0  1  0  0  0  0  0999 V2000
    4.3024  -18.5869   20.9348 N   0  0  0  0  0  0  0  0  0  0  0  0
    4.3882  -17.2784   21.5446 C   0  0  0  0  0  0  0  0  0  0  0  0
    5.8230  -16.8987   21.6087 C   0  0  0  0  0  0  0  0  0  0  0  0
    6.7325  -17.7056   21.2245 O   0  0  0  0  0  0  0  0  0  0  0  0
    6.2593  -15.6351   22.0940 N   0  0  0  0  0  0  0  0  0  0  0  0
    7.6889  -15.2908   22.0735 C   0  0  1  0  0  0  0  0  0  0  0  0
    7.8851  -13.9136   21.4940 C   0  0  0  0  0  0  0  0  0  0  0  0
    7.9052  -13.9972   20.0230 C   0  0  0  0  0  0  0  0  0  0  0  0
    7.1944  -13.1571   19.1879 C   0  0  0  0  0  0  0  0  0  0  0  0
    7.4133  -13.4775   17.9210 N   0  0  0  0  0  0  0  0  0  0  0  0
    8.2595  -14.5183   17.9189 C   0  0  0  0  0  0  0  0  0  0  0  0
    8.5566  -14.8320   19.1963 N   0  0  0  0  0  0  0  0  0  0  0  0
    8.1580  -15.4204   23.4718 C   0  0  0  0  0  0  0  0  0  0  0  0
    7.5573  -14.7656   24.3632 O   0  0  0  0  0  0  0  0  0  0  0  0
    7.9600  -21.7882   27.6216 N   0  0  0  0  0  0  0  0  0  0  0  0
    7.0691  -21.1669   26.6996 C   0  0  0  0  0  0  0  0  0  0  0  0
    6.3088  -21.8677   25.9645 N   0  0  0  0  0  0  0  0  0  0  0  0
    7.0324  -19.7532   26.6040 N   0  0  0  0  0  0  0  0  0  0  0  0
    8.2215  -18.9474   26.7169 C   0  0  0  0  0  0  0  0  0  0  0  0
    8.8569  -18.7310   25.3634 C   0  0  0  0  0  0  0  0  0  0  0  0
   10.0554  -17.8438   25.4035 C   0  0  0  0  0  0  0  0  0  0  0  0
    9.7233  -16.3698   25.2257 C   0  0  2  0  0  0  0  0  0  0  0  0
    9.2337  -16.2300   23.8685 N   0  0  0  0  0  0  0  0  0  0  0  0
   10.8564  -15.4925   25.5174 C   0  0  0  0  0  0  0  0  0  0  0  0
   11.2627  -15.1989   26.7893 O   0  0  0  0  0  0  0  0  0  0  0  0
   11.4974  -14.9753   24.5651 O   0  0  0  0  0  0  0  0  0  0  0  0
  2  1  1  0
  3  2  1  0
  3  4  2  0
  5  3  1  0
  6  5  1  0
  6  7  1  1
  8  7  1  0
  8  9  2  0
 10  9  1  0
 11 10  1  0
 12 11  2  0
 12  8  1  0
 13  6  1  0
 14 13  2  0
 16 15  1  0
 17 16  2  0
 18 16  1  0
 19 20  1  0
 19 18  1  0
 20 21  1  0
 22 23  1  0
 22 21  1  6
 23 13  1  0
 24 22  1  0
 25 24  1  0
 26 24  2  0
M  END
$$$$
