GHR.pdb
     RDKit          3D

 26 26  0  0  1  0  0  0  0  0999 V2000
    6.7761  -22.2005   19.9997 N   0  0  0  0  0  0  0  0  0  0  0  0
    7.8368  -21.2195   20.0639 C   0  0  0  0  0  0  0  0  0  0  0  0
    7.7088  -20.4936   21.3536 C   0  0  0  0  0  0  0  0  0  0  0  0
    7.1670  -19.3405   21.4060 O   0  0  0  0  0  0  0  0  0  0  0  0
    8.1746  -21.0324   22.5846 N   0  0  0  0  0  0  0  0  0  0  0  0
    8.0011  -20.2756   23.8336 C   0  0  1  0  0  0  0  0  0  0  0  0
    8.1668  -21.1869   25.0224 C   0  0  0  0  0  0  0  0  0  0  0  0
    8.1400  -20.3891   26.2611 C   0  0  0  0  0  0  0  0  0  0  0  0
    6.9951  -19.8435   26.8084 C   0  0  0  0  0  0  0  0  0  0  0  0
    7.2879  -19.1821   27.9186 N   0  0  0  0  0  0  0  0  0  0  0  0
    8.6123  -19.2894   28.1027 C   0  0  0  0  0  0  0  0  0  0  0  0
    9.1274  -20.0227   27.0951 N   0  0  0  0  0  0  0  0  0  0  0  0
    8.9919  -19.1766   23.7837 C   0  0  0  0  0  0  0  0  0  0  0  0
   10.1797  -19.4607   23.4791 O   0  0  0  0  0  0  0  0  0  0  0  0
    7.9570  -11.8520   20.2527 N   0  0  0  0  0  0  0  0  0  0  0  0
    7.9228  -13.1201   19.6042 C   0  0  0  0  0  0  0  0  0  0  0  0
    8.1950  -13.2212   18.3692 N   0  0  0  0  0  0  0  0  0  0  0  0
    7.5819  -14.2784   20.3466 N   0  0  0  0  0  0  0  0  0  0  0  0
    7.7128  -14.3346   21.7804 C   0  0  0  0  0  0  0  0  0  0  0  0
    8.7168  -15.3867   22.1895 C   0  0  0  0  0  0  0  0  0  0  0  0
    8.8921  -15.4997   23.6666 C   0  0  0  0  0  0  0  0  0  0  0  0
    9.6507  -16.7479   24.0922 C   0  0  2  0  0  0  0  0  0  0  0  0
    8.6902  -17.8330   24.0551 N   0  0  0  0  0  0  0  0  0  0  0  0
   10.2985  -16.6029   25.3952 C   0  0  0  0  0  0  0  0  0  0  0  0
   11.5680  -16.1182   25.5458 O   0  0  0  0  0  0  0  0  0  0  0  0
    9.6727  -16.9355   26.4359 O   0  0  0  0  0  0  0  0  0  0  0  0
  2  1  1  0
  3  2  1  0
  3  4  2  0
  5  3  1  0
  6  5  1  0
  6  7  1  1
  8  7  1  0
  8  9  2  0
 10  9  1  0
 11 10  1  0
 12 11  2  0
 12  8  1  0
 13  6  1  0
 14 13  2  0
 16 15  1  0
 17 16  2  0
 18 16  1  0
 19 20  1  0
 19 18  1  0
 20 21  1  0
 22 23  1  0
 22 21  1  1
 23 13  1  0
 24 22  1  0
 25 24  1  0
 26 24  2  0
M  END
$$$$
