VIS.pdb
     RDKit          3D

 22 21  0  0  1  0  0  0  0  0999 V2000
   18.6480  -23.9827   -7.8426 C   0  0  0  0  0  0  0  0  0  0  0  0
   19.3585  -22.8587   -8.5355 C   0  0  2  0  0  0  0  0  0  0  0  0
   19.6986  -23.2359   -9.9607 C   0  0  0  0  0  0  0  0  0  0  0  0
   20.6342  -22.4522   -7.8491 C   0  0  2  0  0  0  0  0  0  0  0  0
   20.4540  -22.1115   -6.4704 N   0  0  0  0  0  0  0  0  0  0  0  0
   21.3502  -21.3720   -8.5440 C   0  0  0  0  0  0  0  0  0  0  0  0
   20.9177  -20.2006   -8.6620 O   0  0  0  0  0  0  0  0  0  0  0  0
   26.2626  -20.3032   -7.5003 C   0  0  0  0  0  0  0  0  0  0  0  0
   24.8444  -20.2252   -7.9699 C   0  0  0  0  0  0  0  0  0  0  0  0
   24.7926  -20.7905   -9.3890 C   0  0  2  0  0  0  0  0  0  0  0  0
   25.7895  -20.0388  -10.1979 C   0  0  0  0  0  0  0  0  0  0  0  0
   23.3566  -20.6809   -9.9181 C   0  0  2  0  0  0  0  0  0  0  0  0
   22.6140  -21.6575   -9.1243 N   0  0  0  0  0  0  0  0  0  0  0  0
   23.2372  -20.9314  -11.3487 C   0  0  0  0  0  0  0  0  0  0  0  0
   23.8584  -21.8903  -11.9330 O   0  0  0  0  0  0  0  0  0  0  0  0
   20.2414  -19.2154  -13.4479 O   0  0  0  0  0  0  0  0  0  0  0  0
   20.7687  -20.4056  -13.9095 C   0  0  0  0  0  0  0  0  0  0  0  0
   22.2665  -20.5034  -13.6146 C   0  0  2  0  0  0  0  0  0  0  0  0
   22.4265  -20.1368  -12.1943 N   0  0  0  0  0  0  0  0  0  0  0  0
   22.9528  -19.5246  -14.4831 C   0  0  0  0  0  0  0  0  0  0  0  0
   23.6229  -18.4726  -13.9140 O   0  0  0  0  0  0  0  0  0  0  0  0
   22.9371  -19.6330  -15.7307 O   0  0  0  0  0  0  0  0  0  0  0  0
  2  1  1  1
  2  3  1  0
  4  2  1  0
  4  5  1  1
  4  6  1  0
  6 13  1  0
  6  7  2  0
  8  9  1  0
  9 10  1  0
 10 12  1  0
 10 11  1  6
 12 14  1  0
 12 13  1  1
 14 15  2  0
 16 17  1  0
 18 17  1  6
 18 20  1  0
 19 14  1  0
 19 18  1  0
 20 21  1  0
 22 20  2  0
M  END
$$$$
