VIS.pdb
     RDKit          3D

 22 21  0  0  1  0  0  0  0  0999 V2000
   20.7705  -14.4215  -16.8088 C   0  0  0  0  0  0  0  0  0  0  0  0
   19.7137  -13.8468  -17.7040 C   0  0  2  0  0  0  0  0  0  0  0  0
   19.4389  -14.7693  -18.8713 C   0  0  0  0  0  0  0  0  0  0  0  0
   20.0781  -12.4966  -18.2590 C   0  0  2  0  0  0  0  0  0  0  0  0
   21.1725  -12.5378  -19.1809 N   0  0  0  0  0  0  0  0  0  0  0  0
   20.3355  -11.4900  -17.2185 C   0  0  0  0  0  0  0  0  0  0  0  0
   19.5619  -11.2517  -16.2604 O   0  0  0  0  0  0  0  0  0  0  0  0
   25.1163  -11.4065  -15.3431 C   0  0  0  0  0  0  0  0  0  0  0  0
   23.6351  -11.2254  -15.4478 C   0  0  0  0  0  0  0  0  0  0  0  0
   23.3775   -9.8662  -16.0978 C   0  0  2  0  0  0  0  0  0  0  0  0
   23.9781   -8.8341  -15.2104 C   0  0  0  0  0  0  0  0  0  0  0  0
   21.8683   -9.6943  -16.3144 C   0  0  2  0  0  0  0  0  0  0  0  0
   21.5328  -10.7304  -17.2887 N   0  0  0  0  0  0  0  0  0  0  0  0
   21.4889   -8.3645  -16.7744 C   0  0  0  0  0  0  0  0  0  0  0  0
   21.9049   -7.8769  -17.8861 O   0  0  0  0  0  0  0  0  0  0  0  0
   18.2502   -5.0624  -17.2774 O   0  0  0  0  0  0  0  0  0  0  0  0
   18.7333   -6.2541  -16.7732 C   0  0  0  0  0  0  0  0  0  0  0  0
   20.2487   -6.2010  -16.5721 C   0  0  2  0  0  0  0  0  0  0  0  0
   20.6335   -7.5180  -16.0291 N   0  0  0  0  0  0  0  0  0  0  0  0
   20.5270   -5.1337  -15.5890 C   0  0  0  0  0  0  0  0  0  0  0  0
   20.5864   -3.8300  -16.0087 O   0  0  0  0  0  0  0  0  0  0  0  0
   20.7105   -5.3921  -14.3772 O   0  0  0  0  0  0  0  0  0  0  0  0
  2  1  1  6
  2  3  1  0
  4  2  1  0
  4  5  1  1
  4  6  1  0
  6 13  1  0
  6  7  2  0
  8  9  1  0
  9 10  1  0
 10 12  1  0
 10 11  1  1
 12 14  1  0
 12 13  1  6
 14 15  2  0
 16 17  1  0
 18 17  1  1
 18 20  1  0
 19 14  1  0
 19 18  1  0
 20 21  1  0
 22 20  2  0
M  END
$$$$
