VIS.pdb
     RDKit          3D

 22 21  0  0  1  0  0  0  0  0999 V2000
   16.3421  -10.1832  -16.1411 C   0  0  0  0  0  0  0  0  0  0  0  0
   17.2734  -10.7625  -17.1637 C   0  0  2  0  0  0  0  0  0  0  0  0
   16.5084  -11.5649  -18.1932 C   0  0  0  0  0  0  0  0  0  0  0  0
   18.3236  -11.6595  -16.5670 C   0  0  2  0  0  0  0  0  0  0  0  0
   17.7951  -12.8815  -16.0410 N   0  0  0  0  0  0  0  0  0  0  0  0
   19.1506  -10.9914  -15.5511 C   0  0  0  0  0  0  0  0  0  0  0  0
   18.8417  -10.8988  -14.3391 O   0  0  0  0  0  0  0  0  0  0  0  0
   23.5642  -12.5551  -15.6394 C   0  0  0  0  0  0  0  0  0  0  0  0
   22.6324  -11.7684  -14.7730 C   0  0  0  0  0  0  0  0  0  0  0  0
   22.6397  -10.3242  -15.2734 C   0  0  2  0  0  0  0  0  0  0  0  0
   23.7505   -9.6231  -14.5750 C   0  0  0  0  0  0  0  0  0  0  0  0
   21.2599   -9.7018  -15.0227 C   0  0  2  0  0  0  0  0  0  0  0  0
   20.3813  -10.4085  -15.9522 N   0  0  0  0  0  0  0  0  0  0  0  0
   21.2220   -8.2585  -15.2209 C   0  0  0  0  0  0  0  0  0  0  0  0
   21.4030   -7.7174  -16.3703 O   0  0  0  0  0  0  0  0  0  0  0  0
   19.5495   -4.0057  -14.0272 O   0  0  0  0  0  0  0  0  0  0  0  0
   19.6429   -5.3771  -13.8923 C   0  0  0  0  0  0  0  0  0  0  0  0
   20.9791   -5.8998  -14.4225 C   0  0  2  0  0  0  0  0  0  0  0  0
   20.9808   -7.3520  -14.1608 N   0  0  0  0  0  0  0  0  0  0  0  0
   22.0508   -5.2335  -13.6540 C   0  0  0  0  0  0  0  0  0  0  0  0
   22.5967   -4.0693  -14.1295 O   0  0  0  0  0  0  0  0  0  0  0  0
   22.4740   -5.7081  -12.5749 O   0  0  0  0  0  0  0  0  0  0  0  0
  2  1  1  1
  2  3  1  0
  4  2  1  0
  4  5  1  1
  4  6  1  0
  6 13  1  0
  6  7  2  0
  8  9  1  0
  9 10  1  0
 10 12  1  0
 10 11  1  1
 12 14  1  0
 12 13  1  6
 14 15  2  0
 16 17  1  0
 18 17  1  1
 18 20  1  0
 19 14  1  0
 19 18  1  0
 20 21  1  0
 22 20  2  0
M  END
$$$$
