VIS.pdb
     RDKit          3D

 22 21  0  0  1  0  0  0  0  0999 V2000
   16.3096   -9.5673  -19.0253 C   0  0  0  0  0  0  0  0  0  0  0  0
   17.0364   -9.1393  -17.7856 C   0  0  2  0  0  0  0  0  0  0  0  0
   17.8611   -7.8982  -18.0482 C   0  0  0  0  0  0  0  0  0  0  0  0
   17.9570  -10.1987  -17.2436 C   0  0  2  0  0  0  0  0  0  0  0  0
   17.2869  -11.4205  -16.9161 N   0  0  0  0  0  0  0  0  0  0  0  0
   18.7582   -9.7426  -16.0980 C   0  0  0  0  0  0  0  0  0  0  0  0
   18.3244   -9.6528  -14.9246 O   0  0  0  0  0  0  0  0  0  0  0  0
   23.0403  -11.9810  -14.7945 C   0  0  0  0  0  0  0  0  0  0  0  0
   21.8084  -11.1323  -14.7926 C   0  0  0  0  0  0  0  0  0  0  0  0
   22.2022   -9.7398  -15.2846 C   0  0  2  0  0  0  0  0  0  0  0  0
   23.3106   -9.2636  -14.4139 C   0  0  0  0  0  0  0  0  0  0  0  0
   20.9643   -8.8337  -15.2622 C   0  0  2  0  0  0  0  0  0  0  0  0
   20.1121   -9.3766  -16.3178 N   0  0  0  0  0  0  0  0  0  0  0  0
   21.2653   -7.4231  -15.4705 C   0  0  0  0  0  0  0  0  0  0  0  0
   21.8821   -6.9983  -16.5126 O   0  0  0  0  0  0  0  0  0  0  0  0
   19.1141   -4.4138  -15.5188 O   0  0  0  0  0  0  0  0  0  0  0  0
   20.0635   -4.1709  -14.5455 C   0  0  0  0  0  0  0  0  0  0  0  0
   21.3144   -5.0242  -14.7616 C   0  0  2  0  0  0  0  0  0  0  0  0
   20.8969   -6.4220  -14.5400 N   0  0  0  0  0  0  0  0  0  0  0  0
   22.3096   -4.6139  -13.7494 C   0  0  0  0  0  0  0  0  0  0  0  0
   22.9854   -3.4319  -13.9095 O   0  0  0  0  0  0  0  0  0  0  0  0
   22.5515   -5.3223  -12.7452 O   0  0  0  0  0  0  0  0  0  0  0  0
  2  1  1  6
  2  3  1  0
  4  2  1  0
  4  5  1  1
  4  6  1  0
  6 13  1  0
  6  7  2  0
  8  9  1  0
  9 10  1  0
 10 12  1  0
 10 11  1  1
 12 14  1  0
 12 13  1  6
 14 15  2  0
 16 17  1  0
 18 17  1  1
 18 20  1  0
 19 14  1  0
 19 18  1  0
 20 21  1  0
 22 20  2  0
M  END
$$$$
