VIS.pdb
     RDKit          3D

 22 21  0  0  1  0  0  0  0  0999 V2000
   22.5507  -15.9067  -16.8911 C   0  0  0  0  0  0  0  0  0  0  0  0
   21.3657  -15.3017  -17.5827 C   0  0  2  0  0  0  0  0  0  0  0  0
   20.9838  -16.1125  -18.8017 C   0  0  0  0  0  0  0  0  0  0  0  0
   21.6000  -13.8834  -18.0268 C   0  0  2  0  0  0  0  0  0  0  0  0
   22.6270  -13.7602  -19.0165 N   0  0  0  0  0  0  0  0  0  0  0  0
   21.8630  -12.9607  -16.9125 C   0  0  0  0  0  0  0  0  0  0  0  0
   21.1982  -12.9304  -15.8494 O   0  0  0  0  0  0  0  0  0  0  0  0
   26.8536  -12.0951  -15.6995 C   0  0  0  0  0  0  0  0  0  0  0  0
   25.3676  -12.2197  -15.5810 C   0  0  0  0  0  0  0  0  0  0  0  0
   24.7516  -10.9002  -16.0452 C   0  0  2  0  0  0  0  0  0  0  0  0
   25.2819   -9.8314  -15.1565 C   0  0  0  0  0  0  0  0  0  0  0  0
   23.2227  -11.0260  -16.0184 C   0  0  2  0  0  0  0  0  0  0  0  0
   22.9354  -12.0382  -17.0323 N   0  0  0  0  0  0  0  0  0  0  0  0
   22.5258   -9.7732  -16.2802 C   0  0  0  0  0  0  0  0  0  0  0  0
   22.7171   -9.0906  -17.3499 O   0  0  0  0  0  0  0  0  0  0  0  0
   18.7206   -6.9778  -15.3749 O   0  0  0  0  0  0  0  0  0  0  0  0
   19.4536   -8.1360  -15.2049 C   0  0  0  0  0  0  0  0  0  0  0  0
   20.8854   -7.9700  -15.7167 C   0  0  2  0  0  0  0  0  0  0  0  0
   21.5876   -9.2219  -15.3749 N   0  0  0  0  0  0  0  0  0  0  0  0
   21.4829   -6.8271  -14.9956 C   0  0  0  0  0  0  0  0  0  0  0  0
   21.3478   -5.5626  -15.5075 O   0  0  0  0  0  0  0  0  0  0  0  0
   22.1118   -6.9862  -13.9242 O   0  0  0  0  0  0  0  0  0  0  0  0
  2  1  1  6
  2  3  1  0
  4  2  1  0
  4  5  1  6
  4  6  1  0
  6 13  1  0
  6  7  2  0
  8  9  1  0
  9 10  1  0
 10 12  1  0
 10 11  1  1
 12 14  1  0
 12 13  1  6
 14 15  2  0
 16 17  1  0
 18 17  1  1
 18 20  1  0
 19 14  1  0
 19 18  1  0
 20 21  1  0
 22 20  2  0
M  END
$$$$
