VIS.pdb
     RDKit          3D

 22 21  0  0  1  0  0  0  0  0999 V2000
   18.9663  -24.1122   -7.5143 C   0  0  0  0  0  0  0  0  0  0  0  0
   19.6770  -22.9971   -8.2213 C   0  0  2  0  0  0  0  0  0  0  0  0
   20.1630  -23.4473   -9.5816 C   0  0  0  0  0  0  0  0  0  0  0  0
   20.8629  -22.4730   -7.4580 C   0  0  2  0  0  0  0  0  0  0  0  0
   20.5422  -22.0541   -6.1273 N   0  0  0  0  0  0  0  0  0  0  0  0
   21.5808  -21.4006   -8.1629 C   0  0  0  0  0  0  0  0  0  0  0  0
   21.1000  -20.2666   -8.3996 O   0  0  0  0  0  0  0  0  0  0  0  0
   26.4459  -20.2154   -6.9274 C   0  0  0  0  0  0  0  0  0  0  0  0
   25.0506  -20.1538   -7.4633 C   0  0  0  0  0  0  0  0  0  0  0  0
   25.0676  -20.7429   -8.8736 C   0  0  2  0  0  0  0  0  0  0  0  0
   26.0542  -19.9594   -9.6649 C   0  0  0  0  0  0  0  0  0  0  0  0
   23.6450  -20.7067   -9.4471 C   0  0  2  0  0  0  0  0  0  0  0  0
   22.9048  -21.6491   -8.6109 N   0  0  0  0  0  0  0  0  0  0  0  0
   23.5729  -21.0530  -10.8608 C   0  0  0  0  0  0  0  0  0  0  0  0
   24.0836  -22.1321  -11.3313 O   0  0  0  0  0  0  0  0  0  0  0  0
   20.6251  -19.7107  -13.0033 O   0  0  0  0  0  0  0  0  0  0  0  0
   21.3226  -20.7938  -13.5012 C   0  0  0  0  0  0  0  0  0  0  0  0
   22.8205  -20.6713  -13.2163 C   0  0  2  0  0  0  0  0  0  0  0  0
   22.9329  -20.2252  -11.8142 N   0  0  0  0  0  0  0  0  0  0  0  0
   23.3620  -19.6455  -14.1315 C   0  0  0  0  0  0  0  0  0  0  0  0
   23.3566  -19.8777  -15.4826 O   0  0  0  0  0  0  0  0  0  0  0  0
   23.8276  -18.5652  -13.7014 O   0  0  0  0  0  0  0  0  0  0  0  0
  2  1  1  1
  2  3  1  0
  4  2  1  0
  4  5  1  1
  4  6  1  0
  6 13  1  0
  6  7  2  0
  8  9  1  0
  9 10  1  0
 10 12  1  0
 10 11  1  6
 12 14  1  0
 12 13  1  1
 14 15  2  0
 16 17  1  0
 18 17  1  6
 18 20  1  0
 19 14  1  0
 19 18  1  0
 20 21  1  0
 22 20  2  0
M  END
$$$$
