VIS.pdb
     RDKit          3D

 22 21  0  0  1  0  0  0  0  0999 V2000
   17.4270  -12.3257  -19.5663 C   0  0  0  0  0  0  0  0  0  0  0  0
   17.9728  -11.8383  -18.2575 C   0  0  2  0  0  0  0  0  0  0  0  0
   16.9076  -11.1065  -17.4707 C   0  0  0  0  0  0  0  0  0  0  0  0
   19.1483  -10.9124  -18.4142 C   0  0  2  0  0  0  0  0  0  0  0  0
   20.1920  -11.4524  -19.2317 N   0  0  0  0  0  0  0  0  0  0  0  0
   19.7018  -10.4525  -17.1319 C   0  0  0  0  0  0  0  0  0  0  0  0
   19.0087  -10.1620  -16.1277 O   0  0  0  0  0  0  0  0  0  0  0  0
   24.0043  -12.8441  -15.4559 C   0  0  0  0  0  0  0  0  0  0  0  0
   22.7158  -12.0872  -15.5238 C   0  0  0  0  0  0  0  0  0  0  0  0
   23.0545  -10.6071  -15.6999 C   0  0  2  0  0  0  0  0  0  0  0  0
   23.9150  -10.2140  -14.5516 C   0  0  0  0  0  0  0  0  0  0  0  0
   21.7506   -9.8048  -15.7997 C   0  0  2  0  0  0  0  0  0  0  0  0
   21.1100  -10.3239  -17.0062 N   0  0  0  0  0  0  0  0  0  0  0  0
   21.9517   -8.3628  -15.8618 C   0  0  0  0  0  0  0  0  0  0  0  0
   22.7092   -7.8114  -16.7386 O   0  0  0  0  0  0  0  0  0  0  0  0
   19.2776   -5.7620  -14.5242 O   0  0  0  0  0  0  0  0  0  0  0  0
   20.2824   -5.3462  -15.3758 C   0  0  0  0  0  0  0  0  0  0  0  0
   21.6125   -6.0236  -15.0414 C   0  0  2  0  0  0  0  0  0  0  0  0
   21.3244   -7.4686  -14.9614 N   0  0  0  0  0  0  0  0  0  0  0  0
   22.0526   -5.5094  -13.7280 C   0  0  0  0  0  0  0  0  0  0  0  0
   22.5065   -4.2198  -13.6271 O   0  0  0  0  0  0  0  0  0  0  0  0
   22.0208   -6.2257  -12.7010 O   0  0  0  0  0  0  0  0  0  0  0  0
  2  1  1  6
  2  3  1  0
  4  2  1  0
  4  5  1  1
  4  6  1  0
  6 13  1  0
  6  7  2  0
  8  9  1  0
  9 10  1  0
 10 12  1  0
 10 11  1  1
 12 14  1  0
 12 13  1  6
 14 15  2  0
 16 17  1  0
 18 17  1  1
 18 20  1  0
 19 14  1  0
 19 18  1  0
 20 21  1  0
 22 20  2  0
M  END
$$$$
