VIS.pdb
     RDKit          3D

 22 21  0  0  1  0  0  0  0  0999 V2000
   22.9767  -11.3268  -15.3495 C   0  0  0  0  0  0  0  0  0  0  0  0
   22.5993  -12.6783  -15.8778 C   0  0  2  0  0  0  0  0  0  0  0  0
   22.6906  -12.7093  -17.3878 C   0  0  0  0  0  0  0  0  0  0  0  0
   21.2069  -13.0974  -15.4912 C   0  0  2  0  0  0  0  0  0  0  0  0
   20.9204  -14.4665  -15.7957 N   0  0  0  0  0  0  0  0  0  0  0  0
   20.1612  -12.2287  -16.0517 C   0  0  0  0  0  0  0  0  0  0  0  0
   20.0717  -11.9247  -17.2652 O   0  0  0  0  0  0  0  0  0  0  0  0
   16.5315  -13.9254  -15.5561 C   0  0  0  0  0  0  0  0  0  0  0  0
   16.4450  -12.5849  -16.2144 C   0  0  0  0  0  0  0  0  0  0  0  0
   16.8278  -11.5310  -15.1756 C   0  0  2  0  0  0  0  0  0  0  0  0
   15.6580  -10.6256  -15.0170 C   0  0  0  0  0  0  0  0  0  0  0  0
   18.1055  -10.8170  -15.6360 C   0  0  2  0  0  0  0  0  0  0  0  0
   19.1820  -11.6913  -15.1754 N   0  0  0  0  0  0  0  0  0  0  0  0
   18.2395   -9.4614  -15.1183 C   0  0  0  0  0  0  0  0  0  0  0  0
   18.4577   -9.2177  -13.8774 O   0  0  0  0  0  0  0  0  0  0  0  0
   18.7245   -4.7273  -16.1286 O   0  0  0  0  0  0  0  0  0  0  0  0
   18.5439   -6.0300  -16.5505 C   0  0  0  0  0  0  0  0  0  0  0  0
   18.3190   -6.9731  -15.3674 C   0  0  2  0  0  0  0  0  0  0  0  0
   18.1409   -8.3182  -15.9473 N   0  0  0  0  0  0  0  0  0  0  0  0
   17.0847   -6.5364  -14.6825 C   0  0  0  0  0  0  0  0  0  0  0  0
   17.1760   -5.7189  -13.5858 O   0  0  0  0  0  0  0  0  0  0  0  0
   15.9532   -6.8964  -15.0810 O   0  0  0  0  0  0  0  0  0  0  0  0
  2  1  1  6
  2  3  1  0
  4  2  1  0
  4  5  1  6
  4  6  1  0
  6 13  1  0
  6  7  2  0
  8  9  1  0
  9 10  1  0
 10 12  1  0
 10 11  1  6
 12 14  1  0
 12 13  1  1
 14 15  2  0
 16 17  1  0
 18 17  1  6
 18 20  1  0
 19 14  1  0
 19 18  1  0
 20 21  1  0
 22 20  2  0
M  END
$$$$
