VIS.pdb
     RDKit          3D

 22 21  0  0  1  0  0  0  0  0999 V2000
   17.3759  -13.4679  -19.0178 C   0  0  0  0  0  0  0  0  0  0  0  0
   17.5673  -12.4818  -17.9046 C   0  0  2  0  0  0  0  0  0  0  0  0
   17.5845  -11.0662  -18.4383 C   0  0  0  0  0  0  0  0  0  0  0  0
   18.8407  -12.6995  -17.1334 C   0  0  2  0  0  0  0  0  0  0  0  0
   18.9332  -14.0012  -16.5449 N   0  0  0  0  0  0  0  0  0  0  0  0
   19.0869  -11.6688  -16.1139 C   0  0  0  0  0  0  0  0  0  0  0  0
   18.4651  -11.5878  -15.0277 O   0  0  0  0  0  0  0  0  0  0  0  0
   23.8156  -11.1028  -14.5227 C   0  0  0  0  0  0  0  0  0  0  0  0
   22.3243  -11.0548  -14.6302 C   0  0  0  0  0  0  0  0  0  0  0  0
   21.9473   -9.7223  -15.2771 C   0  0  2  0  0  0  0  0  0  0  0  0
   22.5385   -8.6445  -14.4392 C   0  0  0  0  0  0  0  0  0  0  0  0
   20.4202   -9.6422  -15.4020 C   0  0  2  0  0  0  0  0  0  0  0  0
   20.0902  -10.6950  -16.3601 N   0  0  0  0  0  0  0  0  0  0  0  0
   19.9338   -8.3371  -15.8309 C   0  0  0  0  0  0  0  0  0  0  0  0
   20.2813   -7.8065  -16.9465 O   0  0  0  0  0  0  0  0  0  0  0  0
   16.3065   -6.9104  -15.1560 O   0  0  0  0  0  0  0  0  0  0  0  0
   17.2623   -5.9687  -14.8285 C   0  0  0  0  0  0  0  0  0  0  0  0
   18.5874   -6.2486  -15.5394 C   0  0  2  0  0  0  0  0  0  0  0  0
   19.0425   -7.5638  -15.0492 N   0  0  0  0  0  0  0  0  0  0  0  0
   19.5364   -5.1893  -15.1386 C   0  0  0  0  0  0  0  0  0  0  0  0
   19.3755   -3.9196  -15.6296 O   0  0  0  0  0  0  0  0  0  0  0  0
   20.4877   -5.4243  -14.3585 O   0  0  0  0  0  0  0  0  0  0  0  0
  2  1  1  6
  2  3  1  0
  4  2  1  0
  4  5  1  1
  4  6  1  0
  6 13  1  0
  6  7  2  0
  8  9  1  0
  9 10  1  0
 10 12  1  0
 10 11  1  1
 12 14  1  0
 12 13  1  6
 14 15  2  0
 16 17  1  0
 18 17  1  1
 18 20  1  0
 19 14  1  0
 19 18  1  0
 20 21  1  0
 22 20  2  0
M  END
$$$$
