VIS.pdb
     RDKit          3D

 22 21  0  0  1  0  0  0  0  0999 V2000
   16.4014  -10.4791  -18.1647 C   0  0  0  0  0  0  0  0  0  0  0  0
   16.8551   -9.5291  -17.0969 C   0  0  2  0  0  0  0  0  0  0  0  0
   17.2539   -8.1984  -17.6963 C   0  0  0  0  0  0  0  0  0  0  0  0
   18.0235  -10.0458  -16.3023 C   0  0  2  0  0  0  0  0  0  0  0  0
   17.7588  -11.2903  -15.6464 N   0  0  0  0  0  0  0  0  0  0  0  0
   18.5466   -9.0695  -15.3350 C   0  0  0  0  0  0  0  0  0  0  0  0
   17.9568   -8.7364  -14.2794 O   0  0  0  0  0  0  0  0  0  0  0  0
   23.2014   -9.6339  -13.4955 C   0  0  0  0  0  0  0  0  0  0  0  0
   21.7867   -9.1836  -13.6787 C   0  0  0  0  0  0  0  0  0  0  0  0
   21.8113   -7.8952  -14.5008 C   0  0  2  0  0  0  0  0  0  0  0  0
   22.6497   -6.9163  -13.7578 C   0  0  0  0  0  0  0  0  0  0  0  0
   20.3699   -7.4244  -14.7346 C   0  0  2  0  0  0  0  0  0  0  0  0
   19.7991   -8.4554  -15.5986 N   0  0  0  0  0  0  0  0  0  0  0  0
   20.2749   -6.0966  -15.3276 C   0  0  0  0  0  0  0  0  0  0  0  0
   20.8797   -5.7845  -16.4155 O   0  0  0  0  0  0  0  0  0  0  0  0
   17.6929   -3.3198  -13.8209 O   0  0  0  0  0  0  0  0  0  0  0  0
   18.0777   -3.1704  -15.1389 C   0  0  0  0  0  0  0  0  0  0  0  0
   19.4841   -3.7234  -15.3753 C   0  0  2  0  0  0  0  0  0  0  0  0
   19.5075   -5.0583  -14.7472 N   0  0  0  0  0  0  0  0  0  0  0  0
   20.4350   -2.8161  -14.7001 C   0  0  0  0  0  0  0  0  0  0  0  0
   20.5934   -1.5371  -15.1675 O   0  0  0  0  0  0  0  0  0  0  0  0
   21.1022   -3.1886  -13.7077 O   0  0  0  0  0  0  0  0  0  0  0  0
  2  1  1  6
  2  3  1  0
  4  2  1  0
  4  5  1  1
  4  6  1  0
  6 13  1  0
  6  7  2  0
  8  9  1  0
  9 10  1  0
 10 12  1  0
 10 11  1  1
 12 14  1  0
 12 13  1  6
 14 15  2  0
 16 17  1  0
 18 17  1  1
 18 20  1  0
 19 14  1  0
 19 18  1  0
 20 21  1  0
 22 20  2  0
M  END
$$$$
