VIS.pdb
     RDKit          3D

 22 21  0  0  1  0  0  0  0  0999 V2000
   16.2297  -10.8478  -18.3348 C   0  0  0  0  0  0  0  0  0  0  0  0
   17.0404  -10.1260  -17.3003 C   0  0  2  0  0  0  0  0  0  0  0  0
   17.7653   -8.9474  -17.9123 C   0  0  0  0  0  0  0  0  0  0  0  0
   18.0657  -11.0028  -16.6341 C   0  0  2  0  0  0  0  0  0  0  0  0
   17.5010  -12.1522  -15.9943 N   0  0  0  0  0  0  0  0  0  0  0  0
   18.9280  -10.2758  -15.6906 C   0  0  0  0  0  0  0  0  0  0  0  0
   18.5456   -9.8361  -14.5800 O   0  0  0  0  0  0  0  0  0  0  0  0
   23.6059  -12.2340  -14.8658 C   0  0  0  0  0  0  0  0  0  0  0  0
   22.3334  -11.4704  -14.6780 C   0  0  0  0  0  0  0  0  0  0  0  0
   22.5234  -10.0886  -15.3029 C   0  0  2  0  0  0  0  0  0  0  0  0
   23.6671   -9.4438  -14.6033 C   0  0  0  0  0  0  0  0  0  0  0  0
   21.2088   -9.3054  -15.1924 C   0  0  2  0  0  0  0  0  0  0  0  0
   20.2839  -10.0489  -16.0451 N   0  0  0  0  0  0  0  0  0  0  0  0
   21.3221   -7.9086  -15.5921 C   0  0  0  0  0  0  0  0  0  0  0  0
   21.7794   -7.5563  -16.7382 O   0  0  0  0  0  0  0  0  0  0  0  0
   19.9491   -3.3516  -15.0582 O   0  0  0  0  0  0  0  0  0  0  0  0
   19.8428   -4.7048  -14.8027 C   0  0  0  0  0  0  0  0  0  0  0  0
   21.1231   -5.4473  -15.1888 C   0  0  2  0  0  0  0  0  0  0  0  0
   20.9339   -6.8422  -14.7460 N   0  0  0  0  0  0  0  0  0  0  0  0
   22.2387   -4.8169  -14.4531 C   0  0  0  0  0  0  0  0  0  0  0  0
   22.9678   -3.8248  -15.0559 O   0  0  0  0  0  0  0  0  0  0  0  0
   22.5352   -5.1682  -13.2880 O   0  0  0  0  0  0  0  0  0  0  0  0
  2  1  1  6
  2  3  1  0
  4  2  1  0
  4  5  1  1
  4  6  1  0
  6 13  1  0
  6  7  2  0
  8  9  1  0
  9 10  1  0
 10 12  1  0
 10 11  1  1
 12 14  1  0
 12 13  1  6
 14 15  2  0
 16 17  1  0
 18 17  1  1
 18 20  1  0
 19 14  1  0
 19 18  1  0
 20 21  1  0
 22 20  2  0
M  END
$$$$
