VIS.pdb
     RDKit          3D

 22 21  0  0  1  0  0  0  0  0999 V2000
   26.2212  -18.8163  -16.0811 C   0  0  0  0  0  0  0  0  0  0  0  0
   27.1675  -18.6100  -14.9364 C   0  0  2  0  0  0  0  0  0  0  0  0
   28.3679  -17.7985  -15.3718 C   0  0  0  0  0  0  0  0  0  0  0  0
   27.6715  -19.8985  -14.3454 C   0  0  2  0  0  0  0  0  0  0  0  0
   28.4396  -20.6829  -15.2641 N   0  0  0  0  0  0  0  0  0  0  0  0
   26.6078  -20.7209  -13.7500 C   0  0  0  0  0  0  0  0  0  0  0  0
   26.1382  -21.7573  -14.2776 O   0  0  0  0  0  0  0  0  0  0  0  0
   26.4466  -20.8209   -8.4294 C   0  0  0  0  0  0  0  0  0  0  0  0
   26.2942  -21.2812   -9.8446 C   0  0  0  0  0  0  0  0  0  0  0  0
   25.0216  -20.6471  -10.4055 C   0  0  2  0  0  0  0  0  0  0  0  0
   23.8842  -21.1473   -9.5873 C   0  0  0  0  0  0  0  0  0  0  0  0
   24.9089  -20.9889  -11.8970 C   0  0  2  0  0  0  0  0  0  0  0  0
   26.0668  -20.3297  -12.4971 N   0  0  0  0  0  0  0  0  0  0  0  0
   23.6561  -20.5591  -12.5048 C   0  0  0  0  0  0  0  0  0  0  0  0
   23.3037  -19.3262  -12.5550 O   0  0  0  0  0  0  0  0  0  0  0  0
   21.3872  -23.1156  -14.7564 O   0  0  0  0  0  0  0  0  0  0  0  0
   21.2757  -21.7547  -14.9646 C   0  0  0  0  0  0  0  0  0  0  0  0
   21.4786  -20.9734  -13.6653 C   0  0  2  0  0  0  0  0  0  0  0  0
   22.7409  -21.4701  -13.0846 N   0  0  0  0  0  0  0  0  0  0  0  0
   20.3403  -21.2887  -12.7776 C   0  0  0  0  0  0  0  0  0  0  0  0
   19.0838  -20.8557  -13.1137 O   0  0  0  0  0  0  0  0  0  0  0  0
   20.4961  -21.9443  -11.7218 O   0  0  0  0  0  0  0  0  0  0  0  0
  2  1  1  6
  2  3  1  0
  4  2  1  0
  4  5  1  6
  4  6  1  0
  6 13  1  0
  6  7  2  0
  8  9  1  0
  9 10  1  0
 10 12  1  0
 10 11  1  1
 12 14  1  0
 12 13  1  6
 14 15  2  0
 16 17  1  0
 18 17  1  6
 18 20  1  0
 19 14  1  0
 19 18  1  0
 20 21  1  0
 22 20  2  0
M  END
$$$$
