VIS.pdb
     RDKit          3D

 22 21  0  0  1  0  0  0  0  0999 V2000
   19.5636  -10.5288  -18.9789 C   0  0  0  0  0  0  0  0  0  0  0  0
   20.8723  -10.9831  -19.5528 C   0  0  2  0  0  0  0  0  0  0  0  0
   20.6558  -11.7669  -20.8287 C   0  0  0  0  0  0  0  0  0  0  0  0
   21.6643  -11.8471  -18.6094 C   0  0  2  0  0  0  0  0  0  0  0  0
   21.0720  -13.1302  -18.3810 N   0  0  0  0  0  0  0  0  0  0  0  0
   21.9545  -11.1922  -17.3252 C   0  0  0  0  0  0  0  0  0  0  0  0
   21.3227  -11.4091  -16.2637 O   0  0  0  0  0  0  0  0  0  0  0  0
   26.7361  -11.2867  -15.7709 C   0  0  0  0  0  0  0  0  0  0  0  0
   25.2451  -11.1689  -15.7967 C   0  0  0  0  0  0  0  0  0  0  0  0
   24.8980   -9.6893  -15.9594 C   0  0  2  0  0  0  0  0  0  0  0  0
   25.5117   -8.9657  -14.8135 C   0  0  0  0  0  0  0  0  0  0  0  0
   23.3732   -9.5400  -16.0410 C   0  0  2  0  0  0  0  0  0  0  0  0
   23.0155  -10.2508  -17.2667 N   0  0  0  0  0  0  0  0  0  0  0  0
   22.9188   -8.1555  -16.0566 C   0  0  0  0  0  0  0  0  0  0  0  0
   23.2150   -7.3453  -17.0066 O   0  0  0  0  0  0  0  0  0  0  0  0
   19.3427   -7.0058  -15.0354 O   0  0  0  0  0  0  0  0  0  0  0  0
   20.2734   -6.1990  -14.4106 C   0  0  0  0  0  0  0  0  0  0  0  0
   21.6154   -6.2245  -15.1441 C   0  0  2  0  0  0  0  0  0  0  0  0
   22.1172   -7.6072  -15.0267 N   0  0  0  0  0  0  0  0  0  0  0  0
   22.5180   -5.2847  -14.4474 C   0  0  0  0  0  0  0  0  0  0  0  0
   22.3653   -3.9361  -14.6402 O   0  0  0  0  0  0  0  0  0  0  0  0
   23.4223   -5.6918  -13.6824 O   0  0  0  0  0  0  0  0  0  0  0  0
  2  1  1  1
  2  3  1  0
  4  2  1  0
  4  5  1  1
  4  6  1  0
  6 13  1  0
  6  7  2  0
  8  9  1  0
  9 10  1  0
 10 12  1  0
 10 11  1  1
 12 14  1  0
 12 13  1  6
 14 15  2  0
 16 17  1  0
 18 17  1  1
 18 20  1  0
 19 14  1  0
 19 18  1  0
 20 21  1  0
 22 20  2  0
M  END
$$$$
