PAL.pdb
     RDKit          3D

 21 21  0  0  1  0  0  0  0  0999 V2000
   17.0393  -11.3086  -17.8870 N   0  0  0  0  0  0  0  0  0  0  0  0
   16.7343  -12.1490  -19.0044 C   0  0  0  0  0  0  0  0  0  0  0  0
   17.3519  -13.4785  -18.6185 C   0  0  0  0  0  0  0  0  0  0  0  0
   18.6784  -13.0144  -18.0398 C   0  0  0  0  0  0  0  0  0  0  0  0
   18.2151  -11.8060  -17.2424 C   0  0  1  0  0  0  0  0  0  0  0  0
   19.2388  -10.7396  -17.1968 C   0  0  0  0  0  0  0  0  0  0  0  0
   20.3675  -10.9730  -16.6968 O   0  0  0  0  0  0  0  0  0  0  0  0
   19.4836   -7.2620  -18.5922 C   0  0  0  0  0  0  0  0  0  0  0  0
   19.9796   -8.3658  -17.6489 C   0  0  2  0  0  0  0  0  0  0  0  0
   19.0213   -9.4255  -17.6981 N   0  0  0  0  0  0  0  0  0  0  0  0
   20.0638   -7.7358  -16.3014 C   0  0  0  0  0  0  0  0  0  0  0  0
   18.9906   -7.5125  -15.6851 O   0  0  0  0  0  0  0  0  0  0  0  0
   20.8065   -8.8719  -12.0309 C   0  0  0  0  0  0  0  0  0  0  0  0
   21.8708   -9.0310  -13.1346 C   0  0  2  0  0  0  0  0  0  0  0  0
   22.9720   -9.9008  -12.5623 C   0  0  0  0  0  0  0  0  0  0  0  0
   22.3884   -7.6966  -13.5554 C   0  0  0  0  0  0  0  0  0  0  0  0
   21.3934   -6.8729  -14.3176 C   0  0  2  0  0  0  0  0  0  0  0  0
   21.2801   -7.3835  -15.6948 N   0  0  0  0  0  0  0  0  0  0  0  0
   21.8279   -5.4653  -14.4131 C   0  0  0  0  0  0  0  0  0  0  0  0
   21.8243   -4.5493  -13.3740 O   0  0  0  0  0  0  0  0  0  0  0  0
   22.2439   -5.0204  -15.5208 O   0  0  0  0  0  0  0  0  0  0  0  0
  1  2  1  0
  3  2  1  0
  4  3  1  0
  5  4  1  0
  5  1  1  0
  5  6  1  6
  7  6  2  0
  9  8  1  6
  9 10  1  0
 10  6  1  0
 11  9  1  0
 11 18  1  0
 12 11  2  0
 14 13  1  1
 14 16  1  0
 14 15  1  0
 17 18  1  0
 17 19  1  0
 17 16  1  1
 19 20  1  0
 21 19  2  0
M  END
$$$$
