PAL.pdb
     RDKit          3D

 21 21  0  0  1  0  0  0  0  0999 V2000
   20.5566  -12.6347  -17.6710 N   0  0  0  0  0  0  0  0  0  0  0  0
   19.8718  -13.1186  -18.8306 C   0  0  0  0  0  0  0  0  0  0  0  0
   20.6788  -12.5419  -19.9770 C   0  0  0  0  0  0  0  0  0  0  0  0
   20.9227  -11.1312  -19.4668 C   0  0  0  0  0  0  0  0  0  0  0  0
   21.2387  -11.4240  -18.0090 C   0  0  1  0  0  0  0  0  0  0  0  0
   20.7889  -10.3392  -17.1101 C   0  0  0  0  0  0  0  0  0  0  0  0
   19.6294  -10.3634  -16.6273 O   0  0  0  0  0  0  0  0  0  0  0  0
   22.4805   -7.3732  -15.5336 C   0  0  0  0  0  0  0  0  0  0  0  0
   21.2219   -8.1928  -15.8475 C   0  0  2  0  0  0  0  0  0  0  0  0
   21.6102   -9.2355  -16.7453 N   0  0  0  0  0  0  0  0  0  0  0  0
   20.2623   -7.2359  -16.4664 C   0  0  0  0  0  0  0  0  0  0  0  0
   20.2391   -7.1501  -17.7208 O   0  0  0  0  0  0  0  0  0  0  0  0
   14.9156   -4.5695  -15.0133 C   0  0  0  0  0  0  0  0  0  0  0  0
   16.0544   -4.6765  -16.0466 C   0  0  2  0  0  0  0  0  0  0  0  0
   15.4283   -5.1437  -17.3452 C   0  0  0  0  0  0  0  0  0  0  0  0
   17.1024   -5.6255  -15.5703 C   0  0  0  0  0  0  0  0  0  0  0  0
   18.4027   -5.5139  -16.3095 C   0  0  2  0  0  0  0  0  0  0  0  0
   19.3898   -6.4322  -15.7154 N   0  0  0  0  0  0  0  0  0  0  0  0
   18.9614   -4.1516  -16.2032 C   0  0  0  0  0  0  0  0  0  0  0  0
   19.9587   -3.7566  -15.3268 O   0  0  0  0  0  0  0  0  0  0  0  0
   18.5170   -3.2404  -16.9582 O   0  0  0  0  0  0  0  0  0  0  0  0
  1  2  1  0
  3  2  1  0
  4  3  1  0
  5  4  1  0
  5  1  1  0
  5  6  1  1
  7  6  2  0
  9  8  1  6
  9 10  1  0
 10  6  1  0
 11  9  1  0
 11 18  1  0
 12 11  2  0
 14 13  1  1
 14 16  1  0
 14 15  1  0
 17 18  1  0
 17 19  1  0
 17 16  1  1
 19 20  1  0
 21 19  2  0
M  END
$$$$
