PAL.pdb
     RDKit          3D

 21 21  0  0  1  0  0  0  0  0999 V2000
   17.1960  -14.6101  -16.7351 N   0  0  0  0  0  0  0  0  0  0  0  0
   16.0827  -15.1808  -17.4299 C   0  0  0  0  0  0  0  0  0  0  0  0
   16.7234  -16.2443  -18.2996 C   0  0  0  0  0  0  0  0  0  0  0  0
   17.9478  -15.4966  -18.8012 C   0  0  0  0  0  0  0  0  0  0  0  0
   18.3755  -14.7939  -17.5229 C   0  0  1  0  0  0  0  0  0  0  0  0
   18.9986  -13.4792  -17.7885 C   0  0  0  0  0  0  0  0  0  0  0  0
   20.1452  -13.4188  -18.2982 O   0  0  0  0  0  0  0  0  0  0  0  0
   17.8573   -9.9847  -18.0883 C   0  0  0  0  0  0  0  0  0  0  0  0
   18.9675  -10.9549  -17.6636 C   0  0  2  0  0  0  0  0  0  0  0  0
   18.3636  -12.2398  -17.4949 N   0  0  0  0  0  0  0  0  0  0  0  0
   19.5127  -10.4097  -16.3889 C   0  0  0  0  0  0  0  0  0  0  0  0
   18.8855  -10.6519  -15.3261 O   0  0  0  0  0  0  0  0  0  0  0  0
   22.6562  -11.3463  -13.4929 C   0  0  0  0  0  0  0  0  0  0  0  0
   23.1245  -10.8640  -14.8800 C   0  0  2  0  0  0  0  0  0  0  0  0
   24.6241  -11.0757  -14.9367 C   0  0  0  0  0  0  0  0  0  0  0  0
   22.7649   -9.4303  -15.0819 C   0  0  0  0  0  0  0  0  0  0  0  0
   21.2883   -9.1672  -15.0655 C   0  0  2  0  0  0  0  0  0  0  0  0
   20.6872   -9.6431  -16.3234 N   0  0  0  0  0  0  0  0  0  0  0  0
   21.0052   -7.7215  -14.9711 C   0  0  0  0  0  0  0  0  0  0  0  0
   20.9140   -6.9940  -13.7959 O   0  0  0  0  0  0  0  0  0  0  0  0
   20.8232   -7.0567  -16.0307 O   0  0  0  0  0  0  0  0  0  0  0  0
  1  2  1  0
  3  2  1  0
  4  3  1  0
  5  4  1  0
  5  1  1  0
  5  6  1  6
  7  6  2  0
  9  8  1  1
  9 10  1  0
 10  6  1  0
 11  9  1  0
 11 18  1  0
 12 11  2  0
 14 13  1  1
 14 16  1  0
 14 15  1  0
 17 18  1  0
 17 19  1  0
 17 16  1  6
 19 20  1  0
 21 19  2  0
M  END
$$$$
