PAL.pdb
     RDKit          3D

 21 21  0  0  1  0  0  0  0  0999 V2000
   18.3169  -12.9407  -16.3103 N   0  0  0  0  0  0  0  0  0  0  0  0
   17.1575  -12.5698  -17.0627 C   0  0  0  0  0  0  0  0  0  0  0  0
   17.7350  -12.1035  -18.3844 C   0  0  0  0  0  0  0  0  0  0  0  0
   18.9240  -11.2902  -17.8999 C   0  0  0  0  0  0  0  0  0  0  0  0
   19.4395  -12.1996  -16.7963 C   0  0  1  0  0  0  0  0  0  0  0  0
   20.0459  -11.4394  -15.6821 C   0  0  0  0  0  0  0  0  0  0  0  0
   19.3369  -11.0737  -14.7117 O   0  0  0  0  0  0  0  0  0  0  0  0
   23.5440  -10.4751  -14.7280 C   0  0  0  0  0  0  0  0  0  0  0  0
   22.0255  -10.2852  -14.6156 C   0  0  2  0  0  0  0  0  0  0  0  0
   21.4234  -11.0842  -15.6368 N   0  0  0  0  0  0  0  0  0  0  0  0
   21.7862   -8.8286  -14.8164 C   0  0  0  0  0  0  0  0  0  0  0  0
   22.2712   -8.0284  -13.9763 O   0  0  0  0  0  0  0  0  0  0  0  0
   19.4002   -5.0402  -19.1559 C   0  0  0  0  0  0  0  0  0  0  0  0
   20.1903   -5.1855  -17.8405 C   0  0  2  0  0  0  0  0  0  0  0  0
   21.5020   -4.4507  -18.0312 C   0  0  0  0  0  0  0  0  0  0  0  0
   20.4100   -6.6261  -17.5210 C   0  0  0  0  0  0  0  0  0  0  0  0
   20.7619   -6.8823  -16.0857 C   0  0  2  0  0  0  0  0  0  0  0  0
   21.0482   -8.3148  -15.8947 N   0  0  0  0  0  0  0  0  0  0  0  0
   19.6368   -6.5437  -15.1920 C   0  0  0  0  0  0  0  0  0  0  0  0
   19.5067   -5.3679  -14.4715 O   0  0  0  0  0  0  0  0  0  0  0  0
   18.6934   -7.3720  -15.0446 O   0  0  0  0  0  0  0  0  0  0  0  0
  1  2  1  0
  3  2  1  0
  4  3  1  0
  5  4  1  0
  5  1  1  0
  5  6  1  1
  7  6  2  0
  9  8  1  6
  9 10  1  0
 10  6  1  0
 11  9  1  0
 11 18  1  0
 12 11  2  0
 14 13  1  6
 14 16  1  0
 14 15  1  0
 17 18  1  0
 17 19  1  0
 17 16  1  6
 19 20  1  0
 21 19  2  0
M  END
$$$$
