PAL.pdb
     RDKit          3D

 21 21  0  0  1  0  0  0  0  0999 V2000
   23.2029  -20.5129  -14.3822 N   0  0  0  0  0  0  0  0  0  0  0  0
   21.8634  -20.7246  -13.9254 C   0  0  0  0  0  0  0  0  0  0  0  0
   21.7053  -19.6965  -12.8227 C   0  0  0  0  0  0  0  0  0  0  0  0
   23.0440  -19.8344  -12.1163 C   0  0  0  0  0  0  0  0  0  0  0  0
   23.9703  -19.9466  -13.3163 C   0  0  1  0  0  0  0  0  0  0  0  0
   25.1403  -20.8084  -13.0416 C   0  0  0  0  0  0  0  0  0  0  0  0
   25.0274  -22.0583  -13.0989 O   0  0  0  0  0  0  0  0  0  0  0  0
   28.8116  -20.3287  -12.6890 C   0  0  0  0  0  0  0  0  0  0  0  0
   27.5405  -21.0970  -12.3037 C   0  0  2  0  0  0  0  0  0  0  0  0
   26.4256  -20.2975  -12.7060 N   0  0  0  0  0  0  0  0  0  0  0  0
   27.6102  -21.2753  -10.8263 C   0  0  0  0  0  0  0  0  0  0  0  0
   28.4187  -22.1240  -10.3707 O   0  0  0  0  0  0  0  0  0  0  0  0
   27.8474  -18.4542   -5.5985 C   0  0  0  0  0  0  0  0  0  0  0  0
   27.4418  -19.7789   -6.2741 C   0  0  2  0  0  0  0  0  0  0  0  0
   28.4742  -20.8127   -5.8715 C   0  0  0  0  0  0  0  0  0  0  0  0
   27.3820  -19.6114   -7.7554 C   0  0  0  0  0  0  0  0  0  0  0  0
   26.7863  -20.7848   -8.4750 C   0  0  2  0  0  0  0  0  0  0  0  0
   26.8185  -20.5425   -9.9278 N   0  0  0  0  0  0  0  0  0  0  0  0
   25.3716  -20.9781   -8.1004 C   0  0  0  0  0  0  0  0  0  0  0  0
   24.2814  -20.7341   -8.9194 O   0  0  0  0  0  0  0  0  0  0  0  0
   25.0905  -21.3992   -6.9422 O   0  0  0  0  0  0  0  0  0  0  0  0
  1  2  1  0
  3  2  1  0
  4  3  1  0
  5  4  1  0
  5  1  1  0
  5  6  1  1
  7  6  2  0
  9  8  1  1
  9 10  1  0
 10  6  1  0
 11  9  1  0
 11 18  1  0
 12 11  2  0
 14 13  1  1
 14 16  1  0
 14 15  1  0
 17 18  1  0
 17 19  1  0
 17 16  1  1
 19 20  1  0
 21 19  2  0
M  END
$$$$
