PAL.pdb
     RDKit          3D

 21 21  0  0  1  0  0  0  0  0999 V2000
   17.7687  -14.7943  -17.0759 N   0  0  0  0  0  0  0  0  0  0  0  0
   17.1283  -15.5375  -18.1177 C   0  0  0  0  0  0  0  0  0  0  0  0
   18.2594  -16.3575  -18.7059 C   0  0  0  0  0  0  0  0  0  0  0  0
   19.3683  -15.3189  -18.7449 C   0  0  0  0  0  0  0  0  0  0  0  0
   19.1543  -14.6471  -17.3983 C   0  0  1  0  0  0  0  0  0  0  0  0
   19.5018  -13.2099  -17.4282 C   0  0  0  0  0  0  0  0  0  0  0  0
   20.6932  -12.8551  -17.6094 O   0  0  0  0  0  0  0  0  0  0  0  0
   17.4978  -10.0297  -17.3842 C   0  0  0  0  0  0  0  0  0  0  0  0
   18.8387  -10.7731  -17.3238 C   0  0  2  0  0  0  0  0  0  0  0  0
   18.5441  -12.1706  -17.2599 N   0  0  0  0  0  0  0  0  0  0  0  0
   19.5187  -10.2774  -16.0944 C   0  0  0  0  0  0  0  0  0  0  0  0
   19.0568  -10.6315  -14.9797 O   0  0  0  0  0  0  0  0  0  0  0  0
   22.9958  -11.3182  -13.9113 C   0  0  0  0  0  0  0  0  0  0  0  0
   23.2992  -10.5824  -15.2313 C   0  0  2  0  0  0  0  0  0  0  0  0
   24.7941  -10.6838  -15.4584 C   0  0  0  0  0  0  0  0  0  0  0  0
   22.8518   -9.1615  -15.1504 C   0  0  0  0  0  0  0  0  0  0  0  0
   21.3775   -9.0016  -14.9258 C   0  0  2  0  0  0  0  0  0  0  0  0
   20.6441   -9.4384  -16.1266 N   0  0  0  0  0  0  0  0  0  0  0  0
   21.0235   -7.5873  -14.6941 C   0  0  0  0  0  0  0  0  0  0  0  0
   21.0272   -6.9474  -13.4656 O   0  0  0  0  0  0  0  0  0  0  0  0
   20.6813   -6.8669  -15.6748 O   0  0  0  0  0  0  0  0  0  0  0  0
  1  2  1  0
  3  2  1  0
  4  3  1  0
  5  4  1  0
  5  1  1  0
  5  6  1  6
  7  6  2  0
  9  8  1  1
  9 10  1  0
 10  6  1  0
 11  9  1  0
 11 18  1  0
 12 11  2  0
 14 13  1  1
 14 16  1  0
 14 15  1  0
 17 18  1  0
 17 19  1  0
 17 16  1  6
 19 20  1  0
 21 19  2  0
M  END
$$$$
