PAL.pdb
     RDKit          3D

 21 21  0  0  1  0  0  0  0  0999 V2000
   26.6618  -19.9038  -15.0639 N   0  0  0  0  0  0  0  0  0  0  0  0
   27.6282  -19.2837  -15.9179 C   0  0  0  0  0  0  0  0  0  0  0  0
   28.9221  -19.9771  -15.5402 C   0  0  0  0  0  0  0  0  0  0  0  0
   28.7906  -20.0117  -14.0264 C   0  0  0  0  0  0  0  0  0  0  0  0
   27.3243  -20.3895  -13.8930 C   0  0  1  0  0  0  0  0  0  0  0  0
   26.6997  -19.7934  -12.6923 C   0  0  0  0  0  0  0  0  0  0  0  0
   26.6224  -18.5447  -12.5784 O   0  0  0  0  0  0  0  0  0  0  0  0
   24.0779  -20.1458  -10.5451 C   0  0  0  0  0  0  0  0  0  0  0  0
   25.6029  -20.0239  -10.4268 C   0  0  2  0  0  0  0  0  0  0  0  0
   26.1641  -20.5669  -11.6244 N   0  0  0  0  0  0  0  0  0  0  0  0
   25.9766  -20.8075   -9.2161 C   0  0  0  0  0  0  0  0  0  0  0  0
   26.0297  -22.0600   -9.3157 O   0  0  0  0  0  0  0  0  0  0  0  0
   29.5103  -20.3768   -6.2097 C   0  0  0  0  0  0  0  0  0  0  0  0
   28.3556  -19.3618   -6.0989 C   0  0  2  0  0  0  0  0  0  0  0  0
   28.7756  -18.3272   -5.0743 C   0  0  0  0  0  0  0  0  0  0  0  0
   27.0939  -20.0497   -5.6986 C   0  0  0  0  0  0  0  0  0  0  0  0
   26.5471  -20.9723   -6.7472 C   0  0  2  0  0  0  0  0  0  0  0  0
   26.2698  -20.2126   -7.9786 N   0  0  0  0  0  0  0  0  0  0  0  0
   25.2707  -21.5747   -6.3145 C   0  0  0  0  0  0  0  0  0  0  0  0
   25.1405  -22.6698   -5.4765 O   0  0  0  0  0  0  0  0  0  0  0  0
   24.1826  -21.0780   -6.7235 O   0  0  0  0  0  0  0  0  0  0  0  0
  1  2  1  0
  3  2  1  0
  4  3  1  0
  5  4  1  0
  5  1  1  0
  5  6  1  1
  7  6  2  0
  9  8  1  6
  9 10  1  0
 10  6  1  0
 11  9  1  0
 11 18  1  0
 12 11  2  0
 14 13  1  1
 14 16  1  0
 14 15  1  0
 17 18  1  0
 17 19  1  0
 17 16  1  1
 19 20  1  0
 21 19  2  0
M  END
$$$$
