PAL.pdb
     RDKit          3D

 21 21  0  0  1  0  0  0  0  0999 V2000
   44.3886  -11.4297   -6.9353 N   0  0  0  0  0  0  0  0  0  0  0  0
   45.7946  -11.6127   -6.7417 C   0  0  0  0  0  0  0  0  0  0  0  0
   46.1363  -10.5851   -5.6809 C   0  0  0  0  0  0  0  0  0  0  0  0
   45.3346   -9.3928   -6.1766 C   0  0  0  0  0  0  0  0  0  0  0  0
   44.0448  -10.0869   -6.5828 C   0  0  1  0  0  0  0  0  0  0  0  0
   43.3936   -9.4278   -7.7356 C   0  0  0  0  0  0  0  0  0  0  0  0
   42.9479   -8.2588   -7.6216 O   0  0  0  0  0  0  0  0  0  0  0  0
   43.0762  -10.2746  -11.3754 C   0  0  0  0  0  0  0  0  0  0  0  0
   42.6948   -9.4128  -10.1645 C   0  0  2  0  0  0  0  0  0  0  0  0
   43.2343  -10.0516   -9.0049 N   0  0  0  0  0  0  0  0  0  0  0  0
   41.2056   -9.3727  -10.1521 C   0  0  0  0  0  0  0  0  0  0  0  0
   40.6218   -8.7939  -11.1038 O   0  0  0  0  0  0  0  0  0  0  0  0
   36.5855  -12.0792   -6.9918 C   0  0  0  0  0  0  0  0  0  0  0  0
   36.9835  -11.1801   -8.1789 C   0  0  2  0  0  0  0  0  0  0  0  0
   36.3336  -11.7690   -9.4147 C   0  0  0  0  0  0  0  0  0  0  0  0
   38.4681  -11.1227   -8.3142 C   0  0  0  0  0  0  0  0  0  0  0  0
   38.9588   -9.9604   -9.1252 C   0  0  2  0  0  0  0  0  0  0  0  0
   40.4320   -9.9486   -9.1318 N   0  0  0  0  0  0  0  0  0  0  0  0
   38.5192   -8.6783   -8.5400 C   0  0  0  0  0  0  0  0  0  0  0  0
   37.4137   -7.9469   -8.9420 O   0  0  0  0  0  0  0  0  0  0  0  0
   39.1828   -8.1721   -7.5907 O   0  0  0  0  0  0  0  0  0  0  0  0
  1  2  1  0
  3  2  1  0
  4  3  1  0
  5  4  1  0
  5  1  1  0
  5  6  1  6
  7  6  2  0
  9  8  1  6
  9 10  1  0
 10  6  1  0
 11  9  1  0
 11 18  1  0
 12 11  2  0
 14 13  1  1
 14 16  1  0
 14 15  1  0
 17 18  1  0
 17 19  1  0
 17 16  1  1
 19 20  1  0
 21 19  2  0
M  END
$$$$
