PAL.pdb
     RDKit          3D

 21 21  0  0  1  0  0  0  0  0999 V2000
   25.3257  -17.7275  -15.3016 N   0  0  0  0  0  0  0  0  0  0  0  0
   25.7371  -16.9966  -16.4611 C   0  0  0  0  0  0  0  0  0  0  0  0
   24.6746  -17.3425  -17.4855 C   0  0  0  0  0  0  0  0  0  0  0  0
   24.5205  -18.8341  -17.2373 C   0  0  0  0  0  0  0  0  0  0  0  0
   24.5551  -18.8583  -15.7178 C   0  0  1  0  0  0  0  0  0  0  0  0
   25.1732  -20.0946  -15.1917 C   0  0  0  0  0  0  0  0  0  0  0  0
   24.6450  -21.2101  -15.4261 O   0  0  0  0  0  0  0  0  0  0  0  0
   28.4087  -20.9480  -13.5184 C   0  0  0  0  0  0  0  0  0  0  0  0
   26.9364  -21.2662  -13.8109 C   0  0  2  0  0  0  0  0  0  0  0  0
   26.3645  -20.1025  -14.4130 N   0  0  0  0  0  0  0  0  0  0  0  0
   26.3235  -21.5844  -12.4908 C   0  0  0  0  0  0  0  0  0  0  0  0
   26.4679  -22.7483  -12.0370 O   0  0  0  0  0  0  0  0  0  0  0  0
   26.9820  -21.3932   -8.3041 C   0  0  0  0  0  0  0  0  0  0  0  0
   26.6725  -20.0698   -9.0314 C   0  0  2  0  0  0  0  0  0  0  0  0
   27.0367  -18.9485   -8.0791 C   0  0  0  0  0  0  0  0  0  0  0  0
   25.2334  -20.0134   -9.4206 C   0  0  0  0  0  0  0  0  0  0  0  0
   24.8603  -20.9793  -10.5056 C   0  0  2  0  0  0  0  0  0  0  0  0
   25.5972  -20.6482  -11.7376 N   0  0  0  0  0  0  0  0  0  0  0  0
   23.4218  -20.8919  -10.8259 C   0  0  0  0  0  0  0  0  0  0  0  0
   22.8910  -20.5447  -12.0573 O   0  0  0  0  0  0  0  0  0  0  0  0
   22.5714  -21.1469   -9.9261 O   0  0  0  0  0  0  0  0  0  0  0  0
  1  2  1  0
  3  2  1  0
  4  3  1  0
  5  4  1  0
  5  1  1  0
  5  6  1  6
  7  6  2  0
  9  8  1  1
  9 10  1  0
 10  6  1  0
 11  9  1  0
 11 18  1  0
 12 11  2  0
 14 13  1  1
 14 16  1  0
 14 15  1  0
 17 18  1  0
 17 19  1  0
 17 16  1  1
 19 20  1  0
 21 19  2  0
M  END
$$$$
