PAL.pdb
     RDKit          3D

 21 21  0  0  1  0  0  0  0  0999 V2000
   20.2622  -10.3275  -19.1364 N   0  0  0  0  0  0  0  0  0  0  0  0
   19.7116  -11.1995  -20.1285 C   0  0  0  0  0  0  0  0  0  0  0  0
   20.0118  -10.4805  -21.4288 C   0  0  0  0  0  0  0  0  0  0  0  0
   19.6708   -9.0503  -21.0439 C   0  0  0  0  0  0  0  0  0  0  0  0
   20.2812   -8.9939  -19.6529 C   0  0  1  0  0  0  0  0  0  0  0  0
   19.5246   -8.1046  -18.7452 C   0  0  0  0  0  0  0  0  0  0  0  0
   19.4824   -6.8689  -18.9674 O   0  0  0  0  0  0  0  0  0  0  0  0
   17.0397   -8.5833  -16.0116 C   0  0  0  0  0  0  0  0  0  0  0  0
   18.1385   -7.7343  -16.6643 C   0  0  2  0  0  0  0  0  0  0  0  0
   18.8194   -8.5727  -17.6011 N   0  0  0  0  0  0  0  0  0  0  0  0
   19.0214   -7.2920  -15.5488 C   0  0  0  0  0  0  0  0  0  0  0  0
   18.4869   -6.7295  -14.5593 O   0  0  0  0  0  0  0  0  0  0  0  0
   21.4219   -9.3411  -12.4671 C   0  0  0  0  0  0  0  0  0  0  0  0
   21.9717   -9.3421  -13.9071 C   0  0  2  0  0  0  0  0  0  0  0  0
   23.1113  -10.3404  -13.9427 C   0  0  0  0  0  0  0  0  0  0  0  0
   22.4280   -7.9747  -14.2915 C   0  0  0  0  0  0  0  0  0  0  0  0
   21.3094   -6.9950  -14.4882 C   0  0  2  0  0  0  0  0  0  0  0  0
   20.4135   -7.4748  -15.5548 N   0  0  0  0  0  0  0  0  0  0  0  0
   21.8226   -5.6783  -14.9149 C   0  0  0  0  0  0  0  0  0  0  0  0
   21.5644   -5.0695  -16.1320 O   0  0  0  0  0  0  0  0  0  0  0  0
   22.5651   -5.0205  -14.1313 O   0  0  0  0  0  0  0  0  0  0  0  0
  1  2  1  0
  3  2  1  0
  4  3  1  0
  5  4  1  0
  5  1  1  0
  5  6  1  1
  7  6  2  0
  9  8  1  1
  9 10  1  0
 10  6  1  0
 11  9  1  0
 11 18  1  0
 12 11  2  0
 14 13  1  1
 14 16  1  0
 14 15  1  0
 17 18  1  0
 17 19  1  0
 17 16  1  6
 19 20  1  0
 21 19  2  0
M  END
$$$$
