EEN.pdb
     RDKit          3D

 27 26  0  0  1  0  0  0  0  0999 V2000
   14.3266  -11.3147  -13.6930 N   0  0  0  0  0  0  0  0  0  0  0  0
   15.6837  -11.0752  -13.3244 C   0  0  1  0  0  0  0  0  0  0  0  0
   16.6058  -11.5202  -14.4095 C   0  0  0  0  0  0  0  0  0  0  0  0
   16.6404  -13.0020  -14.6322 C   0  0  0  0  0  0  0  0  0  0  0  0
   17.5733  -13.3494  -15.6991 C   0  0  0  0  0  0  0  0  0  0  0  0
   18.8336  -13.3189  -15.6064 O   0  0  0  0  0  0  0  0  0  0  0  0
   15.9194   -9.6057  -13.1330 C   0  0  0  0  0  0  0  0  0  0  0  0
   15.3581   -8.8288  -13.9466 O   0  0  0  0  0  0  0  0  0  0  0  0
   17.0639  -13.7566  -16.9487 O   0  0  0  0  0  0  0  0  0  0  0  0
   16.7396   -9.1501  -12.0765 N   0  0  0  0  0  0  0  0  0  0  0  0
   16.9747   -7.7013  -11.8902 C   0  0  1  0  0  0  0  0  0  0  0  0
   16.5176   -7.2949  -10.5410 C   0  0  0  0  0  0  0  0  0  0  0  0
   16.7748   -5.9035  -10.1067 C   0  0  0  0  0  0  0  0  0  0  0  0
   16.1358   -5.6450   -8.7550 C   0  0  0  0  0  0  0  0  0  0  0  0
   15.9922   -4.4588   -8.3343 O   0  0  0  0  0  0  0  0  0  0  0  0
   18.3989   -7.4791  -12.1915 C   0  0  0  0  0  0  0  0  0  0  0  0
   19.3018   -8.2104  -11.6510 O   0  0  0  0  0  0  0  0  0  0  0  0
   15.6962   -6.6646   -7.9486 O   0  0  0  0  0  0  0  0  0  0  0  0
   22.9529   -5.9823  -13.8981 N   0  0  0  0  0  0  0  0  0  0  0  0
   22.1806   -6.7580  -14.7873 C   0  0  0  0  0  0  0  0  0  0  0  0
   22.7310   -7.2372  -15.7950 O   0  0  0  0  0  0  0  0  0  0  0  0
   20.7694   -6.9875  -14.5221 C   0  0  0  0  0  0  0  0  0  0  0  0
   20.2466   -6.2933  -13.2917 C   0  0  2  0  0  0  0  0  0  0  0  0
   18.8513   -6.4763  -13.0752 N   0  0  0  0  0  0  0  0  0  0  0  0
   20.5295   -4.8475  -13.4763 C   0  0  0  0  0  0  0  0  0  0  0  0
   21.7927   -4.3252  -13.2067 O   0  0  0  0  0  0  0  0  0  0  0  0
   19.6298   -4.0903  -13.8765 O   0  0  0  0  0  0  0  0  0  0  0  0
  2  1  1  6
  2  7  1  0
  3  4  1  0
  3  2  1  0
  4  5  1  0
  5  6  2  0
  7  8  2  0
  7 10  1  0
  9  5  1  0
 10 11  1  0
 11 16  1  0
 11 12  1  1
 12 13  1  0
 13 14  1  0
 14 18  1  0
 15 14  2  0
 16 17  2  0
 19 20  1  0
 20 21  2  0
 23 22  1  6
 22 20  1  0
 24 23  1  0
 24 16  1  0
 25 23  1  0
 26 25  1  0
 27 25  2  0
M  END
$$$$
