EEN.pdb
     RDKit          3D

 27 26  0  0  1  0  0  0  0  0999 V2000
   45.3738  -12.0207   -7.0556 N   0  0  0  0  0  0  0  0  0  0  0  0
   44.4440  -11.1518   -6.4111 C   0  0  1  0  0  0  0  0  0  0  0  0
   45.0399   -9.7974   -6.2219 C   0  0  0  0  0  0  0  0  0  0  0  0
   45.5770   -9.1701   -7.4728 C   0  0  0  0  0  0  0  0  0  0  0  0
   46.2041   -7.8840   -7.1859 C   0  0  0  0  0  0  0  0  0  0  0  0
   45.6348   -6.7586   -7.2701 O   0  0  0  0  0  0  0  0  0  0  0  0
   43.2230  -10.9711   -7.2644 C   0  0  0  0  0  0  0  0  0  0  0  0
   43.2998  -11.3609   -8.4572 O   0  0  0  0  0  0  0  0  0  0  0  0
   47.5533   -7.8555   -6.7792 O   0  0  0  0  0  0  0  0  0  0  0  0
   42.0573  -10.3865   -6.7206 N   0  0  0  0  0  0  0  0  0  0  0  0
   40.7747  -10.4662   -7.4538 C   0  0  1  0  0  0  0  0  0  0  0  0
   39.6713  -10.7113   -6.4963 C   0  0  0  0  0  0  0  0  0  0  0  0
   38.2965  -10.8303   -7.0314 C   0  0  0  0  0  0  0  0  0  0  0  0
   37.3117  -11.0884   -5.9062 C   0  0  0  0  0  0  0  0  0  0  0  0
   36.1449  -10.5978   -5.9553 O   0  0  0  0  0  0  0  0  0  0  0  0
   40.6853   -9.2313   -8.2511 C   0  0  0  0  0  0  0  0  0  0  0  0
   41.4183   -8.2187   -7.9694 O   0  0  0  0  0  0  0  0  0  0  0  0
   37.6378  -11.8483   -4.8111 O   0  0  0  0  0  0  0  0  0  0  0  0
   39.3116   -6.3034  -13.0726 N   0  0  0  0  0  0  0  0  0  0  0  0
   38.6302   -6.5616  -11.8652 C   0  0  0  0  0  0  0  0  0  0  0  0
   37.9056   -5.6711  -11.3858 O   0  0  0  0  0  0  0  0  0  0  0  0
   38.7782   -7.8471  -11.2018 C   0  0  0  0  0  0  0  0  0  0  0  0
   39.6978   -7.8294  -10.0089 C   0  0  2  0  0  0  0  0  0  0  0  0
   39.8135   -9.0870   -9.3512 N   0  0  0  0  0  0  0  0  0  0  0  0
   39.1367   -6.8309   -9.0642 C   0  0  0  0  0  0  0  0  0  0  0  0
   39.6178   -5.5236   -9.0352 O   0  0  0  0  0  0  0  0  0  0  0  0
   38.2256   -7.1622   -8.2875 O   0  0  0  0  0  0  0  0  0  0  0  0
  2  1  1  6
  2  7  1  0
  3  4  1  0
  3  2  1  0
  4  5  1  0
  5  6  2  0
  7  8  2  0
  7 10  1  0
  9  5  1  0
 10 11  1  0
 11 16  1  0
 11 12  1  1
 12 13  1  0
 13 14  1  0
 14 18  1  0
 15 14  2  0
 16 17  2  0
 19 20  1  0
 20 21  2  0
 23 22  1  6
 22 20  1  0
 24 23  1  0
 24 16  1  0
 25 23  1  0
 26 25  1  0
 27 25  2  0
M  END
$$$$
