EEN.pdb
     RDKit          3D

 27 26  0  0  1  0  0  0  0  0999 V2000
   16.1802  -10.4602  -12.3382 N   0  0  0  0  0  0  0  0  0  0  0  0
   16.4057  -10.8796  -10.9936 C   0  0  1  0  0  0  0  0  0  0  0  0
   17.4453  -11.9486  -10.9475 C   0  0  0  0  0  0  0  0  0  0  0  0
   17.0773  -13.2103  -11.6683 C   0  0  0  0  0  0  0  0  0  0  0  0
   17.2775  -13.0688  -13.1068 C   0  0  0  0  0  0  0  0  0  0  0  0
   16.3626  -13.1010  -13.9785 O   0  0  0  0  0  0  0  0  0  0  0  0
   16.9251   -9.7365  -10.1720 C   0  0  0  0  0  0  0  0  0  0  0  0
   17.1586   -9.9680   -8.9585 O   0  0  0  0  0  0  0  0  0  0  0  0
   18.5838  -12.8794  -13.6012 O   0  0  0  0  0  0  0  0  0  0  0  0
   17.1312   -8.4713  -10.7663 N   0  0  0  0  0  0  0  0  0  0  0  0
   17.5839   -7.3285   -9.9429 C   0  0  1  0  0  0  0  0  0  0  0  0
   18.8040   -6.7392  -10.5418 C   0  0  0  0  0  0  0  0  0  0  0  0
   19.1321   -7.0874  -11.9423 C   0  0  0  0  0  0  0  0  0  0  0  0
   20.2914   -6.2439  -12.4391 C   0  0  0  0  0  0  0  0  0  0  0  0
   20.8661   -5.4278  -11.6591 O   0  0  0  0  0  0  0  0  0  0  0  0
   16.4212   -6.4337   -9.8159 C   0  0  0  0  0  0  0  0  0  0  0  0
   15.5226   -6.3985  -10.7288 O   0  0  0  0  0  0  0  0  0  0  0  0
   20.7557   -6.3283  -13.7277 O   0  0  0  0  0  0  0  0  0  0  0  0
   11.8955   -4.5244   -7.4439 N   0  0  0  0  0  0  0  0  0  0  0  0
   13.1879   -4.0914   -7.0822 C   0  0  0  0  0  0  0  0  0  0  0  0
   13.3245   -2.9495   -6.6074 O   0  0  0  0  0  0  0  0  0  0  0  0
   14.3318   -4.9704   -7.2643 C   0  0  0  0  0  0  0  0  0  0  0  0
   15.0209   -4.8270   -8.5962 C   0  0  2  0  0  0  0  0  0  0  0  0
   16.2225   -5.5825   -8.7082 N   0  0  0  0  0  0  0  0  0  0  0  0
   15.3319   -3.3835   -8.7518 C   0  0  0  0  0  0  0  0  0  0  0  0
   14.3395   -2.4714   -9.1042 O   0  0  0  0  0  0  0  0  0  0  0  0
   16.4920   -2.9803   -8.5660 O   0  0  0  0  0  0  0  0  0  0  0  0
  2  1  1  6
  2  7  1  0
  3  4  1  0
  3  2  1  0
  4  5  1  0
  5  6  2  0
  7  8  2  0
  7 10  1  0
  9  5  1  0
 10 11  1  0
 11 16  1  0
 11 12  1  6
 12 13  1  0
 13 14  1  0
 14 18  1  0
 15 14  2  0
 16 17  2  0
 19 20  1  0
 20 21  2  0
 23 22  1  1
 22 20  1  0
 24 23  1  0
 24 16  1  0
 25 23  1  0
 26 25  1  0
 27 25  2  0
M  END
$$$$
