EEN.pdb
     RDKit          3D

 27 26  0  0  1  0  0  0  0  0999 V2000
   20.3135  -12.6325  -17.2093 N   0  0  0  0  0  0  0  0  0  0  0  0
   19.2907  -11.7927  -16.6768 C   0  0  1  0  0  0  0  0  0  0  0  0
   18.4351  -12.5541  -15.7208 C   0  0  0  0  0  0  0  0  0  0  0  0
   17.6294  -13.6545  -16.3424 C   0  0  0  0  0  0  0  0  0  0  0  0
   16.9254  -14.4273  -15.3243 C   0  0  0  0  0  0  0  0  0  0  0  0
   15.7862  -14.1483  -14.8531 O   0  0  0  0  0  0  0  0  0  0  0  0
   19.8981  -10.6589  -15.9041 C   0  0  0  0  0  0  0  0  0  0  0  0
   20.5176  -10.9555  -14.8510 O   0  0  0  0  0  0  0  0  0  0  0  0
   17.5346  -15.5854  -14.8004 O   0  0  0  0  0  0  0  0  0  0  0  0
   19.7616   -9.3309  -16.3671 N   0  0  0  0  0  0  0  0  0  0  0  0
   20.4373   -8.2231  -15.6563 C   0  0  1  0  0  0  0  0  0  0  0  0
   21.8939   -8.4864  -15.5997 C   0  0  0  0  0  0  0  0  0  0  0  0
   22.6131   -8.7081  -16.8741 C   0  0  0  0  0  0  0  0  0  0  0  0
   24.0991   -8.8799  -16.6196 C   0  0  0  0  0  0  0  0  0  0  0  0
   24.8908   -9.0923  -17.5855 O   0  0  0  0  0  0  0  0  0  0  0  0
   20.0232   -6.9879  -16.3429 C   0  0  0  0  0  0  0  0  0  0  0  0
   19.9448   -6.9471  -17.6213 O   0  0  0  0  0  0  0  0  0  0  0  0
   24.6358   -8.8138  -15.3585 O   0  0  0  0  0  0  0  0  0  0  0  0
   16.7033   -4.9777  -17.4961 N   0  0  0  0  0  0  0  0  0  0  0  0
   16.8032   -4.1663  -16.3471 C   0  0  0  0  0  0  0  0  0  0  0  0
   15.7665   -3.6608  -15.8805 O   0  0  0  0  0  0  0  0  0  0  0  0
   18.0975   -3.9316  -15.7273 C   0  0  0  0  0  0  0  0  0  0  0  0
   19.2421   -4.6600  -16.3818 C   0  0  2  0  0  0  0  0  0  0  0  0
   19.6897   -5.8008  -15.6568 N   0  0  0  0  0  0  0  0  0  0  0  0
   20.3525   -3.6804  -16.4906 C   0  0  0  0  0  0  0  0  0  0  0  0
   20.1963   -2.4986  -17.2118 O   0  0  0  0  0  0  0  0  0  0  0  0
   21.4371   -3.9147  -15.9322 O   0  0  0  0  0  0  0  0  0  0  0  0
  2  1  1  1
  2  7  1  0
  3  4  1  0
  3  2  1  0
  4  5  1  0
  5  6  2  0
  7  8  2  0
  7 10  1  0
  9  5  1  0
 10 11  1  0
 11 16  1  0
 11 12  1  6
 12 13  1  0
 13 14  1  0
 14 18  1  0
 15 14  2  0
 16 17  2  0
 19 20  1  0
 20 21  2  0
 23 22  1  1
 22 20  1  0
 24 23  1  0
 24 16  1  0
 25 23  1  0
 26 25  1  0
 27 25  2  0
M  END
$$$$
