EEN.pdb
     RDKit          3D

 27 26  0  0  1  0  0  0  0  0999 V2000
   20.7826  -14.2013  -17.3932 N   0  0  0  0  0  0  0  0  0  0  0  0
   21.7526  -13.1565  -17.4406 C   0  0  1  0  0  0  0  0  0  0  0  0
   22.5976  -13.2837  -18.6636 C   0  0  0  0  0  0  0  0  0  0  0  0
   21.8326  -13.5241  -19.9300 C   0  0  0  0  0  0  0  0  0  0  0  0
   22.7267  -13.5607  -21.0827 C   0  0  0  0  0  0  0  0  0  0  0  0
   23.2084  -14.6083  -21.6007 O   0  0  0  0  0  0  0  0  0  0  0  0
   21.0748  -11.8202  -17.5211 C   0  0  0  0  0  0  0  0  0  0  0  0
   20.8359  -11.3718  -18.6711 O   0  0  0  0  0  0  0  0  0  0  0  0
   23.1056  -12.3487  -21.6943 O   0  0  0  0  0  0  0  0  0  0  0  0
   20.7342  -11.1249  -16.3392 N   0  0  0  0  0  0  0  0  0  0  0  0
   19.9595   -9.8666  -16.4146 C   0  0  1  0  0  0  0  0  0  0  0  0
   18.5910  -10.0957  -15.8958 C   0  0  0  0  0  0  0  0  0  0  0  0
   17.6996   -8.9249  -15.7374 C   0  0  0  0  0  0  0  0  0  0  0  0
   16.3634   -9.3522  -15.1591 C   0  0  0  0  0  0  0  0  0  0  0  0
   16.2107   -9.4404  -13.9047 O   0  0  0  0  0  0  0  0  0  0  0  0
   20.7630   -8.8524  -15.7115 C   0  0  0  0  0  0  0  0  0  0  0  0
   21.4864   -9.1765  -14.7046 O   0  0  0  0  0  0  0  0  0  0  0  0
   15.2871   -9.6548  -15.9548 O   0  0  0  0  0  0  0  0  0  0  0  0
   22.2616   -2.8471  -15.4665 N   0  0  0  0  0  0  0  0  0  0  0  0
   22.4079   -4.2243  -15.2008 C   0  0  0  0  0  0  0  0  0  0  0  0
   23.1747   -4.5785  -14.2872 O   0  0  0  0  0  0  0  0  0  0  0  0
   21.6722   -5.2031  -15.9850 C   0  0  0  0  0  0  0  0  0  0  0  0
   21.5551   -6.5582  -15.3377 C   0  0  2  0  0  0  0  0  0  0  0  0
   20.7926   -7.4941  -16.0926 N   0  0  0  0  0  0  0  0  0  0  0  0
   20.9005   -6.3377  -14.0234 C   0  0  0  0  0  0  0  0  0  0  0  0
   21.6551   -6.0619  -12.8852 O   0  0  0  0  0  0  0  0  0  0  0  0
   19.6631   -6.3993  -13.9340 O   0  0  0  0  0  0  0  0  0  0  0  0
  2  1  1  6
  2  7  1  0
  3  4  1  0
  3  2  1  0
  4  5  1  0
  5  6  2  0
  7  8  2  0
  7 10  1  0
  9  5  1  0
 10 11  1  0
 11 16  1  0
 11 12  1  1
 12 13  1  0
 13 14  1  0
 14 18  1  0
 15 14  2  0
 16 17  2  0
 19 20  1  0
 20 21  2  0
 23 22  1  6
 22 20  1  0
 24 23  1  0
 24 16  1  0
 25 23  1  0
 26 25  1  0
 27 25  2  0
M  END
$$$$
