EEN.pdb
     RDKit          3D

 27 26  0  0  1  0  0  0  0  0999 V2000
   17.1047  -14.5954  -17.1680 N   0  0  0  0  0  0  0  0  0  0  0  0
   17.9308  -13.9319  -16.2128 C   0  0  1  0  0  0  0  0  0  0  0  0
   18.9944  -14.8515  -15.7141 C   0  0  0  0  0  0  0  0  0  0  0  0
   18.5183  -16.2308  -15.3713 C   0  0  0  0  0  0  0  0  0  0  0  0
   19.6306  -17.0819  -14.9616 C   0  0  0  0  0  0  0  0  0  0  0  0
   20.3843  -17.7267  -15.7450 O   0  0  0  0  0  0  0  0  0  0  0  0
   18.6305  -12.7673  -16.8496 C   0  0  0  0  0  0  0  0  0  0  0  0
   18.9070  -12.8688  -18.0719 O   0  0  0  0  0  0  0  0  0  0  0  0
   19.9177  -17.2200  -13.5886 O   0  0  0  0  0  0  0  0  0  0  0  0
   18.9489  -11.6245  -16.0822 N   0  0  0  0  0  0  0  0  0  0  0  0
   19.4140  -10.3881  -16.7484 C   0  0  1  0  0  0  0  0  0  0  0  0
   18.4415   -9.9929  -17.7937 C   0  0  0  0  0  0  0  0  0  0  0  0
   18.6715   -8.7217  -18.5160 C   0  0  0  0  0  0  0  0  0  0  0  0
   17.6148   -8.5235  -19.5868 C   0  0  0  0  0  0  0  0  0  0  0  0
   17.9184   -8.6404  -20.8111 O   0  0  0  0  0  0  0  0  0  0  0  0
   19.6491   -9.4108  -15.6722 C   0  0  0  0  0  0  0  0  0  0  0  0
   18.8633   -9.3518  -14.6616 O   0  0  0  0  0  0  0  0  0  0  0  0
   16.3134   -8.2156  -19.2796 O   0  0  0  0  0  0  0  0  0  0  0  0
   22.8723   -4.5952  -13.7254 N   0  0  0  0  0  0  0  0  0  0  0  0
   22.3883   -5.9063  -13.5374 C   0  0  0  0  0  0  0  0  0  0  0  0
   22.1627   -6.2996  -12.3788 O   0  0  0  0  0  0  0  0  0  0  0  0
   22.1604   -6.7734  -14.6822 C   0  0  0  0  0  0  0  0  0  0  0  0
   20.8833   -7.5695  -14.6154 C   0  0  2  0  0  0  0  0  0  0  0  0
   20.7289   -8.5023  -15.6799 N   0  0  0  0  0  0  0  0  0  0  0  0
   19.7741   -6.5836  -14.6615 C   0  0  0  0  0  0  0  0  0  0  0  0
   19.1049   -6.2042  -13.4998 O   0  0  0  0  0  0  0  0  0  0  0  0
   19.4355   -6.0882  -15.7491 O   0  0  0  0  0  0  0  0  0  0  0  0
  2  1  1  6
  2  7  1  0
  3  4  1  0
  3  2  1  0
  4  5  1  0
  5  6  2  0
  7  8  2  0
  7 10  1  0
  9  5  1  0
 10 11  1  0
 11 16  1  0
 11 12  1  6
 12 13  1  0
 13 14  1  0
 14 18  1  0
 15 14  2  0
 16 17  2  0
 19 20  1  0
 20 21  2  0
 23 22  1  6
 22 20  1  0
 24 23  1  0
 24 16  1  0
 25 23  1  0
 26 25  1  0
 27 25  2  0
M  END
$$$$
