EEN.pdb
     RDKit          3D

 27 26  0  0  1  0  0  0  0  0999 V2000
   18.8900  -11.1856  -15.9435 N   0  0  0  0  0  0  0  0  0  0  0  0
   18.2594   -9.9306  -15.6941 C   0  0  1  0  0  0  0  0  0  0  0  0
   16.7806  -10.0491  -15.8515 C   0  0  0  0  0  0  0  0  0  0  0  0
   16.2571   -9.6146  -17.1871 C   0  0  0  0  0  0  0  0  0  0  0  0
   16.0230   -8.1745  -17.2144 C   0  0  0  0  0  0  0  0  0  0  0  0
   16.7544   -7.3264  -17.8005 O   0  0  0  0  0  0  0  0  0  0  0  0
   18.5097   -9.4943  -14.2804 C   0  0  0  0  0  0  0  0  0  0  0  0
   18.5643  -10.3974  -13.4074 O   0  0  0  0  0  0  0  0  0  0  0  0
   14.8996   -7.6503  -16.5436 O   0  0  0  0  0  0  0  0  0  0  0  0
   18.6722   -8.1235  -13.9790 N   0  0  0  0  0  0  0  0  0  0  0  0
   18.9696   -7.6975  -12.5936 C   0  0  1  0  0  0  0  0  0  0  0  0
   19.9586   -6.5949  -12.6160 C   0  0  0  0  0  0  0  0  0  0  0  0
   21.3542   -6.9166  -12.9893 C   0  0  0  0  0  0  0  0  0  0  0  0
   22.2419   -5.6981  -12.8170 C   0  0  0  0  0  0  0  0  0  0  0  0
   22.6929   -5.0894  -13.8323 O   0  0  0  0  0  0  0  0  0  0  0  0
   17.6686   -7.3953  -11.9736 C   0  0  0  0  0  0  0  0  0  0  0  0
   16.7760   -6.7389  -12.6175 O   0  0  0  0  0  0  0  0  0  0  0  0
   22.5859   -5.2150  -11.5795 O   0  0  0  0  0  0  0  0  0  0  0  0
   13.5741   -6.8959   -8.9795 N   0  0  0  0  0  0  0  0  0  0  0  0
   14.1096   -8.1831   -8.7671 C   0  0  0  0  0  0  0  0  0  0  0  0
   13.4585   -8.9963   -8.0868 O   0  0  0  0  0  0  0  0  0  0  0  0
   15.3981   -8.5428   -9.3368 C   0  0  0  0  0  0  0  0  0  0  0  0
   16.0648   -7.4383  -10.1144 C   0  0  2  0  0  0  0  0  0  0  0  0
   17.3260   -7.8016  -10.6664 N   0  0  0  0  0  0  0  0  0  0  0  0
   16.2504   -6.3124   -9.1645 C   0  0  0  0  0  0  0  0  0  0  0  0
   15.2232   -5.4025   -8.9234 O   0  0  0  0  0  0  0  0  0  0  0  0
   17.3353   -6.1769   -8.5748 O   0  0  0  0  0  0  0  0  0  0  0  0
  2  1  1  1
  2  7  1  0
  3  4  1  0
  3  2  1  0
  4  5  1  0
  5  6  2  0
  7  8  2  0
  7 10  1  0
  9  5  1  0
 10 11  1  0
 11 16  1  0
 11 12  1  6
 12 13  1  0
 13 14  1  0
 14 18  1  0
 15 14  2  0
 16 17  2  0
 19 20  1  0
 20 21  2  0
 23 22  1  1
 22 20  1  0
 24 23  1  0
 24 16  1  0
 25 23  1  0
 26 25  1  0
 27 25  2  0
M  END
$$$$
