EEN.pdb
     RDKit          3D

 27 26  0  0  1  0  0  0  0  0999 V2000
   26.9975  -19.3416  -15.5407 N   0  0  0  0  0  0  0  0  0  0  0  0
   26.8123  -20.6550  -16.0655 C   0  0  1  0  0  0  0  0  0  0  0  0
   28.0845  -21.4308  -15.9918 C   0  0  0  0  0  0  0  0  0  0  0  0
   29.1896  -20.9033  -16.8562 C   0  0  0  0  0  0  0  0  0  0  0  0
   28.7930  -20.8857  -18.2604 C   0  0  0  0  0  0  0  0  0  0  0  0
   28.2517  -19.9101  -18.8545 O   0  0  0  0  0  0  0  0  0  0  0  0
   25.8015  -21.4044  -15.2481 C   0  0  0  0  0  0  0  0  0  0  0  0
   25.5952  -22.6049  -15.5595 O   0  0  0  0  0  0  0  0  0  0  0  0
   29.0161  -22.0320  -19.0495 O   0  0  0  0  0  0  0  0  0  0  0  0
   25.1308  -20.7604  -14.1842 N   0  0  0  0  0  0  0  0  0  0  0  0
   24.1564  -21.5080  -13.3592 C   0  0  1  0  0  0  0  0  0  0  0  0
   24.7329  -21.7595  -12.0180 C   0  0  0  0  0  0  0  0  0  0  0  0
   24.8946  -20.6091  -11.1010 C   0  0  0  0  0  0  0  0  0  0  0  0
   25.3376  -21.0843   -9.7297 C   0  0  0  0  0  0  0  0  0  0  0  0
   26.5000  -21.5599   -9.5648 O   0  0  0  0  0  0  0  0  0  0  0  0
   22.9084  -20.7272  -13.3976 C   0  0  0  0  0  0  0  0  0  0  0  0
   22.9382  -19.4470  -13.3487 O   0  0  0  0  0  0  0  0  0  0  0  0
   24.5140  -21.0200   -8.6340 O   0  0  0  0  0  0  0  0  0  0  0  0
   18.2194  -19.0039  -16.1548 N   0  0  0  0  0  0  0  0  0  0  0  0
   18.9272  -19.1587  -14.9449 C   0  0  0  0  0  0  0  0  0  0  0  0
   18.5073  -18.5769  -13.9284 O   0  0  0  0  0  0  0  0  0  0  0  0
   20.1229  -19.9847  -14.8971 C   0  0  0  0  0  0  0  0  0  0  0  0
   20.4663  -20.5037  -13.5253 C   0  0  2  0  0  0  0  0  0  0  0  0
   21.6318  -21.3208  -13.4930 N   0  0  0  0  0  0  0  0  0  0  0  0
   19.2961  -21.2990  -13.0752 C   0  0  0  0  0  0  0  0  0  0  0  0
   18.1358  -20.6731  -12.6245 O   0  0  0  0  0  0  0  0  0  0  0  0
   19.3491  -22.5399  -13.0993 O   0  0  0  0  0  0  0  0  0  0  0  0
  2  1  1  1
  2  7  1  0
  3  4  1  0
  3  2  1  0
  4  5  1  0
  5  6  2  0
  7  8  2  0
  7 10  1  0
  9  5  1  0
 10 11  1  0
 11 16  1  0
 11 12  1  1
 12 13  1  0
 13 14  1  0
 14 18  1  0
 15 14  2  0
 16 17  2  0
 19 20  1  0
 20 21  2  0
 23 22  1  6
 22 20  1  0
 24 23  1  0
 24 16  1  0
 25 23  1  0
 26 25  1  0
 27 25  2  0
M  END
$$$$
