LVT.pdb
     RDKit          3D

 23 22  0  0  1  0  0  0  0  0999 V2000
   24.6291  -36.7946  -12.4846 C   0  0  0  0  0  0  0  0  0  0  0  0
   26.0876  -36.9364  -12.8325 C   0  0  2  0  0  0  0  0  0  0  0  0
   26.5586  -38.3768  -12.7020 C   0  0  0  0  0  0  0  0  0  0  0  0
   26.9668  -36.1050  -11.9192 C   0  0  0  0  0  0  0  0  0  0  0  0
   26.5440  -34.6586  -11.8686 C   0  0  2  0  0  0  0  0  0  0  0  0
   27.1061  -33.9908  -13.0227 N   0  0  0  0  0  0  0  0  0  0  0  0
   26.9535  -33.9870  -10.6209 C   0  0  0  0  0  0  0  0  0  0  0  0
   28.1240  -33.5358  -10.5365 O   0  0  0  0  0  0  0  0  0  0  0  0
   25.6138  -31.4306   -6.6753 C   0  0  0  0  0  0  0  0  0  0  0  0
   25.4900  -32.1297   -7.9769 C   0  0  2  0  0  0  0  0  0  0  0  0
   24.0943  -32.7636   -8.0328 C   0  0  0  0  0  0  0  0  0  0  0  0
   26.5510  -33.1332   -8.3085 C   0  0  2  0  0  0  0  0  0  0  0  0
   26.0787  -33.8315   -9.5161 N   0  0  0  0  0  0  0  0  0  0  0  0
   26.8345  -34.1115   -7.2434 C   0  0  0  0  0  0  0  0  0  0  0  0
   26.1400  -35.1810   -7.1586 O   0  0  0  0  0  0  0  0  0  0  0  0
   29.8289  -35.9543   -3.7462 C   0  0  0  0  0  0  0  0  0  0  0  0
   29.5639  -35.0952   -4.9423 C   0  0  1  0  0  0  0  0  0  0  0  0
   30.2264  -35.7037   -6.0266 O   0  0  0  0  0  0  0  0  0  0  0  0
   28.0863  -34.9706   -5.2493 C   0  0  2  0  0  0  0  0  0  0  0  0
   27.8521  -33.9560   -6.2739 N   0  0  0  0  0  0  0  0  0  0  0  0
   27.2783  -34.7222   -4.0452 C   0  0  0  0  0  0  0  0  0  0  0  0
   26.6458  -35.7246   -3.3313 O   0  0  0  0  0  0  0  0  0  0  0  0
   27.1491  -33.5421   -3.6350 O   0  0  0  0  0  0  0  0  0  0  0  0
  2  1  1  1
  2  3  1  0
  2  4  1  0
  4  5  1  0
  5  6  1  6
  7  8  2  0
  7  5  1  0
 10  9  1  1
 10 11  1  0
 10 12  1  0
 12 13  1  6
 12 14  1  0
 13  7  1  0
 14 20  1  0
 15 14  2  0
 17 16  1  1
 17 18  1  0
 19 21  1  0
 19 17  1  0
 19 20  1  6
 21 22  1  0
 23 21  2  0
M  END
$$$$
