LVT.pdb
     RDKit          3D

 23 22  0  0  1  0  0  0  0  0999 V2000
   17.7530  -10.5520  -14.7028 C   0  0  0  0  0  0  0  0  0  0  0  0
   17.3082  -11.2911  -13.4683 C   0  0  2  0  0  0  0  0  0  0  0  0
   16.6043  -12.5937  -13.8166 C   0  0  0  0  0  0  0  0  0  0  0  0
   16.3323  -10.4739  -12.6449 C   0  0  0  0  0  0  0  0  0  0  0  0
   16.8995   -9.1393  -12.2318 C   0  0  2  0  0  0  0  0  0  0  0  0
   17.8983   -9.3775  -11.2123 N   0  0  0  0  0  0  0  0  0  0  0  0
   15.8664   -8.2044  -11.7481 C   0  0  0  0  0  0  0  0  0  0  0  0
   14.8774   -7.9657  -12.4866 O   0  0  0  0  0  0  0  0  0  0  0  0
   15.6835   -7.0606   -7.6980 C   0  0  0  0  0  0  0  0  0  0  0  0
   14.5516   -7.0056   -8.6539 C   0  0  2  0  0  0  0  0  0  0  0  0
   13.8207   -8.3525   -8.5866 C   0  0  0  0  0  0  0  0  0  0  0  0
   14.8793   -6.6409  -10.0691 C   0  0  2  0  0  0  0  0  0  0  0  0
   15.9469   -7.5665  -10.4844 N   0  0  0  0  0  0  0  0  0  0  0  0
   15.3202   -5.2484  -10.2647 C   0  0  0  0  0  0  0  0  0  0  0  0
   16.5338   -4.9246  -10.0287 O   0  0  0  0  0  0  0  0  0  0  0  0
   15.3246   -1.0485  -12.6244 C   0  0  0  0  0  0  0  0  0  0  0  0
   14.8383   -2.4410  -12.3723 C   0  0  1  0  0  0  0  0  0  0  0  0
   15.6099   -3.2886  -13.1913 O   0  0  0  0  0  0  0  0  0  0  0  0
   14.9886   -2.8529  -10.9229 C   0  0  2  0  0  0  0  0  0  0  0  0
   14.4769   -4.2046  -10.7110 N   0  0  0  0  0  0  0  0  0  0  0  0
   14.3758   -1.8891   -9.9955 C   0  0  0  0  0  0  0  0  0  0  0  0
   15.0836   -0.8801   -9.3668 O   0  0  0  0  0  0  0  0  0  0  0  0
   13.1464   -1.9780   -9.7543 O   0  0  0  0  0  0  0  0  0  0  0  0
  2  1  1  6
  2  3  1  0
  2  4  1  0
  4  5  1  0
  5  6  1  1
  7  8  2  0
  7  5  1  0
 10  9  1  1
 10 11  1  0
 10 12  1  0
 12 13  1  1
 12 14  1  0
 13  7  1  0
 14 20  1  0
 15 14  2  0
 17 16  1  1
 17 18  1  0
 19 21  1  0
 19 17  1  0
 19 20  1  6
 21 22  1  0
 23 21  2  0
M  END
$$$$
