LVT.pdb
     RDKit          3D

 23 22  0  0  1  0  0  0  0  0999 V2000
   25.8250  -21.1975   -7.1647 C   0  0  0  0  0  0  0  0  0  0  0  0
   27.0627  -20.5647   -7.7441 C   0  0  2  0  0  0  0  0  0  0  0  0
   27.5109  -19.3599   -6.9308 C   0  0  0  0  0  0  0  0  0  0  0  0
   26.8334  -20.0747   -9.1603 C   0  0  0  0  0  0  0  0  0  0  0  0
   26.3695  -21.1722  -10.0843 C   0  0  2  0  0  0  0  0  0  0  0  0
   27.5059  -22.0207  -10.3718 N   0  0  0  0  0  0  0  0  0  0  0  0
   25.7701  -20.6558  -11.3291 C   0  0  0  0  0  0  0  0  0  0  0  0
   26.5171  -20.0893  -12.1669 O   0  0  0  0  0  0  0  0  0  0  0  0
   24.2540  -22.8014  -13.7184 C   0  0  0  0  0  0  0  0  0  0  0  0
   24.5441  -21.3596  -13.9055 C   0  0  2  0  0  0  0  0  0  0  0  0
   26.0682  -21.1872  -13.8950 C   0  0  0  0  0  0  0  0  0  0  0  0
   23.8879  -20.4090  -12.9521 C   0  0  2  0  0  0  0  0  0  0  0  0
   24.3866  -20.7742  -11.6154 N   0  0  0  0  0  0  0  0  0  0  0  0
   22.4146  -20.4386  -12.9619 C   0  0  0  0  0  0  0  0  0  0  0  0
   21.7865  -21.1943  -12.1447 O   0  0  0  0  0  0  0  0  0  0  0  0
   18.1479  -18.1552  -14.0622 C   0  0  0  0  0  0  0  0  0  0  0  0
   19.6183  -18.3176  -14.2871 C   0  0  1  0  0  0  0  0  0  0  0  0
   20.2379  -17.1911  -13.7108 O   0  0  0  0  0  0  0  0  0  0  0  0
   20.1641  -19.5813  -13.6562 C   0  0  2  0  0  0  0  0  0  0  0  0
   21.6114  -19.6678  -13.8340 N   0  0  0  0  0  0  0  0  0  0  0  0
   19.4846  -20.7931  -14.1404 C   0  0  0  0  0  0  0  0  0  0  0  0
   19.9033  -21.5117  -15.2462 O   0  0  0  0  0  0  0  0  0  0  0  0
   18.4702  -21.2057  -13.5255 O   0  0  0  0  0  0  0  0  0  0  0  0
  2  1  1  1
  2  3  1  0
  2  4  1  0
  4  5  1  0
  5  6  1  6
  7  8  2  0
  7  5  1  0
 10  9  1  1
 10 11  1  0
 10 12  1  0
 12 13  1  1
 12 14  1  0
 13  7  1  0
 14 20  1  0
 15 14  2  0
 17 16  1  1
 17 18  1  0
 19 21  1  0
 19 17  1  0
 19 20  1  6
 21 22  1  0
 23 21  2  0
M  END
$$$$
