LVT.pdb
     RDKit          3D

 23 22  0  0  1  0  0  0  0  0999 V2000
   17.8561  -10.6183  -19.4287 C   0  0  0  0  0  0  0  0  0  0  0  0
   16.8532  -10.4094  -18.3247 C   0  0  2  0  0  0  0  0  0  0  0  0
   15.8378   -9.3354  -18.6842 C   0  0  0  0  0  0  0  0  0  0  0  0
   17.5190   -9.9673  -17.0365 C   0  0  0  0  0  0  0  0  0  0  0  0
   18.5643  -10.9441  -16.5607 C   0  0  2  0  0  0  0  0  0  0  0  0
   17.8809  -12.1175  -16.0607 N   0  0  0  0  0  0  0  0  0  0  0  0
   19.4526  -10.3737  -15.5306 C   0  0  0  0  0  0  0  0  0  0  0  0
   19.0321  -10.2979  -14.3482 O   0  0  0  0  0  0  0  0  0  0  0  0
   23.6498  -10.0262  -15.9559 C   0  0  0  0  0  0  0  0  0  0  0  0
   22.8491   -9.9767  -14.7090 C   0  0  2  0  0  0  0  0  0  0  0  0
   22.6464  -11.4196  -14.2295 C   0  0  0  0  0  0  0  0  0  0  0  0
   21.5457   -9.2418  -14.7716 C   0  0  2  0  0  0  0  0  0  0  0  0
   20.7597   -9.9090  -15.8234 N   0  0  0  0  0  0  0  0  0  0  0  0
   21.6584   -7.8027  -15.0681 C   0  0  0  0  0  0  0  0  0  0  0  0
   22.0812   -7.4183  -16.2113 O   0  0  0  0  0  0  0  0  0  0  0  0
   19.4078   -5.2448  -15.8219 C   0  0  0  0  0  0  0  0  0  0  0  0
   20.1950   -4.6672  -14.6880 C   0  0  1  0  0  0  0  0  0  0  0  0
   19.4005   -4.8141  -13.5338 O   0  0  0  0  0  0  0  0  0  0  0  0
   21.5223   -5.3680  -14.4888 C   0  0  2  0  0  0  0  0  0  0  0  0
   21.3218   -6.7761  -14.1556 N   0  0  0  0  0  0  0  0  0  0  0  0
   22.3748   -4.6922  -13.4983 C   0  0  0  0  0  0  0  0  0  0  0  0
   22.7279   -5.2560  -12.2850 O   0  0  0  0  0  0  0  0  0  0  0  0
   22.8100   -3.5428  -13.7571 O   0  0  0  0  0  0  0  0  0  0  0  0
  2  1  1  6
  2  3  1  0
  2  4  1  0
  4  5  1  0
  5  6  1  1
  7  8  2  0
  7  5  1  0
 10  9  1  6
 10 11  1  0
 10 12  1  0
 12 13  1  6
 12 14  1  0
 13  7  1  0
 14 20  1  0
 15 14  2  0
 17 16  1  6
 17 18  1  0
 19 21  1  0
 19 17  1  0
 19 20  1  1
 21 22  1  0
 23 21  2  0
M  END
$$$$
