LVT.pdb
     RDKit          3D

 23 22  0  0  1  0  0  0  0  0999 V2000
   26.4432  -13.6332  -15.1774 C   0  0  0  0  0  0  0  0  0  0  0  0
   26.3953  -13.3460  -16.6550 C   0  0  2  0  0  0  0  0  0  0  0  0
   27.7674  -12.9816  -17.2011 C   0  0  0  0  0  0  0  0  0  0  0  0
   25.4760  -12.1830  -16.9722 C   0  0  0  0  0  0  0  0  0  0  0  0
   24.0689  -12.4063  -16.4787 C   0  0  2  0  0  0  0  0  0  0  0  0
   23.5388  -13.5682  -17.1590 N   0  0  0  0  0  0  0  0  0  0  0  0
   23.1985  -11.2336  -16.6842 C   0  0  0  0  0  0  0  0  0  0  0  0
   22.9536  -10.8646  -17.8609 O   0  0  0  0  0  0  0  0  0  0  0  0
   20.1480  -10.2807  -14.1083 C   0  0  0  0  0  0  0  0  0  0  0  0
   20.3512   -9.8638  -15.5166 C   0  0  2  0  0  0  0  0  0  0  0  0
   19.9119  -11.0279  -16.4137 C   0  0  0  0  0  0  0  0  0  0  0  0
   21.7204   -9.3842  -15.8885 C   0  0  2  0  0  0  0  0  0  0  0  0
   22.6290  -10.5086  -15.6071 N   0  0  0  0  0  0  0  0  0  0  0  0
   22.1738   -8.1818  -15.1671 C   0  0  0  0  0  0  0  0  0  0  0  0
   22.7199   -8.2960  -14.0173 O   0  0  0  0  0  0  0  0  0  0  0  0
   24.4224   -5.4370  -16.7157 C   0  0  0  0  0  0  0  0  0  0  0  0
   23.3130   -4.7849  -15.9522 C   0  0  1  0  0  0  0  0  0  0  0  0
   22.3701   -4.3541  -16.9063 O   0  0  0  0  0  0  0  0  0  0  0  0
   22.6531   -5.7297  -14.9700 C   0  0  2  0  0  0  0  0  0  0  0  0
   22.0500   -6.8641  -15.6651 N   0  0  0  0  0  0  0  0  0  0  0  0
   21.6829   -5.0499  -14.0975 C   0  0  0  0  0  0  0  0  0  0  0  0
   22.0470   -4.1836  -13.0819 O   0  0  0  0  0  0  0  0  0  0  0  0
   20.4574   -5.2600  -14.2748 O   0  0  0  0  0  0  0  0  0  0  0  0
  2  1  1  1
  2  3  1  0
  2  4  1  0
  4  5  1  0
  5  6  1  6
  7  8  2  0
  7  5  1  0
 10  9  1  1
 10 11  1  0
 10 12  1  0
 12 13  1  1
 12 14  1  0
 13  7  1  0
 14 20  1  0
 15 14  2  0
 17 16  1  6
 17 18  1  0
 19 21  1  0
 19 17  1  0
 19 20  1  6
 21 22  1  0
 23 21  2  0
M  END
$$$$
