LVT.pdb
     RDKit          3D

 23 22  0  0  1  0  0  0  0  0999 V2000
   22.9613  -11.6686  -21.3366 C   0  0  0  0  0  0  0  0  0  0  0  0
   21.4670  -11.8389  -21.4146 C   0  0  2  0  0  0  0  0  0  0  0  0
   20.8672  -11.0234  -22.5499 C   0  0  0  0  0  0  0  0  0  0  0  0
   20.7820  -11.3840  -20.1409 C   0  0  0  0  0  0  0  0  0  0  0  0
   21.3124  -12.0858  -18.9164 C   0  0  2  0  0  0  0  0  0  0  0  0
   20.7999  -13.4390  -18.9229 N   0  0  0  0  0  0  0  0  0  0  0  0
   20.9570  -11.3946  -17.6628 C   0  0  0  0  0  0  0  0  0  0  0  0
   19.8341  -11.6246  -17.1462 O   0  0  0  0  0  0  0  0  0  0  0  0
   22.3688   -9.3653  -13.4777 C   0  0  0  0  0  0  0  0  0  0  0  0
   22.5025  -10.0380  -14.7921 C   0  0  2  0  0  0  0  0  0  0  0  0
   23.8625   -9.6417  -15.3806 C   0  0  0  0  0  0  0  0  0  0  0  0
   21.4012   -9.8128  -15.7817 C   0  0  2  0  0  0  0  0  0  0  0  0
   21.8323  -10.4829  -17.0203 N   0  0  0  0  0  0  0  0  0  0  0  0
   21.0955   -8.3980  -16.0585 C   0  0  0  0  0  0  0  0  0  0  0  0
   21.9717   -7.6536  -16.6167 O   0  0  0  0  0  0  0  0  0  0  0  0
   18.0584   -4.8025  -17.2407 C   0  0  0  0  0  0  0  0  0  0  0  0
   18.3450   -6.2265  -16.8816 C   0  0  1  0  0  0  0  0  0  0  0  0
   18.4685   -6.9284  -18.0969 O   0  0  0  0  0  0  0  0  0  0  0  0
   19.6165   -6.3747  -16.0728 C   0  0  2  0  0  0  0  0  0  0  0  0
   19.8642   -7.7767  -15.7460 N   0  0  0  0  0  0  0  0  0  0  0  0
   19.6223   -5.5279  -14.8697 C   0  0  0  0  0  0  0  0  0  0  0  0
   20.1894   -4.2665  -14.8278 O   0  0  0  0  0  0  0  0  0  0  0  0
   19.0874   -5.9630  -13.8199 O   0  0  0  0  0  0  0  0  0  0  0  0
  2  1  1  1
  2  3  1  0
  2  4  1  0
  4  5  1  0
  5  6  1  1
  7  8  2  0
  7  5  1  0
 10  9  1  1
 10 11  1  0
 10 12  1  0
 12 13  1  6
 12 14  1  0
 13  7  1  0
 14 20  1  0
 15 14  2  0
 17 16  1  6
 17 18  1  0
 19 21  1  0
 19 17  1  0
 19 20  1  1
 21 22  1  0
 23 21  2  0
M  END
$$$$
