LVT.pdb
     RDKit          3D

 23 22  0  0  1  0  0  0  0  0999 V2000
   24.4403  -13.8376  -14.4461 C   0  0  0  0  0  0  0  0  0  0  0  0
   24.5796  -14.0517  -15.9304 C   0  0  2  0  0  0  0  0  0  0  0  0
   26.0069  -13.8156  -16.4004 C   0  0  0  0  0  0  0  0  0  0  0  0
   23.6975  -13.1049  -16.7202 C   0  0  0  0  0  0  0  0  0  0  0  0
   22.3186  -12.9674  -16.1260 C   0  0  2  0  0  0  0  0  0  0  0  0
   21.5528  -14.1350  -16.5057 N   0  0  0  0  0  0  0  0  0  0  0  0
   21.6354  -11.7302  -16.5478 C   0  0  0  0  0  0  0  0  0  0  0  0
   21.4842  -11.5153  -17.7773 O   0  0  0  0  0  0  0  0  0  0  0  0
   18.4479  -10.1756  -14.7594 C   0  0  0  0  0  0  0  0  0  0  0  0
   19.0271   -9.8155  -16.0758 C   0  0  2  0  0  0  0  0  0  0  0  0
   18.6395  -10.9166  -17.0708 C   0  0  0  0  0  0  0  0  0  0  0  0
   20.5002   -9.5479  -16.1155 C   0  0  2  0  0  0  0  0  0  0  0  0
   21.1441  -10.7765  -15.6208 N   0  0  0  0  0  0  0  0  0  0  0  0
   20.9428   -8.3933  -15.3139 C   0  0  0  0  0  0  0  0  0  0  0  0
   21.2492   -8.5513  -14.0832 O   0  0  0  0  0  0  0  0  0  0  0  0
   23.5570   -5.7079  -16.5437 C   0  0  0  0  0  0  0  0  0  0  0  0
   22.4165   -5.0363  -15.8456 C   0  0  1  0  0  0  0  0  0  0  0  0
   21.5992   -4.4862  -16.8527 O   0  0  0  0  0  0  0  0  0  0  0  0
   21.6094   -5.9978  -14.9990 C   0  0  2  0  0  0  0  0  0  0  0  0
   21.0618   -7.0770  -15.8170 N   0  0  0  0  0  0  0  0  0  0  0  0
   20.5602   -5.3211  -14.2207 C   0  0  0  0  0  0  0  0  0  0  0  0
   20.8236   -4.4953  -13.1422 O   0  0  0  0  0  0  0  0  0  0  0  0
   19.3589   -5.4952  -14.5434 O   0  0  0  0  0  0  0  0  0  0  0  0
  2  1  1  1
  2  3  1  0
  2  4  1  0
  4  5  1  0
  5  6  1  6
  7  8  2  0
  7  5  1  0
 10  9  1  1
 10 11  1  0
 10 12  1  0
 12 13  1  1
 12 14  1  0
 13  7  1  0
 14 20  1  0
 15 14  2  0
 17 16  1  6
 17 18  1  0
 19 21  1  0
 19 17  1  0
 19 20  1  6
 21 22  1  0
 23 21  2  0
M  END
$$$$
