LVT.pdb
     RDKit          3D

 23 22  0  0  1  0  0  0  0  0999 V2000
   15.5756  -10.9450  -17.3801 C   0  0  0  0  0  0  0  0  0  0  0  0
   16.3399  -12.0744  -16.7409 C   0  0  2  0  0  0  0  0  0  0  0  0
   15.4246  -12.9927  -15.9455 C   0  0  0  0  0  0  0  0  0  0  0  0
   17.3931  -11.5654  -15.7765 C   0  0  0  0  0  0  0  0  0  0  0  0
   18.2890  -10.5226  -16.3956 C   0  0  2  0  0  0  0  0  0  0  0  0
   19.0652  -11.1641  -17.4348 N   0  0  0  0  0  0  0  0  0  0  0  0
   19.1691   -9.8674  -15.4100 C   0  0  0  0  0  0  0  0  0  0  0  0
   18.6584   -9.4155  -14.3537 O   0  0  0  0  0  0  0  0  0  0  0  0
   23.4669  -10.0773  -15.6249 C   0  0  0  0  0  0  0  0  0  0  0  0
   22.6091   -9.9237  -14.4255 C   0  0  2  0  0  0  0  0  0  0  0  0
   22.2476  -11.3296  -13.9298 C   0  0  0  0  0  0  0  0  0  0  0  0
   21.3850   -9.0738  -14.5745 C   0  0  2  0  0  0  0  0  0  0  0  0
   20.5661   -9.7286  -15.6087 N   0  0  0  0  0  0  0  0  0  0  0  0
   21.6442   -7.6736  -14.9537 C   0  0  0  0  0  0  0  0  0  0  0  0
   22.1938   -7.4083  -16.0767 O   0  0  0  0  0  0  0  0  0  0  0  0
   19.6886   -4.9232  -16.0305 C   0  0  0  0  0  0  0  0  0  0  0  0
   20.4462   -4.3848  -14.8579 C   0  0  1  0  0  0  0  0  0  0  0  0
   19.5618   -4.4160  -13.7616 O   0  0  0  0  0  0  0  0  0  0  0  0
   21.6818   -5.2014  -14.5428 C   0  0  2  0  0  0  0  0  0  0  0  0
   21.3196   -6.5596  -14.1453 N   0  0  0  0  0  0  0  0  0  0  0  0
   22.5457   -4.5555  -13.5423 C   0  0  0  0  0  0  0  0  0  0  0  0
   23.1988   -3.3553  -13.7600 O   0  0  0  0  0  0  0  0  0  0  0  0
   22.7059   -5.1142  -12.4289 O   0  0  0  0  0  0  0  0  0  0  0  0
  2  1  1  1
  2  3  1  0
  2  4  1  0
  4  5  1  0
  5  6  1  6
  7  8  2  0
  7  5  1  0
 10  9  1  6
 10 11  1  0
 10 12  1  0
 12 13  1  6
 12 14  1  0
 13  7  1  0
 14 20  1  0
 15 14  2  0
 17 16  1  6
 17 18  1  0
 19 21  1  0
 19 17  1  0
 19 20  1  1
 21 22  1  0
 23 21  2  0
M  END
$$$$
