LVT.pdb
     RDKit          3D

 23 22  0  0  1  0  0  0  0  0999 V2000
   10.1683  -11.8305  -11.4115 C   0  0  0  0  0  0  0  0  0  0  0  0
   10.9762  -12.4112  -10.2809 C   0  0  2  0  0  0  0  0  0  0  0  0
   10.2948  -12.2001   -8.9374 C   0  0  0  0  0  0  0  0  0  0  0  0
   12.3462  -11.7695  -10.1813 C   0  0  0  0  0  0  0  0  0  0  0  0
   13.1551  -11.9337  -11.4431 C   0  0  2  0  0  0  0  0  0  0  0  0
   13.6335  -13.2985  -11.4895 N   0  0  0  0  0  0  0  0  0  0  0  0
   14.2765  -10.9797  -11.5310 C   0  0  0  0  0  0  0  0  0  0  0  0
   15.3623  -11.2738  -10.9695 O   0  0  0  0  0  0  0  0  0  0  0  0
   16.6462   -7.5422  -13.9824 C   0  0  0  0  0  0  0  0  0  0  0  0
   15.6497   -8.5972  -13.6793 C   0  0  2  0  0  0  0  0  0  0  0  0
   14.3836   -8.2864  -14.4875 C   0  0  0  0  0  0  0  0  0  0  0  0
   15.3244   -8.8247  -12.2351 C   0  0  2  0  0  0  0  0  0  0  0  0
   14.1760   -9.7466  -12.2235 N   0  0  0  0  0  0  0  0  0  0  0  0
   14.9960   -7.6065  -11.4738 C   0  0  0  0  0  0  0  0  0  0  0  0
   13.8612   -7.0408  -11.6342 O   0  0  0  0  0  0  0  0  0  0  0  0
   14.6759   -6.8467   -7.6951 C   0  0  0  0  0  0  0  0  0  0  0  0
   15.7006   -5.9599   -8.3295 C   0  0  1  0  0  0  0  0  0  0  0  0
   16.9511   -6.5683   -8.1036 O   0  0  0  0  0  0  0  0  0  0  0  0
   15.4758   -5.7880   -9.8171 C   0  0  2  0  0  0  0  0  0  0  0  0
   15.8675   -6.9926  -10.5446 N   0  0  0  0  0  0  0  0  0  0  0  0
   16.1399   -4.5899  -10.3538 C   0  0  0  0  0  0  0  0  0  0  0  0
   15.7247   -3.2994  -10.0771 O   0  0  0  0  0  0  0  0  0  0  0  0
   17.1369   -4.7346  -11.1038 O   0  0  0  0  0  0  0  0  0  0  0  0
  2  1  1  6
  2  3  1  0
  2  4  1  0
  4  5  1  0
  5  6  1  1
  7  8  2  0
  7  5  1  0
 10  9  1  1
 10 11  1  0
 10 12  1  0
 12 13  1  6
 12 14  1  0
 13  7  1  0
 14 20  1  0
 15 14  2  0
 17 16  1  6
 17 18  1  0
 19 21  1  0
 19 17  1  0
 19 20  1  6
 21 22  1  0
 23 21  2  0
M  END
$$$$
