LVT.pdb
     RDKit          3D

 23 22  0  0  1  0  0  0  0  0999 V2000
   18.5061  -10.9264  -20.1078 C   0  0  0  0  0  0  0  0  0  0  0  0
   17.3216  -10.5918  -19.2399 C   0  0  2  0  0  0  0  0  0  0  0  0
   16.4602   -9.5028  -19.8609 C   0  0  0  0  0  0  0  0  0  0  0  0
   17.7490  -10.0861  -17.8761 C   0  0  0  0  0  0  0  0  0  0  0  0
   18.6454  -11.0592  -17.1530 C   0  0  2  0  0  0  0  0  0  0  0  0
   17.8364  -12.1856  -16.7397 N   0  0  0  0  0  0  0  0  0  0  0  0
   19.3325  -10.4528  -15.9974 C   0  0  0  0  0  0  0  0  0  0  0  0
   18.7007  -10.3315  -14.9172 O   0  0  0  0  0  0  0  0  0  0  0  0
   23.3572   -9.7681  -13.4429 C   0  0  0  0  0  0  0  0  0  0  0  0
   22.4915  -10.2295  -14.5546 C   0  0  2  0  0  0  0  0  0  0  0  0
   23.3801  -10.4077  -15.7921 C   0  0  0  0  0  0  0  0  0  0  0  0
   21.2915   -9.3905  -14.8696 C   0  0  2  0  0  0  0  0  0  0  0  0
   20.6756  -10.0028  -16.0590 N   0  0  0  0  0  0  0  0  0  0  0  0
   21.5795   -7.9691  -15.1308 C   0  0  0  0  0  0  0  0  0  0  0  0
   22.2012   -7.6294  -16.1945 O   0  0  0  0  0  0  0  0  0  0  0  0
   19.2566   -4.7694  -13.8876 C   0  0  0  0  0  0  0  0  0  0  0  0
   20.2997   -4.7452  -14.9601 C   0  0  1  0  0  0  0  0  0  0  0  0
   20.6315   -3.3914  -15.1650 O   0  0  0  0  0  0  0  0  0  0  0  0
   21.5404   -5.5247  -14.5783 C   0  0  2  0  0  0  0  0  0  0  0  0
   21.2072   -6.9126  -14.2676 N   0  0  0  0  0  0  0  0  0  0  0  0
   22.2922   -4.8894  -13.4847 C   0  0  0  0  0  0  0  0  0  0  0  0
   22.9833   -3.6991  -13.6256 O   0  0  0  0  0  0  0  0  0  0  0  0
   22.3146   -5.4484  -12.3602 O   0  0  0  0  0  0  0  0  0  0  0  0
  2  1  1  6
  2  3  1  0
  2  4  1  0
  4  5  1  0
  5  6  1  1
  7  8  2  0
  7  5  1  0
 10  9  1  1
 10 11  1  0
 10 12  1  0
 12 13  1  6
 12 14  1  0
 13  7  1  0
 14 20  1  0
 15 14  2  0
 17 16  1  1
 17 18  1  0
 19 21  1  0
 19 17  1  0
 19 20  1  1
 21 22  1  0
 23 21  2  0
M  END
$$$$
