LVT.pdb
     RDKit          3D

 23 22  0  0  1  0  0  0  0  0999 V2000
   25.4839  -22.1622  -11.2553 C   0  0  0  0  0  0  0  0  0  0  0  0
   26.5547  -21.1288  -11.0236 C   0  0  2  0  0  0  0  0  0  0  0  0
   26.3987  -20.4521   -9.6703 C   0  0  0  0  0  0  0  0  0  0  0  0
   26.5120  -20.0310  -12.0683 C   0  0  0  0  0  0  0  0  0  0  0  0
   26.2479  -20.5616  -13.4547 C   0  0  2  0  0  0  0  0  0  0  0  0
   27.4864  -20.4934  -14.1998 N   0  0  0  0  0  0  0  0  0  0  0  0
   25.1736  -19.8296  -14.1516 C   0  0  0  0  0  0  0  0  0  0  0  0
   25.3514  -18.6151  -14.4238 O   0  0  0  0  0  0  0  0  0  0  0  0
   22.1937  -19.2653  -17.6274 C   0  0  0  0  0  0  0  0  0  0  0  0
   23.1178  -19.9405  -16.6849 C   0  0  2  0  0  0  0  0  0  0  0  0
   23.0456  -21.4473  -16.9628 C   0  0  0  0  0  0  0  0  0  0  0  0
   22.9268  -19.6518  -15.2278 C   0  0  2  0  0  0  0  0  0  0  0  0
   23.9511  -20.4429  -14.5250 N   0  0  0  0  0  0  0  0  0  0  0  0
   21.5909  -19.9810  -14.6999 C   0  0  0  0  0  0  0  0  0  0  0  0
   21.2777  -21.1989  -14.4717 O   0  0  0  0  0  0  0  0  0  0  0  0
   19.9813  -18.7439  -11.4860 C   0  0  0  0  0  0  0  0  0  0  0  0
   19.0112  -18.5374  -12.6064 C   0  0  1  0  0  0  0  0  0  0  0  0
   19.0993  -17.1781  -12.9662 O   0  0  0  0  0  0  0  0  0  0  0  0
   19.3205  -19.4063  -13.8072 C   0  0  2  0  0  0  0  0  0  0  0  0
   20.5925  -19.0213  -14.4136 N   0  0  0  0  0  0  0  0  0  0  0  0
   18.2295  -19.4147  -14.7942 C   0  0  0  0  0  0  0  0  0  0  0  0
   18.3563  -18.9074  -16.0752 O   0  0  0  0  0  0  0  0  0  0  0  0
   17.1205  -19.9056  -14.4674 O   0  0  0  0  0  0  0  0  0  0  0  0
  2  1  1  6
  2  3  1  0
  2  4  1  0
  4  5  1  0
  5  6  1  6
  7  8  2  0
  7  5  1  0
 10  9  1  6
 10 11  1  0
 10 12  1  0
 12 13  1  1
 12 14  1  0
 13  7  1  0
 14 20  1  0
 15 14  2  0
 17 16  1  1
 17 18  1  0
 19 21  1  0
 19 17  1  0
 19 20  1  6
 21 22  1  0
 23 21  2  0
M  END
$$$$
