LVT.pdb
     RDKit          3D

 23 22  0  0  1  0  0  0  0  0999 V2000
   26.4938  -21.4960   -7.0896 C   0  0  0  0  0  0  0  0  0  0  0  0
   27.3917  -20.4242   -7.6494 C   0  0  2  0  0  0  0  0  0  0  0  0
   27.5940  -19.2873   -6.6594 C   0  0  0  0  0  0  0  0  0  0  0  0
   26.8147  -19.8089   -8.9091 C   0  0  0  0  0  0  0  0  0  0  0  0
   26.5754  -20.8283   -9.9939 C   0  0  2  0  0  0  0  0  0  0  0  0
   27.8557  -21.1629  -10.5793 N   0  0  0  0  0  0  0  0  0  0  0  0
   25.6329  -20.3550  -11.0249 C   0  0  0  0  0  0  0  0  0  0  0  0
   25.8610  -19.2549  -11.5892 O   0  0  0  0  0  0  0  0  0  0  0  0
   24.8247  -22.1717  -14.1701 C   0  0  0  0  0  0  0  0  0  0  0  0
   24.5095  -20.7849  -13.7513 C   0  0  2  0  0  0  0  0  0  0  0  0
   25.8373  -20.0319  -13.6005 C   0  0  0  0  0  0  0  0  0  0  0  0
   23.6579  -20.6249  -12.5297 C   0  0  2  0  0  0  0  0  0  0  0  0
   24.4824  -21.0925  -11.4025 N   0  0  0  0  0  0  0  0  0  0  0  0
   22.3846  -21.3662  -12.5596 C   0  0  0  0  0  0  0  0  0  0  0  0
   22.3799  -22.6328  -12.3886 O   0  0  0  0  0  0  0  0  0  0  0  0
   19.7119  -21.4173  -10.2116 C   0  0  0  0  0  0  0  0  0  0  0  0
   19.0453  -21.1270  -11.5194 C   0  0  1  0  0  0  0  0  0  0  0  0
   18.8283  -19.7355  -11.5576 O   0  0  0  0  0  0  0  0  0  0  0  0
   19.8890  -21.5467  -12.7047 C   0  0  2  0  0  0  0  0  0  0  0  0
   21.1216  -20.7653  -12.7680 N   0  0  0  0  0  0  0  0  0  0  0  0
   19.1466  -21.4927  -13.9737 C   0  0  0  0  0  0  0  0  0  0  0  0
   18.0310  -22.2673  -14.2379 O   0  0  0  0  0  0  0  0  0  0  0  0
   19.5373  -20.7058  -14.8713 O   0  0  0  0  0  0  0  0  0  0  0  0
  2  1  1  1
  2  3  1  0
  2  4  1  0
  4  5  1  0
  5  6  1  6
  7  8  2  0
  7  5  1  0
 10  9  1  1
 10 11  1  0
 10 12  1  0
 12 13  1  1
 12 14  1  0
 13  7  1  0
 14 20  1  0
 15 14  2  0
 17 16  1  1
 17 18  1  0
 19 21  1  0
 19 17  1  0
 19 20  1  6
 21 22  1  0
 23 21  2  0
M  END
$$$$
