LVT.pdb
     RDKit          3D

 23 22  0  0  1  0  0  0  0  0999 V2000
   26.6586  -14.6454  -15.2251 C   0  0  0  0  0  0  0  0  0  0  0  0
   26.6886  -14.3604  -16.7036 C   0  0  2  0  0  0  0  0  0  0  0  0
   27.9991  -13.7127  -17.1243 C   0  0  0  0  0  0  0  0  0  0  0  0
   25.5804  -13.4116  -17.1159 C   0  0  0  0  0  0  0  0  0  0  0  0
   24.2087  -13.9524  -16.8010 C   0  0  2  0  0  0  0  0  0  0  0  0
   24.0424  -15.1924  -17.5279 N   0  0  0  0  0  0  0  0  0  0  0  0
   23.1303  -13.0013  -17.1294 C   0  0  0  0  0  0  0  0  0  0  0  0
   22.8303  -12.8253  -18.3376 O   0  0  0  0  0  0  0  0  0  0  0  0
   20.0290  -12.0726  -14.5379 C   0  0  0  0  0  0  0  0  0  0  0  0
   20.0974  -11.8395  -16.0005 C   0  0  2  0  0  0  0  0  0  0  0  0
   19.7029  -13.1472  -16.6983 C   0  0  0  0  0  0  0  0  0  0  0  0
   21.3898  -11.3095  -16.5406 C   0  0  2  0  0  0  0  0  0  0  0  0
   22.4212  -12.2799  -16.1360 N   0  0  0  0  0  0  0  0  0  0  0  0
   21.7554   -9.9633  -16.0653 C   0  0  0  0  0  0  0  0  0  0  0  0
   22.5304   -9.8315  -15.0576 O   0  0  0  0  0  0  0  0  0  0  0  0
   20.5782   -6.1612  -17.9699 C   0  0  0  0  0  0  0  0  0  0  0  0
   21.9072   -6.4980  -17.3706 C   0  0  1  0  0  0  0  0  0  0  0  0
   22.4661   -5.2827  -16.9282 O   0  0  0  0  0  0  0  0  0  0  0  0
   21.7903   -7.4613  -16.2082 C   0  0  2  0  0  0  0  0  0  0  0  0
   21.3020   -8.7623  -16.6584 N   0  0  0  0  0  0  0  0  0  0  0  0
   20.9711   -6.9247  -15.1102 C   0  0  0  0  0  0  0  0  0  0  0  0
   21.4044   -5.9301  -14.2514 O   0  0  0  0  0  0  0  0  0  0  0  0
   19.8165   -7.3866  -14.9340 O   0  0  0  0  0  0  0  0  0  0  0  0
  2  1  1  1
  2  3  1  0
  2  4  1  0
  4  5  1  0
  5  6  1  6
  7  8  2  0
  7  5  1  0
 10  9  1  1
 10 11  1  0
 10 12  1  0
 12 13  1  1
 12 14  1  0
 13  7  1  0
 14 20  1  0
 15 14  2  0
 17 16  1  1
 17 18  1  0
 19 21  1  0
 19 17  1  0
 19 20  1  6
 21 22  1  0
 23 21  2  0
M  END
$$$$
