QLW.pdb
     RDKit          3D

 32 33  0  0  1  0  0  0  0  0999 V2000
   23.7466  -24.2166  -14.7348 N   0  0  0  0  0  0  0  0  0  0  0  0
   24.2059  -24.5243  -13.3922 C   0  0  0  0  0  0  0  0  0  0  0  0
   24.2837  -25.7394  -13.1272 O   0  0  0  0  0  0  0  0  0  0  0  0
   24.5343  -23.4412  -12.4614 C   0  0  0  0  0  0  0  0  0  0  0  0
   24.4299  -22.0710  -13.0231 C   0  0  0  0  0  0  0  0  0  0  0  0
   25.6869  -21.2542  -12.8894 C   0  0  2  0  0  0  0  0  0  0  0  0
   26.1508  -21.0914  -11.5540 N   0  0  0  0  0  0  0  0  0  0  0  0
   25.5219  -19.9424  -13.5884 C   0  0  0  0  0  0  0  0  0  0  0  0
   25.2119  -18.9139  -12.9230 O   0  0  0  0  0  0  0  0  0  0  0  0
   28.7689  -18.3454  -17.5966 C   0  0  0  0  0  0  0  0  0  0  0  0
   27.8761  -18.3811  -16.3610 C   0  0  1  0  0  0  0  0  0  0  0  0
   28.0373  -16.9900  -15.7253 C   0  0  0  0  0  0  0  0  0  0  0  0
   26.4364  -18.4676  -16.7917 C   0  0  0  0  0  0  0  0  0  0  0  0
   25.4654  -18.4993  -15.6384 C   0  0  2  0  0  0  0  0  0  0  0  0
   25.6952  -19.7913  -14.9692 N   0  0  0  0  0  0  0  0  0  0  0  0
   24.0419  -18.4748  -16.0822 C   0  0  0  0  0  0  0  0  0  0  0  0
   23.5036  -19.5337  -16.5087 O   0  0  0  0  0  0  0  0  0  0  0  0
   23.2617  -17.2933  -16.0429 N   0  0  0  0  0  0  0  0  0  0  0  0
   21.8520  -17.2263  -16.4268 C   0  0  1  0  0  0  0  0  0  0  0  0
   21.2671  -15.9094  -16.0805 C   0  0  0  0  0  0  0  0  0  0  0  0
   19.8396  -15.8131  -16.4200 C   0  0  0  0  0  0  0  0  0  0  0  0
   18.7872  -16.5581  -15.8681 C   0  0  0  0  0  0  0  0  0  0  0  0
   17.6466  -16.2199  -16.4623 N   0  0  0  0  0  0  0  0  0  0  0  0
   17.8769  -15.2819  -17.3873 C   0  0  0  0  0  0  0  0  0  0  0  0
   17.0058  -14.6104  -18.2397 C   0  0  0  0  0  0  0  0  0  0  0  0
   17.5071  -13.6615  -19.0845 C   0  0  0  0  0  0  0  0  0  0  0  0
   18.8593  -13.3605  -19.1058 C   0  0  0  0  0  0  0  0  0  0  0  0
   19.6921  -14.0480  -18.2477 C   0  0  0  0  0  0  0  0  0  0  0  0
   19.2291  -15.0108  -17.3817 C   0  0  0  0  0  0  0  0  0  0  0  0
   21.7365  -17.5631  -17.8354 C   0  0  0  0  0  0  0  0  0  0  0  0
   22.6044  -17.1728  -18.6919 O   0  0  0  0  0  0  0  0  0  0  0  0
   20.7086  -18.3286  -18.3911 O   0  0  0  0  0  0  0  0  0  0  0  0
  2  1  1  0
  2  4  1  0
  3  2  2  0
  5  4  1  0
  6  5  1  0
  6  7  1  1
  8  6  1  0
  9  8  2  0
 11 10  1  6
 11 12  1  0
 11 13  1  0
 14 13  1  6
 14 15  1  0
 15  8  1  0
 16 18  1  0
 16 14  1  0
 17 16  2  0
 19 30  1  0
 19 18  1  0
 19 20  1  6
 21 29  1  0
 21 20  1  0
 22 21  2  0
 23 22  1  0
 23 24  1  0
 24 25  1  0
 24 29  2  0
 25 26  2  0
 26 27  1  0
 28 27  2  0
 29 28  1  0
 30 32  1  0
 31 30  2  0
M  END
$$$$
