QLW.pdb
     RDKit          3D

 32 33  0  0  1  0  0  0  0  0999 V2000
   27.0902  -17.2616  -15.1699 N   0  0  0  0  0  0  0  0  0  0  0  0
   27.4353  -17.6004  -16.5389 C   0  0  0  0  0  0  0  0  0  0  0  0
   28.3987  -16.9672  -17.0118 O   0  0  0  0  0  0  0  0  0  0  0  0
   26.6664  -18.6179  -17.2605 C   0  0  0  0  0  0  0  0  0  0  0  0
   25.6812  -19.3663  -16.4401 C   0  0  0  0  0  0  0  0  0  0  0  0
   26.3003  -20.2691  -15.4073 C   0  0  2  0  0  0  0  0  0  0  0  0
   27.1453  -21.2849  -15.9357 N   0  0  0  0  0  0  0  0  0  0  0  0
   25.2389  -20.8314  -14.5164 C   0  0  0  0  0  0  0  0  0  0  0  0
   24.6280  -21.8834  -14.8583 O   0  0  0  0  0  0  0  0  0  0  0  0
   26.2398  -20.5371   -9.4102 C   0  0  0  0  0  0  0  0  0  0  0  0
   25.8421  -20.8257  -10.8537 C   0  0  1  0  0  0  0  0  0  0  0  0
   26.0576  -22.3394  -11.0205 C   0  0  0  0  0  0  0  0  0  0  0  0
   24.3618  -20.6050  -11.0139 C   0  0  0  0  0  0  0  0  0  0  0  0
   23.8669  -20.8481  -12.4174 C   0  0  2  0  0  0  0  0  0  0  0  0
   24.8784  -20.2409  -13.2994 N   0  0  0  0  0  0  0  0  0  0  0  0
   22.5683  -20.1699  -12.6965 C   0  0  0  0  0  0  0  0  0  0  0  0
   22.3628  -19.0082  -12.2480 O   0  0  0  0  0  0  0  0  0  0  0  0
   21.5443  -20.7882  -13.4550 N   0  0  0  0  0  0  0  0  0  0  0  0
   20.2435  -20.1787  -13.7301 C   0  0  1  0  0  0  0  0  0  0  0  0
   20.2936  -19.3448  -14.9541 C   0  0  0  0  0  0  0  0  0  0  0  0
   20.7935  -20.0807  -16.1248 C   0  0  0  0  0  0  0  0  0  0  0  0
   20.4593  -21.3881  -16.5075 C   0  0  0  0  0  0  0  0  0  0  0  0
   21.1489  -21.7206  -17.5948 N   0  0  0  0  0  0  0  0  0  0  0  0
   21.9313  -20.7016  -17.9660 C   0  0  0  0  0  0  0  0  0  0  0  0
   22.8062  -20.5696  -19.0400 C   0  0  0  0  0  0  0  0  0  0  0  0
   23.4750  -19.3906  -19.2075 C   0  0  0  0  0  0  0  0  0  0  0  0
   23.2971  -18.3327  -18.3308 C   0  0  0  0  0  0  0  0  0  0  0  0
   22.4230  -18.5012  -17.2772 C   0  0  0  0  0  0  0  0  0  0  0  0
   21.7301  -19.6713  -17.0717 C   0  0  0  0  0  0  0  0  0  0  0  0
   19.2391  -21.2274  -13.7799 C   0  0  0  0  0  0  0  0  0  0  0  0
   19.5631  -22.4653  -13.8212 O   0  0  0  0  0  0  0  0  0  0  0  0
   17.8590  -21.0111  -13.7801 O   0  0  0  0  0  0  0  0  0  0  0  0
  2  1  1  0
  2  4  1  0
  3  2  2  0
  5  4  1  0
  6  5  1  0
  6  7  1  6
  8  6  1  0
  9  8  2  0
 11 10  1  1
 11 12  1  0
 11 13  1  0
 14 13  1  1
 14 15  1  0
 15  8  1  0
 16 18  1  0
 16 14  1  0
 17 16  2  0
 19 30  1  0
 19 18  1  0
 19 20  1  6
 21 29  1  0
 21 20  1  0
 22 21  2  0
 23 22  1  0
 23 24  1  0
 24 25  1  0
 24 29  2  0
 25 26  2  0
 26 27  1  0
 28 27  2  0
 29 28  1  0
 30 32  1  0
 31 30  2  0
M  END
$$$$
