QLW.pdb
     RDKit          3D

 32 33  0  0  1  0  0  0  0  0999 V2000
   13.2338  -10.1192    1.4282 N   0  0  0  0  0  0  0  0  0  0  0  0
   12.0031  -10.7386    1.8862 C   0  0  0  0  0  0  0  0  0  0  0  0
   10.9583  -10.2368    1.4285 O   0  0  0  0  0  0  0  0  0  0  0  0
   12.0511  -11.8652    2.8219 C   0  0  0  0  0  0  0  0  0  0  0  0
   13.4110  -12.3766    3.1270 C   0  0  0  0  0  0  0  0  0  0  0  0
   13.4516  -13.3905    4.2385 C   0  0  2  0  0  0  0  0  0  0  0  0
   13.0794  -12.8869    5.5163 N   0  0  0  0  0  0  0  0  0  0  0  0
   14.7870  -14.0632    4.2694 C   0  0  0  0  0  0  0  0  0  0  0  0
   15.1873  -14.7053    3.2575 O   0  0  0  0  0  0  0  0  0  0  0  0
   19.1327  -11.6832    5.4693 C   0  0  0  0  0  0  0  0  0  0  0  0
   18.1565  -12.6940    4.8773 C   0  0  1  0  0  0  0  0  0  0  0  0
   18.9126  -13.3150    3.6908 C   0  0  0  0  0  0  0  0  0  0  0  0
   17.9476  -13.8156    5.8591 C   0  0  0  0  0  0  0  0  0  0  0  0
   16.8837  -14.7959    5.4335 C   0  0  2  0  0  0  0  0  0  0  0  0
   15.6334  -14.0187    5.3835 N   0  0  0  0  0  0  0  0  0  0  0  0
   16.6850  -15.8958    6.4208 C   0  0  0  0  0  0  0  0  0  0  0  0
   15.9246  -15.7142    7.4117 O   0  0  0  0  0  0  0  0  0  0  0  0
   17.3255  -17.1520    6.2868 N   0  0  0  0  0  0  0  0  0  0  0  0
   17.2319  -18.2311    7.2696 C   0  0  1  0  0  0  0  0  0  0  0  0
   16.3123  -19.2965    6.8057 C   0  0  0  0  0  0  0  0  0  0  0  0
   16.2299  -19.3796    5.3399 C   0  0  0  0  0  0  0  0  0  0  0  0
   17.0998  -20.0684    4.4819 C   0  0  0  0  0  0  0  0  0  0  0  0
   16.7257  -19.8712    3.2212 N   0  0  0  0  0  0  0  0  0  0  0  0
   15.6450  -19.0843    3.1857 C   0  0  0  0  0  0  0  0  0  0  0  0
   14.8892  -18.6233    2.1121 C   0  0  0  0  0  0  0  0  0  0  0  0
   13.7978  -17.8404    2.3591 C   0  0  0  0  0  0  0  0  0  0  0  0
   13.4351  -17.5005    3.6524 C   0  0  0  0  0  0  0  0  0  0  0  0
   14.2092  -17.9748    4.6908 C   0  0  0  0  0  0  0  0  0  0  0  0
   15.3160  -18.7652    4.4863 C   0  0  0  0  0  0  0  0  0  0  0  0
   18.5720  -18.7069    7.5678 C   0  0  0  0  0  0  0  0  0  0  0  0
   19.5897  -18.3065    6.9022 O   0  0  0  0  0  0  0  0  0  0  0  0
   18.8895  -19.6141    8.5815 O   0  0  0  0  0  0  0  0  0  0  0  0
  2  1  1  0
  2  4  1  0
  3  2  2  0
  5  4  1  0
  6  5  1  0
  6  7  1  1
  8  6  1  0
  9  8  2  0
 11 10  1  1
 11 12  1  0
 11 13  1  0
 14 13  1  1
 14 15  1  0
 15  8  1  0
 16 18  1  0
 16 14  1  0
 17 16  2  0
 19 30  1  0
 19 18  1  0
 19 20  1  6
 21 29  1  0
 21 20  1  0
 22 21  2  0
 23 22  1  0
 23 24  1  0
 24 25  1  0
 24 29  2  0
 25 26  2  0
 26 27  1  0
 28 27  2  0
 29 28  1  0
 30 32  1  0
 31 30  2  0
M  END
$$$$
