QLW.pdb
     RDKit          3D

 32 33  0  0  1  0  0  0  0  0999 V2000
   28.9186  -24.3336  -17.2992 N   0  0  0  0  0  0  0  0  0  0  0  0
   29.1896  -23.1129  -18.0371 C   0  0  0  0  0  0  0  0  0  0  0  0
   29.6366  -23.2810  -19.1881 O   0  0  0  0  0  0  0  0  0  0  0  0
   28.9394  -21.8087  -17.4178 C   0  0  0  0  0  0  0  0  0  0  0  0
   28.3579  -21.8577  -16.0527 C   0  0  0  0  0  0  0  0  0  0  0  0
   26.9250  -21.4037  -15.9780 C   0  0  2  0  0  0  0  0  0  0  0  0
   26.7316  -20.0094  -16.1862 N   0  0  0  0  0  0  0  0  0  0  0  0
   26.3063  -21.8697  -14.6987 C   0  0  0  0  0  0  0  0  0  0  0  0
   26.1751  -23.1075  -14.4819 O   0  0  0  0  0  0  0  0  0  0  0  0
   27.9847  -19.6911  -10.4834 C   0  0  0  0  0  0  0  0  0  0  0  0
   27.4028  -20.5647  -11.5895 C   0  0  1  0  0  0  0  0  0  0  0  0
   28.0377  -21.9476  -11.3665 C   0  0  0  0  0  0  0  0  0  0  0  0
   25.9282  -20.7503  -11.3511 C   0  0  0  0  0  0  0  0  0  0  0  0
   25.2258  -21.4772  -12.4700 C   0  0  2  0  0  0  0  0  0  0  0  0
   25.8546  -20.9884  -13.7092 N   0  0  0  0  0  0  0  0  0  0  0  0
   23.7732  -21.1489  -12.5484 C   0  0  0  0  0  0  0  0  0  0  0  0
   23.0259  -21.3875  -11.5597 O   0  0  0  0  0  0  0  0  0  0  0  0
   23.1934  -20.5726  -13.7051 N   0  0  0  0  0  0  0  0  0  0  0  0
   21.7544  -20.4074  -13.9077 C   0  0  1  0  0  0  0  0  0  0  0  0
   21.4334  -19.0317  -14.3554 C   0  0  0  0  0  0  0  0  0  0  0  0
   20.0036  -18.8455  -14.6441 C   0  0  0  0  0  0  0  0  0  0  0  0
   18.9398  -18.9262  -13.7337 C   0  0  0  0  0  0  0  0  0  0  0  0
   17.7911  -18.7441  -14.3783 N   0  0  0  0  0  0  0  0  0  0  0  0
   18.0270  -18.5430  -15.6792 C   0  0  0  0  0  0  0  0  0  0  0  0
   17.1557  -18.2893  -16.7341 C   0  0  0  0  0  0  0  0  0  0  0  0
   17.6698  -18.0911  -17.9838 C   0  0  0  0  0  0  0  0  0  0  0  0
   19.0349  -18.1391  -18.2152 C   0  0  0  0  0  0  0  0  0  0  0  0
   19.8672  -18.3946  -17.1454 C   0  0  0  0  0  0  0  0  0  0  0  0
   19.3914  -18.6003  -15.8715 C   0  0  0  0  0  0  0  0  0  0  0  0
   21.2909  -21.4399  -14.8189 C   0  0  0  0  0  0  0  0  0  0  0  0
   22.0531  -21.9264  -15.7252 O   0  0  0  0  0  0  0  0  0  0  0  0
   20.0122  -22.0024  -14.8035 O   0  0  0  0  0  0  0  0  0  0  0  0
  2  1  1  0
  2  4  1  0
  3  2  2  0
  5  4  1  0
  6  5  1  0
  6  7  1  1
  8  6  1  0
  9  8  2  0
 11 10  1  1
 11 12  1  0
 11 13  1  0
 14 13  1  1
 14 15  1  0
 15  8  1  0
 16 18  1  0
 16 14  1  0
 17 16  2  0
 19 30  1  0
 19 18  1  0
 19 20  1  6
 21 29  1  0
 21 20  1  0
 22 21  2  0
 23 22  1  0
 23 24  1  0
 24 25  1  0
 24 29  2  0
 25 26  2  0
 26 27  1  0
 28 27  2  0
 29 28  1  0
 30 32  1  0
 31 30  2  0
M  END
$$$$
