QLW.pdb
     RDKit          3D

 32 33  0  0  1  0  0  0  0  0999 V2000
   24.5552  -22.9620  -21.4354 N   0  0  0  0  0  0  0  0  0  0  0  0
   24.9587  -21.6665  -21.9519 C   0  0  0  0  0  0  0  0  0  0  0  0
   24.7066  -21.4779  -23.1577 O   0  0  0  0  0  0  0  0  0  0  0  0
   25.6141  -20.6958  -21.0714 C   0  0  0  0  0  0  0  0  0  0  0  0
   25.7280  -21.1074  -19.6496 C   0  0  0  0  0  0  0  0  0  0  0  0
   24.6797  -20.5093  -18.7505 C   0  0  2  0  0  0  0  0  0  0  0  0
   24.6304  -19.0872  -18.7589 N   0  0  0  0  0  0  0  0  0  0  0  0
   24.8205  -21.0562  -17.3656 C   0  0  0  0  0  0  0  0  0  0  0  0
   24.8824  -22.3059  -17.1900 O   0  0  0  0  0  0  0  0  0  0  0  0
   27.8021  -18.0705  -14.3067 C   0  0  0  0  0  0  0  0  0  0  0  0
   27.0671  -19.1616  -15.0777 C   0  0  1  0  0  0  0  0  0  0  0  0
   28.1169  -20.2669  -15.2821 C   0  0  0  0  0  0  0  0  0  0  0  0
   26.0074  -19.7647  -14.1952 C   0  0  0  0  0  0  0  0  0  0  0  0
   25.1595  -20.7971  -14.8945 C   0  0  2  0  0  0  0  0  0  0  0  0
   24.8873  -20.2396  -16.2306 N   0  0  0  0  0  0  0  0  0  0  0  0
   23.8442  -21.0122  -14.2255 C   0  0  0  0  0  0  0  0  0  0  0  0
   23.8082  -21.5146  -13.0683 O   0  0  0  0  0  0  0  0  0  0  0  0
   22.6186  -20.6699  -14.8478 N   0  0  0  0  0  0  0  0  0  0  0  0
   21.3015  -20.9360  -14.2703 C   0  0  1  0  0  0  0  0  0  0  0  0
   20.6168  -19.6748  -13.9005 C   0  0  0  0  0  0  0  0  0  0  0  0
   19.9368  -19.0405  -15.0396 C   0  0  0  0  0  0  0  0  0  0  0  0
   18.6014  -19.2157  -15.4313 C   0  0  0  0  0  0  0  0  0  0  0  0
   18.3680  -18.5109  -16.5345 N   0  0  0  0  0  0  0  0  0  0  0  0
   19.4797  -17.8672  -16.9062 C   0  0  0  0  0  0  0  0  0  0  0  0
   19.7186  -17.0025  -17.9700 C   0  0  0  0  0  0  0  0  0  0  0  0
   20.9604  -16.4509  -18.1081 C   0  0  0  0  0  0  0  0  0  0  0  0
   21.9777  -16.7377  -17.2124 C   0  0  0  0  0  0  0  0  0  0  0  0
   21.7038  -17.6003  -16.1716 C   0  0  0  0  0  0  0  0  0  0  0  0
   20.4680  -18.1777  -15.9960 C   0  0  0  0  0  0  0  0  0  0  0  0
   20.5446  -21.7600  -15.1971 C   0  0  0  0  0  0  0  0  0  0  0  0
   19.4062  -22.2531  -14.8808 O   0  0  0  0  0  0  0  0  0  0  0  0
   20.9547  -22.0877  -16.4917 O   0  0  0  0  0  0  0  0  0  0  0  0
  2  1  1  0
  2  4  1  0
  3  2  2  0
  5  4  1  0
  6  5  1  0
  6  7  1  1
  8  6  1  0
  9  8  2  0
 11 10  1  1
 11 12  1  0
 11 13  1  0
 14 13  1  1
 14 15  1  0
 15  8  1  0
 16 18  1  0
 16 14  1  0
 17 16  2  0
 19 30  1  0
 19 18  1  0
 19 20  1  6
 21 29  1  0
 21 20  1  0
 22 21  2  0
 23 22  1  0
 23 24  1  0
 24 25  1  0
 24 29  2  0
 25 26  2  0
 26 27  1  0
 28 27  2  0
 29 28  1  0
 30 32  1  0
 31 30  2  0
M  END
$$$$
