QLW.pdb
     RDKit          3D

 32 33  0  0  1  0  0  0  0  0999 V2000
   21.8233  -18.3327  -13.0373 N   0  0  0  0  0  0  0  0  0  0  0  0
   20.8644  -19.2358  -13.6480 C   0  0  0  0  0  0  0  0  0  0  0  0
   19.7093  -18.7816  -13.7590 O   0  0  0  0  0  0  0  0  0  0  0  0
   21.2838  -20.5724  -14.0775 C   0  0  0  0  0  0  0  0  0  0  0  0
   22.7072  -20.9033  -13.8161 C   0  0  0  0  0  0  0  0  0  0  0  0
   23.5900  -20.8255  -15.0325 C   0  0  2  0  0  0  0  0  0  0  0  0
   23.1298  -21.5767  -16.1500 N   0  0  0  0  0  0  0  0  0  0  0  0
   24.9979  -21.1725  -14.6664 C   0  0  0  0  0  0  0  0  0  0  0  0
   25.3812  -22.3750  -14.7255 O   0  0  0  0  0  0  0  0  0  0  0  0
   28.6054  -17.3277  -15.3831 C   0  0  0  0  0  0  0  0  0  0  0  0
   27.7787  -18.6071  -15.3148 C   0  0  1  0  0  0  0  0  0  0  0  0
   28.2956  -19.4660  -16.4812 C   0  0  0  0  0  0  0  0  0  0  0  0
   28.1364  -19.3626  -14.0630 C   0  0  0  0  0  0  0  0  0  0  0  0
   27.2957  -20.5952  -13.8447 C   0  0  2  0  0  0  0  0  0  0  0  0
   25.9320  -20.2157  -14.2521 N   0  0  0  0  0  0  0  0  0  0  0  0
   27.2346  -21.0052  -12.4121 C   0  0  0  0  0  0  0  0  0  0  0  0
   28.2760  -21.4318  -11.8408 O   0  0  0  0  0  0  0  0  0  0  0  0
   26.0369  -20.9332  -11.6594 N   0  0  0  0  0  0  0  0  0  0  0  0
   25.9465  -21.2250  -10.2291 C   0  0  1  0  0  0  0  0  0  0  0  0
   26.9414  -20.4401   -9.4608 C   0  0  0  0  0  0  0  0  0  0  0  0
   26.7584  -20.5561   -8.0064 C   0  0  0  0  0  0  0  0  0  0  0  0
   25.7827  -21.3068   -7.3343 C   0  0  0  0  0  0  0  0  0  0  0  0
   25.9092  -21.1240   -6.0233 N   0  0  0  0  0  0  0  0  0  0  0  0
   26.9233  -20.2877   -5.7769 C   0  0  0  0  0  0  0  0  0  0  0  0
   27.4452  -19.8185   -4.5753 C   0  0  0  0  0  0  0  0  0  0  0  0
   28.5218  -18.9786   -4.6047 C   0  0  0  0  0  0  0  0  0  0  0  0
   29.0970  -18.5894   -5.8035 C   0  0  0  0  0  0  0  0  0  0  0  0
   28.5513  -19.0736   -6.9741 C   0  0  0  0  0  0  0  0  0  0  0  0
   27.4679  -19.9206   -6.9895 C   0  0  0  0  0  0  0  0  0  0  0  0
   24.5761  -21.0123   -9.7961 C   0  0  0  0  0  0  0  0  0  0  0  0
   23.8403  -20.1045  -10.3194 O   0  0  0  0  0  0  0  0  0  0  0  0
   23.9290  -21.7519   -8.8033 O   0  0  0  0  0  0  0  0  0  0  0  0
  2  1  1  0
  2  4  1  0
  3  2  2  0
  5  4  1  0
  6  5  1  0
  6  7  1  6
  8  6  1  0
  9  8  2  0
 11 10  1  1
 11 12  1  0
 11 13  1  0
 14 13  1  1
 14 15  1  0
 15  8  1  0
 16 18  1  0
 16 14  1  0
 17 16  2  0
 19 30  1  0
 19 18  1  0
 19 20  1  1
 21 29  1  0
 21 20  1  0
 22 21  2  0
 23 22  1  0
 23 24  1  0
 24 25  1  0
 24 29  2  0
 25 26  2  0
 26 27  1  0
 28 27  2  0
 29 28  1  0
 30 32  1  0
 31 30  2  0
M  END
$$$$
