QLW.pdb
     RDKit          3D

 32 33  0  0  1  0  0  0  0  0999 V2000
   20.2655  -19.5890  -14.5977 N   0  0  0  0  0  0  0  0  0  0  0  0
   20.5655  -18.2203  -14.9782 C   0  0  0  0  0  0  0  0  0  0  0  0
   19.5727  -17.4764  -15.0964 O   0  0  0  0  0  0  0  0  0  0  0  0
   21.9537  -17.8056  -15.1973 C   0  0  0  0  0  0  0  0  0  0  0  0
   22.9696  -18.8717  -15.0089 C   0  0  0  0  0  0  0  0  0  0  0  0
   23.8401  -18.6840  -13.7957 C   0  0  2  0  0  0  0  0  0  0  0  0
   24.5179  -17.4342  -13.7379 N   0  0  0  0  0  0  0  0  0  0  0  0
   24.7813  -19.8380  -13.6574 C   0  0  0  0  0  0  0  0  0  0  0  0
   24.3809  -21.0068  -13.9223 O   0  0  0  0  0  0  0  0  0  0  0  0
   29.8641  -18.8827  -14.9080 C   0  0  0  0  0  0  0  0  0  0  0  0
   28.4563  -19.4421  -14.7339 C   0  0  1  0  0  0  0  0  0  0  0  0
   28.2928  -20.4476  -15.8860 C   0  0  0  0  0  0  0  0  0  0  0  0
   28.3995  -20.2580  -13.4702 C   0  0  0  0  0  0  0  0  0  0  0  0
   27.0346  -20.8332  -13.1877 C   0  0  2  0  0  0  0  0  0  0  0  0
   26.1092  -19.6883  -13.2404 N   0  0  0  0  0  0  0  0  0  0  0  0
   26.9303  -21.4275  -11.8238 C   0  0  0  0  0  0  0  0  0  0  0  0
   27.5596  -22.4883  -11.5563 O   0  0  0  0  0  0  0  0  0  0  0  0
   26.1418  -20.8390  -10.8049 N   0  0  0  0  0  0  0  0  0  0  0  0
   25.8060  -21.4968   -9.5426 C   0  0  1  0  0  0  0  0  0  0  0  0
   27.0044  -21.6455   -8.6835 C   0  0  0  0  0  0  0  0  0  0  0  0
   27.2494  -20.4673   -7.8386 C   0  0  0  0  0  0  0  0  0  0  0  0
   26.8214  -19.1529   -8.0761 C   0  0  0  0  0  0  0  0  0  0  0  0
   27.2764  -18.3584   -7.1117 N   0  0  0  0  0  0  0  0  0  0  0  0
   27.9895  -19.0720   -6.2337 C   0  0  0  0  0  0  0  0  0  0  0  0
   28.6377  -18.6904   -5.0630 C   0  0  0  0  0  0  0  0  0  0  0  0
   29.2826  -19.6408   -4.3239 C   0  0  0  0  0  0  0  0  0  0  0  0
   29.3014  -20.9684   -4.7196 C   0  0  0  0  0  0  0  0  0  0  0  0
   28.6492  -21.3085   -5.8865 C   0  0  0  0  0  0  0  0  0  0  0  0
   27.9884  -20.3834   -6.6603 C   0  0  0  0  0  0  0  0  0  0  0  0
   24.7224  -20.7646   -8.9097 C   0  0  0  0  0  0  0  0  0  0  0  0
   24.2071  -19.7262   -9.4531 O   0  0  0  0  0  0  0  0  0  0  0  0
   24.1376  -21.1034   -7.6871 O   0  0  0  0  0  0  0  0  0  0  0  0
  2  1  1  0
  2  4  1  0
  3  2  2  0
  5  4  1  0
  6  5  1  0
  6  7  1  6
  8  6  1  0
  9  8  2  0
 11 10  1  6
 11 12  1  0
 11 13  1  0
 14 13  1  1
 14 15  1  0
 15  8  1  0
 16 18  1  0
 16 14  1  0
 17 16  2  0
 19 30  1  0
 19 18  1  0
 19 20  1  1
 21 29  1  0
 21 20  1  0
 22 21  2  0
 23 22  1  0
 23 24  1  0
 24 25  1  0
 24 29  2  0
 25 26  2  0
 26 27  1  0
 28 27  2  0
 29 28  1  0
 30 32  1  0
 31 30  2  0
M  END
$$$$
