QLW.pdb
     RDKit          3D

 32 33  0  0  1  0  0  0  0  0999 V2000
   30.2344  -16.0473  -18.5435 N   0  0  0  0  0  0  0  0  0  0  0  0
   29.3443  -15.7044  -19.6382 C   0  0  0  0  0  0  0  0  0  0  0  0
   29.6162  -14.6391  -20.2248 O   0  0  0  0  0  0  0  0  0  0  0  0
   28.2233  -16.5849  -19.9775 C   0  0  0  0  0  0  0  0  0  0  0  0
   28.0573  -17.7667  -19.0944 C   0  0  0  0  0  0  0  0  0  0  0  0
   28.2973  -19.0849  -19.7797 C   0  0  2  0  0  0  0  0  0  0  0  0
   28.1375  -19.0577  -21.1935 N   0  0  0  0  0  0  0  0  0  0  0  0
   27.4653  -20.1520  -19.1429 C   0  0  0  0  0  0  0  0  0  0  0  0
   26.4048  -20.5399  -19.7098 O   0  0  0  0  0  0  0  0  0  0  0  0
   29.7966  -23.7925  -15.7536 C   0  0  0  0  0  0  0  0  0  0  0  0
   28.9202  -23.2327  -16.8688 C   0  0  1  0  0  0  0  0  0  0  0  0
   28.2690  -24.4702  -17.5090 C   0  0  0  0  0  0  0  0  0  0  0  0
   27.7895  -22.4450  -16.2630 C   0  0  0  0  0  0  0  0  0  0  0  0
   26.9274  -21.7487  -17.2855 C   0  0  2  0  0  0  0  0  0  0  0  0
   27.8059  -20.7550  -17.9264 N   0  0  0  0  0  0  0  0  0  0  0  0
   25.7895  -21.0061  -16.6708 C   0  0  0  0  0  0  0  0  0  0  0  0
   26.0224  -20.0896  -15.8348 O   0  0  0  0  0  0  0  0  0  0  0  0
   24.4408  -21.2943  -16.9935 N   0  0  0  0  0  0  0  0  0  0  0  0
   23.2961  -20.5306  -16.4980 C   0  0  1  0  0  0  0  0  0  0  0  0
   22.4036  -20.1259  -17.6097 C   0  0  0  0  0  0  0  0  0  0  0  0
   21.1989  -19.4220  -17.1456 C   0  0  0  0  0  0  0  0  0  0  0  0
   21.1208  -18.1069  -16.6643 C   0  0  0  0  0  0  0  0  0  0  0  0
   19.8698  -17.8434  -16.2983 N   0  0  0  0  0  0  0  0  0  0  0  0
   19.0990  -18.9155  -16.5102 C   0  0  0  0  0  0  0  0  0  0  0  0
   17.7367  -19.1122  -16.3057 C   0  0  0  0  0  0  0  0  0  0  0  0
   17.1850  -20.3168  -16.6375 C   0  0  0  0  0  0  0  0  0  0  0  0
   17.9556  -21.3378  -17.1697 C   0  0  0  0  0  0  0  0  0  0  0  0
   19.3024  -21.1064  -17.3565 C   0  0  0  0  0  0  0  0  0  0  0  0
   19.8980  -19.9089  -17.0358 C   0  0  0  0  0  0  0  0  0  0  0  0
   22.6285  -21.3080  -15.4680 C   0  0  0  0  0  0  0  0  0  0  0  0
   22.5623  -22.5851  -15.5283 O   0  0  0  0  0  0  0  0  0  0  0  0
   22.0141  -20.7700  -14.3346 O   0  0  0  0  0  0  0  0  0  0  0  0
  2  1  1  0
  2  4  1  0
  3  2  2  0
  5  4  1  0
  6  5  1  0
  6  7  1  6
  8  6  1  0
  9  8  2  0
 11 10  1  1
 11 12  1  0
 11 13  1  0
 14 13  1  1
 14 15  1  0
 15  8  1  0
 16 18  1  0
 16 14  1  0
 17 16  2  0
 19 30  1  0
 19 18  1  0
 19 20  1  6
 21 29  1  0
 21 20  1  0
 22 21  2  0
 23 22  1  0
 23 24  1  0
 24 25  1  0
 24 29  2  0
 25 26  2  0
 26 27  1  0
 28 27  2  0
 29 28  1  0
 30 32  1  0
 31 30  2  0
M  END
$$$$
