QLW.pdb
     RDKit          3D

 32 33  0  0  1  0  0  0  0  0999 V2000
   27.7446  -16.4046  -16.8350 N   0  0  0  0  0  0  0  0  0  0  0  0
   29.1213  -16.7549  -16.5348 C   0  0  0  0  0  0  0  0  0  0  0  0
   29.9642  -16.3198  -17.3430 O   0  0  0  0  0  0  0  0  0  0  0  0
   29.4328  -17.5670  -15.3556 C   0  0  0  0  0  0  0  0  0  0  0  0
   28.2604  -17.9778  -14.5428 C   0  0  0  0  0  0  0  0  0  0  0  0
   27.8747  -19.4233  -14.7065 C   0  0  2  0  0  0  0  0  0  0  0  0
   27.6530  -19.8307  -16.0518 N   0  0  0  0  0  0  0  0  0  0  0  0
   26.7102  -19.7455  -13.8251 C   0  0  0  0  0  0  0  0  0  0  0  0
   25.6868  -19.0048  -13.8453 O   0  0  0  0  0  0  0  0  0  0  0  0
   24.4354  -23.9666  -14.7184 C   0  0  0  0  0  0  0  0  0  0  0  0
   24.7146  -22.5469  -14.2371 C   0  0  1  0  0  0  0  0  0  0  0  0
   23.3499  -21.8404  -14.2992 C   0  0  0  0  0  0  0  0  0  0  0  0
   25.0891  -22.5819  -12.7797 C   0  0  0  0  0  0  0  0  0  0  0  0
   25.4775  -21.2337  -12.2270 C   0  0  2  0  0  0  0  0  0  0  0  0
   26.6948  -20.8463  -12.9604 N   0  0  0  0  0  0  0  0  0  0  0  0
   25.8276  -21.2836  -10.7782 C   0  0  0  0  0  0  0  0  0  0  0  0
   26.7084  -22.0939  -10.3773 O   0  0  0  0  0  0  0  0  0  0  0  0
   25.2011  -20.4457   -9.8234 N   0  0  0  0  0  0  0  0  0  0  0  0
   25.1922  -20.7037   -8.3838 C   0  0  1  0  0  0  0  0  0  0  0  0
   25.7134  -19.5391   -7.6301 C   0  0  0  0  0  0  0  0  0  0  0  0
   27.1446  -19.6590   -7.3146 C   0  0  0  0  0  0  0  0  0  0  0  0
   28.2071  -19.7445   -8.2262 C   0  0  0  0  0  0  0  0  0  0  0  0
   29.3498  -19.8884   -7.5616 N   0  0  0  0  0  0  0  0  0  0  0  0
   29.1114  -19.9028   -6.2457 C   0  0  0  0  0  0  0  0  0  0  0  0
   29.9804  -20.0086   -5.1641 C   0  0  0  0  0  0  0  0  0  0  0  0
   29.4690  -19.9686   -3.8983 C   0  0  0  0  0  0  0  0  0  0  0  0
   28.1088  -19.8259   -3.6769 C   0  0  0  0  0  0  0  0  0  0  0  0
   27.2785  -19.7256   -4.7737 C   0  0  0  0  0  0  0  0  0  0  0  0
   27.7516  -19.7617   -6.0646 C   0  0  0  0  0  0  0  0  0  0  0  0
   23.8510  -21.1000   -7.9901 C   0  0  0  0  0  0  0  0  0  0  0  0
   23.5972  -21.5300   -6.8111 O   0  0  0  0  0  0  0  0  0  0  0  0
   22.7283  -21.0503   -8.8199 O   0  0  0  0  0  0  0  0  0  0  0  0
  2  1  1  0
  2  4  1  0
  3  2  2  0
  5  4  1  0
  6  5  1  0
  6  7  1  6
  8  6  1  0
  9  8  2  0
 11 10  1  1
 11 12  1  0
 11 13  1  0
 14 13  1  6
 14 15  1  0
 15  8  1  0
 16 18  1  0
 16 14  1  0
 17 16  2  0
 19 30  1  0
 19 18  1  0
 19 20  1  1
 21 29  1  0
 21 20  1  0
 22 21  2  0
 23 22  1  0
 23 24  1  0
 24 25  1  0
 24 29  2  0
 25 26  2  0
 26 27  1  0
 28 27  2  0
 29 28  1  0
 30 32  1  0
 31 30  2  0
M  END
$$$$
