QLW.pdb
     RDKit          3D

 32 33  0  0  1  0  0  0  0  0999 V2000
   20.8630  -18.8246  -14.8537 N   0  0  0  0  0  0  0  0  0  0  0  0
   21.3512  -17.5238  -14.4323 C   0  0  0  0  0  0  0  0  0  0  0  0
   20.5080  -16.6070  -14.4693 O   0  0  0  0  0  0  0  0  0  0  0  0
   22.7450  -17.3634  -14.0097 C   0  0  0  0  0  0  0  0  0  0  0  0
   23.5418  -18.6153  -13.9691 C   0  0  0  0  0  0  0  0  0  0  0  0
   24.8515  -18.5348  -14.7062 C   0  0  2  0  0  0  0  0  0  0  0  0
   24.7359  -18.2354  -16.0926 N   0  0  0  0  0  0  0  0  0  0  0  0
   25.6511  -19.7757  -14.4665 C   0  0  0  0  0  0  0  0  0  0  0  0
   25.4275  -20.8076  -15.1606 O   0  0  0  0  0  0  0  0  0  0  0  0
   30.6016  -19.0179  -13.8425 C   0  0  0  0  0  0  0  0  0  0  0  0
   29.1176  -19.3564  -13.9342 C   0  0  1  0  0  0  0  0  0  0  0  0
   28.8690  -19.6093  -15.4307 C   0  0  0  0  0  0  0  0  0  0  0  0
   28.8663  -20.6741  -13.2513 C   0  0  0  0  0  0  0  0  0  0  0  0
   27.4187  -21.0956  -13.2741 C   0  0  2  0  0  0  0  0  0  0  0  0
   26.6537  -19.8559  -13.4929 N   0  0  0  0  0  0  0  0  0  0  0  0
   26.9662  -21.6747  -11.9764 C   0  0  0  0  0  0  0  0  0  0  0  0
   27.5053  -22.7306  -11.5432 O   0  0  0  0  0  0  0  0  0  0  0  0
   25.9416  -21.0771  -11.2022 N   0  0  0  0  0  0  0  0  0  0  0  0
   25.0529  -21.8152  -10.3053 C   0  0  1  0  0  0  0  0  0  0  0  0
   25.5743  -21.8137   -8.9181 C   0  0  0  0  0  0  0  0  0  0  0  0
   26.0508  -20.4902   -8.4900 C   0  0  0  0  0  0  0  0  0  0  0  0
   25.8018  -19.2592   -9.1146 C   0  0  0  0  0  0  0  0  0  0  0  0
   26.4387  -18.2936   -8.4588 N   0  0  0  0  0  0  0  0  0  0  0  0
   27.1046  -18.8117   -7.4211 C   0  0  0  0  0  0  0  0  0  0  0  0
   27.8876  -18.2021   -6.4457 C   0  0  0  0  0  0  0  0  0  0  0  0
   28.4414  -18.9737   -5.4642 C   0  0  0  0  0  0  0  0  0  0  0  0
   28.2372  -20.3435   -5.4260 C   0  0  0  0  0  0  0  0  0  0  0  0
   27.4565  -20.9124   -6.4106 C   0  0  0  0  0  0  0  0  0  0  0  0
   26.8808  -20.1725   -7.4168 C   0  0  0  0  0  0  0  0  0  0  0  0
   23.7121  -21.2685  -10.4247 C   0  0  0  0  0  0  0  0  0  0  0  0
   22.7211  -21.7784   -9.7946 O   0  0  0  0  0  0  0  0  0  0  0  0
   23.3681  -20.1618  -11.2046 O   0  0  0  0  0  0  0  0  0  0  0  0
  2  1  1  0
  2  4  1  0
  3  2  2  0
  5  4  1  0
  6  5  1  0
  6  7  1  6
  8  6  1  0
  9  8  2  0
 11 10  1  6
 11 12  1  0
 11 13  1  0
 14 13  1  1
 14 15  1  0
 15  8  1  0
 16 18  1  0
 16 14  1  0
 17 16  2  0
 19 30  1  0
 19 18  1  0
 19 20  1  1
 21 29  1  0
 21 20  1  0
 22 21  2  0
 23 22  1  0
 23 24  1  0
 24 25  1  0
 24 29  2  0
 25 26  2  0
 26 27  1  0
 28 27  2  0
 29 28  1  0
 30 32  1  0
 31 30  2  0
M  END
$$$$
