VCH.pdb
     RDKit          3D

 24 24  0  0  1  0  0  0  0  0999 V2000
   17.6861  -39.3648   73.6911 C   0  0  0  0  0  0  0  0  0  0  0  0
   18.9662  -39.4573   72.8944 C   0  0  2  0  0  0  0  0  0  0  0  0
   18.9131  -38.7248   71.5960 C   0  0  0  0  0  0  0  0  0  0  0  0
   19.2827  -40.9357   72.7270 C   0  0  2  0  0  0  0  0  0  0  0  0
   18.1236  -41.5436   72.1544 N   0  0  0  0  0  0  0  0  0  0  0  0
   19.7151  -41.5621   73.9902 C   0  0  0  0  0  0  0  0  0  0  0  0
   19.7206  -40.8786   75.0341 O   0  0  0  0  0  0  0  0  0  0  0  0
   20.1257  -42.9144   74.0645 N   0  0  0  0  0  0  0  0  0  0  0  0
   20.6332  -43.4579   75.3005 C   0  0  1  0  0  0  0  0  0  0  0  0
   20.3483  -44.9606   75.2565 C   0  0  0  0  0  0  0  0  0  0  0  0
   21.9077  -45.8789   75.3435 S   0  0  0  0  0  0  0  0  0  0  0  0
   22.0844  -43.2911   75.3624 C   0  0  0  0  0  0  0  0  0  0  0  0
   22.7828  -43.6493   74.3694 O   0  0  0  0  0  0  0  0  0  0  0  0
   22.6551  -42.7351   76.5308 N   0  0  0  0  0  0  0  0  0  0  0  0
   21.9944  -42.9115   77.7958 C   0  0  1  0  0  0  0  0  0  0  0  0
   20.7879  -43.8005   77.5275 C   0  0  0  0  0  0  0  0  0  0  0  0
   19.6051  -42.9184   77.3033 C   0  0  0  0  0  0  0  0  0  0  0  0
   19.1731  -42.4439   76.0895 C   0  0  0  0  0  0  0  0  0  0  0  0
   18.0903  -41.6934   76.3083 N   0  0  0  0  0  0  0  0  0  0  0  0
   17.8424  -41.6928   77.6312 C   0  0  0  0  0  0  0  0  0  0  0  0
   18.7692  -42.4423   78.2405 N   0  0  0  0  0  0  0  0  0  0  0  0
   22.9305  -43.5385   78.7425 C   0  0  0  0  0  0  0  0  0  0  0  0
   23.7629  -42.7718   79.5359 O   0  0  0  0  0  0  0  0  0  0  0  0
   22.9781  -44.7770   78.8349 O   0  0  0  0  0  0  0  0  0  0  0  0
  2  3  1  6
  2  1  1  0
  4  2  1  0
  4  5  1  1
  6  8  1  0
  6  4  1  0
  7  6  2  0
  9  8  1  0
  9 12  1  0
  9 10  1  6
 11 10  1  0
 12 14  1  0
 13 12  2  0
 14 15  1  0
 15 16  1  6
 15 22  1  0
 17 16  1  0
 18 17  2  0
 19 20  1  0
 19 18  1  0
 20 21  2  0
 21 17  1  0
 22 24  2  0
 22 23  1  0
M  END
$$$$
