VCH.pdb
     RDKit          3D

 24 24  0  0  1  0  0  0  0  0999 V2000
    8.7331  -15.2196   19.9518 C   0  0  0  0  0  0  0  0  0  0  0  0
    7.2908  -14.9087   20.2754 C   0  0  2  0  0  0  0  0  0  0  0  0
    6.3904  -14.9582   19.0869 C   0  0  0  0  0  0  0  0  0  0  0  0
    7.2708  -13.5591   20.9768 C   0  0  2  0  0  0  0  0  0  0  0  0
    7.7091  -12.5912   20.0217 N   0  0  0  0  0  0  0  0  0  0  0  0
    8.0637  -13.5628   22.2203 C   0  0  0  0  0  0  0  0  0  0  0  0
    9.1813  -13.0078   22.2274 O   0  0  0  0  0  0  0  0  0  0  0  0
    7.6041  -14.1741   23.4110 N   0  0  0  0  0  0  0  0  0  0  0  0
    8.4540  -14.2401   24.5746 C   0  0  1  0  0  0  0  0  0  0  0  0
    7.7344  -13.4581   25.6755 C   0  0  0  0  0  0  0  0  0  0  0  0
    5.9765  -13.8968   25.6843 S   0  0  0  0  0  0  0  0  0  0  0  0
    8.5730  -15.6243   25.0299 C   0  0  0  0  0  0  0  0  0  0  0  0
    7.5556  -16.3752   24.9729 O   0  0  0  0  0  0  0  0  0  0  0  0
    9.8219  -16.0739   25.5178 N   0  0  0  0  0  0  0  0  0  0  0  0
    9.9548  -17.4271   25.9858 C   0  0  1  0  0  0  0  0  0  0  0  0
   11.2787  -17.9411   25.4366 C   0  0  0  0  0  0  0  0  0  0  0  0
   11.2068  -17.9019   23.9465 C   0  0  0  0  0  0  0  0  0  0  0  0
   10.4383  -18.7198   23.1556 C   0  0  0  0  0  0  0  0  0  0  0  0
   10.6506  -18.3721   21.8837 N   0  0  0  0  0  0  0  0  0  0  0  0
   11.5340  -17.3566   21.8699 C   0  0  0  0  0  0  0  0  0  0  0  0
   11.8746  -17.0685   23.1319 N   0  0  0  0  0  0  0  0  0  0  0  0
    9.9403  -17.4295   27.4573 C   0  0  0  0  0  0  0  0  0  0  0  0
    9.9888  -18.6132   28.1691 O   0  0  0  0  0  0  0  0  0  0  0  0
    9.8837  -16.3530   28.0759 O   0  0  0  0  0  0  0  0  0  0  0  0
  2  3  1  6
  2  1  1  0
  4  2  1  0
  4  5  1  6
  6  8  1  0
  6  4  1  0
  7  6  2  0
  9  8  1  0
  9 12  1  0
  9 10  1  1
 11 10  1  0
 12 14  1  0
 13 12  2  0
 14 15  1  0
 15 16  1  1
 15 22  1  0
 17 16  1  0
 18 17  2  0
 19 20  1  0
 19 18  1  0
 20 21  2  0
 21 17  1  0
 22 24  2  0
 22 23  1  0
M  END
$$$$
