VCH.pdb
     RDKit          3D

 24 24  0  0  1  0  0  0  0  0999 V2000
    7.5178  -15.5562   20.4818 C   0  0  0  0  0  0  0  0  0  0  0  0
    6.7110  -14.2882   20.6344 C   0  0  2  0  0  0  0  0  0  0  0  0
    6.0390  -13.8555   19.3748 C   0  0  0  0  0  0  0  0  0  0  0  0
    7.6451  -13.2293   21.2003 C   0  0  2  0  0  0  0  0  0  0  0  0
    8.5885  -12.9197   20.1731 N   0  0  0  0  0  0  0  0  0  0  0  0
    8.2696  -13.6534   22.4674 C   0  0  0  0  0  0  0  0  0  0  0  0
    9.3493  -14.2779   22.4310 O   0  0  0  0  0  0  0  0  0  0  0  0
    7.6891  -13.3782   23.7283 N   0  0  0  0  0  0  0  0  0  0  0  0
    8.3283  -13.8262   24.9413 C   0  0  1  0  0  0  0  0  0  0  0  0
    7.6077  -13.1195   26.0913 C   0  0  0  0  0  0  0  0  0  0  0  0
    5.8174  -13.3297   25.9089 S   0  0  0  0  0  0  0  0  0  0  0  0
    8.1216  -15.2630   25.1150 C   0  0  0  0  0  0  0  0  0  0  0  0
    7.3564  -15.8712   24.3109 O   0  0  0  0  0  0  0  0  0  0  0  0
    8.7851  -15.9214   26.1763 N   0  0  0  0  0  0  0  0  0  0  0  0
    9.3651  -17.2183   25.9540 C   0  0  1  0  0  0  0  0  0  0  0  0
   10.4100  -17.0377   24.8614 C   0  0  0  0  0  0  0  0  0  0  0  0
   11.1414  -18.3290   24.7039 C   0  0  0  0  0  0  0  0  0  0  0  0
   10.8960  -19.4840   25.4046 C   0  0  0  0  0  0  0  0  0  0  0  0
   11.7576  -20.4102   24.9764 N   0  0  0  0  0  0  0  0  0  0  0  0
   12.5312  -19.8539   24.0258 C   0  0  0  0  0  0  0  0  0  0  0  0
   12.1544  -18.5803   23.8587 N   0  0  0  0  0  0  0  0  0  0  0  0
    9.9689  -17.6951   27.2085 C   0  0  0  0  0  0  0  0  0  0  0  0
   10.2331  -19.0370   27.4079 O   0  0  0  0  0  0  0  0  0  0  0  0
   10.2481  -16.8831   28.1070 O   0  0  0  0  0  0  0  0  0  0  0  0
  2  3  1  6
  2  1  1  0
  4  2  1  0
  4  5  1  6
  6  8  1  0
  6  4  1  0
  7  6  2  0
  9  8  1  0
  9 12  1  0
  9 10  1  1
 11 10  1  0
 12 14  1  0
 13 12  2  0
 14 15  1  0
 15 16  1  6
 15 22  1  0
 17 16  1  0
 18 17  2  0
 19 20  1  0
 19 18  1  0
 20 21  2  0
 21 17  1  0
 22 24  2  0
 22 23  1  0
M  END
$$$$
