VCH.pdb
     RDKit          3D

 24 24  0  0  1  0  0  0  0  0999 V2000
    7.1827  -14.7799   18.6161 C   0  0  0  0  0  0  0  0  0  0  0  0
    7.8189  -14.8342   19.9851 C   0  0  2  0  0  0  0  0  0  0  0  0
    7.5745  -16.1183   20.7041 C   0  0  0  0  0  0  0  0  0  0  0  0
    7.3235  -13.6206   20.7568 C   0  0  2  0  0  0  0  0  0  0  0  0
    7.4376  -12.4989   19.8794 N   0  0  0  0  0  0  0  0  0  0  0  0
    8.0337  -13.4434   22.0372 C   0  0  0  0  0  0  0  0  0  0  0  0
    8.5410  -12.3341   22.2997 O   0  0  0  0  0  0  0  0  0  0  0  0
    8.1626  -14.4876   22.9838 N   0  0  0  0  0  0  0  0  0  0  0  0
    8.4271  -14.1896   24.3701 C   0  0  1  0  0  0  0  0  0  0  0  0
    7.2212  -13.3943   24.8748 C   0  0  0  0  0  0  0  0  0  0  0  0
    7.4576  -12.9722   26.6208 S   0  0  0  0  0  0  0  0  0  0  0  0
    8.4882  -15.4274   25.1456 C   0  0  0  0  0  0  0  0  0  0  0  0
    7.4148  -16.0579   25.3745 O   0  0  0  0  0  0  0  0  0  0  0  0
    9.7458  -15.8755   25.6120 N   0  0  0  0  0  0  0  0  0  0  0  0
    9.8429  -17.1446   26.2810 C   0  0  1  0  0  0  0  0  0  0  0  0
   11.1630  -17.7611   25.8388 C   0  0  0  0  0  0  0  0  0  0  0  0
   11.1030  -17.9709   24.3624 C   0  0  0  0  0  0  0  0  0  0  0  0
    9.9726  -18.2480   23.6339 C   0  0  0  0  0  0  0  0  0  0  0  0
   10.3329  -18.3650   22.3531 N   0  0  0  0  0  0  0  0  0  0  0  0
   11.6617  -18.1665   22.2729 C   0  0  0  0  0  0  0  0  0  0  0  0
   12.1334  -17.9253   23.5022 N   0  0  0  0  0  0  0  0  0  0  0  0
    9.8075  -16.9241   27.7356 C   0  0  0  0  0  0  0  0  0  0  0  0
    9.7462  -17.9870   28.6168 O   0  0  0  0  0  0  0  0  0  0  0  0
    9.8328  -15.7657   28.1852 O   0  0  0  0  0  0  0  0  0  0  0  0
  2  3  1  1
  2  1  1  0
  4  2  1  0
  4  5  1  6
  6  8  1  0
  6  4  1  0
  7  6  2  0
  9  8  1  0
  9 12  1  0
  9 10  1  1
 11 10  1  0
 12 14  1  0
 13 12  2  0
 14 15  1  0
 15 16  1  1
 15 22  1  0
 17 16  1  0
 18 17  2  0
 19 20  1  0
 19 18  1  0
 20 21  2  0
 21 17  1  0
 22 24  2  0
 22 23  1  0
M  END
$$$$
