VCH.pdb
     RDKit          3D

 24 24  0  0  1  0  0  0  0  0999 V2000
    7.8941  -12.8508   17.9202 C   0  0  0  0  0  0  0  0  0  0  0  0
    7.8547  -13.6081   19.2266 C   0  0  2  0  0  0  0  0  0  0  0  0
    8.4039  -12.8357   20.3788 C   0  0  0  0  0  0  0  0  0  0  0  0
    8.5776  -14.9273   19.0006 C   0  0  2  0  0  0  0  0  0  0  0  0
    7.9155  -15.5800   17.9159 N   0  0  0  0  0  0  0  0  0  0  0  0
    8.6482  -15.7440   20.2267 C   0  0  0  0  0  0  0  0  0  0  0  0
    7.6099  -16.2910   20.6505 O   0  0  0  0  0  0  0  0  0  0  0  0
    9.8535  -15.9320   20.9442 N   0  0  0  0  0  0  0  0  0  0  0  0
    9.8485  -16.6091   22.2178 C   0  0  1  0  0  0  0  0  0  0  0  0
   11.0949  -17.4965   22.2358 C   0  0  0  0  0  0  0  0  0  0  0  0
   10.9141  -18.8253   21.0175 S   0  0  0  0  0  0  0  0  0  0  0  0
    9.9892  -15.6382   23.3017 C   0  0  0  0  0  0  0  0  0  0  0  0
   10.2547  -14.4348   23.0126 O   0  0  0  0  0  0  0  0  0  0  0  0
    9.8232  -16.0796   24.6350 N   0  0  0  0  0  0  0  0  0  0  0  0
    9.2577  -15.1886   25.6118 C   0  0  1  0  0  0  0  0  0  0  0  0
    7.8870  -14.7891   25.0830 C   0  0  0  0  0  0  0  0  0  0  0  0
    7.3195  -13.7596   26.0025 C   0  0  0  0  0  0  0  0  0  0  0  0
    7.9547  -13.2141   27.0906 C   0  0  0  0  0  0  0  0  0  0  0  0
    7.1195  -12.3351   27.6506 N   0  0  0  0  0  0  0  0  0  0  0  0
    5.9810  -12.3245   26.9329 C   0  0  0  0  0  0  0  0  0  0  0  0
    6.1028  -13.1961   25.9242 N   0  0  0  0  0  0  0  0  0  0  0  0
    9.1582  -15.8910   26.9011 C   0  0  0  0  0  0  0  0  0  0  0  0
    9.4420  -15.2444   28.0892 O   0  0  0  0  0  0  0  0  0  0  0  0
    8.8140  -17.0849   26.9288 O   0  0  0  0  0  0  0  0  0  0  0  0
  2  3  1  1
  2  1  1  0
  4  2  1  0
  4  5  1  6
  6  8  1  0
  6  4  1  0
  7  6  2  0
  9  8  1  0
  9 12  1  0
  9 10  1  6
 11 10  1  0
 12 14  1  0
 13 12  2  0
 14 15  1  0
 15 16  1  6
 15 22  1  0
 17 16  1  0
 18 17  2  0
 19 20  1  0
 19 18  1  0
 20 21  2  0
 21 17  1  0
 22 24  2  0
 22 23  1  0
M  END
$$$$
