VCH.pdb
     RDKit          3D

 24 24  0  0  1  0  0  0  0  0999 V2000
   12.7157  -17.5283   15.9092 C   0  0  0  0  0  0  0  0  0  0  0  0
   11.5275  -18.4161   16.1954 C   0  0  2  0  0  0  0  0  0  0  0  0
   11.2004  -19.3503   15.0793 C   0  0  0  0  0  0  0  0  0  0  0  0
   10.3667  -17.5046   16.5635 C   0  0  2  0  0  0  0  0  0  0  0  0
   10.0655  -16.7304   15.4012 N   0  0  0  0  0  0  0  0  0  0  0  0
   10.6525  -16.6891   17.7586 C   0  0  0  0  0  0  0  0  0  0  0  0
   10.9371  -15.4828   17.6145 O   0  0  0  0  0  0  0  0  0  0  0  0
   10.6164  -17.2242   19.0682 N   0  0  0  0  0  0  0  0  0  0  0  0
   10.8813  -16.3830   20.2097 C   0  0  1  0  0  0  0  0  0  0  0  0
    9.9058  -16.8247   21.3027 C   0  0  0  0  0  0  0  0  0  0  0  0
   10.2484  -15.9120   22.8298 S   0  0  0  0  0  0  0  0  0  0  0  0
   12.2338  -16.6268   20.7082 C   0  0  0  0  0  0  0  0  0  0  0  0
   12.6369  -17.8213   20.8206 O   0  0  0  0  0  0  0  0  0  0  0  0
   13.0431  -15.5176   21.0470 N   0  0  0  0  0  0  0  0  0  0  0  0
   14.3652  -15.7373   21.5683 C   0  0  1  0  0  0  0  0  0  0  0  0
   15.1565  -14.4701   21.2745 C   0  0  0  0  0  0  0  0  0  0  0  0
   15.4144  -14.4170   19.8055 C   0  0  0  0  0  0  0  0  0  0  0  0
   15.8187  -15.4684   19.0205 C   0  0  0  0  0  0  0  0  0  0  0  0
   15.9388  -15.0186   17.7687 N   0  0  0  0  0  0  0  0  0  0  0  0
   15.6176  -13.7115   17.7616 C   0  0  0  0  0  0  0  0  0  0  0  0
   15.2967  -13.3429   19.0078 N   0  0  0  0  0  0  0  0  0  0  0  0
   14.2738  -15.9970   23.0139 C   0  0  0  0  0  0  0  0  0  0  0  0
   13.0519  -16.0144   23.6596 O   0  0  0  0  0  0  0  0  0  0  0  0
   15.3084  -16.2046   23.6705 O   0  0  0  0  0  0  0  0  0  0  0  0
  2  3  1  6
  2  1  1  0
  4  2  1  0
  4  5  1  6
  6  8  1  0
  6  4  1  0
  7  6  2  0
  9  8  1  0
  9 12  1  0
  9 10  1  1
 11 10  1  0
 12 14  1  0
 13 12  2  0
 14 15  1  0
 15 16  1  1
 15 22  1  0
 17 16  1  0
 18 17  2  0
 19 20  1  0
 19 18  1  0
 20 21  2  0
 21 17  1  0
 22 24  2  0
 22 23  1  0
M  END
$$$$
