VCH.pdb
     RDKit          3D

 24 24  0  0  1  0  0  0  0  0999 V2000
    8.9389  -16.1525   20.7107 C   0  0  0  0  0  0  0  0  0  0  0  0
    7.7713  -16.9708   21.2097 C   0  0  2  0  0  0  0  0  0  0  0  0
    7.4505  -18.1407   20.3415 C   0  0  0  0  0  0  0  0  0  0  0  0
    6.5969  -16.0186   21.3767 C   0  0  2  0  0  0  0  0  0  0  0  0
    6.1683  -15.6574   20.0626 N   0  0  0  0  0  0  0  0  0  0  0  0
    6.9313  -14.8613   22.2277 C   0  0  0  0  0  0  0  0  0  0  0  0
    6.2952  -13.7979   22.0808 O   0  0  0  0  0  0  0  0  0  0  0  0
    7.9502  -14.9106   23.2086 N   0  0  0  0  0  0  0  0  0  0  0  0
    8.0776  -13.8559   24.1844 C   0  0  1  0  0  0  0  0  0  0  0  0
    6.7330  -13.7797   24.9107 C   0  0  0  0  0  0  0  0  0  0  0  0
    6.8549  -12.6207   26.2979 S   0  0  0  0  0  0  0  0  0  0  0  0
    9.0897  -14.2122   25.1775 C   0  0  0  0  0  0  0  0  0  0  0  0
    9.4350  -13.3471   26.0345 O   0  0  0  0  0  0  0  0  0  0  0  0
    9.6463  -15.5118   25.1441 N   0  0  0  0  0  0  0  0  0  0  0  0
   10.8409  -15.7911   25.8942 C   0  0  1  0  0  0  0  0  0  0  0  0
   10.4066  -16.6152   27.0985 C   0  0  0  0  0  0  0  0  0  0  0  0
   10.4812  -15.7420   28.3066 C   0  0  0  0  0  0  0  0  0  0  0  0
   10.4958  -14.3691   28.3081 C   0  0  0  0  0  0  0  0  0  0  0  0
   10.5689  -13.9646   29.5788 N   0  0  0  0  0  0  0  0  0  0  0  0
   10.5998  -15.0573   30.3642 C   0  0  0  0  0  0  0  0  0  0  0  0
   10.5462  -16.1452   29.5861 N   0  0  0  0  0  0  0  0  0  0  0  0
   11.7814  -16.5333   25.0397 C   0  0  0  0  0  0  0  0  0  0  0  0
   11.4134  -16.9612   23.7781 O   0  0  0  0  0  0  0  0  0  0  0  0
   12.9266  -16.7825   25.4533 O   0  0  0  0  0  0  0  0  0  0  0  0
  2  3  1  6
  2  1  1  0
  4  2  1  0
  4  5  1  6
  6  8  1  0
  6  4  1  0
  7  6  2  0
  9  8  1  0
  9 12  1  0
  9 10  1  1
 11 10  1  0
 12 14  1  0
 13 12  2  0
 14 15  1  0
 15 16  1  1
 15 22  1  0
 17 16  1  0
 18 17  2  0
 19 20  1  0
 19 18  1  0
 20 21  2  0
 21 17  1  0
 22 24  2  0
 22 23  1  0
M  END
$$$$
