VCH.pdb
     RDKit          3D

 24 24  0  0  1  0  0  0  0  0999 V2000
    8.7747  -19.5959   18.5027 C   0  0  0  0  0  0  0  0  0  0  0  0
    7.6648  -18.7935   17.8653 C   0  0  2  0  0  0  0  0  0  0  0  0
    6.9470  -19.5267   16.7824 C   0  0  0  0  0  0  0  0  0  0  0  0
    8.2762  -17.4847   17.3887 C   0  0  2  0  0  0  0  0  0  0  0  0
    9.1970  -17.8145   16.3473 N   0  0  0  0  0  0  0  0  0  0  0  0
    8.8825  -16.7158   18.4915 C   0  0  0  0  0  0  0  0  0  0  0  0
   10.0562  -16.9680   18.8318 O   0  0  0  0  0  0  0  0  0  0  0  0
    8.1815  -15.6986   19.1819 N   0  0  0  0  0  0  0  0  0  0  0  0
    8.8284  -14.9452   20.2281 C   0  0  1  0  0  0  0  0  0  0  0  0
    7.8315  -13.8671   20.6586 C   0  0  0  0  0  0  0  0  0  0  0  0
    7.5922  -12.6844   19.3071 S   0  0  0  0  0  0  0  0  0  0  0  0
    9.0699  -15.8031   21.3870 C   0  0  0  0  0  0  0  0  0  0  0  0
    8.1703  -16.6209   21.7391 O   0  0  0  0  0  0  0  0  0  0  0  0
   10.3013  -15.6875   22.0729 N   0  0  0  0  0  0  0  0  0  0  0  0
   10.5659  -16.5365   23.2029 C   0  0  1  0  0  0  0  0  0  0  0  0
   12.0777  -16.7060   23.2654 C   0  0  0  0  0  0  0  0  0  0  0  0
   12.4953  -17.5551   22.1113 C   0  0  0  0  0  0  0  0  0  0  0  0
   11.8262  -18.6571   21.6389 C   0  0  0  0  0  0  0  0  0  0  0  0
   12.5163  -19.1379   20.6014 N   0  0  0  0  0  0  0  0  0  0  0  0
   13.5979  -18.3575   20.4211 C   0  0  0  0  0  0  0  0  0  0  0  0
   13.5855  -17.3888   21.3448 N   0  0  0  0  0  0  0  0  0  0  0  0
   10.0413  -15.8943   24.4187 C   0  0  0  0  0  0  0  0  0  0  0  0
    9.4435  -14.6493   24.3664 O   0  0  0  0  0  0  0  0  0  0  0  0
   10.1343  -16.4757   25.5132 O   0  0  0  0  0  0  0  0  0  0  0  0
  2  3  1  6
  2  1  1  0
  4  2  1  0
  4  5  1  6
  6  8  1  0
  6  4  1  0
  7  6  2  0
  9  8  1  0
  9 12  1  0
  9 10  1  1
 11 10  1  0
 12 14  1  0
 13 12  2  0
 14 15  1  0
 15 16  1  1
 15 22  1  0
 17 16  1  0
 18 17  2  0
 19 20  1  0
 19 18  1  0
 20 21  2  0
 21 17  1  0
 22 24  2  0
 22 23  1  0
M  END
$$$$
