VCH.pdb
     RDKit          3D

 24 24  0  0  1  0  0  0  0  0999 V2000
    5.6582  -21.6791   25.6575 C   0  0  0  0  0  0  0  0  0  0  0  0
    6.8988  -20.8417   25.4546 C   0  0  2  0  0  0  0  0  0  0  0  0
    7.1762  -19.9061   26.5830 C   0  0  0  0  0  0  0  0  0  0  0  0
    6.7438  -20.1289   24.1197 C   0  0  2  0  0  0  0  0  0  0  0  0
    6.3537  -21.1188   23.1663 N   0  0  0  0  0  0  0  0  0  0  0  0
    7.9595  -19.3869   23.7369 C   0  0  0  0  0  0  0  0  0  0  0  0
    8.9000  -20.0034   23.1962 O   0  0  0  0  0  0  0  0  0  0  0  0
    8.1011  -17.9966   23.9601 N   0  0  0  0  0  0  0  0  0  0  0  0
    9.3307  -17.3229   23.6211 C   0  0  1  0  0  0  0  0  0  0  0  0
    8.9473  -15.8846   23.2666 C   0  0  0  0  0  0  0  0  0  0  0  0
   10.4316  -14.9558   22.8011 S   0  0  0  0  0  0  0  0  0  0  0  0
   10.2083  -17.2648   24.7889 C   0  0  0  0  0  0  0  0  0  0  0  0
   11.4019  -16.8720   24.6366 O   0  0  0  0  0  0  0  0  0  0  0  0
    9.6907  -17.6499   26.0474 N   0  0  0  0  0  0  0  0  0  0  0  0
   10.5543  -17.6572   27.1972 C   0  0  1  0  0  0  0  0  0  0  0  0
    9.7940  -16.9444   28.3073 C   0  0  0  0  0  0  0  0  0  0  0  0
    9.7688  -15.4869   27.9875 C   0  0  0  0  0  0  0  0  0  0  0  0
   10.3712  -14.8888   26.9083 C   0  0  0  0  0  0  0  0  0  0  0  0
   10.1190  -13.5790   26.9761 N   0  0  0  0  0  0  0  0  0  0  0  0
    9.3736  -13.3531   28.0738 C   0  0  0  0  0  0  0  0  0  0  0  0
    9.1591  -14.5203   28.6930 N   0  0  0  0  0  0  0  0  0  0  0  0
   10.8612  -19.0505   27.5579 C   0  0  0  0  0  0  0  0  0  0  0  0
   10.4046  -20.1036   26.7882 O   0  0  0  0  0  0  0  0  0  0  0  0
   11.5416  -19.2907   28.5698 O   0  0  0  0  0  0  0  0  0  0  0  0
  2  3  1  1
  2  1  1  0
  4  2  1  0
  4  5  1  6
  6  8  1  0
  6  4  1  0
  7  6  2  0
  9  8  1  0
  9 12  1  0
  9 10  1  1
 11 10  1  0
 12 14  1  0
 13 12  2  0
 14 15  1  0
 15 16  1  1
 15 22  1  0
 17 16  1  0
 18 17  2  0
 19 20  1  0
 19 18  1  0
 20 21  2  0
 21 17  1  0
 22 24  2  0
 22 23  1  0
M  END
$$$$
