VCH.pdb
     RDKit          3D

 24 24  0  0  1  0  0  0  0  0999 V2000
    7.9954  -15.8021   20.2645 C   0  0  0  0  0  0  0  0  0  0  0  0
    6.9120  -14.7694   20.4685 C   0  0  2  0  0  0  0  0  0  0  0  0
    6.1068  -14.5016   19.2415 C   0  0  0  0  0  0  0  0  0  0  0  0
    7.5828  -13.5206   21.0201 C   0  0  2  0  0  0  0  0  0  0  0  0
    8.4438  -13.0266   19.9927 N   0  0  0  0  0  0  0  0  0  0  0  0
    8.2736  -13.7745   22.2982 C   0  0  0  0  0  0  0  0  0  0  0  0
    9.4931  -14.0386   22.2852 O   0  0  0  0  0  0  0  0  0  0  0  0
    7.6040  -13.7300   23.5441 N   0  0  0  0  0  0  0  0  0  0  0  0
    8.3237  -13.9728   24.7704 C   0  0  1  0  0  0  0  0  0  0  0  0
    7.4211  -13.4766   25.9020 C   0  0  0  0  0  0  0  0  0  0  0  0
    5.7003  -13.9179   25.5465 S   0  0  0  0  0  0  0  0  0  0  0  0
    8.5143  -15.4094   24.9631 C   0  0  0  0  0  0  0  0  0  0  0  0
    7.5717  -16.1967   24.6568 O   0  0  0  0  0  0  0  0  0  0  0  0
    9.7463  -15.8673   25.4853 N   0  0  0  0  0  0  0  0  0  0  0  0
    9.9144  -17.2636   25.7848 C   0  0  1  0  0  0  0  0  0  0  0  0
   11.3159  -17.6348   25.3196 C   0  0  0  0  0  0  0  0  0  0  0  0
   11.3347  -17.5879   23.8280 C   0  0  0  0  0  0  0  0  0  0  0  0
   10.2398  -17.4376   23.0133 C   0  0  0  0  0  0  0  0  0  0  0  0
   10.6699  -17.4446   21.7488 N   0  0  0  0  0  0  0  0  0  0  0  0
   12.0072  -17.5959   21.7630 C   0  0  0  0  0  0  0  0  0  0  0  0
   12.4145  -17.6836   23.0351 N   0  0  0  0  0  0  0  0  0  0  0  0
    9.7522  -17.4664   27.2333 C   0  0  0  0  0  0  0  0  0  0  0  0
    9.4853  -16.4045   28.0767 O   0  0  0  0  0  0  0  0  0  0  0  0
    9.8557  -18.6086   27.7122 O   0  0  0  0  0  0  0  0  0  0  0  0
  2  3  1  6
  2  1  1  0
  4  2  1  0
  4  5  1  6
  6  8  1  0
  6  4  1  0
  7  6  2  0
  9  8  1  0
  9 12  1  0
  9 10  1  1
 11 10  1  0
 12 14  1  0
 13 12  2  0
 14 15  1  0
 15 16  1  1
 15 22  1  0
 17 16  1  0
 18 17  2  0
 19 20  1  0
 19 18  1  0
 20 21  2  0
 21 17  1  0
 22 24  2  0
 22 23  1  0
M  END
$$$$
