VCH.pdb
     RDKit          3D

 24 24  0  0  1  0  0  0  0  0999 V2000
    6.0280  -22.3013   16.2701 C   0  0  0  0  0  0  0  0  0  0  0  0
    6.6064  -21.4901   17.4055 C   0  0  2  0  0  0  0  0  0  0  0  0
    7.8240  -22.1013   18.0134 C   0  0  0  0  0  0  0  0  0  0  0  0
    5.4884  -21.2710   18.4134 C   0  0  2  0  0  0  0  0  0  0  0  0
    4.3741  -20.7500   17.6869 N   0  0  0  0  0  0  0  0  0  0  0  0
    5.9099  -20.4177   19.5401 C   0  0  0  0  0  0  0  0  0  0  0  0
    6.0986  -19.2005   19.3403 O   0  0  0  0  0  0  0  0  0  0  0  0
    6.1095  -20.9282   20.8448 N   0  0  0  0  0  0  0  0  0  0  0  0
    6.6411  -20.0845   21.8870 C   0  0  1  0  0  0  0  0  0  0  0  0
    5.5620  -20.0091   22.9692 C   0  0  0  0  0  0  0  0  0  0  0  0
    6.1123  -18.9132   24.3027 S   0  0  0  0  0  0  0  0  0  0  0  0
    7.8174  -20.7115   22.4876 C   0  0  0  0  0  0  0  0  0  0  0  0
    7.9726  -21.9616   22.3643 O   0  0  0  0  0  0  0  0  0  0  0  0
    8.7397  -19.8973   23.1850 N   0  0  0  0  0  0  0  0  0  0  0  0
    9.9788  -20.4634   23.6453 C   0  0  1  0  0  0  0  0  0  0  0  0
   11.0654  -19.9139   22.7311 C   0  0  0  0  0  0  0  0  0  0  0  0
   11.7999  -21.0707   22.1398 C   0  0  0  0  0  0  0  0  0  0  0  0
   11.5529  -22.3969   22.3952 C   0  0  0  0  0  0  0  0  0  0  0  0
   12.4185  -23.1174   21.6773 N   0  0  0  0  0  0  0  0  0  0  0  0
   13.1961  -22.2661   20.9830 C   0  0  0  0  0  0  0  0  0  0  0  0
   12.8180  -21.0135   21.2657 N   0  0  0  0  0  0  0  0  0  0  0  0
   10.1964  -20.0672   25.0457 C   0  0  0  0  0  0  0  0  0  0  0  0
   10.8436  -20.9071   25.9322 O   0  0  0  0  0  0  0  0  0  0  0  0
    9.7941  -18.9607   25.4439 O   0  0  0  0  0  0  0  0  0  0  0  0
  2  3  1  1
  2  1  1  0
  4  2  1  0
  4  5  1  6
  6  8  1  0
  6  4  1  0
  7  6  2  0
  9  8  1  0
  9 12  1  0
  9 10  1  1
 11 10  1  0
 12 14  1  0
 13 12  2  0
 14 15  1  0
 15 16  1  6
 15 22  1  0
 17 16  1  0
 18 17  2  0
 19 20  1  0
 19 18  1  0
 20 21  2  0
 21 17  1  0
 22 24  2  0
 22 23  1  0
M  END
$$$$
