VCH.pdb
     RDKit          3D

 24 24  0  0  1  0  0  0  0  0999 V2000
   14.1215  -20.1946   16.7847 C   0  0  0  0  0  0  0  0  0  0  0  0
   13.9526  -19.2483   17.9501 C   0  0  2  0  0  0  0  0  0  0  0  0
   14.5085  -19.7758   19.2300 C   0  0  0  0  0  0  0  0  0  0  0  0
   12.4720  -18.9122   18.0422 C   0  0  2  0  0  0  0  0  0  0  0  0
   12.0567  -18.5156   16.7341 N   0  0  0  0  0  0  0  0  0  0  0  0
   12.1904  -17.9048   19.0820 C   0  0  0  0  0  0  0  0  0  0  0  0
   11.5927  -16.8569   18.7635 O   0  0  0  0  0  0  0  0  0  0  0  0
   12.5736  -18.0817   20.4328 N   0  0  0  0  0  0  0  0  0  0  0  0
   12.2039  -17.1086   21.4313 C   0  0  1  0  0  0  0  0  0  0  0  0
   10.6834  -17.2006   21.5766 C   0  0  0  0  0  0  0  0  0  0  0  0
   10.2309  -18.8322   22.2211 S   0  0  0  0  0  0  0  0  0  0  0  0
   12.7876  -17.4693   22.7223 C   0  0  0  0  0  0  0  0  0  0  0  0
   12.8083  -18.6880   23.0637 O   0  0  0  0  0  0  0  0  0  0  0  0
   13.3082  -16.4422   23.5433 N   0  0  0  0  0  0  0  0  0  0  0  0
   14.2458  -16.7717   24.5825 C   0  0  1  0  0  0  0  0  0  0  0  0
   15.0705  -15.5156   24.8281 C   0  0  0  0  0  0  0  0  0  0  0  0
   16.0051  -15.3445   23.6772 C   0  0  0  0  0  0  0  0  0  0  0  0
   16.4784  -16.3478   22.8683 C   0  0  0  0  0  0  0  0  0  0  0  0
   17.2846  -15.7918   21.9602 N   0  0  0  0  0  0  0  0  0  0  0  0
   17.3207  -14.4660   22.1892 C   0  0  0  0  0  0  0  0  0  0  0  0
   16.5378  -14.1917   23.2398 N   0  0  0  0  0  0  0  0  0  0  0  0
   13.5040  -17.1778   25.7868 C   0  0  0  0  0  0  0  0  0  0  0  0
   12.1221  -17.1774   25.8073 O   0  0  0  0  0  0  0  0  0  0  0  0
   14.1244  -17.5279   26.8053 O   0  0  0  0  0  0  0  0  0  0  0  0
  2  3  1  1
  2  1  1  0
  4  2  1  0
  4  5  1  6
  6  8  1  0
  6  4  1  0
  7  6  2  0
  9  8  1  0
  9 12  1  0
  9 10  1  1
 11 10  1  0
 12 14  1  0
 13 12  2  0
 14 15  1  0
 15 16  1  1
 15 22  1  0
 17 16  1  0
 18 17  2  0
 19 20  1  0
 19 18  1  0
 20 21  2  0
 21 17  1  0
 22 24  2  0
 22 23  1  0
M  END
$$$$
