KRT.pdb
     RDKit          3D

 28 27  0  0  1  0  0  0  0  0999 V2000
    9.9326  -20.7464   16.7438 N   0  0  0  0  0  0  0  0  0  0  0  0
    9.2510  -20.6748   17.9892 C   0  0  1  0  0  0  0  0  0  0  0  0
    9.1843  -21.9053   18.8067 C   0  0  0  0  0  0  0  0  0  0  0  0
    8.3370  -22.9716   18.2010 C   0  0  0  0  0  0  0  0  0  0  0  0
    8.1864  -24.2015   19.0229 C   0  0  0  0  0  0  0  0  0  0  0  0
    7.3432  -25.2542   18.3031 C   0  0  0  0  0  0  0  0  0  0  0  0
    7.1970  -26.4561   19.0673 N   0  0  0  0  0  0  0  0  0  0  0  0
    9.8933  -19.5656   18.7886 C   0  0  0  0  0  0  0  0  0  0  0  0
   11.1215  -19.3194   18.6851 O   0  0  0  0  0  0  0  0  0  0  0  0
    7.3411  -13.5734   16.9046 N   0  0  0  0  0  0  0  0  0  0  0  0
    7.5238  -13.3983   18.3189 C   0  0  0  0  0  0  0  0  0  0  0  0
    7.1651  -12.3005   18.9064 N   0  0  0  0  0  0  0  0  0  0  0  0
    8.0984  -14.4084   19.1249 N   0  0  0  0  0  0  0  0  0  0  0  0
    8.1161  -14.2450   20.5660 C   0  0  0  0  0  0  0  0  0  0  0  0
    8.9574  -15.3623   21.2133 C   0  0  0  0  0  0  0  0  0  0  0  0
    8.6989  -16.5759   20.4042 C   0  0  0  0  0  0  0  0  0  0  0  0
    9.7731  -17.6143   20.3600 C   0  0  2  0  0  0  0  0  0  0  0  0
    9.1382  -18.7685   19.6778 N   0  0  0  0  0  0  0  0  0  0  0  0
   10.2124  -18.0897   21.6915 C   0  0  0  0  0  0  0  0  0  0  0  0
    9.4346  -18.7623   22.4471 O   0  0  0  0  0  0  0  0  0  0  0  0
    7.3734  -12.1480   19.9296 C   0  0  0  0  0  0  0  0  0  0  0  0
   14.1147  -17.6338   24.3405 C   0  0  2  0  0  0  0  0  0  0  0  0
   13.4242  -18.5733   23.4030 O   0  0  0  0  0  0  0  0  0  0  0  0
   13.6553  -19.8995   23.8184 C   0  0  1  0  0  0  0  0  0  0  0  0
   11.9154  -18.3414   23.5060 N   0  0  0  0  0  0  0  0  0  0  0  0
   11.4945  -17.8366   22.1969 C   0  0  0  0  0  0  0  0  0  0  0  0
   11.5960  -17.3765   24.5727 O   0  0  0  0  0  0  0  0  0  0  0  0
   11.2566  -16.2055   24.2851 O   0  0  0  0  0  0  0  0  0  0  0  0
  2  1  1  6
  3  2  1  0
  4  3  1  0
  4  5  1  0
  6  5  1  0
  7  6  1  0
  8  2  1  0
  8  9  2  0
 10 11  1  0
 11 12  2  0
 11 13  1  0
 13 14  1  0
 14 15  1  0
 15 16  1  0
 17 16  1  1
 17 18  1  0
 18  8  1  0
 19 17  1  0
 20 19  2  0
 22 21  1  6
 22 23  1  0
 22 24  1  0
 24 26  1  0
 24 25  1  6
 25 19  1  0
 26 28  1  0
 27 26  2  0
M  END
$$$$
