KRT.pdb
     RDKit          3D

 28 27  0  0  1  0  0  0  0  0999 V2000
    9.9592  -18.4561   17.9135 N   0  0  0  0  0  0  0  0  0  0  0  0
    9.1352  -18.6923   19.0476 C   0  0  1  0  0  0  0  0  0  0  0  0
    9.0084  -20.0859   19.5254 C   0  0  0  0  0  0  0  0  0  0  0  0
    9.0999  -21.0957   18.4328 C   0  0  0  0  0  0  0  0  0  0  0  0
    8.8775  -22.5041   18.8541 C   0  0  0  0  0  0  0  0  0  0  0  0
    9.0183  -23.4682   17.6760 C   0  0  0  0  0  0  0  0  0  0  0  0
    8.8907  -24.8386   18.0706 N   0  0  0  0  0  0  0  0  0  0  0  0
    9.6482  -17.8146   20.1650 C   0  0  0  0  0  0  0  0  0  0  0  0
   10.8812  -17.6741   20.3648 O   0  0  0  0  0  0  0  0  0  0  0  0
    8.7778  -13.5575   18.0108 N   0  0  0  0  0  0  0  0  0  0  0  0
    8.5518  -12.5301   18.9895 C   0  0  0  0  0  0  0  0  0  0  0  0
    9.3702  -11.5328   19.1100 N   0  0  0  0  0  0  0  0  0  0  0  0
    7.4352  -12.5625   19.8568 N   0  0  0  0  0  0  0  0  0  0  0  0
    7.5715  -13.1620   21.1705 C   0  0  0  0  0  0  0  0  0  0  0  0
    7.5486  -14.6986   21.0542 C   0  0  0  0  0  0  0  0  0  0  0  0
    8.2335  -15.2008   22.2678 C   0  0  0  0  0  0  0  0  0  0  0  0
    9.2995  -16.2314   22.0789 C   0  0  2  0  0  0  0  0  0  0  0  0
    8.7628  -17.1232   21.0218 N   0  0  0  0  0  0  0  0  0  0  0  0
    9.5453  -17.0754   23.2702 C   0  0  0  0  0  0  0  0  0  0  0  0
    8.5878  -17.6550   23.8832 O   0  0  0  0  0  0  0  0  0  0  0  0
    9.2282  -10.8123   19.8680 C   0  0  0  0  0  0  0  0  0  0  0  0
   12.2541  -19.6987   23.4490 C   0  0  2  0  0  0  0  0  0  0  0  0
   12.3852  -18.8690   24.6870 O   0  0  0  0  0  0  0  0  0  0  0  0
   13.3388  -17.8549   24.4695 C   0  0  2  0  0  0  0  0  0  0  0  0
   11.0515  -18.1647   24.9438 N   0  0  0  0  0  0  0  0  0  0  0  0
   10.8286  -17.2899   23.7901 C   0  0  0  0  0  0  0  0  0  0  0  0
   11.0905  -17.3892   26.1959 O   0  0  0  0  0  0  0  0  0  0  0  0
   11.0734  -16.1370   26.1649 O   0  0  0  0  0  0  0  0  0  0  0  0
  2  1  1  6
  3  2  1  0
  4  3  1  0
  4  5  1  0
  6  5  1  0
  7  6  1  0
  8  2  1  0
  8  9  2  0
 10 11  1  0
 11 12  2  0
 11 13  1  0
 13 14  1  0
 14 15  1  0
 15 16  1  0
 17 16  1  1
 17 18  1  0
 18  8  1  0
 19 17  1  0
 20 19  2  0
 22 21  1  1
 22 23  1  0
 22 24  1  0
 24 26  1  0
 24 25  1  1
 25 19  1  0
 26 28  1  0
 27 26  2  0
M  END
$$$$
