KRT.pdb
     RDKit          3D

 28 27  0  0  1  0  0  0  0  0999 V2000
   10.8756  -17.4878   16.2833 N   0  0  0  0  0  0  0  0  0  0  0  0
   11.2412  -18.3333   17.3660 C   0  0  1  0  0  0  0  0  0  0  0  0
   12.3940  -19.2387   17.1707 C   0  0  0  0  0  0  0  0  0  0  0  0
   13.5671  -18.5730   16.5363 C   0  0  0  0  0  0  0  0  0  0  0  0
   14.7161  -19.4682   16.2380 C   0  0  0  0  0  0  0  0  0  0  0  0
   15.8739  -18.6978   15.6031 C   0  0  0  0  0  0  0  0  0  0  0  0
   16.9979  -19.5365   15.3145 N   0  0  0  0  0  0  0  0  0  0  0  0
   11.4864  -17.4466   18.5642 C   0  0  0  0  0  0  0  0  0  0  0  0
   12.5433  -16.7741   18.6676 O   0  0  0  0  0  0  0  0  0  0  0  0
    7.0840  -14.7267   17.7751 N   0  0  0  0  0  0  0  0  0  0  0  0
    6.8234  -13.4900   18.4586 C   0  0  0  0  0  0  0  0  0  0  0  0
    6.5185  -12.4163   17.8006 N   0  0  0  0  0  0  0  0  0  0  0  0
    6.8879  -13.3918   19.8680 N   0  0  0  0  0  0  0  0  0  0  0  0
    7.4586  -14.4844   20.6323 C   0  0  0  0  0  0  0  0  0  0  0  0
    8.9409  -14.6742   20.2553 C   0  0  0  0  0  0  0  0  0  0  0  0
    9.4009  -15.8525   21.0261 C   0  0  0  0  0  0  0  0  0  0  0  0
   10.7630  -16.3859   20.7190 C   0  0  2  0  0  0  0  0  0  0  0  0
   10.5392  -17.3424   19.6073 N   0  0  0  0  0  0  0  0  0  0  0  0
   11.3791  -17.1503   21.8271 C   0  0  0  0  0  0  0  0  0  0  0  0
   10.9559  -18.3099   22.1506 O   0  0  0  0  0  0  0  0  0  0  0  0
    6.4117  -11.4936   18.3015 C   0  0  0  0  0  0  0  0  0  0  0  0
   15.1534  -17.6013   24.9463 C   0  0  2  0  0  0  0  0  0  0  0  0
   14.4475  -16.8112   23.8901 O   0  0  0  0  0  0  0  0  0  0  0  0
   15.1669  -16.9012   22.6820 C   0  0  1  0  0  0  0  0  0  0  0  0
   13.0828  -17.4535   23.6330 N   0  0  0  0  0  0  0  0  0  0  0  0
   12.4538  -16.6556   22.5778 C   0  0  0  0  0  0  0  0  0  0  0  0
   12.2583  -17.4600   24.8540 O   0  0  0  0  0  0  0  0  0  0  0  0
   11.4762  -16.5112   25.0939 O   0  0  0  0  0  0  0  0  0  0  0  0
  2  1  1  6
  3  2  1  0
  4  3  1  0
  4  5  1  0
  6  5  1  0
  7  6  1  0
  8  2  1  0
  8  9  2  0
 10 11  1  0
 11 12  2  0
 11 13  1  0
 13 14  1  0
 14 15  1  0
 15 16  1  0
 17 16  1  1
 17 18  1  0
 18  8  1  0
 19 17  1  0
 20 19  2  0
 22 21  1  1
 22 23  1  0
 22 24  1  0
 24 26  1  0
 24 25  1  1
 25 19  1  0
 26 28  1  0
 27 26  2  0
M  END
$$$$
