KRT.pdb
     RDKit          3D

 28 27  0  0  1  0  0  0  0  0999 V2000
    6.2695  -16.0426   20.2753 N   0  0  0  0  0  0  0  0  0  0  0  0
    7.4152  -15.3658   20.7754 C   0  0  1  0  0  0  0  0  0  0  0  0
    7.4206  -13.8883   20.7142 C   0  0  0  0  0  0  0  0  0  0  0  0
    7.2359  -13.3535   19.3352 C   0  0  0  0  0  0  0  0  0  0  0  0
    8.4933  -13.0664   18.5955 C   0  0  0  0  0  0  0  0  0  0  0  0
    8.2067  -12.5835   17.1736 C   0  0  0  0  0  0  0  0  0  0  0  0
    9.3945  -12.4749   16.3814 N   0  0  0  0  0  0  0  0  0  0  0  0
    7.6154  -15.8179   22.2028 C   0  0  0  0  0  0  0  0  0  0  0  0
    6.6399  -16.1631   22.9163 O   0  0  0  0  0  0  0  0  0  0  0  0
   12.6675  -20.9853   22.5884 N   0  0  0  0  0  0  0  0  0  0  0  0
   11.2694  -21.0917   22.2745 C   0  0  0  0  0  0  0  0  0  0  0  0
   10.8769  -21.4335   21.0879 N   0  0  0  0  0  0  0  0  0  0  0  0
   10.2690  -20.8301   23.2393 N   0  0  0  0  0  0  0  0  0  0  0  0
   10.3671  -19.6392   24.0615 C   0  0  0  0  0  0  0  0  0  0  0  0
   10.2323  -18.3796   23.1837 C   0  0  0  0  0  0  0  0  0  0  0  0
   10.2716  -17.2337   24.1216 C   0  0  0  0  0  0  0  0  0  0  0  0
    9.0678  -16.3495   24.1775 C   0  0  2  0  0  0  0  0  0  0  0  0
    8.9022  -15.8685   22.7840 N   0  0  0  0  0  0  0  0  0  0  0  0
    9.2349  -15.1505   25.0298 C   0  0  0  0  0  0  0  0  0  0  0  0
   10.3403  -14.5143   25.0728 O   0  0  0  0  0  0  0  0  0  0  0  0
    9.8502  -21.4358   20.8436 C   0  0  0  0  0  0  0  0  0  0  0  0
    6.9107  -12.0840   25.4144 C   0  0  2  0  0  0  0  0  0  0  0  0
    7.0993  -12.7316   26.7499 O   0  0  0  0  0  0  0  0  0  0  0  0
    6.0768  -13.6785   26.9570 C   0  0  2  0  0  0  0  0  0  0  0  0
    8.4163  -13.5099   26.7311 N   0  0  0  0  0  0  0  0  0  0  0  0
    8.2016  -14.6443   25.8295 C   0  0  0  0  0  0  0  0  0  0  0  0
    8.7830  -13.9699   28.0820 O   0  0  0  0  0  0  0  0  0  0  0  0
    8.7886  -15.1928   28.3536 O   0  0  0  0  0  0  0  0  0  0  0  0
  2  1  1  1
  3  2  1  0
  4  3  1  0
  4  5  1  0
  6  5  1  0
  7  6  1  0
  8  2  1  0
  8  9  2  0
 10 11  1  0
 11 12  2  0
 11 13  1  0
 13 14  1  0
 14 15  1  0
 15 16  1  0
 17 16  1  6
 17 18  1  0
 18  8  1  0
 19 17  1  0
 20 19  2  0
 22 21  1  1
 22 23  1  0
 22 24  1  0
 24 26  1  0
 24 25  1  1
 25 19  1  0
 26 28  1  0
 27 26  2  0
M  END
$$$$
