KRT.pdb
     RDKit          3D

 28 27  0  0  1  0  0  0  0  0999 V2000
   11.1629  -20.3591   17.2726 N   0  0  0  0  0  0  0  0  0  0  0  0
   12.2978  -19.5140   17.1350 C   0  0  1  0  0  0  0  0  0  0  0  0
   12.5298  -18.8859   15.8165 C   0  0  0  0  0  0  0  0  0  0  0  0
   11.2872  -18.3522   15.1896 C   0  0  0  0  0  0  0  0  0  0  0  0
   11.4601  -17.7895   13.8243 C   0  0  0  0  0  0  0  0  0  0  0  0
   10.1347  -17.2786   13.2590 C   0  0  0  0  0  0  0  0  0  0  0  0
   10.2850  -16.6744   11.9696 N   0  0  0  0  0  0  0  0  0  0  0  0
   12.1925  -18.4455   18.1976 C   0  0  0  0  0  0  0  0  0  0  0  0
   13.1111  -17.6037   18.3637 O   0  0  0  0  0  0  0  0  0  0  0  0
    7.9862  -12.9799   21.7545 N   0  0  0  0  0  0  0  0  0  0  0  0
    7.5322  -13.2253   20.4136 C   0  0  0  0  0  0  0  0  0  0  0  0
    7.2376  -12.2445   19.6197 N   0  0  0  0  0  0  0  0  0  0  0  0
    7.3883  -14.5374   19.9060 N   0  0  0  0  0  0  0  0  0  0  0  0
    7.5889  -15.6690   20.7909 C   0  0  0  0  0  0  0  0  0  0  0  0
    9.0943  -15.8795   21.0452 C   0  0  0  0  0  0  0  0  0  0  0  0
    9.5339  -16.8726   20.0379 C   0  0  0  0  0  0  0  0  0  0  0  0
   10.9740  -17.2727   20.0499 C   0  0  2  0  0  0  0  0  0  0  0  0
   11.0614  -18.3551   19.0393 N   0  0  0  0  0  0  0  0  0  0  0  0
   11.4337  -17.8458   21.3353 C   0  0  0  0  0  0  0  0  0  0  0  0
   10.9012  -18.8984   21.8220 O   0  0  0  0  0  0  0  0  0  0  0  0
    6.8492  -12.4333   18.6568 C   0  0  0  0  0  0  0  0  0  0  0  0
   15.1620  -17.8378   22.3200 C   0  0  2  0  0  0  0  0  0  0  0  0
   14.3768  -17.4228   23.5240 O   0  0  0  0  0  0  0  0  0  0  0  0
   14.3476  -16.0162   23.5989 C   0  0  2  0  0  0  0  0  0  0  0  0
   12.9281  -17.8793   23.3407 N   0  0  0  0  0  0  0  0  0  0  0  0
   12.4711  -17.2770   22.0860 C   0  0  0  0  0  0  0  0  0  0  0  0
   12.0867  -17.4494   24.4711 O   0  0  0  0  0  0  0  0  0  0  0  0
   11.2339  -16.5449   24.3165 O   0  0  0  0  0  0  0  0  0  0  0  0
  2  1  1  6
  3  2  1  0
  4  3  1  0
  4  5  1  0
  6  5  1  0
  7  6  1  0
  8  2  1  0
  8  9  2  0
 10 11  1  0
 11 12  2  0
 11 13  1  0
 13 14  1  0
 14 15  1  0
 15 16  1  0
 17 16  1  1
 17 18  1  0
 18  8  1  0
 19 17  1  0
 20 19  2  0
 22 21  1  1
 22 23  1  0
 22 24  1  0
 24 26  1  0
 24 25  1  1
 25 19  1  0
 26 28  1  0
 27 26  2  0
M  END
$$$$
