KRT.pdb
     RDKit          3D

 28 27  0  0  1  0  0  0  0  0999 V2000
    8.6705  -16.7180   16.3930 N   0  0  0  0  0  0  0  0  0  0  0  0
    8.7231  -15.6552   17.3357 C   0  0  1  0  0  0  0  0  0  0  0  0
    7.8513  -14.4844   17.0992 C   0  0  0  0  0  0  0  0  0  0  0  0
    7.6453  -14.1836   15.6539 C   0  0  0  0  0  0  0  0  0  0  0  0
    8.4843  -13.0821   15.1123 C   0  0  0  0  0  0  0  0  0  0  0  0
    8.1689  -12.8117   13.6410 C   0  0  0  0  0  0  0  0  0  0  0  0
    6.9047  -12.1639   13.4613 N   0  0  0  0  0  0  0  0  0  0  0  0
    8.4266  -16.2458   18.6941 C   0  0  0  0  0  0  0  0  0  0  0  0
    7.3624  -16.8799   18.9070 O   0  0  0  0  0  0  0  0  0  0  0  0
   11.6778  -20.5514   17.6254 N   0  0  0  0  0  0  0  0  0  0  0  0
   12.5511  -19.9360   18.5861 C   0  0  0  0  0  0  0  0  0  0  0  0
   13.7872  -19.6791   18.2947 N   0  0  0  0  0  0  0  0  0  0  0  0
   12.1031  -19.5867   19.8812 N   0  0  0  0  0  0  0  0  0  0  0  0
   10.8040  -20.0471   20.3333 C   0  0  0  0  0  0  0  0  0  0  0  0
    9.7378  -18.9683   20.0604 C   0  0  0  0  0  0  0  0  0  0  0  0
    9.9302  -17.9423   21.1114 C   0  0  0  0  0  0  0  0  0  0  0  0
    9.0362  -16.7451   21.0754 C   0  0  2  0  0  0  0  0  0  0  0  0
    9.3323  -16.1066   19.7695 N   0  0  0  0  0  0  0  0  0  0  0  0
    9.3269  -15.7391   22.1221 C   0  0  0  0  0  0  0  0  0  0  0  0
   10.4403  -15.1166   22.1547 O   0  0  0  0  0  0  0  0  0  0  0  0
   14.4301  -19.2541   19.0157 C   0  0  0  0  0  0  0  0  0  0  0  0
    7.0684  -12.8886   23.7536 C   0  0  2  0  0  0  0  0  0  0  0  0
    7.4913  -13.9165   24.7551 O   0  0  0  0  0  0  0  0  0  0  0  0
    6.5233  -14.9386   24.8106 C   0  0  2  0  0  0  0  0  0  0  0  0
    8.7856  -14.5688   24.2653 N   0  0  0  0  0  0  0  0  0  0  0  0
    8.4078  -15.4101   23.1272 C   0  0  0  0  0  0  0  0  0  0  0  0
    9.4147  -15.3701   25.3297 O   0  0  0  0  0  0  0  0  0  0  0  0
    9.4842  -16.6165   25.2254 O   0  0  0  0  0  0  0  0  0  0  0  0
  2  1  1  6
  3  2  1  0
  4  3  1  0
  4  5  1  0
  6  5  1  0
  7  6  1  0
  8  2  1  0
  8  9  2  0
 10 11  1  0
 11 12  2  0
 11 13  1  0
 13 14  1  0
 14 15  1  0
 15 16  1  0
 17 16  1  1
 17 18  1  0
 18  8  1  0
 19 17  1  0
 20 19  2  0
 22 21  1  1
 22 23  1  0
 22 24  1  0
 24 26  1  0
 24 25  1  1
 25 19  1  0
 26 28  1  0
 27 26  2  0
M  END
$$$$
