KRT.pdb
     RDKit          3D

 28 27  0  0  1  0  0  0  0  0999 V2000
    1.3555  -19.7272   14.7727 N   0  0  0  0  0  0  0  0  0  0  0  0
    1.1029  -20.9622   15.4300 C   0  0  1  0  0  0  0  0  0  0  0  0
    2.2469  -21.8760   15.6369 C   0  0  0  0  0  0  0  0  0  0  0  0
    2.7499  -22.4880   14.3742 C   0  0  0  0  0  0  0  0  0  0  0  0
    3.9036  -23.4119   14.5361 C   0  0  0  0  0  0  0  0  0  0  0  0
    4.3474  -23.9915   13.1929 C   0  0  0  0  0  0  0  0  0  0  0  0
    5.5229  -24.8011   13.3065 N   0  0  0  0  0  0  0  0  0  0  0  0
    0.4609  -20.6396   16.7588 C   0  0  0  0  0  0  0  0  0  0  0  0
    0.9374  -19.7519   17.5104 O   0  0  0  0  0  0  0  0  0  0  0  0
   -4.8436  -15.6254   16.5748 N   0  0  0  0  0  0  0  0  0  0  0  0
   -5.2035  -16.7906   15.8150 C   0  0  0  0  0  0  0  0  0  0  0  0
   -6.0816  -16.7216   14.8647 N   0  0  0  0  0  0  0  0  0  0  0  0
   -4.6196  -18.0534   16.0692 N   0  0  0  0  0  0  0  0  0  0  0  0
   -3.5717  -18.1654   17.0658 C   0  0  0  0  0  0  0  0  0  0  0  0
   -3.0958  -19.6276   17.1689 C   0  0  0  0  0  0  0  0  0  0  0  0
   -2.0001  -19.6212   18.1657 C   0  0  0  0  0  0  0  0  0  0  0  0
   -1.3449  -20.9284   18.4754 C   0  0  2  0  0  0  0  0  0  0  0  0
   -0.6940  -21.3222   17.2019 N   0  0  0  0  0  0  0  0  0  0  0  0
   -2.2899  -22.0120   18.8289 C   0  0  0  0  0  0  0  0  0  0  0  0
   -3.0169  -22.5749   17.9440 O   0  0  0  0  0  0  0  0  0  0  0  0
   -6.3848  -17.5925   14.3516 C   0  0  0  0  0  0  0  0  0  0  0  0
   -1.5282  -25.0590   21.0825 C   0  0  2  0  0  0  0  0  0  0  0  0
   -2.7336  -24.3468   21.6099 O   0  0  0  0  0  0  0  0  0  0  0  0
   -2.3309  -23.3967   22.5690 C   0  0  2  0  0  0  0  0  0  0  0  0
   -3.3755  -23.5631   20.4634 N   0  0  0  0  0  0  0  0  0  0  0  0
   -2.4404  -22.4829   20.1399 C   0  0  0  0  0  0  0  0  0  0  0  0
   -4.6899  -23.0251   20.8556 O   0  0  0  0  0  0  0  0  0  0  0  0
   -4.8220  -21.8073   21.1176 O   0  0  0  0  0  0  0  0  0  0  0  0
  2  1  1  1
  3  2  1  0
  4  3  1  0
  4  5  1  0
  6  5  1  0
  7  6  1  0
  8  2  1  0
  8  9  2  0
 10 11  1  0
 11 12  2  0
 11 13  1  0
 13 14  1  0
 14 15  1  0
 15 16  1  0
 17 16  1  6
 17 18  1  0
 18  8  1  0
 19 17  1  0
 20 19  2  0
 22 21  1  1
 22 23  1  0
 22 24  1  0
 24 26  1  0
 24 25  1  6
 25 19  1  0
 26 28  1  0
 27 26  2  0
M  END
$$$$
