KRT.pdb
     RDKit          3D

 28 27  0  0  1  0  0  0  0  0999 V2000
   11.5848  -18.3420   18.0329 N   0  0  0  0  0  0  0  0  0  0  0  0
   10.3881  -18.5753   18.7641 C   0  0  1  0  0  0  0  0  0  0  0  0
    9.9251  -19.9736   18.8943 C   0  0  0  0  0  0  0  0  0  0  0  0
   10.4525  -20.8722   17.8284 C   0  0  0  0  0  0  0  0  0  0  0  0
    9.9703  -22.2773   17.8912 C   0  0  0  0  0  0  0  0  0  0  0  0
    9.4139  -22.7374   16.5436 C   0  0  0  0  0  0  0  0  0  0  0  0
    8.9101  -24.0769   16.5868 N   0  0  0  0  0  0  0  0  0  0  0  0
   10.5756  -17.9702   20.1354 C   0  0  0  0  0  0  0  0  0  0  0  0
   11.7192  -17.8639   20.6462 O   0  0  0  0  0  0  0  0  0  0  0  0
    9.2395  -11.4079   19.7791 N   0  0  0  0  0  0  0  0  0  0  0  0
    8.5676  -12.6598   19.5653 C   0  0  0  0  0  0  0  0  0  0  0  0
    8.9121  -13.4435   18.5926 N   0  0  0  0  0  0  0  0  0  0  0  0
    7.5095  -13.0876   20.4004 N   0  0  0  0  0  0  0  0  0  0  0  0
    7.4968  -14.4528   20.8902 C   0  0  0  0  0  0  0  0  0  0  0  0
    8.5006  -14.6067   22.0496 C   0  0  0  0  0  0  0  0  0  0  0  0
    8.4612  -16.0394   22.4238 C   0  0  0  0  0  0  0  0  0  0  0  0
    9.7010  -16.8432   22.1985 C   0  0  2  0  0  0  0  0  0  0  0  0
    9.4756  -17.5040   20.8895 N   0  0  0  0  0  0  0  0  0  0  0  0
    9.9154  -17.9192   23.1926 C   0  0  0  0  0  0  0  0  0  0  0  0
    9.0338  -18.8183   23.3996 O   0  0  0  0  0  0  0  0  0  0  0  0
    8.4536  -14.3869   18.4771 C   0  0  0  0  0  0  0  0  0  0  0  0
   12.4758  -20.3105   23.0950 C   0  0  2  0  0  0  0  0  0  0  0  0
   12.6205  -19.7749   24.4844 O   0  0  0  0  0  0  0  0  0  0  0  0
   13.5908  -18.7535   24.4913 C   0  0  2  0  0  0  0  0  0  0  0  0
   11.2986  -19.1225   24.8940 N   0  0  0  0  0  0  0  0  0  0  0  0
   11.0863  -18.0177   23.9558 C   0  0  0  0  0  0  0  0  0  0  0  0
   11.3531  -18.6339   26.2830 O   0  0  0  0  0  0  0  0  0  0  0  0
   11.3841  -19.4445   27.2375 O   0  0  0  0  0  0  0  0  0  0  0  0
  2  1  1  1
  3  2  1  0
  4  3  1  0
  4  5  1  0
  6  5  1  0
  7  6  1  0
  8  2  1  0
  8  9  2  0
 10 11  1  0
 11 12  2  0
 11 13  1  0
 13 14  1  0
 14 15  1  0
 15 16  1  0
 17 16  1  1
 17 18  1  0
 18  8  1  0
 19 17  1  0
 20 19  2  0
 22 21  1  1
 22 23  1  0
 22 24  1  0
 24 26  1  0
 24 25  1  1
 25 19  1  0
 26 28  1  0
 27 26  2  0
M  END
$$$$
