KRT.pdb
     RDKit          3D

 28 27  0  0  1  0  0  0  0  0999 V2000
    7.2273  -16.7785   19.8636 N   0  0  0  0  0  0  0  0  0  0  0  0
    7.9271  -15.6804   20.4340 C   0  0  1  0  0  0  0  0  0  0  0  0
    7.2924  -14.3471   20.3560 C   0  0  0  0  0  0  0  0  0  0  0  0
    7.0756  -13.8769   18.9583 C   0  0  0  0  0  0  0  0  0  0  0  0
    8.2753  -13.3063   18.2906 C   0  0  0  0  0  0  0  0  0  0  0  0
    8.1310  -13.3287   16.7688 C   0  0  0  0  0  0  0  0  0  0  0  0
    6.9069  -12.7331   16.3252 N   0  0  0  0  0  0  0  0  0  0  0  0
    8.2074  -16.0283   21.8771 C   0  0  0  0  0  0  0  0  0  0  0  0
    7.3234  -16.5519   22.6011 O   0  0  0  0  0  0  0  0  0  0  0  0
   14.5706  -16.5364   20.7435 N   0  0  0  0  0  0  0  0  0  0  0  0
   15.1084  -15.6834   21.7670 C   0  0  0  0  0  0  0  0  0  0  0  0
   16.0412  -14.8254   21.4974 N   0  0  0  0  0  0  0  0  0  0  0  0
   14.6465  -15.7425   23.1024 N   0  0  0  0  0  0  0  0  0  0  0  0
   13.5274  -16.6046   23.4310 C   0  0  0  0  0  0  0  0  0  0  0  0
   12.2123  -15.8022   23.3855 C   0  0  0  0  0  0  0  0  0  0  0  0
   11.1500  -16.7545   23.7842 C   0  0  0  0  0  0  0  0  0  0  0  0
    9.7494  -16.2362   23.8444 C   0  0  2  0  0  0  0  0  0  0  0  0
    9.4691  -15.7781   22.4615 N   0  0  0  0  0  0  0  0  0  0  0  0
    9.5742  -15.0629   24.7303 C   0  0  0  0  0  0  0  0  0  0  0  0
   10.2781  -14.0086   24.5841 O   0  0  0  0  0  0  0  0  0  0  0  0
   16.4341  -14.2057   22.2559 C   0  0  0  0  0  0  0  0  0  0  0  0
    7.1476  -12.5563   25.2724 C   0  0  2  0  0  0  0  0  0  0  0  0
    7.1895  -13.3053   26.5668 O   0  0  0  0  0  0  0  0  0  0  0  0
    6.2747  -14.3755   26.5157 C   0  0  2  0  0  0  0  0  0  0  0  0
    8.5786  -13.9271   26.7239 N   0  0  0  0  0  0  0  0  0  0  0  0
    8.6343  -15.0366   25.7691 C   0  0  0  0  0  0  0  0  0  0  0  0
    8.7970  -14.4029   28.1012 O   0  0  0  0  0  0  0  0  0  0  0  0
    8.8698  -15.6300   28.3421 O   0  0  0  0  0  0  0  0  0  0  0  0
  2  1  1  1
  3  2  1  0
  4  3  1  0
  4  5  1  0
  6  5  1  0
  7  6  1  0
  8  2  1  0
  8  9  2  0
 10 11  1  0
 11 12  2  0
 11 13  1  0
 13 14  1  0
 14 15  1  0
 15 16  1  0
 17 16  1  6
 17 18  1  0
 18  8  1  0
 19 17  1  0
 20 19  2  0
 22 21  1  1
 22 23  1  0
 22 24  1  0
 24 26  1  0
 24 25  1  1
 25 19  1  0
 26 28  1  0
 27 26  2  0
M  END
$$$$
