KRT.pdb
     RDKit          3D

 28 27  0  0  1  0  0  0  0  0999 V2000
    8.3046  -18.0242   19.9706 N   0  0  0  0  0  0  0  0  0  0  0  0
    8.9888  -17.0405   20.7355 C   0  0  1  0  0  0  0  0  0  0  0  0
    8.6125  -15.6256   20.5277 C   0  0  0  0  0  0  0  0  0  0  0  0
    8.6398  -15.2111   19.0962 C   0  0  0  0  0  0  0  0  0  0  0  0
    8.2435  -13.8013   18.8392 C   0  0  0  0  0  0  0  0  0  0  0  0
    8.3303  -13.4593   17.3517 C   0  0  0  0  0  0  0  0  0  0  0  0
    8.0276  -12.0852   17.0863 N   0  0  0  0  0  0  0  0  0  0  0  0
    8.8173  -17.4054   22.1913 C   0  0  0  0  0  0  0  0  0  0  0  0
    7.8328  -18.0845   22.5777 O   0  0  0  0  0  0  0  0  0  0  0  0
   14.6163  -20.5985   26.4553 N   0  0  0  0  0  0  0  0  0  0  0  0
   14.8907  -20.1968   25.1034 C   0  0  0  0  0  0  0  0  0  0  0  0
   16.1075  -20.1222   24.6642 N   0  0  0  0  0  0  0  0  0  0  0  0
   13.8531  -19.8679   24.2005 N   0  0  0  0  0  0  0  0  0  0  0  0
   12.4824  -19.8332   24.6735 C   0  0  0  0  0  0  0  0  0  0  0  0
   11.8281  -18.4896   24.2965 C   0  0  0  0  0  0  0  0  0  0  0  0
   10.4270  -18.5819   24.7682 C   0  0  0  0  0  0  0  0  0  0  0  0
    9.5599  -17.3781   24.5869 C   0  0  2  0  0  0  0  0  0  0  0  0
    9.7547  -16.9974   23.1664 N   0  0  0  0  0  0  0  0  0  0  0  0
    9.9631  -16.2113   25.4044 C   0  0  0  0  0  0  0  0  0  0  0  0
   10.8505  -15.3895   24.9976 O   0  0  0  0  0  0  0  0  0  0  0  0
   16.3012  -19.8145   23.6735 C   0  0  0  0  0  0  0  0  0  0  0  0
    8.8534  -12.6061   28.2030 C   0  0  2  0  0  0  0  0  0  0  0  0
    8.5333  -13.8491   27.4345 O   0  0  0  0  0  0  0  0  0  0  0  0
    8.2693  -13.5120   26.0922 C   0  0  1  0  0  0  0  0  0  0  0  0
    9.7727  -14.7460   27.4224 N   0  0  0  0  0  0  0  0  0  0  0  0
    9.4001  -15.9389   26.6582 C   0  0  0  0  0  0  0  0  0  0  0  0
   10.1863  -15.1024   28.7909 O   0  0  0  0  0  0  0  0  0  0  0  0
   10.6015  -14.2190   29.5762 O   0  0  0  0  0  0  0  0  0  0  0  0
  2  1  1  6
  3  2  1  0
  4  3  1  0
  4  5  1  0
  6  5  1  0
  7  6  1  0
  8  2  1  0
  8  9  2  0
 10 11  1  0
 11 12  2  0
 11 13  1  0
 13 14  1  0
 14 15  1  0
 15 16  1  0
 17 16  1  1
 17 18  1  0
 18  8  1  0
 19 17  1  0
 20 19  2  0
 22 21  1  1
 22 23  1  0
 22 24  1  0
 24 26  1  0
 24 25  1  1
 25 19  1  0
 26 28  1  0
 27 26  2  0
M  END
$$$$
