KRT.pdb
     RDKit          3D

 28 27  0  0  1  0  0  0  0  0999 V2000
    4.5985  -21.0668   20.9142 N   0  0  0  0  0  0  0  0  0  0  0  0
    4.6609  -20.2146   22.0503 C   0  0  1  0  0  0  0  0  0  0  0  0
    4.6274  -20.8482   23.3860 C   0  0  0  0  0  0  0  0  0  0  0  0
    4.2179  -22.2810   23.3501 C   0  0  0  0  0  0  0  0  0  0  0  0
    4.2109  -22.9691   24.6681 C   0  0  0  0  0  0  0  0  0  0  0  0
    3.7879  -24.4319   24.5320 C   0  0  0  0  0  0  0  0  0  0  0  0
    3.8812  -25.1471   25.7689 N   0  0  0  0  0  0  0  0  0  0  0  0
    5.9107  -19.3770   21.9143 C   0  0  0  0  0  0  0  0  0  0  0  0
    7.0002  -19.8917   21.5564 O   0  0  0  0  0  0  0  0  0  0  0  0
    9.5308  -14.1920   19.2751 N   0  0  0  0  0  0  0  0  0  0  0  0
    8.6072  -13.0914   19.2783 C   0  0  0  0  0  0  0  0  0  0  0  0
    8.9820  -11.9057   18.9142 N   0  0  0  0  0  0  0  0  0  0  0  0
    7.2596  -13.2531   19.6757 N   0  0  0  0  0  0  0  0  0  0  0  0
    6.9552  -13.5180   21.0689 C   0  0  0  0  0  0  0  0  0  0  0  0
    7.7107  -14.7744   21.5443 C   0  0  0  0  0  0  0  0  0  0  0  0
    6.6821  -15.8317   21.6780 C   0  0  0  0  0  0  0  0  0  0  0  0
    7.1480  -17.2000   22.0586 C   0  0  2  0  0  0  0  0  0  0  0  0
    5.8987  -17.9902   22.1837 N   0  0  0  0  0  0  0  0  0  0  0  0
    7.8315  -17.2649   23.3704 C   0  0  0  0  0  0  0  0  0  0  0  0
    7.2277  -16.9538   24.4507 O   0  0  0  0  0  0  0  0  0  0  0  0
    8.2967  -11.1032   18.9167 C   0  0  0  0  0  0  0  0  0  0  0  0
   10.0597  -20.1330   24.7028 C   0  0  2  0  0  0  0  0  0  0  0  0
   10.8277  -18.8503   24.7574 O   0  0  0  0  0  0  0  0  0  0  0  0
   11.5614  -18.6955   23.5646 C   0  0  2  0  0  0  0  0  0  0  0  0
    9.8323  -17.6895   24.8099 N   0  0  0  0  0  0  0  0  0  0  0  0
    9.1659  -17.6702   23.5056 C   0  0  0  0  0  0  0  0  0  0  0  0
   10.5169  -16.4117   25.0733 O   0  0  0  0  0  0  0  0  0  0  0  0
   10.6483  -15.5648   24.1596 O   0  0  0  0  0  0  0  0  0  0  0  0
  2  1  1  6
  3  2  1  0
  4  3  1  0
  4  5  1  0
  6  5  1  0
  7  6  1  0
  8  2  1  0
  8  9  2  0
 10 11  1  0
 11 12  2  0
 11 13  1  0
 13 14  1  0
 14 15  1  0
 15 16  1  0
 17 16  1  1
 17 18  1  0
 18  8  1  0
 19 17  1  0
 20 19  2  0
 22 21  1  1
 22 23  1  0
 22 24  1  0
 24 26  1  0
 24 25  1  1
 25 19  1  0
 26 28  1  0
 27 26  2  0
M  END
$$$$
