KRT.pdb
     RDKit          3D

 28 27  0  0  1  0  0  0  0  0999 V2000
    6.6823  -16.0369   19.1961 N   0  0  0  0  0  0  0  0  0  0  0  0
    7.6677  -15.2254   19.8217 C   0  0  1  0  0  0  0  0  0  0  0  0
    7.5576  -13.7603   19.6540 C   0  0  0  0  0  0  0  0  0  0  0  0
    7.5096  -13.3310   18.2273 C   0  0  0  0  0  0  0  0  0  0  0  0
    8.4443  -14.0482   17.3202 C   0  0  0  0  0  0  0  0  0  0  0  0
    8.3056  -13.5616   15.8776 C   0  0  0  0  0  0  0  0  0  0  0  0
    9.1909  -14.2425   14.9817 N   0  0  0  0  0  0  0  0  0  0  0  0
    7.6665  -15.5720   21.2920 C   0  0  0  0  0  0  0  0  0  0  0  0
    6.5918  -15.7956   21.9043 O   0  0  0  0  0  0  0  0  0  0  0  0
   13.8306  -20.3015   24.6295 N   0  0  0  0  0  0  0  0  0  0  0  0
   12.5131  -20.7020   25.0396 C   0  0  0  0  0  0  0  0  0  0  0  0
   12.2805  -21.9096   25.4479 N   0  0  0  0  0  0  0  0  0  0  0  0
   11.4217  -19.8030   25.0157 N   0  0  0  0  0  0  0  0  0  0  0  0
   11.6529  -18.4116   24.6772 C   0  0  0  0  0  0  0  0  0  0  0  0
   10.3560  -17.6005   24.8653 C   0  0  0  0  0  0  0  0  0  0  0  0
   10.0755  -16.9854   23.5474 C   0  0  0  0  0  0  0  0  0  0  0  0
    8.8480  -16.1406   23.4302 C   0  0  2  0  0  0  0  0  0  0  0  0
    8.8694  -15.6567   22.0280 N   0  0  0  0  0  0  0  0  0  0  0  0
    8.8514  -14.9419   24.2993 C   0  0  0  0  0  0  0  0  0  0  0  0
    9.5861  -13.9323   24.0363 O   0  0  0  0  0  0  0  0  0  0  0  0
   11.3102  -22.1954   25.7488 C   0  0  0  0  0  0  0  0  0  0  0  0
    6.7369  -12.0004   27.4404 C   0  0  2  0  0  0  0  0  0  0  0  0
    6.7291  -13.1223   26.4507 O   0  0  0  0  0  0  0  0  0  0  0  0
    6.4029  -12.6174   25.1765 C   0  0  1  0  0  0  0  0  0  0  0  0
    8.1470  -13.6874   26.3452 N   0  0  0  0  0  0  0  0  0  0  0  0
    8.0555  -14.8418   25.4481 C   0  0  0  0  0  0  0  0  0  0  0  0
    8.6625  -14.0842   27.6672 O   0  0  0  0  0  0  0  0  0  0  0  0
    8.7993  -15.2958   27.9548 O   0  0  0  0  0  0  0  0  0  0  0  0
  2  1  1  6
  3  2  1  0
  4  3  1  0
  4  5  1  0
  6  5  1  0
  7  6  1  0
  8  2  1  0
  8  9  2  0
 10 11  1  0
 11 12  2  0
 11 13  1  0
 13 14  1  0
 14 15  1  0
 15 16  1  0
 17 16  1  1
 17 18  1  0
 18  8  1  0
 19 17  1  0
 20 19  2  0
 22 21  1  1
 22 23  1  0
 22 24  1  0
 24 26  1  0
 24 25  1  1
 25 19  1  0
 26 28  1  0
 27 26  2  0
M  END
$$$$
