PDI.pdb
     RDKit          3D

 24 24  0  0  1  0  0  0  0  0999 V2000
    7.3530  -14.8738   19.3095 N   0  0  0  0  0  0  0  0  0  0  0  0
    7.0674  -13.9411   18.2338 C   0  0  0  0  0  0  0  0  0  0  0  0
    7.8634  -12.6891   18.5118 C   0  0  0  0  0  0  0  0  0  0  0  0
    8.4116  -12.9482   19.8983 C   0  0  0  0  0  0  0  0  0  0  0  0
    8.6386  -14.4463   19.8499 C   0  0  1  0  0  0  0  0  0  0  0  0
    8.8576  -15.0126   21.2103 C   0  0  0  0  0  0  0  0  0  0  0  0
    9.8663  -14.6959   21.8925 O   0  0  0  0  0  0  0  0  0  0  0  0
    7.9023  -15.9170   21.7176 N   0  0  0  0  0  0  0  0  0  0  0  0
    7.8522  -16.5640   22.9825 C   0  0  1  0  0  0  0  0  0  0  0  0
    8.0171  -18.0753   22.9659 C   0  0  0  0  0  0  0  0  0  0  0  0
    6.7052  -18.7607   23.1494 C   0  0  0  0  0  0  0  0  0  0  0  0
    5.8578  -18.1993   23.9218 O   0  0  0  0  0  0  0  0  0  0  0  0
    8.5245  -15.8954   24.0929 C   0  0  0  0  0  0  0  0  0  0  0  0
    9.7708  -15.8458   24.1866 O   0  0  0  0  0  0  0  0  0  0  0  0
    6.3477  -19.9360   22.5557 O   0  0  0  0  0  0  0  0  0  0  0  0
    5.8061  -11.7194   26.1313 C   0  0  0  0  0  0  0  0  0  0  0  0
    6.8442  -12.6232   25.5294 C   0  0  0  0  0  0  0  0  0  0  0  0
    7.5062  -13.3979   26.6595 C   0  0  2  0  0  0  0  0  0  0  0  0
    8.3527  -12.4199   27.4431 C   0  0  0  0  0  0  0  0  0  0  0  0
    8.4374  -14.4542   26.0884 C   0  0  2  0  0  0  0  0  0  0  0  0
    7.7575  -15.2735   25.1117 N   0  0  0  0  0  0  0  0  0  0  0  0
    9.0838  -15.2634   27.1421 C   0  0  0  0  0  0  0  0  0  0  0  0
   10.2425  -14.7741   27.7322 O   0  0  0  0  0  0  0  0  0  0  0  0
    8.6285  -16.3662   27.5205 O   0  0  0  0  0  0  0  0  0  0  0  0
  1  5  1  0
  1  2  1  0
  2  3  1  0
  4  5  1  0
  4  3  1  0
  6  7  2  0
  5  6  1  1
  8  6  1  0
  9 13  1  0
  9  8  1  0
  9 10  1  6
 11 10  1  0
 12 11  2  0
 13 21  1  0
 14 13  2  0
 15 11  1  0
 16 17  1  0
 18 17  1  0
 18 20  1  0
 18 19  1  1
 20 22  1  0
 20 21  1  6
 22 24  2  0
 22 23  1  0
M  END
$$$$
