PDI.pdb
     RDKit          3D

 24 24  0  0  1  0  0  0  0  0999 V2000
    8.8971  -14.8459   18.9476 N   0  0  0  0  0  0  0  0  0  0  0  0
    8.5280  -14.3219   17.6445 C   0  0  0  0  0  0  0  0  0  0  0  0
    7.5024  -13.2393   17.8782 C   0  0  0  0  0  0  0  0  0  0  0  0
    7.2084  -13.3774   19.3563 C   0  0  0  0  0  0  0  0  0  0  0  0
    8.5682  -13.7826   19.8903 C   0  0  1  0  0  0  0  0  0  0  0  0
    8.4765  -14.3138   21.2790 C   0  0  0  0  0  0  0  0  0  0  0  0
    8.0290  -13.6062   22.2184 O   0  0  0  0  0  0  0  0  0  0  0  0
    8.9057  -15.6356   21.5169 N   0  0  0  0  0  0  0  0  0  0  0  0
    8.8836  -16.3904   22.7214 C   0  0  1  0  0  0  0  0  0  0  0  0
    9.3891  -17.8208   22.6219 C   0  0  0  0  0  0  0  0  0  0  0  0
    9.2390  -18.5351   23.9225 C   0  0  0  0  0  0  0  0  0  0  0  0
    8.0564  -18.6546   24.3883 O   0  0  0  0  0  0  0  0  0  0  0  0
    9.2768  -15.6948   23.9435 C   0  0  0  0  0  0  0  0  0  0  0  0
   10.4390  -15.2698   24.1256 O   0  0  0  0  0  0  0  0  0  0  0  0
   10.2670  -19.0662   24.6456 O   0  0  0  0  0  0  0  0  0  0  0  0
    5.9489  -12.0844   25.8695 C   0  0  0  0  0  0  0  0  0  0  0  0
    7.0935  -12.9325   25.3926 C   0  0  0  0  0  0  0  0  0  0  0  0
    7.5668  -13.7846   26.5612 C   0  0  2  0  0  0  0  0  0  0  0  0
    8.1128  -12.8458   27.6137 C   0  0  0  0  0  0  0  0  0  0  0  0
    8.7060  -14.6869   26.1173 C   0  0  2  0  0  0  0  0  0  0  0  0
    8.3239  -15.4820   24.9730 N   0  0  0  0  0  0  0  0  0  0  0  0
    9.2305  -15.5158   27.2222 C   0  0  0  0  0  0  0  0  0  0  0  0
    8.6216  -16.7386   27.4760 O   0  0  0  0  0  0  0  0  0  0  0  0
   10.1971  -15.1595   27.9329 O   0  0  0  0  0  0  0  0  0  0  0  0
  1  5  1  0
  1  2  1  0
  2  3  1  0
  4  5  1  0
  4  3  1  0
  6  7  2  0
  5  6  1  1
  8  6  1  0
  9 13  1  0
  9  8  1  0
  9 10  1  6
 11 10  1  0
 12 11  2  0
 13 21  1  0
 14 13  2  0
 15 11  1  0
 16 17  1  0
 18 17  1  0
 18 20  1  0
 18 19  1  1
 20 22  1  0
 20 21  1  6
 22 24  2  0
 22 23  1  0
M  END
$$$$
