PDI.pdb
     RDKit          3D

 24 24  0  0  1  0  0  0  0  0999 V2000
    8.5851  -14.7466   18.7705 N   0  0  0  0  0  0  0  0  0  0  0  0
    8.2524  -14.1064   17.5103 C   0  0  0  0  0  0  0  0  0  0  0  0
    7.4885  -12.8477   17.8426 C   0  0  0  0  0  0  0  0  0  0  0  0
    7.2641  -12.9822   19.3331 C   0  0  0  0  0  0  0  0  0  0  0  0
    8.5413  -13.6774   19.7616 C   0  0  1  0  0  0  0  0  0  0  0  0
    8.4278  -14.2341   21.1387 C   0  0  0  0  0  0  0  0  0  0  0  0
    8.0053  -13.5304   22.0925 O   0  0  0  0  0  0  0  0  0  0  0  0
    8.8075  -15.5756   21.3489 N   0  0  0  0  0  0  0  0  0  0  0  0
    8.7321  -16.3620   22.5308 C   0  0  1  0  0  0  0  0  0  0  0  0
    9.1116  -17.8268   22.3829 C   0  0  0  0  0  0  0  0  0  0  0  0
    8.7899  -18.3295   21.0161 C   0  0  0  0  0  0  0  0  0  0  0  0
    7.5579  -18.5186   20.7401 O   0  0  0  0  0  0  0  0  0  0  0  0
    9.1954  -15.7401   23.7680 C   0  0  0  0  0  0  0  0  0  0  0  0
   10.3858  -15.3952   23.9369 O   0  0  0  0  0  0  0  0  0  0  0  0
    9.7105  -18.6000   20.0461 O   0  0  0  0  0  0  0  0  0  0  0  0
    6.0930  -12.1406   26.0674 C   0  0  0  0  0  0  0  0  0  0  0  0
    7.2173  -12.9597   25.5001 C   0  0  0  0  0  0  0  0  0  0  0  0
    7.7001  -13.9114   26.5848 C   0  0  2  0  0  0  0  0  0  0  0  0
    8.3588  -13.0757   27.6595 C   0  0  0  0  0  0  0  0  0  0  0  0
    8.7564  -14.8473   26.0212 C   0  0  2  0  0  0  0  0  0  0  0  0
    8.2811  -15.5093   24.8281 N   0  0  0  0  0  0  0  0  0  0  0  0
    9.2550  -15.8053   27.0294 C   0  0  0  0  0  0  0  0  0  0  0  0
   10.3216  -15.4218   27.8329 O   0  0  0  0  0  0  0  0  0  0  0  0
    8.7549  -16.9419   27.1854 O   0  0  0  0  0  0  0  0  0  0  0  0
  1  5  1  0
  1  2  1  0
  2  3  1  0
  4  5  1  0
  4  3  1  0
  6  7  2  0
  5  6  1  1
  8  6  1  0
  9 13  1  0
  9  8  1  0
  9 10  1  6
 11 10  1  0
 12 11  2  0
 13 21  1  0
 14 13  2  0
 15 11  1  0
 16 17  1  0
 18 17  1  0
 18 20  1  0
 18 19  1  1
 20 22  1  0
 20 21  1  6
 22 24  2  0
 22 23  1  0
M  END
$$$$
