PDI.pdb
     RDKit          3D

 24 24  0  0  1  0  0  0  0  0999 V2000
    8.9320  -14.7442   19.1259 N   0  0  0  0  0  0  0  0  0  0  0  0
    8.5513  -14.2354   17.8202 C   0  0  0  0  0  0  0  0  0  0  0  0
    7.4148  -13.2663   18.0380 C   0  0  0  0  0  0  0  0  0  0  0  0
    7.0917  -13.4613   19.5035 C   0  0  0  0  0  0  0  0  0  0  0  0
    8.4686  -13.7375   20.0743 C   0  0  1  0  0  0  0  0  0  0  0  0
    8.3892  -14.3015   21.4508 C   0  0  0  0  0  0  0  0  0  0  0  0
    7.7621  -13.7043   22.3637 O   0  0  0  0  0  0  0  0  0  0  0  0
    9.0373  -15.5271   21.7076 N   0  0  0  0  0  0  0  0  0  0  0  0
    9.0528  -16.3105   22.8938 C   0  0  1  0  0  0  0  0  0  0  0  0
    9.5764  -17.7305   22.7488 C   0  0  0  0  0  0  0  0  0  0  0  0
   10.3839  -17.8805   21.5039 C   0  0  0  0  0  0  0  0  0  0  0  0
    9.7449  -18.0585   20.4131 O   0  0  0  0  0  0  0  0  0  0  0  0
    9.4630  -15.6383   24.1234 C   0  0  0  0  0  0  0  0  0  0  0  0
   10.5950  -15.1234   24.2573 O   0  0  0  0  0  0  0  0  0  0  0  0
   11.7466  -17.8416   21.4468 O   0  0  0  0  0  0  0  0  0  0  0  0
    6.2782  -12.1024   25.9393 C   0  0  0  0  0  0  0  0  0  0  0  0
    7.4305  -12.9787   25.5381 C   0  0  0  0  0  0  0  0  0  0  0  0
    7.8488  -13.7923   26.7541 C   0  0  2  0  0  0  0  0  0  0  0  0
    8.4323  -12.8293   27.7638 C   0  0  0  0  0  0  0  0  0  0  0  0
    8.9446  -14.7726   26.3703 C   0  0  2  0  0  0  0  0  0  0  0  0
    8.5625  -15.5539   25.2166 N   0  0  0  0  0  0  0  0  0  0  0  0
    9.3628  -15.6215   27.5050 C   0  0  0  0  0  0  0  0  0  0  0  0
   10.3032  -15.1171   28.3947 O   0  0  0  0  0  0  0  0  0  0  0  0
    8.9037  -16.7705   27.6931 O   0  0  0  0  0  0  0  0  0  0  0  0
  1  5  1  0
  1  2  1  0
  2  3  1  0
  4  5  1  0
  4  3  1  0
  6  7  2  0
  5  6  1  1
  8  6  1  0
  9 13  1  0
  9  8  1  0
  9 10  1  6
 11 10  1  0
 12 11  2  0
 13 21  1  0
 14 13  2  0
 15 11  1  0
 16 17  1  0
 18 17  1  0
 18 20  1  0
 18 19  1  1
 20 22  1  0
 20 21  1  6
 22 24  2  0
 22 23  1  0
M  END
$$$$
