PDI.pdb
     RDKit          3D

 24 24  0  0  1  0  0  0  0  0999 V2000
    9.3022  -13.8228   19.4467 N   0  0  0  0  0  0  0  0  0  0  0  0
    9.8305  -13.4091   18.1589 C   0  0  0  0  0  0  0  0  0  0  0  0
    8.7725  -13.7179   17.1276 C   0  0  0  0  0  0  0  0  0  0  0  0
    7.7550  -14.5050   17.9248 C   0  0  0  0  0  0  0  0  0  0  0  0
    7.8534  -13.8280   19.2776 C   0  0  1  0  0  0  0  0  0  0  0  0
    7.1972  -14.6347   20.3443 C   0  0  0  0  0  0  0  0  0  0  0  0
    6.2156  -15.3787   20.0867 O   0  0  0  0  0  0  0  0  0  0  0  0
    7.7051  -14.5441   21.6564 N   0  0  0  0  0  0  0  0  0  0  0  0
    8.2321  -15.5644   22.4943 C   0  0  1  0  0  0  0  0  0  0  0  0
    9.0460  -16.6444   21.7994 C   0  0  0  0  0  0  0  0  0  0  0  0
    9.5080  -17.6774   22.7711 C   0  0  0  0  0  0  0  0  0  0  0  0
    8.6192  -18.4447   23.2719 O   0  0  0  0  0  0  0  0  0  0  0  0
    8.7637  -15.1466   23.7885 C   0  0  0  0  0  0  0  0  0  0  0  0
    9.9777  -15.2424   24.0743 O   0  0  0  0  0  0  0  0  0  0  0  0
   10.8027  -17.8602   23.1606 O   0  0  0  0  0  0  0  0  0  0  0  0
    5.5329  -12.0754   27.3115 C   0  0  0  0  0  0  0  0  0  0  0  0
    6.2256  -13.2645   26.7090 C   0  0  0  0  0  0  0  0  0  0  0  0
    7.6910  -12.9053   26.5112 C   0  0  2  0  0  0  0  0  0  0  0  0
    7.7553  -11.8425   25.4372 C   0  0  0  0  0  0  0  0  0  0  0  0
    8.4578  -14.1153   26.0043 C   0  0  2  0  0  0  0  0  0  0  0  0
    7.8915  -14.6102   24.7706 N   0  0  0  0  0  0  0  0  0  0  0  0
    8.5777  -15.1745   27.0273 C   0  0  0  0  0  0  0  0  0  0  0  0
    9.2694  -14.8865   28.1972 O   0  0  0  0  0  0  0  0  0  0  0  0
    8.0818  -16.3141   26.8797 O   0  0  0  0  0  0  0  0  0  0  0  0
  1  5  1  0
  1  2  1  0
  2  3  1  0
  4  5  1  0
  4  3  1  0
  6  7  2  0
  5  6  1  1
  8  6  1  0
  9 13  1  0
  9  8  1  0
  9 10  1  6
 11 10  1  0
 12 11  2  0
 13 21  1  0
 14 13  2  0
 15 11  1  0
 16 17  1  0
 18 17  1  0
 18 20  1  0
 18 19  1  6
 20 22  1  0
 20 21  1  6
 22 24  2  0
 22 23  1  0
M  END
$$$$
