PDI.pdb
     RDKit          3D

 24 24  0  0  1  0  0  0  0  0999 V2000
    8.8123  -14.8393   18.4810 N   0  0  0  0  0  0  0  0  0  0  0  0
    8.6103  -14.2524   17.1682 C   0  0  0  0  0  0  0  0  0  0  0  0
    7.7858  -13.0035   17.3650 C   0  0  0  0  0  0  0  0  0  0  0  0
    7.3969  -13.0918   18.8248 C   0  0  0  0  0  0  0  0  0  0  0  0
    8.6326  -13.7377   19.4200 C   0  0  1  0  0  0  0  0  0  0  0  0
    8.3762  -14.2489   20.7956 C   0  0  0  0  0  0  0  0  0  0  0  0
    7.9815  -13.4821   21.7118 O   0  0  0  0  0  0  0  0  0  0  0  0
    8.5878  -15.6199   21.0475 N   0  0  0  0  0  0  0  0  0  0  0  0
    8.4456  -16.3488   22.2597 C   0  0  1  0  0  0  0  0  0  0  0  0
    8.7360  -17.8391   22.1801 C   0  0  0  0  0  0  0  0  0  0  0  0
    8.5363  -18.4966   23.5039 C   0  0  0  0  0  0  0  0  0  0  0  0
    9.3165  -18.1465   24.4516 O   0  0  0  0  0  0  0  0  0  0  0  0
    8.9274  -15.7041   23.4780 C   0  0  0  0  0  0  0  0  0  0  0  0
   10.1212  -15.3606   23.6245 O   0  0  0  0  0  0  0  0  0  0  0  0
    7.5866  -19.4384   23.7733 O   0  0  0  0  0  0  0  0  0  0  0  0
    6.8120  -11.3427   26.8999 C   0  0  0  0  0  0  0  0  0  0  0  0
    7.8496  -12.4244   26.7988 C   0  0  0  0  0  0  0  0  0  0  0  0
    7.3593  -13.4541   25.7914 C   0  0  2  0  0  0  0  0  0  0  0  0
    6.1501  -14.1350   26.3925 C   0  0  0  0  0  0  0  0  0  0  0  0
    8.4236  -14.5173   25.5767 C   0  0  2  0  0  0  0  0  0  0  0  0
    8.0279  -15.4482   24.5449 N   0  0  0  0  0  0  0  0  0  0  0  0
    8.7966  -15.2016   26.8319 C   0  0  0  0  0  0  0  0  0  0  0  0
    8.5317  -16.5606   26.9462 O   0  0  0  0  0  0  0  0  0  0  0  0
    9.3392  -14.6059   27.7895 O   0  0  0  0  0  0  0  0  0  0  0  0
  1  5  1  0
  1  2  1  0
  2  3  1  0
  4  5  1  0
  4  3  1  0
  6  7  2  0
  5  6  1  1
  8  6  1  0
  9 13  1  0
  9  8  1  0
  9 10  1  6
 11 10  1  0
 12 11  2  0
 13 21  1  0
 14 13  2  0
 15 11  1  0
 16 17  1  0
 18 17  1  0
 18 20  1  0
 18 19  1  1
 20 22  1  0
 20 21  1  6
 22 24  2  0
 22 23  1  0
M  END
$$$$
