PDI.pdb
     RDKit          3D

 24 24  0  0  1  0  0  0  0  0999 V2000
    8.4944  -15.0510   18.4574 N   0  0  0  0  0  0  0  0  0  0  0  0
    8.1857  -14.4457   17.1740 C   0  0  0  0  0  0  0  0  0  0  0  0
    7.6228  -13.0740   17.4566 C   0  0  0  0  0  0  0  0  0  0  0  0
    7.4632  -13.0869   18.9615 C   0  0  0  0  0  0  0  0  0  0  0  0
    8.6531  -13.9296   19.3765 C   0  0  1  0  0  0  0  0  0  0  0  0
    8.5386  -14.3821   20.7912 C   0  0  0  0  0  0  0  0  0  0  0  0
    8.5430  -13.5568   21.7409 O   0  0  0  0  0  0  0  0  0  0  0  0
    8.4246  -15.7649   21.0416 N   0  0  0  0  0  0  0  0  0  0  0  0
    8.1772  -16.4448   22.2654 C   0  0  1  0  0  0  0  0  0  0  0  0
    8.3644  -17.9534   22.2403 C   0  0  0  0  0  0  0  0  0  0  0  0
    7.9133  -18.5718   23.5204 C   0  0  0  0  0  0  0  0  0  0  0  0
    8.8125  -18.8423   24.3852 O   0  0  0  0  0  0  0  0  0  0  0  0
    8.6488  -15.7981   23.4866 C   0  0  0  0  0  0  0  0  0  0  0  0
    9.8649  -15.6305   23.7267 O   0  0  0  0  0  0  0  0  0  0  0  0
    6.6182  -18.8672   23.8318 O   0  0  0  0  0  0  0  0  0  0  0  0
    6.9908  -11.1101   26.7990 C   0  0  0  0  0  0  0  0  0  0  0  0
    7.8481  -12.3427   26.7471 C   0  0  0  0  0  0  0  0  0  0  0  0
    7.2973  -13.2537   25.6598 C   0  0  2  0  0  0  0  0  0  0  0  0
    5.9334  -13.7250   26.1125 C   0  0  0  0  0  0  0  0  0  0  0  0
    8.1809  -14.4815   25.5150 C   0  0  2  0  0  0  0  0  0  0  0  0
    7.7132  -15.3357   24.4477 N   0  0  0  0  0  0  0  0  0  0  0  0
    8.3381  -15.2148   26.7879 C   0  0  0  0  0  0  0  0  0  0  0  0
    9.1466  -14.6611   27.7728 O   0  0  0  0  0  0  0  0  0  0  0  0
    7.7730  -16.3092   27.0103 O   0  0  0  0  0  0  0  0  0  0  0  0
  1  5  1  0
  1  2  1  0
  2  3  1  0
  4  5  1  0
  4  3  1  0
  6  7  2  0
  5  6  1  1
  8  6  1  0
  9 13  1  0
  9  8  1  0
  9 10  1  6
 11 10  1  0
 12 11  2  0
 13 21  1  0
 14 13  2  0
 15 11  1  0
 16 17  1  0
 18 17  1  0
 18 20  1  0
 18 19  1  1
 20 22  1  0
 20 21  1  6
 22 24  2  0
 22 23  1  0
M  END
$$$$
