PDI.pdb
     RDKit          3D

 24 24  0  0  1  0  0  0  0  0999 V2000
    8.7824  -14.7457   18.6870 N   0  0  0  0  0  0  0  0  0  0  0  0
    8.2818  -14.1549   17.4585 C   0  0  0  0  0  0  0  0  0  0  0  0
    7.3109  -13.0692   17.8543 C   0  0  0  0  0  0  0  0  0  0  0  0
    7.1798  -13.2727   19.3481 C   0  0  0  0  0  0  0  0  0  0  0  0
    8.5818  -13.7235   19.7079 C   0  0  1  0  0  0  0  0  0  0  0  0
    8.6339  -14.3185   21.0726 C   0  0  0  0  0  0  0  0  0  0  0  0
    8.1311  -13.7243   22.0613 O   0  0  0  0  0  0  0  0  0  0  0  0
    9.2636  -15.5700   21.2306 N   0  0  0  0  0  0  0  0  0  0  0  0
    9.4657  -16.3379   22.4098 C   0  0  1  0  0  0  0  0  0  0  0  0
   10.3350  -17.5762   22.2589 C   0  0  0  0  0  0  0  0  0  0  0  0
    9.8904  -18.4067   21.1026 C   0  0  0  0  0  0  0  0  0  0  0  0
   10.6822  -18.4867   20.1044 O   0  0  0  0  0  0  0  0  0  0  0  0
    9.6785  -15.5984   23.6507 C   0  0  0  0  0  0  0  0  0  0  0  0
   10.7160  -14.9325   23.8617 O   0  0  0  0  0  0  0  0  0  0  0  0
    8.7070  -19.0823   21.0349 O   0  0  0  0  0  0  0  0  0  0  0  0
    6.8799  -11.7159   26.9822 C   0  0  0  0  0  0  0  0  0  0  0  0
    7.9636  -12.7558   27.0152 C   0  0  0  0  0  0  0  0  0  0  0  0
    7.7179  -13.7281   25.8707 C   0  0  2  0  0  0  0  0  0  0  0  0
    6.4412  -14.4774   26.1799 C   0  0  0  0  0  0  0  0  0  0  0  0
    8.8428  -14.7477   25.8059 C   0  0  2  0  0  0  0  0  0  0  0  0
    8.6873  -15.6214   24.6656 N   0  0  0  0  0  0  0  0  0  0  0  0
    8.9936  -15.5001   27.0684 C   0  0  0  0  0  0  0  0  0  0  0  0
    8.7576  -16.8692   27.0528 O   0  0  0  0  0  0  0  0  0  0  0  0
    9.3244  -14.9531   28.1444 O   0  0  0  0  0  0  0  0  0  0  0  0
  1  5  1  0
  1  2  1  0
  2  3  1  0
  4  5  1  0
  4  3  1  0
  6  7  2  0
  5  6  1  1
  8  6  1  0
  9 13  1  0
  9  8  1  0
  9 10  1  6
 11 10  1  0
 12 11  2  0
 13 21  1  0
 14 13  2  0
 15 11  1  0
 16 17  1  0
 18 17  1  0
 18 20  1  0
 18 19  1  1
 20 22  1  0
 20 21  1  6
 22 24  2  0
 22 23  1  0
M  END
$$$$
