PDI.pdb
     RDKit          3D

 24 24  0  0  1  0  0  0  0  0999 V2000
    8.6811  -14.8317   18.7765 N   0  0  0  0  0  0  0  0  0  0  0  0
    8.3665  -14.2406   17.4879 C   0  0  0  0  0  0  0  0  0  0  0  0
    7.5594  -12.9943   17.7590 C   0  0  0  0  0  0  0  0  0  0  0  0
    7.2969  -13.0886   19.2464 C   0  0  0  0  0  0  0  0  0  0  0  0
    8.5802  -13.7338   19.7314 C   0  0  1  0  0  0  0  0  0  0  0  0
    8.4433  -14.2503   21.1220 C   0  0  0  0  0  0  0  0  0  0  0  0
    8.0549  -13.5046   22.0581 O   0  0  0  0  0  0  0  0  0  0  0  0
    8.7613  -15.6022   21.3653 N   0  0  0  0  0  0  0  0  0  0  0  0
    8.7086  -16.3389   22.5800 C   0  0  1  0  0  0  0  0  0  0  0  0
    9.1128  -17.8019   22.4912 C   0  0  0  0  0  0  0  0  0  0  0  0
    8.8091  -18.3619   21.1426 C   0  0  0  0  0  0  0  0  0  0  0  0
    9.7719  -18.4219   20.3065 O   0  0  0  0  0  0  0  0  0  0  0  0
    9.1702  -15.6572   23.7859 C   0  0  0  0  0  0  0  0  0  0  0  0
   10.3276  -15.1945   23.8900 O   0  0  0  0  0  0  0  0  0  0  0  0
    7.5852  -18.8115   20.7407 O   0  0  0  0  0  0  0  0  0  0  0  0
    6.1294  -12.0079   25.9984 C   0  0  0  0  0  0  0  0  0  0  0  0
    7.2424  -12.8620   25.4613 C   0  0  0  0  0  0  0  0  0  0  0  0
    7.6648  -13.8289   26.5578 C   0  0  2  0  0  0  0  0  0  0  0  0
    8.2636  -13.0085   27.6783 C   0  0  0  0  0  0  0  0  0  0  0  0
    8.7503  -14.7579   26.0402 C   0  0  2  0  0  0  0  0  0  0  0  0
    8.2923  -15.5024   24.8898 N   0  0  0  0  0  0  0  0  0  0  0  0
    9.2875  -15.6394   27.0972 C   0  0  0  0  0  0  0  0  0  0  0  0
    8.9971  -16.9966   27.0350 O   0  0  0  0  0  0  0  0  0  0  0  0
    9.9902  -15.2112   28.0402 O   0  0  0  0  0  0  0  0  0  0  0  0
  1  5  1  0
  1  2  1  0
  2  3  1  0
  4  5  1  0
  4  3  1  0
  6  7  2  0
  5  6  1  1
  8  6  1  0
  9 13  1  0
  9  8  1  0
  9 10  1  6
 11 10  1  0
 12 11  2  0
 13 21  1  0
 14 13  2  0
 15 11  1  0
 16 17  1  0
 18 17  1  0
 18 20  1  0
 18 19  1  1
 20 22  1  0
 20 21  1  6
 22 24  2  0
 22 23  1  0
M  END
$$$$
