PDI.pdb
     RDKit          3D

 24 24  0  0  1  0  0  0  0  0999 V2000
    8.5521  -15.0155   18.7494 N   0  0  0  0  0  0  0  0  0  0  0  0
    8.4553  -14.3538   17.4604 C   0  0  0  0  0  0  0  0  0  0  0  0
    7.7742  -13.0275   17.6949 C   0  0  0  0  0  0  0  0  0  0  0  0
    7.3373  -13.1323   19.1400 C   0  0  0  0  0  0  0  0  0  0  0  0
    8.4737  -13.9415   19.7332 C   0  0  1  0  0  0  0  0  0  0  0  0
    8.1223  -14.4777   21.0779 C   0  0  0  0  0  0  0  0  0  0  0  0
    7.3254  -13.8652   21.8349 O   0  0  0  0  0  0  0  0  0  0  0  0
    8.7074  -15.6945   21.4842 N   0  0  0  0  0  0  0  0  0  0  0  0
    8.5452  -16.4143   22.6993 C   0  0  1  0  0  0  0  0  0  0  0  0
    8.7926  -17.9127   22.6253 C   0  0  0  0  0  0  0  0  0  0  0  0
    8.5025  -18.5699   23.9323 C   0  0  0  0  0  0  0  0  0  0  0  0
    9.4822  -18.7265   24.7356 O   0  0  0  0  0  0  0  0  0  0  0  0
    9.0462  -15.7790   23.9147 C   0  0  0  0  0  0  0  0  0  0  0  0
   10.2535  -15.4906   24.0686 O   0  0  0  0  0  0  0  0  0  0  0  0
    7.2744  -19.0129   24.3288 O   0  0  0  0  0  0  0  0  0  0  0  0
    6.1528  -11.8813   25.9710 C   0  0  0  0  0  0  0  0  0  0  0  0
    7.1943  -12.8311   25.4515 C   0  0  0  0  0  0  0  0  0  0  0  0
    7.6333  -13.7239   26.6029 C   0  0  2  0  0  0  0  0  0  0  0  0
    8.3223  -12.8431   27.6211 C   0  0  0  0  0  0  0  0  0  0  0  0
    8.6517  -14.7396   26.1126 C   0  0  2  0  0  0  0  0  0  0  0  0
    8.1504  -15.4685   24.9703 N   0  0  0  0  0  0  0  0  0  0  0  0
    9.1124  -15.6395   27.1900 C   0  0  0  0  0  0  0  0  0  0  0  0
   10.1267  -15.1975   28.0302 O   0  0  0  0  0  0  0  0  0  0  0  0
    8.6252  -16.7778   27.3727 O   0  0  0  0  0  0  0  0  0  0  0  0
  1  5  1  0
  1  2  1  0
  2  3  1  0
  4  5  1  0
  4  3  1  0
  6  7  2  0
  5  6  1  1
  8  6  1  0
  9 13  1  0
  9  8  1  0
  9 10  1  6
 11 10  1  0
 12 11  2  0
 13 21  1  0
 14 13  2  0
 15 11  1  0
 16 17  1  0
 18 17  1  0
 18 20  1  0
 18 19  1  1
 20 22  1  0
 20 21  1  6
 22 24  2  0
 22 23  1  0
M  END
$$$$
