PDI.pdb
     RDKit          3D

 24 24  0  0  1  0  0  0  0  0999 V2000
    8.4111  -15.1146   18.4266 N   0  0  0  0  0  0  0  0  0  0  0  0
    8.1766  -14.3850   17.1932 C   0  0  0  0  0  0  0  0  0  0  0  0
    7.6633  -13.0190   17.5789 C   0  0  0  0  0  0  0  0  0  0  0  0
    7.4475  -13.1571   19.0704 C   0  0  0  0  0  0  0  0  0  0  0  0
    8.5838  -14.0871   19.4473 C   0  0  1  0  0  0  0  0  0  0  0  0
    8.3975  -14.6568   20.8112 C   0  0  0  0  0  0  0  0  0  0  0  0
    7.4874  -14.2383   21.5726 O   0  0  0  0  0  0  0  0  0  0  0  0
    9.2702  -15.6817   21.2305 N   0  0  0  0  0  0  0  0  0  0  0  0
    9.3169  -16.3792   22.4684 C   0  0  1  0  0  0  0  0  0  0  0  0
   10.0624  -17.7043   22.4599 C   0  0  0  0  0  0  0  0  0  0  0  0
   10.0859  -18.3159   23.8200 C   0  0  0  0  0  0  0  0  0  0  0  0
    9.1930  -19.1901   24.0810 O   0  0  0  0  0  0  0  0  0  0  0  0
    9.5249  -15.5771   23.6705 C   0  0  0  0  0  0  0  0  0  0  0  0
   10.6011  -14.9815   23.8980 O   0  0  0  0  0  0  0  0  0  0  0  0
   10.9862  -18.0106   24.7987 O   0  0  0  0  0  0  0  0  0  0  0  0
    6.6269  -11.6089   27.0048 C   0  0  0  0  0  0  0  0  0  0  0  0
    7.7484  -12.6084   26.9978 C   0  0  0  0  0  0  0  0  0  0  0  0
    7.4989  -13.5876   25.8601 C   0  0  2  0  0  0  0  0  0  0  0  0
    6.2754  -14.3995   26.2221 C   0  0  0  0  0  0  0  0  0  0  0  0
    8.6680  -14.5509   25.7392 C   0  0  2  0  0  0  0  0  0  0  0  0
    8.4841  -15.4546   24.6269 N   0  0  0  0  0  0  0  0  0  0  0  0
    8.9386  -15.2686   27.0020 C   0  0  0  0  0  0  0  0  0  0  0  0
    8.7719  -16.6477   27.0257 O   0  0  0  0  0  0  0  0  0  0  0  0
    9.3103  -14.6837   28.0441 O   0  0  0  0  0  0  0  0  0  0  0  0
  1  5  1  0
  1  2  1  0
  2  3  1  0
  4  5  1  0
  4  3  1  0
  6  7  2  0
  5  6  1  1
  8  6  1  0
  9 13  1  0
  9  8  1  0
  9 10  1  6
 11 10  1  0
 12 11  2  0
 13 21  1  0
 14 13  2  0
 15 11  1  0
 16 17  1  0
 18 17  1  0
 18 20  1  0
 18 19  1  1
 20 22  1  0
 20 21  1  6
 22 24  2  0
 22 23  1  0
M  END
$$$$
