PDI.pdb
     RDKit          3D

 24 24  0  0  1  0  0  0  0  0999 V2000
    8.4908  -15.1510   18.6028 N   0  0  0  0  0  0  0  0  0  0  0  0
    8.5394  -14.7090   17.2204 C   0  0  0  0  0  0  0  0  0  0  0  0
    8.1368  -13.2544   17.2074 C   0  0  0  0  0  0  0  0  0  0  0  0
    7.6760  -13.0272   18.6309 C   0  0  0  0  0  0  0  0  0  0  0  0
    8.6218  -13.9330   19.3946 C   0  0  1  0  0  0  0  0  0  0  0  0
    8.1589  -14.1562   20.7928 C   0  0  0  0  0  0  0  0  0  0  0  0
    8.1309  -13.2148   21.6272 O   0  0  0  0  0  0  0  0  0  0  0  0
    7.7509  -15.4546   21.1608 N   0  0  0  0  0  0  0  0  0  0  0  0
    7.2185  -15.9195   22.3942 C   0  0  1  0  0  0  0  0  0  0  0  0
    6.6195  -17.3169   22.3781 C   0  0  0  0  0  0  0  0  0  0  0  0
    7.6777  -18.3527   22.1996 C   0  0  0  0  0  0  0  0  0  0  0  0
    8.8874  -17.9475   22.1536 O   0  0  0  0  0  0  0  0  0  0  0  0
    7.9754  -15.6010   23.6016 C   0  0  0  0  0  0  0  0  0  0  0  0
    9.2250  -15.6414   23.6366 O   0  0  0  0  0  0  0  0  0  0  0  0
    7.4479  -19.6925   22.0828 O   0  0  0  0  0  0  0  0  0  0  0  0
    5.6629  -11.7923   26.5368 C   0  0  0  0  0  0  0  0  0  0  0  0
    6.6062  -12.6452   25.7370 C   0  0  0  0  0  0  0  0  0  0  0  0
    7.2173  -13.6768   26.6740 C   0  0  2  0  0  0  0  0  0  0  0  0
    8.1518  -12.9417   27.6086 C   0  0  0  0  0  0  0  0  0  0  0  0
    8.0509  -14.6689   25.8803 C   0  0  2  0  0  0  0  0  0  0  0  0
    7.2903  -15.2299   24.7874 N   0  0  0  0  0  0  0  0  0  0  0  0
    8.6493  -15.7133   26.7371 C   0  0  0  0  0  0  0  0  0  0  0  0
    9.8990  -15.4730   27.2947 O   0  0  0  0  0  0  0  0  0  0  0  0
    8.0754  -16.7992   26.9777 O   0  0  0  0  0  0  0  0  0  0  0  0
  1  5  1  0
  1  2  1  0
  2  3  1  0
  4  5  1  0
  4  3  1  0
  6  7  2  0
  5  6  1  1
  8  6  1  0
  9 13  1  0
  9  8  1  0
  9 10  1  6
 11 10  1  0
 12 11  2  0
 13 21  1  0
 14 13  2  0
 15 11  1  0
 16 17  1  0
 18 17  1  0
 18 20  1  0
 18 19  1  1
 20 22  1  0
 20 21  1  6
 22 24  2  0
 22 23  1  0
M  END
$$$$
