PDI.pdb
     RDKit          3D

 24 24  0  0  1  0  0  0  0  0999 V2000
    9.1344  -14.3697   19.2030 N   0  0  0  0  0  0  0  0  0  0  0  0
    8.5295  -13.7298   18.0483 C   0  0  0  0  0  0  0  0  0  0  0  0
    7.2220  -13.1327   18.5089 C   0  0  0  0  0  0  0  0  0  0  0  0
    7.0865  -13.6795   19.9134 C   0  0  0  0  0  0  0  0  0  0  0  0
    8.5354  -13.7107   20.3582 C   0  0  1  0  0  0  0  0  0  0  0  0
    8.7143  -14.5305   21.5891 C   0  0  0  0  0  0  0  0  0  0  0  0
    8.1213  -14.2360   22.6591 O   0  0  0  0  0  0  0  0  0  0  0  0
    9.5687  -15.6503   21.5260 N   0  0  0  0  0  0  0  0  0  0  0  0
    9.8563  -16.6252   22.5199 C   0  0  1  0  0  0  0  0  0  0  0  0
   10.5280  -17.8985   22.0310 C   0  0  0  0  0  0  0  0  0  0  0  0
   10.7290  -18.8635   23.1503 C   0  0  0  0  0  0  0  0  0  0  0  0
    9.6838  -19.3910   23.6592 O   0  0  0  0  0  0  0  0  0  0  0  0
   10.3539  -16.1341   23.8018 C   0  0  0  0  0  0  0  0  0  0  0  0
   11.4478  -15.5372   23.9092 O   0  0  0  0  0  0  0  0  0  0  0  0
   11.9406  -19.2206   23.6662 O   0  0  0  0  0  0  0  0  0  0  0  0
    9.2232  -12.5297   28.0340 C   0  0  0  0  0  0  0  0  0  0  0  0
    9.8983  -13.8536   27.8144 C   0  0  0  0  0  0  0  0  0  0  0  0
    9.3363  -14.4625   26.5380 C   0  0  2  0  0  0  0  0  0  0  0  0
    7.8867  -14.8045   26.8001 C   0  0  0  0  0  0  0  0  0  0  0  0
   10.0619  -15.7589   26.2186 C   0  0  2  0  0  0  0  0  0  0  0  0
    9.5863  -16.3290   24.9790 N   0  0  0  0  0  0  0  0  0  0  0  0
   10.0051  -16.7252   27.3348 C   0  0  0  0  0  0  0  0  0  0  0  0
   10.7318  -16.4469   28.4858 O   0  0  0  0  0  0  0  0  0  0  0  0
    9.3305  -17.7780   27.2820 O   0  0  0  0  0  0  0  0  0  0  0  0
  1  5  1  0
  1  2  1  0
  2  3  1  0
  4  5  1  0
  4  3  1  0
  6  7  2  0
  5  6  1  1
  8  6  1  0
  9 13  1  0
  9  8  1  0
  9 10  1  6
 11 10  1  0
 12 11  2  0
 13 21  1  0
 14 13  2  0
 15 11  1  0
 16 17  1  0
 18 17  1  0
 18 20  1  0
 18 19  1  1
 20 22  1  0
 20 21  1  6
 22 24  2  0
 22 23  1  0
M  END
$$$$
