VCH.pdb
     RDKit          3D

 24 24  0  0  1  0  0  0  0  0999 V2000
   27.4775  -20.1976  -17.1592 C   0  0  0  0  0  0  0  0  0  0  0  0
   26.2539  -20.5535  -16.3480 C   0  0  2  0  0  0  0  0  0  0  0  0
   25.3182  -19.4087  -16.1494 C   0  0  0  0  0  0  0  0  0  0  0  0
   26.7443  -21.1508  -15.0378 C   0  0  2  0  0  0  0  0  0  0  0  0
   27.5974  -22.2454  -15.3770 N   0  0  0  0  0  0  0  0  0  0  0  0
   25.6334  -21.5235  -14.1422 C   0  0  0  0  0  0  0  0  0  0  0  0
   24.9068  -22.4904  -14.4487 O   0  0  0  0  0  0  0  0  0  0  0  0
   25.3585  -20.8236  -12.9432 N   0  0  0  0  0  0  0  0  0  0  0  0
   24.3174  -21.2772  -12.0538 C   0  0  1  0  0  0  0  0  0  0  0  0
   24.5561  -20.5688  -10.7187 C   0  0  0  0  0  0  0  0  0  0  0  0
   26.0877  -21.1814   -9.9695 S   0  0  0  0  0  0  0  0  0  0  0  0
   23.0118  -20.8445  -12.5494 C   0  0  0  0  0  0  0  0  0  0  0  0
   22.7613  -19.6052  -12.6082 O   0  0  0  0  0  0  0  0  0  0  0  0
   22.0755  -21.8277  -12.9452 N   0  0  0  0  0  0  0  0  0  0  0  0
   20.7973  -21.4216  -13.4639 C   0  0  1  0  0  0  0  0  0  0  0  0
   20.4110  -22.4592  -14.5092 C   0  0  0  0  0  0  0  0  0  0  0  0
   19.1244  -22.0302  -15.1321 C   0  0  0  0  0  0  0  0  0  0  0  0
   18.4398  -20.8739  -14.8506 C   0  0  0  0  0  0  0  0  0  0  0  0
   17.3423  -20.8557  -15.6116 N   0  0  0  0  0  0  0  0  0  0  0  0
   17.3326  -21.9757  -16.3580 C   0  0  0  0  0  0  0  0  0  0  0  0
   18.4230  -22.6947  -16.0650 N   0  0  0  0  0  0  0  0  0  0  0  0
   19.8247  -21.3749  -12.3606 C   0  0  0  0  0  0  0  0  0  0  0  0
   18.8192  -20.4270  -12.3358 O   0  0  0  0  0  0  0  0  0  0  0  0
   19.9033  -22.1984  -11.4330 O   0  0  0  0  0  0  0  0  0  0  0  0
  2  3  1  1
  2  1  1  0
  4  2  1  0
  4  5  1  6
  6  8  1  0
  6  4  1  0
  7  6  2  0
  9  8  1  0
  9 12  1  0
  9 10  1  1
 11 10  1  0
 12 14  1  0
 13 12  2  0
 14 15  1  0
 15 16  1  6
 15 22  1  0
 17 16  1  0
 18 17  2  0
 19 20  1  0
 19 18  1  0
 20 21  2  0
 21 17  1  0
 22 24  2  0
 22 23  1  0
M  END
$$$$
