VCH.pdb
     RDKit          3D

 24 24  0  0  1  0  0  0  0  0999 V2000
   20.1200  -14.7700  -19.4121 C   0  0  0  0  0  0  0  0  0  0  0  0
   19.8781  -13.4062  -18.8094 C   0  0  2  0  0  0  0  0  0  0  0  0
   20.3258  -12.2822  -19.6821 C   0  0  0  0  0  0  0  0  0  0  0  0
   20.5462  -13.3964  -17.4429 C   0  0  2  0  0  0  0  0  0  0  0  0
   20.1118  -14.5752  -16.7627 N   0  0  0  0  0  0  0  0  0  0  0  0
   20.2783  -12.1521  -16.6978 C   0  0  0  0  0  0  0  0  0  0  0  0
   19.1325  -11.9515  -16.2463 O   0  0  0  0  0  0  0  0  0  0  0  0
   21.2750  -11.1725  -16.4742 N   0  0  0  0  0  0  0  0  0  0  0  0
   20.9624   -9.9620  -15.7548 C   0  0  1  0  0  0  0  0  0  0  0  0
   21.9773   -9.8681  -14.6134 C   0  0  0  0  0  0  0  0  0  0  0  0
   21.5948   -8.4337  -13.5749 S   0  0  0  0  0  0  0  0  0  0  0  0
   21.1679   -8.7996  -16.6173 C   0  0  0  0  0  0  0  0  0  0  0  0
   22.1921   -8.7642  -17.3602 O   0  0  0  0  0  0  0  0  0  0  0  0
   20.2136   -7.7562  -16.5900 N   0  0  0  0  0  0  0  0  0  0  0  0
   20.4327   -6.5740  -17.3787 C   0  0  1  0  0  0  0  0  0  0  0  0
   19.1390   -6.3231  -18.1413 C   0  0  0  0  0  0  0  0  0  0  0  0
   18.9920   -7.3970  -19.1672 C   0  0  0  0  0  0  0  0  0  0  0  0
   18.0682   -8.4124  -19.1432 C   0  0  0  0  0  0  0  0  0  0  0  0
   18.2597   -9.1621  -20.2318 N   0  0  0  0  0  0  0  0  0  0  0  0
   19.2819   -8.6329  -20.9293 C   0  0  0  0  0  0  0  0  0  0  0  0
   19.7304   -7.5527  -20.2782 N   0  0  0  0  0  0  0  0  0  0  0  0
   20.7604   -5.4535  -16.4827 C   0  0  0  0  0  0  0  0  0  0  0  0
   21.2742   -4.2703  -16.9790 O   0  0  0  0  0  0  0  0  0  0  0  0
   20.5744   -5.5667  -15.2591 O   0  0  0  0  0  0  0  0  0  0  0  0
  2  3  1  6
  2  1  1  0
  4  2  1  0
  4  5  1  1
  6  8  1  0
  6  4  1  0
  7  6  2  0
  9  8  1  0
  9 12  1  0
  9 10  1  1
 11 10  1  0
 12 14  1  0
 13 12  2  0
 14 15  1  0
 15 16  1  1
 15 22  1  0
 17 16  1  0
 18 17  2  0
 19 20  1  0
 19 18  1  0
 20 21  2  0
 21 17  1  0
 22 24  2  0
 22 23  1  0
M  END
$$$$
