VCH.pdb
     RDKit          3D

 24 24  0  0  1  0  0  0  0  0999 V2000
   18.2455  -15.6556  -18.2539 C   0  0  0  0  0  0  0  0  0  0  0  0
   18.5958  -14.4847  -17.3659 C   0  0  2  0  0  0  0  0  0  0  0  0
   18.3186  -13.1594  -17.9922 C   0  0  0  0  0  0  0  0  0  0  0  0
   20.0513  -14.6531  -16.9574 C   0  0  2  0  0  0  0  0  0  0  0  0
   20.1477  -15.9081  -16.2816 N   0  0  0  0  0  0  0  0  0  0  0  0
   20.5444  -13.5141  -16.1608 C   0  0  0  0  0  0  0  0  0  0  0  0
   20.1563  -13.3867  -14.9818 O   0  0  0  0  0  0  0  0  0  0  0  0
   21.4446  -12.5557  -16.6843 N   0  0  0  0  0  0  0  0  0  0  0  0
   21.8595  -11.4288  -15.8852 C   0  0  1  0  0  0  0  0  0  0  0  0
   23.3513  -11.2327  -16.1634 C   0  0  0  0  0  0  0  0  0  0  0  0
   24.3175  -12.3633  -15.1287 S   0  0  0  0  0  0  0  0  0  0  0  0
   21.1704  -10.2186  -16.3302 C   0  0  0  0  0  0  0  0  0  0  0  0
   20.9828  -10.0438  -17.5697 O   0  0  0  0  0  0  0  0  0  0  0  0
   20.7383   -9.2866  -15.3583 N   0  0  0  0  0  0  0  0  0  0  0  0
   20.1420   -8.0478  -15.7796 C   0  0  1  0  0  0  0  0  0  0  0  0
   18.6524   -8.1700  -15.4894 C   0  0  0  0  0  0  0  0  0  0  0  0
   18.0044   -6.8740  -15.8469 C   0  0  0  0  0  0  0  0  0  0  0  0
   17.6801   -6.4588  -17.1148 C   0  0  0  0  0  0  0  0  0  0  0  0
   17.1198   -5.2505  -17.0161 N   0  0  0  0  0  0  0  0  0  0  0  0
   17.0901   -4.9086  -15.7146 C   0  0  0  0  0  0  0  0  0  0  0  0
   17.6313   -5.9018  -14.9988 N   0  0  0  0  0  0  0  0  0  0  0  0
   20.7525   -6.9408  -15.0262 C   0  0  0  0  0  0  0  0  0  0  0  0
   20.5876   -5.6286  -15.4275 O   0  0  0  0  0  0  0  0  0  0  0  0
   21.4283   -7.1833  -14.0117 O   0  0  0  0  0  0  0  0  0  0  0  0
  2  3  1  6
  2  1  1  0
  4  2  1  0
  4  5  1  1
  6  8  1  0
  6  4  1  0
  7  6  2  0
  9  8  1  0
  9 12  1  0
  9 10  1  6
 11 10  1  0
 12 14  1  0
 13 12  2  0
 14 15  1  0
 15 16  1  1
 15 22  1  0
 17 16  1  0
 18 17  2  0
 19 20  1  0
 19 18  1  0
 20 21  2  0
 21 17  1  0
 22 24  2  0
 22 23  1  0
M  END
$$$$
