VCH.pdb
     RDKit          3D

 24 24  0  0  1  0  0  0  0  0999 V2000
   25.2129  -31.3223   -8.5196 C   0  0  0  0  0  0  0  0  0  0  0  0
   25.6102  -32.7728   -8.6615 C   0  0  2  0  0  0  0  0  0  0  0  0
   26.7879  -32.9826   -9.5528 C   0  0  0  0  0  0  0  0  0  0  0  0
   24.3756  -33.5314   -9.1243 C   0  0  2  0  0  0  0  0  0  0  0  0
   24.1342  -33.1406  -10.4770 N   0  0  0  0  0  0  0  0  0  0  0  0
   23.2204  -33.3175   -8.2327 C   0  0  0  0  0  0  0  0  0  0  0  0
   22.2158  -32.7243   -8.6751 O   0  0  0  0  0  0  0  0  0  0  0  0
   23.2073  -33.7610   -6.8888 N   0  0  0  0  0  0  0  0  0  0  0  0
   21.9578  -33.9566   -6.1952 C   0  0  1  0  0  0  0  0  0  0  0  0
   21.2802  -35.1548   -6.8633 C   0  0  0  0  0  0  0  0  0  0  0  0
   19.7201  -35.5214   -6.0182 S   0  0  0  0  0  0  0  0  0  0  0  0
   22.2100  -34.3197   -4.8017 C   0  0  0  0  0  0  0  0  0  0  0  0
   23.1213  -35.1600   -4.5453 O   0  0  0  0  0  0  0  0  0  0  0  0
   21.4258  -33.7182   -3.7903 N   0  0  0  0  0  0  0  0  0  0  0  0
   21.6822  -34.0354   -2.4114 C   0  0  1  0  0  0  0  0  0  0  0  0
   20.8008  -33.1062   -1.5880 C   0  0  0  0  0  0  0  0  0  0  0  0
   21.1239  -33.3201   -0.1468 C   0  0  0  0  0  0  0  0  0  0  0  0
   22.2307  -33.9688    0.3425 C   0  0  0  0  0  0  0  0  0  0  0  0
   22.1561  -33.9510    1.6759 N   0  0  0  0  0  0  0  0  0  0  0  0
   21.0272  -33.3053    2.0228 C   0  0  0  0  0  0  0  0  0  0  0  0
   20.3952  -32.9191    0.9078 N   0  0  0  0  0  0  0  0  0  0  0  0
   21.3499  -35.4493   -2.1746 C   0  0  0  0  0  0  0  0  0  0  0  0
   22.1138  -36.2291   -1.3269 O   0  0  0  0  0  0  0  0  0  0  0  0
   20.3678  -35.9563   -2.7429 O   0  0  0  0  0  0  0  0  0  0  0  0
  2  3  1  6
  2  1  1  0
  4  2  1  0
  4  5  1  6
  6  8  1  0
  6  4  1  0
  7  6  2  0
  9  8  1  0
  9 12  1  0
  9 10  1  6
 11 10  1  0
 12 14  1  0
 13 12  2  0
 14 15  1  0
 15 16  1  1
 15 22  1  0
 17 16  1  0
 18 17  2  0
 19 20  1  0
 19 18  1  0
 20 21  2  0
 21 17  1  0
 22 24  2  0
 22 23  1  0
M  END
$$$$
