VCH.pdb
     RDKit          3D

 24 24  0  0  1  0  0  0  0  0999 V2000
   22.9839  -14.2854  -18.2611 C   0  0  0  0  0  0  0  0  0  0  0  0
   21.4788  -14.3572  -18.1545 C   0  0  2  0  0  0  0  0  0  0  0  0
   20.8418  -15.1458  -19.2490 C   0  0  0  0  0  0  0  0  0  0  0  0
   20.9670  -12.9266  -18.0812 C   0  0  2  0  0  0  0  0  0  0  0  0
   21.1709  -12.3488  -19.3717 N   0  0  0  0  0  0  0  0  0  0  0  0
   21.5946  -12.1631  -16.9865 C   0  0  0  0  0  0  0  0  0  0  0  0
   21.3516  -12.4863  -15.8060 O   0  0  0  0  0  0  0  0  0  0  0  0
   22.4656  -11.0733  -17.2242 N   0  0  0  0  0  0  0  0  0  0  0  0
   23.1189  -10.4059  -16.1249 C   0  0  1  0  0  0  0  0  0  0  0  0
   24.6131  -10.4005  -16.4543 C   0  0  0  0  0  0  0  0  0  0  0  0
   25.3116  -12.0426  -16.1414 S   0  0  0  0  0  0  0  0  0  0  0  0
   22.6830   -9.0121  -16.0551 C   0  0  0  0  0  0  0  0  0  0  0  0
   23.1831   -8.2598  -15.1685 O   0  0  0  0  0  0  0  0  0  0  0  0
   21.7175   -8.5550  -16.9819 N   0  0  0  0  0  0  0  0  0  0  0  0
   21.2733   -7.1885  -16.9272 C   0  0  1  0  0  0  0  0  0  0  0  0
   20.4168   -6.9676  -18.1665 C   0  0  0  0  0  0  0  0  0  0  0  0
   19.9529   -5.5491  -18.1603 C   0  0  0  0  0  0  0  0  0  0  0  0
   20.7543   -4.4404  -18.0434 C   0  0  0  0  0  0  0  0  0  0  0  0
   19.9659   -3.3630  -18.0806 N   0  0  0  0  0  0  0  0  0  0  0  0
   18.6938   -3.7805  -18.2181 C   0  0  0  0  0  0  0  0  0  0  0  0
   18.6853   -5.1182  -18.2669 N   0  0  0  0  0  0  0  0  0  0  0  0
   20.5016   -6.9841  -15.6909 C   0  0  0  0  0  0  0  0  0  0  0  0
   20.7297   -5.8877  -14.8809 O   0  0  0  0  0  0  0  0  0  0  0  0
   19.6293   -7.8070  -15.3644 O   0  0  0  0  0  0  0  0  0  0  0  0
  2  3  1  6
  2  1  1  0
  4  2  1  0
  4  5  1  6
  6  8  1  0
  6  4  1  0
  7  6  2  0
  9  8  1  0
  9 12  1  0
  9 10  1  6
 11 10  1  0
 12 14  1  0
 13 12  2  0
 14 15  1  0
 15 16  1  6
 15 22  1  0
 17 16  1  0
 18 17  2  0
 19 20  1  0
 19 18  1  0
 20 21  2  0
 21 17  1  0
 22 24  2  0
 22 23  1  0
M  END
$$$$
