VCH.pdb
     RDKit          3D

 24 24  0  0  1  0  0  0  0  0999 V2000
   26.5085  -18.6265  -16.0661 C   0  0  0  0  0  0  0  0  0  0  0  0
   27.7459  -18.6298  -15.1998 C   0  0  2  0  0  0  0  0  0  0  0  0
   28.9230  -17.9754  -15.8413 C   0  0  0  0  0  0  0  0  0  0  0  0
   28.0134  -20.0750  -14.8078 C   0  0  2  0  0  0  0  0  0  0  0  0
   28.2707  -20.7899  -16.0177 N   0  0  0  0  0  0  0  0  0  0  0  0
   26.9178  -20.6490  -14.0044 C   0  0  0  0  0  0  0  0  0  0  0  0
   26.0419  -21.3307  -14.5745 O   0  0  0  0  0  0  0  0  0  0  0  0
   26.8212  -20.4556  -12.6059 N   0  0  0  0  0  0  0  0  0  0  0  0
   25.6989  -20.9845  -11.8701 C   0  0  1  0  0  0  0  0  0  0  0  0
   25.9409  -20.6244  -10.4027 C   0  0  0  0  0  0  0  0  0  0  0  0
   24.4572  -20.9965   -9.4318 S   0  0  0  0  0  0  0  0  0  0  0  0
   24.4674  -20.3152  -12.2857 C   0  0  0  0  0  0  0  0  0  0  0  0
   24.4008  -19.0538  -12.2042 O   0  0  0  0  0  0  0  0  0  0  0  0
   23.3944  -21.1026  -12.7640 N   0  0  0  0  0  0  0  0  0  0  0  0
   22.1997  -20.4591  -13.2398 C   0  0  1  0  0  0  0  0  0  0  0  0
   22.1397  -20.7232  -14.7381 C   0  0  0  0  0  0  0  0  0  0  0  0
   20.9054  -20.0761  -15.2720 C   0  0  0  0  0  0  0  0  0  0  0  0
   19.9619  -19.4079  -14.5314 C   0  0  0  0  0  0  0  0  0  0  0  0
   19.0164  -18.9772  -15.3706 N   0  0  0  0  0  0  0  0  0  0  0  0
   19.3540  -19.3642  -16.6147 C   0  0  0  0  0  0  0  0  0  0  0  0
   20.5099  -20.0367  -16.5549 N   0  0  0  0  0  0  0  0  0  0  0  0
   21.0368  -21.0296  -12.5413 C   0  0  0  0  0  0  0  0  0  0  0  0
   19.8273  -20.3617  -12.5068 O   0  0  0  0  0  0  0  0  0  0  0  0
   21.1375  -22.1294  -11.9713 O   0  0  0  0  0  0  0  0  0  0  0  0
  2  3  1  6
  2  1  1  0
  4  2  1  0
  4  5  1  6
  6  8  1  0
  6  4  1  0
  7  6  2  0
  9  8  1  0
  9 12  1  0
  9 10  1  1
 11 10  1  0
 12 14  1  0
 13 12  2  0
 14 15  1  0
 15 16  1  6
 15 22  1  0
 17 16  1  0
 18 17  2  0
 19 20  1  0
 19 18  1  0
 20 21  2  0
 21 17  1  0
 22 24  2  0
 22 23  1  0
M  END
$$$$
