VCH.pdb
     RDKit          3D

 24 24  0  0  1  0  0  0  0  0999 V2000
   26.3184  -15.3435  -19.7909 C   0  0  0  0  0  0  0  0  0  0  0  0
   25.4844  -14.7394  -18.6857 C   0  0  2  0  0  0  0  0  0  0  0  0
   24.2063  -15.4681  -18.4388 C   0  0  0  0  0  0  0  0  0  0  0  0
   25.2721  -13.2744  -19.0356 C   0  0  2  0  0  0  0  0  0  0  0  0
   26.4974  -12.8028  -19.5988 N   0  0  0  0  0  0  0  0  0  0  0  0
   24.8108  -12.4839  -17.8791 C   0  0  0  0  0  0  0  0  0  0  0  0
   23.7420  -12.7992  -17.3177 O   0  0  0  0  0  0  0  0  0  0  0  0
   25.5369  -11.3768  -17.3792 N   0  0  0  0  0  0  0  0  0  0  0  0
   25.0229  -10.6031  -16.2756 C   0  0  1  0  0  0  0  0  0  0  0  0
   26.2419  -10.1217  -15.4857 C   0  0  0  0  0  0  0  0  0  0  0  0
   27.4266   -9.3392  -16.6112 S   0  0  0  0  0  0  0  0  0  0  0  0
   24.3310   -9.4162  -16.7754 C   0  0  0  0  0  0  0  0  0  0  0  0
   24.3844   -9.1542  -18.0126 O   0  0  0  0  0  0  0  0  0  0  0  0
   23.6266   -8.6034  -15.8571 N   0  0  0  0  0  0  0  0  0  0  0  0
   22.5649   -7.7563  -16.3293 C   0  0  1  0  0  0  0  0  0  0  0  0
   21.5266   -8.6794  -16.9522 C   0  0  0  0  0  0  0  0  0  0  0  0
   20.4452   -7.8316  -17.5346 C   0  0  0  0  0  0  0  0  0  0  0  0
   20.4072   -6.4591  -17.5293 C   0  0  0  0  0  0  0  0  0  0  0  0
   19.2835   -6.0811  -18.1442 N   0  0  0  0  0  0  0  0  0  0  0  0
   18.6249   -7.1897  -18.5301 C   0  0  0  0  0  0  0  0  0  0  0  0
   19.3354   -8.2612  -18.1573 N   0  0  0  0  0  0  0  0  0  0  0  0
   22.0099   -7.0041  -15.1927 C   0  0  0  0  0  0  0  0  0  0  0  0
   21.5762   -5.7005  -15.3438 O   0  0  0  0  0  0  0  0  0  0  0  0
   21.9270   -7.5441  -14.0764 O   0  0  0  0  0  0  0  0  0  0  0  0
  2  3  1  6
  2  1  1  0
  4  2  1  0
  4  5  1  1
  6  8  1  0
  6  4  1  0
  7  6  2  0
  9  8  1  0
  9 12  1  0
  9 10  1  1
 11 10  1  0
 12 14  1  0
 13 12  2  0
 14 15  1  0
 15 16  1  1
 15 22  1  0
 17 16  1  0
 18 17  2  0
 19 20  1  0
 19 18  1  0
 20 21  2  0
 21 17  1  0
 22 24  2  0
 22 23  1  0
M  END
$$$$
