VCH.pdb
     RDKit          3D

 24 24  0  0  1  0  0  0  0  0999 V2000
   22.0876  -11.4607  -15.6450 C   0  0  0  0  0  0  0  0  0  0  0  0
   23.3743  -10.6740  -15.7311 C   0  0  2  0  0  0  0  0  0  0  0  0
   24.4042  -11.1079  -14.7428 C   0  0  0  0  0  0  0  0  0  0  0  0
   23.0090   -9.2035  -15.5977 C   0  0  2  0  0  0  0  0  0  0  0  0
   22.4904   -9.0251  -14.2785 N   0  0  0  0  0  0  0  0  0  0  0  0
   22.0882   -8.7570  -16.6597 C   0  0  0  0  0  0  0  0  0  0  0  0
   22.4963   -8.7181  -17.8382 O   0  0  0  0  0  0  0  0  0  0  0  0
   20.7536   -8.3692  -16.3925 N   0  0  0  0  0  0  0  0  0  0  0  0
   19.9021   -7.8970  -17.4568 C   0  0  1  0  0  0  0  0  0  0  0  0
   18.6128   -8.7164  -17.3692 C   0  0  0  0  0  0  0  0  0  0  0  0
   19.0165  -10.4810  -17.2960 S   0  0  0  0  0  0  0  0  0  0  0  0
   19.5454   -6.4976  -17.2292 C   0  0  0  0  0  0  0  0  0  0  0  0
   19.5043   -6.0636  -16.0409 O   0  0  0  0  0  0  0  0  0  0  0  0
   19.2590   -5.6792  -18.3465 N   0  0  0  0  0  0  0  0  0  0  0  0
   19.0401   -4.2707  -18.1563 C   0  0  1  0  0  0  0  0  0  0  0  0
   20.3109   -3.7226  -17.5215 C   0  0  0  0  0  0  0  0  0  0  0  0
   20.1665   -2.2419  -17.4037 C   0  0  0  0  0  0  0  0  0  0  0  0
   19.2763   -1.5816  -16.5933 C   0  0  0  0  0  0  0  0  0  0  0  0
   19.4579   -0.2707  -16.7729 N   0  0  0  0  0  0  0  0  0  0  0  0
   20.4412   -0.1049  -17.6769 C   0  0  0  0  0  0  0  0  0  0  0  0
   20.8752   -1.3109  -18.0632 N   0  0  0  0  0  0  0  0  0  0  0  0
   18.7727   -3.6462  -19.4617 C   0  0  0  0  0  0  0  0  0  0  0  0
   18.9193   -4.3590  -20.6367 O   0  0  0  0  0  0  0  0  0  0  0  0
   18.4089   -2.4590  -19.5151 O   0  0  0  0  0  0  0  0  0  0  0  0
  2  3  1  1
  2  1  1  0
  4  2  1  0
  4  5  1  1
  6  8  1  0
  6  4  1  0
  7  6  2  0
  9  8  1  0
  9 12  1  0
  9 10  1  1
 11 10  1  0
 12 14  1  0
 13 12  2  0
 14 15  1  0
 15 16  1  6
 15 22  1  0
 17 16  1  0
 18 17  2  0
 19 20  1  0
 19 18  1  0
 20 21  2  0
 21 17  1  0
 22 24  2  0
 22 23  1  0
M  END
$$$$
