VCH.pdb
     RDKit          3D

 24 24  0  0  1  0  0  0  0  0999 V2000
   17.6559  -10.6948  -17.4233 C   0  0  0  0  0  0  0  0  0  0  0  0
   17.7382  -12.1511  -17.0306 C   0  0  2  0  0  0  0  0  0  0  0  0
   17.1178  -12.4462  -15.7064 C   0  0  0  0  0  0  0  0  0  0  0  0
   19.2044  -12.5505  -17.0991 C   0  0  2  0  0  0  0  0  0  0  0  0
   19.2539  -13.9687  -16.9348 N   0  0  0  0  0  0  0  0  0  0  0  0
   20.0312  -11.8139  -16.1249 C   0  0  0  0  0  0  0  0  0  0  0  0
   20.5185  -12.4304  -15.1557 O   0  0  0  0  0  0  0  0  0  0  0  0
   20.2943  -10.4288  -16.2474 N   0  0  0  0  0  0  0  0  0  0  0  0
   21.2662   -9.7906  -15.3938 C   0  0  1  0  0  0  0  0  0  0  0  0
   22.6235  -10.3902  -15.7673 C   0  0  0  0  0  0  0  0  0  0  0  0
   23.9282   -9.5999  -14.7897 S   0  0  0  0  0  0  0  0  0  0  0  0
   21.3266   -8.3595  -15.6864 C   0  0  0  0  0  0  0  0  0  0  0  0
   21.5299   -7.9884  -16.8793 O   0  0  0  0  0  0  0  0  0  0  0  0
   21.1556   -7.4411  -14.6246 N   0  0  0  0  0  0  0  0  0  0  0  0
   21.2093   -6.0294  -14.8924 C   0  0  1  0  0  0  0  0  0  0  0  0
   19.7814   -5.5159  -14.7671 C   0  0  0  0  0  0  0  0  0  0  0  0
   19.7850   -4.0585  -15.0884 C   0  0  0  0  0  0  0  0  0  0  0  0
   19.8534   -3.5114  -16.3458 C   0  0  0  0  0  0  0  0  0  0  0  0
   19.8315   -2.1826  -16.2128 N   0  0  0  0  0  0  0  0  0  0  0  0
   19.7510   -1.8951  -14.9004 C   0  0  0  0  0  0  0  0  0  0  0  0
   19.7225   -3.0427  -14.2119 N   0  0  0  0  0  0  0  0  0  0  0  0
   22.1038   -5.3892  -13.9148 C   0  0  0  0  0  0  0  0  0  0  0  0
   22.6137   -4.1239  -14.1362 O   0  0  0  0  0  0  0  0  0  0  0  0
   22.4094   -5.9909  -12.8711 O   0  0  0  0  0  0  0  0  0  0  0  0
  2  3  1  1
  2  1  1  0
  4  2  1  0
  4  5  1  1
  6  8  1  0
  6  4  1  0
  7  6  2  0
  9  8  1  0
  9 12  1  0
  9 10  1  6
 11 10  1  0
 12 14  1  0
 13 12  2  0
 14 15  1  0
 15 16  1  1
 15 22  1  0
 17 16  1  0
 18 17  2  0
 19 20  1  0
 19 18  1  0
 20 21  2  0
 21 17  1  0
 22 24  2  0
 22 23  1  0
M  END
$$$$
