VCH.pdb
     RDKit          3D

 24 24  0  0  1  0  0  0  0  0999 V2000
   18.9707  -14.2390  -18.9371 C   0  0  0  0  0  0  0  0  0  0  0  0
   18.6611  -14.9629  -17.6478 C   0  0  2  0  0  0  0  0  0  0  0  0
   17.7140  -16.1028  -17.8182 C   0  0  0  0  0  0  0  0  0  0  0  0
   18.1608  -13.9209  -16.6590 C   0  0  2  0  0  0  0  0  0  0  0  0
   16.8581  -13.5296  -17.0958 N   0  0  0  0  0  0  0  0  0  0  0  0
   19.0986  -12.7920  -16.5131 C   0  0  0  0  0  0  0  0  0  0  0  0
   20.2153  -12.9956  -15.9951 O   0  0  0  0  0  0  0  0  0  0  0  0
   18.7794  -11.4810  -16.9398 N   0  0  0  0  0  0  0  0  0  0  0  0
   19.7130  -10.3995  -16.7414 C   0  0  1  0  0  0  0  0  0  0  0  0
   20.1092   -9.9142  -18.1374 C   0  0  0  0  0  0  0  0  0  0  0  0
   21.2396   -8.5057  -17.9945 S   0  0  0  0  0  0  0  0  0  0  0  0
   19.0520   -9.2852  -16.0641 C   0  0  0  0  0  0  0  0  0  0  0  0
   17.8894   -8.9487  -16.4346 O   0  0  0  0  0  0  0  0  0  0  0  0
   19.7366   -8.6234  -15.0184 N   0  0  0  0  0  0  0  0  0  0  0  0
   19.1105   -7.5137  -14.3518 C   0  0  1  0  0  0  0  0  0  0  0  0
   19.4005   -7.6882  -12.8672 C   0  0  0  0  0  0  0  0  0  0  0  0
   18.3585   -8.5913  -12.2963 C   0  0  0  0  0  0  0  0  0  0  0  0
   17.3590   -9.2146  -13.0017 C   0  0  0  0  0  0  0  0  0  0  0  0
   16.6369   -9.9314  -12.1365 N   0  0  0  0  0  0  0  0  0  0  0  0
   17.1676   -9.7655  -10.9108 C   0  0  0  0  0  0  0  0  0  0  0  0
   18.2211   -8.9455  -11.0080 N   0  0  0  0  0  0  0  0  0  0  0  0
   19.6781   -6.2595  -14.8716 C   0  0  0  0  0  0  0  0  0  0  0  0
   18.9439   -5.0885  -14.8669 O   0  0  0  0  0  0  0  0  0  0  0  0
   20.8358   -6.2463  -15.3236 O   0  0  0  0  0  0  0  0  0  0  0  0
  2  3  1  6
  2  1  1  0
  4  2  1  0
  4  5  1  6
  6  8  1  0
  6  4  1  0
  7  6  2  0
  9  8  1  0
  9 12  1  0
  9 10  1  6
 11 10  1  0
 12 14  1  0
 13 12  2  0
 14 15  1  0
 15 16  1  1
 15 22  1  0
 17 16  1  0
 18 17  2  0
 19 20  1  0
 19 18  1  0
 20 21  2  0
 21 17  1  0
 22 24  2  0
 22 23  1  0
M  END
$$$$
