VCH.pdb
     RDKit          3D

 24 24  0  0  1  0  0  0  0  0999 V2000
   27.6639  -19.8175  -19.0741 C   0  0  0  0  0  0  0  0  0  0  0  0
   26.1556  -19.8064  -19.1551 C   0  0  2  0  0  0  0  0  0  0  0  0
   25.6287  -19.0627  -20.3362 C   0  0  0  0  0  0  0  0  0  0  0  0
   25.6407  -19.2580  -17.8330 C   0  0  2  0  0  0  0  0  0  0  0  0
   25.9139  -17.8558  -17.8335 N   0  0  0  0  0  0  0  0  0  0  0  0
   26.2085  -19.9699  -16.6728 C   0  0  0  0  0  0  0  0  0  0  0  0
   25.8889  -21.1601  -16.4770 O   0  0  0  0  0  0  0  0  0  0  0  0
   27.1056  -19.3525  -15.7690 N   0  0  0  0  0  0  0  0  0  0  0  0
   27.4920  -20.0209  -14.5506 C   0  0  1  0  0  0  0  0  0  0  0  0
   28.8157  -19.3882  -14.1162 C   0  0  0  0  0  0  0  0  0  0  0  0
   29.3398  -20.0980  -12.5339 S   0  0  0  0  0  0  0  0  0  0  0  0
   26.5135  -19.7497  -13.4987 C   0  0  0  0  0  0  0  0  0  0  0  0
   25.6457  -18.8484  -13.6900 O   0  0  0  0  0  0  0  0  0  0  0  0
   26.5726  -20.5053  -12.3047 N   0  0  0  0  0  0  0  0  0  0  0  0
   25.5003  -20.4099  -11.3514 C   0  0  1  0  0  0  0  0  0  0  0  0
   24.2624  -20.9635  -12.0438 C   0  0  0  0  0  0  0  0  0  0  0  0
   23.1283  -20.9090  -11.0751 C   0  0  0  0  0  0  0  0  0  0  0  0
   23.1873  -20.4214   -9.7930 C   0  0  0  0  0  0  0  0  0  0  0  0
   21.9718  -20.5467   -9.2540 N   0  0  0  0  0  0  0  0  0  0  0  0
   21.1615  -21.1013  -10.1745 C   0  0  0  0  0  0  0  0  0  0  0  0
   21.8688  -21.3232  -11.2891 N   0  0  0  0  0  0  0  0  0  0  0  0
   25.8498  -21.1942  -10.1562 C   0  0  0  0  0  0  0  0  0  0  0  0
   26.0586  -22.5582  -10.2341 O   0  0  0  0  0  0  0  0  0  0  0  0
   25.9604  -20.6267   -9.0560 O   0  0  0  0  0  0  0  0  0  0  0  0
  2  3  1  6
  2  1  1  0
  4  2  1  0
  4  5  1  1
  6  8  1  0
  6  4  1  0
  7  6  2  0
  9  8  1  0
  9 12  1  0
  9 10  1  1
 11 10  1  0
 12 14  1  0
 13 12  2  0
 14 15  1  0
 15 16  1  6
 15 22  1  0
 17 16  1  0
 18 17  2  0
 19 20  1  0
 19 18  1  0
 20 21  2  0
 21 17  1  0
 22 24  2  0
 22 23  1  0
M  END
$$$$
