VCH.pdb
     RDKit          3D

 24 24  0  0  1  0  0  0  0  0999 V2000
   16.5859   -9.9660  -19.5634 C   0  0  0  0  0  0  0  0  0  0  0  0
   17.1132   -9.2417  -18.3472 C   0  0  2  0  0  0  0  0  0  0  0  0
   17.7567   -7.9341  -18.6660 C   0  0  0  0  0  0  0  0  0  0  0  0
   18.0479  -10.2008  -17.6260 C   0  0  2  0  0  0  0  0  0  0  0  0
   17.2975  -11.3871  -17.3607 N   0  0  0  0  0  0  0  0  0  0  0  0
   18.6463   -9.5984  -16.4200 C   0  0  0  0  0  0  0  0  0  0  0  0
   17.9289   -9.4137  -15.4159 O   0  0  0  0  0  0  0  0  0  0  0  0
   20.0085   -9.2202  -16.3574 N   0  0  0  0  0  0  0  0  0  0  0  0
   20.5562   -8.6560  -15.1481 C   0  0  1  0  0  0  0  0  0  0  0  0
   21.7539   -9.5307  -14.7717 C   0  0  0  0  0  0  0  0  0  0  0  0
   22.4910   -8.9239  -13.2319 S   0  0  0  0  0  0  0  0  0  0  0  0
   21.0643   -7.3102  -15.4088 C   0  0  0  0  0  0  0  0  0  0  0  0
   21.8432   -7.1312  -16.3903 O   0  0  0  0  0  0  0  0  0  0  0  0
   20.6664   -6.2563  -14.5537 N   0  0  0  0  0  0  0  0  0  0  0  0
   21.1382   -4.9217  -14.8062 C   0  0  1  0  0  0  0  0  0  0  0  0
   20.0802   -3.9811  -14.2456 C   0  0  0  0  0  0  0  0  0  0  0  0
   18.9810   -3.8721  -15.2491 C   0  0  0  0  0  0  0  0  0  0  0  0
   18.9914   -4.4024  -16.5155 C   0  0  0  0  0  0  0  0  0  0  0  0
   17.8307   -4.0891  -17.0972 N   0  0  0  0  0  0  0  0  0  0  0  0
   17.1018   -3.3763  -16.2184 C   0  0  0  0  0  0  0  0  0  0  0  0
   17.8053   -3.2433  -15.0873 N   0  0  0  0  0  0  0  0  0  0  0  0
   22.4366   -4.7375  -14.1383 C   0  0  0  0  0  0  0  0  0  0  0  0
   23.3561   -3.8186  -14.6078 O   0  0  0  0  0  0  0  0  0  0  0  0
   22.7168   -5.4161  -13.1355 O   0  0  0  0  0  0  0  0  0  0  0  0
  2  3  1  6
  2  1  1  0
  4  2  1  0
  4  5  1  1
  6  8  1  0
  6  4  1  0
  7  6  2  0
  9  8  1  0
  9 12  1  0
  9 10  1  6
 11 10  1  0
 12 14  1  0
 13 12  2  0
 14 15  1  0
 15 16  1  1
 15 22  1  0
 17 16  1  0
 18 17  2  0
 19 20  1  0
 19 18  1  0
 20 21  2  0
 21 17  1  0
 22 24  2  0
 22 23  1  0
M  END
$$$$
