DIS.pdb
     RDKit          3D

 23 22  0  0  1  0  0  0  0  0999 V2000
   20.5931  -13.7353  -16.7272 N   0  0  0  0  0  0  0  0  0  0  0  0
   20.8084  -12.4334  -17.2782 C   0  0  1  0  0  0  0  0  0  0  0  0
   19.4705  -11.7755  -17.5254 C   0  0  0  0  0  0  0  0  0  0  0  0
   18.5966  -12.4627  -18.4605 C   0  0  0  0  0  0  0  0  0  0  0  0
   19.0264  -12.9814  -19.5115 O   0  0  0  0  0  0  0  0  0  0  0  0
   21.5558  -11.5324  -16.3683 C   0  0  0  0  0  0  0  0  0  0  0  0
   21.2481  -11.4948  -15.1278 O   0  0  0  0  0  0  0  0  0  0  0  0
   17.2442  -12.5404  -18.1693 O   0  0  0  0  0  0  0  0  0  0  0  0
   26.7260  -11.6453  -15.6132 C   0  0  0  0  0  0  0  0  0  0  0  0
   25.2338  -11.4573  -15.5324 C   0  0  0  0  0  0  0  0  0  0  0  0
   24.7847  -10.0817  -15.8311 C   0  0  2  0  0  0  0  0  0  0  0  0
   25.4470   -9.1524  -14.7978 C   0  0  0  0  0  0  0  0  0  0  0  0
   23.3269   -9.8163  -15.8681 C   0  0  2  0  0  0  0  0  0  0  0  0
   22.6111  -10.6916  -16.7855 N   0  0  0  0  0  0  0  0  0  0  0  0
   23.0148   -8.3857  -16.0837 C   0  0  0  0  0  0  0  0  0  0  0  0
   23.2683   -7.7864  -17.1590 O   0  0  0  0  0  0  0  0  0  0  0  0
   20.3674   -4.5544  -15.5862 O   0  0  0  0  0  0  0  0  0  0  0  0
   20.5947   -5.9357  -15.4010 C   0  0  0  0  0  0  0  0  0  0  0  0
   22.0616   -6.2036  -15.2318 C   0  0  2  0  0  0  0  0  0  0  0  0
   22.3988   -7.5756  -15.0739 N   0  0  0  0  0  0  0  0  0  0  0  0
   22.4845   -5.4853  -13.9781 C   0  0  0  0  0  0  0  0  0  0  0  0
   22.5636   -4.0964  -14.0851 O   0  0  0  0  0  0  0  0  0  0  0  0
   22.7491   -6.0646  -12.9139 O   0  0  0  0  0  0  0  0  0  0  0  0
  2  1  1  1
  3  2  1  0
  3  4  1  0
  4  8  1  0
  5  4  2  0
  6  2  1  0
  6  7  2  0
  9 10  1  0
 10 11  1  0
 11 13  1  0
 11 12  1  1
 13 14  1  6
 13 15  1  0
 14  6  1  0
 15 20  1  0
 15 16  2  0
 18 17  1  0
 19 18  1  1
 20 19  1  0
 21 22  1  0
 21 19  1  0
 23 21  2  0
M  END
$$$$
