DIS.pdb
     RDKit          3D

 23 22  0  0  1  0  0  0  0  0999 V2000
   17.5386  -11.9154  -16.9205 N   0  0  0  0  0  0  0  0  0  0  0  0
   18.4568  -10.9627  -17.4632 C   0  0  1  0  0  0  0  0  0  0  0  0
   17.6894   -9.9481  -18.2789 C   0  0  0  0  0  0  0  0  0  0  0  0
   16.9914  -10.4742  -19.4392 C   0  0  0  0  0  0  0  0  0  0  0  0
   17.4406  -11.4283  -20.1072 O   0  0  0  0  0  0  0  0  0  0  0  0
   19.1853  -10.1982  -16.4225 C   0  0  0  0  0  0  0  0  0  0  0  0
   18.6260   -9.9828  -15.2930 O   0  0  0  0  0  0  0  0  0  0  0  0
   15.7894   -9.8929  -19.8096 O   0  0  0  0  0  0  0  0  0  0  0  0
   23.8060  -11.8300  -14.7135 C   0  0  0  0  0  0  0  0  0  0  0  0
   22.4534  -11.1932  -14.8967 C   0  0  0  0  0  0  0  0  0  0  0  0
   22.5062   -9.7496  -15.2070 C   0  0  2  0  0  0  0  0  0  0  0  0
   23.1974   -9.0540  -14.0203 C   0  0  0  0  0  0  0  0  0  0  0  0
   21.2328   -9.0543  -15.5108 C   0  0  2  0  0  0  0  0  0  0  0  0
   20.4870   -9.6781  -16.5947 N   0  0  0  0  0  0  0  0  0  0  0  0
   21.4127   -7.5983  -15.7060 C   0  0  0  0  0  0  0  0  0  0  0  0
   21.9983   -7.1108  -16.7056 O   0  0  0  0  0  0  0  0  0  0  0  0
   19.9574   -3.0912  -14.8696 O   0  0  0  0  0  0  0  0  0  0  0  0
   19.7861   -4.4633  -14.5839 C   0  0  0  0  0  0  0  0  0  0  0  0
   21.0352   -5.2246  -14.9191 C   0  0  2  0  0  0  0  0  0  0  0  0
   20.9305   -6.6336  -14.7614 N   0  0  0  0  0  0  0  0  0  0  0  0
   22.0980   -4.7396  -13.9696 C   0  0  0  0  0  0  0  0  0  0  0  0
   22.7335   -3.5545  -14.3414 O   0  0  0  0  0  0  0  0  0  0  0  0
   22.4048   -5.3336  -12.9249 O   0  0  0  0  0  0  0  0  0  0  0  0
  2  1  1  1
  3  2  1  0
  3  4  1  0
  4  8  1  0
  5  4  2  0
  6  2  1  0
  6  7  2  0
  9 10  1  0
 10 11  1  0
 11 13  1  0
 11 12  1  1
 13 14  1  6
 13 15  1  0
 14  6  1  0
 15 20  1  0
 15 16  2  0
 18 17  1  0
 19 18  1  1
 20 19  1  0
 21 22  1  0
 21 19  1  0
 23 21  2  0
M  END
$$$$
