DIS.pdb
     RDKit          3D

 23 22  0  0  1  0  0  0  0  0999 V2000
   26.4623  -18.9939  -14.5940 N   0  0  0  0  0  0  0  0  0  0  0  0
   26.1665  -20.3927  -14.5678 C   0  0  1  0  0  0  0  0  0  0  0  0
   27.3515  -21.1573  -15.1107 C   0  0  0  0  0  0  0  0  0  0  0  0
   27.7454  -20.8230  -16.4684 C   0  0  0  0  0  0  0  0  0  0  0  0
   28.6608  -21.4299  -17.0619 O   0  0  0  0  0  0  0  0  0  0  0  0
   25.9252  -20.9110  -13.1998 C   0  0  0  0  0  0  0  0  0  0  0  0
   25.9093  -22.1738  -12.9994 O   0  0  0  0  0  0  0  0  0  0  0  0
   27.0790  -19.7967  -17.1184 O   0  0  0  0  0  0  0  0  0  0  0  0
   28.3079  -21.2124   -9.5032 C   0  0  0  0  0  0  0  0  0  0  0  0
   27.6125  -19.9049   -9.7783 C   0  0  0  0  0  0  0  0  0  0  0  0
   26.1410  -19.9715   -9.6639 C   0  0  2  0  0  0  0  0  0  0  0  0
   25.8193  -20.6730   -8.3318 C   0  0  0  0  0  0  0  0  0  0  0  0
   25.3850  -20.6248  -10.7588 C   0  0  2  0  0  0  0  0  0  0  0  0
   25.7066  -20.0875  -12.0734 N   0  0  0  0  0  0  0  0  0  0  0  0
   23.9284  -20.6641  -10.4992 C   0  0  0  0  0  0  0  0  0  0  0  0
   23.2161  -19.6299  -10.4477 O   0  0  0  0  0  0  0  0  0  0  0  0
   22.3414  -21.9390   -7.6609 O   0  0  0  0  0  0  0  0  0  0  0  0
   21.4386  -21.4746   -8.6423 C   0  0  0  0  0  0  0  0  0  0  0  0
   21.8328  -21.9876   -9.9965 C   0  0  2  0  0  0  0  0  0  0  0  0
   23.2217  -21.8929  -10.2845 N   0  0  0  0  0  0  0  0  0  0  0  0
   21.1019  -21.1396  -11.0030 C   0  0  0  0  0  0  0  0  0  0  0  0
   21.2424  -21.5387  -12.3325 O   0  0  0  0  0  0  0  0  0  0  0  0
   20.4172  -20.1518  -10.6969 O   0  0  0  0  0  0  0  0  0  0  0  0
  2  1  1  1
  3  2  1  0
  3  4  1  0
  4  8  1  0
  5  4  2  0
  6  2  1  0
  6  7  2  0
  9 10  1  0
 10 11  1  0
 11 13  1  0
 11 12  1  1
 13 14  1  6
 13 15  1  0
 14  6  1  0
 15 20  1  0
 15 16  2  0
 18 17  1  0
 19 18  1  1
 20 19  1  0
 21 22  1  0
 21 19  1  0
 23 21  2  0
M  END
$$$$
