DIS.pdb
     RDKit          3D

 23 22  0  0  1  0  0  0  0  0999 V2000
   21.6584  -14.3553  -17.9207 N   0  0  0  0  0  0  0  0  0  0  0  0
   21.9949  -13.0925  -18.5013 C   0  0  1  0  0  0  0  0  0  0  0  0
   20.7526  -12.4825  -19.1083 C   0  0  0  0  0  0  0  0  0  0  0  0
   20.1033  -13.2748  -20.1383 C   0  0  0  0  0  0  0  0  0  0  0  0
   20.7528  -13.9088  -20.9955 O   0  0  0  0  0  0  0  0  0  0  0  0
   22.5009  -12.1126  -17.5105 C   0  0  0  0  0  0  0  0  0  0  0  0
   21.9439  -12.0343  -16.3622 O   0  0  0  0  0  0  0  0  0  0  0  0
   18.7188  -13.3233  -20.1633 O   0  0  0  0  0  0  0  0  0  0  0  0
   25.8922  -11.8900  -14.7902 C   0  0  0  0  0  0  0  0  0  0  0  0
   26.1669  -11.4634  -16.2083 C   0  0  0  0  0  0  0  0  0  0  0  0
   25.4884  -10.2110  -16.6009 C   0  0  2  0  0  0  0  0  0  0  0  0
   25.8516   -9.1475  -15.5487 C   0  0  0  0  0  0  0  0  0  0  0  0
   24.0176  -10.2415  -16.7820 C   0  0  2  0  0  0  0  0  0  0  0  0
   23.5829  -11.2373  -17.7513 N   0  0  0  0  0  0  0  0  0  0  0  0
   23.4495   -8.9008  -17.0474 C   0  0  0  0  0  0  0  0  0  0  0  0
   24.0291   -8.0428  -17.7600 O   0  0  0  0  0  0  0  0  0  0  0  0
   19.4388   -8.0237  -16.0149 O   0  0  0  0  0  0  0  0  0  0  0  0
   20.0871   -7.3337  -17.0625 C   0  0  0  0  0  0  0  0  0  0  0  0
   21.5600   -7.2396  -16.7905 C   0  0  2  0  0  0  0  0  0  0  0  0
   22.1903   -8.4815  -16.5053 N   0  0  0  0  0  0  0  0  0  0  0  0
   21.7143   -6.3630  -15.5763 C   0  0  0  0  0  0  0  0  0  0  0  0
   22.3658   -6.9543  -14.4935 O   0  0  0  0  0  0  0  0  0  0  0  0
   21.3003   -5.1954  -15.5185 O   0  0  0  0  0  0  0  0  0  0  0  0
  2  1  1  1
  3  2  1  0
  3  4  1  0
  4  8  1  0
  5  4  2  0
  6  2  1  0
  6  7  2  0
  9 10  1  0
 10 11  1  0
 11 13  1  0
 11 12  1  1
 13 14  1  6
 13 15  1  0
 14  6  1  0
 15 20  1  0
 15 16  2  0
 18 17  1  0
 19 18  1  1
 20 19  1  0
 21 22  1  0
 21 19  1  0
 23 21  2  0
M  END
$$$$
