DIS.pdb
     RDKit          3D

 23 22  0  0  1  0  0  0  0  0999 V2000
   19.0332   -6.7459  -10.0194 N   0  0  0  0  0  0  0  0  0  0  0  0
   18.7267   -6.4536  -11.3852 C   0  0  1  0  0  0  0  0  0  0  0  0
   18.1743   -5.0499  -11.4769 C   0  0  0  0  0  0  0  0  0  0  0  0
   16.9157   -4.8246  -10.7875 C   0  0  0  0  0  0  0  0  0  0  0  0
   15.9099   -5.5347  -10.9939 O   0  0  0  0  0  0  0  0  0  0  0  0
   19.9155   -6.4940  -12.2702 C   0  0  0  0  0  0  0  0  0  0  0  0
   21.0527   -6.1299  -11.8129 O   0  0  0  0  0  0  0  0  0  0  0  0
   16.8372   -3.7863   -9.8733 O   0  0  0  0  0  0  0  0  0  0  0  0
   22.6571  -10.4382  -13.4618 C   0  0  0  0  0  0  0  0  0  0  0  0
   22.2425   -8.9983  -13.3098 C   0  0  0  0  0  0  0  0  0  0  0  0
   21.5896   -8.4315  -14.5079 C   0  0  2  0  0  0  0  0  0  0  0  0
   22.5930   -8.5453  -15.6698 C   0  0  0  0  0  0  0  0  0  0  0  0
   21.0796   -7.0417  -14.4328 C   0  0  2  0  0  0  0  0  0  0  0  0
   19.8799   -6.9178  -13.6170 N   0  0  0  0  0  0  0  0  0  0  0  0
   20.9295   -6.4184  -15.7668 C   0  0  0  0  0  0  0  0  0  0  0  0
   20.1564   -6.8710  -16.6485 O   0  0  0  0  0  0  0  0  0  0  0  0
   21.8988   -2.5840  -18.6754 O   0  0  0  0  0  0  0  0  0  0  0  0
   22.1342   -3.1963  -17.4250 C   0  0  0  0  0  0  0  0  0  0  0  0
   21.4813   -4.5468  -17.3756 C   0  0  2  0  0  0  0  0  0  0  0  0
   21.6615   -5.2474  -16.1519 N   0  0  0  0  0  0  0  0  0  0  0  0
   22.1164   -5.3676  -18.4662 C   0  0  0  0  0  0  0  0  0  0  0  0
   21.4910   -5.2904  -19.7110 O   0  0  0  0  0  0  0  0  0  0  0  0
   23.1239   -6.0703  -18.2950 O   0  0  0  0  0  0  0  0  0  0  0  0
  2  1  1  1
  3  2  1  0
  3  4  1  0
  4  8  1  0
  5  4  2  0
  6  2  1  0
  6  7  2  0
  9 10  1  0
 10 11  1  0
 11 13  1  0
 11 12  1  6
 13 14  1  6
 13 15  1  0
 14  6  1  0
 15 20  1  0
 15 16  2  0
 18 17  1  0
 19 18  1  1
 20 19  1  0
 21 22  1  0
 21 19  1  0
 23 21  2  0
M  END
$$$$
