DIS.pdb
     RDKit          3D

 23 22  0  0  1  0  0  0  0  0999 V2000
   19.7237  -12.3762  -18.2417 N   0  0  0  0  0  0  0  0  0  0  0  0
   20.3345  -11.1217  -18.5551 C   0  0  1  0  0  0  0  0  0  0  0  0
   19.5078  -10.4204  -19.6080 C   0  0  0  0  0  0  0  0  0  0  0  0
   19.3937  -11.1126  -20.8800 C   0  0  0  0  0  0  0  0  0  0  0  0
   20.3893  -11.3641  -21.5900 O   0  0  0  0  0  0  0  0  0  0  0  0
   20.4022  -10.2012  -17.3947 C   0  0  0  0  0  0  0  0  0  0  0  0
   19.5297  -10.2961  -16.4648 O   0  0  0  0  0  0  0  0  0  0  0  0
   18.1363  -11.5027  -21.3120 O   0  0  0  0  0  0  0  0  0  0  0  0
   24.3274  -10.0242  -14.1057 C   0  0  0  0  0  0  0  0  0  0  0  0
   22.9986   -9.9049  -14.8046 C   0  0  0  0  0  0  0  0  0  0  0  0
   22.6844   -8.5377  -15.2684 C   0  0  2  0  0  0  0  0  0  0  0  0
   22.6355   -7.6346  -14.0226 C   0  0  0  0  0  0  0  0  0  0  0  0
   21.4529   -8.3384  -16.0689 C   0  0  2  0  0  0  0  0  0  0  0  0
   21.3879   -9.2017  -17.2397 N   0  0  0  0  0  0  0  0  0  0  0  0
   21.2112   -6.9151  -16.3953 C   0  0  0  0  0  0  0  0  0  0  0  0
   21.9928   -6.2360  -17.1079 O   0  0  0  0  0  0  0  0  0  0  0  0
   17.4962   -5.3949  -16.8521 O   0  0  0  0  0  0  0  0  0  0  0  0
   18.2960   -4.5020  -16.1061 C   0  0  0  0  0  0  0  0  0  0  0  0
   19.7468   -4.8584  -16.2497 C   0  0  2  0  0  0  0  0  0  0  0  0
   20.0618   -6.2042  -15.9170 N   0  0  0  0  0  0  0  0  0  0  0  0
   20.5009   -3.9675  -15.2988 C   0  0  0  0  0  0  0  0  0  0  0  0
   20.3925   -2.5997  -15.5511 O   0  0  0  0  0  0  0  0  0  0  0  0
   21.1773   -4.3953  -14.3514 O   0  0  0  0  0  0  0  0  0  0  0  0
  2  1  1  1
  3  2  1  0
  3  4  1  0
  4  8  1  0
  5  4  2  0
  6  2  1  0
  6  7  2  0
  9 10  1  0
 10 11  1  0
 11 13  1  0
 11 12  1  1
 13 14  1  6
 13 15  1  0
 14  6  1  0
 15 20  1  0
 15 16  2  0
 18 17  1  0
 19 18  1  1
 20 19  1  0
 21 22  1  0
 21 19  1  0
 23 21  2  0
M  END
$$$$
