DIS.pdb
     RDKit          3D

 23 22  0  0  1  0  0  0  0  0999 V2000
   19.0998  -12.4421  -15.7065 N   0  0  0  0  0  0  0  0  0  0  0  0
   19.4143  -11.2630  -16.4520 C   0  0  1  0  0  0  0  0  0  0  0  0
   18.1755  -10.4044  -16.5619 C   0  0  0  0  0  0  0  0  0  0  0  0
   17.0767  -10.9818  -17.3166 C   0  0  0  0  0  0  0  0  0  0  0  0
   17.2668  -11.7369  -18.2924 O   0  0  0  0  0  0  0  0  0  0  0  0
   20.4494  -10.4229  -15.8033 C   0  0  0  0  0  0  0  0  0  0  0  0
   20.4137  -10.2464  -14.5374 O   0  0  0  0  0  0  0  0  0  0  0  0
   15.7795  -10.6799  -16.9348 O   0  0  0  0  0  0  0  0  0  0  0  0
   25.5290  -11.5243  -16.0651 C   0  0  0  0  0  0  0  0  0  0  0  0
   24.1454  -11.0338  -15.7283 C   0  0  0  0  0  0  0  0  0  0  0  0
   23.9077   -9.6185  -16.0797 C   0  0  2  0  0  0  0  0  0  0  0  0
   24.9607   -8.7808  -15.3317 C   0  0  0  0  0  0  0  0  0  0  0  0
   22.5606   -9.0538  -15.8278 C   0  0  2  0  0  0  0  0  0  0  0  0
   21.4994   -9.7878  -16.5026 N   0  0  0  0  0  0  0  0  0  0  0  0
   22.4981   -7.5971  -16.0826 C   0  0  0  0  0  0  0  0  0  0  0  0
   22.5074   -7.1055  -17.2393 O   0  0  0  0  0  0  0  0  0  0  0  0
   20.7837   -4.9568  -13.3954 O   0  0  0  0  0  0  0  0  0  0  0  0
   21.9752   -4.4595  -13.9671 C   0  0  0  0  0  0  0  0  0  0  0  0
   22.3189   -5.2311  -15.2076 C   0  0  2  0  0  0  0  0  0  0  0  0
   22.4240   -6.6365  -15.0210 N   0  0  0  0  0  0  0  0  0  0  0  0
   23.6647   -4.7317  -15.6613 C   0  0  0  0  0  0  0  0  0  0  0  0
   23.6783   -3.4317  -16.1674 O   0  0  0  0  0  0  0  0  0  0  0  0
   24.7020   -5.4089  -15.5996 O   0  0  0  0  0  0  0  0  0  0  0  0
  2  1  1  1
  3  2  1  0
  3  4  1  0
  4  8  1  0
  5  4  2  0
  6  2  1  0
  6  7  2  0
  9 10  1  0
 10 11  1  0
 11 13  1  0
 11 12  1  1
 13 14  1  6
 13 15  1  0
 14  6  1  0
 15 20  1  0
 15 16  2  0
 18 17  1  0
 19 18  1  1
 20 19  1  0
 21 22  1  0
 21 19  1  0
 23 21  2  0
M  END
$$$$
