DIS.pdb
     RDKit          3D

 23 22  0  0  1  0  0  0  0  0999 V2000
   17.6691  -10.2593  -18.2302 N   0  0  0  0  0  0  0  0  0  0  0  0
   18.9120   -9.6024  -18.4918 C   0  0  1  0  0  0  0  0  0  0  0  0
   18.6605   -8.4092  -19.3845 C   0  0  0  0  0  0  0  0  0  0  0  0
   18.2018   -8.7165  -20.7282 C   0  0  0  0  0  0  0  0  0  0  0  0
   18.6550   -9.6801  -21.3797 O   0  0  0  0  0  0  0  0  0  0  0  0
   19.5627   -9.0786  -17.2669 C   0  0  0  0  0  0  0  0  0  0  0  0
   18.8385   -8.6526  -16.3030 O   0  0  0  0  0  0  0  0  0  0  0  0
   17.2300   -7.9095  -21.2976 O   0  0  0  0  0  0  0  0  0  0  0  0
   23.3668  -11.8295  -14.7954 C   0  0  0  0  0  0  0  0  0  0  0  0
   22.2219  -10.9327  -15.1871 C   0  0  0  0  0  0  0  0  0  0  0  0
   22.5934   -9.5091  -15.3232 C   0  0  2  0  0  0  0  0  0  0  0  0
   23.0759   -9.0306  -13.9418 C   0  0  0  0  0  0  0  0  0  0  0  0
   21.5718   -8.5679  -15.8405 C   0  0  2  0  0  0  0  0  0  0  0  0
   20.9618   -9.0157  -17.0845 N   0  0  0  0  0  0  0  0  0  0  0  0
   22.0685   -7.1758  -15.9172 C   0  0  0  0  0  0  0  0  0  0  0  0
   22.7296   -6.7398  -16.8932 O   0  0  0  0  0  0  0  0  0  0  0  0
   21.3833   -2.7414  -15.9802 O   0  0  0  0  0  0  0  0  0  0  0  0
   21.1132   -4.1270  -15.9517 C   0  0  0  0  0  0  0  0  0  0  0  0
   22.0439   -4.8193  -14.9995 C   0  0  2  0  0  0  0  0  0  0  0  0
   21.8311   -6.2194  -14.8758 N   0  0  0  0  0  0  0  0  0  0  0  0
   21.8060   -4.2030  -13.6467 C   0  0  0  0  0  0  0  0  0  0  0  0
   20.9490   -4.9173  -12.8089 O   0  0  0  0  0  0  0  0  0  0  0  0
   22.3234   -3.1371  -13.2800 O   0  0  0  0  0  0  0  0  0  0  0  0
  2  1  1  1
  3  2  1  0
  3  4  1  0
  4  8  1  0
  5  4  2  0
  6  2  1  0
  6  7  2  0
  9 10  1  0
 10 11  1  0
 11 13  1  0
 11 12  1  1
 13 14  1  6
 13 15  1  0
 14  6  1  0
 15 20  1  0
 15 16  2  0
 18 17  1  0
 19 18  1  6
 20 19  1  0
 21 22  1  0
 21 19  1  0
 23 21  2  0
M  END
$$$$
