DIS.pdb
     RDKit          3D

 23 22  0  0  1  0  0  0  0  0999 V2000
   26.7574  -19.0621  -17.9724 N   0  0  0  0  0  0  0  0  0  0  0  0
   26.1084  -18.4632  -16.8476 C   0  0  1  0  0  0  0  0  0  0  0  0
   24.9672  -17.6024  -17.3379 C   0  0  0  0  0  0  0  0  0  0  0  0
   25.3510  -16.4211  -18.0913 C   0  0  0  0  0  0  0  0  0  0  0  0
   26.5461  -16.1259  -18.2986 O   0  0  0  0  0  0  0  0  0  0  0  0
   25.5148  -19.4568  -15.9210 C   0  0  0  0  0  0  0  0  0  0  0  0
   25.0759  -20.5649  -16.3839 O   0  0  0  0  0  0  0  0  0  0  0  0
   24.3528  -15.6012  -18.5924 O   0  0  0  0  0  0  0  0  0  0  0  0
   27.3228  -21.9140  -13.3439 C   0  0  0  0  0  0  0  0  0  0  0  0
   27.0082  -20.7409  -12.4531 C   0  0  0  0  0  0  0  0  0  0  0  0
   25.5690  -20.4168  -12.3726 C   0  0  2  0  0  0  0  0  0  0  0  0
   24.9036  -21.5095  -11.5164 C   0  0  0  0  0  0  0  0  0  0  0  0
   24.8173  -20.2597  -13.6405 C   0  0  2  0  0  0  0  0  0  0  0  0
   25.3973  -19.2610  -14.5273 N   0  0  0  0  0  0  0  0  0  0  0  0
   23.3681  -20.0547  -13.4205 C   0  0  0  0  0  0  0  0  0  0  0  0
   22.9115  -19.1420  -12.6868 O   0  0  0  0  0  0  0  0  0  0  0  0
   20.5830  -19.4436  -15.9182 O   0  0  0  0  0  0  0  0  0  0  0  0
   20.2415  -20.6262  -15.2266 C   0  0  0  0  0  0  0  0  0  0  0  0
   20.9718  -20.6927  -13.9172 C   0  0  2  0  0  0  0  0  0  0  0  0
   22.3751  -20.8894  -14.0309 N   0  0  0  0  0  0  0  0  0  0  0  0
   20.4070  -21.8735  -13.1733 C   0  0  0  0  0  0  0  0  0  0  0  0
   19.3676  -21.5797  -12.2902 O   0  0  0  0  0  0  0  0  0  0  0  0
   20.8194  -23.0342  -13.3181 O   0  0  0  0  0  0  0  0  0  0  0  0
  2  1  1  6
  3  2  1  0
  3  4  1  0
  4  8  1  0
  5  4  2  0
  6  2  1  0
  6  7  2  0
  9 10  1  0
 10 11  1  0
 11 13  1  0
 11 12  1  1
 13 14  1  1
 13 15  1  0
 14  6  1  0
 15 20  1  0
 15 16  2  0
 18 17  1  0
 19 18  1  6
 20 19  1  0
 21 22  1  0
 21 19  1  0
 23 21  2  0
M  END
$$$$
