DIS.pdb
     RDKit          3D

 23 22  0  0  1  0  0  0  0  0999 V2000
   19.9196  -11.7349  -18.8624 N   0  0  0  0  0  0  0  0  0  0  0  0
   18.9731  -11.1658  -17.9540 C   0  0  1  0  0  0  0  0  0  0  0  0
   18.1640  -12.2766  -17.3254 C   0  0  0  0  0  0  0  0  0  0  0  0
   17.4206  -13.1131  -18.2516 C   0  0  0  0  0  0  0  0  0  0  0  0
   16.8705  -12.6474  -19.2709 O   0  0  0  0  0  0  0  0  0  0  0  0
   19.6096  -10.4279  -16.8366 C   0  0  0  0  0  0  0  0  0  0  0  0
   18.9041  -10.0838  -15.8273 O   0  0  0  0  0  0  0  0  0  0  0  0
   17.3239  -14.4700  -17.9883 O   0  0  0  0  0  0  0  0  0  0  0  0
   21.8687  -11.6186  -13.4866 C   0  0  0  0  0  0  0  0  0  0  0  0
   22.6898  -11.4165  -14.7329 C   0  0  0  0  0  0  0  0  0  0  0  0
   22.7920  -10.0067  -15.1629 C   0  0  2  0  0  0  0  0  0  0  0  0
   23.3263   -9.2027  -13.9636 C   0  0  0  0  0  0  0  0  0  0  0  0
   21.5740   -9.3487  -15.6926 C   0  0  2  0  0  0  0  0  0  0  0  0
   20.9754  -10.0695  -16.8072 N   0  0  0  0  0  0  0  0  0  0  0  0
   21.7858   -7.9141  -15.9886 C   0  0  0  0  0  0  0  0  0  0  0  0
   22.5914   -7.5096  -16.8644 O   0  0  0  0  0  0  0  0  0  0  0  0
   19.1713   -5.2554  -16.7021 O   0  0  0  0  0  0  0  0  0  0  0  0
   19.9611   -4.7194  -15.6616 C   0  0  0  0  0  0  0  0  0  0  0  0
   21.2455   -5.4854  -15.5356 C   0  0  2  0  0  0  0  0  0  0  0  0
   21.0840   -6.8765  -15.2913 N   0  0  0  0  0  0  0  0  0  0  0  0
   21.9775   -4.8998  -14.3576 C   0  0  0  0  0  0  0  0  0  0  0  0
   22.4209   -3.5875  -14.5241 O   0  0  0  0  0  0  0  0  0  0  0  0
   22.1840   -5.5197  -13.3035 O   0  0  0  0  0  0  0  0  0  0  0  0
  2  1  1  6
  3  2  1  0
  3  4  1  0
  4  8  1  0
  5  4  2  0
  6  2  1  0
  6  7  2  0
  9 10  1  0
 10 11  1  0
 11 13  1  0
 11 12  1  1
 13 14  1  6
 13 15  1  0
 14  6  1  0
 15 20  1  0
 15 16  2  0
 18 17  1  0
 19 18  1  1
 20 19  1  0
 21 22  1  0
 21 19  1  0
 23 21  2  0
M  END
$$$$
