DIS.pdb
     RDKit          3D

 23 22  0  0  1  0  0  0  0  0999 V2000
   17.9782  -12.4726  -16.7410 N   0  0  0  0  0  0  0  0  0  0  0  0
   18.6809  -11.3777  -17.3347 C   0  0  1  0  0  0  0  0  0  0  0  0
   17.6819  -10.3367  -17.7843 C   0  0  0  0  0  0  0  0  0  0  0  0
   16.7991  -10.7397  -18.8652 C   0  0  0  0  0  0  0  0  0  0  0  0
   16.8518  -11.8779  -19.3753 O   0  0  0  0  0  0  0  0  0  0  0  0
   19.5999  -10.6960  -16.3920 C   0  0  0  0  0  0  0  0  0  0  0  0
   19.2233  -10.4845  -15.1885 O   0  0  0  0  0  0  0  0  0  0  0  0
   15.8717   -9.8259  -19.3394 O   0  0  0  0  0  0  0  0  0  0  0  0
   24.5353  -12.2697  -15.2613 C   0  0  0  0  0  0  0  0  0  0  0  0
   23.1476  -11.6854  -15.3006 C   0  0  0  0  0  0  0  0  0  0  0  0
   23.1073  -10.2584  -15.6815 C   0  0  2  0  0  0  0  0  0  0  0  0
   23.9799   -9.4927  -14.6705 C   0  0  0  0  0  0  0  0  0  0  0  0
   21.7827   -9.6011  -15.7848 C   0  0  2  0  0  0  0  0  0  0  0  0
   20.8955  -10.2529  -16.7379 N   0  0  0  0  0  0  0  0  0  0  0  0
   21.8882   -8.1419  -16.0090 C   0  0  0  0  0  0  0  0  0  0  0  0
   22.3144   -7.6453  -17.0820 O   0  0  0  0  0  0  0  0  0  0  0  0
   19.3114   -5.5755  -14.4199 O   0  0  0  0  0  0  0  0  0  0  0  0
   20.2376   -5.1125  -15.3799 C   0  0  0  0  0  0  0  0  0  0  0  0
   21.5697   -5.7742  -15.1794 C   0  0  2  0  0  0  0  0  0  0  0  0
   21.5111   -7.1845  -15.0107 N   0  0  0  0  0  0  0  0  0  0  0  0
   22.1507   -5.1902  -13.9193 C   0  0  0  0  0  0  0  0  0  0  0  0
   22.4147   -3.8210  -13.9637 O   0  0  0  0  0  0  0  0  0  0  0  0
   22.3867   -5.8582  -12.9013 O   0  0  0  0  0  0  0  0  0  0  0  0
  2  1  1  1
  3  2  1  0
  3  4  1  0
  4  8  1  0
  5  4  2  0
  6  2  1  0
  6  7  2  0
  9 10  1  0
 10 11  1  0
 11 13  1  0
 11 12  1  1
 13 14  1  6
 13 15  1  0
 14  6  1  0
 15 20  1  0
 15 16  2  0
 18 17  1  0
 19 18  1  1
 20 19  1  0
 21 22  1  0
 21 19  1  0
 23 21  2  0
M  END
$$$$
