DIS.pdb
     RDKit          3D

 23 22  0  0  1  0  0  0  0  0999 V2000
   18.8376  -13.5689  -17.1342 N   0  0  0  0  0  0  0  0  0  0  0  0
   19.4911  -12.4150  -17.6693 C   0  0  1  0  0  0  0  0  0  0  0  0
   18.4561  -11.5071  -18.2924 C   0  0  0  0  0  0  0  0  0  0  0  0
   17.7125  -12.0734  -19.4044 C   0  0  0  0  0  0  0  0  0  0  0  0
   16.8399  -11.4247  -20.0177 O   0  0  0  0  0  0  0  0  0  0  0  0
   20.1874  -11.6095  -16.6376 C   0  0  0  0  0  0  0  0  0  0  0  0
   19.6565  -11.4721  -15.4825 O   0  0  0  0  0  0  0  0  0  0  0  0
   17.9865  -13.3755  -19.7905 O   0  0  0  0  0  0  0  0  0  0  0  0
   23.2136  -12.3914  -13.7021 C   0  0  0  0  0  0  0  0  0  0  0  0
   23.6476  -12.1138  -15.1174 C   0  0  0  0  0  0  0  0  0  0  0  0
   23.4805  -10.7055  -15.5317 C   0  0  2  0  0  0  0  0  0  0  0  0
   24.1318   -9.8311  -14.4448 C   0  0  0  0  0  0  0  0  0  0  0  0
   22.1076  -10.2154  -15.7999 C   0  0  2  0  0  0  0  0  0  0  0  0
   21.4279  -10.9671  -16.8455 N   0  0  0  0  0  0  0  0  0  0  0  0
   22.0598   -8.7534  -16.0252 C   0  0  0  0  0  0  0  0  0  0  0  0
   22.4659   -8.2123  -17.0845 O   0  0  0  0  0  0  0  0  0  0  0  0
   19.8902   -4.5834  -15.4281 O   0  0  0  0  0  0  0  0  0  0  0  0
   19.9494   -5.9849  -15.2671 C   0  0  0  0  0  0  0  0  0  0  0  0
   21.3773   -6.4464  -15.2453 C   0  0  2  0  0  0  0  0  0  0  0  0
   21.5452   -7.8436  -15.0439 N   0  0  0  0  0  0  0  0  0  0  0  0
   22.0365   -5.7392  -14.0913 C   0  0  0  0  0  0  0  0  0  0  0  0
   22.0805   -6.4598  -12.8974 O   0  0  0  0  0  0  0  0  0  0  0  0
   22.5140   -4.5973  -14.1715 O   0  0  0  0  0  0  0  0  0  0  0  0
  2  1  1  1
  3  2  1  0
  3  4  1  0
  4  8  1  0
  5  4  2  0
  6  2  1  0
  6  7  2  0
  9 10  1  0
 10 11  1  0
 11 13  1  0
 11 12  1  1
 13 14  1  6
 13 15  1  0
 14  6  1  0
 15 20  1  0
 15 16  2  0
 18 17  1  0
 19 18  1  1
 20 19  1  0
 21 22  1  0
 21 19  1  0
 23 21  2  0
M  END
$$$$
