PFF.pdb
     RDKit          3D

 30 32  0  0  1  0  0  0  0  0999 V2000
   27.8300  -19.1256  -15.3285 N   0  0  0  0  0  0  0  0  0  0  0  0
   29.0726  -18.8274  -16.0195 C   0  0  0  0  0  0  0  0  0  0  0  0
   30.1096  -19.5946  -15.2306 C   0  0  0  0  0  0  0  0  0  0  0  0
   29.3174  -20.6237  -14.4162 C   0  0  0  0  0  0  0  0  0  0  0  0
   27.9617  -20.5263  -15.0604 C   0  0  1  0  0  0  0  0  0  0  0  0
   26.9338  -21.0317  -14.1176 C   0  0  0  0  0  0  0  0  0  0  0  0
   26.9021  -22.2514  -13.8129 O   0  0  0  0  0  0  0  0  0  0  0  0
   25.9513  -20.1975  -13.5181 N   0  0  0  0  0  0  0  0  0  0  0  0
   25.0099  -20.6435  -12.5139 C   0  0  1  0  0  0  0  0  0  0  0  0
   24.8750  -19.6410  -11.3852 C   0  0  0  0  0  0  0  0  0  0  0  0
   25.7320  -19.9807  -10.2331 C   0  0  0  0  0  0  0  0  0  0  0  0
   25.7096  -19.1764   -9.1132 C   0  0  0  0  0  0  0  0  0  0  0  0
   26.4928  -19.4518   -8.0094 C   0  0  0  0  0  0  0  0  0  0  0  0
   27.3306  -20.5452   -7.9838 C   0  0  0  0  0  0  0  0  0  0  0  0
   27.3643  -21.3606   -9.0981 C   0  0  0  0  0  0  0  0  0  0  0  0
   26.5718  -21.0729  -10.2018 C   0  0  0  0  0  0  0  0  0  0  0  0
   23.6758  -20.7610  -13.1413 C   0  0  0  0  0  0  0  0  0  0  0  0
   23.4574  -20.1411  -14.2071 O   0  0  0  0  0  0  0  0  0  0  0  0
   22.6187  -21.5395  -12.6058 N   0  0  0  0  0  0  0  0  0  0  0  0
   21.3166  -21.6957  -13.2723 C   0  0  1  0  0  0  0  0  0  0  0  0
   20.3749  -22.4779  -12.4267 C   0  0  0  0  0  0  0  0  0  0  0  0
   20.0338  -21.7407  -11.2007 C   0  0  0  0  0  0  0  0  0  0  0  0
   18.8689  -20.9956  -11.1484 C   0  0  0  0  0  0  0  0  0  0  0  0
   18.5283  -20.3236   -9.9968 C   0  0  0  0  0  0  0  0  0  0  0  0
   19.3162  -20.3612   -8.8655 C   0  0  0  0  0  0  0  0  0  0  0  0
   20.4677  -21.0921   -8.9028 C   0  0  0  0  0  0  0  0  0  0  0  0
   20.8091  -21.7716  -10.0715 C   0  0  0  0  0  0  0  0  0  0  0  0
   20.7823  -20.3544  -13.5478 C   0  0  0  0  0  0  0  0  0  0  0  0
   21.3962  -19.2496  -12.9559 O   0  0  0  0  0  0  0  0  0  0  0  0
   19.7997  -20.1845  -14.2935 O   0  0  0  0  0  0  0  0  0  0  0  0
  1  5  1  0
  2  1  1  0
  2  3  1  0
  3  4  1  0
  5  6  1  1
  5  4  1  0
  6  7  2  0
  8  9  1  0
  8  6  1  0
 10 11  1  0
  9 10  1  1
 11 16  2  0
 12 13  2  0
 12 11  1  0
 13 14  1  0
 14 15  2  0
 16 15  1  0
 17 18  2  0
 17  9  1  0
 19 17  1  0
 20 19  1  0
 20 28  1  0
 20 21  1  1
 22 21  1  0
 23 22  2  0
 24 23  1  0
 25 24  2  0
 25 26  1  0
 26 27  2  0
 27 22  1  0
 28 29  1  0
 30 28  2  0
M  END
$$$$
