PFF.pdb
     RDKit          3D

 30 32  0  0  1  0  0  0  0  0999 V2000
   29.0131  -21.1393  -17.3718 N   0  0  0  0  0  0  0  0  0  0  0  0
   30.0352  -21.5477  -18.3199 C   0  0  0  0  0  0  0  0  0  0  0  0
   30.6269  -22.7885  -17.6902 C   0  0  0  0  0  0  0  0  0  0  0  0
   29.5981  -23.2424  -16.6483 C   0  0  0  0  0  0  0  0  0  0  0  0
   28.4142  -22.3904  -17.0151 C   0  0  1  0  0  0  0  0  0  0  0  0
   27.5070  -22.2825  -15.8462 C   0  0  0  0  0  0  0  0  0  0  0  0
   27.2623  -23.2951  -15.1417 O   0  0  0  0  0  0  0  0  0  0  0  0
   26.8771  -21.0681  -15.4603 N   0  0  0  0  0  0  0  0  0  0  0  0
   26.1552  -20.8859  -14.2196 C   0  0  1  0  0  0  0  0  0  0  0  0
   26.7686  -19.7926  -13.3677 C   0  0  0  0  0  0  0  0  0  0  0  0
   27.8820  -20.2916  -12.5380 C   0  0  0  0  0  0  0  0  0  0  0  0
   27.6057  -20.9121  -11.3380 C   0  0  0  0  0  0  0  0  0  0  0  0
   28.6124  -21.3962  -10.5256 C   0  0  0  0  0  0  0  0  0  0  0  0
   29.9375  -21.2777  -10.8839 C   0  0  0  0  0  0  0  0  0  0  0  0
   30.2304  -20.6584  -12.0832 C   0  0  0  0  0  0  0  0  0  0  0  0
   29.2091  -20.1758  -12.8912 C   0  0  0  0  0  0  0  0  0  0  0  0
   24.7768  -20.4551  -14.5383 C   0  0  0  0  0  0  0  0  0  0  0  0
   24.5699  -19.8570  -15.6188 O   0  0  0  0  0  0  0  0  0  0  0  0
   23.6645  -20.6793  -13.6882 N   0  0  0  0  0  0  0  0  0  0  0  0
   22.2699  -20.5191  -14.1282 C   0  0  1  0  0  0  0  0  0  0  0  0
   21.3357  -21.2191  -13.2057 C   0  0  0  0  0  0  0  0  0  0  0  0
   21.5007  -20.7371  -11.8261 C   0  0  0  0  0  0  0  0  0  0  0  0
   22.5784  -21.1673  -11.0721 C   0  0  0  0  0  0  0  0  0  0  0  0
   22.7554  -20.7016   -9.7893 C   0  0  0  0  0  0  0  0  0  0  0  0
   21.8849  -19.8033   -9.2086 C   0  0  0  0  0  0  0  0  0  0  0  0
   20.8179  -19.3704   -9.9405 C   0  0  0  0  0  0  0  0  0  0  0  0
   20.6422  -19.8446  -11.2399 C   0  0  0  0  0  0  0  0  0  0  0  0
   21.9721  -19.0809  -14.1830 C   0  0  0  0  0  0  0  0  0  0  0  0
   22.9234  -18.1769  -13.7077 O   0  0  0  0  0  0  0  0  0  0  0  0
   20.8957  -18.6548  -14.6416 O   0  0  0  0  0  0  0  0  0  0  0  0
  1  5  1  0
  2  1  1  0
  2  3  1  0
  3  4  1  0
  5  6  1  1
  5  4  1  0
  6  7  2  0
  8  9  1  0
  8  6  1  0
 10 11  1  0
  9 10  1  1
 11 16  2  0
 12 13  2  0
 12 11  1  0
 13 14  1  0
 14 15  2  0
 16 15  1  0
 17 18  2  0
 17  9  1  0
 19 17  1  0
 20 19  1  0
 20 28  1  0
 20 21  1  1
 22 21  1  0
 23 22  2  0
 24 23  1  0
 25 24  2  0
 25 26  1  0
 26 27  2  0
 27 22  1  0
 28 29  1  0
 30 28  2  0
M  END
$$$$
