PFF.pdb
     RDKit          3D

 30 32  0  0  1  0  0  0  0  0999 V2000
   21.2575  -34.9950   -9.7836 N   0  0  0  0  0  0  0  0  0  0  0  0
   20.4657  -34.3728  -10.8307 C   0  0  0  0  0  0  0  0  0  0  0  0
   21.5047  -33.7726  -11.7509 C   0  0  0  0  0  0  0  0  0  0  0  0
   22.8176  -34.4777  -11.3920 C   0  0  0  0  0  0  0  0  0  0  0  0
   22.3190  -35.6033  -10.5280 C   0  0  1  0  0  0  0  0  0  0  0  0
   23.4251  -36.0858   -9.6650 C   0  0  0  0  0  0  0  0  0  0  0  0
   24.4795  -36.5350  -10.1827 O   0  0  0  0  0  0  0  0  0  0  0  0
   23.3661  -36.0718   -8.2449 N   0  0  0  0  0  0  0  0  0  0  0  0
   24.5018  -36.3157   -7.3821 C   0  0  1  0  0  0  0  0  0  0  0  0
   24.8019  -35.1223   -6.4972 C   0  0  0  0  0  0  0  0  0  0  0  0
   25.2303  -33.9448   -7.2764 C   0  0  0  0  0  0  0  0  0  0  0  0
   26.4488  -33.9678   -7.9216 C   0  0  0  0  0  0  0  0  0  0  0  0
   26.8947  -32.8912   -8.6633 C   0  0  0  0  0  0  0  0  0  0  0  0
   26.1365  -31.7476   -8.7879 C   0  0  0  0  0  0  0  0  0  0  0  0
   24.9134  -31.7093   -8.1474 C   0  0  0  0  0  0  0  0  0  0  0  0
   24.4763  -32.7984   -7.4046 C   0  0  0  0  0  0  0  0  0  0  0  0
   24.1732  -37.4420   -6.4818 C   0  0  0  0  0  0  0  0  0  0  0  0
   23.0722  -37.4318   -5.8854 O   0  0  0  0  0  0  0  0  0  0  0  0
   25.0357  -38.5431   -6.2497 N   0  0  0  0  0  0  0  0  0  0  0  0
   24.6947  -39.6574   -5.3518 C   0  0  1  0  0  0  0  0  0  0  0  0
   24.6974  -40.9526   -6.0840 C   0  0  0  0  0  0  0  0  0  0  0  0
   24.4619  -42.0760   -5.1646 C   0  0  0  0  0  0  0  0  0  0  0  0
   23.1747  -42.5440   -4.9669 C   0  0  0  0  0  0  0  0  0  0  0  0
   22.9476  -43.6115   -4.1286 C   0  0  0  0  0  0  0  0  0  0  0  0
   23.9713  -44.2505   -3.4610 C   0  0  0  0  0  0  0  0  0  0  0  0
   25.2457  -43.7997   -3.6467 C   0  0  0  0  0  0  0  0  0  0  0  0
   25.4715  -42.7179   -4.4970 C   0  0  0  0  0  0  0  0  0  0  0  0
   25.6729  -39.6740   -4.2549 C   0  0  0  0  0  0  0  0  0  0  0  0
   25.3246  -40.2868   -3.0503 O   0  0  0  0  0  0  0  0  0  0  0  0
   26.7986  -39.1560   -4.3772 O   0  0  0  0  0  0  0  0  0  0  0  0
  1  5  1  0
  2  1  1  0
  2  3  1  0
  3  4  1  0
  5  6  1  1
  5  4  1  0
  6  7  2  0
  8  9  1  0
  8  6  1  0
 10 11  1  0
  9 10  1  1
 11 16  2  0
 12 13  2  0
 12 11  1  0
 13 14  1  0
 14 15  2  0
 16 15  1  0
 17 18  2  0
 17  9  1  0
 19 17  1  0
 20 19  1  0
 20 28  1  0
 20 21  1  6
 22 21  1  0
 23 22  2  0
 24 23  1  0
 25 24  2  0
 25 26  1  0
 26 27  2  0
 27 22  1  0
 28 29  1  0
 30 28  2  0
M  END
$$$$
