PFF.pdb
     RDKit          3D

 30 32  0  0  1  0  0  0  0  0999 V2000
   27.8722  -19.6065  -13.2622 N   0  0  0  0  0  0  0  0  0  0  0  0
   28.1941  -19.6756  -14.6771 C   0  0  0  0  0  0  0  0  0  0  0  0
   29.0067  -20.9454  -14.7939 C   0  0  0  0  0  0  0  0  0  0  0  0
   28.7117  -21.7329  -13.5121 C   0  0  0  0  0  0  0  0  0  0  0  0
   27.5408  -20.9668  -12.9606 C   0  0  1  0  0  0  0  0  0  0  0  0
   27.4297  -21.2234  -11.5036 C   0  0  0  0  0  0  0  0  0  0  0  0
   26.9271  -22.2990  -11.0888 O   0  0  0  0  0  0  0  0  0  0  0  0
   27.8695  -20.3007  -10.5159 N   0  0  0  0  0  0  0  0  0  0  0  0
   27.7696  -20.5276   -9.0903 C   0  0  1  0  0  0  0  0  0  0  0  0
   28.6116  -19.5426   -8.3040 C   0  0  0  0  0  0  0  0  0  0  0  0
   28.4419  -19.7036   -6.8471 C   0  0  0  0  0  0  0  0  0  0  0  0
   29.0469  -20.7658   -6.2092 C   0  0  0  0  0  0  0  0  0  0  0  0
   28.9183  -20.9600   -4.8477 C   0  0  0  0  0  0  0  0  0  0  0  0
   28.1776  -20.0966   -4.0706 C   0  0  0  0  0  0  0  0  0  0  0  0
   27.5653  -19.0276   -4.6951 C   0  0  0  0  0  0  0  0  0  0  0  0
   27.7022  -18.8432   -6.0648 C   0  0  0  0  0  0  0  0  0  0  0  0
   26.3656  -20.3120   -8.6786 C   0  0  0  0  0  0  0  0  0  0  0  0
   25.7752  -19.2819   -9.0765 O   0  0  0  0  0  0  0  0  0  0  0  0
   25.6397  -21.2077   -7.8534 N   0  0  0  0  0  0  0  0  0  0  0  0
   24.2392  -20.9858   -7.4616 C   0  0  1  0  0  0  0  0  0  0  0  0
   23.3134  -21.7666   -8.3258 C   0  0  0  0  0  0  0  0  0  0  0  0
   21.9122  -21.5117   -7.9590 C   0  0  0  0  0  0  0  0  0  0  0  0
   21.2337  -20.4508   -8.5327 C   0  0  0  0  0  0  0  0  0  0  0  0
   19.9146  -20.2201   -8.2154 C   0  0  0  0  0  0  0  0  0  0  0  0
   19.2229  -21.0192   -7.3294 C   0  0  0  0  0  0  0  0  0  0  0  0
   19.8794  -22.0691   -6.7563 C   0  0  0  0  0  0  0  0  0  0  0  0
   21.2158  -22.2994   -7.0806 C   0  0  0  0  0  0  0  0  0  0  0  0
   24.0935  -21.3756   -6.0519 C   0  0  0  0  0  0  0  0  0  0  0  0
   23.0697  -20.8022   -5.2963 O   0  0  0  0  0  0  0  0  0  0  0  0
   24.8596  -22.2014   -5.5212 O   0  0  0  0  0  0  0  0  0  0  0  0
  1  5  1  0
  2  1  1  0
  2  3  1  0
  3  4  1  0
  5  6  1  1
  5  4  1  0
  6  7  2  0
  8  9  1  0
  8  6  1  0
 10 11  1  0
  9 10  1  1
 11 16  2  0
 12 13  2  0
 12 11  1  0
 13 14  1  0
 14 15  2  0
 16 15  1  0
 17 18  2  0
 17  9  1  0
 19 17  1  0
 20 19  1  0
 20 28  1  0
 20 21  1  6
 22 21  1  0
 23 22  2  0
 24 23  1  0
 25 24  2  0
 25 26  1  0
 26 27  2  0
 27 22  1  0
 28 29  1  0
 30 28  2  0
M  END
$$$$
