PFF.pdb
     RDKit          3D

 30 32  0  0  1  0  0  0  0  0999 V2000
   28.6872  -20.9781  -17.4003 N   0  0  0  0  0  0  0  0  0  0  0  0
   29.6093  -21.3431  -18.4619 C   0  0  0  0  0  0  0  0  0  0  0  0
   30.0879  -22.7193  -18.0578 C   0  0  0  0  0  0  0  0  0  0  0  0
   29.0670  -23.2154  -17.0275 C   0  0  0  0  0  0  0  0  0  0  0  0
   27.9698  -22.1996  -17.1896 C   0  0  1  0  0  0  0  0  0  0  0  0
   27.1389  -22.1753  -15.9608 C   0  0  0  0  0  0  0  0  0  0  0  0
   26.2154  -23.0149  -15.8068 O   0  0  0  0  0  0  0  0  0  0  0  0
   27.3270  -21.2328  -14.9136 N   0  0  0  0  0  0  0  0  0  0  0  0
   26.5424  -21.2014  -13.6982 C   0  0  1  0  0  0  0  0  0  0  0  0
   27.3342  -20.6438  -12.5322 C   0  0  0  0  0  0  0  0  0  0  0  0
   26.5151  -20.5197  -11.3113 C   0  0  0  0  0  0  0  0  0  0  0  0
   26.2113  -21.6506  -10.5830 C   0  0  0  0  0  0  0  0  0  0  0  0
   25.4482  -21.5870   -9.4335 C   0  0  0  0  0  0  0  0  0  0  0  0
   24.9587  -20.3863   -8.9675 C   0  0  0  0  0  0  0  0  0  0  0  0
   25.2545  -19.2445   -9.6861 C   0  0  0  0  0  0  0  0  0  0  0  0
   26.0228  -19.3217  -10.8405 C   0  0  0  0  0  0  0  0  0  0  0  0
   25.3930  -20.2941  -13.9055 C   0  0  0  0  0  0  0  0  0  0  0  0
   25.6140  -19.1263  -14.2996 O   0  0  0  0  0  0  0  0  0  0  0  0
   24.0435  -20.6682  -13.6836 N   0  0  0  0  0  0  0  0  0  0  0  0
   22.9250  -19.7140  -13.7347 C   0  0  1  0  0  0  0  0  0  0  0  0
   22.7006  -19.2290  -15.1232 C   0  0  0  0  0  0  0  0  0  0  0  0
   22.3677  -20.3447  -16.0217 C   0  0  0  0  0  0  0  0  0  0  0  0
   23.3766  -21.0036  -16.7022 C   0  0  0  0  0  0  0  0  0  0  0  0
   23.0775  -22.0654  -17.5249 C   0  0  0  0  0  0  0  0  0  0  0  0
   21.7852  -22.5122  -17.7051 C   0  0  0  0  0  0  0  0  0  0  0  0
   20.7804  -21.8720  -17.0402 C   0  0  0  0  0  0  0  0  0  0  0  0
   21.0878  -20.7966  -16.2075 C   0  0  0  0  0  0  0  0  0  0  0  0
   21.7268  -20.3888  -13.2156 C   0  0  0  0  0  0  0  0  0  0  0  0
   20.5114  -19.7027  -13.2207 O   0  0  0  0  0  0  0  0  0  0  0  0
   21.7733  -21.5522  -12.7743 O   0  0  0  0  0  0  0  0  0  0  0  0
  1  5  1  0
  2  1  1  0
  2  3  1  0
  3  4  1  0
  5  6  1  1
  5  4  1  0
  6  7  2  0
  8  9  1  0
  8  6  1  0
 10 11  1  0
  9 10  1  1
 11 16  2  0
 12 13  2  0
 12 11  1  0
 13 14  1  0
 14 15  2  0
 16 15  1  0
 17 18  2  0
 17  9  1  0
 19 17  1  0
 20 19  1  0
 20 28  1  0
 20 21  1  6
 22 21  1  0
 23 22  2  0
 24 23  1  0
 25 24  2  0
 25 26  1  0
 26 27  2  0
 27 22  1  0
 28 29  1  0
 30 28  2  0
M  END
$$$$
