PFF.pdb
     RDKit          3D

 30 32  0  0  1  0  0  0  0  0999 V2000
   28.0029  -20.4606  -16.9470 N   0  0  0  0  0  0  0  0  0  0  0  0
   28.8491  -20.6547  -18.1118 C   0  0  0  0  0  0  0  0  0  0  0  0
   29.5287  -21.9777  -17.8393 C   0  0  0  0  0  0  0  0  0  0  0  0
   28.6854  -22.6477  -16.7484 C   0  0  0  0  0  0  0  0  0  0  0  0
   27.4630  -21.7714  -16.7435 C   0  0  1  0  0  0  0  0  0  0  0  0
   26.7649  -21.9114  -15.4420 C   0  0  0  0  0  0  0  0  0  0  0  0
   25.9128  -22.8216  -15.2776 O   0  0  0  0  0  0  0  0  0  0  0  0
   27.0063  -21.0543  -14.3340 N   0  0  0  0  0  0  0  0  0  0  0  0
   26.3249  -21.1595  -13.0619 C   0  0  1  0  0  0  0  0  0  0  0  0
   27.1753  -20.6322  -11.9234 C   0  0  0  0  0  0  0  0  0  0  0  0
   26.4248  -20.5593  -10.6551 C   0  0  0  0  0  0  0  0  0  0  0  0
   26.5422  -19.4363   -9.8636 C   0  0  0  0  0  0  0  0  0  0  0  0
   25.8606  -19.3199   -8.6679 C   0  0  0  0  0  0  0  0  0  0  0  0
   25.0333  -20.3253   -8.2174 C   0  0  0  0  0  0  0  0  0  0  0  0
   24.9052  -21.4567   -8.9992 C   0  0  0  0  0  0  0  0  0  0  0  0
   25.5960  -21.5616  -10.1995 C   0  0  0  0  0  0  0  0  0  0  0  0
   25.1090  -20.3188  -13.1104 C   0  0  0  0  0  0  0  0  0  0  0  0
   25.2380  -19.0879  -13.3007 O   0  0  0  0  0  0  0  0  0  0  0  0
   23.7940  -20.8250  -12.9535 N   0  0  0  0  0  0  0  0  0  0  0  0
   22.6061  -19.9628  -12.8555 C   0  0  1  0  0  0  0  0  0  0  0  0
   22.3558  -19.2517  -14.1382 C   0  0  0  0  0  0  0  0  0  0  0  0
   22.1826  -20.2069  -15.2430 C   0  0  0  0  0  0  0  0  0  0  0  0
   20.9719  -20.8571  -15.4059 C   0  0  0  0  0  0  0  0  0  0  0  0
   20.7920  -21.7329  -16.4520 C   0  0  0  0  0  0  0  0  0  0  0  0
   21.7895  -21.9971  -17.3670 C   0  0  0  0  0  0  0  0  0  0  0  0
   22.9884  -21.3630  -17.2188 C   0  0  0  0  0  0  0  0  0  0  0  0
   23.1665  -20.4763  -16.1575 C   0  0  0  0  0  0  0  0  0  0  0  0
   21.4592  -20.8073  -12.4926 C   0  0  0  0  0  0  0  0  0  0  0  0
   20.2237  -20.2019  -12.2578 O   0  0  0  0  0  0  0  0  0  0  0  0
   21.5661  -22.0437  -12.3909 O   0  0  0  0  0  0  0  0  0  0  0  0
  1  5  1  0
  2  1  1  0
  2  3  1  0
  3  4  1  0
  5  6  1  1
  5  4  1  0
  6  7  2  0
  8  9  1  0
  8  6  1  0
 10 11  1  0
  9 10  1  1
 11 16  2  0
 12 13  2  0
 12 11  1  0
 13 14  1  0
 14 15  2  0
 16 15  1  0
 17 18  2  0
 17  9  1  0
 19 17  1  0
 20 19  1  0
 20 28  1  0
 20 21  1  6
 22 21  1  0
 23 22  2  0
 24 23  1  0
 25 24  2  0
 25 26  1  0
 26 27  2  0
 27 22  1  0
 28 29  1  0
 30 28  2  0
M  END
$$$$
