PFF.pdb
     RDKit          3D

 30 32  0  0  1  0  0  0  0  0999 V2000
   27.2448  -21.9013  -17.9451 N   0  0  0  0  0  0  0  0  0  0  0  0
   27.7651  -21.1426  -19.0695 C   0  0  0  0  0  0  0  0  0  0  0  0
   27.2670  -19.7386  -18.8102 C   0  0  0  0  0  0  0  0  0  0  0  0
   26.8731  -19.7170  -17.3289 C   0  0  0  0  0  0  0  0  0  0  0  0
   27.4723  -21.0098  -16.8475 C   0  0  1  0  0  0  0  0  0  0  0  0
   26.7826  -21.4372  -15.6056 C   0  0  0  0  0  0  0  0  0  0  0  0
   25.8507  -22.2801  -15.6593 O   0  0  0  0  0  0  0  0  0  0  0  0
   27.1195  -20.9382  -14.3180 N   0  0  0  0  0  0  0  0  0  0  0  0
   26.3078  -21.1280  -13.1352 C   0  0  1  0  0  0  0  0  0  0  0  0
   27.0398  -20.7046  -11.8773 C   0  0  0  0  0  0  0  0  0  0  0  0
   26.1683  -20.7397  -10.6872 C   0  0  0  0  0  0  0  0  0  0  0  0
   25.5939  -21.9336  -10.3048 C   0  0  0  0  0  0  0  0  0  0  0  0
   24.7709  -22.0185   -9.1987 C   0  0  0  0  0  0  0  0  0  0  0  0
   24.4905  -20.9093   -8.4312 C   0  0  0  0  0  0  0  0  0  0  0  0
   25.0584  -19.7059   -8.8015 C   0  0  0  0  0  0  0  0  0  0  0  0
   25.8843  -19.6337   -9.9158 C   0  0  0  0  0  0  0  0  0  0  0  0
   25.1121  -20.2644  -13.2436 C   0  0  0  0  0  0  0  0  0  0  0  0
   25.2705  -19.0512  -13.5103 O   0  0  0  0  0  0  0  0  0  0  0  0
   23.7850  -20.7294  -13.0626 N   0  0  0  0  0  0  0  0  0  0  0  0
   22.6181  -19.8348  -13.0161 C   0  0  1  0  0  0  0  0  0  0  0  0
   22.4273  -19.1388  -14.3173 C   0  0  0  0  0  0  0  0  0  0  0  0
   22.1883  -20.1054  -15.3997 C   0  0  0  0  0  0  0  0  0  0  0  0
   21.0294  -20.8618  -15.4021 C   0  0  0  0  0  0  0  0  0  0  0  0
   20.7849  -21.7499  -16.4245 C   0  0  0  0  0  0  0  0  0  0  0  0
   21.6653  -21.9230  -17.4718 C   0  0  0  0  0  0  0  0  0  0  0  0
   22.8120  -21.1837  -17.4824 C   0  0  0  0  0  0  0  0  0  0  0  0
   23.0559  -20.2849  -16.4446 C   0  0  0  0  0  0  0  0  0  0  0  0
   21.4382  -20.6428  -12.6766 C   0  0  0  0  0  0  0  0  0  0  0  0
   21.6033  -22.0066  -12.4303 O   0  0  0  0  0  0  0  0  0  0  0  0
   20.3017  -20.1392  -12.6047 O   0  0  0  0  0  0  0  0  0  0  0  0
  1  5  1  0
  2  1  1  0
  2  3  1  0
  3  4  1  0
  5  6  1  1
  5  4  1  0
  6  7  2  0
  8  9  1  0
  8  6  1  0
 10 11  1  0
  9 10  1  1
 11 16  2  0
 12 13  2  0
 12 11  1  0
 13 14  1  0
 14 15  2  0
 16 15  1  0
 17 18  2  0
 17  9  1  0
 19 17  1  0
 20 19  1  0
 20 28  1  0
 20 21  1  6
 22 21  1  0
 23 22  2  0
 24 23  1  0
 25 24  2  0
 25 26  1  0
 26 27  2  0
 27 22  1  0
 28 29  1  0
 30 28  2  0
M  END
$$$$
