PFF.pdb
     RDKit          3D

 30 32  0  0  1  0  0  0  0  0999 V2000
   27.7337  -21.1759  -15.6590 N   0  0  0  0  0  0  0  0  0  0  0  0
   28.2462  -21.0274  -17.0102 C   0  0  0  0  0  0  0  0  0  0  0  0
   27.8238  -19.6282  -17.3974 C   0  0  0  0  0  0  0  0  0  0  0  0
   27.4870  -18.9278  -16.0760 C   0  0  0  0  0  0  0  0  0  0  0  0
   28.0433  -19.9046  -15.0767 C   0  0  1  0  0  0  0  0  0  0  0  0
   27.3815  -19.6947  -13.7657 C   0  0  0  0  0  0  0  0  0  0  0  0
   27.5853  -18.6361  -13.1181 O   0  0  0  0  0  0  0  0  0  0  0  0
   26.5038  -20.6452  -13.1768 N   0  0  0  0  0  0  0  0  0  0  0  0
   25.5571  -20.3356  -12.1272 C   0  0  1  0  0  0  0  0  0  0  0  0
   24.2728  -21.1264  -12.2775 C   0  0  0  0  0  0  0  0  0  0  0  0
   23.2264  -20.6724  -11.3414 C   0  0  0  0  0  0  0  0  0  0  0  0
   22.3911  -19.6391  -11.7103 C   0  0  0  0  0  0  0  0  0  0  0  0
   21.3967  -19.1781  -10.8699 C   0  0  0  0  0  0  0  0  0  0  0  0
   21.1995  -19.7347   -9.6251 C   0  0  0  0  0  0  0  0  0  0  0  0
   22.0283  -20.7707   -9.2411 C   0  0  0  0  0  0  0  0  0  0  0  0
   23.0246  -21.2253  -10.0953 C   0  0  0  0  0  0  0  0  0  0  0  0
   26.1500  -20.7282  -10.8304 C   0  0  0  0  0  0  0  0  0  0  0  0
   26.6366  -21.8764  -10.7163 O   0  0  0  0  0  0  0  0  0  0  0  0
   26.2021  -19.8772   -9.6977 N   0  0  0  0  0  0  0  0  0  0  0  0
   26.8310  -20.2671   -8.4262 C   0  0  1  0  0  0  0  0  0  0  0  0
   27.6447  -19.1527   -7.8697 C   0  0  0  0  0  0  0  0  0  0  0  0
   28.1715  -19.4998   -6.5412 C   0  0  0  0  0  0  0  0  0  0  0  0
   27.6317  -18.9092   -5.4121 C   0  0  0  0  0  0  0  0  0  0  0  0
   28.1003  -19.2472   -4.1631 C   0  0  0  0  0  0  0  0  0  0  0  0
   29.1085  -20.1708   -3.9833 C   0  0  0  0  0  0  0  0  0  0  0  0
   29.6500  -20.7612   -5.0878 C   0  0  0  0  0  0  0  0  0  0  0  0
   29.1722  -20.4161   -6.3515 C   0  0  0  0  0  0  0  0  0  0  0  0
   25.7654  -20.6549   -7.4912 C   0  0  0  0  0  0  0  0  0  0  0  0
   24.4696  -20.1864   -7.7139 O   0  0  0  0  0  0  0  0  0  0  0  0
   25.9930  -21.3880   -6.5107 O   0  0  0  0  0  0  0  0  0  0  0  0
  1  5  1  0
  2  1  1  0
  2  3  1  0
  3  4  1  0
  5  6  1  1
  5  4  1  0
  6  7  2  0
  8  9  1  0
  8  6  1  0
 10 11  1  0
  9 10  1  6
 11 16  2  0
 12 13  2  0
 12 11  1  0
 13 14  1  0
 14 15  2  0
 16 15  1  0
 17 18  2  0
 17  9  1  0
 19 17  1  0
 20 19  1  0
 20 28  1  0
 20 21  1  1
 22 21  1  0
 23 22  2  0
 24 23  1  0
 25 24  2  0
 25 26  1  0
 26 27  2  0
 27 22  1  0
 28 29  1  0
 30 28  2  0
M  END
$$$$
