PFF.pdb
     RDKit          3D

 30 32  0  0  1  0  0  0  0  0999 V2000
   27.7943  -18.7268  -16.1364 N   0  0  0  0  0  0  0  0  0  0  0  0
   28.7956  -18.4472  -17.1511 C   0  0  0  0  0  0  0  0  0  0  0  0
   29.7780  -19.5872  -17.0029 C   0  0  0  0  0  0  0  0  0  0  0  0
   29.0285  -20.6658  -16.2124 C   0  0  0  0  0  0  0  0  0  0  0  0
   27.6195  -20.1424  -16.2658 C   0  0  1  0  0  0  0  0  0  0  0  0
   26.8357  -20.7304  -15.1520 C   0  0  0  0  0  0  0  0  0  0  0  0
   26.4117  -21.9116  -15.2334 O   0  0  0  0  0  0  0  0  0  0  0  0
   26.5239  -20.0202  -13.9608 N   0  0  0  0  0  0  0  0  0  0  0  0
   25.7716  -20.5760  -12.8568 C   0  0  1  0  0  0  0  0  0  0  0  0
   26.2765  -20.0689  -11.5207 C   0  0  0  0  0  0  0  0  0  0  0  0
   27.6824  -20.4447  -11.2775 C   0  0  0  0  0  0  0  0  0  0  0  0
   27.9918  -21.2416  -10.1954 C   0  0  0  0  0  0  0  0  0  0  0  0
   29.2922  -21.6208   -9.9250 C   0  0  0  0  0  0  0  0  0  0  0  0
   30.3353  -21.2161  -10.7290 C   0  0  0  0  0  0  0  0  0  0  0  0
   30.0414  -20.4176  -11.8169 C   0  0  0  0  0  0  0  0  0  0  0  0
   28.7297  -20.0431  -12.0781 C   0  0  0  0  0  0  0  0  0  0  0  0
   24.3657  -20.1329  -12.9773 C   0  0  0  0  0  0  0  0  0  0  0  0
   24.1368  -18.9412  -13.2864 O   0  0  0  0  0  0  0  0  0  0  0  0
   23.2506  -20.9817  -12.7626 N   0  0  0  0  0  0  0  0  0  0  0  0
   21.9107  -20.7021  -13.3018 C   0  0  1  0  0  0  0  0  0  0  0  0
   21.8558  -20.9765  -14.7631 C   0  0  0  0  0  0  0  0  0  0  0  0
   20.5258  -20.6625  -15.3066 C   0  0  0  0  0  0  0  0  0  0  0  0
   20.2411  -19.3747  -15.7257 C   0  0  0  0  0  0  0  0  0  0  0  0
   19.0082  -19.0774  -16.2598 C   0  0  0  0  0  0  0  0  0  0  0  0
   18.0204  -20.0297  -16.3990 C   0  0  0  0  0  0  0  0  0  0  0  0
   18.2873  -21.3037  -15.9901 C   0  0  0  0  0  0  0  0  0  0  0  0
   19.5378  -21.6008  -15.4496 C   0  0  0  0  0  0  0  0  0  0  0  0
   20.9441  -21.5379  -12.5755 C   0  0  0  0  0  0  0  0  0  0  0  0
   19.7243  -20.9789  -12.1914 O   0  0  0  0  0  0  0  0  0  0  0  0
   21.1894  -22.7266  -12.2974 O   0  0  0  0  0  0  0  0  0  0  0  0
  1  5  1  0
  2  1  1  0
  2  3  1  0
  3  4  1  0
  5  6  1  1
  5  4  1  0
  6  7  2  0
  8  9  1  0
  8  6  1  0
 10 11  1  0
  9 10  1  1
 11 16  2  0
 12 13  2  0
 12 11  1  0
 13 14  1  0
 14 15  2  0
 16 15  1  0
 17 18  2  0
 17  9  1  0
 19 17  1  0
 20 19  1  0
 20 28  1  0
 20 21  1  6
 22 21  1  0
 23 22  2  0
 24 23  1  0
 25 24  2  0
 25 26  1  0
 26 27  2  0
 27 22  1  0
 28 29  1  0
 30 28  2  0
M  END
$$$$
