PFF.pdb
     RDKit          3D

 30 32  0  0  1  0  0  0  0  0999 V2000
   27.9157  -20.3070  -16.9175 N   0  0  0  0  0  0  0  0  0  0  0  0
   28.8817  -20.4411  -17.9942 C   0  0  0  0  0  0  0  0  0  0  0  0
   29.7612  -21.5843  -17.5406 C   0  0  0  0  0  0  0  0  0  0  0  0
   28.9598  -22.3016  -16.4484 C   0  0  0  0  0  0  0  0  0  0  0  0
   27.6042  -21.6726  -16.6187 C   0  0  1  0  0  0  0  0  0  0  0  0
   26.8314  -21.8257  -15.3617 C   0  0  0  0  0  0  0  0  0  0  0  0
   26.0043  -22.7652  -15.2398 O   0  0  0  0  0  0  0  0  0  0  0  0
   26.9715  -20.9495  -14.2512 N   0  0  0  0  0  0  0  0  0  0  0  0
   26.3143  -21.1418  -12.9766 C   0  0  1  0  0  0  0  0  0  0  0  0
   27.0457  -20.4327  -11.8543 C   0  0  0  0  0  0  0  0  0  0  0  0
   26.3228  -20.5268  -10.5715 C   0  0  0  0  0  0  0  0  0  0  0  0
   26.8312  -19.8878   -9.4603 C   0  0  0  0  0  0  0  0  0  0  0  0
   26.1921  -19.9457   -8.2372 C   0  0  0  0  0  0  0  0  0  0  0  0
   25.0169  -20.6470   -8.0788 C   0  0  0  0  0  0  0  0  0  0  0  0
   24.4949  -21.2926   -9.1826 C   0  0  0  0  0  0  0  0  0  0  0  0
   25.1471  -21.2267  -10.4071 C   0  0  0  0  0  0  0  0  0  0  0  0
   24.9639  -20.5431  -13.0504 C   0  0  0  0  0  0  0  0  0  0  0  0
   24.8624  -19.3221  -13.3089 O   0  0  0  0  0  0  0  0  0  0  0  0
   23.7659  -21.2728  -12.8446 N   0  0  0  0  0  0  0  0  0  0  0  0
   22.4343  -20.7453  -13.1807 C   0  0  1  0  0  0  0  0  0  0  0  0
   21.8835  -21.4175  -14.3884 C   0  0  0  0  0  0  0  0  0  0  0  0
   20.5453  -20.9005  -14.7126 C   0  0  0  0  0  0  0  0  0  0  0  0
   19.4217  -21.5871  -14.2871 C   0  0  0  0  0  0  0  0  0  0  0  0
   18.1656  -21.0974  -14.5631 C   0  0  0  0  0  0  0  0  0  0  0  0
   17.9732  -19.9241  -15.2620 C   0  0  0  0  0  0  0  0  0  0  0  0
   19.0722  -19.2366  -15.6876 C   0  0  0  0  0  0  0  0  0  0  0  0
   20.3431  -19.7362  -15.4057 C   0  0  0  0  0  0  0  0  0  0  0  0
   21.5564  -20.9520  -12.0201 C   0  0  0  0  0  0  0  0  0  0  0  0
   20.7434  -19.9006  -11.5942 O   0  0  0  0  0  0  0  0  0  0  0  0
   21.5232  -22.0386  -11.4130 O   0  0  0  0  0  0  0  0  0  0  0  0
  1  5  1  0
  2  1  1  0
  2  3  1  0
  3  4  1  0
  5  6  1  1
  5  4  1  0
  6  7  2  0
  8  9  1  0
  8  6  1  0
 10 11  1  0
  9 10  1  1
 11 16  2  0
 12 13  2  0
 12 11  1  0
 13 14  1  0
 14 15  2  0
 16 15  1  0
 17 18  2  0
 17  9  1  0
 19 17  1  0
 20 19  1  0
 20 28  1  0
 20 21  1  6
 22 21  1  0
 23 22  2  0
 24 23  1  0
 25 24  2  0
 25 26  1  0
 26 27  2  0
 27 22  1  0
 28 29  1  0
 30 28  2  0
M  END
$$$$
