PFF.pdb
     RDKit          3D

 30 32  0  0  1  0  0  0  0  0999 V2000
   28.2760  -21.4408  -14.3427 N   0  0  0  0  0  0  0  0  0  0  0  0
   28.2251  -20.7029  -15.5931 C   0  0  0  0  0  0  0  0  0  0  0  0
   27.3617  -19.5062  -15.2631 C   0  0  0  0  0  0  0  0  0  0  0  0
   27.3510  -19.4257  -13.7323 C   0  0  0  0  0  0  0  0  0  0  0  0
   28.4468  -20.3940  -13.3804 C   0  0  1  0  0  0  0  0  0  0  0  0
   28.2603  -20.8588  -11.9840 C   0  0  0  0  0  0  0  0  0  0  0  0
   27.7478  -21.9846  -11.7567 O   0  0  0  0  0  0  0  0  0  0  0  0
   28.6363  -20.0874  -10.8509 N   0  0  0  0  0  0  0  0  0  0  0  0
   28.2744  -20.4147   -9.4887 C   0  0  1  0  0  0  0  0  0  0  0  0
   28.9210  -19.4721   -8.4933 C   0  0  0  0  0  0  0  0  0  0  0  0
   28.5968  -19.8273   -7.0984 C   0  0  0  0  0  0  0  0  0  0  0  0
   29.2531  -20.8817   -6.4991 C   0  0  0  0  0  0  0  0  0  0  0  0
   28.9855  -21.2533   -5.1960 C   0  0  0  0  0  0  0  0  0  0  0  0
   28.0485  -20.5825   -4.4408 C   0  0  0  0  0  0  0  0  0  0  0  0
   27.3826  -19.5240   -5.0271 C   0  0  0  0  0  0  0  0  0  0  0  0
   27.6607  -19.1601   -6.3383 C   0  0  0  0  0  0  0  0  0  0  0  0
   26.8118  -20.2532   -9.3405 C   0  0  0  0  0  0  0  0  0  0  0  0
   26.2987  -19.1467   -9.6240 O   0  0  0  0  0  0  0  0  0  0  0  0
   25.9463  -21.2833   -8.8933 N   0  0  0  0  0  0  0  0  0  0  0  0
   24.4887  -21.1183   -8.7822 C   0  0  1  0  0  0  0  0  0  0  0  0
   23.7880  -21.7962   -9.9060 C   0  0  0  0  0  0  0  0  0  0  0  0
   23.7399  -20.9301  -11.0937 C   0  0  0  0  0  0  0  0  0  0  0  0
   24.4795  -21.2607  -12.2157 C   0  0  0  0  0  0  0  0  0  0  0  0
   24.4206  -20.4706  -13.3409 C   0  0  0  0  0  0  0  0  0  0  0  0
   23.6380  -19.3366  -13.4005 C   0  0  0  0  0  0  0  0  0  0  0  0
   22.9034  -18.9987  -12.3015 C   0  0  0  0  0  0  0  0  0  0  0  0
   22.9658  -19.8020  -11.1636 C   0  0  0  0  0  0  0  0  0  0  0  0
   24.0647  -21.6741   -7.4893 C   0  0  0  0  0  0  0  0  0  0  0  0
   25.0151  -22.2979   -6.6795 O   0  0  0  0  0  0  0  0  0  0  0  0
   22.8830  -21.6006   -7.1040 O   0  0  0  0  0  0  0  0  0  0  0  0
  1  5  1  0
  2  1  1  0
  2  3  1  0
  3  4  1  0
  5  6  1  1
  5  4  1  0
  6  7  2  0
  8  9  1  0
  8  6  1  0
 10 11  1  0
  9 10  1  1
 11 16  2  0
 12 13  2  0
 12 11  1  0
 13 14  1  0
 14 15  2  0
 16 15  1  0
 17 18  2  0
 17  9  1  0
 19 17  1  0
 20 19  1  0
 20 28  1  0
 20 21  1  6
 22 21  1  0
 23 22  2  0
 24 23  1  0
 25 24  2  0
 25 26  1  0
 26 27  2  0
 27 22  1  0
 28 29  1  0
 30 28  2  0
M  END
$$$$
