PFF.pdb
     RDKit          3D

 30 32  0  0  1  0  0  0  0  0999 V2000
   28.0131  -20.4309  -17.6761 N   0  0  0  0  0  0  0  0  0  0  0  0
   29.3317  -20.3519  -18.2806 C   0  0  0  0  0  0  0  0  0  0  0  0
   29.4597  -18.8943  -18.6621 C   0  0  0  0  0  0  0  0  0  0  0  0
   28.3836  -18.1677  -17.8471 C   0  0  0  0  0  0  0  0  0  0  0  0
   27.9746  -19.2425  -16.8777 C   0  0  1  0  0  0  0  0  0  0  0  0
   26.6185  -18.9422  -16.3565 C   0  0  0  0  0  0  0  0  0  0  0  0
   26.4322  -17.9368  -15.6243 O   0  0  0  0  0  0  0  0  0  0  0  0
   25.4806  -19.7448  -16.6416 N   0  0  0  0  0  0  0  0  0  0  0  0
   24.1453  -19.4609  -16.1619 C   0  0  1  0  0  0  0  0  0  0  0  0
   23.0904  -19.8230  -17.1882 C   0  0  0  0  0  0  0  0  0  0  0  0
   21.7331  -19.4475  -16.7481 C   0  0  0  0  0  0  0  0  0  0  0  0
   20.8426  -20.4356  -16.3844 C   0  0  0  0  0  0  0  0  0  0  0  0
   19.5611  -20.1356  -15.9655 C   0  0  0  0  0  0  0  0  0  0  0  0
   19.1204  -18.8322  -15.8944 C   0  0  0  0  0  0  0  0  0  0  0  0
   20.0008  -17.8311  -16.2555 C   0  0  0  0  0  0  0  0  0  0  0  0
   21.2868  -18.1457  -16.6750 C   0  0  0  0  0  0  0  0  0  0  0  0
   23.8869  -20.2991  -14.9711 C   0  0  0  0  0  0  0  0  0  0  0  0
   24.2117  -21.5079  -15.0065 O   0  0  0  0  0  0  0  0  0  0  0  0
   23.2885  -19.8143  -13.7807 N   0  0  0  0  0  0  0  0  0  0  0  0
   23.1335  -20.6314  -12.5673 C   0  0  1  0  0  0  0  0  0  0  0  0
   23.8796  -20.0374  -11.4252 C   0  0  0  0  0  0  0  0  0  0  0  0
   25.3306  -20.0986  -11.6573 C   0  0  0  0  0  0  0  0  0  0  0  0
   26.0794  -21.1013  -11.0665 C   0  0  0  0  0  0  0  0  0  0  0  0
   27.4333  -21.1821  -11.2987 C   0  0  0  0  0  0  0  0  0  0  0  0
   28.0923  -20.2861  -12.1142 C   0  0  0  0  0  0  0  0  0  0  0  0
   27.3665  -19.2923  -12.7035 C   0  0  0  0  0  0  0  0  0  0  0  0
   25.9948  -19.2141  -12.4656 C   0  0  0  0  0  0  0  0  0  0  0  0
   21.6987  -20.7264  -12.2626 C   0  0  0  0  0  0  0  0  0  0  0  0
   21.2588  -21.7267  -11.3943 O   0  0  0  0  0  0  0  0  0  0  0  0
   20.8729  -19.9383  -12.7599 O   0  0  0  0  0  0  0  0  0  0  0  0
  1  5  1  0
  2  1  1  0
  2  3  1  0
  3  4  1  0
  5  6  1  6
  5  4  1  0
  6  7  2  0
  8  9  1  0
  8  6  1  0
 10 11  1  0
  9 10  1  6
 11 16  2  0
 12 13  2  0
 12 11  1  0
 13 14  1  0
 14 15  2  0
 16 15  1  0
 17 18  2  0
 17  9  1  0
 19 17  1  0
 20 19  1  0
 20 28  1  0
 20 21  1  1
 22 21  1  0
 23 22  2  0
 24 23  1  0
 25 24  2  0
 25 26  1  0
 26 27  2  0
 27 22  1  0
 28 29  1  0
 30 28  2  0
M  END
$$$$
