MHA.pdb
     RDKit          3D

 24 24  0  0  1  0  0  0  0  0999 V2000
    9.3909  -11.8769   19.5917 C   0  0  0  0  0  0  0  0  0  0  0  0
    7.7334  -12.5351   19.2526 S   0  0  0  0  0  0  0  0  0  0  0  0
    7.8446  -14.3387   19.2461 C   0  0  0  0  0  0  0  0  0  0  0  0
    7.8103  -14.9275   20.6155 C   0  0  0  0  0  0  0  0  0  0  0  0
    9.0444  -14.6715   21.4434 C   0  0  2  0  0  0  0  0  0  0  0  0
   10.1656  -15.1563   20.6612 N   0  0  0  0  0  0  0  0  0  0  0  0
    8.9458  -15.3610   22.7504 C   0  0  0  0  0  0  0  0  0  0  0  0
    7.9003  -15.2725   23.4303 O   0  0  0  0  0  0  0  0  0  0  0  0
   10.0485  -16.1435   23.2604 N   0  0  0  0  0  0  0  0  0  0  0  0
    9.9070  -16.8997   24.4760 C   0  0  1  0  0  0  0  0  0  0  0  0
   10.5594  -18.2280   24.4928 C   0  0  0  0  0  0  0  0  0  0  0  0
   10.1825  -19.1766   23.4572 C   0  0  0  0  0  0  0  0  0  0  0  0
   10.7111  -19.5127   22.2451 C   0  0  0  0  0  0  0  0  0  0  0  0
    9.9729  -20.4895   21.6658 N   0  0  0  0  0  0  0  0  0  0  0  0
    8.9915  -20.7477   22.5309 C   0  0  0  0  0  0  0  0  0  0  0  0
    9.0888  -19.9824   23.6078 N   0  0  0  0  0  0  0  0  0  0  0  0
   10.3094  -16.0326   25.6154 C   0  0  0  0  0  0  0  0  0  0  0  0
   11.5146  -15.6572   25.7618 O   0  0  0  0  0  0  0  0  0  0  0  0
    8.7065  -13.7514   28.0350 C   0  0  0  0  0  0  0  0  0  0  0  0
    9.8328  -14.7411   27.7289 C   0  0  2  0  0  0  0  0  0  0  0  0
    9.3947  -15.5707   26.6024 N   0  0  0  0  0  0  0  0  0  0  0  0
   10.0862  -15.5408   28.9299 C   0  0  0  0  0  0  0  0  0  0  0  0
   10.6785  -15.0283   30.0720 O   0  0  0  0  0  0  0  0  0  0  0  0
    9.7529  -16.7492   28.9304 O   0  0  0  0  0  0  0  0  0  0  0  0
  2  1  1  0
  3  2  1  0
  4  5  1  0
  4  3  1  0
  5  7  1  0
  5  6  1  6
  7  8  2  0
  9  7  1  0
  9 10  1  0
 10 17  1  0
 10 11  1  6
 12 11  1  0
 12 16  1  0
 13 14  1  0
 13 12  2  0
 14 15  1  0
 15 16  2  0
 17 18  2  0
 20 19  1  1
 21 20  1  0
 21 17  1  0
 22 23  1  0
 22 20  1  0
 24 22  2  0
M  END
$$$$
