MHA.pdb
     RDKit          3D

 24 24  0  0  1  0  0  0  0  0999 V2000
    8.7663  -11.7358   19.6181 C   0  0  0  0  0  0  0  0  0  0  0  0
    8.2691  -13.0844   18.5092 S   0  0  0  0  0  0  0  0  0  0  0  0
    9.3038  -14.5181   18.8824 C   0  0  0  0  0  0  0  0  0  0  0  0
    8.7241  -15.3926   19.9419 C   0  0  0  0  0  0  0  0  0  0  0  0
    9.7139  -15.8779   20.9708 C   0  0  2  0  0  0  0  0  0  0  0  0
    9.5015  -17.3072   21.0959 N   0  0  0  0  0  0  0  0  0  0  0  0
    9.5107  -15.1762   22.2590 C   0  0  0  0  0  0  0  0  0  0  0  0
    9.9134  -14.0016   22.4053 O   0  0  0  0  0  0  0  0  0  0  0  0
    8.8478  -15.8315   23.3633 N   0  0  0  0  0  0  0  0  0  0  0  0
    8.6126  -15.1279   24.5957 C   0  0  1  0  0  0  0  0  0  0  0  0
    7.2243  -15.1630   25.1075 C   0  0  0  0  0  0  0  0  0  0  0  0
    6.6678  -13.9255   25.6303 C   0  0  0  0  0  0  0  0  0  0  0  0
    7.1201  -12.6401   25.6988 C   0  0  0  0  0  0  0  0  0  0  0  0
    6.1892  -11.8454   26.2789 N   0  0  0  0  0  0  0  0  0  0  0  0
    5.1666  -12.6526   26.5634 C   0  0  0  0  0  0  0  0  0  0  0  0
    5.4209  -13.8976   26.1893 N   0  0  0  0  0  0  0  0  0  0  0  0
    9.6184  -15.5822   25.5927 C   0  0  0  0  0  0  0  0  0  0  0  0
   10.3434  -16.6031   25.3762 O   0  0  0  0  0  0  0  0  0  0  0  0
   10.9609  -14.3427   28.8922 C   0  0  0  0  0  0  0  0  0  0  0  0
   10.8322  -15.4032   27.7965 C   0  0  2  0  0  0  0  0  0  0  0  0
    9.8370  -14.9216   26.8337 N   0  0  0  0  0  0  0  0  0  0  0  0
   10.4240  -16.6652   28.4185 C   0  0  0  0  0  0  0  0  0  0  0  0
   11.2936  -17.4797   29.1243 O   0  0  0  0  0  0  0  0  0  0  0  0
    9.2301  -17.0316   28.3104 O   0  0  0  0  0  0  0  0  0  0  0  0
  2  1  1  0
  3  2  1  0
  4  5  1  0
  4  3  1  0
  5  7  1  0
  5  6  1  1
  7  8  2  0
  9  7  1  0
  9 10  1  0
 10 17  1  0
 10 11  1  1
 12 11  1  0
 12 16  1  0
 13 14  1  0
 13 12  2  0
 14 15  1  0
 15 16  2  0
 17 18  2  0
 20 19  1  1
 21 20  1  0
 21 17  1  0
 22 23  1  0
 22 20  1  0
 24 22  2  0
M  END
$$$$
