MHA.pdb
     RDKit          3D

 24 24  0  0  1  0  0  0  0  0999 V2000
    5.7535  -11.2559   27.3694 C   0  0  0  0  0  0  0  0  0  0  0  0
    7.0471  -12.4197   26.8520 S   0  0  0  0  0  0  0  0  0  0  0  0
    6.7290  -12.8721   25.1317 C   0  0  0  0  0  0  0  0  0  0  0  0
    5.9951  -14.1631   24.9970 C   0  0  0  0  0  0  0  0  0  0  0  0
    6.8134  -15.3898   25.3126 C   0  0  2  0  0  0  0  0  0  0  0  0
    7.6615  -15.0344   26.4344 N   0  0  0  0  0  0  0  0  0  0  0  0
    7.6063  -15.8035   24.1323 C   0  0  0  0  0  0  0  0  0  0  0  0
    7.0523  -16.3900   23.1771 O   0  0  0  0  0  0  0  0  0  0  0  0
    9.0253  -15.5388   24.0630 N   0  0  0  0  0  0  0  0  0  0  0  0
    9.8047  -16.0192   22.9535 C   0  0  1  0  0  0  0  0  0  0  0  0
   10.1608  -15.0136   21.9276 C   0  0  0  0  0  0  0  0  0  0  0  0
    9.0831  -14.4643   21.1205 C   0  0  0  0  0  0  0  0  0  0  0  0
    7.7547  -14.7496   20.9966 C   0  0  0  0  0  0  0  0  0  0  0  0
    7.1771  -13.9151   20.0996 N   0  0  0  0  0  0  0  0  0  0  0  0
    8.1601  -13.1191   19.6773 C   0  0  0  0  0  0  0  0  0  0  0  0
    9.3074  -13.4209   20.2667 N   0  0  0  0  0  0  0  0  0  0  0  0
   10.9818  -16.7521   23.4916 C   0  0  0  0  0  0  0  0  0  0  0  0
   12.1292  -16.2080   23.5390 O   0  0  0  0  0  0  0  0  0  0  0  0
   11.4956  -19.7240   25.6579 C   0  0  0  0  0  0  0  0  0  0  0  0
   12.0528  -18.7255   24.6409 C   0  0  2  0  0  0  0  0  0  0  0  0
   10.9102  -18.0860   23.9815 N   0  0  0  0  0  0  0  0  0  0  0  0
   12.8948  -19.4543   23.6890 C   0  0  0  0  0  0  0  0  0  0  0  0
   14.1704  -19.9008   23.9911 O   0  0  0  0  0  0  0  0  0  0  0  0
   12.4443  -19.6887   22.5430 O   0  0  0  0  0  0  0  0  0  0  0  0
  2  1  1  0
  3  2  1  0
  4  5  1  0
  4  3  1  0
  5  7  1  0
  5  6  1  1
  7  8  2  0
  9  7  1  0
  9 10  1  0
 10 17  1  0
 10 11  1  1
 12 11  1  0
 12 16  1  0
 13 14  1  0
 13 12  2  0
 14 15  1  0
 15 16  2  0
 17 18  2  0
 20 19  1  1
 21 20  1  0
 21 17  1  0
 22 23  1  0
 22 20  1  0
 24 22  2  0
M  END
$$$$
