MHA.pdb
     RDKit          3D

 24 24  0  0  1  0  0  0  0  0999 V2000
    6.9714  -11.2827   27.0237 C   0  0  0  0  0  0  0  0  0  0  0  0
    5.6202  -12.2763   27.7187 S   0  0  0  0  0  0  0  0  0  0  0  0
    5.2609  -13.6123   26.5563 C   0  0  0  0  0  0  0  0  0  0  0  0
    6.4877  -14.3130   26.0797 C   0  0  0  0  0  0  0  0  0  0  0  0
    6.2562  -15.3034   24.9664 C   0  0  2  0  0  0  0  0  0  0  0  0
    5.3700  -16.3182   25.5036 N   0  0  0  0  0  0  0  0  0  0  0  0
    7.5410  -15.8807   24.5088 C   0  0  0  0  0  0  0  0  0  0  0  0
    7.8072  -17.0809   24.7365 O   0  0  0  0  0  0  0  0  0  0  0  0
    8.5039  -15.0731   23.7954 N   0  0  0  0  0  0  0  0  0  0  0  0
    9.7638  -15.6320   23.3836 C   0  0  1  0  0  0  0  0  0  0  0  0
   10.3879  -15.0155   22.1916 C   0  0  0  0  0  0  0  0  0  0  0  0
    9.5236  -14.7018   21.0651 C   0  0  0  0  0  0  0  0  0  0  0  0
    8.4005  -15.2770   20.5463 C   0  0  0  0  0  0  0  0  0  0  0  0
    7.9619  -14.5698   19.4775 N   0  0  0  0  0  0  0  0  0  0  0  0
    8.8231  -13.5600   19.3475 C   0  0  0  0  0  0  0  0  0  0  0  0
    9.7646  -13.6107   20.2780 N   0  0  0  0  0  0  0  0  0  0  0  0
   10.6662  -15.6719   24.5653 C   0  0  0  0  0  0  0  0  0  0  0  0
   11.8761  -16.0444   24.4558 O   0  0  0  0  0  0  0  0  0  0  0  0
   10.6276  -14.4107   28.0874 C   0  0  0  0  0  0  0  0  0  0  0  0
   11.1645  -15.3654   27.0188 C   0  0  2  0  0  0  0  0  0  0  0  0
   10.2495  -15.3041   25.8750 N   0  0  0  0  0  0  0  0  0  0  0  0
   11.2324  -16.7119   27.5921 C   0  0  0  0  0  0  0  0  0  0  0  0
   12.1739  -17.0887   28.5352 O   0  0  0  0  0  0  0  0  0  0  0  0
   10.4001  -17.5699   27.2148 O   0  0  0  0  0  0  0  0  0  0  0  0
  2  1  1  0
  3  2  1  0
  4  5  1  0
  4  3  1  0
  5  7  1  0
  5  6  1  1
  7  8  2  0
  9  7  1  0
  9 10  1  0
 10 17  1  0
 10 11  1  6
 12 11  1  0
 12 16  1  0
 13 14  1  0
 13 12  2  0
 14 15  1  0
 15 16  2  0
 17 18  2  0
 20 19  1  1
 21 20  1  0
 21 17  1  0
 22 23  1  0
 22 20  1  0
 24 22  2  0
M  END
$$$$
