MHA.pdb
     RDKit          3D

 24 24  0  0  1  0  0  0  0  0999 V2000
   17.9114  -24.6163   23.0223 C   0  0  0  0  0  0  0  0  0  0  0  0
   16.3475  -25.4599   23.3941 S   0  0  0  0  0  0  0  0  0  0  0  0
   16.2036  -25.5928   25.1904 C   0  0  0  0  0  0  0  0  0  0  0  0
   16.1954  -24.2667   25.8720 C   0  0  0  0  0  0  0  0  0  0  0  0
   15.9016  -24.3189   27.3501 C   0  0  2  0  0  0  0  0  0  0  0  0
   14.6891  -25.1016   27.4956 N   0  0  0  0  0  0  0  0  0  0  0  0
   15.7435  -22.9518   27.8973 C   0  0  0  0  0  0  0  0  0  0  0  0
   16.6937  -22.1408   27.8465 O   0  0  0  0  0  0  0  0  0  0  0  0
   14.4966  -22.5328   28.4957 N   0  0  0  0  0  0  0  0  0  0  0  0
   14.3238  -21.1796   28.9521 C   0  0  1  0  0  0  0  0  0  0  0  0
   13.2447  -20.4073   28.2968 C   0  0  0  0  0  0  0  0  0  0  0  0
   13.3570  -20.1738   26.8659 C   0  0  0  0  0  0  0  0  0  0  0  0
   14.4017  -19.9018   26.0315 C   0  0  0  0  0  0  0  0  0  0  0  0
   13.9646  -19.7860   24.7547 N   0  0  0  0  0  0  0  0  0  0  0  0
   12.6480  -19.9892   24.8146 C   0  0  0  0  0  0  0  0  0  0  0  0
   12.2556  -20.2228   26.0581 N   0  0  0  0  0  0  0  0  0  0  0  0
   14.2170  -21.1966   30.4355 C   0  0  0  0  0  0  0  0  0  0  0  0
   14.1349  -20.1170   31.1007 O   0  0  0  0  0  0  0  0  0  0  0  0
   13.0391  -23.3271   33.1038 C   0  0  0  0  0  0  0  0  0  0  0  0
   14.1526  -22.3733   32.6656 C   0  0  2  0  0  0  0  0  0  0  0  0
   14.1994  -22.3961   31.2005 N   0  0  0  0  0  0  0  0  0  0  0  0
   15.4125  -22.8276   33.2593 C   0  0  0  0  0  0  0  0  0  0  0  0
   15.8828  -22.3748   34.4806 O   0  0  0  0  0  0  0  0  0  0  0  0
   16.1037  -23.6675   32.6363 O   0  0  0  0  0  0  0  0  0  0  0  0
  2  1  1  0
  3  2  1  0
  4  5  1  0
  4  3  1  0
  5  7  1  0
  5  6  1  6
  7  8  2  0
  9  7  1  0
  9 10  1  0
 10 17  1  0
 10 11  1  6
 12 11  1  0
 12 16  1  0
 13 14  1  0
 13 12  2  0
 14 15  1  0
 15 16  2  0
 17 18  2  0
 20 19  1  1
 21 20  1  0
 21 17  1  0
 22 23  1  0
 22 20  1  0
 24 22  2  0
M  END
$$$$
