MHA.pdb
     RDKit          3D

 24 24  0  0  1  0  0  0  0  0999 V2000
    7.6688  -11.3374   25.7575 C   0  0  0  0  0  0  0  0  0  0  0  0
    6.8019  -12.2923   27.0352 S   0  0  0  0  0  0  0  0  0  0  0  0
    6.1097  -13.7657   26.2509 C   0  0  0  0  0  0  0  0  0  0  0  0
    7.1496  -14.6378   25.6334 C   0  0  0  0  0  0  0  0  0  0  0  0
    6.6081  -15.7785   24.8091 C   0  0  2  0  0  0  0  0  0  0  0  0
    5.9415  -16.6704   25.7386 N   0  0  0  0  0  0  0  0  0  0  0  0
    7.7035  -16.4599   24.0816 C   0  0  0  0  0  0  0  0  0  0  0  0
    8.3088  -17.4175   24.6106 O   0  0  0  0  0  0  0  0  0  0  0  0
    8.0902  -16.0337   22.7561 N   0  0  0  0  0  0  0  0  0  0  0  0
    9.1219  -16.7313   22.0363 C   0  0  1  0  0  0  0  0  0  0  0  0
    9.2503  -16.3967   20.6003 C   0  0  0  0  0  0  0  0  0  0  0  0
   10.2962  -17.0662   19.8437 C   0  0  0  0  0  0  0  0  0  0  0  0
   11.5887  -16.7547   19.5377 C   0  0  0  0  0  0  0  0  0  0  0  0
   12.1493  -17.7458   18.8041 N   0  0  0  0  0  0  0  0  0  0  0  0
   11.1920  -18.6637   18.6647 C   0  0  0  0  0  0  0  0  0  0  0  0
   10.0766  -18.2884   19.2727 N   0  0  0  0  0  0  0  0  0  0  0  0
   10.3963  -16.5878   22.7896 C   0  0  0  0  0  0  0  0  0  0  0  0
   11.0839  -15.5214   22.7204 O   0  0  0  0  0  0  0  0  0  0  0  0
   12.1531  -18.1092   25.6445 C   0  0  0  0  0  0  0  0  0  0  0  0
   12.2462  -17.4866   24.2497 C   0  0  2  0  0  0  0  0  0  0  0  0
   10.9264  -17.6112   23.6239 N   0  0  0  0  0  0  0  0  0  0  0  0
   13.2789  -18.1983   23.4925 C   0  0  0  0  0  0  0  0  0  0  0  0
   12.9993  -19.0109   22.4065 O   0  0  0  0  0  0  0  0  0  0  0  0
   14.4766  -18.0695   23.8393 O   0  0  0  0  0  0  0  0  0  0  0  0
  2  1  1  0
  3  2  1  0
  4  5  1  0
  4  3  1  0
  5  7  1  0
  5  6  1  1
  7  8  2  0
  9  7  1  0
  9 10  1  0
 10 17  1  0
 10 11  1  6
 12 11  1  0
 12 16  1  0
 13 14  1  0
 13 12  2  0
 14 15  1  0
 15 16  2  0
 17 18  2  0
 20 19  1  1
 21 20  1  0
 21 17  1  0
 22 23  1  0
 22 20  1  0
 24 22  2  0
M  END
$$$$
