MHA.pdb
     RDKit          3D

 24 24  0  0  1  0  0  0  0  0999 V2000
    7.8777  -11.7913   26.7904 C   0  0  0  0  0  0  0  0  0  0  0  0
    6.1887  -12.1512   27.3503 S   0  0  0  0  0  0  0  0  0  0  0  0
    5.6182  -13.6264   26.4764 C   0  0  0  0  0  0  0  0  0  0  0  0
    6.7038  -14.6228   26.2492 C   0  0  0  0  0  0  0  0  0  0  0  0
    6.3014  -15.8160   25.4195 C   0  0  2  0  0  0  0  0  0  0  0  0
    6.4724  -16.9783   26.2703 N   0  0  0  0  0  0  0  0  0  0  0  0
    7.1315  -15.9023   24.1961 C   0  0  0  0  0  0  0  0  0  0  0  0
    7.9772  -16.8150   24.0735 O   0  0  0  0  0  0  0  0  0  0  0  0
    6.9805  -14.9399   23.1287 N   0  0  0  0  0  0  0  0  0  0  0  0
    7.7025  -15.0983   21.8946 C   0  0  1  0  0  0  0  0  0  0  0  0
    7.3648  -14.1402   20.8184 C   0  0  0  0  0  0  0  0  0  0  0  0
    8.0269  -14.3085   19.5347 C   0  0  0  0  0  0  0  0  0  0  0  0
    8.9787  -15.1670   19.0672 C   0  0  0  0  0  0  0  0  0  0  0  0
    9.2440  -14.9091   17.7642 N   0  0  0  0  0  0  0  0  0  0  0  0
    8.4489  -13.8890   17.4394 C   0  0  0  0  0  0  0  0  0  0  0  0
    7.7117  -13.5087   18.4722 N   0  0  0  0  0  0  0  0  0  0  0  0
    9.1561  -15.1442   22.2060 C   0  0  0  0  0  0  0  0  0  0  0  0
    9.6958  -14.2698   22.9536 O   0  0  0  0  0  0  0  0  0  0  0  0
   11.5749  -16.2689   23.5530 C   0  0  0  0  0  0  0  0  0  0  0  0
   11.4569  -16.1629   22.0310 C   0  0  2  0  0  0  0  0  0  0  0  0
   10.0286  -16.1481   21.7009 N   0  0  0  0  0  0  0  0  0  0  0  0
   12.1439  -17.3098   21.4318 C   0  0  0  0  0  0  0  0  0  0  0  0
   13.5181  -17.4771   21.4720 O   0  0  0  0  0  0  0  0  0  0  0  0
   11.4601  -18.1864   20.8529 O   0  0  0  0  0  0  0  0  0  0  0  0
  2  1  1  0
  3  2  1  0
  4  5  1  0
  4  3  1  0
  5  7  1  0
  5  6  1  1
  7  8  2  0
  9  7  1  0
  9 10  1  0
 10 17  1  0
 10 11  1  6
 12 11  1  0
 12 16  1  0
 13 14  1  0
 13 12  2  0
 14 15  1  0
 15 16  2  0
 17 18  2  0
 20 19  1  1
 21 20  1  0
 21 17  1  0
 22 23  1  0
 22 20  1  0
 24 22  2  0
M  END
$$$$
