MHA.pdb
     RDKit          3D

 24 24  0  0  1  0  0  0  0  0999 V2000
    7.8567  -11.5605   20.3569 C   0  0  0  0  0  0  0  0  0  0  0  0
    8.3299  -12.8338   19.1524 S   0  0  0  0  0  0  0  0  0  0  0  0
    7.2209  -14.2434   19.3724 C   0  0  0  0  0  0  0  0  0  0  0  0
    7.2749  -14.8155   20.7483 C   0  0  0  0  0  0  0  0  0  0  0  0
    8.6510  -14.8489   21.3640 C   0  0  2  0  0  0  0  0  0  0  0  0
    9.4758  -15.6411   20.4718 N   0  0  0  0  0  0  0  0  0  0  0  0
    8.5974  -15.4297   22.7252 C   0  0  0  0  0  0  0  0  0  0  0  0
    7.6579  -15.1376   23.4967 O   0  0  0  0  0  0  0  0  0  0  0  0
    9.6229  -16.3388   23.1839 N   0  0  0  0  0  0  0  0  0  0  0  0
    9.5319  -16.9466   24.4845 C   0  0  1  0  0  0  0  0  0  0  0  0
   10.1481  -18.2855   24.6189 C   0  0  0  0  0  0  0  0  0  0  0  0
    9.6343  -19.3513   23.7737 C   0  0  0  0  0  0  0  0  0  0  0  0
    8.4257  -19.5953   23.1896 C   0  0  0  0  0  0  0  0  0  0  0  0
    8.4741  -20.7436   22.4729 N   0  0  0  0  0  0  0  0  0  0  0  0
    9.7186  -21.1986   22.6226 C   0  0  0  0  0  0  0  0  0  0  0  0
   10.4342  -20.3916   23.3917 N   0  0  0  0  0  0  0  0  0  0  0  0
   10.0229  -15.9696   25.4926 C   0  0  0  0  0  0  0  0  0  0  0  0
   11.2215  -15.5479   25.4695 O   0  0  0  0  0  0  0  0  0  0  0  0
    8.5937  -13.5328   27.8733 C   0  0  0  0  0  0  0  0  0  0  0  0
    9.7277  -14.4976   27.5195 C   0  0  2  0  0  0  0  0  0  0  0  0
    9.2047  -15.4476   26.5329 N   0  0  0  0  0  0  0  0  0  0  0  0
   10.1646  -15.1692   28.7460 C   0  0  0  0  0  0  0  0  0  0  0  0
   10.8451  -14.5226   29.7642 O   0  0  0  0  0  0  0  0  0  0  0  0
    9.9131  -16.3890   28.8871 O   0  0  0  0  0  0  0  0  0  0  0  0
  2  1  1  0
  3  2  1  0
  4  5  1  0
  4  3  1  0
  5  7  1  0
  5  6  1  6
  7  8  2  0
  9  7  1  0
  9 10  1  0
 10 17  1  0
 10 11  1  6
 12 11  1  0
 12 16  1  0
 13 14  1  0
 13 12  2  0
 14 15  1  0
 15 16  2  0
 17 18  2  0
 20 19  1  1
 21 20  1  0
 21 17  1  0
 22 23  1  0
 22 20  1  0
 24 22  2  0
M  END
$$$$
