CER.pdb
     RDKit          3D

 27 26  0  0  1  0  0  0  0  0999 V2000
    7.4162  -14.9083   17.7987 N   0  0  0  0  0  0  0  0  0  0  0  0
    8.1704  -14.2230   18.8473 C   0  0  1  0  0  0  0  0  0  0  0  0
    7.1332  -13.4913   19.7006 C   0  0  0  0  0  0  0  0  0  0  0  0
    8.0055  -12.8038   21.1444 S   0  0  0  0  0  0  0  0  0  0  0  0
    8.7948  -15.2830   19.6744 C   0  0  0  0  0  0  0  0  0  0  0  0
    8.1647  -16.3617   19.8014 O   0  0  0  0  0  0  0  0  0  0  0  0
   10.0426  -15.1638   20.3257 N   0  0  0  0  0  0  0  0  0  0  0  0
   10.6471  -16.2948   20.9368 C   0  0  1  0  0  0  0  0  0  0  0  0
   12.1282  -16.4166   20.6607 C   0  0  0  0  0  0  0  0  0  0  0  0
   12.6978  -17.6775   21.2848 C   0  0  0  0  0  0  0  0  0  0  0  0
   14.1610  -17.7803   21.0586 C   0  0  0  0  0  0  0  0  0  0  0  0
   14.6019  -18.6888   20.3111 O   0  0  0  0  0  0  0  0  0  0  0  0
   10.4664  -16.1475   22.4243 C   0  0  0  0  0  0  0  0  0  0  0  0
   11.0432  -15.1983   23.0196 O   0  0  0  0  0  0  0  0  0  0  0  0
   15.0548  -16.9091   21.6435 O   0  0  0  0  0  0  0  0  0  0  0  0
    5.5812  -22.1630   23.3726 N   0  0  0  0  0  0  0  0  0  0  0  0
    5.5268  -21.0867   24.3068 C   0  0  0  0  0  0  0  0  0  0  0  0
    4.7536  -21.1866   25.3310 N   0  0  0  0  0  0  0  0  0  0  0  0
    6.2957  -19.9087   24.1473 N   0  0  0  0  0  0  0  0  0  0  0  0
    6.1902  -18.7910   25.0955 C   0  0  0  0  0  0  0  0  0  0  0  0
    7.1338  -17.6748   24.7032 C   0  0  0  0  0  0  0  0  0  0  0  0
    8.5473  -18.0261   25.1109 C   0  0  0  0  0  0  0  0  0  0  0  0
    9.5391  -16.9946   24.6189 C   0  0  2  0  0  0  0  0  0  0  0  0
    9.6783  -17.0281   23.1776 N   0  0  0  0  0  0  0  0  0  0  0  0
   10.8534  -17.2659   25.2206 C   0  0  0  0  0  0  0  0  0  0  0  0
   11.3420  -16.4814   26.0529 O   0  0  0  0  0  0  0  0  0  0  0  0
   11.5506  -18.3978   24.8606 O   0  0  0  0  0  0  0  0  0  0  0  0
  2  1  1  6
  2  3  1  0
  3  4  1  0
  5  6  2  0
  5  2  1  0
  7  5  1  0
  8  7  1  0
  8  9  1  1
 10 11  1  0
 10  9  1  0
 11 15  1  0
 12 11  2  0
 13 24  1  0
 13  8  1  0
 14 13  2  0
 17 16  1  0
 18 17  2  0
 19 17  1  0
 20 19  1  0
 21 20  1  0
 22 21  1  0
 23 22  1  1
 23 24  1  0
 25 23  1  0
 25 27  1  0
 26 25  2  0
M  END
$$$$
