CER.pdb
     RDKit          3D

 27 26  0  0  1  0  0  0  0  0999 V2000
    6.0753  -16.1286   20.4525 N   0  0  0  0  0  0  0  0  0  0  0  0
    7.2883  -15.6783   19.7714 C   0  0  1  0  0  0  0  0  0  0  0  0
    7.5131  -14.2349   20.2246 C   0  0  0  0  0  0  0  0  0  0  0  0
    7.4499  -14.2213   22.0450 S   0  0  0  0  0  0  0  0  0  0  0  0
    8.3963  -16.5124   20.2951 C   0  0  0  0  0  0  0  0  0  0  0  0
    8.1903  -17.1411   21.3623 O   0  0  0  0  0  0  0  0  0  0  0  0
    9.6606  -16.6478   19.6798 N   0  0  0  0  0  0  0  0  0  0  0  0
   10.6808  -17.4232   20.2929 C   0  0  1  0  0  0  0  0  0  0  0  0
   11.7822  -17.8387   19.3447 C   0  0  0  0  0  0  0  0  0  0  0  0
   11.3100  -18.9340   18.4061 C   0  0  0  0  0  0  0  0  0  0  0  0
   12.3973  -19.3742   17.4970 C   0  0  0  0  0  0  0  0  0  0  0  0
   13.2457  -20.2017   17.9141 O   0  0  0  0  0  0  0  0  0  0  0  0
   11.2981  -16.5742   21.3722 C   0  0  0  0  0  0  0  0  0  0  0  0
   11.4488  -15.3397   21.1683 O   0  0  0  0  0  0  0  0  0  0  0  0
   12.5073  -18.9034   16.2062 O   0  0  0  0  0  0  0  0  0  0  0  0
    9.1768  -15.4834   29.4372 N   0  0  0  0  0  0  0  0  0  0  0  0
   10.5171  -15.0735   29.1732 C   0  0  0  0  0  0  0  0  0  0  0  0
   10.8484  -13.8475   29.3826 N   0  0  0  0  0  0  0  0  0  0  0  0
   11.4992  -15.9703   28.6877 N   0  0  0  0  0  0  0  0  0  0  0  0
   11.2568  -16.8022   27.5009 C   0  0  0  0  0  0  0  0  0  0  0  0
   11.7463  -16.0985   26.2538 C   0  0  0  0  0  0  0  0  0  0  0  0
   11.4764  -16.9556   25.0373 C   0  0  0  0  0  0  0  0  0  0  0  0
   12.0309  -16.3234   23.7793 C   0  0  2  0  0  0  0  0  0  0  0  0
   11.7139  -17.1040   22.6012 N   0  0  0  0  0  0  0  0  0  0  0  0
   13.4939  -16.2264   23.8945 C   0  0  0  0  0  0  0  0  0  0  0  0
   14.2247  -17.1288   23.4490 O   0  0  0  0  0  0  0  0  0  0  0  0
   14.0614  -15.1275   24.5006 O   0  0  0  0  0  0  0  0  0  0  0  0
  2  1  1  1
  2  3  1  0
  3  4  1  0
  5  6  2  0
  5  2  1  0
  7  5  1  0
  8  7  1  0
  8  9  1  6
 10 11  1  0
 10  9  1  0
 11 15  1  0
 12 11  2  0
 13 24  1  0
 13  8  1  0
 14 13  2  0
 17 16  1  0
 18 17  2  0
 19 17  1  0
 20 19  1  0
 21 20  1  0
 22 21  1  0
 23 22  1  1
 23 24  1  0
 25 23  1  0
 25 27  1  0
 26 25  2  0
M  END
$$$$
