CER.pdb
     RDKit          3D

 27 26  0  0  1  0  0  0  0  0999 V2000
    7.1036  -14.0181   17.5168 N   0  0  0  0  0  0  0  0  0  0  0  0
    8.0265  -13.4304   18.4868 C   0  0  1  0  0  0  0  0  0  0  0  0
    7.1722  -13.0320   19.6913 C   0  0  0  0  0  0  0  0  0  0  0  0
    8.3106  -12.6368   21.0573 S   0  0  0  0  0  0  0  0  0  0  0  0
    8.9450  -14.5173   18.9021 C   0  0  0  0  0  0  0  0  0  0  0  0
    8.4959  -15.6898   18.8856 O   0  0  0  0  0  0  0  0  0  0  0  0
   10.2829  -14.3260   19.3128 N   0  0  0  0  0  0  0  0  0  0  0  0
   11.1318  -15.4412   19.5448 C   0  0  1  0  0  0  0  0  0  0  0  0
   12.3628  -15.4618   18.6678 C   0  0  0  0  0  0  0  0  0  0  0  0
   13.1999  -16.7001   18.9313 C   0  0  0  0  0  0  0  0  0  0  0  0
   14.4124  -16.7261   18.0758 C   0  0  0  0  0  0  0  0  0  0  0  0
   14.5314  -15.8768   17.1577 O   0  0  0  0  0  0  0  0  0  0  0  0
   11.5880  -15.3637   20.9775 C   0  0  0  0  0  0  0  0  0  0  0  0
   12.3905  -14.4527   21.3156 O   0  0  0  0  0  0  0  0  0  0  0  0
   15.4153  -17.6544   18.2561 O   0  0  0  0  0  0  0  0  0  0  0  0
   12.2659  -20.4047   27.5868 N   0  0  0  0  0  0  0  0  0  0  0  0
   11.5265  -19.4675   28.3672 C   0  0  0  0  0  0  0  0  0  0  0  0
   11.3798  -19.6820   29.6279 N   0  0  0  0  0  0  0  0  0  0  0  0
   10.9465  -18.3059   27.8028 N   0  0  0  0  0  0  0  0  0  0  0  0
   10.4870  -18.2800   26.4072 C   0  0  0  0  0  0  0  0  0  0  0  0
   11.3089  -17.2998   25.5987 C   0  0  0  0  0  0  0  0  0  0  0  0
   10.8247  -17.2780   24.1660 C   0  0  0  0  0  0  0  0  0  0  0  0
   11.6067  -16.2873   23.3313 C   0  0  2  0  0  0  0  0  0  0  0  0
   11.1540  -16.2686   21.9557 N   0  0  0  0  0  0  0  0  0  0  0  0
   13.0291  -16.6608   23.3490 C   0  0  0  0  0  0  0  0  0  0  0  0
   13.8319  -16.0594   24.0844 O   0  0  0  0  0  0  0  0  0  0  0  0
   13.4779  -17.6851   22.5450 O   0  0  0  0  0  0  0  0  0  0  0  0
  2  1  1  6
  2  3  1  0
  3  4  1  0
  5  6  2  0
  5  2  1  0
  7  5  1  0
  8  7  1  0
  8  9  1  6
 10 11  1  0
 10  9  1  0
 11 15  1  0
 12 11  2  0
 13 24  1  0
 13  8  1  0
 14 13  2  0
 17 16  1  0
 18 17  2  0
 19 17  1  0
 20 19  1  0
 21 20  1  0
 22 21  1  0
 23 22  1  1
 23 24  1  0
 25 23  1  0
 25 27  1  0
 26 25  2  0
M  END
$$$$
