CER.pdb
     RDKit          3D

 27 26  0  0  1  0  0  0  0  0999 V2000
    3.9571  -21.0472   18.9357 N   0  0  0  0  0  0  0  0  0  0  0  0
    3.7247  -19.9300   19.8500 C   0  0  1  0  0  0  0  0  0  0  0  0
    2.6115  -20.3853   20.7949 C   0  0  0  0  0  0  0  0  0  0  0  0
    2.3936  -19.0795   22.0460 S   0  0  0  0  0  0  0  0  0  0  0  0
    4.9704  -19.7670   20.6368 C   0  0  0  0  0  0  0  0  0  0  0  0
    5.5279  -20.8108   21.0570 O   0  0  0  0  0  0  0  0  0  0  0  0
    5.5700  -18.5257   20.9447 N   0  0  0  0  0  0  0  0  0  0  0  0
    6.7821  -18.4748   21.6840 C   0  0  1  0  0  0  0  0  0  0  0  0
    7.9027  -17.7576   20.9665 C   0  0  0  0  0  0  0  0  0  0  0  0
    8.3475  -18.5309   19.7386 C   0  0  0  0  0  0  0  0  0  0  0  0
    9.3931  -17.7953   18.9848 C   0  0  0  0  0  0  0  0  0  0  0  0
    9.8230  -16.7060   19.4400 O   0  0  0  0  0  0  0  0  0  0  0  0
    6.4961  -17.7246   22.9577 C   0  0  0  0  0  0  0  0  0  0  0  0
    5.6498  -16.7909   22.9409 O   0  0  0  0  0  0  0  0  0  0  0  0
    9.9097  -18.2694   17.7981 O   0  0  0  0  0  0  0  0  0  0  0  0
    9.1550  -21.9603   29.7508 N   0  0  0  0  0  0  0  0  0  0  0  0
    8.0495  -22.3465   28.9365 C   0  0  0  0  0  0  0  0  0  0  0  0
    7.6172  -23.5571   29.0029 N   0  0  0  0  0  0  0  0  0  0  0  0
    7.4087  -21.4427   28.0552 N   0  0  0  0  0  0  0  0  0  0  0  0
    7.9350  -20.0891   27.8305 C   0  0  0  0  0  0  0  0  0  0  0  0
    7.1842  -19.4108   26.7052 C   0  0  0  0  0  0  0  0  0  0  0  0
    7.6469  -17.9776   26.5657 C   0  0  0  0  0  0  0  0  0  0  0  0
    6.9689  -17.2866   25.4027 C   0  0  2  0  0  0  0  0  0  0  0  0
    7.1363  -18.0244   24.1677 N   0  0  0  0  0  0  0  0  0  0  0  0
    7.5555  -15.9490   25.2299 C   0  0  0  0  0  0  0  0  0  0  0  0
    7.2555  -15.0220   26.0029 O   0  0  0  0  0  0  0  0  0  0  0  0
    8.4449  -15.7191   24.2037 O   0  0  0  0  0  0  0  0  0  0  0  0
  2  1  1  6
  2  3  1  0
  3  4  1  0
  5  6  2  0
  5  2  1  0
  7  5  1  0
  8  7  1  0
  8  9  1  6
 10 11  1  0
 10  9  1  0
 11 15  1  0
 12 11  2  0
 13 24  1  0
 13  8  1  0
 14 13  2  0
 17 16  1  0
 18 17  2  0
 19 17  1  0
 20 19  1  0
 21 20  1  0
 22 21  1  0
 23 22  1  1
 23 24  1  0
 25 23  1  0
 25 27  1  0
 26 25  2  0
M  END
$$$$
