CER.pdb
     RDKit          3D

 27 26  0  0  1  0  0  0  0  0999 V2000
    8.1250  -14.0667   17.4956 N   0  0  0  0  0  0  0  0  0  0  0  0
    8.6057  -13.7066   18.8287 C   0  0  1  0  0  0  0  0  0  0  0  0
    7.8339  -12.4479   19.2276 C   0  0  0  0  0  0  0  0  0  0  0  0
    8.9396  -11.0254   18.9594 S   0  0  0  0  0  0  0  0  0  0  0  0
    8.2015  -14.8107   19.7316 C   0  0  0  0  0  0  0  0  0  0  0  0
    7.1182  -14.6801   20.3531 O   0  0  0  0  0  0  0  0  0  0  0  0
    8.9465  -15.9925   19.9398 N   0  0  0  0  0  0  0  0  0  0  0  0
    8.4871  -16.9831   20.8486 C   0  0  1  0  0  0  0  0  0  0  0  0
    8.5211  -18.3862   20.2875 C   0  0  0  0  0  0  0  0  0  0  0  0
    8.0987  -19.4023   21.3328 C   0  0  0  0  0  0  0  0  0  0  0  0
    8.1085  -20.7808   20.7831 C   0  0  0  0  0  0  0  0  0  0  0  0
    8.6340  -20.9879   19.6608 O   0  0  0  0  0  0  0  0  0  0  0  0
    9.3968  -16.9442   22.0477 C   0  0  0  0  0  0  0  0  0  0  0  0
   10.6070  -17.2671   21.9081 O   0  0  0  0  0  0  0  0  0  0  0  0
    7.5585  -21.8447   21.4655 O   0  0  0  0  0  0  0  0  0  0  0  0
   11.8214  -15.1160   30.3868 N   0  0  0  0  0  0  0  0  0  0  0  0
   10.5433  -15.4182   29.8306 C   0  0  0  0  0  0  0  0  0  0  0  0
    9.9790  -16.5352   30.1317 N   0  0  0  0  0  0  0  0  0  0  0  0
    9.8711  -14.5303   28.9564 N   0  0  0  0  0  0  0  0  0  0  0  0
   10.1293  -14.5380   27.5097 C   0  0  0  0  0  0  0  0  0  0  0  0
    9.8713  -15.9138   26.9347 C   0  0  0  0  0  0  0  0  0  0  0  0
    9.0898  -15.7966   25.6451 C   0  0  0  0  0  0  0  0  0  0  0  0
    9.7622  -16.5505   24.5185 C   0  0  2  0  0  0  0  0  0  0  0  0
    8.9498  -16.5613   23.3195 N   0  0  0  0  0  0  0  0  0  0  0  0
    9.9906  -17.9410   24.9396 C   0  0  0  0  0  0  0  0  0  0  0  0
    9.1292  -18.8141   24.7328 O   0  0  0  0  0  0  0  0  0  0  0  0
   11.1678  -18.2813   25.5683 O   0  0  0  0  0  0  0  0  0  0  0  0
  2  1  1  6
  2  3  1  0
  3  4  1  0
  5  6  2  0
  5  2  1  0
  7  5  1  0
  8  7  1  0
  8  9  1  6
 10 11  1  0
 10  9  1  0
 11 15  1  0
 12 11  2  0
 13 24  1  0
 13  8  1  0
 14 13  2  0
 17 16  1  0
 18 17  2  0
 19 17  1  0
 20 19  1  0
 21 20  1  0
 22 21  1  0
 23 22  1  1
 23 24  1  0
 25 23  1  0
 25 27  1  0
 26 25  2  0
M  END
$$$$
