CER.pdb
     RDKit          3D

 27 26  0  0  1  0  0  0  0  0999 V2000
    7.2900  -13.9138   17.4635 N   0  0  0  0  0  0  0  0  0  0  0  0
    8.0547  -13.4208   18.6081 C   0  0  1  0  0  0  0  0  0  0  0  0
    7.1119  -13.5025   19.8096 C   0  0  0  0  0  0  0  0  0  0  0  0
    8.1018  -13.1631   21.3006 S   0  0  0  0  0  0  0  0  0  0  0  0
    9.1638  -14.3823   18.8159 C   0  0  0  0  0  0  0  0  0  0  0  0
    8.9315  -15.5921   18.5724 O   0  0  0  0  0  0  0  0  0  0  0  0
   10.4563  -14.0334   19.2663 N   0  0  0  0  0  0  0  0  0  0  0  0
   11.5015  -14.9955   19.2713 C   0  0  1  0  0  0  0  0  0  0  0  0
   12.8183  -14.4662   18.7510 C   0  0  0  0  0  0  0  0  0  0  0  0
   13.9082  -15.5174   18.8544 C   0  0  0  0  0  0  0  0  0  0  0  0
   15.2157  -14.9891   18.3920 C   0  0  0  0  0  0  0  0  0  0  0  0
   15.5177  -15.0830   17.1760 O   0  0  0  0  0  0  0  0  0  0  0  0
   11.7086  -15.4211   20.7006 C   0  0  0  0  0  0  0  0  0  0  0  0
   11.9480  -14.5427   21.5719 O   0  0  0  0  0  0  0  0  0  0  0  0
   16.1124  -14.3970   19.2554 O   0  0  0  0  0  0  0  0  0  0  0  0
   12.5805  -23.2195   24.6806 N   0  0  0  0  0  0  0  0  0  0  0  0
   12.2358  -22.3310   25.7418 C   0  0  0  0  0  0  0  0  0  0  0  0
   12.5509  -22.6475   26.9490 N   0  0  0  0  0  0  0  0  0  0  0  0
   11.5576  -21.1094   25.5138 N   0  0  0  0  0  0  0  0  0  0  0  0
   11.2990  -20.6196   24.1526 C   0  0  0  0  0  0  0  0  0  0  0  0
   11.8174  -19.2069   23.9925 C   0  0  0  0  0  0  0  0  0  0  0  0
   11.5105  -18.6985   22.6015 C   0  0  0  0  0  0  0  0  0  0  0  0
   11.8732  -17.2370   22.4525 C   0  0  2  0  0  0  0  0  0  0  0  0
   11.6455  -16.7619   21.1034 N   0  0  0  0  0  0  0  0  0  0  0  0
   13.2970  -17.0596   22.7752 C   0  0  0  0  0  0  0  0  0  0  0  0
   14.1690  -17.2321   21.9053 O   0  0  0  0  0  0  0  0  0  0  0  0
   13.6700  -16.6993   24.0512 O   0  0  0  0  0  0  0  0  0  0  0  0
  2  1  1  6
  2  3  1  0
  3  4  1  0
  5  6  2  0
  5  2  1  0
  7  5  1  0
  8  7  1  0
  8  9  1  1
 10 11  1  0
 10  9  1  0
 11 15  1  0
 12 11  2  0
 13 24  1  0
 13  8  1  0
 14 13  2  0
 17 16  1  0
 18 17  2  0
 19 17  1  0
 20 19  1  0
 21 20  1  0
 22 21  1  0
 23 22  1  6
 23 24  1  0
 25 23  1  0
 25 27  1  0
 26 25  2  0
M  END
$$$$
