CER.pdb
     RDKit          3D

 27 26  0  0  1  0  0  0  0  0999 V2000
    8.4167  -14.6901   16.7565 N   0  0  0  0  0  0  0  0  0  0  0  0
    8.9030  -13.8641   17.8607 C   0  0  1  0  0  0  0  0  0  0  0  0
    7.7018  -13.6453   18.7820 C   0  0  0  0  0  0  0  0  0  0  0  0
    8.2769  -12.6535   20.1975 S   0  0  0  0  0  0  0  0  0  0  0  0
    9.9063  -14.6811   18.5841 C   0  0  0  0  0  0  0  0  0  0  0  0
    9.7355  -15.9251   18.5981 O   0  0  0  0  0  0  0  0  0  0  0  0
   11.0348  -14.1598   19.2549 N   0  0  0  0  0  0  0  0  0  0  0  0
   12.0143  -15.0314   19.8015 C   0  0  1  0  0  0  0  0  0  0  0  0
   13.4343  -14.5543   19.5992 C   0  0  0  0  0  0  0  0  0  0  0  0
   13.8017  -14.5432   18.1267 C   0  0  0  0  0  0  0  0  0  0  0  0
   15.2159  -14.9420   17.9184 C   0  0  0  0  0  0  0  0  0  0  0  0
   15.4880  -15.7901   17.0323 O   0  0  0  0  0  0  0  0  0  0  0  0
   11.7621  -15.1119   21.2837 C   0  0  0  0  0  0  0  0  0  0  0  0
   12.5260  -14.4889   22.0689 O   0  0  0  0  0  0  0  0  0  0  0  0
   16.2439  -14.4109   18.6675 O   0  0  0  0  0  0  0  0  0  0  0  0
    7.3807  -20.1816   25.5734 N   0  0  0  0  0  0  0  0  0  0  0  0
    7.1204  -18.7823   25.6664 C   0  0  0  0  0  0  0  0  0  0  0  0
    5.9000  -18.3749   25.7050 N   0  0  0  0  0  0  0  0  0  0  0  0
    8.1599  -17.8226   25.7183 N   0  0  0  0  0  0  0  0  0  0  0  0
    8.5522  -17.0536   24.5291 C   0  0  0  0  0  0  0  0  0  0  0  0
    8.6758  -17.9654   23.3277 C   0  0  0  0  0  0  0  0  0  0  0  0
   10.1113  -18.0024   22.8527 C   0  0  0  0  0  0  0  0  0  0  0  0
   10.7886  -16.6608   23.0292 C   0  0  2  0  0  0  0  0  0  0  0  0
   10.7063  -15.8554   21.8283 N   0  0  0  0  0  0  0  0  0  0  0  0
   12.2078  -16.8772   23.3491 C   0  0  0  0  0  0  0  0  0  0  0  0
   13.0098  -17.2245   22.4643 O   0  0  0  0  0  0  0  0  0  0  0  0
   12.6542  -16.6940   24.6391 O   0  0  0  0  0  0  0  0  0  0  0  0
  2  1  1  6
  2  3  1  0
  3  4  1  0
  5  6  2  0
  5  2  1  0
  7  5  1  0
  8  7  1  0
  8  9  1  1
 10 11  1  0
 10  9  1  0
 11 15  1  0
 12 11  2  0
 13 24  1  0
 13  8  1  0
 14 13  2  0
 17 16  1  0
 18 17  2  0
 19 17  1  0
 20 19  1  0
 21 20  1  0
 22 21  1  0
 23 22  1  6
 23 24  1  0
 25 23  1  0
 25 27  1  0
 26 25  2  0
M  END
$$$$
