CER.pdb
     RDKit          3D

 27 26  0  0  1  0  0  0  0  0999 V2000
    6.7100  -14.9375   18.9125 N   0  0  0  0  0  0  0  0  0  0  0  0
    8.1103  -14.5420   19.0570 C   0  0  1  0  0  0  0  0  0  0  0  0
    8.0991  -13.2472   19.8711 C   0  0  0  0  0  0  0  0  0  0  0  0
    7.4297  -11.9368   18.7975 S   0  0  0  0  0  0  0  0  0  0  0  0
    8.7623  -15.5992   19.8661 C   0  0  0  0  0  0  0  0  0  0  0  0
    8.0699  -16.1560   20.7534 O   0  0  0  0  0  0  0  0  0  0  0  0
   10.1012  -16.0210   19.7087 N   0  0  0  0  0  0  0  0  0  0  0  0
   10.6466  -17.0197   20.5590 C   0  0  1  0  0  0  0  0  0  0  0  0
   11.9346  -17.6203   20.0441 C   0  0  0  0  0  0  0  0  0  0  0  0
   11.6919  -18.4383   18.7889 C   0  0  0  0  0  0  0  0  0  0  0  0
   12.9601  -18.9838   18.2443 C   0  0  0  0  0  0  0  0  0  0  0  0
   13.2776  -20.1709   18.5062 O   0  0  0  0  0  0  0  0  0  0  0  0
   10.9402  -16.3660   21.8832 C   0  0  0  0  0  0  0  0  0  0  0  0
   11.5247  -15.2496   21.8980 O   0  0  0  0  0  0  0  0  0  0  0  0
   13.8036  -18.2286   17.4582 O   0  0  0  0  0  0  0  0  0  0  0  0
    7.9382  -12.6932   27.8327 N   0  0  0  0  0  0  0  0  0  0  0  0
    7.2994  -12.6784   26.5576 C   0  0  0  0  0  0  0  0  0  0  0  0
    6.0797  -12.2757   26.4744 N   0  0  0  0  0  0  0  0  0  0  0  0
    7.9614  -13.0920   25.3765 N   0  0  0  0  0  0  0  0  0  0  0  0
    7.4265  -14.1733   24.5374 C   0  0  0  0  0  0  0  0  0  0  0  0
    8.2918  -15.4093   24.6538 C   0  0  0  0  0  0  0  0  0  0  0  0
    9.7399  -15.0516   24.4038 C   0  0  0  0  0  0  0  0  0  0  0  0
   10.6208  -16.2818   24.3901 C   0  0  2  0  0  0  0  0  0  0  0  0
   10.5877  -16.9519   23.1065 N   0  0  0  0  0  0  0  0  0  0  0  0
   10.1502  -17.2216   25.4188 C   0  0  0  0  0  0  0  0  0  0  0  0
    9.5798  -18.2788   25.0965 O   0  0  0  0  0  0  0  0  0  0  0  0
   10.3419  -16.9302   26.7513 O   0  0  0  0  0  0  0  0  0  0  0  0
  2  1  1  1
  2  3  1  0
  3  4  1  0
  5  6  2  0
  5  2  1  0
  7  5  1  0
  8  7  1  0
  8  9  1  6
 10 11  1  0
 10  9  1  0
 11 15  1  0
 12 11  2  0
 13 24  1  0
 13  8  1  0
 14 13  2  0
 17 16  1  0
 18 17  2  0
 19 17  1  0
 20 19  1  0
 21 20  1  0
 22 21  1  0
 23 22  1  6
 23 24  1  0
 25 23  1  0
 25 27  1  0
 26 25  2  0
M  END
$$$$
