CER.pdb
     RDKit          3D

 27 26  0  0  1  0  0  0  0  0999 V2000
    8.5378  -18.0260   17.4686 N   0  0  0  0  0  0  0  0  0  0  0  0
    9.5511  -17.0561   17.8816 C   0  0  1  0  0  0  0  0  0  0  0  0
    8.7876  -15.7848   18.2559 C   0  0  0  0  0  0  0  0  0  0  0  0
    8.5663  -14.8153   16.7298 S   0  0  0  0  0  0  0  0  0  0  0  0
   10.1797  -17.6039   19.1073 C   0  0  0  0  0  0  0  0  0  0  0  0
    9.4698  -18.3331   19.8430 O   0  0  0  0  0  0  0  0  0  0  0  0
   11.5143  -17.3635   19.5024 N   0  0  0  0  0  0  0  0  0  0  0  0
   12.0449  -17.9856   20.6641 C   0  0  1  0  0  0  0  0  0  0  0  0
   13.5251  -18.2791   20.5750 C   0  0  0  0  0  0  0  0  0  0  0  0
   13.9906  -19.1025   21.7620 C   0  0  0  0  0  0  0  0  0  0  0  0
   15.4465  -19.3813   21.6900 C   0  0  0  0  0  0  0  0  0  0  0  0
   15.8692  -20.5157   22.0261 O   0  0  0  0  0  0  0  0  0  0  0  0
   11.8316  -17.0378   21.8143 C   0  0  0  0  0  0  0  0  0  0  0  0
   11.8703  -15.7966   21.5993 O   0  0  0  0  0  0  0  0  0  0  0  0
   16.3529  -18.4336   21.2654 O   0  0  0  0  0  0  0  0  0  0  0  0
    6.5872  -13.8207   19.7976 N   0  0  0  0  0  0  0  0  0  0  0  0
    7.5274  -13.0100   20.4997 C   0  0  0  0  0  0  0  0  0  0  0  0
    7.7705  -11.8209   20.0709 N   0  0  0  0  0  0  0  0  0  0  0  0
    8.2048  -13.4681   21.6555 N   0  0  0  0  0  0  0  0  0  0  0  0
    8.4442  -14.8996   21.8859 C   0  0  0  0  0  0  0  0  0  0  0  0
    9.0894  -15.1162   23.2375 C   0  0  0  0  0  0  0  0  0  0  0  0
    9.3316  -16.5919   23.4638 C   0  0  0  0  0  0  0  0  0  0  0  0
   10.6968  -16.8440   24.0656 C   0  0  2  0  0  0  0  0  0  0  0  0
   11.5905  -17.4823   23.1213 N   0  0  0  0  0  0  0  0  0  0  0  0
   10.5515  -17.7220   25.2365 C   0  0  0  0  0  0  0  0  0  0  0  0
   10.3676  -18.9436   25.0923 O   0  0  0  0  0  0  0  0  0  0  0  0
   10.6194  -17.1886   26.5046 O   0  0  0  0  0  0  0  0  0  0  0  0
  2  1  1  1
  2  3  1  0
  3  4  1  0
  5  6  2  0
  5  2  1  0
  7  5  1  0
  8  7  1  0
  8  9  1  6
 10 11  1  0
 10  9  1  0
 11 15  1  0
 12 11  2  0
 13 24  1  0
 13  8  1  0
 14 13  2  0
 17 16  1  0
 18 17  2  0
 19 17  1  0
 20 19  1  0
 21 20  1  0
 22 21  1  0
 23 22  1  6
 23 24  1  0
 25 23  1  0
 25 27  1  0
 26 25  2  0
M  END
$$$$
