CER.pdb
     RDKit          3D

 27 26  0  0  1  0  0  0  0  0999 V2000
    6.8066  -15.5674   20.0706 N   0  0  0  0  0  0  0  0  0  0  0  0
    8.0079  -14.7919   20.3760 C   0  0  1  0  0  0  0  0  0  0  0  0
    7.5268  -13.5532   21.1334 C   0  0  0  0  0  0  0  0  0  0  0  0
    6.6881  -14.1318   22.6433 S   0  0  0  0  0  0  0  0  0  0  0  0
    8.8179  -15.6214   21.2998 C   0  0  0  0  0  0  0  0  0  0  0  0
    8.2949  -16.6759   21.7370 O   0  0  0  0  0  0  0  0  0  0  0  0
   10.1299  -15.3090   21.7197 N   0  0  0  0  0  0  0  0  0  0  0  0
   10.8813  -16.2388   22.4871 C   0  0  1  0  0  0  0  0  0  0  0  0
   12.3591  -15.9267   22.5449 C   0  0  0  0  0  0  0  0  0  0  0  0
   13.1048  -16.9656   23.3623 C   0  0  0  0  0  0  0  0  0  0  0  0
   14.5621  -16.6867   23.3929 C   0  0  0  0  0  0  0  0  0  0  0  0
   15.3319  -17.3764   22.6785 O   0  0  0  0  0  0  0  0  0  0  0  0
   10.3452  -16.1922   23.8933 C   0  0  0  0  0  0  0  0  0  0  0  0
   10.2353  -15.0768   24.4694 O   0  0  0  0  0  0  0  0  0  0  0  0
   15.1005  -15.6929   24.1818 O   0  0  0  0  0  0  0  0  0  0  0  0
    4.4613  -21.4381   23.9566 N   0  0  0  0  0  0  0  0  0  0  0  0
    5.4797  -22.0907   24.7124 C   0  0  0  0  0  0  0  0  0  0  0  0
    5.3467  -23.3400   24.9921 N   0  0  0  0  0  0  0  0  0  0  0  0
    6.6354  -21.4111   25.1671 N   0  0  0  0  0  0  0  0  0  0  0  0
    6.8282  -19.9760   24.9164 C   0  0  0  0  0  0  0  0  0  0  0  0
    8.1177  -19.4982   25.5480 C   0  0  0  0  0  0  0  0  0  0  0  0
    8.0069  -18.0322   25.9030 C   0  0  0  0  0  0  0  0  0  0  0  0
    9.3622  -17.3591   25.9097 C   0  0  2  0  0  0  0  0  0  0  0  0
    9.9615  -17.3454   24.5912 N   0  0  0  0  0  0  0  0  0  0  0  0
   10.2569  -18.0886   26.8209 C   0  0  0  0  0  0  0  0  0  0  0  0
   11.2335  -18.7189   26.3783 O   0  0  0  0  0  0  0  0  0  0  0  0
   10.0127  -18.0749   28.1763 O   0  0  0  0  0  0  0  0  0  0  0  0
  2  1  1  1
  2  3  1  0
  3  4  1  0
  5  6  2  0
  5  2  1  0
  7  5  1  0
  8  7  1  0
  8  9  1  1
 10 11  1  0
 10  9  1  0
 11 15  1  0
 12 11  2  0
 13 24  1  0
 13  8  1  0
 14 13  2  0
 17 16  1  0
 18 17  2  0
 19 17  1  0
 20 19  1  0
 21 20  1  0
 22 21  1  0
 23 22  1  6
 23 24  1  0
 25 23  1  0
 25 27  1  0
 26 25  2  0
M  END
$$$$
