CER.pdb
     RDKit          3D

 27 26  0  0  1  0  0  0  0  0999 V2000
    5.5706  -13.7410   26.2362 N   0  0  0  0  0  0  0  0  0  0  0  0
    6.8333  -13.3183   25.6322 C   0  0  1  0  0  0  0  0  0  0  0  0
    7.6951  -12.7962   26.7829 C   0  0  0  0  0  0  0  0  0  0  0  0
    7.6072  -10.9771   26.7448 S   0  0  0  0  0  0  0  0  0  0  0  0
    7.4680  -14.5429   25.0891 C   0  0  0  0  0  0  0  0  0  0  0  0
    7.3571  -15.5972   25.7622 O   0  0  0  0  0  0  0  0  0  0  0  0
    8.1849  -14.6053   23.8735 N   0  0  0  0  0  0  0  0  0  0  0  0
    8.7884  -15.8212   23.4547 C   0  0  1  0  0  0  0  0  0  0  0  0
    9.2807  -15.7955   22.0257 C   0  0  0  0  0  0  0  0  0  0  0  0
    9.8600  -17.1396   21.6239 C   0  0  0  0  0  0  0  0  0  0  0  0
   10.3743  -17.1133   20.2320 C   0  0  0  0  0  0  0  0  0  0  0  0
    9.5688  -16.9273   19.2859 O   0  0  0  0  0  0  0  0  0  0  0  0
    9.9773  -16.0593   24.3473 C   0  0  0  0  0  0  0  0  0  0  0  0
   10.7728  -15.1083   24.5732 O   0  0  0  0  0  0  0  0  0  0  0  0
   11.7107  -17.2868   19.9423 O   0  0  0  0  0  0  0  0  0  0  0  0
   11.6861  -22.3396   30.5577 N   0  0  0  0  0  0  0  0  0  0  0  0
   12.2573  -21.0633   30.8388 C   0  0  0  0  0  0  0  0  0  0  0  0
   12.6625  -20.8094   32.0338 N   0  0  0  0  0  0  0  0  0  0  0  0
   12.3950  -20.0627   29.8467 N   0  0  0  0  0  0  0  0  0  0  0  0
   11.9379  -20.2834   28.4677 C   0  0  0  0  0  0  0  0  0  0  0  0
   12.2543  -19.0794   27.6074 C   0  0  0  0  0  0  0  0  0  0  0  0
   11.0391  -18.6911   26.7950 C   0  0  0  0  0  0  0  0  0  0  0  0
   11.3616  -17.5936   25.8045 C   0  0  2  0  0  0  0  0  0  0  0  0
   10.2363  -17.3023   24.9403 N   0  0  0  0  0  0  0  0  0  0  0  0
   12.4942  -18.0184   24.9679 C   0  0  0  0  0  0  0  0  0  0  0  0
   12.3045  -18.7011   23.9458 O   0  0  0  0  0  0  0  0  0  0  0  0
   13.7766  -17.6581   25.3179 O   0  0  0  0  0  0  0  0  0  0  0  0
  2  1  1  1
  2  3  1  0
  3  4  1  0
  5  6  2  0
  5  2  1  0
  7  5  1  0
  8  7  1  0
  8  9  1  6
 10 11  1  0
 10  9  1  0
 11 15  1  0
 12 11  2  0
 13 24  1  0
 13  8  1  0
 14 13  2  0
 17 16  1  0
 18 17  2  0
 19 17  1  0
 20 19  1  0
 21 20  1  0
 22 21  1  0
 23 22  1  1
 23 24  1  0
 25 23  1  0
 25 27  1  0
 26 25  2  0
M  END
$$$$
