CER.pdb
     RDKit          3D

 27 26  0  0  1  0  0  0  0  0999 V2000
    7.6179  -15.1783   18.7906 N   0  0  0  0  0  0  0  0  0  0  0  0
    8.5499  -14.5440   19.7218 C   0  0  1  0  0  0  0  0  0  0  0  0
    7.7087  -13.5944   20.5762 C   0  0  0  0  0  0  0  0  0  0  0  0
    7.4183  -12.0904   19.5906 S   0  0  0  0  0  0  0  0  0  0  0  0
    9.0698  -15.6239   20.5941 C   0  0  0  0  0  0  0  0  0  0  0  0
    8.3589  -16.6505   20.7271 O   0  0  0  0  0  0  0  0  0  0  0  0
   10.3026  -15.5781   21.2821 N   0  0  0  0  0  0  0  0  0  0  0  0
   10.7778  -16.7170   21.9857 C   0  0  1  0  0  0  0  0  0  0  0  0
   12.2554  -16.9751   21.7988 C   0  0  0  0  0  0  0  0  0  0  0  0
   12.5651  -17.3585   20.3633 C   0  0  0  0  0  0  0  0  0  0  0  0
   14.0127  -17.6252   20.1743 C   0  0  0  0  0  0  0  0  0  0  0  0
   14.8484  -16.9636   20.8396 O   0  0  0  0  0  0  0  0  0  0  0  0
   10.5351  -16.4690   23.4508 C   0  0  0  0  0  0  0  0  0  0  0  0
   11.0650  -15.4646   23.9972 O   0  0  0  0  0  0  0  0  0  0  0  0
   14.4720  -18.5778   19.2902 O   0  0  0  0  0  0  0  0  0  0  0  0
    4.9665  -21.7580   24.5689 N   0  0  0  0  0  0  0  0  0  0  0  0
    4.7359  -20.5163   23.9061 C   0  0  0  0  0  0  0  0  0  0  0  0
    3.7890  -20.4377   23.0379 N   0  0  0  0  0  0  0  0  0  0  0  0
    5.5140  -19.3634   24.1704 N   0  0  0  0  0  0  0  0  0  0  0  0
    6.6750  -19.4126   25.0699 C   0  0  0  0  0  0  0  0  0  0  0  0
    7.2468  -18.0260   25.2705 C   0  0  0  0  0  0  0  0  0  0  0  0
    8.4567  -18.0920   26.1756 C   0  0  0  0  0  0  0  0  0  0  0  0
    9.5759  -17.2075   25.6708 C   0  0  2  0  0  0  0  0  0  0  0  0
    9.7395  -17.3145   24.2357 N   0  0  0  0  0  0  0  0  0  0  0  0
   10.8351  -17.6107   26.3149 C   0  0  0  0  0  0  0  0  0  0  0  0
   10.9746  -17.5143   27.5470 O   0  0  0  0  0  0  0  0  0  0  0  0
   11.8700  -18.0996   25.5487 O   0  0  0  0  0  0  0  0  0  0  0  0
  2  1  1  6
  2  3  1  0
  3  4  1  0
  5  6  2  0
  5  2  1  0
  7  5  1  0
  8  7  1  0
  8  9  1  1
 10 11  1  0
 10  9  1  0
 11 15  1  0
 12 11  2  0
 13 24  1  0
 13  8  1  0
 14 13  2  0
 17 16  1  0
 18 17  2  0
 19 17  1  0
 20 19  1  0
 21 20  1  0
 22 21  1  0
 23 22  1  1
 23 24  1  0
 25 23  1  0
 25 27  1  0
 26 25  2  0
M  END
$$$$
