CER.pdb
     RDKit          3D

 27 26  0  0  1  0  0  0  0  0999 V2000
    7.2030  -12.9296   18.7557 N   0  0  0  0  0  0  0  0  0  0  0  0
    8.3872  -13.7549   18.5219 C   0  0  1  0  0  0  0  0  0  0  0  0
    9.5882  -12.8746   18.8712 C   0  0  0  0  0  0  0  0  0  0  0  0
    9.2804  -12.1659   20.5207 S   0  0  0  0  0  0  0  0  0  0  0  0
    8.3213  -14.8676   19.4992 C   0  0  0  0  0  0  0  0  0  0  0  0
    7.3781  -14.8522   20.3280 O   0  0  0  0  0  0  0  0  0  0  0  0
    9.2410  -15.9379   19.5619 N   0  0  0  0  0  0  0  0  0  0  0  0
    9.0110  -17.0352   20.4343 C   0  0  1  0  0  0  0  0  0  0  0  0
    9.2432  -18.3832   19.7908 C   0  0  0  0  0  0  0  0  0  0  0  0
    8.0362  -18.8152   18.9783 C   0  0  0  0  0  0  0  0  0  0  0  0
    8.2067  -20.1893   18.4441 C   0  0  0  0  0  0  0  0  0  0  0  0
    7.3997  -21.0862   18.7947 O   0  0  0  0  0  0  0  0  0  0  0  0
    9.9749  -16.9010   21.5831 C   0  0  0  0  0  0  0  0  0  0  0  0
   11.2129  -16.9155   21.3478 O   0  0  0  0  0  0  0  0  0  0  0  0
    9.2244  -20.5148   17.5733 O   0  0  0  0  0  0  0  0  0  0  0  0
    9.3357  -14.7317   30.1093 N   0  0  0  0  0  0  0  0  0  0  0  0
   10.4117  -14.7276   29.1731 C   0  0  0  0  0  0  0  0  0  0  0  0
   11.5307  -15.2705   29.5046 N   0  0  0  0  0  0  0  0  0  0  0  0
   10.2922  -14.1458   27.8879 N   0  0  0  0  0  0  0  0  0  0  0  0
   10.9824  -14.7153   26.7222 C   0  0  0  0  0  0  0  0  0  0  0  0
   10.5623  -16.1536   26.5105 C   0  0  0  0  0  0  0  0  0  0  0  0
    9.6507  -16.2539   25.3079 C   0  0  0  0  0  0  0  0  0  0  0  0
   10.4242  -16.5925   24.0522 C   0  0  2  0  0  0  0  0  0  0  0  0
    9.5487  -16.7596   22.9106 N   0  0  0  0  0  0  0  0  0  0  0  0
   11.1589  -17.8488   24.2642 C   0  0  0  0  0  0  0  0  0  0  0  0
   10.6303  -18.9430   23.9994 O   0  0  0  0  0  0  0  0  0  0  0  0
   12.4435  -17.8152   24.7600 O   0  0  0  0  0  0  0  0  0  0  0  0
  2  1  1  1
  2  3  1  0
  3  4  1  0
  5  6  2  0
  5  2  1  0
  7  5  1  0
  8  7  1  0
  8  9  1  6
 10 11  1  0
 10  9  1  0
 11 15  1  0
 12 11  2  0
 13 24  1  0
 13  8  1  0
 14 13  2  0
 17 16  1  0
 18 17  2  0
 19 17  1  0
 20 19  1  0
 21 20  1  0
 22 21  1  0
 23 22  1  1
 23 24  1  0
 25 23  1  0
 25 27  1  0
 26 25  2  0
M  END
$$$$
