CER.pdb
     RDKit          3D

 27 26  0  0  1  0  0  0  0  0999 V2000
   10.8242  -19.2307   18.7005 N   0  0  0  0  0  0  0  0  0  0  0  0
   10.7510  -18.1924   19.7275 C   0  0  1  0  0  0  0  0  0  0  0  0
    9.4851  -18.4875   20.5336 C   0  0  0  0  0  0  0  0  0  0  0  0
    8.1227  -17.5537   19.7657 S   0  0  0  0  0  0  0  0  0  0  0  0
   11.9258  -18.3924   20.6092 C   0  0  0  0  0  0  0  0  0  0  0  0
   12.0592  -19.5200   21.1455 O   0  0  0  0  0  0  0  0  0  0  0  0
   12.9000  -17.4077   20.8860 N   0  0  0  0  0  0  0  0  0  0  0  0
   14.0186  -17.7117   21.7072 C   0  0  1  0  0  0  0  0  0  0  0  0
   15.1969  -16.7888   21.4964 C   0  0  0  0  0  0  0  0  0  0  0  0
   16.3343  -17.1313   22.4412 C   0  0  0  0  0  0  0  0  0  0  0  0
   17.5084  -16.2518   22.2167 C   0  0  0  0  0  0  0  0  0  0  0  0
   18.4888  -16.6944   21.5675 O   0  0  0  0  0  0  0  0  0  0  0  0
   13.5726  -17.5701   23.1382 C   0  0  0  0  0  0  0  0  0  0  0  0
   13.1682  -16.4479   23.5447 O   0  0  0  0  0  0  0  0  0  0  0  0
   17.5588  -14.9613   22.6984 O   0  0  0  0  0  0  0  0  0  0  0  0
   12.3213  -23.5661   29.8462 N   0  0  0  0  0  0  0  0  0  0  0  0
   11.8708  -22.2871   30.2881 C   0  0  0  0  0  0  0  0  0  0  0  0
   11.3870  -22.1708   31.4752 N   0  0  0  0  0  0  0  0  0  0  0  0
   11.9371  -21.1372   29.4649 N   0  0  0  0  0  0  0  0  0  0  0  0
   12.3925  -21.2191   28.0701 C   0  0  0  0  0  0  0  0  0  0  0  0
   12.5950  -19.8327   27.4985 C   0  0  0  0  0  0  0  0  0  0  0  0
   13.0100  -19.9278   26.0472 C   0  0  0  0  0  0  0  0  0  0  0  0
   13.2167  -18.5579   25.4385 C   0  0  2  0  0  0  0  0  0  0  0  0
   13.5889  -18.6416   24.0413 N   0  0  0  0  0  0  0  0  0  0  0  0
   14.2907  -17.8654   26.1664 C   0  0  0  0  0  0  0  0  0  0  0  0
   15.4814  -18.0369   25.8508 O   0  0  0  0  0  0  0  0  0  0  0  0
   13.9771  -17.0192   27.2069 O   0  0  0  0  0  0  0  0  0  0  0  0
  2  1  1  6
  2  3  1  0
  3  4  1  0
  5  6  2  0
  5  2  1  0
  7  5  1  0
  8  7  1  0
  8  9  1  6
 10 11  1  0
 10  9  1  0
 11 15  1  0
 12 11  2  0
 13 24  1  0
 13  8  1  0
 14 13  2  0
 17 16  1  0
 18 17  2  0
 19 17  1  0
 20 19  1  0
 21 20  1  0
 22 21  1  0
 23 22  1  1
 23 24  1  0
 25 23  1  0
 25 27  1  0
 26 25  2  0
M  END
$$$$
