LIK.pdb
     RDKit          3D

 26 25  0  0  1  0  0  0  0  0999 V2000
    7.7441  -12.0808   18.7688 C   0  0  0  0  0  0  0  0  0  0  0  0
    7.6283  -13.5050   19.3360 C   0  0  1  0  0  0  0  0  0  0  0  0
    8.5142  -14.3535   18.4374 C   0  0  0  0  0  0  0  0  0  0  0  0
    8.1510  -13.4283   20.7341 C   0  0  0  0  0  0  0  0  0  0  0  0
    8.0553  -14.6950   21.5266 C   0  0  2  0  0  0  0  0  0  0  0  0
    6.7506  -15.2700   21.4212 N   0  0  0  0  0  0  0  0  0  0  0  0
    8.5815  -14.5804   22.8916 C   0  0  0  0  0  0  0  0  0  0  0  0
    9.7919  -14.2833   23.0331 O   0  0  0  0  0  0  0  0  0  0  0  0
    5.9743  -11.7735   26.3871 C   0  0  0  0  0  0  0  0  0  0  0  0
    7.0201  -12.5165   25.6097 C   0  0  0  0  0  0  0  0  0  0  0  0
    7.4592  -13.7933   26.3002 C   0  0  2  0  0  0  0  0  0  0  0  0
    8.1232  -13.5489   27.6125 C   0  0  0  0  0  0  0  0  0  0  0  0
    8.3385  -14.6386   25.4049 C   0  0  2  0  0  0  0  0  0  0  0  0
    7.8146  -14.7832   24.0707 N   0  0  0  0  0  0  0  0  0  0  0  0
    8.7089  -15.9382   26.0224 C   0  0  0  0  0  0  0  0  0  0  0  0
    7.8553  -16.7689   26.4423 O   0  0  0  0  0  0  0  0  0  0  0  0
   10.0719  -16.3125   26.1710 N   0  0  0  0  0  0  0  0  0  0  0  0
   10.5165  -17.5343   26.7661 C   0  0  1  0  0  0  0  0  0  0  0  0
   11.8516  -17.9498   26.1520 C   0  0  0  0  0  0  0  0  0  0  0  0
   11.9609  -19.4218   25.9782 C   0  0  0  0  0  0  0  0  0  0  0  0
   13.2572  -19.7842   25.3029 C   0  0  0  0  0  0  0  0  0  0  0  0
   13.3676  -21.2533   25.0843 C   0  0  0  0  0  0  0  0  0  0  0  0
   14.5893  -21.5948   24.3737 N   0  0  0  0  0  0  0  0  0  0  0  0
   10.7689  -17.2915   28.2212 C   0  0  0  0  0  0  0  0  0  0  0  0
   10.8821  -18.3563   29.1231 O   0  0  0  0  0  0  0  0  0  0  0  0
   10.8872  -16.1372   28.6824 O   0  0  0  0  0  0  0  0  0  0  0  0
  2  3  1  6
  2  1  1  0
  4  2  1  0
  5  7  1  0
  5  4  1  0
  5  6  1  1
  7  8  2  0
  9 10  1  0
 11 12  1  1
 11 10  1  0
 13 14  1  6
 13 11  1  0
 14  7  1  0
 15 13  1  0
 16 15  2  0
 17 15  1  0
 18 24  1  0
 18 17  1  0
 18 19  1  6
 20 19  1  0
 21 20  1  0
 22 21  1  0
 23 22  1  0
 24 25  1  0
 26 24  2  0
M  END
$$$$
