LIK.pdb
     RDKit          3D

 26 25  0  0  1  0  0  0  0  0999 V2000
    6.3851  -15.8015   18.6057 C   0  0  0  0  0  0  0  0  0  0  0  0
    7.3018  -14.6404   19.0242 C   0  0  1  0  0  0  0  0  0  0  0  0
    6.4786  -13.3867   18.7733 C   0  0  0  0  0  0  0  0  0  0  0  0
    7.5833  -14.8495   20.4771 C   0  0  0  0  0  0  0  0  0  0  0  0
    8.3253  -13.7394   21.1543 C   0  0  2  0  0  0  0  0  0  0  0  0
    9.4509  -13.3241   20.3768 N   0  0  0  0  0  0  0  0  0  0  0  0
    8.6021  -13.9916   22.5731 C   0  0  0  0  0  0  0  0  0  0  0  0
    9.7588  -14.3575   22.8915 O   0  0  0  0  0  0  0  0  0  0  0  0
    5.9477  -11.1134   26.4459 C   0  0  0  0  0  0  0  0  0  0  0  0
    6.9406  -11.8523   25.5983 C   0  0  0  0  0  0  0  0  0  0  0  0
    7.0124  -13.3279   25.9411 C   0  0  2  0  0  0  0  0  0  0  0  0
    7.3772  -13.5797   27.3646 C   0  0  0  0  0  0  0  0  0  0  0  0
    7.9439  -14.0729   25.0102 C   0  0  2  0  0  0  0  0  0  0  0  0
    7.6488  -13.8509   23.6177 N   0  0  0  0  0  0  0  0  0  0  0  0
    8.0669  -15.5139   25.3505 C   0  0  0  0  0  0  0  0  0  0  0  0
    7.0889  -16.3126   25.3271 O   0  0  0  0  0  0  0  0  0  0  0  0
    9.3199  -16.0699   25.7260 N   0  0  0  0  0  0  0  0  0  0  0  0
    9.5429  -17.4561   25.9962 C   0  0  1  0  0  0  0  0  0  0  0  0
   10.8092  -17.9226   25.2812 C   0  0  0  0  0  0  0  0  0  0  0  0
   10.6936  -17.8232   23.8029 C   0  0  0  0  0  0  0  0  0  0  0  0
   11.9695  -18.2668   23.1372 C   0  0  0  0  0  0  0  0  0  0  0  0
   11.8328  -18.2902   21.6543 C   0  0  0  0  0  0  0  0  0  0  0  0
   13.0590  -18.7383   21.0143 N   0  0  0  0  0  0  0  0  0  0  0  0
    9.7910  -17.6218   27.4630 C   0  0  0  0  0  0  0  0  0  0  0  0
    9.8053  -18.8903   28.0552 O   0  0  0  0  0  0  0  0  0  0  0  0
    9.9931  -16.6409   28.2086 O   0  0  0  0  0  0  0  0  0  0  0  0
  2  3  1  1
  2  1  1  0
  4  2  1  0
  5  7  1  0
  5  4  1  0
  5  6  1  6
  7  8  2  0
  9 10  1  0
 11 12  1  1
 11 10  1  0
 13 14  1  6
 13 11  1  0
 14  7  1  0
 15 13  1  0
 16 15  2  0
 17 15  1  0
 18 24  1  0
 18 17  1  0
 18 19  1  6
 20 19  1  0
 21 20  1  0
 22 21  1  0
 23 22  1  0
 24 25  1  0
 26 24  2  0
M  END
$$$$
