LIK.pdb
     RDKit          3D

 26 25  0  0  1  0  0  0  0  0999 V2000
    5.7120  -14.0501   19.0958 C   0  0  0  0  0  0  0  0  0  0  0  0
    7.2170  -13.9472   19.3924 C   0  0  1  0  0  0  0  0  0  0  0  0
    7.5554  -12.4805   19.1760 C   0  0  0  0  0  0  0  0  0  0  0  0
    7.3779  -14.3589   20.8201 C   0  0  0  0  0  0  0  0  0  0  0  0
    8.7637  -14.2338   21.3729 C   0  0  2  0  0  0  0  0  0  0  0  0
    9.7159  -14.8801   20.5246 N   0  0  0  0  0  0  0  0  0  0  0  0
    8.8649  -14.5683   22.7980 C   0  0  0  0  0  0  0  0  0  0  0  0
    9.8005  -15.3207   23.1614 O   0  0  0  0  0  0  0  0  0  0  0  0
    6.1194  -11.2822   26.3053 C   0  0  0  0  0  0  0  0  0  0  0  0
    7.2406  -12.0597   25.6822 C   0  0  0  0  0  0  0  0  0  0  0  0
    7.2215  -13.5239   26.0771 C   0  0  2  0  0  0  0  0  0  0  0  0
    7.5182  -13.7431   27.5216 C   0  0  0  0  0  0  0  0  0  0  0  0
    8.1473  -14.3484   25.2096 C   0  0  2  0  0  0  0  0  0  0  0  0
    7.9745  -14.0991   23.8013 N   0  0  0  0  0  0  0  0  0  0  0  0
    8.1158  -15.7951   25.5467 C   0  0  0  0  0  0  0  0  0  0  0  0
    7.0708  -16.4993   25.4611 O   0  0  0  0  0  0  0  0  0  0  0  0
    9.2876  -16.4659   25.9906 N   0  0  0  0  0  0  0  0  0  0  0  0
    9.3436  -17.8496   26.3465 C   0  0  1  0  0  0  0  0  0  0  0  0
   10.4704  -18.5340   25.5758 C   0  0  0  0  0  0  0  0  0  0  0  0
   10.2379  -18.5268   24.1079 C   0  0  0  0  0  0  0  0  0  0  0  0
   11.3034  -19.3173   23.3953 C   0  0  0  0  0  0  0  0  0  0  0  0
   11.1239  -19.2684   21.9176 C   0  0  0  0  0  0  0  0  0  0  0  0
   12.1482  -20.0394   21.2317 N   0  0  0  0  0  0  0  0  0  0  0  0
    9.6898  -17.9545   27.7988 C   0  0  0  0  0  0  0  0  0  0  0  0
    9.5700  -19.1690   28.4849 O   0  0  0  0  0  0  0  0  0  0  0  0
   10.0959  -16.9688   28.4488 O   0  0  0  0  0  0  0  0  0  0  0  0
  2  3  1  1
  2  1  1  0
  4  2  1  0
  5  7  1  0
  5  4  1  0
  5  6  1  6
  7  8  2  0
  9 10  1  0
 11 12  1  1
 11 10  1  0
 13 14  1  6
 13 11  1  0
 14  7  1  0
 15 13  1  0
 16 15  2  0
 17 15  1  0
 18 24  1  0
 18 17  1  0
 18 19  1  6
 20 19  1  0
 21 20  1  0
 22 21  1  0
 23 22  1  0
 24 25  1  0
 26 24  2  0
M  END
$$$$
