LIK.pdb
     RDKit          3D

 26 25  0  0  1  0  0  0  0  0999 V2000
    5.7412  -14.3892   19.1471 C   0  0  0  0  0  0  0  0  0  0  0  0
    7.2362  -14.1846   19.4414 C   0  0  1  0  0  0  0  0  0  0  0  0
    7.4693  -12.6945   19.2467 C   0  0  0  0  0  0  0  0  0  0  0  0
    7.4310  -14.6054   20.8623 C   0  0  0  0  0  0  0  0  0  0  0  0
    8.7800  -14.3104   21.4409 C   0  0  2  0  0  0  0  0  0  0  0  0
    9.8199  -14.8500   20.6217 N   0  0  0  0  0  0  0  0  0  0  0  0
    8.8889  -14.6129   22.8726 C   0  0  0  0  0  0  0  0  0  0  0  0
    9.8205  -15.3650   23.2464 O   0  0  0  0  0  0  0  0  0  0  0  0
    5.9024  -11.3916   26.1898 C   0  0  0  0  0  0  0  0  0  0  0  0
    7.1517  -12.0659   25.7053 C   0  0  0  0  0  0  0  0  0  0  0  0
    7.2307  -13.5188   26.1333 C   0  0  2  0  0  0  0  0  0  0  0  0
    7.5379  -13.6848   27.5826 C   0  0  0  0  0  0  0  0  0  0  0  0
    8.2122  -14.2981   25.2855 C   0  0  2  0  0  0  0  0  0  0  0  0
    8.0101  -14.1127   23.8712 N   0  0  0  0  0  0  0  0  0  0  0  0
    8.2971  -15.7301   25.6725 C   0  0  0  0  0  0  0  0  0  0  0  0
    7.3125  -16.5188   25.6129 O   0  0  0  0  0  0  0  0  0  0  0  0
    9.5186  -16.2883   26.1376 N   0  0  0  0  0  0  0  0  0  0  0  0
    9.6895  -17.6536   26.5265 C   0  0  1  0  0  0  0  0  0  0  0  0
   10.8437  -18.2720   25.7406 C   0  0  0  0  0  0  0  0  0  0  0  0
   11.1488  -19.6586   26.1800 C   0  0  0  0  0  0  0  0  0  0  0  0
   11.5047  -20.5255   25.0012 C   0  0  0  0  0  0  0  0  0  0  0  0
   11.8019  -21.9233   25.4206 C   0  0  0  0  0  0  0  0  0  0  0  0
   13.2340  -22.1634   25.4940 N   0  0  0  0  0  0  0  0  0  0  0  0
   10.0822  -17.6923   27.9703 C   0  0  0  0  0  0  0  0  0  0  0  0
    9.9190  -18.8548   28.7332 O   0  0  0  0  0  0  0  0  0  0  0  0
   10.5671  -16.6954   28.5447 O   0  0  0  0  0  0  0  0  0  0  0  0
  2  3  1  1
  2  1  1  0
  4  2  1  0
  5  7  1  0
  5  4  1  0
  5  6  1  6
  7  8  2  0
  9 10  1  0
 11 12  1  1
 11 10  1  0
 13 14  1  6
 13 11  1  0
 14  7  1  0
 15 13  1  0
 16 15  2  0
 17 15  1  0
 18 24  1  0
 18 17  1  0
 18 19  1  6
 20 19  1  0
 21 20  1  0
 22 21  1  0
 23 22  1  0
 24 25  1  0
 26 24  2  0
M  END
$$$$
