LIK.pdb
     RDKit          3D

 26 25  0  0  1  0  0  0  0  0999 V2000
    7.0607  -18.4081   19.6147 C   0  0  0  0  0  0  0  0  0  0  0  0
    6.1176  -17.8886   20.7119 C   0  0  1  0  0  0  0  0  0  0  0  0
    5.4068  -19.1285   21.2313 C   0  0  0  0  0  0  0  0  0  0  0  0
    7.0013  -17.2696   21.7464 C   0  0  0  0  0  0  0  0  0  0  0  0
    7.0497  -15.7732   21.7384 C   0  0  2  0  0  0  0  0  0  0  0  0
    7.4120  -15.2775   20.4473 N   0  0  0  0  0  0  0  0  0  0  0  0
    7.7974  -15.1992   22.8629 C   0  0  0  0  0  0  0  0  0  0  0  0
    9.0361  -15.0513   22.7323 O   0  0  0  0  0  0  0  0  0  0  0  0
    5.5194  -11.5999   26.1424 C   0  0  0  0  0  0  0  0  0  0  0  0
    6.5872  -12.3096   25.3638 C   0  0  0  0  0  0  0  0  0  0  0  0
    7.2283  -13.4362   26.1513 C   0  0  2  0  0  0  0  0  0  0  0  0
    8.1075  -12.9516   27.2534 C   0  0  0  0  0  0  0  0  0  0  0  0
    7.9784  -14.3917   25.2492 C   0  0  2  0  0  0  0  0  0  0  0  0
    7.2162  -14.7971   24.0959 N   0  0  0  0  0  0  0  0  0  0  0  0
    8.5625  -15.5415   25.9870 C   0  0  0  0  0  0  0  0  0  0  0  0
    7.8596  -16.4162   26.5666 O   0  0  0  0  0  0  0  0  0  0  0  0
    9.9708  -15.7116   26.0750 N   0  0  0  0  0  0  0  0  0  0  0  0
   10.6153  -16.8111   26.7231 C   0  0  1  0  0  0  0  0  0  0  0  0
   11.9951  -17.0342   26.1078 C   0  0  0  0  0  0  0  0  0  0  0  0
   11.9237  -17.3492   24.6572 C   0  0  0  0  0  0  0  0  0  0  0  0
   13.2976  -17.6149   24.1008 C   0  0  0  0  0  0  0  0  0  0  0  0
   13.2557  -17.8530   22.6312 C   0  0  0  0  0  0  0  0  0  0  0  0
   14.5806  -18.1272   22.0989 N   0  0  0  0  0  0  0  0  0  0  0  0
   10.8373  -16.4539   28.1596 C   0  0  0  0  0  0  0  0  0  0  0  0
   11.2583  -17.4146   29.0869 O   0  0  0  0  0  0  0  0  0  0  0  0
   10.6562  -15.2930   28.5820 O   0  0  0  0  0  0  0  0  0  0  0  0
  2  3  1  1
  2  1  1  0
  4  2  1  0
  5  7  1  0
  5  4  1  0
  5  6  1  6
  7  8  2  0
  9 10  1  0
 11 12  1  1
 11 10  1  0
 13 14  1  6
 13 11  1  0
 14  7  1  0
 15 13  1  0
 16 15  2  0
 17 15  1  0
 18 24  1  0
 18 17  1  0
 18 19  1  6
 20 19  1  0
 21 20  1  0
 22 21  1  0
 23 22  1  0
 24 25  1  0
 26 24  2  0
M  END
$$$$
