LIK.pdb
     RDKit          3D

 26 25  0  0  1  0  0  0  0  0999 V2000
    5.7276  -21.3124   18.5636 C   0  0  0  0  0  0  0  0  0  0  0  0
    6.2357  -20.1883   17.6463 C   0  0  1  0  0  0  0  0  0  0  0  0
    4.9920  -19.3923   17.2829 C   0  0  0  0  0  0  0  0  0  0  0  0
    7.1937  -19.3925   18.4726 C   0  0  0  0  0  0  0  0  0  0  0  0
    7.6672  -18.1136   17.8547 C   0  0  2  0  0  0  0  0  0  0  0  0
    8.3094  -18.3554   16.6005 N   0  0  0  0  0  0  0  0  0  0  0  0
    8.4057  -17.2469   18.7804 C   0  0  0  0  0  0  0  0  0  0  0  0
    9.6536  -17.3638   18.8279 O   0  0  0  0  0  0  0  0  0  0  0  0
    7.0682  -12.0389   19.8005 C   0  0  0  0  0  0  0  0  0  0  0  0
    7.8035  -13.3295   19.5915 C   0  0  0  0  0  0  0  0  0  0  0  0
    7.9137  -14.1476   20.8638 C   0  0  2  0  0  0  0  0  0  0  0  0
    8.6409  -13.4369   21.9540 C   0  0  0  0  0  0  0  0  0  0  0  0
    8.5319  -15.5039   20.6039 C   0  0  2  0  0  0  0  0  0  0  0  0
    7.8055  -16.2799   19.6315 N   0  0  0  0  0  0  0  0  0  0  0  0
    8.8092  -16.2593   21.8529 C   0  0  0  0  0  0  0  0  0  0  0  0
    7.8983  -16.6752   22.6225 O   0  0  0  0  0  0  0  0  0  0  0  0
   10.1430  -16.5539   22.2458 N   0  0  0  0  0  0  0  0  0  0  0  0
   10.4965  -17.3786   23.3590 C   0  0  1  0  0  0  0  0  0  0  0  0
   11.8268  -18.0753   23.0815 C   0  0  0  0  0  0  0  0  0  0  0  0
   11.7752  -18.9309   21.8674 C   0  0  0  0  0  0  0  0  0  0  0  0
   13.1007  -19.6066   21.6344 C   0  0  0  0  0  0  0  0  0  0  0  0
   13.0886  -20.4179   20.3855 C   0  0  0  0  0  0  0  0  0  0  0  0
   14.4091  -20.9445   20.0807 N   0  0  0  0  0  0  0  0  0  0  0  0
   10.7107  -16.5016   24.5528 C   0  0  0  0  0  0  0  0  0  0  0  0
   10.7193  -17.0327   25.8481 O   0  0  0  0  0  0  0  0  0  0  0  0
   10.8885  -15.2710   24.4387 O   0  0  0  0  0  0  0  0  0  0  0  0
  2  3  1  1
  2  1  1  0
  4  2  1  0
  5  7  1  0
  5  4  1  0
  5  6  1  6
  7  8  2  0
  9 10  1  0
 11 12  1  1
 11 10  1  0
 13 14  1  6
 13 11  1  0
 14  7  1  0
 15 13  1  0
 16 15  2  0
 17 15  1  0
 18 24  1  0
 18 17  1  0
 18 19  1  6
 20 19  1  0
 21 20  1  0
 22 21  1  0
 23 22  1  0
 24 25  1  0
 26 24  2  0
M  END
$$$$
