LIK.pdb
     RDKit          3D

 26 25  0  0  1  0  0  0  0  0999 V2000
    5.6873  -19.8167   21.6673 C   0  0  0  0  0  0  0  0  0  0  0  0
    5.7174  -18.3768   21.1297 C   0  0  1  0  0  0  0  0  0  0  0  0
    4.2723  -17.9080   21.1956 C   0  0  0  0  0  0  0  0  0  0  0  0
    6.6013  -17.6140   22.0629 C   0  0  0  0  0  0  0  0  0  0  0  0
    6.6657  -16.1373   21.8244 C   0  0  2  0  0  0  0  0  0  0  0  0
    6.8746  -15.8488   20.4399 N   0  0  0  0  0  0  0  0  0  0  0  0
    7.5509  -15.4258   22.7536 C   0  0  0  0  0  0  0  0  0  0  0  0
    8.7621  -15.3168   22.4464 O   0  0  0  0  0  0  0  0  0  0  0  0
    5.6550  -11.4995   25.9897 C   0  0  0  0  0  0  0  0  0  0  0  0
    6.5940  -12.2769   25.1157 C   0  0  0  0  0  0  0  0  0  0  0  0
    7.3888  -13.3096   25.8916 C   0  0  2  0  0  0  0  0  0  0  0  0
    8.3992  -12.7033   26.8050 C   0  0  0  0  0  0  0  0  0  0  0  0
    8.0374  -14.3214   24.9724 C   0  0  2  0  0  0  0  0  0  0  0  0
    7.1325  -14.8487   23.9831 N   0  0  0  0  0  0  0  0  0  0  0  0
    8.7677  -15.3845   25.7099 C   0  0  0  0  0  0  0  0  0  0  0  0
    8.1943  -16.3903   26.2146 O   0  0  0  0  0  0  0  0  0  0  0  0
   10.1766  -15.3147   25.8840 N   0  0  0  0  0  0  0  0  0  0  0  0
   11.0209  -16.4443   26.1197 C   0  0  1  0  0  0  0  0  0  0  0  0
   10.1650  -17.6718   26.4246 C   0  0  0  0  0  0  0  0  0  0  0  0
   10.9821  -18.8991   26.6117 C   0  0  0  0  0  0  0  0  0  0  0  0
   11.0024  -19.3105   28.0602 C   0  0  0  0  0  0  0  0  0  0  0  0
   11.8072  -20.5467   28.2661 C   0  0  0  0  0  0  0  0  0  0  0  0
   11.9467  -20.8613   29.6787 N   0  0  0  0  0  0  0  0  0  0  0  0
   11.7745  -16.7465   24.8624 C   0  0  0  0  0  0  0  0  0  0  0  0
   12.9711  -16.0857   24.5598 O   0  0  0  0  0  0  0  0  0  0  0  0
   11.3667  -17.5942   24.0413 O   0  0  0  0  0  0  0  0  0  0  0  0
  2  3  1  1
  2  1  1  0
  4  2  1  0
  5  7  1  0
  5  4  1  0
  5  6  1  6
  7  8  2  0
  9 10  1  0
 11 12  1  6
 11 10  1  0
 13 14  1  1
 13 11  1  0
 14  7  1  0
 15 13  1  0
 16 15  2  0
 17 15  1  0
 18 24  1  0
 18 17  1  0
 18 19  1  6
 20 19  1  0
 21 20  1  0
 22 21  1  0
 23 22  1  0
 24 25  1  0
 26 24  2  0
M  END
$$$$
