LIK.pdb
     RDKit          3D

 26 25  0  0  1  0  0  0  0  0999 V2000
    5.7845  -18.6304   20.2881 C   0  0  0  0  0  0  0  0  0  0  0  0
    6.3022  -17.2032   20.0465 C   0  0  1  0  0  0  0  0  0  0  0  0
    5.0490  -16.3470   19.9517 C   0  0  0  0  0  0  0  0  0  0  0  0
    7.1286  -16.8634   21.2446 C   0  0  0  0  0  0  0  0  0  0  0  0
    7.5095  -15.4213   21.3748 C   0  0  2  0  0  0  0  0  0  0  0  0
    8.2127  -14.9686   20.2153 N   0  0  0  0  0  0  0  0  0  0  0  0
    8.1374  -15.0886   22.6586 C   0  0  0  0  0  0  0  0  0  0  0  0
    9.3867  -15.1652   22.7406 O   0  0  0  0  0  0  0  0  0  0  0  0
    5.9151  -11.4811   26.0862 C   0  0  0  0  0  0  0  0  0  0  0  0
    6.9482  -12.2786   25.3469 C   0  0  0  0  0  0  0  0  0  0  0  0
    7.2609  -13.5971   26.0281 C   0  0  2  0  0  0  0  0  0  0  0  0
    7.9638  -13.4285   27.3320 C   0  0  0  0  0  0  0  0  0  0  0  0
    8.0355  -14.5257   25.1187 C   0  0  2  0  0  0  0  0  0  0  0  0
    7.4283  -14.6841   23.8219 N   0  0  0  0  0  0  0  0  0  0  0  0
    8.3624  -15.8234   25.7641 C   0  0  0  0  0  0  0  0  0  0  0  0
    7.4809  -16.6347   26.1639 O   0  0  0  0  0  0  0  0  0  0  0  0
    9.7130  -16.2181   25.9647 N   0  0  0  0  0  0  0  0  0  0  0  0
   10.1169  -17.4749   26.5138 C   0  0  1  0  0  0  0  0  0  0  0  0
   11.3180  -18.0129   25.7390 C   0  0  0  0  0  0  0  0  0  0  0  0
   10.9937  -18.2944   24.3162 C   0  0  0  0  0  0  0  0  0  0  0  0
   12.2136  -18.7765   23.5765 C   0  0  0  0  0  0  0  0  0  0  0  0
   11.8913  -19.1391   22.1684 C   0  0  0  0  0  0  0  0  0  0  0  0
   13.0803  -19.5505   21.4397 N   0  0  0  0  0  0  0  0  0  0  0  0
   10.5762  -17.2546   27.9212 C   0  0  0  0  0  0  0  0  0  0  0  0
   10.7733  -18.3310   28.7944 O   0  0  0  0  0  0  0  0  0  0  0  0
   10.7992  -16.1096   28.3663 O   0  0  0  0  0  0  0  0  0  0  0  0
  2  3  1  1
  2  1  1  0
  4  2  1  0
  5  7  1  0
  5  4  1  0
  5  6  1  6
  7  8  2  0
  9 10  1  0
 11 12  1  1
 11 10  1  0
 13 14  1  6
 13 11  1  0
 14  7  1  0
 15 13  1  0
 16 15  2  0
 17 15  1  0
 18 24  1  0
 18 17  1  0
 18 19  1  6
 20 19  1  0
 21 20  1  0
 22 21  1  0
 23 22  1  0
 24 25  1  0
 26 24  2  0
M  END
$$$$
