LIK.pdb
     RDKit          3D

 26 25  0  0  1  0  0  0  0  0999 V2000
    7.3666  -12.4210   19.4286 C   0  0  0  0  0  0  0  0  0  0  0  0
    8.0156  -13.7778   19.1102 C   0  0  1  0  0  0  0  0  0  0  0  0
    8.9036  -13.5097   17.9052 C   0  0  0  0  0  0  0  0  0  0  0  0
    8.8070  -14.1435   20.3243 C   0  0  0  0  0  0  0  0  0  0  0  0
    8.1026  -15.0235   21.3097 C   0  0  2  0  0  0  0  0  0  0  0  0
    6.6858  -14.9697   21.1261 N   0  0  0  0  0  0  0  0  0  0  0  0
    8.5626  -14.8504   22.6923 C   0  0  0  0  0  0  0  0  0  0  0  0
    9.7951  -14.9170   22.9156 O   0  0  0  0  0  0  0  0  0  0  0  0
    5.9182  -11.5071   25.9972 C   0  0  0  0  0  0  0  0  0  0  0  0
    6.9405  -12.3250   25.2650 C   0  0  0  0  0  0  0  0  0  0  0  0
    7.3140  -13.5913   26.0114 C   0  0  2  0  0  0  0  0  0  0  0  0
    7.9695  -13.3240   27.3235 C   0  0  0  0  0  0  0  0  0  0  0  0
    8.1682  -14.5081   25.1634 C   0  0  2  0  0  0  0  0  0  0  0  0
    7.7078  -14.6119   23.8023 N   0  0  0  0  0  0  0  0  0  0  0  0
    8.3957  -15.8326   25.7971 C   0  0  0  0  0  0  0  0  0  0  0  0
    7.4657  -16.6567   26.0227 O   0  0  0  0  0  0  0  0  0  0  0  0
    9.7006  -16.2400   26.1864 N   0  0  0  0  0  0  0  0  0  0  0  0
   10.0385  -17.5541   26.6372 C   0  0  1  0  0  0  0  0  0  0  0  0
   11.2792  -18.0490   25.8969 C   0  0  0  0  0  0  0  0  0  0  0  0
   11.6467  -19.4387   26.2743 C   0  0  0  0  0  0  0  0  0  0  0  0
   12.8584  -19.8970   25.5067 C   0  0  0  0  0  0  0  0  0  0  0  0
   13.1676  -21.3286   25.7771 C   0  0  0  0  0  0  0  0  0  0  0  0
   14.2251  -21.8178   24.9074 N   0  0  0  0  0  0  0  0  0  0  0  0
   10.4028  -17.4815   28.0872 C   0  0  0  0  0  0  0  0  0  0  0  0
   10.6982  -16.2570   28.6982 O   0  0  0  0  0  0  0  0  0  0  0  0
   10.4565  -18.5041   28.8016 O   0  0  0  0  0  0  0  0  0  0  0  0
  2  3  1  6
  2  1  1  0
  4  2  1  0
  5  7  1  0
  5  4  1  0
  5  6  1  1
  7  8  2  0
  9 10  1  0
 11 12  1  1
 11 10  1  0
 13 14  1  6
 13 11  1  0
 14  7  1  0
 15 13  1  0
 16 15  2  0
 17 15  1  0
 18 24  1  0
 18 17  1  0
 18 19  1  6
 20 19  1  0
 21 20  1  0
 22 21  1  0
 23 22  1  0
 24 25  1  0
 26 24  2  0
M  END
$$$$
