LIK.pdb
     RDKit          3D

 26 25  0  0  1  0  0  0  0  0999 V2000
    5.9352  -18.9327   20.3530 C   0  0  0  0  0  0  0  0  0  0  0  0
    6.1885  -17.4321   20.1353 C   0  0  1  0  0  0  0  0  0  0  0  0
    4.8129  -16.7898   20.2236 C   0  0  0  0  0  0  0  0  0  0  0  0
    7.0834  -17.0055   21.2537 C   0  0  0  0  0  0  0  0  0  0  0  0
    7.2487  -15.5263   21.4163 C   0  0  2  0  0  0  0  0  0  0  0  0
    7.7452  -14.9295   20.2158 N   0  0  0  0  0  0  0  0  0  0  0  0
    7.9518  -15.1409   22.6453 C   0  0  0  0  0  0  0  0  0  0  0  0
    9.2052  -15.1025   22.6194 O   0  0  0  0  0  0  0  0  0  0  0  0
    5.6684  -11.7054   26.2197 C   0  0  0  0  0  0  0  0  0  0  0  0
    6.7256  -12.3942   25.4086 C   0  0  0  0  0  0  0  0  0  0  0  0
    7.2122  -13.6758   26.0574 C   0  0  2  0  0  0  0  0  0  0  0  0
    7.9771  -13.4397   27.3151 C   0  0  0  0  0  0  0  0  0  0  0  0
    8.0159  -14.5199   25.0927 C   0  0  2  0  0  0  0  0  0  0  0  0
    7.3114  -14.8066   23.8692 N   0  0  0  0  0  0  0  0  0  0  0  0
    8.5852  -15.7363   25.7282 C   0  0  0  0  0  0  0  0  0  0  0  0
    7.8721  -16.6354   26.2556 O   0  0  0  0  0  0  0  0  0  0  0  0
    9.9902  -15.9465   25.7715 N   0  0  0  0  0  0  0  0  0  0  0  0
   10.6148  -17.1672   26.1766 C   0  0  1  0  0  0  0  0  0  0  0  0
   11.9736  -17.3019   25.4925 C   0  0  0  0  0  0  0  0  0  0  0  0
   12.6533  -18.5795   25.8307 C   0  0  0  0  0  0  0  0  0  0  0  0
   13.9635  -18.6968   25.0975 C   0  0  0  0  0  0  0  0  0  0  0  0
   14.6665  -19.9659   25.4342 C   0  0  0  0  0  0  0  0  0  0  0  0
   15.5661  -20.3745   24.3675 N   0  0  0  0  0  0  0  0  0  0  0  0
   10.8786  -17.1020   27.6485 C   0  0  0  0  0  0  0  0  0  0  0  0
   10.7993  -15.8897   28.3444 O   0  0  0  0  0  0  0  0  0  0  0  0
   11.1774  -18.1200   28.3067 O   0  0  0  0  0  0  0  0  0  0  0  0
  2  3  1  1
  2  1  1  0
  4  2  1  0
  5  7  1  0
  5  4  1  0
  5  6  1  6
  7  8  2  0
  9 10  1  0
 11 12  1  1
 11 10  1  0
 13 14  1  6
 13 11  1  0
 14  7  1  0
 15 13  1  0
 16 15  2  0
 17 15  1  0
 18 24  1  0
 18 17  1  0
 18 19  1  6
 20 19  1  0
 21 20  1  0
 22 21  1  0
 23 22  1  0
 24 25  1  0
 26 24  2  0
M  END
$$$$
