LIK.pdb
     RDKit          3D

 26 25  0  0  1  0  0  0  0  0999 V2000
   11.5011  -19.9300   26.8991 C   0  0  0  0  0  0  0  0  0  0  0  0
   10.3943  -19.3344   27.7843 C   0  0  1  0  0  0  0  0  0  0  0  0
   11.1152  -18.3624   28.7051 C   0  0  0  0  0  0  0  0  0  0  0  0
    9.4586  -18.6380   26.8497 C   0  0  0  0  0  0  0  0  0  0  0  0
    8.3497  -17.8724   27.5024 C   0  0  2  0  0  0  0  0  0  0  0  0
    7.4960  -18.7415   28.2506 N   0  0  0  0  0  0  0  0  0  0  0  0
    7.6617  -16.9421   26.6000 C   0  0  0  0  0  0  0  0  0  0  0  0
    6.6065  -17.3317   26.0451 O   0  0  0  0  0  0  0  0  0  0  0  0
    6.5407  -11.8409   27.5045 C   0  0  0  0  0  0  0  0  0  0  0  0
    6.5100  -13.2233   26.9232 C   0  0  0  0  0  0  0  0  0  0  0  0
    7.3791  -13.3529   25.6871 C   0  0  2  0  0  0  0  0  0  0  0  0
    6.8954  -12.5269   24.5440 C   0  0  0  0  0  0  0  0  0  0  0  0
    7.5456  -14.7978   25.2704 C   0  0  2  0  0  0  0  0  0  0  0  0
    8.1074  -15.6247   26.3078 N   0  0  0  0  0  0  0  0  0  0  0  0
    8.2512  -14.9448   23.9711 C   0  0  0  0  0  0  0  0  0  0  0  0
    9.4881  -14.7311   23.8315 O   0  0  0  0  0  0  0  0  0  0  0  0
    7.5489  -15.3417   22.8010 N   0  0  0  0  0  0  0  0  0  0  0  0
    8.1500  -15.5177   21.5156 C   0  0  1  0  0  0  0  0  0  0  0  0
    7.9356  -14.2635   20.6711 C   0  0  0  0  0  0  0  0  0  0  0  0
    8.6340  -14.3369   19.3613 C   0  0  0  0  0  0  0  0  0  0  0  0
    7.9651  -13.4446   18.3494 C   0  0  0  0  0  0  0  0  0  0  0  0
    8.5239  -13.6511   16.9844 C   0  0  0  0  0  0  0  0  0  0  0  0
    7.8025  -12.8721   15.9911 N   0  0  0  0  0  0  0  0  0  0  0  0
    9.6281  -15.6669   21.6972 C   0  0  0  0  0  0  0  0  0  0  0  0
   10.3725  -14.7041   22.3894 O   0  0  0  0  0  0  0  0  0  0  0  0
   10.2488  -16.6495   21.2409 O   0  0  0  0  0  0  0  0  0  0  0  0
  2  3  1  1
  2  1  1  0
  4  2  1  0
  5  7  1  0
  5  4  1  0
  5  6  1  6
  7  8  2  0
  9 10  1  0
 11 12  1  6
 11 10  1  0
 13 14  1  1
 13 11  1  0
 14  7  1  0
 15 13  1  0
 16 15  2  0
 17 15  1  0
 18 24  1  0
 18 17  1  0
 18 19  1  6
 20 19  1  0
 21 20  1  0
 22 21  1  0
 23 22  1  0
 24 25  1  0
 26 24  2  0
M  END
$$$$
