LIK.pdb
     RDKit          3D

 26 25  0  0  1  0  0  0  0  0999 V2000
    7.8227  -12.2425   18.4603 C   0  0  0  0  0  0  0  0  0  0  0  0
    7.6853  -13.6653   19.0261 C   0  0  1  0  0  0  0  0  0  0  0  0
    8.7929  -14.4594   18.3516 C   0  0  0  0  0  0  0  0  0  0  0  0
    7.8991  -13.5379   20.4999 C   0  0  0  0  0  0  0  0  0  0  0  0
    7.7674  -14.8086   21.2807 C   0  0  2  0  0  0  0  0  0  0  0  0
    6.4637  -15.3745   21.1255 N   0  0  0  0  0  0  0  0  0  0  0  0
    8.2455  -14.7054   22.6641 C   0  0  0  0  0  0  0  0  0  0  0  0
    9.4794  -14.5829   22.8532 O   0  0  0  0  0  0  0  0  0  0  0  0
    5.8921  -11.4309   25.8990 C   0  0  0  0  0  0  0  0  0  0  0  0
    6.8632  -12.3399   25.2056 C   0  0  0  0  0  0  0  0  0  0  0  0
    7.1280  -13.6120   25.9878 C   0  0  2  0  0  0  0  0  0  0  0  0
    7.8144  -13.3658   27.2881 C   0  0  0  0  0  0  0  0  0  0  0  0
    7.8909  -14.6258   25.1635 C   0  0  2  0  0  0  0  0  0  0  0  0
    7.4068  -14.7349   23.8110 N   0  0  0  0  0  0  0  0  0  0  0  0
    8.0128  -15.9432   25.8397 C   0  0  0  0  0  0  0  0  0  0  0  0
    7.0148  -16.6493   26.1565 O   0  0  0  0  0  0  0  0  0  0  0  0
    9.2877  -16.4792   26.1675 N   0  0  0  0  0  0  0  0  0  0  0  0
    9.4968  -17.7459   26.7967 C   0  0  1  0  0  0  0  0  0  0  0  0
   10.5417  -18.5415   26.0173 C   0  0  0  0  0  0  0  0  0  0  0  0
    9.9411  -19.6608   25.2458 C   0  0  0  0  0  0  0  0  0  0  0  0
   10.9862  -20.3564   24.4141 C   0  0  0  0  0  0  0  0  0  0  0  0
   10.4203  -21.5329   23.6973 C   0  0  0  0  0  0  0  0  0  0  0  0
   11.4463  -22.2474   22.9552 N   0  0  0  0  0  0  0  0  0  0  0  0
   10.0641  -17.5121   28.1619 C   0  0  0  0  0  0  0  0  0  0  0  0
   10.0427  -18.5175   29.1359 O   0  0  0  0  0  0  0  0  0  0  0  0
   10.5745  -16.4182   28.4812 O   0  0  0  0  0  0  0  0  0  0  0  0
  2  3  1  6
  2  1  1  0
  4  2  1  0
  5  7  1  0
  5  4  1  0
  5  6  1  1
  7  8  2  0
  9 10  1  0
 11 12  1  1
 11 10  1  0
 13 14  1  6
 13 11  1  0
 14  7  1  0
 15 13  1  0
 16 15  2  0
 17 15  1  0
 18 24  1  0
 18 17  1  0
 18 19  1  6
 20 19  1  0
 21 20  1  0
 22 21  1  0
 23 22  1  0
 24 25  1  0
 26 24  2  0
M  END
$$$$
