LIK.pdb
     RDKit          3D

 26 25  0  0  1  0  0  0  0  0999 V2000
    4.5442  -19.4237   21.5622 C   0  0  0  0  0  0  0  0  0  0  0  0
    4.8184  -17.9891   21.0825 C   0  0  1  0  0  0  0  0  0  0  0  0
    3.4752  -17.2833   21.1826 C   0  0  0  0  0  0  0  0  0  0  0  0
    5.8234  -17.4279   22.0358 C   0  0  0  0  0  0  0  0  0  0  0  0
    6.1928  -15.9946   21.8104 C   0  0  2  0  0  0  0  0  0  0  0  0
    6.5204  -15.7577   20.4391 N   0  0  0  0  0  0  0  0  0  0  0  0
    7.1574  -15.4717   22.7848 C   0  0  0  0  0  0  0  0  0  0  0  0
    8.3765  -15.5286   22.4955 O   0  0  0  0  0  0  0  0  0  0  0  0
    5.8609  -11.5028   26.3624 C   0  0  0  0  0  0  0  0  0  0  0  0
    6.6325  -12.3645   25.4073 C   0  0  0  0  0  0  0  0  0  0  0  0
    7.2301  -13.5856   26.0798 C   0  0  2  0  0  0  0  0  0  0  0  0
    8.2769  -13.2449   27.0852 C   0  0  0  0  0  0  0  0  0  0  0  0
    7.7625  -14.5761   25.0676 C   0  0  2  0  0  0  0  0  0  0  0  0
    6.8078  -14.9029   24.0394 N   0  0  0  0  0  0  0  0  0  0  0  0
    8.3626  -15.7793   25.6999 C   0  0  0  0  0  0  0  0  0  0  0  0
    7.7019  -16.5820   26.4169 O   0  0  0  0  0  0  0  0  0  0  0  0
    9.7387  -16.0869   25.5215 N   0  0  0  0  0  0  0  0  0  0  0  0
   10.3677  -17.2851   25.9832 C   0  0  1  0  0  0  0  0  0  0  0  0
   11.6247  -17.5568   25.1597 C   0  0  0  0  0  0  0  0  0  0  0  0
   11.3116  -17.9364   23.7573 C   0  0  0  0  0  0  0  0  0  0  0  0
   12.5748  -18.2049   22.9828 C   0  0  0  0  0  0  0  0  0  0  0  0
   12.2802  -18.6118   21.5807 C   0  0  0  0  0  0  0  0  0  0  0  0
   13.4989  -18.7496   20.7998 N   0  0  0  0  0  0  0  0  0  0  0  0
   10.8156  -17.0744   27.3957 C   0  0  0  0  0  0  0  0  0  0  0  0
   11.1578  -18.1569   28.2150 O   0  0  0  0  0  0  0  0  0  0  0  0
   10.9003  -15.9323   27.8931 O   0  0  0  0  0  0  0  0  0  0  0  0
  2  3  1  1
  2  1  1  0
  4  2  1  0
  5  7  1  0
  5  4  1  0
  5  6  1  6
  7  8  2  0
  9 10  1  0
 11 12  1  1
 11 10  1  0
 13 14  1  6
 13 11  1  0
 14  7  1  0
 15 13  1  0
 16 15  2  0
 17 15  1  0
 18 24  1  0
 18 17  1  0
 18 19  1  6
 20 19  1  0
 21 20  1  0
 22 21  1  0
 23 22  1  0
 24 25  1  0
 26 24  2  0
M  END
$$$$
