FHI.pdb
     RDKit          3D

 30 31  0  0  1  0  0  0  0  0999 V2000
   32.4817  -25.1329  -15.7199 N   0  0  0  0  0  0  0  0  0  0  0  0
   31.4595  -25.1850  -16.7322 C   0  0  1  0  0  0  0  0  0  0  0  0
   31.9480  -25.9878  -17.9123 C   0  0  0  0  0  0  0  0  0  0  0  0
   33.0296  -25.2725  -18.6066 C   0  0  0  0  0  0  0  0  0  0  0  0
   34.3097  -25.7617  -18.5187 C   0  0  0  0  0  0  0  0  0  0  0  0
   35.3115  -25.0796  -19.1750 C   0  0  0  0  0  0  0  0  0  0  0  0
   35.0402  -23.9405  -19.8987 C   0  0  0  0  0  0  0  0  0  0  0  0
   33.7583  -23.4410  -19.9933 C   0  0  0  0  0  0  0  0  0  0  0  0
   32.7550  -24.1321  -19.3306 C   0  0  0  0  0  0  0  0  0  0  0  0
   30.2007  -25.7696  -16.2672 C   0  0  0  0  0  0  0  0  0  0  0  0
   30.2461  -26.6021  -15.3269 O   0  0  0  0  0  0  0  0  0  0  0  0
   28.9066  -25.4665  -16.8026 N   0  0  0  0  0  0  0  0  0  0  0  0
   27.6993  -26.0269  -16.2462 C   0  0  1  0  0  0  0  0  0  0  0  0
   26.6694  -25.0424  -15.8282 C   0  0  0  0  0  0  0  0  0  0  0  0
   26.2725  -24.0146  -16.7811 C   0  0  0  0  0  0  0  0  0  0  0  0
   26.6180  -23.7489  -18.0570 C   0  0  0  0  0  0  0  0  0  0  0  0
   25.9435  -22.6673  -18.5368 N   0  0  0  0  0  0  0  0  0  0  0  0
   25.1744  -22.2792  -17.5164 C   0  0  0  0  0  0  0  0  0  0  0  0
   25.3420  -23.0540  -16.4581 N   0  0  0  0  0  0  0  0  0  0  0  0
   27.1059  -26.9659  -17.2225 C   0  0  0  0  0  0  0  0  0  0  0  0
   27.4225  -26.8808  -18.4168 O   0  0  0  0  0  0  0  0  0  0  0  0
   24.9995  -32.6589  -17.6693 C   0  0  0  0  0  0  0  0  0  0  0  0
   24.9057  -31.2239  -18.1305 C   0  0  0  0  0  0  0  0  0  0  0  0
   25.5877  -30.2605  -17.2090 C   0  0  2  0  0  0  0  0  0  0  0  0
   24.9219  -30.3596  -15.8600 C   0  0  0  0  0  0  0  0  0  0  0  0
   25.5964  -28.8619  -17.7396 C   0  0  2  0  0  0  0  0  0  0  0  0
   26.1945  -27.9385  -16.7859 N   0  0  0  0  0  0  0  0  0  0  0  0
   24.2374  -28.3915  -18.0528 C   0  0  0  0  0  0  0  0  0  0  0  0
   23.5602  -27.5488  -17.1686 O   0  0  0  0  0  0  0  0  0  0  0  0
   23.5935  -28.6896  -19.0923 O   0  0  0  0  0  0  0  0  0  0  0  0
  2  1  1  1
  2 10  1  0
  2  3  1  0
  3  4  1  0
  4  9  2  0
  5  6  2  0
  5  4  1  0
  6  7  1  0
  7  8  2  0
  9  8  1  0
 10 12  1  0
 10 11  2  0
 12 13  1  0
 13 20  1  0
 14 15  1  0
 13 14  1  6
 15 19  1  0
 15 16  2  0
 16 17  1  0
 18 17  1  0
 19 18  2  0
 20 27  1  0
 20 21  2  0
 22 23  1  0
 23 24  1  0
 24 26  1  0
 24 25  1  1
 26 28  1  0
 26 27  1  1
 28 30  2  0
 28 29  1  0
M  END
$$$$
