FHI.pdb
     RDKit          3D

 30 31  0  0  1  0  0  0  0  0999 V2000
   25.6772  -19.5261  -18.6955 N   0  0  0  0  0  0  0  0  0  0  0  0
   26.2921  -20.1964  -17.5798 C   0  0  1  0  0  0  0  0  0  0  0  0
   27.7239  -19.7435  -17.4362 C   0  0  0  0  0  0  0  0  0  0  0  0
   28.5452  -20.2853  -18.5297 C   0  0  0  0  0  0  0  0  0  0  0  0
   28.8061  -21.6333  -18.5562 C   0  0  0  0  0  0  0  0  0  0  0  0
   29.5772  -22.1247  -19.5873 C   0  0  0  0  0  0  0  0  0  0  0  0
   30.0731  -21.2913  -20.5643 C   0  0  0  0  0  0  0  0  0  0  0  0
   29.8169  -19.9363  -20.5469 C   0  0  0  0  0  0  0  0  0  0  0  0
   29.0404  -19.4484  -19.5066 C   0  0  0  0  0  0  0  0  0  0  0  0
   25.6072  -19.9681  -16.3064 C   0  0  0  0  0  0  0  0  0  0  0  0
   25.3731  -18.7817  -15.9644 O   0  0  0  0  0  0  0  0  0  0  0  0
   25.1772  -20.9984  -15.4082 N   0  0  0  0  0  0  0  0  0  0  0  0
   24.4970  -20.6991  -14.1718 C   0  0  1  0  0  0  0  0  0  0  0  0
   23.0728  -21.1139  -14.1074 C   0  0  0  0  0  0  0  0  0  0  0  0
   22.1392  -20.5202  -15.0548 C   0  0  0  0  0  0  0  0  0  0  0  0
   22.2444  -19.5318  -15.9658 C   0  0  0  0  0  0  0  0  0  0  0  0
   21.0739  -19.3534  -16.6392 N   0  0  0  0  0  0  0  0  0  0  0  0
   20.2493  -20.2627  -16.1134 C   0  0  0  0  0  0  0  0  0  0  0  0
   20.8454  -20.9735  -15.1710 N   0  0  0  0  0  0  0  0  0  0  0  0
   25.2348  -21.3191  -13.0501 C   0  0  0  0  0  0  0  0  0  0  0  0
   25.4939  -22.5296  -13.0889 O   0  0  0  0  0  0  0  0  0  0  0  0
   29.9561  -20.5470  -11.6244 C   0  0  0  0  0  0  0  0  0  0  0  0
   28.5526  -21.0909  -11.7465 C   0  0  0  0  0  0  0  0  0  0  0  0
   27.6592  -20.6822  -10.6164 C   0  0  2  0  0  0  0  0  0  0  0  0
   28.2738  -21.1851   -9.3349 C   0  0  0  0  0  0  0  0  0  0  0  0
   26.2500  -21.1510  -10.7959 C   0  0  2  0  0  0  0  0  0  0  0  0
   25.6310  -20.5318  -11.9591 N   0  0  0  0  0  0  0  0  0  0  0  0
   25.4239  -20.8522   -9.6150 C   0  0  0  0  0  0  0  0  0  0  0  0
   24.5276  -19.7812   -9.6326 O   0  0  0  0  0  0  0  0  0  0  0  0
   25.4475  -21.5004   -8.5364 O   0  0  0  0  0  0  0  0  0  0  0  0
  2  1  1  6
  2 10  1  0
  2  3  1  0
  3  4  1  0
  4  9  2  0
  5  6  2  0
  5  4  1  0
  6  7  1  0
  7  8  2  0
  9  8  1  0
 10 12  1  0
 10 11  2  0
 12 13  1  0
 13 20  1  0
 14 15  1  0
 13 14  1  6
 15 19  1  0
 15 16  2  0
 16 17  1  0
 18 17  1  0
 19 18  2  0
 20 27  1  0
 20 21  2  0
 22 23  1  0
 23 24  1  0
 24 26  1  0
 24 25  1  1
 26 28  1  0
 26 27  1  6
 28 30  2  0
 28 29  1  0
M  END
$$$$
