FHI.pdb
     RDKit          3D

 30 31  0  0  1  0  0  0  0  0999 V2000
   23.9230  -23.1906  -20.3042 N   0  0  0  0  0  0  0  0  0  0  0  0
   22.9149  -22.6265  -19.4452 C   0  0  1  0  0  0  0  0  0  0  0  0
   22.0542  -23.7265  -18.8749 C   0  0  0  0  0  0  0  0  0  0  0  0
   20.7960  -23.8361  -19.6289 C   0  0  0  0  0  0  0  0  0  0  0  0
   20.4175  -22.7947  -20.4400 C   0  0  0  0  0  0  0  0  0  0  0  0
   19.2359  -22.9132  -21.1395 C   0  0  0  0  0  0  0  0  0  0  0  0
   18.4552  -24.0418  -21.0306 C   0  0  0  0  0  0  0  0  0  0  0  0
   18.8263  -25.0932  -20.2189 C   0  0  0  0  0  0  0  0  0  0  0  0
   20.0163  -24.9674  -19.5180 C   0  0  0  0  0  0  0  0  0  0  0  0
   23.4594  -21.8450  -18.3337 C   0  0  0  0  0  0  0  0  0  0  0  0
   24.7050  -21.6900  -18.2733 O   0  0  0  0  0  0  0  0  0  0  0  0
   22.6793  -21.2357  -17.2976 N   0  0  0  0  0  0  0  0  0  0  0  0
   23.2659  -20.3539  -16.3181 C   0  0  1  0  0  0  0  0  0  0  0  0
   22.7374  -18.9664  -16.3072 C   0  0  0  0  0  0  0  0  0  0  0  0
   23.2257  -18.0356  -17.3156 C   0  0  0  0  0  0  0  0  0  0  0  0
   24.1315  -18.1352  -18.3094 C   0  0  0  0  0  0  0  0  0  0  0  0
   24.2257  -16.9716  -19.0109 N   0  0  0  0  0  0  0  0  0  0  0  0
   23.3502  -16.1568  -18.4169 C   0  0  0  0  0  0  0  0  0  0  0  0
   22.7379  -16.7524  -17.4076 N   0  0  0  0  0  0  0  0  0  0  0  0
   23.1029  -20.9464  -14.9730 C   0  0  0  0  0  0  0  0  0  0  0  0
   22.1207  -21.6641  -14.7404 O   0  0  0  0  0  0  0  0  0  0  0  0
   26.2344  -21.5769   -9.6239 C   0  0  0  0  0  0  0  0  0  0  0  0
   24.9978  -21.7372  -10.4760 C   0  0  0  0  0  0  0  0  0  0  0  0
   25.1297  -21.1173  -11.8327 C   0  0  2  0  0  0  0  0  0  0  0  0
   25.6073  -19.6991  -11.6495 C   0  0  0  0  0  0  0  0  0  0  0  0
   23.8654  -21.1953  -12.6284 C   0  0  2  0  0  0  0  0  0  0  0  0
   24.0593  -20.6895  -13.9798 N   0  0  0  0  0  0  0  0  0  0  0  0
   22.7783  -20.4301  -11.9969 C   0  0  0  0  0  0  0  0  0  0  0  0
   21.9633  -21.0257  -11.0318 O   0  0  0  0  0  0  0  0  0  0  0  0
   22.4974  -19.2306  -12.2548 O   0  0  0  0  0  0  0  0  0  0  0  0
  2  1  1  1
  2 10  1  0
  2  3  1  0
  3  4  1  0
  4  9  2  0
  5  6  2  0
  5  4  1  0
  6  7  1  0
  7  8  2  0
  9  8  1  0
 10 12  1  0
 10 11  2  0
 12 13  1  0
 13 20  1  0
 14 15  1  0
 13 14  1  1
 15 19  1  0
 15 16  2  0
 16 17  1  0
 18 17  1  0
 19 18  2  0
 20 27  1  0
 20 21  2  0
 22 23  1  0
 23 24  1  0
 24 26  1  0
 24 25  1  1
 26 28  1  0
 26 27  1  6
 28 30  2  0
 28 29  1  0
M  END
$$$$
