FHI.pdb
     RDKit          3D

 30 31  0  0  1  0  0  0  0  0999 V2000
   27.0944  -22.4617  -12.6055 N   0  0  0  0  0  0  0  0  0  0  0  0
   26.3851  -21.6219  -11.6760 C   0  0  1  0  0  0  0  0  0  0  0  0
   27.1660  -20.3543  -11.4325 C   0  0  0  0  0  0  0  0  0  0  0  0
   28.2973  -20.6146  -10.5291 C   0  0  0  0  0  0  0  0  0  0  0  0
   29.5516  -20.7688  -11.0665 C   0  0  0  0  0  0  0  0  0  0  0  0
   30.6006  -21.0122  -10.2065 C   0  0  0  0  0  0  0  0  0  0  0  0
   30.4004  -21.0990   -8.8473 C   0  0  0  0  0  0  0  0  0  0  0  0
   29.1450  -20.9457   -8.2975 C   0  0  0  0  0  0  0  0  0  0  0  0
   28.0939  -20.7010   -9.1685 C   0  0  0  0  0  0  0  0  0  0  0  0
   25.0402  -21.2553  -12.1228 C   0  0  0  0  0  0  0  0  0  0  0  0
   24.7649  -21.3869  -13.3418 O   0  0  0  0  0  0  0  0  0  0  0  0
   24.0007  -20.7531  -11.2740 N   0  0  0  0  0  0  0  0  0  0  0  0
   22.6155  -20.7597  -11.6770 C   0  0  1  0  0  0  0  0  0  0  0  0
   21.6303  -20.5430  -10.5874 C   0  0  0  0  0  0  0  0  0  0  0  0
   20.2132  -20.5927  -10.9206 C   0  0  0  0  0  0  0  0  0  0  0  0
   19.5361  -20.7023  -12.0814 C   0  0  0  0  0  0  0  0  0  0  0  0
   18.1910  -20.7259  -11.8688 N   0  0  0  0  0  0  0  0  0  0  0  0
   18.0650  -20.6279  -10.5430 C   0  0  0  0  0  0  0  0  0  0  0  0
   19.2425  -20.5470   -9.9467 N   0  0  0  0  0  0  0  0  0  0  0  0
   22.4111  -19.7385  -12.7270 C   0  0  0  0  0  0  0  0  0  0  0  0
   22.7895  -18.5765  -12.5259 O   0  0  0  0  0  0  0  0  0  0  0  0
   24.5476  -20.0367  -17.2598 C   0  0  0  0  0  0  0  0  0  0  0  0
   23.8047  -19.5934  -16.0220 C   0  0  0  0  0  0  0  0  0  0  0  0
   22.3264  -19.4758  -16.2295 C   0  0  2  0  0  0  0  0  0  0  0  0
   22.0924  -18.4923  -17.3478 C   0  0  0  0  0  0  0  0  0  0  0  0
   21.5958  -19.1021  -14.9788 C   0  0  2  0  0  0  0  0  0  0  0  0
   21.7932  -20.0967  -13.9340 N   0  0  0  0  0  0  0  0  0  0  0  0
   20.1505  -18.9581  -15.2167 C   0  0  0  0  0  0  0  0  0  0  0  0
   19.3499  -20.0865  -15.4065 O   0  0  0  0  0  0  0  0  0  0  0  0
   19.5346  -17.8617  -15.2683 O   0  0  0  0  0  0  0  0  0  0  0  0
  2  1  1  6
  2 10  1  0
  2  3  1  0
  3  4  1  0
  4  9  2  0
  5  6  2  0
  5  4  1  0
  6  7  1  0
  7  8  2  0
  9  8  1  0
 10 12  1  0
 10 11  2  0
 12 13  1  0
 13 20  1  0
 14 15  1  0
 13 14  1  1
 15 19  1  0
 15 16  2  0
 16 17  1  0
 18 17  1  0
 19 18  2  0
 20 27  1  0
 20 21  2  0
 22 23  1  0
 23 24  1  0
 24 26  1  0
 24 25  1  6
 26 28  1  0
 26 27  1  1
 28 30  2  0
 28 29  1  0
M  END
$$$$
