FHI.pdb
     RDKit          3D

 30 31  0  0  1  0  0  0  0  0999 V2000
   31.0875  -21.0605  -14.9900 N   0  0  0  0  0  0  0  0  0  0  0  0
   29.9516  -21.6773  -14.3564 C   0  0  1  0  0  0  0  0  0  0  0  0
   30.1437  -21.6891  -12.8602 C   0  0  0  0  0  0  0  0  0  0  0  0
   31.3612  -22.4345  -12.5055 C   0  0  0  0  0  0  0  0  0  0  0  0
   31.6476  -23.5948  -13.1820 C   0  0  0  0  0  0  0  0  0  0  0  0
   32.7920  -24.2811  -12.8375 C   0  0  0  0  0  0  0  0  0  0  0  0
   33.6262  -23.8198  -11.8444 C   0  0  0  0  0  0  0  0  0  0  0  0
   33.3478  -22.6558  -11.1590 C   0  0  0  0  0  0  0  0  0  0  0  0
   32.1947  -21.9702  -11.5107 C   0  0  0  0  0  0  0  0  0  0  0  0
   28.6810  -21.0133  -14.6520 C   0  0  0  0  0  0  0  0  0  0  0  0
   28.6578  -19.7569  -14.6619 O   0  0  0  0  0  0  0  0  0  0  0  0
   27.4480  -21.6866  -14.9342 N   0  0  0  0  0  0  0  0  0  0  0  0
   26.1792  -21.0008  -14.9055 C   0  0  1  0  0  0  0  0  0  0  0  0
   25.3131  -21.2059  -16.0940 C   0  0  0  0  0  0  0  0  0  0  0  0
   23.9869  -20.6033  -16.0919 C   0  0  0  0  0  0  0  0  0  0  0  0
   23.3064  -19.8610  -15.1953 C   0  0  0  0  0  0  0  0  0  0  0  0
   22.0803  -19.5099  -15.6732 N   0  0  0  0  0  0  0  0  0  0  0  0
   22.0309  -20.0592  -16.8894 C   0  0  0  0  0  0  0  0  0  0  0  0
   23.1433  -20.7154  -17.1729 N   0  0  0  0  0  0  0  0  0  0  0  0
   25.4387  -21.4017  -13.6898 C   0  0  0  0  0  0  0  0  0  0  0  0
   25.2360  -22.6037  -13.4708 O   0  0  0  0  0  0  0  0  0  0  0  0
   26.7782  -19.8314   -8.9278 C   0  0  0  0  0  0  0  0  0  0  0  0
   26.1739  -20.5599  -10.1046 C   0  0  0  0  0  0  0  0  0  0  0  0
   24.7607  -20.1547  -10.3892 C   0  0  2  0  0  0  0  0  0  0  0  0
   23.9357  -20.4604   -9.1649 C   0  0  0  0  0  0  0  0  0  0  0  0
   24.2124  -20.7997  -11.6224 C   0  0  2  0  0  0  0  0  0  0  0  0
   24.9761  -20.4193  -12.8021 N   0  0  0  0  0  0  0  0  0  0  0  0
   22.8031  -20.4375  -11.8438 C   0  0  0  0  0  0  0  0  0  0  0  0
   22.4740  -19.3068  -12.5946 O   0  0  0  0  0  0  0  0  0  0  0  0
   21.8158  -21.0797  -11.4002 O   0  0  0  0  0  0  0  0  0  0  0  0
  2  1  1  6
  2 10  1  0
  2  3  1  0
  3  4  1  0
  4  9  2  0
  5  6  2  0
  5  4  1  0
  6  7  1  0
  7  8  2  0
  9  8  1  0
 10 12  1  0
 10 11  2  0
 12 13  1  0
 13 20  1  0
 14 15  1  0
 13 14  1  6
 15 19  1  0
 15 16  2  0
 16 17  1  0
 18 17  1  0
 19 18  2  0
 20 27  1  0
 20 21  2  0
 22 23  1  0
 23 24  1  0
 24 26  1  0
 24 25  1  1
 26 28  1  0
 26 27  1  6
 28 30  2  0
 28 29  1  0
M  END
$$$$
