FHI.pdb
     RDKit          3D

 30 31  0  0  1  0  0  0  0  0999 V2000
   18.4529  -14.9846  -17.5503 N   0  0  0  0  0  0  0  0  0  0  0  0
   19.0898  -14.1457  -16.5690 C   0  0  1  0  0  0  0  0  0  0  0  0
   20.5716  -14.4269  -16.5393 C   0  0  0  0  0  0  0  0  0  0  0  0
   20.8242  -15.7968  -16.0669 C   0  0  0  0  0  0  0  0  0  0  0  0
   21.1906  -16.7548  -16.9800 C   0  0  0  0  0  0  0  0  0  0  0  0
   21.4234  -18.0333  -16.5211 C   0  0  0  0  0  0  0  0  0  0  0  0
   21.2934  -18.3445  -15.1864 C   0  0  0  0  0  0  0  0  0  0  0  0
   20.9260  -17.3899  -14.2614 C   0  0  0  0  0  0  0  0  0  0  0  0
   20.6932  -16.1056  -14.7299 C   0  0  0  0  0  0  0  0  0  0  0  0
   18.8976  -12.7140  -16.8056 C   0  0  0  0  0  0  0  0  0  0  0  0
   18.8063  -12.3174  -17.9945 O   0  0  0  0  0  0  0  0  0  0  0  0
   18.8040  -11.7170  -15.7807 N   0  0  0  0  0  0  0  0  0  0  0  0
   18.5192  -10.3354  -16.0827 C   0  0  1  0  0  0  0  0  0  0  0  0
   17.1982   -9.8380  -15.6218 C   0  0  0  0  0  0  0  0  0  0  0  0
   16.0020  -10.3600  -16.2685 C   0  0  0  0  0  0  0  0  0  0  0  0
   15.7980  -11.1872  -17.3135 C   0  0  0  0  0  0  0  0  0  0  0  0
   14.4690  -11.3959  -17.5267 N   0  0  0  0  0  0  0  0  0  0  0  0
   13.8657  -10.6719  -16.5806 C   0  0  0  0  0  0  0  0  0  0  0  0
   14.7421  -10.0437  -15.8152 N   0  0  0  0  0  0  0  0  0  0  0  0
   19.5851   -9.4844  -15.5112 C   0  0  0  0  0  0  0  0  0  0  0  0
   20.1350   -9.8268  -14.4556 O   0  0  0  0  0  0  0  0  0  0  0  0
   24.5609   -6.9042  -17.3305 C   0  0  0  0  0  0  0  0  0  0  0  0
   23.4202   -6.8000  -16.3463 C   0  0  0  0  0  0  0  0  0  0  0  0
   22.2058   -7.5699  -16.7644 C   0  0  2  0  0  0  0  0  0  0  0  0
   21.7371   -7.0144  -18.0852 C   0  0  0  0  0  0  0  0  0  0  0  0
   21.1290   -7.5581  -15.7261 C   0  0  2  0  0  0  0  0  0  0  0  0
   19.9595   -8.3037  -16.1690 N   0  0  0  0  0  0  0  0  0  0  0  0
   20.7087   -6.1869  -15.3953 C   0  0  0  0  0  0  0  0  0  0  0  0
   19.4538   -5.7181  -15.7902 O   0  0  0  0  0  0  0  0  0  0  0  0
   21.4050   -5.3536  -14.7592 O   0  0  0  0  0  0  0  0  0  0  0  0
  2  1  1  6
  2 10  1  0
  2  3  1  0
  3  4  1  0
  4  9  2  0
  5  6  2  0
  5  4  1  0
  6  7  1  0
  7  8  2  0
  9  8  1  0
 10 12  1  0
 10 11  2  0
 12 13  1  0
 13 20  1  0
 14 15  1  0
 13 14  1  1
 15 19  1  0
 15 16  2  0
 16 17  1  0
 18 17  1  0
 19 18  2  0
 20 27  1  0
 20 21  2  0
 22 23  1  0
 23 24  1  0
 24 26  1  0
 24 25  1  6
 26 28  1  0
 26 27  1  6
 28 30  2  0
 28 29  1  0
M  END
$$$$
