FHI.pdb
     RDKit          3D

 30 31  0  0  1  0  0  0  0  0999 V2000
   19.4235  -20.7592  -14.8189 N   0  0  0  0  0  0  0  0  0  0  0  0
   20.3474  -19.9558  -15.5759 C   0  0  1  0  0  0  0  0  0  0  0  0
   20.3099  -18.5306  -15.0827 C   0  0  0  0  0  0  0  0  0  0  0  0
   19.3975  -17.7258  -15.9094 C   0  0  0  0  0  0  0  0  0  0  0  0
   19.9066  -16.6626  -16.6139 C   0  0  0  0  0  0  0  0  0  0  0  0
   19.0385  -15.9188  -17.3836 C   0  0  0  0  0  0  0  0  0  0  0  0
   17.6989  -16.2297  -17.4466 C   0  0  0  0  0  0  0  0  0  0  0  0
   17.1777  -17.2952  -16.7431 C   0  0  0  0  0  0  0  0  0  0  0  0
   18.0567  -18.0395  -15.9707 C   0  0  0  0  0  0  0  0  0  0  0  0
   21.7307  -20.4298  -15.5088 C   0  0  0  0  0  0  0  0  0  0  0  0
   22.0879  -21.0714  -14.4891 O   0  0  0  0  0  0  0  0  0  0  0  0
   22.7216  -20.2194  -16.5223 N   0  0  0  0  0  0  0  0  0  0  0  0
   24.0404  -20.7971  -16.4328 C   0  0  1  0  0  0  0  0  0  0  0  0
   24.8275  -20.7951  -17.6919 C   0  0  0  0  0  0  0  0  0  0  0  0
   26.1459  -21.4143  -17.6807 C   0  0  0  0  0  0  0  0  0  0  0  0
   26.8699  -22.0385  -16.7300 C   0  0  0  0  0  0  0  0  0  0  0  0
   28.0632  -22.4726  -17.2226 N   0  0  0  0  0  0  0  0  0  0  0  0
   28.0477  -22.0957  -18.5036 C   0  0  0  0  0  0  0  0  0  0  0  0
   26.9270  -21.4655  -18.8122 N   0  0  0  0  0  0  0  0  0  0  0  0
   24.8065  -20.0958  -15.3800 C   0  0  0  0  0  0  0  0  0  0  0  0
   24.6965  -18.8676  -15.2649 O   0  0  0  0  0  0  0  0  0  0  0  0
   24.6654  -21.5350  -10.3790 C   0  0  0  0  0  0  0  0  0  0  0  0
   24.8613  -20.7633  -11.6622 C   0  0  0  0  0  0  0  0  0  0  0  0
   26.2689  -20.8088  -12.1711 C   0  0  2  0  0  0  0  0  0  0  0  0
   27.1617  -20.2018  -11.1189 C   0  0  0  0  0  0  0  0  0  0  0  0
   26.4232  -20.1448  -13.5026 C   0  0  2  0  0  0  0  0  0  0  0  0
   25.6457  -20.8274  -14.5270 N   0  0  0  0  0  0  0  0  0  0  0  0
   27.8304  -20.1105  -13.9325 C   0  0  0  0  0  0  0  0  0  0  0  0
   28.5966  -18.9571  -13.7507 O   0  0  0  0  0  0  0  0  0  0  0  0
   28.4415  -21.0676  -14.4753 O   0  0  0  0  0  0  0  0  0  0  0  0
  2  1  1  1
  2 10  1  0
  2  3  1  0
  3  4  1  0
  4  9  2  0
  5  6  2  0
  5  4  1  0
  6  7  1  0
  7  8  2  0
  9  8  1  0
 10 12  1  0
 10 11  2  0
 12 13  1  0
 13 20  1  0
 14 15  1  0
 13 14  1  6
 15 19  1  0
 15 16  2  0
 16 17  1  0
 18 17  1  0
 19 18  2  0
 20 27  1  0
 20 21  2  0
 22 23  1  0
 23 24  1  0
 24 26  1  0
 24 25  1  1
 26 28  1  0
 26 27  1  6
 28 30  2  0
 28 29  1  0
M  END
$$$$
