FHI.pdb
     RDKit          3D

 30 31  0  0  1  0  0  0  0  0999 V2000
   20.3451  -20.3847  -16.6326 N   0  0  0  0  0  0  0  0  0  0  0  0
   21.5849  -19.7487  -16.2711 C   0  0  1  0  0  0  0  0  0  0  0  0
   21.3199  -18.3393  -15.8031 C   0  0  0  0  0  0  0  0  0  0  0  0
   21.2050  -17.4301  -16.9536 C   0  0  0  0  0  0  0  0  0  0  0  0
   22.3519  -16.9996  -17.5742 C   0  0  0  0  0  0  0  0  0  0  0  0
   22.2268  -16.1480  -18.6506 C   0  0  0  0  0  0  0  0  0  0  0  0
   20.9893  -15.7388  -19.0936 C   0  0  0  0  0  0  0  0  0  0  0  0
   19.8315  -16.1653  -18.4775 C   0  0  0  0  0  0  0  0  0  0  0  0
   19.9646  -17.0220  -17.3951 C   0  0  0  0  0  0  0  0  0  0  0  0
   22.3219  -20.4519  -15.2198 C   0  0  0  0  0  0  0  0  0  0  0  0
   21.6770  -20.8806  -14.2301 O   0  0  0  0  0  0  0  0  0  0  0  0
   23.7342  -20.6939  -15.2274 N   0  0  0  0  0  0  0  0  0  0  0  0
   24.3790  -21.4859  -14.2086 C   0  0  1  0  0  0  0  0  0  0  0  0
   25.2400  -22.5894  -14.7042 C   0  0  0  0  0  0  0  0  0  0  0  0
   24.5938  -23.7653  -15.2713 C   0  0  0  0  0  0  0  0  0  0  0  0
   23.3088  -24.1617  -15.3686 C   0  0  0  0  0  0  0  0  0  0  0  0
   23.2073  -25.3549  -16.0175 N   0  0  0  0  0  0  0  0  0  0  0  0
   24.4688  -25.6767  -16.3150 C   0  0  0  0  0  0  0  0  0  0  0  0
   25.3191  -24.7582  -15.8886 N   0  0  0  0  0  0  0  0  0  0  0  0
   25.1803  -20.5978  -13.3388 C   0  0  0  0  0  0  0  0  0  0  0  0
   25.5362  -19.4906  -13.7645 O   0  0  0  0  0  0  0  0  0  0  0  0
   25.1962  -21.1753   -7.7509 C   0  0  0  0  0  0  0  0  0  0  0  0
   25.1918  -20.6156   -9.1536 C   0  0  0  0  0  0  0  0  0  0  0  0
   26.5182  -20.7275   -9.8395 C   0  0  2  0  0  0  0  0  0  0  0  0
   27.5328  -19.9821   -9.0102 C   0  0  0  0  0  0  0  0  0  0  0  0
   26.4775  -20.2496  -11.2565 C   0  0  2  0  0  0  0  0  0  0  0  0
   25.5265  -21.0185  -12.0465 N   0  0  0  0  0  0  0  0  0  0  0  0
   27.7984  -20.3426  -11.8989 C   0  0  0  0  0  0  0  0  0  0  0  0
   28.3366  -21.5879  -12.2306 O   0  0  0  0  0  0  0  0  0  0  0  0
   28.5272  -19.3596  -12.1934 O   0  0  0  0  0  0  0  0  0  0  0  0
  2  1  1  1
  2 10  1  0
  2  3  1  0
  3  4  1  0
  4  9  2  0
  5  6  2  0
  5  4  1  0
  6  7  1  0
  7  8  2  0
  9  8  1  0
 10 12  1  0
 10 11  2  0
 12 13  1  0
 13 20  1  0
 14 15  1  0
 13 14  1  6
 15 19  1  0
 15 16  2  0
 16 17  1  0
 18 17  1  0
 19 18  2  0
 20 27  1  0
 20 21  2  0
 22 23  1  0
 23 24  1  0
 24 26  1  0
 24 25  1  1
 26 28  1  0
 26 27  1  6
 28 30  2  0
 28 29  1  0
M  END
$$$$
