FHI.pdb
     RDKit          3D

 30 31  0  0  1  0  0  0  0  0999 V2000
   20.0546   -7.9312  -13.8990 N   0  0  0  0  0  0  0  0  0  0  0  0
   19.4903   -8.0175  -12.5774 C   0  0  1  0  0  0  0  0  0  0  0  0
   19.5419   -6.6658  -11.9094 C   0  0  0  0  0  0  0  0  0  0  0  0
   20.9253   -6.1680  -11.8657 C   0  0  0  0  0  0  0  0  0  0  0  0
   21.3455   -5.2947  -12.8387 C   0  0  0  0  0  0  0  0  0  0  0  0
   22.6446   -4.8378  -12.7833 C   0  0  0  0  0  0  0  0  0  0  0  0
   23.4990   -5.2430  -11.7829 C   0  0  0  0  0  0  0  0  0  0  0  0
   23.0869   -6.1196  -10.8012 C   0  0  0  0  0  0  0  0  0  0  0  0
   21.7786   -6.5754  -10.8628 C   0  0  0  0  0  0  0  0  0  0  0  0
   18.1041   -8.4872  -12.5594 C   0  0  0  0  0  0  0  0  0  0  0  0
   17.5739   -8.8095  -13.6522 O   0  0  0  0  0  0  0  0  0  0  0  0
   17.2935   -8.6109  -11.3843 N   0  0  0  0  0  0  0  0  0  0  0  0
   16.0914   -9.4082  -11.3660 C   0  0  1  0  0  0  0  0  0  0  0  0
   16.2670  -10.8401  -11.7175 C   0  0  0  0  0  0  0  0  0  0  0  0
   15.0829  -11.6869  -11.7686 C   0  0  0  0  0  0  0  0  0  0  0  0
   13.7818  -11.4810  -11.4811 C   0  0  0  0  0  0  0  0  0  0  0  0
   13.0409  -12.5999  -11.7142 N   0  0  0  0  0  0  0  0  0  0  0  0
   13.9275  -13.4967  -12.1533 C   0  0  0  0  0  0  0  0  0  0  0  0
   15.1489  -12.9919  -12.1992 N   0  0  0  0  0  0  0  0  0  0  0  0
   15.4643   -9.3093  -10.0303 C   0  0  0  0  0  0  0  0  0  0  0  0
   16.1058   -9.6600   -9.0307 O   0  0  0  0  0  0  0  0  0  0  0  0
   14.8109   -5.1554   -7.6348 C   0  0  0  0  0  0  0  0  0  0  0  0
   14.8510   -6.5975   -8.0811 C   0  0  0  0  0  0  0  0  0  0  0  0
   13.4934   -7.2182   -8.1995 C   0  0  2  0  0  0  0  0  0  0  0  0
   12.7735   -7.0107   -6.8912 C   0  0  0  0  0  0  0  0  0  0  0  0
   13.5501   -8.6592   -8.5972 C   0  0  2  0  0  0  0  0  0  0  0  0
   14.1547   -8.8213   -9.9117 N   0  0  0  0  0  0  0  0  0  0  0  0
   12.2105   -9.2684   -8.6231 C   0  0  0  0  0  0  0  0  0  0  0  0
   11.5316   -9.4307   -9.8327 O   0  0  0  0  0  0  0  0  0  0  0  0
   11.5856   -9.6780   -7.6103 O   0  0  0  0  0  0  0  0  0  0  0  0
  2  1  1  6
  2 10  1  0
  2  3  1  0
  3  4  1  0
  4  9  2  0
  5  6  2  0
  5  4  1  0
  6  7  1  0
  7  8  2  0
  9  8  1  0
 10 12  1  0
 10 11  2  0
 12 13  1  0
 13 20  1  0
 14 15  1  0
 13 14  1  1
 15 19  1  0
 15 16  2  0
 16 17  1  0
 18 17  1  0
 19 18  2  0
 20 27  1  0
 20 21  2  0
 22 23  1  0
 23 24  1  0
 24 26  1  0
 24 25  1  1
 26 28  1  0
 26 27  1  6
 28 30  2  0
 28 29  1  0
M  END
$$$$
