FHI.pdb
     RDKit          3D

 30 31  0  0  1  0  0  0  0  0999 V2000
   26.7044  -18.3229   -8.3230 N   0  0  0  0  0  0  0  0  0  0  0  0
   26.8872  -19.6924   -8.7272 C   0  0  1  0  0  0  0  0  0  0  0  0
   26.5591  -20.6135   -7.5784 C   0  0  0  0  0  0  0  0  0  0  0  0
   27.4326  -20.3309   -6.4291 C   0  0  0  0  0  0  0  0  0  0  0  0
   28.7372  -20.7578   -6.4686 C   0  0  0  0  0  0  0  0  0  0  0  0
   29.5422  -20.4851   -5.3837 C   0  0  0  0  0  0  0  0  0  0  0  0
   29.0558  -19.8046   -4.2904 C   0  0  0  0  0  0  0  0  0  0  0  0
   27.7474  -19.3716   -4.2408 C   0  0  0  0  0  0  0  0  0  0  0  0
   26.9428  -19.6493   -5.3357 C   0  0  0  0  0  0  0  0  0  0  0  0
   26.0681  -20.0805   -9.8767 C   0  0  0  0  0  0  0  0  0  0  0  0
   24.8343  -19.8465   -9.8306 O   0  0  0  0  0  0  0  0  0  0  0  0
   26.5641  -20.7123  -11.0633 N   0  0  0  0  0  0  0  0  0  0  0  0
   25.9605  -20.4928  -12.3550 C   0  0  1  0  0  0  0  0  0  0  0  0
   26.8247  -20.7910  -13.5250 C   0  0  0  0  0  0  0  0  0  0  0  0
   26.2626  -20.6193  -14.8578 C   0  0  0  0  0  0  0  0  0  0  0  0
   25.0205  -20.3620  -15.3150 C   0  0  0  0  0  0  0  0  0  0  0  0
   25.0031  -20.2699  -16.6738 N   0  0  0  0  0  0  0  0  0  0  0  0
   26.2719  -20.4781  -17.0346 C   0  0  0  0  0  0  0  0  0  0  0  0
   27.0482  -20.6888  -15.9851 N   0  0  0  0  0  0  0  0  0  0  0  0
   24.7191  -21.2906  -12.4520 C   0  0  0  0  0  0  0  0  0  0  0  0
   24.7156  -22.4604  -12.0453 O   0  0  0  0  0  0  0  0  0  0  0  0
   20.6198  -19.9251   -9.9365 C   0  0  0  0  0  0  0  0  0  0  0  0
   21.6283  -20.6917  -10.7586 C   0  0  0  0  0  0  0  0  0  0  0  0
   21.2614  -20.7864  -12.2073 C   0  0  2  0  0  0  0  0  0  0  0  0
   19.9260  -21.4796  -12.3025 C   0  0  0  0  0  0  0  0  0  0  0  0
   22.3148  -21.4622  -13.0267 C   0  0  2  0  0  0  0  0  0  0  0  0
   23.5642  -20.7151  -13.0016 N   0  0  0  0  0  0  0  0  0  0  0  0
   21.8947  -21.6191  -14.4285 C   0  0  0  0  0  0  0  0  0  0  0  0
   21.8865  -20.5205  -15.2907 O   0  0  0  0  0  0  0  0  0  0  0  0
   21.5234  -22.7016  -14.9526 O   0  0  0  0  0  0  0  0  0  0  0  0
  2  1  1  1
  2 10  1  0
  2  3  1  0
  3  4  1  0
  4  9  2  0
  5  6  2  0
  5  4  1  0
  6  7  1  0
  7  8  2  0
  9  8  1  0
 10 12  1  0
 10 11  2  0
 12 13  1  0
 13 20  1  0
 14 15  1  0
 13 14  1  6
 15 19  1  0
 15 16  2  0
 16 17  1  0
 18 17  1  0
 19 18  2  0
 20 27  1  0
 20 21  2  0
 22 23  1  0
 23 24  1  0
 24 26  1  0
 24 25  1  1
 26 28  1  0
 26 27  1  6
 28 30  2  0
 28 29  1  0
M  END
$$$$
