DRP.pdb
     RDKit          3D

 27 27  0  0  1  0  0  0  0  0999 V2000
   19.6141  -33.5357   -4.7744 N   0  0  0  0  0  0  0  0  0  0  0  0
   18.2137  -33.0104   -4.6735 C   0  0  1  0  0  0  0  0  0  0  0  0
   17.5815  -33.6905   -3.5265 C   0  0  0  0  0  0  0  0  0  0  0  0
   16.8383  -34.9303   -3.8313 C   0  0  0  0  0  0  0  0  0  0  0  0
   16.1989  -35.5918   -2.9774 O   0  0  0  0  0  0  0  0  0  0  0  0
   18.4031  -31.5520   -4.5713 C   0  0  0  0  0  0  0  0  0  0  0  0
   19.2890  -31.1140   -3.7315 O   0  0  0  0  0  0  0  0  0  0  0  0
   16.8094  -35.4487   -5.1394 O   0  0  0  0  0  0  0  0  0  0  0  0
   15.0473  -24.6048   -5.3147 N   0  0  0  0  0  0  0  0  0  0  0  0
   15.5898  -24.1615   -6.5476 C   0  0  0  0  0  0  0  0  0  0  0  0
   15.0985  -23.1605   -7.2015 N   0  0  0  0  0  0  0  0  0  0  0  0
   16.7167  -24.8195   -7.1165 N   0  0  0  0  0  0  0  0  0  0  0  0
   16.6842  -26.2612   -7.2586 C   0  0  0  0  0  0  0  0  0  0  0  0
   17.4462  -26.8939   -6.0863 C   0  0  0  0  0  0  0  0  0  0  0  0
   17.3583  -28.4082   -6.1998 C   0  0  0  0  0  0  0  0  0  0  0  0
   17.9984  -29.1209   -5.0333 C   0  0  2  0  0  0  0  0  0  0  0  0
   17.7153  -30.5621   -5.2932 N   0  0  0  0  0  0  0  0  0  0  0  0
   17.3524  -28.7505   -3.7229 C   0  0  0  0  0  0  0  0  0  0  0  0
   16.0758  -28.8148   -3.7771 O   0  0  0  0  0  0  0  0  0  0  0  0
   15.4862  -22.8250   -8.1069 N   0  0  0  0  0  0  0  0  0  0  0  0
   18.0904  -28.3852   -2.5993 C   0  0  0  0  0  0  0  0  0  0  0  0
   19.5569  -28.5710   -2.5013 C   0  0  0  0  0  0  0  0  0  0  0  0
   20.0387  -27.3244   -1.7951 C   0  0  0  0  0  0  0  0  0  0  0  0
   18.7762  -26.5964   -1.3892 C   0  0  2  0  0  0  0  0  0  0  0  0
   17.7722  -27.7936   -1.3623 C   0  0  0  0  0  0  0  0  0  0  0  0
   16.4393  -27.3193   -1.0737 O   0  0  0  0  0  0  0  0  0  0  0  0
   15.9372  -27.2826    0.2565 O   0  0  0  0  0  0  0  0  0  0  0  0
  2  1  1  1
  2  3  1  0
  4  3  1  0
  4  8  1  0
  5  4  2  0
  6  7  2  0
  6  2  1  0
  9 10  1  0
 10 12  1  0
 11 10  2  0
 12 13  1  0
 13 14  1  0
 15 14  1  0
 16 15  1  6
 16 17  1  0
 17  6  1  0
 18 16  1  0
 19 18  2  0
 20 18  1  0
 20 21  1  0
 22 21  1  0
 23 22  1  0
 24 23  1  0
 24 20  1  0
 25 26  1  0
 24 25  1  1
 27 25  2  0
M  END
$$$$
