DRP.pdb
     RDKit          3D

 27 27  0  0  1  0  0  0  0  0999 V2000
   18.4681  -14.1931  -15.6499 N   0  0  0  0  0  0  0  0  0  0  0  0
   18.3872  -12.8738  -16.3572 C   0  0  1  0  0  0  0  0  0  0  0  0
   17.0802  -12.2815  -16.0131 C   0  0  0  0  0  0  0  0  0  0  0  0
   16.8685  -10.8802  -16.4302 C   0  0  0  0  0  0  0  0  0  0  0  0
   17.0583  -10.4604  -17.5979 O   0  0  0  0  0  0  0  0  0  0  0  0
   19.5924  -12.1634  -15.8924 C   0  0  0  0  0  0  0  0  0  0  0  0
   19.7778  -12.0585  -14.6131 O   0  0  0  0  0  0  0  0  0  0  0  0
   16.4279   -9.9134  -15.5071 O   0  0  0  0  0  0  0  0  0  0  0  0
   27.8970  -12.1702  -18.1130 N   0  0  0  0  0  0  0  0  0  0  0  0
   27.8499  -11.0376  -17.2611 C   0  0  0  0  0  0  0  0  0  0  0  0
   28.9017  -10.3457  -16.9684 N   0  0  0  0  0  0  0  0  0  0  0  0
   26.6158  -10.6183  -16.6886 N   0  0  0  0  0  0  0  0  0  0  0  0
   25.4026  -11.3208  -17.0550 C   0  0  0  0  0  0  0  0  0  0  0  0
   24.2166  -10.6824  -16.3193 C   0  0  0  0  0  0  0  0  0  0  0  0
   22.9397  -11.4055  -16.7200 C   0  0  0  0  0  0  0  0  0  0  0  0
   21.7098  -10.8307  -16.0602 C   0  0  2  0  0  0  0  0  0  0  0  0
   20.5816  -11.5712  -16.6955 N   0  0  0  0  0  0  0  0  0  0  0  0
   21.5359   -9.3660  -16.3703 C   0  0  0  0  0  0  0  0  0  0  0  0
   21.5542   -9.1318  -17.6279 O   0  0  0  0  0  0  0  0  0  0  0  0
   28.8886   -9.5370  -16.3138 N   0  0  0  0  0  0  0  0  0  0  0  0
   21.3752   -8.4026  -15.3770 C   0  0  0  0  0  0  0  0  0  0  0  0
   21.0325   -8.7379  -13.9752 C   0  0  0  0  0  0  0  0  0  0  0  0
   21.8651   -7.7798  -13.1543 C   0  0  0  0  0  0  0  0  0  0  0  0
   22.4953   -6.8487  -14.1666 C   0  0  2  0  0  0  0  0  0  0  0  0
   21.4760   -6.9991  -15.3415 C   0  0  0  0  0  0  0  0  0  0  0  0
   21.9242   -6.2458  -16.4889 O   0  0  0  0  0  0  0  0  0  0  0  0
   21.4927   -4.9091  -16.7130 O   0  0  0  0  0  0  0  0  0  0  0  0
  2  1  1  1
  2  3  1  0
  4  3  1  0
  4  8  1  0
  5  4  2  0
  6  7  2  0
  6  2  1  0
  9 10  1  0
 10 12  1  0
 11 10  2  0
 12 13  1  0
 13 14  1  0
 15 14  1  0
 16 15  1  6
 16 17  1  0
 17  6  1  0
 18 16  1  0
 19 18  2  0
 20 18  1  0
 20 21  1  0
 22 21  1  0
 23 22  1  0
 24 23  1  0
 24 20  1  0
 25 26  1  0
 24 25  1  1
 27 25  2  0
M  END
$$$$
