DRP.pdb
     RDKit          3D

 27 27  0  0  1  0  0  0  0  0999 V2000
   21.7542   -3.8127  -17.3255 N   0  0  0  0  0  0  0  0  0  0  0  0
   21.4210   -4.6753  -16.1456 C   0  0  1  0  0  0  0  0  0  0  0  0
   20.0149   -4.3979  -15.7943 C   0  0  0  0  0  0  0  0  0  0  0  0
   19.7451   -3.0884  -15.1661 C   0  0  0  0  0  0  0  0  0  0  0  0
   20.5230   -2.5255  -14.3576 O   0  0  0  0  0  0  0  0  0  0  0  0
   21.7424   -6.0351  -16.6157 C   0  0  0  0  0  0  0  0  0  0  0  0
   21.5468   -6.3044  -17.8692 O   0  0  0  0  0  0  0  0  0  0  0  0
   18.5617   -2.3827  -15.4533 O   0  0  0  0  0  0  0  0  0  0  0  0
   28.3095  -11.4061  -15.1085 N   0  0  0  0  0  0  0  0  0  0  0  0
   27.5103  -12.1689  -15.9975 C   0  0  0  0  0  0  0  0  0  0  0  0
   27.9062  -13.2950  -16.4934 N   0  0  0  0  0  0  0  0  0  0  0  0
   26.2189  -11.7081  -16.3802 N   0  0  0  0  0  0  0  0  0  0  0  0
   25.7667  -10.4190  -15.8968 C   0  0  0  0  0  0  0  0  0  0  0  0
   24.3977  -10.1078  -16.5164 C   0  0  0  0  0  0  0  0  0  0  0  0
   23.8991   -8.7784  -15.9705 C   0  0  0  0  0  0  0  0  0  0  0  0
   22.5268   -8.4130  -16.4820 C   0  0  2  0  0  0  0  0  0  0  0  0
   22.2436   -7.0957  -15.8423 N   0  0  0  0  0  0  0  0  0  0  0  0
   21.4748   -9.3884  -16.0201 C   0  0  0  0  0  0  0  0  0  0  0  0
   21.5205   -9.5880  -14.7572 O   0  0  0  0  0  0  0  0  0  0  0  0
   27.3210  -13.8760  -17.1280 N   0  0  0  0  0  0  0  0  0  0  0  0
   20.5701   -9.9862  -16.8946 C   0  0  0  0  0  0  0  0  0  0  0  0
   20.3456   -9.5046  -18.2775 C   0  0  0  0  0  0  0  0  0  0  0  0
   20.1923  -10.7716  -19.0875 C   0  0  0  0  0  0  0  0  0  0  0  0
   20.1710  -11.8856  -18.0641 C   0  0  2  0  0  0  0  0  0  0  0  0
   19.6972  -11.0871  -16.8072 C   0  0  0  0  0  0  0  0  0  0  0  0
   19.6820  -11.9473  -15.6475 O   0  0  0  0  0  0  0  0  0  0  0  0
   20.8827  -12.4874  -15.1093 O   0  0  0  0  0  0  0  0  0  0  0  0
  2  1  1  6
  2  3  1  0
  4  3  1  0
  4  8  1  0
  5  4  2  0
  6  7  2  0
  6  2  1  0
  9 10  1  0
 10 12  1  0
 11 10  2  0
 12 13  1  0
 13 14  1  0
 15 14  1  0
 16 15  1  1
 16 17  1  0
 17  6  1  0
 18 16  1  0
 19 18  2  0
 20 18  1  0
 20 21  1  0
 22 21  1  0
 23 22  1  0
 24 23  1  0
 24 20  1  0
 25 26  1  0
 24 25  1  6
 27 25  2  0
M  END
$$$$
