DRP.pdb
     RDKit          3D

 27 27  0  0  1  0  0  0  0  0999 V2000
   17.1053  -10.8747  -14.1819 N   0  0  0  0  0  0  0  0  0  0  0  0
   17.9424   -9.8460  -13.4830 C   0  0  1  0  0  0  0  0  0  0  0  0
   18.6486   -9.0832  -14.5304 C   0  0  0  0  0  0  0  0  0  0  0  0
   19.8391   -9.7305  -15.1188 C   0  0  0  0  0  0  0  0  0  0  0  0
   20.2993  -10.8331  -14.7339 O   0  0  0  0  0  0  0  0  0  0  0  0
   16.9641   -9.1127  -12.6593 C   0  0  0  0  0  0  0  0  0  0  0  0
   15.7905   -8.8927  -13.1655 O   0  0  0  0  0  0  0  0  0  0  0  0
   20.5400   -9.1219  -16.1767 O   0  0  0  0  0  0  0  0  0  0  0  0
   11.2315   -8.7102   -6.6016 N   0  0  0  0  0  0  0  0  0  0  0  0
   11.6535   -7.6913   -7.4930 C   0  0  0  0  0  0  0  0  0  0  0  0
   10.8372   -7.0880   -8.2931 N   0  0  0  0  0  0  0  0  0  0  0  0
   13.0194   -7.2926   -7.5357 N   0  0  0  0  0  0  0  0  0  0  0  0
   13.9465   -8.0642   -8.3388 C   0  0  0  0  0  0  0  0  0  0  0  0
   15.3113   -7.3625   -8.3351 C   0  0  0  0  0  0  0  0  0  0  0  0
   16.2685   -8.1393   -9.2262 C   0  0  0  0  0  0  0  0  0  0  0  0
   16.0856   -7.8297  -10.6922 C   0  0  2  0  0  0  0  0  0  0  0  0
   17.1649   -8.6113  -11.3622 N   0  0  0  0  0  0  0  0  0  0  0  0
   16.3147   -6.3707  -10.9931 C   0  0  0  0  0  0  0  0  0  0  0  0
   17.4179   -5.9432  -10.5064 O   0  0  0  0  0  0  0  0  0  0  0  0
   11.1265   -6.3153   -8.9272 N   0  0  0  0  0  0  0  0  0  0  0  0
   15.4085   -5.6036  -11.7218 C   0  0  0  0  0  0  0  0  0  0  0  0
   14.2616   -6.1886  -12.4547 C   0  0  0  0  0  0  0  0  0  0  0  0
   13.1374   -5.2049  -12.2231 C   0  0  0  0  0  0  0  0  0  0  0  0
   13.7845   -4.0375  -11.5110 C   0  0  2  0  0  0  0  0  0  0  0  0
   15.2647   -4.2264  -11.9750 C   0  0  0  0  0  0  0  0  0  0  0  0
   16.1151   -3.2494  -11.3366 O   0  0  0  0  0  0  0  0  0  0  0  0
   16.0548   -1.8722  -11.6871 O   0  0  0  0  0  0  0  0  0  0  0  0
  2  1  1  6
  2  3  1  0
  4  3  1  0
  4  8  1  0
  5  4  2  0
  6  7  2  0
  6  2  1  0
  9 10  1  0
 10 12  1  0
 11 10  2  0
 12 13  1  0
 13 14  1  0
 15 14  1  0
 16 15  1  1
 16 17  1  0
 17  6  1  0
 18 16  1  0
 19 18  2  0
 20 18  1  0
 20 21  1  0
 22 21  1  0
 23 22  1  0
 24 23  1  0
 24 20  1  0
 25 26  1  0
 24 25  1  6
 27 25  2  0
M  END
$$$$
