DRP.pdb
     RDKit          3D

 27 27  0  0  1  0  0  0  0  0999 V2000
   22.4172  -20.5725   -9.2570 N   0  0  0  0  0  0  0  0  0  0  0  0
   22.5206  -20.8832  -10.7199 C   0  0  1  0  0  0  0  0  0  0  0  0
   21.4306  -20.1505  -11.3926 C   0  0  0  0  0  0  0  0  0  0  0  0
   20.1595  -20.8836  -11.5634 C   0  0  0  0  0  0  0  0  0  0  0  0
   19.9416  -22.0272  -11.0940 O   0  0  0  0  0  0  0  0  0  0  0  0
   23.9021  -20.4924  -11.0546 C   0  0  0  0  0  0  0  0  0  0  0  0
   24.3063  -19.3178  -10.6817 O   0  0  0  0  0  0  0  0  0  0  0  0
   19.0930  -20.3162  -12.2856 O   0  0  0  0  0  0  0  0  0  0  0  0
   31.6568  -22.7164   -8.7735 N   0  0  0  0  0  0  0  0  0  0  0  0
   31.8840  -22.4135  -10.1401 C   0  0  0  0  0  0  0  0  0  0  0  0
   32.9944  -22.6969  -10.7380 N   0  0  0  0  0  0  0  0  0  0  0  0
   30.8745  -21.7733  -10.9130 N   0  0  0  0  0  0  0  0  0  0  0  0
   29.4855  -21.9837  -10.5577 C   0  0  0  0  0  0  0  0  0  0  0  0
   28.5990  -21.1802  -11.5187 C   0  0  0  0  0  0  0  0  0  0  0  0
   27.1393  -21.4667  -11.2006 C   0  0  0  0  0  0  0  0  0  0  0  0
   26.1859  -20.6853  -12.0717 C   0  0  2  0  0  0  0  0  0  0  0  0
   24.8490  -21.2631  -11.7499 N   0  0  0  0  0  0  0  0  0  0  0  0
   26.4480  -20.9118  -13.5385 C   0  0  0  0  0  0  0  0  0  0  0  0
   26.4107  -22.1517  -13.8514 O   0  0  0  0  0  0  0  0  0  0  0  0
   33.1939  -22.4349  -11.7250 N   0  0  0  0  0  0  0  0  0  0  0  0
   26.6981  -19.8676  -14.4261 C   0  0  0  0  0  0  0  0  0  0  0  0
   26.5743  -18.4403  -14.0488 C   0  0  0  0  0  0  0  0  0  0  0  0
   27.7392  -17.7741  -14.7445 C   0  0  0  0  0  0  0  0  0  0  0  0
   28.3434  -18.8566  -15.6116 C   0  0  2  0  0  0  0  0  0  0  0  0
   27.1046  -19.7956  -15.7718 C   0  0  0  0  0  0  0  0  0  0  0  0
   27.4697  -20.9793  -16.5138 O   0  0  0  0  0  0  0  0  0  0  0  0
   28.6811  -21.6760  -16.2489 O   0  0  0  0  0  0  0  0  0  0  0  0
  2  1  1  1
  2  3  1  0
  4  3  1  0
  4  8  1  0
  5  4  2  0
  6  7  2  0
  6  2  1  0
  9 10  1  0
 10 12  1  0
 11 10  2  0
 12 13  1  0
 13 14  1  0
 15 14  1  0
 16 15  1  1
 16 17  1  0
 17  6  1  0
 18 16  1  0
 19 18  2  0
 20 18  1  0
 20 21  1  0
 22 21  1  0
 23 22  1  0
 24 23  1  0
 24 20  1  0
 25 26  1  0
 24 25  1  6
 27 25  2  0
M  END
$$$$
