DRP.pdb
     RDKit          3D

 27 27  0  0  1  0  0  0  0  0999 V2000
   15.3328  -12.5458  -13.0395 N   0  0  0  0  0  0  0  0  0  0  0  0
   14.3265  -11.4351  -13.0099 C   0  0  1  0  0  0  0  0  0  0  0  0
   13.1074  -11.9767  -12.3790 C   0  0  0  0  0  0  0  0  0  0  0  0
   12.0689  -12.4873  -13.2972 C   0  0  0  0  0  0  0  0  0  0  0  0
   12.2263  -13.4780  -14.0518 O   0  0  0  0  0  0  0  0  0  0  0  0
   15.0317  -10.3551  -12.2961 C   0  0  0  0  0  0  0  0  0  0  0  0
   15.7148  -10.6725  -11.2404 O   0  0  0  0  0  0  0  0  0  0  0  0
   10.8080  -11.8667  -13.3737 O   0  0  0  0  0  0  0  0  0  0  0  0
   21.4851   -8.5407  -11.6518 N   0  0  0  0  0  0  0  0  0  0  0  0
   21.0415   -8.1404  -12.9378 C   0  0  0  0  0  0  0  0  0  0  0  0
   21.7980   -8.2055  -13.9838 N   0  0  0  0  0  0  0  0  0  0  0  0
   19.7203   -7.6430  -13.1209 N   0  0  0  0  0  0  0  0  0  0  0  0
   19.0848   -6.9329  -12.0294 C   0  0  0  0  0  0  0  0  0  0  0  0
   17.7390   -6.3769  -12.5142 C   0  0  0  0  0  0  0  0  0  0  0  0
   16.8698   -7.5315  -12.9888 C   0  0  0  0  0  0  0  0  0  0  0  0
   15.9511   -8.0542  -11.9111 C   0  0  2  0  0  0  0  0  0  0  0  0
   15.0444   -8.9916  -12.6351 N   0  0  0  0  0  0  0  0  0  0  0  0
   15.1047   -6.9603  -11.3124 C   0  0  0  0  0  0  0  0  0  0  0  0
   14.6726   -6.1432  -12.1969 O   0  0  0  0  0  0  0  0  0  0  0  0
   21.4784   -7.9361  -14.9366 N   0  0  0  0  0  0  0  0  0  0  0  0
   14.8414   -6.8776   -9.9469 C   0  0  0  0  0  0  0  0  0  0  0  0
   15.2092   -7.9450   -8.9878 C   0  0  0  0  0  0  0  0  0  0  0  0
   15.6860   -7.1929   -7.7663 C   0  0  0  0  0  0  0  0  0  0  0  0
   15.3888   -5.7400   -8.0652 C   0  0  2  0  0  0  0  0  0  0  0  0
   14.2449   -5.9102   -9.1163 C   0  0  0  0  0  0  0  0  0  0  0  0
   13.8431   -4.6211   -9.6279 O   0  0  0  0  0  0  0  0  0  0  0  0
   12.8918   -3.8154   -8.9431 O   0  0  0  0  0  0  0  0  0  0  0  0
  2  1  1  1
  2  3  1  0
  4  3  1  0
  4  8  1  0
  5  4  2  0
  6  7  2  0
  6  2  1  0
  9 10  1  0
 10 12  1  0
 11 10  2  0
 12 13  1  0
 13 14  1  0
 15 14  1  0
 16 15  1  6
 16 17  1  0
 17  6  1  0
 18 16  1  0
 19 18  2  0
 20 18  1  0
 20 21  1  0
 22 21  1  0
 23 22  1  0
 24 23  1  0
 24 20  1  0
 25 26  1  0
 24 25  1  1
 27 25  2  0
M  END
$$$$
