DRP.pdb
     RDKit          3D

 27 27  0  0  1  0  0  0  0  0999 V2000
   22.2515  -15.8720  -16.1988 N   0  0  0  0  0  0  0  0  0  0  0  0
   22.2500  -17.3667  -16.3144 C   0  0  1  0  0  0  0  0  0  0  0  0
   21.9891  -17.6875  -17.7309 C   0  0  0  0  0  0  0  0  0  0  0  0
   20.5724  -17.6899  -18.1496 C   0  0  0  0  0  0  0  0  0  0  0  0
   19.6185  -17.3774  -17.3958 O   0  0  0  0  0  0  0  0  0  0  0  0
   23.5633  -17.7523  -15.7670 C   0  0  0  0  0  0  0  0  0  0  0  0
   24.5871  -17.0183  -16.0756 O   0  0  0  0  0  0  0  0  0  0  0  0
   20.2098  -18.0552  -19.4595 O   0  0  0  0  0  0  0  0  0  0  0  0
   25.1355  -21.3734   -8.4248 N   0  0  0  0  0  0  0  0  0  0  0  0
   25.6902  -20.1122   -8.7604 C   0  0  0  0  0  0  0  0  0  0  0  0
   26.0235  -19.2410   -7.8657 N   0  0  0  0  0  0  0  0  0  0  0  0
   25.9015  -19.7584  -10.1230 N   0  0  0  0  0  0  0  0  0  0  0  0
   26.0545  -20.8152  -11.1025 C   0  0  0  0  0  0  0  0  0  0  0  0
   26.3483  -20.1863  -12.4712 C   0  0  0  0  0  0  0  0  0  0  0  0
   25.0361  -19.7551  -13.1085 C   0  0  0  0  0  0  0  0  0  0  0  0
   25.2279  -19.0844  -14.4471 C   0  0  2  0  0  0  0  0  0  0  0  0
   23.8377  -18.8503  -14.9344 N   0  0  0  0  0  0  0  0  0  0  0  0
   25.9200  -19.9870  -15.4359 C   0  0  0  0  0  0  0  0  0  0  0  0
   25.4013  -21.1561  -15.4701 O   0  0  0  0  0  0  0  0  0  0  0  0
   26.4064  -18.3019   -8.0987 N   0  0  0  0  0  0  0  0  0  0  0  0
   26.9986  -19.5650  -16.2099 C   0  0  0  0  0  0  0  0  0  0  0  0
   27.3912  -18.1424  -16.3400 C   0  0  0  0  0  0  0  0  0  0  0  0
   28.9023  -18.1756  -16.3252 C   0  0  0  0  0  0  0  0  0  0  0  0
   29.2581  -19.6456  -16.3601 C   0  0  2  0  0  0  0  0  0  0  0  0
   27.9566  -20.2221  -17.0048 C   0  0  0  0  0  0  0  0  0  0  0  0
   28.0268  -21.6631  -17.0647 O   0  0  0  0  0  0  0  0  0  0  0  0
   28.1442  -22.4492  -15.8851 O   0  0  0  0  0  0  0  0  0  0  0  0
  2  1  1  6
  2  3  1  0
  4  3  1  0
  4  8  1  0
  5  4  2  0
  6  7  2  0
  6  2  1  0
  9 10  1  0
 10 12  1  0
 11 10  2  0
 12 13  1  0
 13 14  1  0
 15 14  1  0
 16 15  1  1
 16 17  1  0
 17  6  1  0
 18 16  1  0
 19 18  2  0
 20 18  1  0
 20 21  1  0
 22 21  1  0
 23 22  1  0
 24 23  1  0
 24 20  1  0
 25 26  1  0
 24 25  1  1
 27 25  2  0
M  END
$$$$
