DRP.pdb
     RDKit          3D

 27 27  0  0  1  0  0  0  0  0999 V2000
   38.7543   -2.0191  -10.5987 N   0  0  0  0  0  0  0  0  0  0  0  0
   37.9027   -3.2165  -10.8961 C   0  0  1  0  0  0  0  0  0  0  0  0
   36.8522   -2.7742  -11.8334 C   0  0  0  0  0  0  0  0  0  0  0  0
   35.7513   -1.9790  -11.2520 C   0  0  0  0  0  0  0  0  0  0  0  0
   35.7075   -1.6158  -10.0512 O   0  0  0  0  0  0  0  0  0  0  0  0
   38.8726   -4.2102  -11.3912 C   0  0  0  0  0  0  0  0  0  0  0  0
   39.7889   -3.8040  -12.2142 O   0  0  0  0  0  0  0  0  0  0  0  0
   34.6595   -1.5754  -12.0432 O   0  0  0  0  0  0  0  0  0  0  0  0
   42.6692   -9.9266   -6.6976 N   0  0  0  0  0  0  0  0  0  0  0  0
   41.2554   -9.8874   -6.5948 C   0  0  0  0  0  0  0  0  0  0  0  0
   40.6134  -10.4696   -5.6358 N   0  0  0  0  0  0  0  0  0  0  0  0
   40.4821   -9.1909   -7.5660 N   0  0  0  0  0  0  0  0  0  0  0  0
   41.1630   -8.3355   -8.5171 C   0  0  0  0  0  0  0  0  0  0  0  0
   40.1307   -7.7588   -9.4953 C   0  0  0  0  0  0  0  0  0  0  0  0
   40.8351   -6.8124  -10.4555 C   0  0  0  0  0  0  0  0  0  0  0  0
   39.9826   -6.4442  -11.6455 C   0  0  2  0  0  0  0  0  0  0  0  0
   38.9149   -5.5770  -11.0685 N   0  0  0  0  0  0  0  0  0  0  0  0
   39.3191   -7.6506  -12.2586 C   0  0  0  0  0  0  0  0  0  0  0  0
   38.4859   -8.2031  -11.4602 O   0  0  0  0  0  0  0  0  0  0  0  0
   39.5874  -10.3706   -5.4938 N   0  0  0  0  0  0  0  0  0  0  0  0
   39.6026   -8.0874  -13.5506 C   0  0  0  0  0  0  0  0  0  0  0  0
   40.2477   -7.2275  -14.5701 C   0  0  0  0  0  0  0  0  0  0  0  0
   41.1969   -8.1588  -15.2887 C   0  0  0  0  0  0  0  0  0  0  0  0
   40.8912   -9.5310  -14.7297 C   0  0  2  0  0  0  0  0  0  0  0  0
   39.4249   -9.3015  -14.2405 C   0  0  0  0  0  0  0  0  0  0  0  0
   38.9320  -10.4832  -13.5729 O   0  0  0  0  0  0  0  0  0  0  0  0
   38.4075  -11.5839  -14.3051 O   0  0  0  0  0  0  0  0  0  0  0  0
  2  1  1  6
  2  3  1  0
  4  3  1  0
  4  8  1  0
  5  4  2  0
  6  7  2  0
  6  2  1  0
  9 10  1  0
 10 12  1  0
 11 10  2  0
 12 13  1  0
 13 14  1  0
 15 14  1  0
 16 15  1  1
 16 17  1  0
 17  6  1  0
 18 16  1  0
 19 18  2  0
 20 18  1  0
 20 21  1  0
 22 21  1  0
 23 22  1  0
 24 23  1  0
 24 20  1  0
 25 26  1  0
 24 25  1  1
 27 25  2  0
M  END
$$$$
