DRP.pdb
     RDKit          3D

 27 27  0  0  1  0  0  0  0  0999 V2000
   27.6381  -11.0313  -18.8519 N   0  0  0  0  0  0  0  0  0  0  0  0
   27.4311  -10.0488  -17.7386 C   0  0  1  0  0  0  0  0  0  0  0  0
   28.3235   -8.9041  -18.0046 C   0  0  0  0  0  0  0  0  0  0  0  0
   29.7687   -9.1454  -17.8164 C   0  0  0  0  0  0  0  0  0  0  0  0
   30.2438   -9.9018  -16.9344 O   0  0  0  0  0  0  0  0  0  0  0  0
   25.9795   -9.7941  -17.7743 C   0  0  0  0  0  0  0  0  0  0  0  0
   25.4209   -9.6357  -18.9340 O   0  0  0  0  0  0  0  0  0  0  0  0
   30.7170   -8.5178  -18.6456 O   0  0  0  0  0  0  0  0  0  0  0  0
   19.5060  -14.4131  -15.0965 N   0  0  0  0  0  0  0  0  0  0  0  0
   18.8617  -13.4014  -15.8529 C   0  0  0  0  0  0  0  0  0  0  0  0
   17.6284  -13.4954  -16.2282 N   0  0  0  0  0  0  0  0  0  0  0  0
   19.5686  -12.2251  -16.2313 N   0  0  0  0  0  0  0  0  0  0  0  0
   21.0114  -12.2053  -16.0986 C   0  0  0  0  0  0  0  0  0  0  0  0
   21.5249  -10.8047  -16.4587 C   0  0  0  0  0  0  0  0  0  0  0  0
   23.0446  -10.8036  -16.3925 C   0  0  0  0  0  0  0  0  0  0  0  0
   23.6512   -9.5129  -16.8869 C   0  0  2  0  0  0  0  0  0  0  0  0
   25.1154   -9.6977  -16.6706 N   0  0  0  0  0  0  0  0  0  0  0  0
   23.2069   -8.3300  -16.0655 C   0  0  0  0  0  0  0  0  0  0  0  0
   23.4391   -8.4920  -14.8178 O   0  0  0  0  0  0  0  0  0  0  0  0
   17.1489  -12.7696  -16.7990 N   0  0  0  0  0  0  0  0  0  0  0  0
   22.6146   -7.2033  -16.6316 C   0  0  0  0  0  0  0  0  0  0  0  0
   22.6262   -6.9307  -18.0877 C   0  0  0  0  0  0  0  0  0  0  0  0
   21.2505   -6.3703  -18.3675 C   0  0  0  0  0  0  0  0  0  0  0  0
   20.6144   -6.2061  -17.0047 C   0  0  2  0  0  0  0  0  0  0  0  0
   21.8980   -6.1054  -16.1191 C   0  0  0  0  0  0  0  0  0  0  0  0
   21.5352   -6.0265  -14.7237 O   0  0  0  0  0  0  0  0  0  0  0  0
   21.3600   -4.7740  -14.0729 O   0  0  0  0  0  0  0  0  0  0  0  0
  2  1  1  6
  2  3  1  0
  4  3  1  0
  4  8  1  0
  5  4  2  0
  6  7  2  0
  6  2  1  0
  9 10  1  0
 10 12  1  0
 11 10  2  0
 12 13  1  0
 13 14  1  0
 15 14  1  0
 16 15  1  1
 16 17  1  0
 17  6  1  0
 18 16  1  0
 19 18  2  0
 20 18  1  0
 20 21  1  0
 22 21  1  0
 23 22  1  0
 24 23  1  0
 24 20  1  0
 25 26  1  0
 24 25  1  6
 27 25  2  0
M  END
$$$$
