DRP.pdb
     RDKit          3D

 27 27  0  0  1  0  0  0  0  0999 V2000
   28.1510  -23.2838  -16.7330 N   0  0  0  0  0  0  0  0  0  0  0  0
   27.7788  -21.8330  -16.6701 C   0  0  1  0  0  0  0  0  0  0  0  0
   27.4707  -21.4086  -18.0494 C   0  0  0  0  0  0  0  0  0  0  0  0
   28.6300  -21.1081  -18.9143 C   0  0  0  0  0  0  0  0  0  0  0  0
   28.7103  -21.4453  -20.1207 O   0  0  0  0  0  0  0  0  0  0  0  0
   26.6740  -21.8065  -15.6943 C   0  0  0  0  0  0  0  0  0  0  0  0
   25.7810  -22.7443  -15.7651 O   0  0  0  0  0  0  0  0  0  0  0  0
   29.7400  -20.4043  -18.4109 O   0  0  0  0  0  0  0  0  0  0  0  0
   22.2703  -20.1902   -8.9940 N   0  0  0  0  0  0  0  0  0  0  0  0
   22.1532  -21.2477   -9.9314 C   0  0  0  0  0  0  0  0  0  0  0  0
   21.0100  -21.7311  -10.2924 N   0  0  0  0  0  0  0  0  0  0  0  0
   23.3163  -21.8231  -10.5166 N   0  0  0  0  0  0  0  0  0  0  0  0
   24.5770  -21.1180  -10.4009 C   0  0  0  0  0  0  0  0  0  0  0  0
   24.6575  -20.0579  -11.5076 C   0  0  0  0  0  0  0  0  0  0  0  0
   25.7893  -20.4202  -12.4572 C   0  0  0  0  0  0  0  0  0  0  0  0
   25.2960  -20.9801  -13.7693 C   0  0  2  0  0  0  0  0  0  0  0  0
   26.4729  -20.8579  -14.6775 N   0  0  0  0  0  0  0  0  0  0  0  0
   24.1757  -20.1552  -14.3488 C   0  0  0  0  0  0  0  0  0  0  0  0
   24.4085  -18.8995  -14.2711 O   0  0  0  0  0  0  0  0  0  0  0  0
   20.9113  -22.5414  -10.9376 N   0  0  0  0  0  0  0  0  0  0  0  0
   23.0306  -20.7262  -14.8996 C   0  0  0  0  0  0  0  0  0  0  0  0
   22.9566  -22.1464  -15.3148 C   0  0  0  0  0  0  0  0  0  0  0  0
   21.5701  -22.5796  -14.8964 C   0  0  0  0  0  0  0  0  0  0  0  0
   20.8937  -21.3114  -14.4245 C   0  0  2  0  0  0  0  0  0  0  0  0
   21.7401  -20.2507  -15.1994 C   0  0  0  0  0  0  0  0  0  0  0  0
   21.3237  -18.9174  -14.8334 O   0  0  0  0  0  0  0  0  0  0  0  0
   20.6022  -18.0913  -15.7389 O   0  0  0  0  0  0  0  0  0  0  0  0
  2  1  1  6
  2  3  1  0
  4  3  1  0
  4  8  1  0
  5  4  2  0
  6  7  2  0
  6  2  1  0
  9 10  1  0
 10 12  1  0
 11 10  2  0
 12 13  1  0
 13 14  1  0
 15 14  1  0
 16 15  1  1
 16 17  1  0
 17  6  1  0
 18 16  1  0
 19 18  2  0
 20 18  1  0
 20 21  1  0
 22 21  1  0
 23 22  1  0
 24 23  1  0
 24 20  1  0
 25 26  1  0
 24 25  1  6
 27 25  2  0
M  END
$$$$
