DRP.pdb
     RDKit          3D

 27 27  0  0  1  0  0  0  0  0999 V2000
   22.1432   -9.2420  -14.0257 N   0  0  0  0  0  0  0  0  0  0  0  0
   21.4127   -8.5603  -15.1433 C   0  0  1  0  0  0  0  0  0  0  0  0
   21.9923   -7.2096  -15.2743 C   0  0  0  0  0  0  0  0  0  0  0  0
   21.7934   -6.2999  -14.1274 C   0  0  0  0  0  0  0  0  0  0  0  0
   20.7979   -6.3420  -13.3640 O   0  0  0  0  0  0  0  0  0  0  0  0
   21.5904   -9.4828  -16.2794 C   0  0  0  0  0  0  0  0  0  0  0  0
   22.7329  -10.0851  -16.3973 O   0  0  0  0  0  0  0  0  0  0  0  0
   22.7434   -5.3069  -13.8235 O   0  0  0  0  0  0  0  0  0  0  0  0
   16.3393  -15.3328  -16.9851 N   0  0  0  0  0  0  0  0  0  0  0  0
   16.8830  -14.7263  -15.8243 C   0  0  0  0  0  0  0  0  0  0  0  0
   16.4088  -14.9434  -14.6416 N   0  0  0  0  0  0  0  0  0  0  0  0
   17.9919  -13.8396  -15.9276 N   0  0  0  0  0  0  0  0  0  0  0  0
   18.2401  -13.1775  -17.1924 C   0  0  0  0  0  0  0  0  0  0  0  0
   19.4965  -12.3063  -17.0596 C   0  0  0  0  0  0  0  0  0  0  0  0
   19.8107  -11.6833  -18.4113 C   0  0  0  0  0  0  0  0  0  0  0  0
   20.9905  -10.7431  -18.3625 C   0  0  2  0  0  0  0  0  0  0  0  0
   20.6434   -9.7867  -17.2718 N   0  0  0  0  0  0  0  0  0  0  0  0
   21.1376   -9.9563  -19.6396 C   0  0  0  0  0  0  0  0  0  0  0  0
   20.1354   -9.1909  -19.8550 O   0  0  0  0  0  0  0  0  0  0  0  0
   16.7995  -14.5072  -13.7815 N   0  0  0  0  0  0  0  0  0  0  0  0
   22.2514  -10.0721  -20.4682 C   0  0  0  0  0  0  0  0  0  0  0  0
   23.5207  -10.6991  -20.0316 C   0  0  0  0  0  0  0  0  0  0  0  0
   23.9798  -11.4801  -21.2417 C   0  0  0  0  0  0  0  0  0  0  0  0
   23.0140  -11.0953  -22.3407 C   0  0  2  0  0  0  0  0  0  0  0  0
   22.5291   -9.7115  -21.8003 C   0  0  0  0  0  0  0  0  0  0  0  0
   21.5062   -9.1704  -22.6640 O   0  0  0  0  0  0  0  0  0  0  0  0
   20.3109   -9.8905  -22.9390 O   0  0  0  0  0  0  0  0  0  0  0  0
  2  1  1  1
  2  3  1  0
  4  3  1  0
  4  8  1  0
  5  4  2  0
  6  7  2  0
  6  2  1  0
  9 10  1  0
 10 12  1  0
 11 10  2  0
 12 13  1  0
 13 14  1  0
 15 14  1  0
 16 15  1  6
 16 17  1  0
 17  6  1  0
 18 16  1  0
 19 18  2  0
 20 18  1  0
 20 21  1  0
 22 21  1  0
 23 22  1  0
 24 23  1  0
 24 20  1  0
 25 26  1  0
 24 25  1  6
 27 25  2  0
M  END
$$$$
