DRP.pdb
     RDKit          3D

 27 27  0  0  1  0  0  0  0  0999 V2000
   21.8163  -16.9132  -16.8633 N   0  0  0  0  0  0  0  0  0  0  0  0
   21.7859  -18.3664  -16.4960 C   0  0  1  0  0  0  0  0  0  0  0  0
   21.7236  -19.1273  -17.7588 C   0  0  0  0  0  0  0  0  0  0  0  0
   20.4324  -19.0975  -18.4759 C   0  0  0  0  0  0  0  0  0  0  0  0
   19.4618  -18.3752  -18.1416 O   0  0  0  0  0  0  0  0  0  0  0  0
   22.9936  -18.5339  -15.6673 C   0  0  0  0  0  0  0  0  0  0  0  0
   24.0579  -17.8759  -16.0083 O   0  0  0  0  0  0  0  0  0  0  0  0
   20.2196  -19.9054  -19.6085 O   0  0  0  0  0  0  0  0  0  0  0  0
   23.8832  -21.0941   -7.6149 N   0  0  0  0  0  0  0  0  0  0  0  0
   23.0588  -20.8162   -8.7347 C   0  0  0  0  0  0  0  0  0  0  0  0
   21.7692  -20.8850   -8.6805 N   0  0  0  0  0  0  0  0  0  0  0  0
   23.6383  -20.4451   -9.9808 N   0  0  0  0  0  0  0  0  0  0  0  0
   24.9219  -21.0082  -10.3484 C   0  0  0  0  0  0  0  0  0  0  0  0
   25.3583  -20.4146  -11.6947 C   0  0  0  0  0  0  0  0  0  0  0  0
   24.1202  -20.1014  -12.5210 C   0  0  0  0  0  0  0  0  0  0  0  0
   24.4486  -19.4643  -13.8494 C   0  0  2  0  0  0  0  0  0  0  0  0
   23.1257  -19.3457  -14.5282 N   0  0  0  0  0  0  0  0  0  0  0  0
   25.3270  -20.3484  -14.6970 C   0  0  0  0  0  0  0  0  0  0  0  0
   24.8001  -21.4950  -14.9081 O   0  0  0  0  0  0  0  0  0  0  0  0
   21.1527  -20.6887   -9.4955 N   0  0  0  0  0  0  0  0  0  0  0  0
   26.5658  -19.9335  -15.1803 C   0  0  0  0  0  0  0  0  0  0  0  0
   27.0130  -18.5215  -15.1484 C   0  0  0  0  0  0  0  0  0  0  0  0
   28.4782  -18.6083  -14.7870 C   0  0  0  0  0  0  0  0  0  0  0  0
   28.7958  -20.0873  -14.8088 C   0  0  2  0  0  0  0  0  0  0  0  0
   27.6656  -20.5911  -15.7631 C   0  0  0  0  0  0  0  0  0  0  0  0
   27.7119  -22.0300  -15.8738 O   0  0  0  0  0  0  0  0  0  0  0  0
   28.6348  -22.6775  -16.7410 O   0  0  0  0  0  0  0  0  0  0  0  0
  2  1  1  6
  2  3  1  0
  4  3  1  0
  4  8  1  0
  5  4  2  0
  6  7  2  0
  6  2  1  0
  9 10  1  0
 10 12  1  0
 11 10  2  0
 12 13  1  0
 13 14  1  0
 15 14  1  0
 16 15  1  1
 16 17  1  0
 17  6  1  0
 18 16  1  0
 19 18  2  0
 20 18  1  0
 20 21  1  0
 22 21  1  0
 23 22  1  0
 24 23  1  0
 24 20  1  0
 25 26  1  0
 24 25  1  1
 27 25  2  0
M  END
$$$$
