IPM.pdb
     RDKit          3D

 24 24  0  0  1  0  0  0  0  0999 V2000
   12.7265  -26.5211  -11.0481 C   0  0  0  0  0  0  0  0  0  0  0  0
   14.1514  -25.9818  -11.1585 C   0  0  0  0  0  0  0  0  0  0  0  0
   14.8735  -26.4361   -9.9129 C   0  0  2  0  0  0  0  0  0  0  0  0
   14.3642  -25.5605   -8.7697 C   0  0  0  0  0  0  0  0  0  0  0  0
   16.3696  -26.2254   -9.9905 C   0  0  2  0  0  0  0  0  0  0  0  0
   16.9328  -26.8674  -11.1283 N   0  0  0  0  0  0  0  0  0  0  0  0
   17.0480  -26.5353   -8.7203 C   0  0  0  0  0  0  0  0  0  0  0  0
   16.8689  -27.6480   -8.1476 O   0  0  0  0  0  0  0  0  0  0  0  0
   17.9415  -25.5879   -8.0776 N   0  0  0  0  0  0  0  0  0  0  0  0
   18.3562  -24.3575   -8.7072 C   0  0  0  0  0  0  0  0  0  0  0  0
   19.3971  -23.7308   -7.7730 C   0  0  0  0  0  0  0  0  0  0  0  0
   19.0338  -24.3301   -6.4382 C   0  0  0  0  0  0  0  0  0  0  0  0
   18.5348  -25.6956   -6.7985 C   0  0  1  0  0  0  0  0  0  0  0  0
   17.5415  -26.0884   -5.7337 C   0  0  0  0  0  0  0  0  0  0  0  0
   16.3389  -25.7559   -5.7437 O   0  0  0  0  0  0  0  0  0  0  0  0
   15.2009  -31.4068   -0.4916 C   0  0  0  0  0  0  0  0  0  0  0  0
   16.6995  -30.7761   -1.2956 S   0  0  0  0  0  0  0  0  0  0  0  0
   16.3405  -29.1814   -2.0121 C   0  0  0  0  0  0  0  0  0  0  0  0
   17.3575  -28.6636   -2.9845 C   0  0  0  0  0  0  0  0  0  0  0  0
   17.0698  -27.3424   -3.6042 C   0  0  2  0  0  0  0  0  0  0  0  0
   17.9660  -26.8962   -4.6202 N   0  0  0  0  0  0  0  0  0  0  0  0
   17.0837  -26.3253   -2.5099 C   0  0  0  0  0  0  0  0  0  0  0  0
   16.0072  -26.1549   -1.6568 O   0  0  0  0  0  0  0  0  0  0  0  0
   18.0880  -25.5900   -2.3362 O   0  0  0  0  0  0  0  0  0  0  0  0
  2  3  1  0
  2  1  1  0
  3  5  1  0
  3  4  1  1
  5  6  1  6
  7  5  1  0
  8  7  2  0
  9  7  1  0
  9 10  1  0
 10 11  1  0
 12 11  1  0
 13 12  1  0
 13  9  1  0
 13 14  1  1
 15 14  2  0
 17 16  1  0
 17 18  1  0
 18 19  1  0
 20 19  1  1
 20 21  1  0
 21 14  1  0
 22 20  1  0
 22 23  1  0
 24 22  2  0
M  END
$$$$
