IPM.pdb
     RDKit          3D

 24 24  0  0  1  0  0  0  0  0999 V2000
   21.0220  -17.6019  -14.9144 C   0  0  0  0  0  0  0  0  0  0  0  0
   21.3842  -19.0775  -15.0714 C   0  0  0  0  0  0  0  0  0  0  0  0
   22.2364  -19.4335  -13.8771 C   0  0  2  0  0  0  0  0  0  0  0  0
   23.5325  -18.6368  -14.0131 C   0  0  0  0  0  0  0  0  0  0  0  0
   22.6243  -20.8954  -13.8460 C   0  0  2  0  0  0  0  0  0  0  0  0
   21.4995  -21.7424  -14.0495 N   0  0  0  0  0  0  0  0  0  0  0  0
   23.4363  -21.2371  -12.6654 C   0  0  0  0  0  0  0  0  0  0  0  0
   22.9155  -21.2797  -11.5143 O   0  0  0  0  0  0  0  0  0  0  0  0
   24.8535  -21.5361  -12.7705 N   0  0  0  0  0  0  0  0  0  0  0  0
   25.5424  -21.6105  -14.0363 C   0  0  0  0  0  0  0  0  0  0  0  0
   26.9638  -22.0887  -13.7200 C   0  0  0  0  0  0  0  0  0  0  0  0
   27.1366  -21.6578  -12.2857 C   0  0  0  0  0  0  0  0  0  0  0  0
   25.7586  -21.7978  -11.7159 C   0  0  1  0  0  0  0  0  0  0  0  0
   25.6479  -20.7909  -10.5984 C   0  0  0  0  0  0  0  0  0  0  0  0
   25.1146  -19.6693  -10.7191 O   0  0  0  0  0  0  0  0  0  0  0  0
   27.3782  -21.5329   -3.9558 C   0  0  0  0  0  0  0  0  0  0  0  0
   28.2208  -20.0447   -4.5602 S   0  0  0  0  0  0  0  0  0  0  0  0
   27.4078  -19.4871   -6.0479 C   0  0  0  0  0  0  0  0  0  0  0  0
   27.1234  -20.5484   -7.0682 C   0  0  0  0  0  0  0  0  0  0  0  0
   26.4180  -20.1099   -8.3021 C   0  0  2  0  0  0  0  0  0  0  0  0
   26.1774  -21.1036   -9.2966 N   0  0  0  0  0  0  0  0  0  0  0  0
   27.2439  -19.0337   -8.9280 C   0  0  0  0  0  0  0  0  0  0  0  0
   27.0618  -17.6977   -8.6158 O   0  0  0  0  0  0  0  0  0  0  0  0
   28.1364  -19.3210   -9.7650 O   0  0  0  0  0  0  0  0  0  0  0  0
  2  3  1  0
  2  1  1  0
  3  5  1  0
  3  4  1  6
  5  6  1  1
  7  5  1  0
  8  7  2  0
  9  7  1  0
  9 10  1  0
 10 11  1  0
 12 11  1  0
 13 12  1  0
 13  9  1  0
 13 14  1  1
 15 14  2  0
 17 16  1  0
 17 18  1  0
 18 19  1  0
 20 19  1  1
 20 21  1  0
 21 14  1  0
 22 20  1  0
 22 23  1  0
 24 22  2  0
M  END
$$$$
