IPM.pdb
     RDKit          3D

 24 24  0  0  1  0  0  0  0  0999 V2000
   22.7540  -18.6699  -13.6952 C   0  0  0  0  0  0  0  0  0  0  0  0
   23.6382  -19.9075  -13.8362 C   0  0  0  0  0  0  0  0  0  0  0  0
   24.3903  -20.0408  -12.5339 C   0  0  2  0  0  0  0  0  0  0  0  0
   25.3153  -18.8291  -12.4385 C   0  0  0  0  0  0  0  0  0  0  0  0
   25.2734  -21.2683  -12.4877 C   0  0  2  0  0  0  0  0  0  0  0  0
   24.5712  -22.4370  -12.8941 N   0  0  0  0  0  0  0  0  0  0  0  0
   25.9841  -21.4021  -11.2045 C   0  0  0  0  0  0  0  0  0  0  0  0
   25.3440  -21.5538  -10.1249 O   0  0  0  0  0  0  0  0  0  0  0  0
   27.4336  -21.3659  -11.1238 N   0  0  0  0  0  0  0  0  0  0  0  0
   28.2759  -21.2397  -12.2886 C   0  0  0  0  0  0  0  0  0  0  0  0
   29.7175  -21.3906  -11.7901 C   0  0  0  0  0  0  0  0  0  0  0  0
   29.6028  -20.9785  -10.3445 C   0  0  0  0  0  0  0  0  0  0  0  0
   28.2333  -21.4480   -9.9604 C   0  0  1  0  0  0  0  0  0  0  0  0
   27.7525  -20.5300   -8.8646 C   0  0  0  0  0  0  0  0  0  0  0  0
   27.1429  -19.4603   -9.0670 O   0  0  0  0  0  0  0  0  0  0  0  0
   24.2834  -20.9810   -3.5857 C   0  0  0  0  0  0  0  0  0  0  0  0
   25.6121  -19.9511   -2.9047 S   0  0  0  0  0  0  0  0  0  0  0  0
   26.6363  -19.3716   -4.2465 C   0  0  0  0  0  0  0  0  0  0  0  0
   27.0891  -20.4212   -5.2167 C   0  0  0  0  0  0  0  0  0  0  0  0
   27.8205  -19.9410   -6.4195 C   0  0  2  0  0  0  0  0  0  0  0  0
   27.9911  -20.8720   -7.4866 N   0  0  0  0  0  0  0  0  0  0  0  0
   29.1796  -19.5117   -5.9717 C   0  0  0  0  0  0  0  0  0  0  0  0
   30.2800  -20.3450   -6.0741 O   0  0  0  0  0  0  0  0  0  0  0  0
   29.3578  -18.3669   -5.4845 O   0  0  0  0  0  0  0  0  0  0  0  0
  2  3  1  0
  2  1  1  0
  3  5  1  0
  3  4  1  6
  5  6  1  1
  7  5  1  0
  8  7  2  0
  9  7  1  0
  9 10  1  0
 10 11  1  0
 12 11  1  0
 13 12  1  0
 13  9  1  0
 13 14  1  1
 15 14  2  0
 17 16  1  0
 17 18  1  0
 18 19  1  0
 20 19  1  1
 20 21  1  0
 21 14  1  0
 22 20  1  0
 22 23  1  0
 24 22  2  0
M  END
$$$$
