IPM.pdb
     RDKit          3D

 24 24  0  0  1  0  0  0  0  0999 V2000
   21.3255  -19.0760  -15.0128 C   0  0  0  0  0  0  0  0  0  0  0  0
   22.5418  -19.8797  -15.4691 C   0  0  0  0  0  0  0  0  0  0  0  0
   23.2825  -20.2753  -14.2144 C   0  0  2  0  0  0  0  0  0  0  0  0
   23.8984  -18.9967  -13.6500 C   0  0  0  0  0  0  0  0  0  0  0  0
   24.4260  -21.2289  -14.4824 C   0  0  2  0  0  0  0  0  0  0  0  0
   24.0108  -22.3409  -15.2667 N   0  0  0  0  0  0  0  0  0  0  0  0
   25.1568  -21.5899  -13.2555 C   0  0  0  0  0  0  0  0  0  0  0  0
   24.6131  -22.3074  -12.3680 O   0  0  0  0  0  0  0  0  0  0  0  0
   26.5173  -21.1430  -13.0143 N   0  0  0  0  0  0  0  0  0  0  0  0
   27.3161  -20.4960  -14.0270 C   0  0  0  0  0  0  0  0  0  0  0  0
   28.7137  -20.3243  -13.4217 C   0  0  0  0  0  0  0  0  0  0  0  0
   28.4257  -20.3240  -11.9419 C   0  0  0  0  0  0  0  0  0  0  0  0
   27.2620  -21.2586  -11.8176 C   0  0  1  0  0  0  0  0  0  0  0  0
   26.4791  -20.8165  -10.6067 C   0  0  0  0  0  0  0  0  0  0  0  0
   25.6699  -19.8666  -10.6068 O   0  0  0  0  0  0  0  0  0  0  0  0
   29.5305  -19.7919   -4.5787 C   0  0  0  0  0  0  0  0  0  0  0  0
   27.8163  -20.1208   -5.0720 S   0  0  0  0  0  0  0  0  0  0  0  0
   27.8137  -21.3717   -6.3450 C   0  0  0  0  0  0  0  0  0  0  0  0
   26.4660  -21.7416   -6.8879 C   0  0  0  0  0  0  0  0  0  0  0  0
   26.0453  -21.0583   -8.1403 C   0  0  2  0  0  0  0  0  0  0  0  0
   26.6462  -21.5059   -9.3539 N   0  0  0  0  0  0  0  0  0  0  0  0
   26.3658  -19.6075   -7.9847 C   0  0  0  0  0  0  0  0  0  0  0  0
   25.5179  -18.7387   -7.3198 O   0  0  0  0  0  0  0  0  0  0  0  0
   27.4287  -19.1351   -8.4610 O   0  0  0  0  0  0  0  0  0  0  0  0
  2  3  1  0
  2  1  1  0
  3  5  1  0
  3  4  1  6
  5  6  1  1
  7  5  1  0
  8  7  2  0
  9  7  1  0
  9 10  1  0
 10 11  1  0
 12 11  1  0
 13 12  1  0
 13  9  1  0
 13 14  1  1
 15 14  2  0
 17 16  1  0
 17 18  1  0
 18 19  1  0
 20 19  1  1
 20 21  1  0
 21 14  1  0
 22 20  1  0
 22 23  1  0
 24 22  2  0
M  END
$$$$
