IPM.pdb
     RDKit          3D

 24 24  0  0  1  0  0  0  0  0999 V2000
   20.8920  -18.0140  -14.8576 C   0  0  0  0  0  0  0  0  0  0  0  0
   21.4569  -19.4301  -14.9515 C   0  0  0  0  0  0  0  0  0  0  0  0
   22.3285  -19.6197  -13.7334 C   0  0  2  0  0  0  0  0  0  0  0  0
   23.5230  -18.6828  -13.9017 C   0  0  0  0  0  0  0  0  0  0  0  0
   22.8860  -21.0216  -13.6214 C   0  0  2  0  0  0  0  0  0  0  0  0
   21.8719  -22.0057  -13.7868 N   0  0  0  0  0  0  0  0  0  0  0  0
   23.7173  -21.2021  -12.4189 C   0  0  0  0  0  0  0  0  0  0  0  0
   23.1904  -21.2452  -11.2706 O   0  0  0  0  0  0  0  0  0  0  0  0
   25.1611  -21.3367  -12.4985 N   0  0  0  0  0  0  0  0  0  0  0  0
   25.8869  -21.2241  -13.7405 C   0  0  0  0  0  0  0  0  0  0  0  0
   27.3436  -21.5730  -13.4157 C   0  0  0  0  0  0  0  0  0  0  0  0
   27.4302  -21.2549  -11.9446 C   0  0  0  0  0  0  0  0  0  0  0  0
   26.0615  -21.5921  -11.4383 C   0  0  1  0  0  0  0  0  0  0  0  0
   25.8114  -20.7061  -10.2437 C   0  0  0  0  0  0  0  0  0  0  0  0
   25.2223  -19.6075  -10.3001 O   0  0  0  0  0  0  0  0  0  0  0  0
   29.5935  -21.2677   -4.6680 C   0  0  0  0  0  0  0  0  0  0  0  0
   28.1434  -20.3461   -4.0868 S   0  0  0  0  0  0  0  0  0  0  0  0
   27.2424  -19.7382   -5.5025 C   0  0  0  0  0  0  0  0  0  0  0  0
   27.0302  -20.7269   -6.6095 C   0  0  0  0  0  0  0  0  0  0  0  0
   26.3776  -20.2116   -7.8427 C   0  0  2  0  0  0  0  0  0  0  0  0
   26.2640  -21.1159   -8.9399 N   0  0  0  0  0  0  0  0  0  0  0  0
   27.1710  -19.0340   -8.3070 C   0  0  0  0  0  0  0  0  0  0  0  0
   26.8702  -17.7447   -7.9030 O   0  0  0  0  0  0  0  0  0  0  0  0
   28.1445  -19.1889   -9.0867 O   0  0  0  0  0  0  0  0  0  0  0  0
  2  3  1  0
  2  1  1  0
  3  5  1  0
  3  4  1  6
  5  6  1  1
  7  5  1  0
  8  7  2  0
  9  7  1  0
  9 10  1  0
 10 11  1  0
 12 11  1  0
 13 12  1  0
 13  9  1  0
 13 14  1  1
 15 14  2  0
 17 16  1  0
 17 18  1  0
 18 19  1  0
 20 19  1  1
 20 21  1  0
 21 14  1  0
 22 20  1  0
 22 23  1  0
 24 22  2  0
M  END
$$$$
