IPM.pdb
     RDKit          3D

 24 24  0  0  1  0  0  0  0  0999 V2000
   14.9791  -13.6520  -15.1842 C   0  0  0  0  0  0  0  0  0  0  0  0
   15.7294  -13.6483  -16.5147 C   0  0  0  0  0  0  0  0  0  0  0  0
   16.6972  -12.4912  -16.4516 C   0  0  2  0  0  0  0  0  0  0  0  0
   15.8592  -11.2167  -16.5316 C   0  0  0  0  0  0  0  0  0  0  0  0
   17.6529  -12.4591  -17.6239 C   0  0  2  0  0  0  0  0  0  0  0  0
   18.2423  -13.7328  -17.8570 N   0  0  0  0  0  0  0  0  0  0  0  0
   18.6185  -11.3506  -17.5324 C   0  0  0  0  0  0  0  0  0  0  0  0
   19.5931  -11.4083  -16.7293 O   0  0  0  0  0  0  0  0  0  0  0  0
   18.4949  -10.1570  -18.3504 N   0  0  0  0  0  0  0  0  0  0  0  0
   17.4592   -9.9960  -19.3422 C   0  0  0  0  0  0  0  0  0  0  0  0
   17.7693   -8.6848  -20.0727 C   0  0  0  0  0  0  0  0  0  0  0  0
   18.5737   -7.9274  -19.0470 C   0  0  0  0  0  0  0  0  0  0  0  0
   19.3200   -9.0088  -18.3280 C   0  0  1  0  0  0  0  0  0  0  0  0
   19.5695   -8.5056  -16.9283 C   0  0  0  0  0  0  0  0  0  0  0  0
   18.7231   -8.5415  -16.0120 O   0  0  0  0  0  0  0  0  0  0  0  0
   23.8238  -12.0625  -13.9223 C   0  0  0  0  0  0  0  0  0  0  0  0
   23.9419  -10.2528  -13.8921 S   0  0  0  0  0  0  0  0  0  0  0  0
   22.4125   -9.5659  -14.5040 C   0  0  0  0  0  0  0  0  0  0  0  0
   22.3781   -8.0726  -14.6334 C   0  0  0  0  0  0  0  0  0  0  0  0
   21.1675   -7.4900  -15.2716 C   0  0  2  0  0  0  0  0  0  0  0  0
   20.8493   -7.9418  -16.5865 N   0  0  0  0  0  0  0  0  0  0  0  0
   21.3673   -6.0109  -15.3371 C   0  0  0  0  0  0  0  0  0  0  0  0
   21.4354   -5.2313  -14.1955 O   0  0  0  0  0  0  0  0  0  0  0  0
   21.4797   -5.4317  -16.4468 O   0  0  0  0  0  0  0  0  0  0  0  0
  2  3  1  0
  2  1  1  0
  3  5  1  0
  3  4  1  6
  5  6  1  1
  7  5  1  0
  8  7  2  0
  9  7  1  0
  9 10  1  0
 10 11  1  0
 12 11  1  0
 13 12  1  0
 13  9  1  0
 13 14  1  1
 15 14  2  0
 17 16  1  0
 17 18  1  0
 18 19  1  0
 20 19  1  6
 20 21  1  0
 21 14  1  0
 22 20  1  0
 22 23  1  0
 24 22  2  0
M  END
$$$$
