IPM.pdb
     RDKit          3D

 24 24  0  0  1  0  0  0  0  0999 V2000
   21.1294  -23.1678  -15.3838 C   0  0  0  0  0  0  0  0  0  0  0  0
   22.4276  -22.7701  -16.0837 C   0  0  0  0  0  0  0  0  0  0  0  0
   23.4309  -22.4947  -14.9896 C   0  0  2  0  0  0  0  0  0  0  0  0
   22.9529  -21.2375  -14.2657 C   0  0  0  0  0  0  0  0  0  0  0  0
   24.8140  -22.1918  -15.5226 C   0  0  2  0  0  0  0  0  0  0  0  0
   25.2299  -23.1549  -16.4836 N   0  0  0  0  0  0  0  0  0  0  0  0
   25.7900  -21.9462  -14.4471 C   0  0  0  0  0  0  0  0  0  0  0  0
   26.2274  -22.9001  -13.7422 O   0  0  0  0  0  0  0  0  0  0  0  0
   26.2867  -20.6137  -14.1526 N   0  0  0  0  0  0  0  0  0  0  0  0
   25.9975  -19.4723  -14.9867 C   0  0  0  0  0  0  0  0  0  0  0  0
   26.8187  -18.3100  -14.4177 C   0  0  0  0  0  0  0  0  0  0  0  0
   27.0126  -18.7257  -12.9816 C   0  0  0  0  0  0  0  0  0  0  0  0
   27.0985  -20.2187  -13.0641 C   0  0  1  0  0  0  0  0  0  0  0  0
   26.5968  -20.7546  -11.7467 C   0  0  0  0  0  0  0  0  0  0  0  0
   25.4804  -21.2897  -11.5900 O   0  0  0  0  0  0  0  0  0  0  0  0
   27.6503  -18.7038   -4.8384 C   0  0  0  0  0  0  0  0  0  0  0  0
   28.2207  -20.3385   -5.3791 S   0  0  0  0  0  0  0  0  0  0  0  0
   27.2179  -20.8717   -6.7557 C   0  0  0  0  0  0  0  0  0  0  0  0
   27.7840  -20.5948   -8.1161 C   0  0  0  0  0  0  0  0  0  0  0  0
   26.9741  -21.0517   -9.2770 C   0  0  2  0  0  0  0  0  0  0  0  0
   27.4255  -20.6630  -10.5730 N   0  0  0  0  0  0  0  0  0  0  0  0
   25.5936  -20.5098   -9.0971 C   0  0  0  0  0  0  0  0  0  0  0  0
   24.6021  -21.2331   -8.4571 O   0  0  0  0  0  0  0  0  0  0  0  0
   25.2961  -19.3677   -9.5292 O   0  0  0  0  0  0  0  0  0  0  0  0
  2  3  1  0
  2  1  1  0
  3  5  1  0
  3  4  1  6
  5  6  1  1
  7  5  1  0
  8  7  2  0
  9  7  1  0
  9 10  1  0
 10 11  1  0
 12 11  1  0
 13 12  1  0
 13  9  1  0
 13 14  1  1
 15 14  2  0
 17 16  1  0
 17 18  1  0
 18 19  1  0
 20 19  1  1
 20 21  1  0
 21 14  1  0
 22 20  1  0
 22 23  1  0
 24 22  2  0
M  END
$$$$
