IPM.pdb
     RDKit          3D

 24 24  0  0  1  0  0  0  0  0999 V2000
   20.7824  -20.0396  -13.8808 C   0  0  0  0  0  0  0  0  0  0  0  0
   21.9792  -20.7798  -14.4752 C   0  0  0  0  0  0  0  0  0  0  0  0
   22.9693  -20.9564  -13.3492 C   0  0  2  0  0  0  0  0  0  0  0  0
   23.4556  -19.5583  -12.9726 C   0  0  0  0  0  0  0  0  0  0  0  0
   24.1918  -21.7475  -13.7595 C   0  0  2  0  0  0  0  0  0  0  0  0
   23.8380  -22.9658  -14.4035 N   0  0  0  0  0  0  0  0  0  0  0  0
   25.1583  -21.9008  -12.6586 C   0  0  0  0  0  0  0  0  0  0  0  0
   24.8854  -22.6202  -11.6556 O   0  0  0  0  0  0  0  0  0  0  0  0
   26.4515  -21.2402  -12.6766 N   0  0  0  0  0  0  0  0  0  0  0  0
   26.9355  -20.5060  -13.8206 C   0  0  0  0  0  0  0  0  0  0  0  0
   28.3759  -20.1008  -13.4884 C   0  0  0  0  0  0  0  0  0  0  0  0
   28.3711  -20.1028  -11.9808 C   0  0  0  0  0  0  0  0  0  0  0  0
   27.4139  -21.2036  -11.6411 C   0  0  1  0  0  0  0  0  0  0  0  0
   26.8092  -20.8544  -10.3044 C   0  0  0  0  0  0  0  0  0  0  0  0
   25.6737  -20.3577  -10.1598 O   0  0  0  0  0  0  0  0  0  0  0  0
   29.7969  -21.8937   -4.3022 C   0  0  0  0  0  0  0  0  0  0  0  0
   28.8388  -20.3762   -4.0396 S   0  0  0  0  0  0  0  0  0  0  0  0
   27.6640  -20.1995   -5.3715 C   0  0  0  0  0  0  0  0  0  0  0  0
   28.1012  -20.7441   -6.6982 C   0  0  0  0  0  0  0  0  0  0  0  0
   27.1373  -20.6045   -7.8225 C   0  0  2  0  0  0  0  0  0  0  0  0
   27.5547  -21.0928   -9.0960 N   0  0  0  0  0  0  0  0  0  0  0  0
   26.8364  -19.1488   -7.9722 C   0  0  0  0  0  0  0  0  0  0  0  0
   25.7705  -18.5521   -7.3215 O   0  0  0  0  0  0  0  0  0  0  0  0
   27.5548  -18.4217   -8.7035 O   0  0  0  0  0  0  0  0  0  0  0  0
  2  3  1  0
  2  1  1  0
  3  5  1  0
  3  4  1  6
  5  6  1  1
  7  5  1  0
  8  7  2  0
  9  7  1  0
  9 10  1  0
 10 11  1  0
 12 11  1  0
 13 12  1  0
 13  9  1  0
 13 14  1  1
 15 14  2  0
 17 16  1  0
 17 18  1  0
 18 19  1  0
 20 19  1  1
 20 21  1  0
 21 14  1  0
 22 20  1  0
 22 23  1  0
 24 22  2  0
M  END
$$$$
