IPM.pdb
     RDKit          3D

 24 24  0  0  1  0  0  0  0  0999 V2000
   32.4889  -22.2283  -10.7551 C   0  0  0  0  0  0  0  0  0  0  0  0
   31.7111  -21.7049  -11.9610 C   0  0  0  0  0  0  0  0  0  0  0  0
   30.3702  -21.2520  -11.4355 C   0  0  2  0  0  0  0  0  0  0  0  0
   29.6513  -22.5042  -10.9374 C   0  0  0  0  0  0  0  0  0  0  0  0
   29.4934  -20.6431  -12.5076 C   0  0  2  0  0  0  0  0  0  0  0  0
   30.2114  -19.7111  -13.3076 N   0  0  0  0  0  0  0  0  0  0  0  0
   28.2219  -20.1294  -11.9699 C   0  0  0  0  0  0  0  0  0  0  0  0
   28.2133  -19.2295  -11.0822 O   0  0  0  0  0  0  0  0  0  0  0  0
   26.9380  -20.6281  -12.4302 N   0  0  0  0  0  0  0  0  0  0  0  0
   26.7498  -21.2038  -13.7399 C   0  0  0  0  0  0  0  0  0  0  0  0
   25.2453  -21.4608  -13.8800 C   0  0  0  0  0  0  0  0  0  0  0  0
   24.8046  -21.5825  -12.4434 C   0  0  0  0  0  0  0  0  0  0  0  0
   25.7133  -20.6345  -11.7231 C   0  0  1  0  0  0  0  0  0  0  0  0
   25.8621  -21.1610  -10.3177 C   0  0  0  0  0  0  0  0  0  0  0  0
   26.6145  -22.1049  -10.0015 O   0  0  0  0  0  0  0  0  0  0  0  0
   28.1402  -18.3930   -5.5808 C   0  0  0  0  0  0  0  0  0  0  0  0
   27.5224  -19.8072   -4.6278 S   0  0  0  0  0  0  0  0  0  0  0  0
   26.3171  -20.6818   -5.6115 C   0  0  0  0  0  0  0  0  0  0  0  0
   26.2075  -20.2453   -7.0417 C   0  0  0  0  0  0  0  0  0  0  0  0
   25.2333  -20.9851   -7.8879 C   0  0  2  0  0  0  0  0  0  0  0  0
   25.1076  -20.5660   -9.2455 N   0  0  0  0  0  0  0  0  0  0  0  0
   23.8915  -20.8472   -7.2456 C   0  0  0  0  0  0  0  0  0  0  0  0
   22.8874  -20.0785   -7.8082 O   0  0  0  0  0  0  0  0  0  0  0  0
   23.6398  -21.4349   -6.1635 O   0  0  0  0  0  0  0  0  0  0  0  0
  2  3  1  0
  2  1  1  0
  3  5  1  0
  3  4  1  6
  5  6  1  1
  7  5  1  0
  8  7  2  0
  9  7  1  0
  9 10  1  0
 10 11  1  0
 12 11  1  0
 13 12  1  0
 13  9  1  0
 13 14  1  1
 15 14  2  0
 17 16  1  0
 17 18  1  0
 18 19  1  0
 20 19  1  1
 20 21  1  0
 21 14  1  0
 22 20  1  0
 22 23  1  0
 24 22  2  0
M  END
$$$$
