IPM.pdb
     RDKit          3D

 24 24  0  0  1  0  0  0  0  0999 V2000
   25.1220  -15.1075  -15.1699 C   0  0  0  0  0  0  0  0  0  0  0  0
   25.1476  -16.5518  -15.6665 C   0  0  0  0  0  0  0  0  0  0  0  0
   25.5029  -17.4038  -14.4718 C   0  0  2  0  0  0  0  0  0  0  0  0
   26.9670  -17.1128  -14.1485 C   0  0  0  0  0  0  0  0  0  0  0  0
   25.4055  -18.8864  -14.7568 C   0  0  2  0  0  0  0  0  0  0  0  0
   24.1938  -19.2149  -15.4260 N   0  0  0  0  0  0  0  0  0  0  0  0
   25.6837  -19.7077  -13.5661 C   0  0  0  0  0  0  0  0  0  0  0  0
   24.8582  -19.7588  -12.6101 O   0  0  0  0  0  0  0  0  0  0  0  0
   26.9037  -20.4852  -13.4395 N   0  0  0  0  0  0  0  0  0  0  0  0
   27.8813  -20.5789  -14.4967 C   0  0  0  0  0  0  0  0  0  0  0  0
   28.9243  -21.5974  -14.0233 C   0  0  0  0  0  0  0  0  0  0  0  0
   28.7845  -21.5279  -12.5238 C   0  0  0  0  0  0  0  0  0  0  0  0
   27.3261  -21.2489  -12.3267 C   0  0  1  0  0  0  0  0  0  0  0  0
   27.2018  -20.4924  -11.0279 C   0  0  0  0  0  0  0  0  0  0  0  0
   28.0512  -19.6800  -10.6088 O   0  0  0  0  0  0  0  0  0  0  0  0
   28.5341  -20.0557   -4.5981 C   0  0  0  0  0  0  0  0  0  0  0  0
   28.0905  -18.8504   -5.8788 S   0  0  0  0  0  0  0  0  0  0  0  0
   26.5547  -19.3539   -6.6359 C   0  0  0  0  0  0  0  0  0  0  0  0
   26.5521  -19.3909   -8.1347 C   0  0  0  0  0  0  0  0  0  0  0  0
   26.1141  -20.6646   -8.7658 C   0  0  2  0  0  0  0  0  0  0  0  0
   26.0477  -20.6907  -10.1904 N   0  0  0  0  0  0  0  0  0  0  0  0
   24.7490  -20.9736   -8.2433 C   0  0  0  0  0  0  0  0  0  0  0  0
   24.5103  -21.1720   -6.8945 O   0  0  0  0  0  0  0  0  0  0  0  0
   23.7713  -21.0617   -9.0281 O   0  0  0  0  0  0  0  0  0  0  0  0
  2  3  1  0
  2  1  1  0
  3  5  1  0
  3  4  1  6
  5  6  1  1
  7  5  1  0
  8  7  2  0
  9  7  1  0
  9 10  1  0
 10 11  1  0
 12 11  1  0
 13 12  1  0
 13  9  1  0
 13 14  1  1
 15 14  2  0
 17 16  1  0
 17 18  1  0
 18 19  1  0
 20 19  1  6
 20 21  1  0
 21 14  1  0
 22 20  1  0
 22 23  1  0
 24 22  2  0
M  END
$$$$
