IPM.pdb
     RDKit          3D

 24 24  0  0  1  0  0  0  0  0999 V2000
   16.0847   -9.6981  -17.4209 C   0  0  0  0  0  0  0  0  0  0  0  0
   17.5436   -9.6786  -16.9685 C   0  0  0  0  0  0  0  0  0  0  0  0
   17.5362   -9.1998  -15.5367 C   0  0  2  0  0  0  0  0  0  0  0  0
   17.1997   -7.7104  -15.5766 C   0  0  0  0  0  0  0  0  0  0  0  0
   18.8876   -9.3238  -14.8680 C   0  0  2  0  0  0  0  0  0  0  0  0
   19.4500  -10.6173  -15.0545 N   0  0  0  0  0  0  0  0  0  0  0  0
   18.8666   -8.8667  -13.4679 C   0  0  0  0  0  0  0  0  0  0  0  0
   18.1395   -9.4454  -12.6109 O   0  0  0  0  0  0  0  0  0  0  0  0
   19.6703   -7.7447  -13.0159 N   0  0  0  0  0  0  0  0  0  0  0  0
   20.7285   -7.1730  -13.8131 C   0  0  0  0  0  0  0  0  0  0  0  0
   21.4128   -6.1273  -12.9258 C   0  0  0  0  0  0  0  0  0  0  0  0
   20.3207   -5.7689  -11.9502 C   0  0  0  0  0  0  0  0  0  0  0  0
   19.5708   -7.0549  -11.7854 C   0  0  1  0  0  0  0  0  0  0  0  0
   18.1486   -6.6861  -11.4450 C   0  0  0  0  0  0  0  0  0  0  0  0
   17.2705   -6.4319  -12.2943 O   0  0  0  0  0  0  0  0  0  0  0  0
   11.6249   -7.6163   -7.9359 C   0  0  0  0  0  0  0  0  0  0  0  0
   13.2349   -8.1506   -8.5782 S   0  0  0  0  0  0  0  0  0  0  0  0
   14.4717   -6.9580   -8.0953 C   0  0  0  0  0  0  0  0  0  0  0  0
   15.8674   -7.2465   -8.5609 C   0  0  0  0  0  0  0  0  0  0  0  0
   16.3810   -6.4072   -9.6764 C   0  0  2  0  0  0  0  0  0  0  0  0
   17.7374   -6.6114  -10.0672 N   0  0  0  0  0  0  0  0  0  0  0  0
   16.2398   -4.9793   -9.2603 C   0  0  0  0  0  0  0  0  0  0  0  0
   15.0280   -4.3143   -9.3293 O   0  0  0  0  0  0  0  0  0  0  0  0
   17.2330   -4.3395   -8.8316 O   0  0  0  0  0  0  0  0  0  0  0  0
  2  3  1  0
  2  1  1  0
  3  5  1  0
  3  4  1  6
  5  6  1  1
  7  5  1  0
  8  7  2  0
  9  7  1  0
  9 10  1  0
 10 11  1  0
 12 11  1  0
 13 12  1  0
 13  9  1  0
 13 14  1  6
 15 14  2  0
 17 16  1  0
 17 18  1  0
 18 19  1  0
 20 19  1  1
 20 21  1  0
 21 14  1  0
 22 20  1  0
 22 23  1  0
 24 22  2  0
M  END
$$$$
