VEF.pdb
     RDKit          3D

 28 28  0  0  1  0  0  0  0  0999 V2000
    8.1332  -12.6805   17.9624 C   0  0  0  0  0  0  0  0  0  0  0  0
    8.1265  -13.6013   19.1607 C   0  0  2  0  0  0  0  0  0  0  0  0
    8.9292  -13.0103   20.2994 C   0  0  0  0  0  0  0  0  0  0  0  0
    8.6960  -14.9470   18.7742 C   0  0  2  0  0  0  0  0  0  0  0  0
    7.9335  -15.5065   17.7028 N   0  0  0  0  0  0  0  0  0  0  0  0
    8.7951  -15.8291   19.9708 C   0  0  0  0  0  0  0  0  0  0  0  0
    7.7344  -16.4041   20.3343 O   0  0  0  0  0  0  0  0  0  0  0  0
    9.9692  -16.0612   20.7101 N   0  0  0  0  0  0  0  0  0  0  0  0
   10.0796  -16.9686   21.8228 C   0  0  1  0  0  0  0  0  0  0  0  0
   11.3017  -17.8216   21.8125 C   0  0  0  0  0  0  0  0  0  0  0  0
   12.5711  -17.1311   21.4349 C   0  0  0  0  0  0  0  0  0  0  0  0
   13.4786  -18.0348   20.7087 C   0  0  0  0  0  0  0  0  0  0  0  0
   13.7144  -17.8403   19.5007 O   0  0  0  0  0  0  0  0  0  0  0  0
   10.1451  -16.1390   23.0743 C   0  0  0  0  0  0  0  0  0  0  0  0
   10.7690  -15.0492   23.0773 O   0  0  0  0  0  0  0  0  0  0  0  0
   14.0691  -19.0964   21.3597 O   0  0  0  0  0  0  0  0  0  0  0  0
    9.5129  -16.5633   24.2623 N   0  0  0  0  0  0  0  0  0  0  0  0
    9.0576  -15.5575   25.2336 C   0  0  1  0  0  0  0  0  0  0  0  0
    7.8908  -14.8037   24.6920 C   0  0  0  0  0  0  0  0  0  0  0  0
    7.4082  -13.8184   25.6666 C   0  0  0  0  0  0  0  0  0  0  0  0
    6.0616  -13.6030   25.8393 C   0  0  0  0  0  0  0  0  0  0  0  0
    5.6092  -12.6750   26.7635 C   0  0  0  0  0  0  0  0  0  0  0  0
    6.5069  -11.9646   27.5128 C   0  0  0  0  0  0  0  0  0  0  0  0
    7.8754  -12.1542   27.3667 C   0  0  0  0  0  0  0  0  0  0  0  0
    8.2782  -13.0862   26.4369 C   0  0  0  0  0  0  0  0  0  0  0  0
    8.8161  -16.1787   26.5366 C   0  0  0  0  0  0  0  0  0  0  0  0
    8.1208  -17.2121   26.6604 O   0  0  0  0  0  0  0  0  0  0  0  0
    9.3772  -15.6022   27.6741 O   0  0  0  0  0  0  0  0  0  0  0  0
  2  1  1  6
  3  2  1  0
  4  5  1  6
  4  2  1  0
  6  4  1  0
  7  6  2  0
  8  6  1  0
  9  8  1  0
 10 11  1  0
  9 10  1  6
 12 11  1  0
 12 13  2  0
 14  9  1  0
 14 15  2  0
 16 12  1  0
 17 14  1  0
 18 17  1  0
 18 19  1  6
 19 20  1  0
 20 21  2  0
 20 25  1  0
 21 22  1  0
 22 23  2  0
 24 23  1  0
 25 24  2  0
 26 18  1  0
 27 26  2  0
 28 26  1  0
M  END
$$$$
