VEF.pdb
     RDKit          3D

 28 28  0  0  1  0  0  0  0  0999 V2000
    7.4031  -13.4531   21.0510 C   0  0  0  0  0  0  0  0  0  0  0  0
    8.4750  -13.4505   19.9857 C   0  0  2  0  0  0  0  0  0  0  0  0
    8.1443  -12.4600   18.8904 C   0  0  0  0  0  0  0  0  0  0  0  0
    8.6164  -14.8367   19.3999 C   0  0  2  0  0  0  0  0  0  0  0  0
    7.4177  -15.1958   18.7094 N   0  0  0  0  0  0  0  0  0  0  0  0
    9.0184  -15.8061   20.4574 C   0  0  0  0  0  0  0  0  0  0  0  0
    8.2132  -15.9595   21.4145 O   0  0  0  0  0  0  0  0  0  0  0  0
   10.2128  -16.5493   20.4622 N   0  0  0  0  0  0  0  0  0  0  0  0
   10.6057  -17.4759   21.4921 C   0  0  1  0  0  0  0  0  0  0  0  0
   11.8365  -18.2597   21.1889 C   0  0  0  0  0  0  0  0  0  0  0  0
   11.7705  -19.1260   19.9740 C   0  0  0  0  0  0  0  0  0  0  0  0
   13.0999  -19.3002   19.3657 C   0  0  0  0  0  0  0  0  0  0  0  0
   13.3483  -18.7884   18.2571 O   0  0  0  0  0  0  0  0  0  0  0  0
   10.9006  -16.6743   22.7288 C   0  0  0  0  0  0  0  0  0  0  0  0
   11.5413  -15.5976   22.6453 O   0  0  0  0  0  0  0  0  0  0  0  0
   14.0720  -20.0279   20.0177 O   0  0  0  0  0  0  0  0  0  0  0  0
   10.4680  -17.1108   23.9991 N   0  0  0  0  0  0  0  0  0  0  0  0
   10.7110  -16.2597   25.1733 C   0  0  1  0  0  0  0  0  0  0  0  0
    9.4555  -16.0881   25.9590 C   0  0  0  0  0  0  0  0  0  0  0  0
    9.7017  -15.2964   27.1698 C   0  0  0  0  0  0  0  0  0  0  0  0
    9.5189  -13.9341   27.1672 C   0  0  0  0  0  0  0  0  0  0  0  0
    9.7481  -13.1901   28.3134 C   0  0  0  0  0  0  0  0  0  0  0  0
   10.1600  -13.8126   29.4601 C   0  0  0  0  0  0  0  0  0  0  0  0
   10.3558  -15.1874   29.5018 C   0  0  0  0  0  0  0  0  0  0  0  0
   10.1158  -15.8852   28.3395 C   0  0  0  0  0  0  0  0  0  0  0  0
   11.8385  -16.7740   25.9519 C   0  0  0  0  0  0  0  0  0  0  0  0
   12.5280  -16.0343   26.6896 O   0  0  0  0  0  0  0  0  0  0  0  0
   12.1544  -18.1284   25.8694 O   0  0  0  0  0  0  0  0  0  0  0  0
  2  1  1  1
  3  2  1  0
  4  5  1  1
  4  2  1  0
  6  4  1  0
  7  6  2  0
  8  6  1  0
  9  8  1  0
 10 11  1  0
  9 10  1  6
 12 11  1  0
 12 13  2  0
 14  9  1  0
 14 15  2  0
 16 12  1  0
 17 14  1  0
 18 17  1  0
 18 19  1  1
 19 20  1  0
 20 21  2  0
 20 25  1  0
 21 22  1  0
 22 23  2  0
 24 23  1  0
 25 24  2  0
 26 18  1  0
 27 26  2  0
 28 26  1  0
M  END
$$$$
