VEF.pdb
     RDKit          3D

 28 28  0  0  1  0  0  0  0  0999 V2000
    7.5418  -12.2291   19.5386 C   0  0  0  0  0  0  0  0  0  0  0  0
    7.7190  -13.1924   20.6894 C   0  0  2  0  0  0  0  0  0  0  0  0
    8.9156  -12.8101   21.5333 C   0  0  0  0  0  0  0  0  0  0  0  0
    7.8922  -14.5969   20.1581 C   0  0  2  0  0  0  0  0  0  0  0  0
    6.7989  -14.9285   19.2995 N   0  0  0  0  0  0  0  0  0  0  0  0
    8.0898  -15.5541   21.2825 C   0  0  0  0  0  0  0  0  0  0  0  0
    7.0467  -16.0304   21.8048 O   0  0  0  0  0  0  0  0  0  0  0  0
    9.3374  -15.9565   21.7929 N   0  0  0  0  0  0  0  0  0  0  0  0
    9.5431  -17.0522   22.7044 C   0  0  1  0  0  0  0  0  0  0  0  0
   10.7669  -17.8610   22.4407 C   0  0  0  0  0  0  0  0  0  0  0  0
   10.8075  -18.5646   21.1239 C   0  0  0  0  0  0  0  0  0  0  0  0
   12.0921  -19.2557   20.9237 C   0  0  0  0  0  0  0  0  0  0  0  0
   12.2772  -19.9392   19.8984 O   0  0  0  0  0  0  0  0  0  0  0  0
    9.7022  -16.4682   24.0801 C   0  0  0  0  0  0  0  0  0  0  0  0
   10.7155  -15.7818   24.3613 O   0  0  0  0  0  0  0  0  0  0  0  0
   13.0920  -19.1498   21.8663 O   0  0  0  0  0  0  0  0  0  0  0  0
    8.7253  -16.6773   25.0766 N   0  0  0  0  0  0  0  0  0  0  0  0
    9.0013  -16.2481   26.4558 C   0  0  1  0  0  0  0  0  0  0  0  0
    7.7554  -15.7452   27.1021 C   0  0  0  0  0  0  0  0  0  0  0  0
    7.3864  -14.4282   26.5699 C   0  0  0  0  0  0  0  0  0  0  0  0
    6.2507  -14.2703   25.8119 C   0  0  0  0  0  0  0  0  0  0  0  0
    5.9030  -13.0247   25.3146 C   0  0  0  0  0  0  0  0  0  0  0  0
    6.6939  -11.9397   25.5776 C   0  0  0  0  0  0  0  0  0  0  0  0
    7.8494  -12.0596   26.3397 C   0  0  0  0  0  0  0  0  0  0  0  0
    8.1548  -13.3160   26.8125 C   0  0  0  0  0  0  0  0  0  0  0  0
    9.6714  -17.3165   27.1984 C   0  0  0  0  0  0  0  0  0  0  0  0
   10.0999  -17.1478   28.3623 O   0  0  0  0  0  0  0  0  0  0  0  0
    9.8377  -18.5594   26.5913 O   0  0  0  0  0  0  0  0  0  0  0  0
  2  1  1  6
  3  2  1  0
  4  5  1  1
  4  2  1  0
  6  4  1  0
  7  6  2  0
  8  6  1  0
  9  8  1  0
 10 11  1  0
  9 10  1  6
 12 11  1  0
 12 13  2  0
 14  9  1  0
 14 15  2  0
 16 12  1  0
 17 14  1  0
 18 17  1  0
 18 19  1  1
 19 20  1  0
 20 21  2  0
 20 25  1  0
 21 22  1  0
 22 23  2  0
 24 23  1  0
 25 24  2  0
 26 18  1  0
 27 26  2  0
 28 26  1  0
M  END
$$$$
