VEF.pdb
     RDKit          3D

 28 28  0  0  1  0  0  0  0  0999 V2000
    7.3895  -14.9225   18.6762 C   0  0  0  0  0  0  0  0  0  0  0  0
    7.3617  -13.5569   19.3228 C   0  0  2  0  0  0  0  0  0  0  0  0
    7.5626  -12.4677   18.2916 C   0  0  0  0  0  0  0  0  0  0  0  0
    8.4392  -13.4699   20.3793 C   0  0  2  0  0  0  0  0  0  0  0  0
    9.7115  -13.2722   19.7590 N   0  0  0  0  0  0  0  0  0  0  0  0
    8.3817  -14.6587   21.2753 C   0  0  0  0  0  0  0  0  0  0  0  0
    7.2614  -14.9216   21.7888 O   0  0  0  0  0  0  0  0  0  0  0  0
    9.4713  -15.4939   21.5827 N   0  0  0  0  0  0  0  0  0  0  0  0
    9.4111  -16.6491   22.4403 C   0  0  1  0  0  0  0  0  0  0  0  0
   10.2164  -17.8136   21.9748 C   0  0  0  0  0  0  0  0  0  0  0  0
   11.6955  -17.6087   21.9457 C   0  0  0  0  0  0  0  0  0  0  0  0
   12.3909  -18.7900   21.4083 C   0  0  0  0  0  0  0  0  0  0  0  0
   12.2218  -19.1238   20.2197 O   0  0  0  0  0  0  0  0  0  0  0  0
    9.9700  -16.2466   23.7761 C   0  0  0  0  0  0  0  0  0  0  0  0
   10.6353  -15.1876   23.8889 O   0  0  0  0  0  0  0  0  0  0  0  0
   13.2289  -19.5293   22.2149 O   0  0  0  0  0  0  0  0  0  0  0  0
    9.7614  -17.0433   24.9220 N   0  0  0  0  0  0  0  0  0  0  0  0
    9.0529  -16.4711   26.0766 C   0  0  1  0  0  0  0  0  0  0  0  0
    7.7259  -15.9356   25.6581 C   0  0  0  0  0  0  0  0  0  0  0  0
    7.5695  -14.5392   26.0816 C   0  0  0  0  0  0  0  0  0  0  0  0
    6.3982  -13.8603   25.8437 C   0  0  0  0  0  0  0  0  0  0  0  0
    6.2523  -12.5433   26.2488 C   0  0  0  0  0  0  0  0  0  0  0  0
    7.2803  -11.9090   26.8914 C   0  0  0  0  0  0  0  0  0  0  0  0
    8.4792  -12.5619   27.1495 C   0  0  0  0  0  0  0  0  0  0  0  0
    8.5785  -13.8691   26.7290 C   0  0  0  0  0  0  0  0  0  0  0  0
    8.9885  -17.4430   27.1689 C   0  0  0  0  0  0  0  0  0  0  0  0
    8.8070  -18.6639   26.9610 O   0  0  0  0  0  0  0  0  0  0  0  0
    9.1335  -16.9957   28.4803 O   0  0  0  0  0  0  0  0  0  0  0  0
  2  1  1  6
  3  2  1  0
  4  5  1  6
  4  2  1  0
  6  4  1  0
  7  6  2  0
  8  6  1  0
  9  8  1  0
 10 11  1  0
  9 10  1  6
 12 11  1  0
 12 13  2  0
 14  9  1  0
 14 15  2  0
 16 12  1  0
 17 14  1  0
 18 17  1  0
 18 19  1  6
 19 20  1  0
 20 21  2  0
 20 25  1  0
 21 22  1  0
 22 23  2  0
 24 23  1  0
 25 24  2  0
 26 18  1  0
 27 26  2  0
 28 26  1  0
M  END
$$$$
