VEF.pdb
     RDKit          3D

 28 28  0  0  1  0  0  0  0  0999 V2000
    7.3041  -12.8970   22.1449 C   0  0  0  0  0  0  0  0  0  0  0  0
    8.1476  -13.3050   20.9593 C   0  0  2  0  0  0  0  0  0  0  0  0
    7.8525  -12.4295   19.7607 C   0  0  0  0  0  0  0  0  0  0  0  0
    7.8810  -14.7528   20.6166 C   0  0  2  0  0  0  0  0  0  0  0  0
    6.5142  -14.9163   20.2322 N   0  0  0  0  0  0  0  0  0  0  0  0
    8.3028  -15.6359   21.7400 C   0  0  0  0  0  0  0  0  0  0  0  0
    7.3856  -16.0758   22.4837 O   0  0  0  0  0  0  0  0  0  0  0  0
    9.6299  -16.0067   22.0235 N   0  0  0  0  0  0  0  0  0  0  0  0
   10.0208  -17.0244   22.9644 C   0  0  1  0  0  0  0  0  0  0  0  0
   11.3423  -17.6551   22.6870 C   0  0  0  0  0  0  0  0  0  0  0  0
   11.7261  -18.7804   23.5909 C   0  0  0  0  0  0  0  0  0  0  0  0
   13.0316  -19.3488   23.2164 C   0  0  0  0  0  0  0  0  0  0  0  0
   13.4809  -20.3338   23.8333 O   0  0  0  0  0  0  0  0  0  0  0  0
   10.1312  -16.3706   24.3132 C   0  0  0  0  0  0  0  0  0  0  0  0
   10.9132  -15.4031   24.4836 O   0  0  0  0  0  0  0  0  0  0  0  0
   13.7598  -18.7958   22.1853 O   0  0  0  0  0  0  0  0  0  0  0  0
    9.3656  -16.8264   25.4074 N   0  0  0  0  0  0  0  0  0  0  0  0
    9.5457  -16.1959   26.7236 C   0  0  1  0  0  0  0  0  0  0  0  0
    8.2314  -15.7540   27.2717 C   0  0  0  0  0  0  0  0  0  0  0  0
    7.7924  -14.5075   26.6337 C   0  0  0  0  0  0  0  0  0  0  0  0
    8.4615  -13.3286   26.8614 C   0  0  0  0  0  0  0  0  0  0  0  0
    8.0469  -12.1543   26.2539 C   0  0  0  0  0  0  0  0  0  0  0  0
    6.9627  -12.1634   25.4195 C   0  0  0  0  0  0  0  0  0  0  0  0
    6.2607  -13.3350   25.1649 C   0  0  0  0  0  0  0  0  0  0  0  0
    6.7089  -14.4768   25.7902 C   0  0  0  0  0  0  0  0  0  0  0  0
   10.2989  -17.0797   27.6143 C   0  0  0  0  0  0  0  0  0  0  0  0
   10.6057  -16.7424   28.7800 O   0  0  0  0  0  0  0  0  0  0  0  0
   10.6865  -18.3350   27.1506 O   0  0  0  0  0  0  0  0  0  0  0  0
  2  1  1  1
  3  2  1  0
  4  5  1  1
  4  2  1  0
  6  4  1  0
  7  6  2  0
  8  6  1  0
  9  8  1  0
 10 11  1  0
  9 10  1  6
 12 11  1  0
 12 13  2  0
 14  9  1  0
 14 15  2  0
 16 12  1  0
 17 14  1  0
 18 17  1  0
 18 19  1  1
 19 20  1  0
 20 21  2  0
 20 25  1  0
 21 22  1  0
 22 23  2  0
 24 23  1  0
 25 24  2  0
 26 18  1  0
 27 26  2  0
 28 26  1  0
M  END
$$$$
