VEF.pdb
     RDKit          3D

 28 28  0  0  1  0  0  0  0  0999 V2000
    7.6512  -12.8435   22.1501 C   0  0  0  0  0  0  0  0  0  0  0  0
    8.3578  -13.2657   20.8828 C   0  0  2  0  0  0  0  0  0  0  0  0
    7.9927  -12.3529   19.7322 C   0  0  0  0  0  0  0  0  0  0  0  0
    7.9904  -14.6922   20.5439 C   0  0  2  0  0  0  0  0  0  0  0  0
    6.6236  -14.7560   20.1315 N   0  0  0  0  0  0  0  0  0  0  0  0
    8.3214  -15.5953   21.6817 C   0  0  0  0  0  0  0  0  0  0  0  0
    7.3549  -15.9810   22.3923 O   0  0  0  0  0  0  0  0  0  0  0  0
    9.6144  -16.0398   22.0125 N   0  0  0  0  0  0  0  0  0  0  0  0
    9.9158  -17.0452   22.9985 C   0  0  1  0  0  0  0  0  0  0  0  0
   11.1748  -17.8034   22.7507 C   0  0  0  0  0  0  0  0  0  0  0  0
   11.2467  -18.5330   21.4495 C   0  0  0  0  0  0  0  0  0  0  0  0
   12.4980  -19.3000   21.3323 C   0  0  0  0  0  0  0  0  0  0  0  0
   13.2614  -19.1007   20.3678 O   0  0  0  0  0  0  0  0  0  0  0  0
   10.0888  -16.3441   24.3166 C   0  0  0  0  0  0  0  0  0  0  0  0
   10.9254  -15.4148   24.4324 O   0  0  0  0  0  0  0  0  0  0  0  0
   12.8292  -20.2387   22.2855 O   0  0  0  0  0  0  0  0  0  0  0  0
    9.3219  -16.7121   25.4425 N   0  0  0  0  0  0  0  0  0  0  0  0
    9.5370  -16.0139   26.7187 C   0  0  1  0  0  0  0  0  0  0  0  0
    8.2304  -15.6482   27.3369 C   0  0  0  0  0  0  0  0  0  0  0  0
    7.6818  -14.4355   26.7187 C   0  0  0  0  0  0  0  0  0  0  0  0
    8.3366  -13.2322   26.8314 C   0  0  0  0  0  0  0  0  0  0  0  0
    7.8181  -12.0900   26.2428 C   0  0  0  0  0  0  0  0  0  0  0  0
    6.6445  -12.1557   25.5425 C   0  0  0  0  0  0  0  0  0  0  0  0
    5.9539  -13.3535   25.4068 C   0  0  0  0  0  0  0  0  0  0  0  0
    6.5068  -14.4617   26.0082 C   0  0  0  0  0  0  0  0  0  0  0  0
   10.4119  -16.8000   27.5896 C   0  0  0  0  0  0  0  0  0  0  0  0
   10.7446  -17.9740   27.3109 O   0  0  0  0  0  0  0  0  0  0  0  0
   10.8890  -16.2241   28.7650 O   0  0  0  0  0  0  0  0  0  0  0  0
  2  1  1  1
  3  2  1  0
  4  5  1  1
  4  2  1  0
  6  4  1  0
  7  6  2  0
  8  6  1  0
  9  8  1  0
 10 11  1  0
  9 10  1  6
 12 11  1  0
 12 13  2  0
 14  9  1  0
 14 15  2  0
 16 12  1  0
 17 14  1  0
 18 17  1  0
 18 19  1  1
 19 20  1  0
 20 21  2  0
 20 25  1  0
 21 22  1  0
 22 23  2  0
 24 23  1  0
 25 24  2  0
 26 18  1  0
 27 26  2  0
 28 26  1  0
M  END
$$$$
