VEF.pdb
     RDKit          3D

 28 28  0  0  1  0  0  0  0  0999 V2000
    6.8143  -13.2306   21.7769 C   0  0  0  0  0  0  0  0  0  0  0  0
    7.8461  -13.2893   20.6743 C   0  0  2  0  0  0  0  0  0  0  0  0
    7.5191  -12.3001   19.5766 C   0  0  0  0  0  0  0  0  0  0  0  0
    7.9063  -14.6881   20.1048 C   0  0  2  0  0  0  0  0  0  0  0  0
    6.6884  -14.9849   19.4185 N   0  0  0  0  0  0  0  0  0  0  0  0
    8.2520  -15.6668   21.1736 C   0  0  0  0  0  0  0  0  0  0  0  0
    7.2916  -16.3015   21.6862 O   0  0  0  0  0  0  0  0  0  0  0  0
    9.5525  -15.9276   21.6422 N   0  0  0  0  0  0  0  0  0  0  0  0
    9.8912  -16.9154   22.6339 C   0  0  1  0  0  0  0  0  0  0  0  0
   11.2560  -17.4974   22.4930 C   0  0  0  0  0  0  0  0  0  0  0  0
   11.4422  -18.4449   21.3536 C   0  0  0  0  0  0  0  0  0  0  0  0
   12.6581  -18.1292   20.5857 C   0  0  0  0  0  0  0  0  0  0  0  0
   13.7560  -18.6020   20.9376 O   0  0  0  0  0  0  0  0  0  0  0  0
    9.8491  -16.2384   23.9750 C   0  0  0  0  0  0  0  0  0  0  0  0
    9.7281  -14.9907   24.0488 O   0  0  0  0  0  0  0  0  0  0  0  0
   12.5874  -17.3120   19.4781 O   0  0  0  0  0  0  0  0  0  0  0  0
    9.9442  -16.9836   25.1695 N   0  0  0  0  0  0  0  0  0  0  0  0
    9.3195  -16.4622   26.3943 C   0  0  1  0  0  0  0  0  0  0  0  0
    7.8785  -16.1631   26.1553 C   0  0  0  0  0  0  0  0  0  0  0  0
    7.6268  -14.7190   26.2249 C   0  0  0  0  0  0  0  0  0  0  0  0
    8.3923  -13.9109   27.0313 C   0  0  0  0  0  0  0  0  0  0  0  0
    8.1547  -12.5472   27.0914 C   0  0  0  0  0  0  0  0  0  0  0  0
    7.1506  -11.9957   26.3433 C   0  0  0  0  0  0  0  0  0  0  0  0
    6.3557  -12.7798   25.5167 C   0  0  0  0  0  0  0  0  0  0  0  0
    6.6283  -14.1290   25.4892 C   0  0  0  0  0  0  0  0  0  0  0  0
    9.5644  -17.3679   27.5176 C   0  0  0  0  0  0  0  0  0  0  0  0
    9.2936  -17.0500   28.6975 O   0  0  0  0  0  0  0  0  0  0  0  0
   10.1159  -18.6223   27.2659 O   0  0  0  0  0  0  0  0  0  0  0  0
  2  1  1  1
  3  2  1  0
  4  5  1  1
  4  2  1  0
  6  4  1  0
  7  6  2  0
  8  6  1  0
  9  8  1  0
 10 11  1  0
  9 10  1  6
 12 11  1  0
 12 13  2  0
 14  9  1  0
 14 15  2  0
 16 12  1  0
 17 14  1  0
 18 17  1  0
 18 19  1  6
 19 20  1  0
 20 21  2  0
 20 25  1  0
 21 22  1  0
 22 23  2  0
 24 23  1  0
 25 24  2  0
 26 18  1  0
 27 26  2  0
 28 26  1  0
M  END
$$$$
