VEF.pdb
     RDKit          3D

 28 28  0  0  1  0  0  0  0  0999 V2000
    6.9221  -13.2920   21.5021 C   0  0  0  0  0  0  0  0  0  0  0  0
    8.1621  -13.1380   20.6523 C   0  0  2  0  0  0  0  0  0  0  0  0
    7.9764  -12.0471   19.6200 C   0  0  0  0  0  0  0  0  0  0  0  0
    8.4769  -14.4474   19.9658 C   0  0  2  0  0  0  0  0  0  0  0  0
    7.4568  -14.7523   19.0124 N   0  0  0  0  0  0  0  0  0  0  0  0
    8.7006  -15.5196   20.9756 C   0  0  0  0  0  0  0  0  0  0  0  0
    7.7366  -16.3035   21.1858 O   0  0  0  0  0  0  0  0  0  0  0  0
    9.8917  -15.7151   21.6982 N   0  0  0  0  0  0  0  0  0  0  0  0
   10.1600  -16.8355   22.5621 C   0  0  1  0  0  0  0  0  0  0  0  0
   11.5082  -17.4469   22.3893 C   0  0  0  0  0  0  0  0  0  0  0  0
   11.9210  -17.7186   20.9799 C   0  0  0  0  0  0  0  0  0  0  0  0
   13.2589  -18.3303   20.9206 C   0  0  0  0  0  0  0  0  0  0  0  0
   13.5609  -19.2431   21.7132 O   0  0  0  0  0  0  0  0  0  0  0  0
   10.0926  -16.3369   23.9784 C   0  0  0  0  0  0  0  0  0  0  0  0
   10.7976  -15.3623   24.3388 O   0  0  0  0  0  0  0  0  0  0  0  0
   14.1799  -17.8973   19.9912 O   0  0  0  0  0  0  0  0  0  0  0  0
    9.2435  -16.9482   24.9252 N   0  0  0  0  0  0  0  0  0  0  0  0
    9.2297  -16.4479   26.3079 C   0  0  1  0  0  0  0  0  0  0  0  0
    7.8331  -16.1545   26.7399 C   0  0  0  0  0  0  0  0  0  0  0  0
    7.4867  -14.7543   26.4699 C   0  0  0  0  0  0  0  0  0  0  0  0
    6.2651  -14.4242   25.9331 C   0  0  0  0  0  0  0  0  0  0  0  0
    5.9395  -13.1007   25.6834 C   0  0  0  0  0  0  0  0  0  0  0  0
    6.8385  -12.1106   25.9721 C   0  0  0  0  0  0  0  0  0  0  0  0
    8.0829  -12.4047   26.5152 C   0  0  0  0  0  0  0  0  0  0  0  0
    8.3624  -13.7329   26.7461 C   0  0  0  0  0  0  0  0  0  0  0  0
    9.9485  -17.3676   27.1908 C   0  0  0  0  0  0  0  0  0  0  0  0
   10.3613  -18.4809   26.7950 O   0  0  0  0  0  0  0  0  0  0  0  0
   10.1802  -16.9925   28.5123 O   0  0  0  0  0  0  0  0  0  0  0  0
  2  1  1  6
  3  2  1  0
  4  5  1  6
  4  2  1  0
  6  4  1  0
  7  6  2  0
  8  6  1  0
  9  8  1  0
 10 11  1  0
  9 10  1  6
 12 11  1  0
 12 13  2  0
 14  9  1  0
 14 15  2  0
 16 12  1  0
 17 14  1  0
 18 17  1  0
 18 19  1  1
 19 20  1  0
 20 21  2  0
 20 25  1  0
 21 22  1  0
 22 23  2  0
 24 23  1  0
 25 24  2  0
 26 18  1  0
 27 26  2  0
 28 26  1  0
M  END
$$$$
