VEF.pdb
     RDKit          3D

 28 28  0  0  1  0  0  0  0  0999 V2000
    7.6208  -13.2440   20.4071 C   0  0  0  0  0  0  0  0  0  0  0  0
    8.7305  -13.4869   19.4104 C   0  0  2  0  0  0  0  0  0  0  0  0
    8.5884  -12.5736   18.2120 C   0  0  0  0  0  0  0  0  0  0  0  0
    8.7081  -14.9303   18.9624 C   0  0  2  0  0  0  0  0  0  0  0  0
    7.5428  -15.1744   18.1717 N   0  0  0  0  0  0  0  0  0  0  0  0
    8.8433  -15.8379   20.1361 C   0  0  0  0  0  0  0  0  0  0  0  0
    7.7710  -16.2338   20.6666 O   0  0  0  0  0  0  0  0  0  0  0  0
   10.0626  -16.2762   20.6839 N   0  0  0  0  0  0  0  0  0  0  0  0
   10.1910  -17.1556   21.8170 C   0  0  1  0  0  0  0  0  0  0  0  0
   11.5161  -17.8271   21.9377 C   0  0  0  0  0  0  0  0  0  0  0  0
   11.6781  -18.7351   23.1124 C   0  0  0  0  0  0  0  0  0  0  0  0
   13.0100  -19.3625   23.1267 C   0  0  0  0  0  0  0  0  0  0  0  0
   13.8658  -18.9861   23.9504 O   0  0  0  0  0  0  0  0  0  0  0  0
   10.0177  -16.3213   23.0551 C   0  0  0  0  0  0  0  0  0  0  0  0
   10.6488  -15.2434   23.1834 O   0  0  0  0  0  0  0  0  0  0  0  0
   13.3149  -20.3654   22.2319 O   0  0  0  0  0  0  0  0  0  0  0  0
    9.1501  -16.7282   24.0909 N   0  0  0  0  0  0  0  0  0  0  0  0
    8.7516  -15.7553   25.1191 C   0  0  1  0  0  0  0  0  0  0  0  0
    7.8089  -14.7519   24.5469 C   0  0  0  0  0  0  0  0  0  0  0  0
    7.3872  -13.7888   25.5708 C   0  0  0  0  0  0  0  0  0  0  0  0
    6.1288  -13.8538   26.1200 C   0  0  0  0  0  0  0  0  0  0  0  0
    5.7354  -12.9456   27.0896 C   0  0  0  0  0  0  0  0  0  0  0  0
    6.6035  -11.9740   27.5071 C   0  0  0  0  0  0  0  0  0  0  0  0
    7.8834  -11.8762   26.9757 C   0  0  0  0  0  0  0  0  0  0  0  0
    8.2302  -12.7998   26.0153 C   0  0  0  0  0  0  0  0  0  0  0  0
    8.2433  -16.4456   26.3053 C   0  0  0  0  0  0  0  0  0  0  0  0
    8.5188  -16.0631   27.4648 O   0  0  0  0  0  0  0  0  0  0  0  0
    7.4278  -17.5629   26.1389 O   0  0  0  0  0  0  0  0  0  0  0  0
  2  1  1  1
  3  2  1  0
  4  5  1  1
  4  2  1  0
  6  4  1  0
  7  6  2  0
  8  6  1  0
  9  8  1  0
 10 11  1  0
  9 10  1  1
 12 11  1  0
 12 13  2  0
 14  9  1  0
 14 15  2  0
 16 12  1  0
 17 14  1  0
 18 17  1  0
 18 19  1  6
 19 20  1  0
 20 21  2  0
 20 25  1  0
 21 22  1  0
 22 23  2  0
 24 23  1  0
 25 24  2  0
 26 18  1  0
 27 26  2  0
 28 26  1  0
M  END
$$$$
