VEF.pdb
     RDKit          3D

 28 28  0  0  1  0  0  0  0  0999 V2000
    7.7837  -12.5313   18.7772 C   0  0  0  0  0  0  0  0  0  0  0  0
    7.8045  -13.4137   20.0038 C   0  0  2  0  0  0  0  0  0  0  0  0
    8.6181  -12.7791   21.1109 C   0  0  0  0  0  0  0  0  0  0  0  0
    8.3820  -14.7653   19.6512 C   0  0  2  0  0  0  0  0  0  0  0  0
    7.7136  -15.2937   18.5038 N   0  0  0  0  0  0  0  0  0  0  0  0
    8.3506  -15.6662   20.8374 C   0  0  0  0  0  0  0  0  0  0  0  0
    7.4878  -16.5845   20.8228 O   0  0  0  0  0  0  0  0  0  0  0  0
    9.2016  -15.5653   21.9530 N   0  0  0  0  0  0  0  0  0  0  0  0
    9.8289  -16.6783   22.6174 C   0  0  1  0  0  0  0  0  0  0  0  0
   10.8555  -17.3910   21.8052 C   0  0  0  0  0  0  0  0  0  0  0  0
   11.4821  -18.5821   22.4527 C   0  0  0  0  0  0  0  0  0  0  0  0
   12.4733  -19.2154   21.5672 C   0  0  0  0  0  0  0  0  0  0  0  0
   12.1037  -20.0408   20.7100 O   0  0  0  0  0  0  0  0  0  0  0  0
   10.5377  -16.1377   23.8275 C   0  0  0  0  0  0  0  0  0  0  0  0
   11.6789  -16.5633   24.1333 O   0  0  0  0  0  0  0  0  0  0  0  0
   13.8098  -18.8991   21.6823 O   0  0  0  0  0  0  0  0  0  0  0  0
    9.9412  -15.1494   24.6390 N   0  0  0  0  0  0  0  0  0  0  0  0
    9.3003  -15.5461   25.9016 C   0  0  1  0  0  0  0  0  0  0  0  0
    7.8171  -15.5577   25.7497 C   0  0  0  0  0  0  0  0  0  0  0  0
    7.2512  -14.2379   26.0522 C   0  0  0  0  0  0  0  0  0  0  0  0
    5.8952  -14.0739   26.2065 C   0  0  0  0  0  0  0  0  0  0  0  0
    5.3645  -12.8272   26.4963 C   0  0  0  0  0  0  0  0  0  0  0  0
    6.1936  -11.7472   26.6310 C   0  0  0  0  0  0  0  0  0  0  0  0
    7.5691  -11.8731   26.4822 C   0  0  0  0  0  0  0  0  0  0  0  0
    8.0509  -13.1304   26.1948 C   0  0  0  0  0  0  0  0  0  0  0  0
    9.8622  -16.8081   26.3849 C   0  0  0  0  0  0  0  0  0  0  0  0
   10.4309  -16.8988   27.4962 O   0  0  0  0  0  0  0  0  0  0  0  0
    9.7613  -17.9432   25.5835 O   0  0  0  0  0  0  0  0  0  0  0  0
  2  1  1  6
  3  2  1  0
  4  5  1  6
  4  2  1  0
  6  4  1  0
  7  6  2  0
  8  6  1  0
  9  8  1  0
 10 11  1  0
  9 10  1  6
 12 11  1  0
 12 13  2  0
 14  9  1  0
 14 15  2  0
 16 12  1  0
 17 14  1  0
 18 17  1  0
 18 19  1  6
 19 20  1  0
 20 21  2  0
 20 25  1  0
 21 22  1  0
 22 23  2  0
 24 23  1  0
 25 24  2  0
 26 18  1  0
 27 26  2  0
 28 26  1  0
M  END
$$$$
