VEF.pdb
     RDKit          3D

 28 28  0  0  1  0  0  0  0  0999 V2000
    7.3688  -14.7060   19.0583 C   0  0  0  0  0  0  0  0  0  0  0  0
    7.3537  -13.3843   19.7907 C   0  0  2  0  0  0  0  0  0  0  0  0
    7.5022  -12.2300   18.8234 C   0  0  0  0  0  0  0  0  0  0  0  0
    8.4721  -13.3506   20.8071 C   0  0  2  0  0  0  0  0  0  0  0  0
    9.7092  -13.0521   20.1569 N   0  0  0  0  0  0  0  0  0  0  0  0
    8.4928  -14.6150   21.5948 C   0  0  0  0  0  0  0  0  0  0  0  0
    7.4053  -14.9627   22.1281 O   0  0  0  0  0  0  0  0  0  0  0  0
    9.6214  -15.4338   21.7814 N   0  0  0  0  0  0  0  0  0  0  0  0
    9.6400  -16.6541   22.5457 C   0  0  1  0  0  0  0  0  0  0  0  0
   10.7803  -17.5637   22.2399 C   0  0  0  0  0  0  0  0  0  0  0  0
   10.8245  -18.8342   23.0239 C   0  0  0  0  0  0  0  0  0  0  0  0
   10.9598  -20.0052   22.1419 C   0  0  0  0  0  0  0  0  0  0  0  0
   10.3197  -21.0458   22.3873 O   0  0  0  0  0  0  0  0  0  0  0  0
    9.7693  -16.2750   23.9943 C   0  0  0  0  0  0  0  0  0  0  0  0
   10.6923  -15.5091   24.3665 O   0  0  0  0  0  0  0  0  0  0  0  0
   11.7922  -19.9557   21.0446 O   0  0  0  0  0  0  0  0  0  0  0  0
    8.8647  -16.7674   24.9588 N   0  0  0  0  0  0  0  0  0  0  0  0
    9.0888  -16.4588   26.3789 C   0  0  1  0  0  0  0  0  0  0  0  0
    7.8160  -16.0247   27.0230 C   0  0  0  0  0  0  0  0  0  0  0  0
    7.5030  -14.6338   26.6750 C   0  0  0  0  0  0  0  0  0  0  0  0
    6.3127  -14.3130   26.0670 C   0  0  0  0  0  0  0  0  0  0  0  0
    6.0184  -12.9982   25.7436 C   0  0  0  0  0  0  0  0  0  0  0  0
    6.9174  -12.0073   26.0301 C   0  0  0  0  0  0  0  0  0  0  0  0
    8.1308  -12.2923   26.6438 C   0  0  0  0  0  0  0  0  0  0  0  0
    8.3797  -13.6121   26.9464 C   0  0  0  0  0  0  0  0  0  0  0  0
    9.7451  -17.5827   27.0482 C   0  0  0  0  0  0  0  0  0  0  0  0
    9.9532  -18.6715   26.4670 O   0  0  0  0  0  0  0  0  0  0  0  0
   10.1507  -17.4364   28.3731 O   0  0  0  0  0  0  0  0  0  0  0  0
  2  1  1  6
  3  2  1  0
  4  5  1  6
  4  2  1  0
  6  4  1  0
  7  6  2  0
  8  6  1  0
  9  8  1  0
 10 11  1  0
  9 10  1  6
 12 11  1  0
 12 13  2  0
 14  9  1  0
 14 15  2  0
 16 12  1  0
 17 14  1  0
 18 17  1  0
 18 19  1  1
 19 20  1  0
 20 21  2  0
 20 25  1  0
 21 22  1  0
 22 23  2  0
 24 23  1  0
 25 24  2  0
 26 18  1  0
 27 26  2  0
 28 26  1  0
M  END
$$$$
