VEF.pdb
     RDKit          3D

 28 28  0  0  1  0  0  0  0  0999 V2000
    6.9137  -13.0271   21.4563 C   0  0  0  0  0  0  0  0  0  0  0  0
    8.1419  -13.1589   20.5857 C   0  0  2  0  0  0  0  0  0  0  0  0
    8.1291  -12.1301   19.4758 C   0  0  0  0  0  0  0  0  0  0  0  0
    8.2039  -14.5497   19.9969 C   0  0  2  0  0  0  0  0  0  0  0  0
    7.0671  -14.7731   19.1602 N   0  0  0  0  0  0  0  0  0  0  0  0
    8.3671  -15.5617   21.0781 C   0  0  0  0  0  0  0  0  0  0  0  0
    7.3511  -16.2520   21.3595 O   0  0  0  0  0  0  0  0  0  0  0  0
    9.5550  -15.7967   21.7941 N   0  0  0  0  0  0  0  0  0  0  0  0
    9.7845  -16.9165   22.6698 C   0  0  1  0  0  0  0  0  0  0  0  0
   11.0573  -17.6512   22.4217 C   0  0  0  0  0  0  0  0  0  0  0  0
   11.1628  -18.3367   21.0990 C   0  0  0  0  0  0  0  0  0  0  0  0
   12.3866  -19.1508   21.0122 C   0  0  0  0  0  0  0  0  0  0  0  0
   12.6827  -19.7160   19.9418 O   0  0  0  0  0  0  0  0  0  0  0  0
    9.8635  -16.3814   24.0721 C   0  0  0  0  0  0  0  0  0  0  0  0
   10.7105  -15.5020   24.3654 O   0  0  0  0  0  0  0  0  0  0  0  0
   13.2070  -19.2908   22.1107 O   0  0  0  0  0  0  0  0  0  0  0  0
    8.9956  -16.8520   25.0803 N   0  0  0  0  0  0  0  0  0  0  0  0
    9.1725  -16.3773   26.4608 C   0  0  1  0  0  0  0  0  0  0  0  0
    7.8562  -16.0074   27.0553 C   0  0  0  0  0  0  0  0  0  0  0  0
    7.4436  -14.6688   26.6176 C   0  0  0  0  0  0  0  0  0  0  0  0
    6.2432  -14.4790   25.9752 C   0  0  0  0  0  0  0  0  0  0  0  0
    5.8547  -13.2132   25.5671 C   0  0  0  0  0  0  0  0  0  0  0  0
    6.6697  -12.1399   25.8034 C   0  0  0  0  0  0  0  0  0  0  0  0
    7.8902  -12.2918   26.4495 C   0  0  0  0  0  0  0  0  0  0  0  0
    8.2343  -13.5674   26.8367 C   0  0  0  0  0  0  0  0  0  0  0  0
    9.9292  -17.3552   27.2438 C   0  0  0  0  0  0  0  0  0  0  0  0
   10.2079  -18.4906   26.7969 O   0  0  0  0  0  0  0  0  0  0  0  0
   10.3521  -17.0119   28.5262 O   0  0  0  0  0  0  0  0  0  0  0  0
  2  1  1  6
  3  2  1  0
  4  5  1  1
  4  2  1  0
  6  4  1  0
  7  6  2  0
  8  6  1  0
  9  8  1  0
 10 11  1  0
  9 10  1  6
 12 11  1  0
 12 13  2  0
 14  9  1  0
 14 15  2  0
 16 12  1  0
 17 14  1  0
 18 17  1  0
 18 19  1  1
 19 20  1  0
 20 21  2  0
 20 25  1  0
 21 22  1  0
 22 23  2  0
 24 23  1  0
 25 24  2  0
 26 18  1  0
 27 26  2  0
 28 26  1  0
M  END
$$$$
