VEF.pdb
     RDKit          3D

 28 28  0  0  1  0  0  0  0  0999 V2000
    7.2877  -13.0259   21.8900 C   0  0  0  0  0  0  0  0  0  0  0  0
    8.3073  -13.2438   20.7961 C   0  0  2  0  0  0  0  0  0  0  0  0
    8.0892  -12.2743   19.6547 C   0  0  0  0  0  0  0  0  0  0  0  0
    8.2162  -14.6646   20.2885 C   0  0  2  0  0  0  0  0  0  0  0  0
    7.0011  -14.8412   19.5572 N   0  0  0  0  0  0  0  0  0  0  0  0
    8.3909  -15.6271   21.4122 C   0  0  0  0  0  0  0  0  0  0  0  0
    7.3526  -16.2191   21.8114 O   0  0  0  0  0  0  0  0  0  0  0  0
    9.6122  -15.9163   22.0476 N   0  0  0  0  0  0  0  0  0  0  0  0
    9.8269  -16.9995   22.9719 C   0  0  1  0  0  0  0  0  0  0  0  0
   11.0360  -17.8255   22.6940 C   0  0  0  0  0  0  0  0  0  0  0  0
   10.9846  -18.6525   21.4514 C   0  0  0  0  0  0  0  0  0  0  0  0
   12.3359  -19.0010   20.9820 C   0  0  0  0  0  0  0  0  0  0  0  0
   12.5950  -18.9820   19.7633 O   0  0  0  0  0  0  0  0  0  0  0  0
   10.0228  -16.3955   24.3341 C   0  0  0  0  0  0  0  0  0  0  0  0
   10.8871  -15.5018   24.5100 O   0  0  0  0  0  0  0  0  0  0  0  0
   13.3168  -19.3487   21.8856 O   0  0  0  0  0  0  0  0  0  0  0  0
    9.2469  -16.8165   25.4350 N   0  0  0  0  0  0  0  0  0  0  0  0
    9.5680  -16.3092   26.7773 C   0  0  1  0  0  0  0  0  0  0  0  0
    8.3350  -15.8140   27.4538 C   0  0  0  0  0  0  0  0  0  0  0  0
    7.8661  -14.5677   26.8371 C   0  0  0  0  0  0  0  0  0  0  0  0
    8.5072  -13.3773   27.0845 C   0  0  0  0  0  0  0  0  0  0  0  0
    8.0645  -12.2030   26.4972 C   0  0  0  0  0  0  0  0  0  0  0  0
    6.9801  -12.2238   25.6630 C   0  0  0  0  0  0  0  0  0  0  0  0
    6.3060  -13.4072   25.3888 C   0  0  0  0  0  0  0  0  0  0  0  0
    6.7816  -14.5485   25.9946 C   0  0  0  0  0  0  0  0  0  0  0  0
   10.3060  -17.3164   27.5406 C   0  0  0  0  0  0  0  0  0  0  0  0
   10.5084  -18.4690   27.0965 O   0  0  0  0  0  0  0  0  0  0  0  0
   10.7983  -16.9823   28.8004 O   0  0  0  0  0  0  0  0  0  0  0  0
  2  1  1  1
  3  2  1  0
  4  5  1  1
  4  2  1  0
  6  4  1  0
  7  6  2  0
  8  6  1  0
  9  8  1  0
 10 11  1  0
  9 10  1  6
 12 11  1  0
 12 13  2  0
 14  9  1  0
 14 15  2  0
 16 12  1  0
 17 14  1  0
 18 17  1  0
 18 19  1  1
 19 20  1  0
 20 21  2  0
 20 25  1  0
 21 22  1  0
 22 23  2  0
 24 23  1  0
 25 24  2  0
 26 18  1  0
 27 26  2  0
 28 26  1  0
M  END
$$$$
