SRI.pdb
     RDKit          3D

 26 25  0  0  1  0  0  0  0  0999 V2000
   25.2623  -21.9550  -16.1481 O   0  0  0  0  0  0  0  0  0  0  0  0
   26.3799  -21.3567  -16.7061 C   0  0  0  0  0  0  0  0  0  0  0  0
   27.5422  -22.2985  -16.5505 C   0  0  2  0  0  0  0  0  0  0  0  0
   28.8048  -21.7086  -16.9312 N   0  0  0  0  0  0  0  0  0  0  0  0
   27.3201  -23.5147  -17.3490 C   0  0  0  0  0  0  0  0  0  0  0  0
   27.5964  -23.5979  -18.5780 O   0  0  0  0  0  0  0  0  0  0  0  0
   29.5682  -31.5623  -16.9831 N   0  0  0  0  0  0  0  0  0  0  0  0
   28.4196  -30.9901  -16.3289 C   0  0  0  0  0  0  0  0  0  0  0  0
   27.5926  -31.7743  -15.7412 N   0  0  0  0  0  0  0  0  0  0  0  0
   28.2125  -29.5953  -16.3357 N   0  0  0  0  0  0  0  0  0  0  0  0
   29.0054  -28.7344  -17.1573 C   0  0  0  0  0  0  0  0  0  0  0  0
   28.6705  -27.2768  -16.9324 C   0  0  0  0  0  0  0  0  0  0  0  0
   27.1978  -27.0938  -16.6791 C   0  0  0  0  0  0  0  0  0  0  0  0
   26.6257  -25.9368  -17.3698 C   0  0  2  0  0  0  0  0  0  0  0  0
   26.7752  -24.6630  -16.7570 N   0  0  0  0  0  0  0  0  0  0  0  0
   25.1615  -26.1907  -17.5453 C   0  0  0  0  0  0  0  0  0  0  0  0
   24.3903  -25.8816  -16.6150 O   0  0  0  0  0  0  0  0  0  0  0  0
   26.7779  -31.4073  -15.2370 C   0  0  0  0  0  0  0  0  0  0  0  0
   23.0584  -25.3234  -22.4045 C   0  0  0  0  0  0  0  0  0  0  0  0
   23.3130  -25.4988  -20.9619 C   0  0  2  0  0  0  0  0  0  0  0  0
   22.8874  -26.7499  -20.2987 C   0  0  0  0  0  0  0  0  0  0  0  0
   21.4281  -27.0567  -20.6479 C   0  0  2  0  0  0  0  0  0  0  0  0
   23.1902  -26.9704  -18.8749 N   0  0  0  0  0  0  0  0  0  0  0  0
   24.6417  -26.7625  -18.7211 C   0  0  0  0  0  0  0  0  0  0  0  0
   22.8244  -28.1954  -18.2148 O   0  0  0  0  0  0  0  0  0  0  0  0
   21.6096  -28.2188  -17.4735 O   0  0  0  0  0  0  0  0  0  0  0  0
  2  1  1  0
  3  2  1  0
  3  4  1  6
  5  3  1  0
  5  6  2  0
  7  8  1  0
  8 10  1  0
  9  8  2  0
 10 11  1  0
 11 12  1  0
 12 13  1  0
 14 13  1  1
 14 15  1  0
 15  5  1  0
 16 14  1  0
 17 16  2  0
 19 18  1  0
 20 19  1  0
 20 22  1  0
 20 21  1  6
 22 24  1  0
 22 23  1  1
 23 16  1  0
 24 25  1  0
 26 24  2  0
M  END
$$$$
