SRI.pdb
     RDKit          3D

 26 25  0  0  1  0  0  0  0  0999 V2000
   19.8412  -19.0425  -11.5762 O   0  0  0  0  0  0  0  0  0  0  0  0
   19.9320  -19.1912  -12.9502 C   0  0  0  0  0  0  0  0  0  0  0  0
   19.9666  -20.6625  -13.2608 C   0  0  2  0  0  0  0  0  0  0  0  0
   18.8583  -21.3895  -12.6860 N   0  0  0  0  0  0  0  0  0  0  0  0
   21.2275  -21.2523  -12.7832 C   0  0  0  0  0  0  0  0  0  0  0  0
   21.3537  -21.7970  -11.6514 O   0  0  0  0  0  0  0  0  0  0  0  0
   26.4318  -26.7186  -15.7816 N   0  0  0  0  0  0  0  0  0  0  0  0
   25.2687  -26.3973  -16.5682 C   0  0  0  0  0  0  0  0  0  0  0  0
   24.6193  -27.3529  -17.1245 N   0  0  0  0  0  0  0  0  0  0  0  0
   24.8547  -25.0579  -16.7205 N   0  0  0  0  0  0  0  0  0  0  0  0
   25.3742  -24.0238  -15.8804 C   0  0  0  0  0  0  0  0  0  0  0  0
   24.4252  -23.6852  -14.7526 C   0  0  0  0  0  0  0  0  0  0  0  0
   24.4762  -22.2164  -14.4264 C   0  0  0  0  0  0  0  0  0  0  0  0
   23.6233  -21.8387  -13.2981 C   0  0  2  0  0  0  0  0  0  0  0  0
   22.3727  -21.2303  -13.5918 N   0  0  0  0  0  0  0  0  0  0  0  0
   24.4008  -20.8933  -12.4373 C   0  0  0  0  0  0  0  0  0  0  0  0
   24.2521  -19.6681  -12.6177 O   0  0  0  0  0  0  0  0  0  0  0  0
   23.8186  -27.1656  -17.7379 C   0  0  0  0  0  0  0  0  0  0  0  0
   26.5255  -19.6596   -7.0153 C   0  0  0  0  0  0  0  0  0  0  0  0
   26.7500  -19.5675   -8.4706 C   0  0  2  0  0  0  0  0  0  0  0  0
   26.0204  -20.4819   -9.3748 C   0  0  0  0  0  0  0  0  0  0  0  0
   26.0594  -21.9084   -8.8190 C   0  0  2  0  0  0  0  0  0  0  0  0
   26.2591  -20.4302  -10.8267 N   0  0  0  0  0  0  0  0  0  0  0  0
   25.2842  -21.3495  -11.4417 C   0  0  0  0  0  0  0  0  0  0  0  0
   27.5605  -20.6966  -11.3793 O   0  0  0  0  0  0  0  0  0  0  0  0
   27.7477  -21.9133  -12.0938 O   0  0  0  0  0  0  0  0  0  0  0  0
  2  1  1  0
  3  2  1  0
  3  4  1  1
  5  3  1  0
  5  6  2  0
  7  8  1  0
  8 10  1  0
  9  8  2  0
 10 11  1  0
 11 12  1  0
 12 13  1  0
 14 13  1  6
 14 15  1  0
 15  5  1  0
 16 14  1  0
 17 16  2  0
 19 18  1  0
 20 19  1  0
 20 22  1  0
 20 21  1  6
 22 24  1  0
 22 23  1  6
 23 16  1  0
 24 25  1  0
 26 24  2  0
M  END
$$$$
