SRI.pdb
     RDKit          3D

 26 25  0  0  1  0  0  0  0  0999 V2000
   23.9077  -17.8323  -16.3632 O   0  0  0  0  0  0  0  0  0  0  0  0
   24.1072  -18.4722  -17.5752 C   0  0  0  0  0  0  0  0  0  0  0  0
   23.1637  -19.6413  -17.6487 C   0  0  2  0  0  0  0  0  0  0  0  0
   21.8119  -19.2586  -17.9853 N   0  0  0  0  0  0  0  0  0  0  0  0
   23.1531  -20.3658  -16.3676 C   0  0  0  0  0  0  0  0  0  0  0  0
   22.2820  -20.1805  -15.4730 O   0  0  0  0  0  0  0  0  0  0  0  0
   26.5799  -24.8285  -18.6996 N   0  0  0  0  0  0  0  0  0  0  0  0
   27.3186  -24.8238  -17.4631 C   0  0  0  0  0  0  0  0  0  0  0  0
   28.5512  -24.4709  -17.4845 N   0  0  0  0  0  0  0  0  0  0  0  0
   26.6955  -25.1993  -16.2551 N   0  0  0  0  0  0  0  0  0  0  0  0
   25.3172  -25.5787  -16.2214 C   0  0  0  0  0  0  0  0  0  0  0  0
   24.4076  -24.3806  -16.0644 C   0  0  0  0  0  0  0  0  0  0  0  0
   24.9634  -23.4086  -15.0582 C   0  0  0  0  0  0  0  0  0  0  0  0
   24.1856  -22.1733  -14.9479 C   0  0  2  0  0  0  0  0  0  0  0  0
   24.1415  -21.3185  -16.0827 N   0  0  0  0  0  0  0  0  0  0  0  0
   24.7429  -21.3861  -13.8038 C   0  0  0  0  0  0  0  0  0  0  0  0
   25.6401  -20.5522  -14.0390 O   0  0  0  0  0  0  0  0  0  0  0  0
   29.1013  -24.4066  -16.6209 C   0  0  0  0  0  0  0  0  0  0  0  0
   21.4913  -19.6198   -9.9054 C   0  0  0  0  0  0  0  0  0  0  0  0
   22.6022  -19.8156  -10.8564 C   0  0  2  0  0  0  0  0  0  0  0  0
   23.8153  -20.5358  -10.4139 C   0  0  0  0  0  0  0  0  0  0  0  0
   24.3284  -19.9382   -9.1004 C   0  0  2  0  0  0  0  0  0  0  0  0
   24.8972  -20.8173  -11.3718 N   0  0  0  0  0  0  0  0  0  0  0  0
   24.2832  -21.5628  -12.4858 C   0  0  0  0  0  0  0  0  0  0  0  0
   26.0974  -21.4978  -10.9639 O   0  0  0  0  0  0  0  0  0  0  0  0
   27.1767  -20.7124  -10.4696 O   0  0  0  0  0  0  0  0  0  0  0  0
  2  1  1  0
  3  2  1  0
  3  4  1  1
  5  3  1  0
  5  6  2  0
  7  8  1  0
  8 10  1  0
  9  8  2  0
 10 11  1  0
 11 12  1  0
 12 13  1  0
 14 13  1  6
 14 15  1  0
 15  5  1  0
 16 14  1  0
 17 16  2  0
 19 18  1  0
 20 19  1  0
 20 22  1  0
 20 21  1  1
 22 24  1  0
 22 23  1  6
 23 16  1  0
 24 25  1  0
 26 24  2  0
M  END
$$$$
