SRI.pdb
     RDKit          3D

 26 25  0  0  1  0  0  0  0  0999 V2000
   26.3989  -18.2514  -17.9634 O   0  0  0  0  0  0  0  0  0  0  0  0
   25.5298  -18.7630  -17.0141 C   0  0  0  0  0  0  0  0  0  0  0  0
   26.1706  -19.9762  -16.3978 C   0  0  2  0  0  0  0  0  0  0  0  0
   26.6134  -20.9423  -17.3764 N   0  0  0  0  0  0  0  0  0  0  0  0
   25.2334  -20.6282  -15.4689 C   0  0  0  0  0  0  0  0  0  0  0  0
   24.2314  -21.2954  -15.8490 O   0  0  0  0  0  0  0  0  0  0  0  0
   29.8240  -21.0381  -10.0834 N   0  0  0  0  0  0  0  0  0  0  0  0
   29.1620  -20.5734  -11.2752 C   0  0  0  0  0  0  0  0  0  0  0  0
   29.8200  -19.8440  -12.0994 N   0  0  0  0  0  0  0  0  0  0  0  0
   27.8178  -20.9164  -11.5279 N   0  0  0  0  0  0  0  0  0  0  0  0
   27.1757  -21.9704  -10.8056 C   0  0  0  0  0  0  0  0  0  0  0  0
   25.8195  -22.3050  -11.3855 C   0  0  0  0  0  0  0  0  0  0  0  0
   25.0436  -21.0541  -11.7013 C   0  0  0  0  0  0  0  0  0  0  0  0
   24.5425  -21.0091  -13.0759 C   0  0  2  0  0  0  0  0  0  0  0  0
   25.4231  -20.5293  -14.0833 N   0  0  0  0  0  0  0  0  0  0  0  0
   23.3215  -20.1440  -13.0863 C   0  0  0  0  0  0  0  0  0  0  0  0
   23.4208  -18.9729  -12.6688 O   0  0  0  0  0  0  0  0  0  0  0  0
   29.3841  -19.4817  -12.9546 C   0  0  0  0  0  0  0  0  0  0  0  0
   19.2491  -17.8159  -16.4034 C   0  0  0  0  0  0  0  0  0  0  0  0
   19.4789  -18.3412  -15.0440 C   0  0  2  0  0  0  0  0  0  0  0  0
   20.6511  -19.2061  -14.7907 C   0  0  0  0  0  0  0  0  0  0  0  0
   20.7823  -20.2486  -15.9049 C   0  0  2  0  0  0  0  0  0  0  0  0
   20.8736  -19.7742  -13.4509 N   0  0  0  0  0  0  0  0  0  0  0  0
   22.0799  -20.6159  -13.5508 C   0  0  0  0  0  0  0  0  0  0  0  0
   19.8439  -20.5175  -12.7747 O   0  0  0  0  0  0  0  0  0  0  0  0
   20.0240  -21.9210  -12.6199 O   0  0  0  0  0  0  0  0  0  0  0  0
  2  1  1  0
  3  2  1  0
  3  4  1  6
  5  3  1  0
  5  6  2  0
  7  8  1  0
  8 10  1  0
  9  8  2  0
 10 11  1  0
 11 12  1  0
 12 13  1  0
 14 13  1  1
 14 15  1  0
 15  5  1  0
 16 14  1  0
 17 16  2  0
 19 18  1  0
 20 19  1  0
 20 22  1  0
 20 21  1  1
 22 24  1  0
 22 23  1  1
 23 16  1  0
 24 25  1  0
 26 24  2  0
M  END
$$$$
