SRI.pdb
     RDKit          3D

 26 25  0  0  1  0  0  0  0  0999 V2000
   17.4586  -22.4733  -13.6203 O   0  0  0  0  0  0  0  0  0  0  0  0
   18.4125  -23.4161  -13.2746 C   0  0  0  0  0  0  0  0  0  0  0  0
   19.2217  -22.8664  -12.1320 C   0  0  2  0  0  0  0  0  0  0  0  0
   18.4261  -22.5769  -10.9614 N   0  0  0  0  0  0  0  0  0  0  0  0
   19.9239  -21.6425  -12.5504 C   0  0  0  0  0  0  0  0  0  0  0  0
   19.4980  -20.4799  -12.3045 O   0  0  0  0  0  0  0  0  0  0  0  0
   28.1987  -21.7087  -14.3528 N   0  0  0  0  0  0  0  0  0  0  0  0
   27.0081  -22.1870  -15.0074 C   0  0  0  0  0  0  0  0  0  0  0  0
   27.1278  -22.8172  -16.1177 N   0  0  0  0  0  0  0  0  0  0  0  0
   25.7383  -21.9657  -14.4355 N   0  0  0  0  0  0  0  0  0  0  0  0
   25.6019  -21.3268  -13.1635 C   0  0  0  0  0  0  0  0  0  0  0  0
   24.1513  -21.1013  -12.7998 C   0  0  0  0  0  0  0  0  0  0  0  0
   23.3152  -20.8719  -14.0305 C   0  0  0  0  0  0  0  0  0  0  0  0
   21.9012  -20.6297  -13.7393 C   0  0  2  0  0  0  0  0  0  0  0  0
   21.1299  -21.7237  -13.2609 N   0  0  0  0  0  0  0  0  0  0  0  0
   21.2577  -20.1310  -14.9948 C   0  0  0  0  0  0  0  0  0  0  0  0
   20.6767  -20.9536  -15.7306 O   0  0  0  0  0  0  0  0  0  0  0  0
   26.3070  -23.1818  -16.6137 C   0  0  0  0  0  0  0  0  0  0  0  0
   17.4283  -16.1392  -16.8180 C   0  0  0  0  0  0  0  0  0  0  0  0
   18.5710  -16.9740  -17.2352 C   0  0  2  0  0  0  0  0  0  0  0  0
   19.4936  -17.5035  -16.2082 C   0  0  0  0  0  0  0  0  0  0  0  0
   19.8576  -16.3983  -15.2125 C   0  0  2  0  0  0  0  0  0  0  0  0
   20.6554  -18.3148  -16.6075 N   0  0  0  0  0  0  0  0  0  0  0  0
   21.2924  -18.7723  -15.3590 C   0  0  0  0  0  0  0  0  0  0  0  0
   21.6705  -17.7868  -17.4798 O   0  0  0  0  0  0  0  0  0  0  0  0
   21.3774  -17.6969  -18.8698 O   0  0  0  0  0  0  0  0  0  0  0  0
  2  1  1  0
  3  2  1  0
  3  4  1  1
  5  3  1  0
  5  6  2  0
  7  8  1  0
  8 10  1  0
  9  8  2  0
 10 11  1  0
 11 12  1  0
 12 13  1  0
 14 13  1  6
 14 15  1  0
 15  5  1  0
 16 14  1  0
 17 16  2  0
 19 18  1  0
 20 19  1  0
 20 22  1  0
 20 21  1  1
 22 24  1  0
 22 23  1  6
 23 16  1  0
 24 25  1  0
 26 24  2  0
M  END
$$$$
