SRI.pdb
     RDKit          3D

 26 25  0  0  1  0  0  0  0  0999 V2000
   28.1565  -19.2530  -17.9480 O   0  0  0  0  0  0  0  0  0  0  0  0
   27.1740  -19.5881  -17.0311 C   0  0  0  0  0  0  0  0  0  0  0  0
   27.4721  -20.9663  -16.5077 C   0  0  2  0  0  0  0  0  0  0  0  0
   27.4940  -21.9735  -17.5430 N   0  0  0  0  0  0  0  0  0  0  0  0
   26.4814  -21.3469  -15.4879 C   0  0  0  0  0  0  0  0  0  0  0  0
   25.6355  -22.2693  -15.6528 O   0  0  0  0  0  0  0  0  0  0  0  0
   26.0585  -19.2493   -6.9796 N   0  0  0  0  0  0  0  0  0  0  0  0
   26.6942  -20.3010   -7.7309 C   0  0  0  0  0  0  0  0  0  0  0  0
   27.7326  -20.8684   -7.2369 N   0  0  0  0  0  0  0  0  0  0  0  0
   26.1818  -20.6967   -8.9837 N   0  0  0  0  0  0  0  0  0  0  0  0
   25.0301  -20.0616   -9.5450 C   0  0  0  0  0  0  0  0  0  0  0  0
   24.6753  -20.6347  -10.8989 C   0  0  0  0  0  0  0  0  0  0  0  0
   25.7615  -20.3582  -11.9040 C   0  0  0  0  0  0  0  0  0  0  0  0
   25.4397  -20.8225  -13.2544 C   0  0  2  0  0  0  0  0  0  0  0  0
   26.4374  -20.6781  -14.2565 N   0  0  0  0  0  0  0  0  0  0  0  0
   24.2222  -20.0820  -13.7114 C   0  0  0  0  0  0  0  0  0  0  0  0
   24.3201  -18.8581  -13.9308 O   0  0  0  0  0  0  0  0  0  0  0  0
   28.2580  -21.5717   -7.7679 C   0  0  0  0  0  0  0  0  0  0  0  0
   20.1238  -20.1026  -17.8235 C   0  0  0  0  0  0  0  0  0  0  0  0
   20.3737  -19.7301  -16.4180 C   0  0  2  0  0  0  0  0  0  0  0  0
   21.5126  -20.3402  -15.6990 C   0  0  0  0  0  0  0  0  0  0  0  0
   21.5126  -21.8570  -15.9106 C   0  0  2  0  0  0  0  0  0  0  0  0
   21.7943  -19.9603  -14.3048 N   0  0  0  0  0  0  0  0  0  0  0  0
   22.9857  -20.7271  -13.8971 C   0  0  0  0  0  0  0  0  0  0  0  0
   20.7913  -20.0819  -13.2806 O   0  0  0  0  0  0  0  0  0  0  0  0
   20.9560  -21.1010  -12.3005 O   0  0  0  0  0  0  0  0  0  0  0  0
  2  1  1  0
  3  2  1  0
  3  4  1  6
  5  3  1  0
  5  6  2  0
  7  8  1  0
  8 10  1  0
  9  8  2  0
 10 11  1  0
 11 12  1  0
 12 13  1  0
 14 13  1  1
 14 15  1  0
 15  5  1  0
 16 14  1  0
 17 16  2  0
 19 18  1  0
 20 19  1  0
 20 22  1  0
 20 21  1  6
 22 24  1  0
 22 23  1  1
 23 16  1  0
 24 25  1  0
 26 24  2  0
M  END
$$$$
