SRI.pdb
     RDKit          3D

 26 25  0  0  1  0  0  0  0  0999 V2000
   29.0493  -22.6271  -16.0541 O   0  0  0  0  0  0  0  0  0  0  0  0
   28.7325  -22.7910  -17.3924 C   0  0  0  0  0  0  0  0  0  0  0  0
   27.8912  -21.6202  -17.8213 C   0  0  2  0  0  0  0  0  0  0  0  0
   28.6457  -20.3942  -17.9430 N   0  0  0  0  0  0  0  0  0  0  0  0
   26.7877  -21.4128  -16.8697 C   0  0  0  0  0  0  0  0  0  0  0  0
   26.7148  -20.4161  -16.0985 O   0  0  0  0  0  0  0  0  0  0  0  0
   20.3880  -26.2190  -13.8922 N   0  0  0  0  0  0  0  0  0  0  0  0
   21.4429  -26.3939  -14.8573 C   0  0  0  0  0  0  0  0  0  0  0  0
   21.9875  -27.5493  -14.9703 N   0  0  0  0  0  0  0  0  0  0  0  0
   21.8649  -25.3146  -15.6606 N   0  0  0  0  0  0  0  0  0  0  0  0
   21.2511  -24.0277  -15.5512 C   0  0  0  0  0  0  0  0  0  0  0  0
   22.2754  -22.9287  -15.3774 C   0  0  0  0  0  0  0  0  0  0  0  0
   23.5460  -23.2526  -16.1169 C   0  0  0  0  0  0  0  0  0  0  0  0
   24.5908  -22.2403  -15.9544 C   0  0  2  0  0  0  0  0  0  0  0  0
   25.7433  -22.3439  -16.7799 N   0  0  0  0  0  0  0  0  0  0  0  0
   25.0444  -22.2802  -14.5289 C   0  0  0  0  0  0  0  0  0  0  0  0
   25.5813  -23.3238  -14.1064 O   0  0  0  0  0  0  0  0  0  0  0  0
   22.7902  -27.7007  -15.5911 C   0  0  0  0  0  0  0  0  0  0  0  0
   28.8359  -19.7286  -12.7774 C   0  0  0  0  0  0  0  0  0  0  0  0
   27.6613  -20.6038  -12.9538 C   0  0  2  0  0  0  0  0  0  0  0  0
   26.4676  -20.3924  -12.1074 C   0  0  0  0  0  0  0  0  0  0  0  0
   26.8886  -20.2051  -10.6468 C   0  0  2  0  0  0  0  0  0  0  0  0
   25.2945  -21.2700  -12.2533 N   0  0  0  0  0  0  0  0  0  0  0  0
   24.8814  -21.1811  -13.6658 C   0  0  0  0  0  0  0  0  0  0  0  0
   24.1333  -21.1090  -11.4192 O   0  0  0  0  0  0  0  0  0  0  0  0
   24.1295  -21.7478  -10.1472 O   0  0  0  0  0  0  0  0  0  0  0  0
  2  1  1  0
  3  2  1  0
  3  4  1  1
  5  3  1  0
  5  6  2  0
  7  8  1  0
  8 10  1  0
  9  8  2  0
 10 11  1  0
 11 12  1  0
 12 13  1  0
 14 13  1  1
 14 15  1  0
 15  5  1  0
 16 14  1  0
 17 16  2  0
 19 18  1  0
 20 19  1  0
 20 22  1  0
 20 21  1  6
 22 24  1  0
 22 23  1  1
 23 16  1  0
 24 25  1  0
 26 24  2  0
M  END
$$$$
