SRI.pdb
     RDKit          3D

 26 25  0  0  1  0  0  0  0  0999 V2000
   26.7391  -23.6676  -16.9211 O   0  0  0  0  0  0  0  0  0  0  0  0
   27.2404  -22.6693  -17.7399 C   0  0  0  0  0  0  0  0  0  0  0  0
   28.5403  -22.1912  -17.1533 C   0  0  2  0  0  0  0  0  0  0  0  0
   29.5251  -23.2406  -17.0265 N   0  0  0  0  0  0  0  0  0  0  0  0
   28.3087  -21.5875  -15.8312 C   0  0  0  0  0  0  0  0  0  0  0  0
   28.6105  -22.1572  -14.7459 O   0  0  0  0  0  0  0  0  0  0  0  0
   23.3979  -18.2198  -15.5567 N   0  0  0  0  0  0  0  0  0  0  0  0
   23.3880  -17.0721  -16.4270 C   0  0  0  0  0  0  0  0  0  0  0  0
   22.3176  -16.8052  -17.0807 N   0  0  0  0  0  0  0  0  0  0  0  0
   24.5338  -16.2600  -16.5545 N   0  0  0  0  0  0  0  0  0  0  0  0
   25.6873  -16.4760  -15.7374 C   0  0  0  0  0  0  0  0  0  0  0  0
   26.0077  -17.9471  -15.5940 C   0  0  0  0  0  0  0  0  0  0  0  0
   27.1715  -18.1581  -14.6626 C   0  0  0  0  0  0  0  0  0  0  0  0
   27.5665  -19.5614  -14.5300 C   0  0  2  0  0  0  0  0  0  0  0  0
   27.7248  -20.3173  -15.7233 N   0  0  0  0  0  0  0  0  0  0  0  0
   26.5358  -20.2460  -13.6885 C   0  0  0  0  0  0  0  0  0  0  0  0
   25.7549  -21.0462  -14.2414 O   0  0  0  0  0  0  0  0  0  0  0  0
   22.2918  -16.0490  -17.7736 C   0  0  0  0  0  0  0  0  0  0  0  0
   27.6278  -20.6447   -8.2871 C   0  0  0  0  0  0  0  0  0  0  0  0
   27.1464  -21.0378   -9.6251 C   0  0  2  0  0  0  0  0  0  0  0  0
   25.8279  -20.5568  -10.0902 C   0  0  0  0  0  0  0  0  0  0  0  0
   24.7364  -20.9917   -9.1080 C   0  0  2  0  0  0  0  0  0  0  0  0
   25.4314  -20.7348  -11.4968 N   0  0  0  0  0  0  0  0  0  0  0  0
   26.4293  -20.0108  -12.3053 C   0  0  0  0  0  0  0  0  0  0  0  0
   24.1152  -20.3747  -11.9528 O   0  0  0  0  0  0  0  0  0  0  0  0
   23.8930  -19.0288  -12.3593 O   0  0  0  0  0  0  0  0  0  0  0  0
  2  1  1  0
  3  2  1  0
  3  4  1  1
  5  3  1  0
  5  6  2  0
  7  8  1  0
  8 10  1  0
  9  8  2  0
 10 11  1  0
 11 12  1  0
 12 13  1  0
 14 13  1  6
 14 15  1  0
 15  5  1  0
 16 14  1  0
 17 16  2  0
 19 18  1  0
 20 19  1  0
 20 22  1  0
 20 21  1  6
 22 24  1  0
 22 23  1  6
 23 16  1  0
 24 25  1  0
 26 24  2  0
M  END
$$$$
