SRI.pdb
     RDKit          3D

 26 25  0  0  1  0  0  0  0  0999 V2000
   20.5064  -17.9414  -10.9056 O   0  0  0  0  0  0  0  0  0  0  0  0
   20.7636  -17.7857  -12.2576 C   0  0  0  0  0  0  0  0  0  0  0  0
   20.5154  -19.1046  -12.9366 C   0  0  2  0  0  0  0  0  0  0  0  0
   19.1954  -19.6337  -12.6821 N   0  0  0  0  0  0  0  0  0  0  0  0
   21.5195  -20.0921  -12.5091 C   0  0  0  0  0  0  0  0  0  0  0  0
   21.4097  -20.7828  -11.4581 O   0  0  0  0  0  0  0  0  0  0  0  0
   26.0051  -21.5807  -18.2736 N   0  0  0  0  0  0  0  0  0  0  0  0
   25.7089  -22.5327  -17.2341 C   0  0  0  0  0  0  0  0  0  0  0  0
   24.8830  -23.4808  -17.4857 N   0  0  0  0  0  0  0  0  0  0  0  0
   26.3172  -22.4218  -15.9668 N   0  0  0  0  0  0  0  0  0  0  0  0
   26.1326  -23.4283  -14.9679 C   0  0  0  0  0  0  0  0  0  0  0  0
   25.4121  -22.8891  -13.7523 C   0  0  0  0  0  0  0  0  0  0  0  0
   24.3810  -21.8652  -14.1456 C   0  0  0  0  0  0  0  0  0  0  0  0
   23.7008  -21.2525  -13.0033 C   0  0  2  0  0  0  0  0  0  0  0  0
   22.6727  -20.3096  -13.2762 N   0  0  0  0  0  0  0  0  0  0  0  0
   24.7387  -20.5688  -12.1698 C   0  0  0  0  0  0  0  0  0  0  0  0
   24.9986  -19.3727  -12.4099 O   0  0  0  0  0  0  0  0  0  0  0  0
   24.7269  -24.2422  -16.8160 C   0  0  0  0  0  0  0  0  0  0  0  0
   26.8982  -19.6602   -6.7378 C   0  0  0  0  0  0  0  0  0  0  0  0
   26.8494  -19.4093   -8.1908 C   0  0  2  0  0  0  0  0  0  0  0  0
   26.0947  -20.3369   -9.0605 C   0  0  0  0  0  0  0  0  0  0  0  0
   25.7759  -21.6262   -8.2979 C   0  0  2  0  0  0  0  0  0  0  0  0
   26.5460  -20.5881  -10.4391 N   0  0  0  0  0  0  0  0  0  0  0  0
   25.4188  -21.2360  -11.1345 C   0  0  0  0  0  0  0  0  0  0  0  0
   27.7470  -21.3335  -10.7075 O   0  0  0  0  0  0  0  0  0  0  0  0
   27.6161  -22.6264  -11.2884 O   0  0  0  0  0  0  0  0  0  0  0  0
  2  1  1  0
  3  2  1  0
  3  4  1  1
  5  3  1  0
  5  6  2  0
  7  8  1  0
  8 10  1  0
  9  8  2  0
 10 11  1  0
 11 12  1  0
 12 13  1  0
 14 13  1  6
 14 15  1  0
 15  5  1  0
 16 14  1  0
 17 16  2  0
 19 18  1  0
 20 19  1  0
 20 22  1  0
 20 21  1  1
 22 24  1  0
 22 23  1  6
 23 16  1  0
 24 25  1  0
 26 24  2  0
M  END
$$$$
