SRI.pdb
     RDKit          3D

 26 25  0  0  1  0  0  0  0  0999 V2000
   21.4618  -18.3181  -17.4473 O   0  0  0  0  0  0  0  0  0  0  0  0
   21.0963  -19.6511  -17.5351 C   0  0  0  0  0  0  0  0  0  0  0  0
   20.0331  -19.9142  -16.5043 C   0  0  2  0  0  0  0  0  0  0  0  0
   18.8254  -19.1538  -16.7287 N   0  0  0  0  0  0  0  0  0  0  0  0
   20.5465  -19.6143  -15.1580 C   0  0  0  0  0  0  0  0  0  0  0  0
   20.1004  -18.6783  -14.4380 O   0  0  0  0  0  0  0  0  0  0  0  0
   18.2164  -22.9209   -8.4924 N   0  0  0  0  0  0  0  0  0  0  0  0
   18.1890  -22.8240   -9.9293 C   0  0  0  0  0  0  0  0  0  0  0  0
   17.1948  -23.3310  -10.5609 N   0  0  0  0  0  0  0  0  0  0  0  0
   19.2354  -22.1830  -10.6240 N   0  0  0  0  0  0  0  0  0  0  0  0
   20.5615  -22.1439  -10.0904 C   0  0  0  0  0  0  0  0  0  0  0  0
   21.4777  -21.2752  -10.9231 C   0  0  0  0  0  0  0  0  0  0  0  0
   21.0698  -21.2937  -12.3721 C   0  0  0  0  0  0  0  0  0  0  0  0
   21.9241  -20.4707  -13.2299 C   0  0  2  0  0  0  0  0  0  0  0  0
   21.5837  -20.3800  -14.6070 N   0  0  0  0  0  0  0  0  0  0  0  0
   23.3163  -21.0115  -13.1377 C   0  0  0  0  0  0  0  0  0  0  0  0
   23.5421  -22.1493  -13.5962 O   0  0  0  0  0  0  0  0  0  0  0  0
   17.1403  -23.2941  -11.5848 C   0  0  0  0  0  0  0  0  0  0  0  0
   27.1879  -17.8467  -14.6305 C   0  0  0  0  0  0  0  0  0  0  0  0
   26.3795  -19.0277  -14.2721 C   0  0  2  0  0  0  0  0  0  0  0  0
   26.6114  -19.6966  -12.9740 C   0  0  0  0  0  0  0  0  0  0  0  0
   28.0996  -20.0188  -12.8101 C   0  0  2  0  0  0  0  0  0  0  0  0
   25.7393  -20.8036  -12.5478 N   0  0  0  0  0  0  0  0  0  0  0  0
   24.3630  -20.2748  -12.5533 C   0  0  0  0  0  0  0  0  0  0  0  0
   25.9650  -21.4970  -11.3076 O   0  0  0  0  0  0  0  0  0  0  0  0
   27.0147  -22.4571  -11.2594 O   0  0  0  0  0  0  0  0  0  0  0  0
  2  1  1  0
  3  2  1  0
  3  4  1  6
  5  3  1  0
  5  6  2  0
  7  8  1  0
  8 10  1  0
  9  8  2  0
 10 11  1  0
 11 12  1  0
 12 13  1  0
 14 13  1  1
 14 15  1  0
 15  5  1  0
 16 14  1  0
 17 16  2  0
 19 18  1  0
 20 19  1  0
 20 22  1  0
 20 21  1  1
 22 24  1  0
 22 23  1  6
 23 16  1  0
 24 25  1  0
 26 24  2  0
M  END
$$$$
