SRI.pdb
     RDKit          3D

 26 25  0  0  1  0  0  0  0  0999 V2000
   26.3313  -18.8048  -18.7993 O   0  0  0  0  0  0  0  0  0  0  0  0
   27.5017  -18.4892  -18.1294 C   0  0  0  0  0  0  0  0  0  0  0  0
   28.0500  -19.7521  -17.5239 C   0  0  2  0  0  0  0  0  0  0  0  0
   28.3150  -20.7814  -18.5023 N   0  0  0  0  0  0  0  0  0  0  0  0
   27.1167  -20.2775  -16.5145 C   0  0  0  0  0  0  0  0  0  0  0  0
   26.5277  -21.3885  -16.6259 O   0  0  0  0  0  0  0  0  0  0  0  0
   27.0689  -21.3758   -9.9009 N   0  0  0  0  0  0  0  0  0  0  0  0
   25.9129  -21.0022   -9.1269 C   0  0  0  0  0  0  0  0  0  0  0  0
   25.6187  -21.6940   -8.0881 N   0  0  0  0  0  0  0  0  0  0  0  0
   25.1235  -19.8971   -9.5063 N   0  0  0  0  0  0  0  0  0  0  0  0
   25.4937  -19.0694  -10.6121 C   0  0  0  0  0  0  0  0  0  0  0  0
   25.2093  -19.7405  -11.9373 C   0  0  0  0  0  0  0  0  0  0  0  0
   26.2447  -19.3680  -12.9647 C   0  0  0  0  0  0  0  0  0  0  0  0
   25.9878  -19.9407  -14.2871 C   0  0  2  0  0  0  0  0  0  0  0  0
   26.8366  -19.5409  -15.3549 N   0  0  0  0  0  0  0  0  0  0  0  0
   24.5821  -19.5955  -14.6666 C   0  0  0  0  0  0  0  0  0  0  0  0
   24.3361  -18.4288  -15.0324 O   0  0  0  0  0  0  0  0  0  0  0  0
   24.7680  -21.5052   -7.5465 C   0  0  0  0  0  0  0  0  0  0  0  0
   20.0077  -21.4052  -17.8985 C   0  0  0  0  0  0  0  0  0  0  0  0
   20.3994  -20.6636  -16.6847 C   0  0  2  0  0  0  0  0  0  0  0  0
   21.7414  -20.8830  -16.1040 C   0  0  0  0  0  0  0  0  0  0  0  0
   22.0319  -22.3838  -16.0109 C   0  0  2  0  0  0  0  0  0  0  0  0
   22.1523  -20.1479  -14.8965 N   0  0  0  0  0  0  0  0  0  0  0  0
   23.5451  -20.5454  -14.6210 C   0  0  0  0  0  0  0  0  0  0  0  0
   21.3952  -20.2341  -13.6761 O   0  0  0  0  0  0  0  0  0  0  0  0
   20.1284  -19.5869  -13.6276 O   0  0  0  0  0  0  0  0  0  0  0  0
  2  1  1  0
  3  2  1  0
  3  4  1  6
  5  3  1  0
  5  6  2  0
  7  8  1  0
  8 10  1  0
  9  8  2  0
 10 11  1  0
 11 12  1  0
 12 13  1  0
 14 13  1  1
 14 15  1  0
 15  5  1  0
 16 14  1  0
 17 16  2  0
 19 18  1  0
 20 19  1  0
 20 22  1  0
 20 21  1  6
 22 24  1  0
 22 23  1  1
 23 16  1  0
 24 25  1  0
 26 24  2  0
M  END
$$$$
