SRI.pdb
     RDKit          3D

 26 25  0  0  1  0  0  0  0  0999 V2000
   18.2190  -20.5900  -10.0152 O   0  0  0  0  0  0  0  0  0  0  0  0
   19.2227  -21.5266  -10.1985 C   0  0  0  0  0  0  0  0  0  0  0  0
   18.6628  -22.6597  -11.0139 C   0  0  2  0  0  0  0  0  0  0  0  0
   17.7307  -22.2223  -12.0274 N   0  0  0  0  0  0  0  0  0  0  0  0
   17.9957  -23.6349  -10.1364 C   0  0  0  0  0  0  0  0  0  0  0  0
   16.7690  -23.5792   -9.8436 O   0  0  0  0  0  0  0  0  0  0  0  0
   21.7134  -31.0852  -10.6794 N   0  0  0  0  0  0  0  0  0  0  0  0
   21.3142  -30.2600  -11.7905 C   0  0  0  0  0  0  0  0  0  0  0  0
   21.6725  -30.6049  -12.9725 N   0  0  0  0  0  0  0  0  0  0  0  0
   20.5444  -29.0976  -11.5791 N   0  0  0  0  0  0  0  0  0  0  0  0
   20.0791  -28.7468  -10.2733 C   0  0  0  0  0  0  0  0  0  0  0  0
   19.3272  -27.4345  -10.2777 C   0  0  0  0  0  0  0  0  0  0  0  0
   18.8844  -27.0611   -8.8882 C   0  0  0  0  0  0  0  0  0  0  0  0
   18.1840  -25.7773   -8.8236 C   0  0  2  0  0  0  0  0  0  0  0  0
   18.7199  -24.6954   -9.5738 N   0  0  0  0  0  0  0  0  0  0  0  0
   18.1350  -25.3581   -7.3879 C   0  0  0  0  0  0  0  0  0  0  0  0
   19.0947  -24.7086   -6.9266 O   0  0  0  0  0  0  0  0  0  0  0  0
   21.4182  -30.0413  -13.7912 C   0  0  0  0  0  0  0  0  0  0  0  0
   14.1366  -23.3981   -3.3449 C   0  0  0  0  0  0  0  0  0  0  0  0
   15.4051  -24.1231   -3.5497 C   0  0  2  0  0  0  0  0  0  0  0  0
   15.7921  -24.5329   -4.9167 C   0  0  0  0  0  0  0  0  0  0  0  0
   14.5938  -25.1630   -5.6326 C   0  0  2  0  0  0  0  0  0  0  0  0
   17.0428  -25.2773   -5.1379 N   0  0  0  0  0  0  0  0  0  0  0  0
   17.0445  -25.6757   -6.5574 C   0  0  0  0  0  0  0  0  0  0  0  0
   17.3829  -26.4214   -4.3345 O   0  0  0  0  0  0  0  0  0  0  0  0
   17.8335  -26.1941   -3.0036 O   0  0  0  0  0  0  0  0  0  0  0  0
  2  1  1  0
  3  2  1  0
  3  4  1  6
  5  3  1  0
  5  6  2  0
  7  8  1  0
  8 10  1  0
  9  8  2  0
 10 11  1  0
 11 12  1  0
 12 13  1  0
 14 13  1  1
 14 15  1  0
 15  5  1  0
 16 14  1  0
 17 16  2  0
 19 18  1  0
 20 19  1  0
 20 22  1  0
 20 21  1  6
 22 24  1  0
 22 23  1  1
 23 16  1  0
 24 25  1  0
 26 24  2  0
M  END
$$$$
