SRI.pdb
     RDKit          3D

 26 25  0  0  1  0  0  0  0  0999 V2000
   26.9853  -15.3630  -16.4141 O   0  0  0  0  0  0  0  0  0  0  0  0
   25.8852  -16.2044  -16.4298 C   0  0  0  0  0  0  0  0  0  0  0  0
   25.1953  -16.0485  -17.7573 C   0  0  2  0  0  0  0  0  0  0  0  0
   26.0635  -16.3111  -18.8817 N   0  0  0  0  0  0  0  0  0  0  0  0
   24.6413  -14.6909  -17.8847 C   0  0  0  0  0  0  0  0  0  0  0  0
   25.2385  -13.7510  -18.4793 O   0  0  0  0  0  0  0  0  0  0  0  0
   17.9572  -10.7418  -15.0572 N   0  0  0  0  0  0  0  0  0  0  0  0
   17.9628  -10.0043  -16.2944 C   0  0  0  0  0  0  0  0  0  0  0  0
   17.4542   -8.8272  -16.3109 N   0  0  0  0  0  0  0  0  0  0  0  0
   18.5178  -10.5679  -17.4617 N   0  0  0  0  0  0  0  0  0  0  0  0
   19.1234  -11.8632  -17.4410 C   0  0  0  0  0  0  0  0  0  0  0  0
   20.6334  -11.7784  -17.4378 C   0  0  0  0  0  0  0  0  0  0  0  0
   21.2515  -13.1510  -17.4175 C   0  0  0  0  0  0  0  0  0  0  0  0
   22.7152  -13.1326  -17.4259 C   0  0  2  0  0  0  0  0  0  0  0  0
   23.3906  -14.3799  -17.3326 N   0  0  0  0  0  0  0  0  0  0  0  0
   23.1655  -12.2820  -16.2800 C   0  0  0  0  0  0  0  0  0  0  0  0
   22.9645  -12.6946  -15.1202 O   0  0  0  0  0  0  0  0  0  0  0  0
   17.4802   -8.2482  -17.1575 C   0  0  0  0  0  0  0  0  0  0  0  0
   27.8640   -9.3619  -16.3746 C   0  0  0  0  0  0  0  0  0  0  0  0
   26.3947   -9.4810  -16.4328 C   0  0  2  0  0  0  0  0  0  0  0  0
   25.6813  -10.1799  -15.3424 C   0  0  0  0  0  0  0  0  0  0  0  0
   26.3103  -11.5557  -15.1036 C   0  0  1  0  0  0  0  0  0  0  0  0
   24.2097  -10.2168  -15.3279 N   0  0  0  0  0  0  0  0  0  0  0  0
   23.8028  -11.0435  -16.4789 C   0  0  0  0  0  0  0  0  0  0  0  0
   23.4323   -9.0061  -15.3283 O   0  0  0  0  0  0  0  0  0  0  0  0
   22.5982   -8.7470  -16.4522 O   0  0  0  0  0  0  0  0  0  0  0  0
  2  1  1  0
  3  2  1  0
  3  4  1  6
  5  3  1  0
  5  6  2  0
  7  8  1  0
  8 10  1  0
  9  8  2  0
 10 11  1  0
 11 12  1  0
 12 13  1  0
 14 13  1  1
 14 15  1  0
 15  5  1  0
 16 14  1  0
 17 16  2  0
 19 18  1  0
 20 19  1  0
 20 22  1  0
 20 21  1  1
 22 24  1  0
 22 23  1  6
 23 16  1  0
 24 25  1  0
 26 24  2  0
M  END
$$$$
