SRI.pdb
     RDKit          3D

 26 25  0  0  1  0  0  0  0  0999 V2000
   28.7320  -16.1471  -18.2153 O   0  0  0  0  0  0  0  0  0  0  0  0
   27.4972  -15.8289  -17.6747 C   0  0  0  0  0  0  0  0  0  0  0  0
   26.4721  -15.9022  -18.7729 C   0  0  2  0  0  0  0  0  0  0  0  0
   27.0554  -16.0891  -20.0813 N   0  0  0  0  0  0  0  0  0  0  0  0
   25.6511  -14.6807  -18.7829 C   0  0  0  0  0  0  0  0  0  0  0  0
   26.0411  -13.5868  -19.2776 O   0  0  0  0  0  0  0  0  0  0  0  0
   16.8168  -13.4125  -17.9866 N   0  0  0  0  0  0  0  0  0  0  0  0
   17.4082  -12.1196  -18.2174 C   0  0  0  0  0  0  0  0  0  0  0  0
   16.6346  -11.1102  -18.3823 N   0  0  0  0  0  0  0  0  0  0  0  0
   18.8097  -11.9702  -18.2596 N   0  0  0  0  0  0  0  0  0  0  0  0
   19.6785  -13.0862  -18.0477 C   0  0  0  0  0  0  0  0  0  0  0  0
   21.1340  -12.7014  -18.1919 C   0  0  0  0  0  0  0  0  0  0  0  0
   22.0251  -13.9104  -18.0891 C   0  0  0  0  0  0  0  0  0  0  0  0
   23.4502  -13.5975  -18.2074 C   0  0  2  0  0  0  0  0  0  0  0  0
   24.3648  -14.6854  -18.2251 N   0  0  0  0  0  0  0  0  0  0  0  0
   23.8174  -12.7101  -17.0597 C   0  0  0  0  0  0  0  0  0  0  0  0
   23.7925  -13.1890  -15.9083 O   0  0  0  0  0  0  0  0  0  0  0  0
   17.0129  -10.1642  -18.5034 C   0  0  0  0  0  0  0  0  0  0  0  0
   28.4410  -11.3458  -16.3394 C   0  0  0  0  0  0  0  0  0  0  0  0
   26.9825  -11.5462  -16.2433 C   0  0  2  0  0  0  0  0  0  0  0  0
   26.0871  -10.3698  -16.2680 C   0  0  0  0  0  0  0  0  0  0  0  0
   26.6523   -9.2635  -15.3725 C   0  0  2  0  0  0  0  0  0  0  0  0
   24.6341  -10.5447  -16.1080 N   0  0  0  0  0  0  0  0  0  0  0  0
   24.1856  -11.3653  -17.2479 C   0  0  0  0  0  0  0  0  0  0  0  0
   23.7557   -9.4127  -15.9771 O   0  0  0  0  0  0  0  0  0  0  0  0
   23.4185   -8.9758  -14.6651 O   0  0  0  0  0  0  0  0  0  0  0  0
  2  1  1  0
  3  2  1  0
  3  4  1  6
  5  3  1  0
  5  6  2  0
  7  8  1  0
  8 10  1  0
  9  8  2  0
 10 11  1  0
 11 12  1  0
 12 13  1  0
 14 13  1  1
 14 15  1  0
 15  5  1  0
 16 14  1  0
 17 16  2  0
 19 18  1  0
 20 19  1  0
 20 22  1  0
 20 21  1  6
 22 24  1  0
 22 23  1  1
 23 16  1  0
 24 25  1  0
 26 24  2  0
M  END
$$$$
