SRI.pdb
     RDKit          3D

 26 25  0  0  1  0  0  0  0  0999 V2000
   23.6405  -20.2920   -8.7650 O   0  0  0  0  0  0  0  0  0  0  0  0
   24.6266  -21.2533   -8.9125 C   0  0  0  0  0  0  0  0  0  0  0  0
   25.7917  -20.6237   -9.6256 C   0  0  2  0  0  0  0  0  0  0  0  0
   26.2123  -19.3755   -9.0322 N   0  0  0  0  0  0  0  0  0  0  0  0
   25.4566  -20.3944  -11.0403 C   0  0  0  0  0  0  0  0  0  0  0  0
   25.0765  -19.2782  -11.4910 O   0  0  0  0  0  0  0  0  0  0  0  0
   26.0707  -25.9651  -15.9567 N   0  0  0  0  0  0  0  0  0  0  0  0
   25.2098  -25.2902  -16.8939 C   0  0  0  0  0  0  0  0  0  0  0  0
   24.2241  -25.9366  -17.3989 N   0  0  0  0  0  0  0  0  0  0  0  0
   25.4485  -23.9458  -17.2458 N   0  0  0  0  0  0  0  0  0  0  0  0
   26.4059  -23.1550  -16.5366 C   0  0  0  0  0  0  0  0  0  0  0  0
   25.7419  -22.0845  -15.6996 C   0  0  0  0  0  0  0  0  0  0  0  0
   25.9177  -22.3612  -14.2303 C   0  0  0  0  0  0  0  0  0  0  0  0
   25.3079  -21.3476  -13.3680 C   0  0  2  0  0  0  0  0  0  0  0  0
   25.5489  -21.4397  -11.9702 N   0  0  0  0  0  0  0  0  0  0  0  0
   23.8277  -21.4005  -13.5812 C   0  0  0  0  0  0  0  0  0  0  0  0
   23.1721  -22.2722  -12.9760 O   0  0  0  0  0  0  0  0  0  0  0  0
   23.5760  -25.4897  -18.0568 C   0  0  0  0  0  0  0  0  0  0  0  0
   20.1052  -17.7668  -12.2119 C   0  0  0  0  0  0  0  0  0  0  0  0
   20.4945  -19.0900  -12.7355 C   0  0  2  0  0  0  0  0  0  0  0  0
   21.2691  -19.1718  -13.9923 C   0  0  0  0  0  0  0  0  0  0  0  0
   20.6209  -18.2909  -15.0644 C   0  0  2  0  0  0  0  0  0  0  0  0
   21.6949  -20.4814  -14.5130 N   0  0  0  0  0  0  0  0  0  0  0  0
   23.1672  -20.5005  -14.4376 C   0  0  0  0  0  0  0  0  0  0  0  0
   21.2913  -20.9332  -15.8180 O   0  0  0  0  0  0  0  0  0  0  0  0
   19.9484  -21.3735  -15.9877 O   0  0  0  0  0  0  0  0  0  0  0  0
  2  1  1  0
  3  2  1  0
  3  4  1  1
  5  3  1  0
  5  6  2  0
  7  8  1  0
  8 10  1  0
  9  8  2  0
 10 11  1  0
 11 12  1  0
 12 13  1  0
 14 13  1  6
 14 15  1  0
 15  5  1  0
 16 14  1  0
 17 16  2  0
 19 18  1  0
 20 19  1  0
 20 22  1  0
 20 21  1  1
 22 24  1  0
 22 23  1  6
 23 16  1  0
 24 25  1  0
 26 24  2  0
M  END
$$$$
