KIP.pdb
     RDKit          3D

 25 25  0  0  1  0  0  0  0  0999 V2000
   20.3689  -20.4159  -12.1827 N   0  0  0  0  0  0  0  0  0  0  0  0
   21.1651  -20.6454  -13.3290 C   0  0  1  0  0  0  0  0  0  0  0  0
   20.6030  -20.0151  -14.5550 C   0  0  0  0  0  0  0  0  0  0  0  0
   20.5457  -20.8515  -15.7765 C   0  0  0  0  0  0  0  0  0  0  0  0
   19.7555  -22.1154  -15.7055 C   0  0  0  0  0  0  0  0  0  0  0  0
   18.4466  -22.0940  -16.4237 C   0  0  0  0  0  0  0  0  0  0  0  0
   17.6297  -23.2586  -16.2882 N   0  0  0  0  0  0  0  0  0  0  0  0
   22.5679  -20.1955  -13.1073 C   0  0  0  0  0  0  0  0  0  0  0  0
   22.7494  -18.9348  -13.0406 O   0  0  0  0  0  0  0  0  0  0  0  0
   25.2867  -20.9889   -9.0250 C   0  0  0  0  0  0  0  0  0  0  0  0
   24.7543  -20.4944  -10.3692 C   0  0  0  0  0  0  0  0  0  0  0  0
   25.5868  -20.9926  -11.5064 C   0  0  2  0  0  0  0  0  0  0  0  0
   27.0532  -20.6662  -11.3796 C   0  0  0  0  0  0  0  0  0  0  0  0
   24.9866  -20.5544  -12.8127 C   0  0  2  0  0  0  0  0  0  0  0  0
   23.6525  -21.1012  -12.9762 N   0  0  0  0  0  0  0  0  0  0  0  0
   25.8841  -20.7157  -13.9477 C   0  0  0  0  0  0  0  0  0  0  0  0
   26.1272  -21.9080  -14.3758 O   0  0  0  0  0  0  0  0  0  0  0  0
   26.5560  -19.7008  -14.6742 N   0  0  0  0  0  0  0  0  0  0  0  0
   26.3251  -18.2866  -14.4410 C   0  0  0  0  0  0  0  0  0  0  0  0
   27.1863  -17.5332  -15.4669 C   0  0  0  0  0  0  0  0  0  0  0  0
   28.2819  -18.5259  -15.6946 C   0  0  0  0  0  0  0  0  0  0  0  0
   27.4910  -19.8405  -15.7743 C   0  0  1  0  0  0  0  0  0  0  0  0
   28.4300  -20.9769  -15.6366 C   0  0  0  0  0  0  0  0  0  0  0  0
   28.7563  -21.4817  -14.5710 O   0  0  0  0  0  0  0  0  0  0  0  0
   28.9600  -21.4821  -16.8236 O   0  0  0  0  0  0  0  0  0  0  0  0
  2  8  1  0
  2  1  1  1
  3  2  1  0
  4  3  1  0
  4  5  1  0
  6  7  1  0
  6  5  1  0
  8  9  2  0
 10 11  1  0
 11 12  1  0
 12 13  1  1
 14 12  1  0
 14 15  1  6
 15  8  1  0
 16 14  1  0
 17 16  2  0
 18 16  1  0
 18 22  1  0
 19 20  1  0
 19 18  1  0
 20 21  1  0
 21 22  1  0
 22 23  1  1
 23 25  1  0
 24 23  2  0
M  END
$$$$
