KIP.pdb
     RDKit          3D

 25 25  0  0  1  0  0  0  0  0999 V2000
   20.2345  -19.7095  -13.4174 N   0  0  0  0  0  0  0  0  0  0  0  0
   21.2323  -20.5309  -13.9921 C   0  0  1  0  0  0  0  0  0  0  0  0
   21.1364  -20.5990  -15.4762 C   0  0  0  0  0  0  0  0  0  0  0  0
   20.7118  -21.8904  -16.0650 C   0  0  0  0  0  0  0  0  0  0  0  0
   19.9064  -22.8049  -15.2037 C   0  0  0  0  0  0  0  0  0  0  0  0
   18.4612  -22.9153  -15.5621 C   0  0  0  0  0  0  0  0  0  0  0  0
   18.0351  -24.1688  -16.1001 N   0  0  0  0  0  0  0  0  0  0  0  0
   22.5941  -20.0918  -13.5770 C   0  0  0  0  0  0  0  0  0  0  0  0
   22.8752  -18.8648  -13.7818 O   0  0  0  0  0  0  0  0  0  0  0  0
   24.8696  -20.9081   -8.9871 C   0  0  0  0  0  0  0  0  0  0  0  0
   24.5402  -20.3166  -10.3569 C   0  0  0  0  0  0  0  0  0  0  0  0
   25.4031  -20.9001  -11.4289 C   0  0  2  0  0  0  0  0  0  0  0  0
   26.8755  -20.6367  -11.2396 C   0  0  0  0  0  0  0  0  0  0  0  0
   24.8905  -20.4899  -12.7808 C   0  0  2  0  0  0  0  0  0  0  0  0
   23.5377  -20.9726  -12.9872 N   0  0  0  0  0  0  0  0  0  0  0  0
   25.8305  -20.7490  -13.8619 C   0  0  0  0  0  0  0  0  0  0  0  0
   26.0196  -21.9696  -14.2342 O   0  0  0  0  0  0  0  0  0  0  0  0
   26.5991  -19.8054  -14.5888 N   0  0  0  0  0  0  0  0  0  0  0  0
   26.5103  -18.3755  -14.3545 C   0  0  0  0  0  0  0  0  0  0  0  0
   27.4408  -17.7108  -15.3812 C   0  0  0  0  0  0  0  0  0  0  0  0
   28.4319  -18.8073  -15.6110 C   0  0  0  0  0  0  0  0  0  0  0  0
   27.5141  -20.0367  -15.6903 C   0  0  1  0  0  0  0  0  0  0  0  0
   28.3355  -21.2610  -15.5545 C   0  0  0  0  0  0  0  0  0  0  0  0
   28.6060  -21.8002  -14.4902 O   0  0  0  0  0  0  0  0  0  0  0  0
   28.8179  -21.8109  -16.7420 O   0  0  0  0  0  0  0  0  0  0  0  0
  2  8  1  0
  2  1  1  6
  3  2  1  0
  4  3  1  0
  4  5  1  0
  6  7  1  0
  6  5  1  0
  8  9  2  0
 10 11  1  0
 11 12  1  0
 12 13  1  1
 14 12  1  0
 14 15  1  6
 15  8  1  0
 16 14  1  0
 17 16  2  0
 18 16  1  0
 18 22  1  0
 19 20  1  0
 19 18  1  0
 20 21  1  0
 21 22  1  0
 22 23  1  1
 23 25  1  0
 24 23  2  0
M  END
$$$$
