KIP.pdb
     RDKit          3D

 25 25  0  0  1  0  0  0  0  0999 V2000
   18.7319  -15.0343  -16.8499 N   0  0  0  0  0  0  0  0  0  0  0  0
   19.5656  -14.0403  -17.4134 C   0  0  1  0  0  0  0  0  0  0  0  0
   18.8942  -13.2749  -18.4997 C   0  0  0  0  0  0  0  0  0  0  0  0
   18.3665  -14.0530  -19.6446 C   0  0  0  0  0  0  0  0  0  0  0  0
   17.4898  -13.3350  -20.6157 C   0  0  0  0  0  0  0  0  0  0  0  0
   16.8745  -14.1879  -21.6755 C   0  0  0  0  0  0  0  0  0  0  0  0
   16.4935  -15.5087  -21.2849 N   0  0  0  0  0  0  0  0  0  0  0  0
   20.0819  -13.1154  -16.3658 C   0  0  0  0  0  0  0  0  0  0  0  0
   19.3263  -12.9348  -15.3543 O   0  0  0  0  0  0  0  0  0  0  0  0
   24.6552  -13.8034  -14.9505 C   0  0  0  0  0  0  0  0  0  0  0  0
   23.2701  -13.2684  -14.5900 C   0  0  0  0  0  0  0  0  0  0  0  0
   23.1277  -11.8251  -14.9520 C   0  0  2  0  0  0  0  0  0  0  0  0
   23.6079  -10.8765  -13.8830 C   0  0  0  0  0  0  0  0  0  0  0  0
   21.7244  -11.5472  -15.4125 C   0  0  2  0  0  0  0  0  0  0  0  0
   21.3380  -12.4632  -16.4695 N   0  0  0  0  0  0  0  0  0  0  0  0
   21.4642  -10.1372  -15.6656 C   0  0  0  0  0  0  0  0  0  0  0  0
   22.2795   -9.4874  -16.4253 O   0  0  0  0  0  0  0  0  0  0  0  0
   20.3959   -9.3489  -15.1691 N   0  0  0  0  0  0  0  0  0  0  0  0
   19.3022   -9.9089  -14.3959 C   0  0  0  0  0  0  0  0  0  0  0  0
   18.3344   -8.7491  -14.1135 C   0  0  0  0  0  0  0  0  0  0  0  0
   19.2735   -7.5855  -14.1537 C   0  0  0  0  0  0  0  0  0  0  0  0
   20.1411   -7.9354  -15.3723 C   0  0  1  0  0  0  0  0  0  0  0  0
   21.3553   -7.0883  -15.3586 C   0  0  0  0  0  0  0  0  0  0  0  0
   22.4590   -7.4640  -14.9876 O   0  0  0  0  0  0  0  0  0  0  0  0
   21.1937   -5.7773  -15.8061 O   0  0  0  0  0  0  0  0  0  0  0  0
  2  8  1  0
  2  1  1  1
  3  2  1  0
  4  3  1  0
  4  5  1  0
  6  7  1  0
  6  5  1  0
  8  9  2  0
 10 11  1  0
 11 12  1  0
 12 13  1  1
 14 12  1  0
 14 15  1  6
 15  8  1  0
 16 14  1  0
 17 16  2  0
 18 16  1  0
 18 22  1  0
 19 20  1  0
 19 18  1  0
 20 21  1  0
 21 22  1  0
 22 23  1  1
 23 25  1  0
 24 23  2  0
M  END
$$$$
