KIP.pdb
     RDKit          3D

 25 25  0  0  1  0  0  0  0  0999 V2000
   20.6572  -21.2287  -13.4617 N   0  0  0  0  0  0  0  0  0  0  0  0
   21.8813  -21.8845  -13.7307 C   0  0  1  0  0  0  0  0  0  0  0  0
   22.0001  -22.3212  -15.1490 C   0  0  0  0  0  0  0  0  0  0  0  0
   22.2775  -23.7563  -15.3907 C   0  0  0  0  0  0  0  0  0  0  0  0
   21.3302  -24.7467  -14.8001 C   0  0  0  0  0  0  0  0  0  0  0  0
   21.6945  -26.1806  -15.0015 C   0  0  0  0  0  0  0  0  0  0  0  0
   21.4550  -26.7189  -16.3035 N   0  0  0  0  0  0  0  0  0  0  0  0
   23.0422  -21.0327  -13.3481 C   0  0  0  0  0  0  0  0  0  0  0  0
   22.9099  -19.7801  -13.5488 O   0  0  0  0  0  0  0  0  0  0  0  0
   25.7970  -20.8343   -8.8518 C   0  0  0  0  0  0  0  0  0  0  0  0
   25.1580  -20.5432  -10.2088 C   0  0  0  0  0  0  0  0  0  0  0  0
   26.0686  -20.9128  -11.3351 C   0  0  2  0  0  0  0  0  0  0  0  0
   27.4322  -20.2746  -11.2535 C   0  0  0  0  0  0  0  0  0  0  0  0
   25.3781  -20.6836  -12.6501 C   0  0  2  0  0  0  0  0  0  0  0  0
   24.2344  -21.5652  -12.7922 N   0  0  0  0  0  0  0  0  0  0  0  0
   26.2895  -20.6356  -13.7845 C   0  0  0  0  0  0  0  0  0  0  0  0
   26.9679  -21.6938  -14.0745 O   0  0  0  0  0  0  0  0  0  0  0  0
   26.5452  -19.5401  -14.6469 N   0  0  0  0  0  0  0  0  0  0  0  0
   25.8523  -18.2700  -14.5269 C   0  0  0  0  0  0  0  0  0  0  0  0
   26.3642  -17.3881  -15.6766 C   0  0  0  0  0  0  0  0  0  0  0  0
   27.7244  -17.9720  -15.8923 C   0  0  0  0  0  0  0  0  0  0  0  0
   27.4298  -19.4766  -15.7948 C   0  0  1  0  0  0  0  0  0  0  0  0
   28.7058  -20.2074  -15.6230 C   0  0  0  0  0  0  0  0  0  0  0  0
   29.2076  -20.4823  -14.5416 O   0  0  0  0  0  0  0  0  0  0  0  0
   29.3539  -20.5942  -16.7959 O   0  0  0  0  0  0  0  0  0  0  0  0
  2  8  1  0
  2  1  1  6
  3  2  1  0
  4  3  1  0
  4  5  1  0
  6  7  1  0
  6  5  1  0
  8  9  2  0
 10 11  1  0
 11 12  1  0
 12 13  1  6
 14 12  1  0
 14 15  1  6
 15  8  1  0
 16 14  1  0
 17 16  2  0
 18 16  1  0
 18 22  1  0
 19 20  1  0
 19 18  1  0
 20 21  1  0
 21 22  1  0
 22 23  1  1
 23 25  1  0
 24 23  2  0
M  END
$$$$
