KIP.pdb
     RDKit          3D

 25 25  0  0  1  0  0  0  0  0999 V2000
   28.5384  -20.1470  -16.1308 N   0  0  0  0  0  0  0  0  0  0  0  0
   27.5648  -19.2837  -15.5763 C   0  0  1  0  0  0  0  0  0  0  0  0
   26.9318  -18.4015  -16.5948 C   0  0  0  0  0  0  0  0  0  0  0  0
   27.7570  -17.2955  -17.1340 C   0  0  0  0  0  0  0  0  0  0  0  0
   27.8441  -17.1655  -18.6181 C   0  0  0  0  0  0  0  0  0  0  0  0
   29.2235  -17.0106  -19.1680 C   0  0  0  0  0  0  0  0  0  0  0  0
   29.3242  -16.7966  -20.5773 N   0  0  0  0  0  0  0  0  0  0  0  0
   26.5265  -20.0518  -14.8338 C   0  0  0  0  0  0  0  0  0  0  0  0
   26.1046  -21.1154  -15.3972 O   0  0  0  0  0  0  0  0  0  0  0  0
   27.0703  -20.9192   -9.7508 C   0  0  0  0  0  0  0  0  0  0  0  0
   26.6357  -21.1261  -11.2010 C   0  0  0  0  0  0  0  0  0  0  0  0
   25.2736  -20.5638  -11.4516 C   0  0  2  0  0  0  0  0  0  0  0  0
   24.1736  -21.2674  -10.6978 C   0  0  0  0  0  0  0  0  0  0  0  0
   25.0209  -20.4699  -12.9300 C   0  0  2  0  0  0  0  0  0  0  0  0
   26.0229  -19.6400  -13.5725 N   0  0  0  0  0  0  0  0  0  0  0  0
   23.6361  -20.1699  -13.2651 C   0  0  0  0  0  0  0  0  0  0  0  0
   23.1401  -19.0425  -12.8813 O   0  0  0  0  0  0  0  0  0  0  0  0
   22.7211  -20.9810  -13.9820 N   0  0  0  0  0  0  0  0  0  0  0  0
   23.1342  -22.1533  -14.7322 C   0  0  0  0  0  0  0  0  0  0  0  0
   21.8678  -22.7022  -15.4080 C   0  0  0  0  0  0  0  0  0  0  0  0
   20.8148  -22.2207  -14.4610 C   0  0  0  0  0  0  0  0  0  0  0  0
   21.2956  -20.7907  -14.1712 C   0  0  1  0  0  0  0  0  0  0  0  0
   20.5851  -20.2758  -12.9787 C   0  0  0  0  0  0  0  0  0  0  0  0
   20.9456  -20.4583  -11.8239 O   0  0  0  0  0  0  0  0  0  0  0  0
   19.4290  -19.5356  -13.2255 O   0  0  0  0  0  0  0  0  0  0  0  0
  2  8  1  0
  2  1  1  6
  3  2  1  0
  4  3  1  0
  4  5  1  0
  6  7  1  0
  6  5  1  0
  8  9  2  0
 10 11  1  0
 11 12  1  0
 12 13  1  1
 14 12  1  0
 14 15  1  1
 15  8  1  0
 16 14  1  0
 17 16  2  0
 18 16  1  0
 18 22  1  0
 19 20  1  0
 19 18  1  0
 20 21  1  0
 21 22  1  0
 22 23  1  1
 23 25  1  0
 24 23  2  0
M  END
$$$$
