KIP.pdb
     RDKit          3D

 25 25  0  0  1  0  0  0  0  0999 V2000
   21.9778  -13.1775  -18.1925 N   0  0  0  0  0  0  0  0  0  0  0  0
   22.7586  -12.1380  -17.6353 C   0  0  1  0  0  0  0  0  0  0  0  0
   23.8829  -11.7260  -18.5200 C   0  0  0  0  0  0  0  0  0  0  0  0
   25.1861  -12.3987  -18.3102 C   0  0  0  0  0  0  0  0  0  0  0  0
   25.2983  -13.8244  -18.7366 C   0  0  0  0  0  0  0  0  0  0  0  0
   26.6580  -14.4273  -18.6056 C   0  0  0  0  0  0  0  0  0  0  0  0
   26.7995  -15.7765  -19.0546 N   0  0  0  0  0  0  0  0  0  0  0  0
   21.9144  -10.9621  -17.2828 C   0  0  0  0  0  0  0  0  0  0  0  0
   21.0479  -10.6125  -18.1508 O   0  0  0  0  0  0  0  0  0  0  0  0
   17.8936   -8.4962  -15.9912 C   0  0  0  0  0  0  0  0  0  0  0  0
   18.9590   -8.4996  -14.8958 C   0  0  0  0  0  0  0  0  0  0  0  0
   19.9210   -9.6305  -15.0690 C   0  0  2  0  0  0  0  0  0  0  0  0
   20.2292  -10.3720  -13.7930 C   0  0  0  0  0  0  0  0  0  0  0  0
   21.1472   -9.1547  -15.7961 C   0  0  2  0  0  0  0  0  0  0  0  0
   22.0519  -10.2585  -16.0580 N   0  0  0  0  0  0  0  0  0  0  0  0
   21.7473   -7.9660  -15.2074 C   0  0  0  0  0  0  0  0  0  0  0  0
   22.2641   -8.0564  -14.0289 O   0  0  0  0  0  0  0  0  0  0  0  0
   21.8428   -6.6702  -15.7741 N   0  0  0  0  0  0  0  0  0  0  0  0
   21.4571   -6.3838  -17.1441 C   0  0  0  0  0  0  0  0  0  0  0  0
   21.7746   -4.8990  -17.3810 C   0  0  0  0  0  0  0  0  0  0  0  0
   21.6610   -4.3635  -15.9889 C   0  0  0  0  0  0  0  0  0  0  0  0
   22.3752   -5.4581  -15.1815 C   0  0  1  0  0  0  0  0  0  0  0  0
   22.0519   -5.2871  -13.7468 C   0  0  0  0  0  0  0  0  0  0  0  0
   21.1448   -5.8677  -13.1663 O   0  0  0  0  0  0  0  0  0  0  0  0
   22.8570   -4.3953  -13.0385 O   0  0  0  0  0  0  0  0  0  0  0  0
  2  8  1  0
  2  1  1  6
  3  2  1  0
  4  3  1  0
  4  5  1  0
  6  7  1  0
  6  5  1  0
  8  9  2  0
 10 11  1  0
 11 12  1  0
 12 13  1  1
 14 12  1  0
 14 15  1  1
 15  8  1  0
 16 14  1  0
 17 16  2  0
 18 16  1  0
 18 22  1  0
 19 20  1  0
 19 18  1  0
 20 21  1  0
 21 22  1  0
 22 23  1  1
 23 25  1  0
 24 23  2  0
M  END
$$$$
