KIP.pdb
     RDKit          3D

 25 25  0  0  1  0  0  0  0  0999 V2000
   20.2880  -15.0430  -16.1952 N   0  0  0  0  0  0  0  0  0  0  0  0
   20.4682  -13.8144  -16.8725 C   0  0  1  0  0  0  0  0  0  0  0  0
   19.1968  -13.2696  -17.4230 C   0  0  0  0  0  0  0  0  0  0  0  0
   18.3754  -14.1831  -18.2512 C   0  0  0  0  0  0  0  0  0  0  0  0
   17.1893  -13.6003  -18.9443 C   0  0  0  0  0  0  0  0  0  0  0  0
   16.3795  -14.5635  -19.7479 C   0  0  0  0  0  0  0  0  0  0  0  0
   15.2341  -14.0280  -20.4140 N   0  0  0  0  0  0  0  0  0  0  0  0
   21.1296  -12.8091  -15.9943 C   0  0  0  0  0  0  0  0  0  0  0  0
   20.7227  -12.7644  -14.7864 O   0  0  0  0  0  0  0  0  0  0  0  0
   26.1208  -12.8306  -15.2402 C   0  0  0  0  0  0  0  0  0  0  0  0
   24.6070  -12.6262  -15.2778 C   0  0  0  0  0  0  0  0  0  0  0  0
   24.2520  -11.1890  -15.4850 C   0  0  2  0  0  0  0  0  0  0  0  0
   24.9451  -10.2450  -14.5356 C   0  0  0  0  0  0  0  0  0  0  0  0
   22.7581  -11.0271  -15.5062 C   0  0  2  0  0  0  0  0  0  0  0  0
   22.1538  -11.9422  -16.4564 N   0  0  0  0  0  0  0  0  0  0  0  0
   22.3251   -9.6398  -15.5951 C   0  0  0  0  0  0  0  0  0  0  0  0
   22.9379   -8.7567  -14.8819 O   0  0  0  0  0  0  0  0  0  0  0  0
   21.2785   -9.1063  -16.3882 N   0  0  0  0  0  0  0  0  0  0  0  0
   20.4582   -9.9284  -17.2593 C   0  0  0  0  0  0  0  0  0  0  0  0
   19.4996   -8.9692  -17.9822 C   0  0  0  0  0  0  0  0  0  0  0  0
   19.4111   -7.8582  -16.9846 C   0  0  0  0  0  0  0  0  0  0  0  0
   20.8780   -7.7214  -16.5490 C   0  0  1  0  0  0  0  0  0  0  0  0
   20.9388   -6.9202  -15.3055 C   0  0  0  0  0  0  0  0  0  0  0  0
   20.8964   -5.6982  -15.2650 O   0  0  0  0  0  0  0  0  0  0  0  0
   21.0519   -7.6405  -14.1165 O   0  0  0  0  0  0  0  0  0  0  0  0
  2  8  1  0
  2  1  1  1
  3  2  1  0
  4  3  1  0
  4  5  1  0
  6  7  1  0
  6  5  1  0
  8  9  2  0
 10 11  1  0
 11 12  1  0
 12 13  1  1
 14 12  1  0
 14 15  1  6
 15  8  1  0
 16 14  1  0
 17 16  2  0
 18 16  1  0
 18 22  1  0
 19 20  1  0
 19 18  1  0
 20 21  1  0
 21 22  1  0
 22 23  1  1
 23 25  1  0
 24 23  2  0
M  END
$$$$
