KIP.pdb
     RDKit          3D

 25 25  0  0  1  0  0  0  0  0999 V2000
   26.3845  -19.6440  -18.3769 N   0  0  0  0  0  0  0  0  0  0  0  0
   25.4243  -19.1658  -17.4550 C   0  0  1  0  0  0  0  0  0  0  0  0
   24.1647  -18.7238  -18.1141 C   0  0  0  0  0  0  0  0  0  0  0  0
   24.1689  -17.3828  -18.7438 C   0  0  0  0  0  0  0  0  0  0  0  0
   24.5180  -16.2193  -17.8769 C   0  0  0  0  0  0  0  0  0  0  0  0
   23.4708  -15.1601  -17.7736 C   0  0  0  0  0  0  0  0  0  0  0  0
   22.3618  -15.2754  -18.6675 N   0  0  0  0  0  0  0  0  0  0  0  0
   25.1348  -20.1826  -16.4053 C   0  0  0  0  0  0  0  0  0  0  0  0
   24.8838  -21.3622  -16.8202 O   0  0  0  0  0  0  0  0  0  0  0  0
   27.8279  -20.5817  -11.9810 C   0  0  0  0  0  0  0  0  0  0  0  0
   26.9474  -21.0003  -13.1576 C   0  0  0  0  0  0  0  0  0  0  0  0
   25.4948  -20.8696  -12.8301 C   0  0  2  0  0  0  0  0  0  0  0  0
   25.0139  -21.8432  -11.7842 C   0  0  0  0  0  0  0  0  0  0  0  0
   24.6795  -20.8955  -14.0922 C   0  0  2  0  0  0  0  0  0  0  0  0
   25.1328  -19.8758  -15.0197 N   0  0  0  0  0  0  0  0  0  0  0  0
   23.2438  -20.9479  -13.8558 C   0  0  0  0  0  0  0  0  0  0  0  0
   22.6804  -19.9493  -13.2645 O   0  0  0  0  0  0  0  0  0  0  0  0
   22.3450  -21.9891  -14.1981 N   0  0  0  0  0  0  0  0  0  0  0  0
   22.7161  -23.0899  -15.0689 C   0  0  0  0  0  0  0  0  0  0  0  0
   21.4546  -23.9510  -15.2384 C   0  0  0  0  0  0  0  0  0  0  0  0
   20.7373  -23.6502  -13.9607 C   0  0  0  0  0  0  0  0  0  0  0  0
   20.9459  -22.1327  -13.8434 C   0  0  1  0  0  0  0  0  0  0  0  0
   20.6192  -21.7065  -12.4637 C   0  0  0  0  0  0  0  0  0  0  0  0
   21.4411  -21.5653  -11.5685 O   0  0  0  0  0  0  0  0  0  0  0  0
   19.2723  -21.4572  -12.2013 O   0  0  0  0  0  0  0  0  0  0  0  0
  2  8  1  0
  2  1  1  6
  3  2  1  0
  4  3  1  0
  4  5  1  0
  6  7  1  0
  6  5  1  0
  8  9  2  0
 10 11  1  0
 11 12  1  0
 12 13  1  1
 14 12  1  0
 14 15  1  1
 15  8  1  0
 16 14  1  0
 17 16  2  0
 18 16  1  0
 18 22  1  0
 19 20  1  0
 19 18  1  0
 20 21  1  0
 21 22  1  0
 22 23  1  1
 23 25  1  0
 24 23  2  0
M  END
$$$$
