KIP.pdb
     RDKit          3D

 25 25  0  0  1  0  0  0  0  0999 V2000
   20.5844  -19.6535  -13.5257 N   0  0  0  0  0  0  0  0  0  0  0  0
   21.4391  -20.7783  -13.5978 C   0  0  1  0  0  0  0  0  0  0  0  0
   21.2195  -21.5893  -14.8267 C   0  0  0  0  0  0  0  0  0  0  0  0
   19.9466  -22.3417  -14.9185 C   0  0  0  0  0  0  0  0  0  0  0  0
   20.0336  -23.8293  -14.9995 C   0  0  0  0  0  0  0  0  0  0  0  0
   19.8362  -24.5539  -13.7091 C   0  0  0  0  0  0  0  0  0  0  0  0
   18.5003  -24.9640  -13.4099 N   0  0  0  0  0  0  0  0  0  0  0  0
   22.8688  -20.3742  -13.4879 C   0  0  0  0  0  0  0  0  0  0  0  0
   23.1366  -19.1667  -13.7992 O   0  0  0  0  0  0  0  0  0  0  0  0
   25.3124  -21.3736   -9.1795 C   0  0  0  0  0  0  0  0  0  0  0  0
   25.0729  -20.5995  -10.4749 C   0  0  0  0  0  0  0  0  0  0  0  0
   25.8395  -21.1875  -11.6156 C   0  0  2  0  0  0  0  0  0  0  0  0
   27.3275  -20.9583  -11.5350 C   0  0  0  0  0  0  0  0  0  0  0  0
   25.2359  -20.7489  -12.9202 C   0  0  2  0  0  0  0  0  0  0  0  0
   23.8880  -21.2663  -13.0643 N   0  0  0  0  0  0  0  0  0  0  0  0
   26.1174  -20.9425  -14.0626 C   0  0  0  0  0  0  0  0  0  0  0  0
   26.3443  -22.1459  -14.4683 O   0  0  0  0  0  0  0  0  0  0  0  0
   26.7894  -19.9495  -14.8187 N   0  0  0  0  0  0  0  0  0  0  0  0
   26.6562  -18.5305  -14.5425 C   0  0  0  0  0  0  0  0  0  0  0  0
   27.4797  -17.8021  -15.6163 C   0  0  0  0  0  0  0  0  0  0  0  0
   28.4978  -18.8476  -15.9446 C   0  0  0  0  0  0  0  0  0  0  0  0
   27.6307  -20.1150  -15.9888 C   0  0  1  0  0  0  0  0  0  0  0  0
   28.5120  -21.3038  -15.9435 C   0  0  0  0  0  0  0  0  0  0  0  0
   28.8886  -21.9258  -16.9274 O   0  0  0  0  0  0  0  0  0  0  0  0
   28.9223  -21.7154  -14.6757 O   0  0  0  0  0  0  0  0  0  0  0  0
  2  8  1  0
  2  1  1  6
  3  2  1  0
  4  3  1  0
  4  5  1  0
  6  7  1  0
  6  5  1  0
  8  9  2  0
 10 11  1  0
 11 12  1  0
 12 13  1  6
 14 12  1  0
 14 15  1  6
 15  8  1  0
 16 14  1  0
 17 16  2  0
 18 16  1  0
 18 22  1  0
 19 20  1  0
 19 18  1  0
 20 21  1  0
 21 22  1  0
 22 23  1  1
 23 25  1  0
 24 23  2  0
M  END
$$$$
