KIP.pdb
     RDKit          3D

 25 25  0  0  1  0  0  0  0  0999 V2000
   21.7026  -21.6934  -18.0428 N   0  0  0  0  0  0  0  0  0  0  0  0
   21.5435  -20.9617  -16.8428 C   0  0  1  0  0  0  0  0  0  0  0  0
   20.5763  -21.5969  -15.9061 C   0  0  0  0  0  0  0  0  0  0  0  0
   19.1362  -21.3661  -16.1664 C   0  0  0  0  0  0  0  0  0  0  0  0
   18.5560  -20.0693  -15.7093 C   0  0  0  0  0  0  0  0  0  0  0  0
   17.0855  -20.0809  -15.4510 C   0  0  0  0  0  0  0  0  0  0  0  0
   16.2652  -19.4341  -16.4262 N   0  0  0  0  0  0  0  0  0  0  0  0
   22.8544  -20.7426  -16.1697 C   0  0  0  0  0  0  0  0  0  0  0  0
   23.6727  -21.7203  -16.2022 O   0  0  0  0  0  0  0  0  0  0  0  0
   27.1415  -16.7013  -14.6819 C   0  0  0  0  0  0  0  0  0  0  0  0
   26.4803  -18.0669  -14.5001 C   0  0  0  0  0  0  0  0  0  0  0  0
   25.0913  -18.0823  -15.0523 C   0  0  2  0  0  0  0  0  0  0  0  0
   24.2262  -16.9488  -14.5626 C   0  0  0  0  0  0  0  0  0  0  0  0
   24.4736  -19.4373  -14.8504 C   0  0  2  0  0  0  0  0  0  0  0  0
   23.1912  -19.5246  -15.5239 N   0  0  0  0  0  0  0  0  0  0  0  0
   24.4970  -19.8863  -13.4657 C   0  0  0  0  0  0  0  0  0  0  0  0
   23.6253  -19.4028  -12.6468 O   0  0  0  0  0  0  0  0  0  0  0  0
   25.3840  -20.8177  -12.8700 N   0  0  0  0  0  0  0  0  0  0  0  0
   26.3214  -21.6120  -13.6432 C   0  0  0  0  0  0  0  0  0  0  0  0
   27.0386  -22.5306  -12.6415 C   0  0  0  0  0  0  0  0  0  0  0  0
   26.9366  -21.7149  -11.3918 C   0  0  0  0  0  0  0  0  0  0  0  0
   25.4895  -21.2063  -11.4764 C   0  0  1  0  0  0  0  0  0  0  0  0
   25.3132  -20.0925  -10.5172 C   0  0  0  0  0  0  0  0  0  0  0  0
   25.5927  -18.9246  -10.7515 O   0  0  0  0  0  0  0  0  0  0  0  0
   24.7901  -20.4337   -9.2702 O   0  0  0  0  0  0  0  0  0  0  0  0
  2  8  1  0
  2  1  1  6
  3  2  1  0
  4  3  1  0
  4  5  1  0
  6  7  1  0
  6  5  1  0
  8  9  2  0
 10 11  1  0
 11 12  1  0
 12 13  1  1
 14 12  1  0
 14 15  1  1
 15  8  1  0
 16 14  1  0
 17 16  2  0
 18 16  1  0
 18 22  1  0
 19 20  1  0
 19 18  1  0
 20 21  1  0
 21 22  1  0
 22 23  1  1
 23 25  1  0
 24 23  2  0
M  END
$$$$
