KIP.pdb
     RDKit          3D

 25 25  0  0  1  0  0  0  0  0999 V2000
   20.3628  -19.6839  -13.1778 N   0  0  0  0  0  0  0  0  0  0  0  0
   21.3076  -20.6370  -13.6246 C   0  0  1  0  0  0  0  0  0  0  0  0
   21.1298  -20.9940  -15.0590 C   0  0  0  0  0  0  0  0  0  0  0  0
   20.2604  -22.1549  -15.3612 C   0  0  0  0  0  0  0  0  0  0  0  0
   19.6014  -22.8365  -14.2088 C   0  0  0  0  0  0  0  0  0  0  0  0
   18.7323  -23.9978  -14.5629 C   0  0  0  0  0  0  0  0  0  0  0  0
   19.4006  -25.1694  -15.0350 N   0  0  0  0  0  0  0  0  0  0  0  0
   22.7002  -20.1723  -13.3714 C   0  0  0  0  0  0  0  0  0  0  0  0
   22.9678  -18.9783  -13.7312 O   0  0  0  0  0  0  0  0  0  0  0  0
   25.1047  -21.1139   -8.9925 C   0  0  0  0  0  0  0  0  0  0  0  0
   25.0367  -20.2514  -10.2519 C   0  0  0  0  0  0  0  0  0  0  0  0
   25.7031  -20.9192  -11.4114 C   0  0  2  0  0  0  0  0  0  0  0  0
   27.2030  -20.7666  -11.4254 C   0  0  0  0  0  0  0  0  0  0  0  0
   25.0462  -20.4955  -12.6949 C   0  0  2  0  0  0  0  0  0  0  0  0
   23.6858  -20.9952  -12.7671 N   0  0  0  0  0  0  0  0  0  0  0  0
   25.8711  -20.7231  -13.8728 C   0  0  0  0  0  0  0  0  0  0  0  0
   26.0287  -21.9338  -14.2894 O   0  0  0  0  0  0  0  0  0  0  0  0
   26.5542  -19.7576  -14.6540 N   0  0  0  0  0  0  0  0  0  0  0  0
   26.4518  -18.3314  -14.4026 C   0  0  0  0  0  0  0  0  0  0  0  0
   27.2778  -17.6391  -15.4981 C   0  0  0  0  0  0  0  0  0  0  0  0
   28.2717  -18.7104  -15.8177 C   0  0  0  0  0  0  0  0  0  0  0  0
   27.3794  -19.9610  -15.8295 C   0  0  1  0  0  0  0  0  0  0  0  0
   28.2377  -21.1660  -15.7715 C   0  0  0  0  0  0  0  0  0  0  0  0
   28.5466  -21.7486  -14.7410 O   0  0  0  0  0  0  0  0  0  0  0  0
   28.7091  -21.6428  -16.9945 O   0  0  0  0  0  0  0  0  0  0  0  0
  2  8  1  0
  2  1  1  6
  3  2  1  0
  4  3  1  0
  4  5  1  0
  6  7  1  0
  6  5  1  0
  8  9  2  0
 10 11  1  0
 11 12  1  0
 12 13  1  6
 14 12  1  0
 14 15  1  6
 15  8  1  0
 16 14  1  0
 17 16  2  0
 18 16  1  0
 18 22  1  0
 19 20  1  0
 19 18  1  0
 20 21  1  0
 21 22  1  0
 22 23  1  1
 23 25  1  0
 24 23  2  0
M  END
$$$$
