KIP.pdb
     RDKit          3D

 25 25  0  0  1  0  0  0  0  0999 V2000
   20.3819  -19.8672  -13.1398 N   0  0  0  0  0  0  0  0  0  0  0  0
   21.3262  -20.8876  -13.4001 C   0  0  1  0  0  0  0  0  0  0  0  0
   21.1726  -21.4806  -14.7570 C   0  0  0  0  0  0  0  0  0  0  0  0
   20.1346  -22.5246  -14.9220 C   0  0  0  0  0  0  0  0  0  0  0  0
   19.6470  -23.2078  -13.6881 C   0  0  0  0  0  0  0  0  0  0  0  0
   18.6165  -24.2661  -13.9063 C   0  0  0  0  0  0  0  0  0  0  0  0
   19.0100  -25.3776  -14.7137 N   0  0  0  0  0  0  0  0  0  0  0  0
   22.7180  -20.3949  -13.2006 C   0  0  0  0  0  0  0  0  0  0  0  0
   22.9354  -19.1804  -13.5238 O   0  0  0  0  0  0  0  0  0  0  0  0
   25.6552  -20.9368   -8.8674 C   0  0  0  0  0  0  0  0  0  0  0  0
   25.0808  -20.4440  -10.1948 C   0  0  0  0  0  0  0  0  0  0  0  0
   25.7893  -21.0553  -11.3604 C   0  0  2  0  0  0  0  0  0  0  0  0
   27.2745  -20.7967  -11.3773 C   0  0  0  0  0  0  0  0  0  0  0  0
   25.1001  -20.6710  -12.6393 C   0  0  2  0  0  0  0  0  0  0  0  0
   23.7551  -21.2138  -12.6833 N   0  0  0  0  0  0  0  0  0  0  0  0
   25.9138  -20.8901  -13.8266 C   0  0  0  0  0  0  0  0  0  0  0  0
   26.1301  -22.1028  -14.2097 O   0  0  0  0  0  0  0  0  0  0  0  0
   26.5276  -19.9137  -14.6506 N   0  0  0  0  0  0  0  0  0  0  0  0
   26.3175  -18.4890  -14.4669 C   0  0  0  0  0  0  0  0  0  0  0  0
   27.0961  -17.7887  -15.5916 C   0  0  0  0  0  0  0  0  0  0  0  0
   28.1691  -18.7963  -15.8579 C   0  0  0  0  0  0  0  0  0  0  0  0
   27.3729  -20.1094  -15.8131 C   0  0  1  0  0  0  0  0  0  0  0  0
   28.3184  -21.2426  -15.6963 C   0  0  0  0  0  0  0  0  0  0  0  0
   28.6653  -21.7503  -14.6386 O   0  0  0  0  0  0  0  0  0  0  0  0
   28.8296  -21.7411  -16.8944 O   0  0  0  0  0  0  0  0  0  0  0  0
  2  8  1  0
  2  1  1  6
  3  2  1  0
  4  3  1  0
  4  5  1  0
  6  7  1  0
  6  5  1  0
  8  9  2  0
 10 11  1  0
 11 12  1  0
 12 13  1  6
 14 12  1  0
 14 15  1  6
 15  8  1  0
 16 14  1  0
 17 16  2  0
 18 16  1  0
 18 22  1  0
 19 20  1  0
 19 18  1  0
 20 21  1  0
 21 22  1  0
 22 23  1  1
 23 25  1  0
 24 23  2  0
M  END
$$$$
