FMN.pdb
     RDKit          3D

 28 28  0  0  1  0  0  0  0  0999 V2000
    7.2370  -17.1715   20.9228 N   0  0  0  0  0  0  0  0  0  0  0  0
    8.6356  -16.8195   20.9664 C   0  0  1  0  0  0  0  0  0  0  0  0
    8.9695  -15.9622   19.7826 C   0  0  0  0  0  0  0  0  0  0  0  0
    8.2910  -14.6618   19.9153 C   0  0  0  0  0  0  0  0  0  0  0  0
    8.9573  -13.5130   20.2944 C   0  0  0  0  0  0  0  0  0  0  0  0
    8.2899  -12.2960   20.4115 C   0  0  0  0  0  0  0  0  0  0  0  0
    6.9371  -12.2114   20.1490 C   0  0  0  0  0  0  0  0  0  0  0  0
    6.2758  -13.3399   19.7752 C   0  0  0  0  0  0  0  0  0  0  0  0
    6.9371  -14.5419   19.6600 C   0  0  0  0  0  0  0  0  0  0  0  0
    8.9337  -16.2140   22.2643 C   0  0  0  0  0  0  0  0  0  0  0  0
   10.1493  -15.9636   22.5316 O   0  0  0  0  0  0  0  0  0  0  0  0
    7.6286  -11.4346   28.1044 C   0  0  0  0  0  0  0  0  0  0  0  0
    6.8907  -12.3147   26.7026 S   0  0  0  0  0  0  0  0  0  0  0  0
    7.9576  -13.7321   26.3006 C   0  0  0  0  0  0  0  0  0  0  0  0
    7.4124  -14.3580   25.0346 C   0  0  0  0  0  0  0  0  0  0  0  0
    8.3868  -15.3938   24.5484 C   0  0  2  0  0  0  0  0  0  0  0  0
    7.9870  -15.8828   23.2489 N   0  0  0  0  0  0  0  0  0  0  0  0
    8.6084  -16.4901   25.5147 C   0  0  0  0  0  0  0  0  0  0  0  0
    7.6154  -17.1924   25.8376 O   0  0  0  0  0  0  0  0  0  0  0  0
   11.0379  -19.4418   23.8817 N   0  0  0  0  0  0  0  0  0  0  0  0
   10.4333  -19.5424   25.1547 C   0  0  0  0  0  0  0  0  0  0  0  0
    9.3887  -20.1940   25.3525 O   0  0  0  0  0  0  0  0  0  0  0  0
   11.1024  -18.8297   26.2666 C   0  0  0  0  0  0  0  0  0  0  0  0
   10.1178  -17.9320   26.9430 C   0  0  2  0  0  0  0  0  0  0  0  0
    9.8659  -16.7782   26.0814 N   0  0  0  0  0  0  0  0  0  0  0  0
   10.5792  -17.3938   28.2418 C   0  0  0  0  0  0  0  0  0  0  0  0
   11.2201  -16.2893   28.3224 O   0  0  0  0  0  0  0  0  0  0  0  0
   10.3663  -18.0186   29.4702 O   0  0  0  0  0  0  0  0  0  0  0  0
  2  3  1  0
  2  1  1  1
  4  3  1  0
  5  4  2  0
  6  5  1  0
  7  8  1  0
  7  6  2  0
  8  9  2  0
  9  4  1  0
 10 11  2  0
 10  2  1  0
 13 12  1  0
 14 13  1  0
 15 14  1  0
 16 15  1  1
 16 17  1  0
 17 10  1  0
 18 25  1  0
 18 16  1  0
 19 18  2  0
 20 21  1  0
 21 22  2  0
 23 21  1  0
 24 23  1  6
 24 25  1  0
 26 24  1  0
 26 28  1  0
 27 26  2  0
M  END
$$$$
