FMN.pdb
     RDKit          3D

 28 28  0  0  1  0  0  0  0  0999 V2000
   10.5640  -17.3205   20.8545 N   0  0  0  0  0  0  0  0  0  0  0  0
    9.7248  -16.1814   21.1374 C   0  0  1  0  0  0  0  0  0  0  0  0
    8.4440  -16.3043   20.3678 C   0  0  0  0  0  0  0  0  0  0  0  0
    8.0044  -14.9666   19.9359 C   0  0  0  0  0  0  0  0  0  0  0  0
    6.8657  -14.3638   20.4335 C   0  0  0  0  0  0  0  0  0  0  0  0
    6.4737  -13.0970   20.0071 C   0  0  0  0  0  0  0  0  0  0  0  0
    7.2210  -12.4114   19.0702 C   0  0  0  0  0  0  0  0  0  0  0  0
    8.3435  -13.0005   18.5767 C   0  0  0  0  0  0  0  0  0  0  0  0
    8.7294  -14.2526   18.9994 C   0  0  0  0  0  0  0  0  0  0  0  0
    9.5595  -16.0602   22.5859 C   0  0  0  0  0  0  0  0  0  0  0  0
   10.3327  -16.7434   23.3256 O   0  0  0  0  0  0  0  0  0  0  0  0
    7.3768  -10.9480   26.3928 C   0  0  0  0  0  0  0  0  0  0  0  0
    6.5783  -12.4648   26.9808 S   0  0  0  0  0  0  0  0  0  0  0  0
    7.6630  -13.8678   26.5757 C   0  0  0  0  0  0  0  0  0  0  0  0
    7.5653  -14.0925   25.0818 C   0  0  0  0  0  0  0  0  0  0  0  0
    8.6211  -15.0800   24.6709 C   0  0  2  0  0  0  0  0  0  0  0  0
    8.6138  -15.2489   23.2359 N   0  0  0  0  0  0  0  0  0  0  0  0
    8.5280  -16.3700   25.3864 C   0  0  0  0  0  0  0  0  0  0  0  0
    7.4555  -17.0197   25.2803 O   0  0  0  0  0  0  0  0  0  0  0  0
    9.9946  -21.5376   26.3202 N   0  0  0  0  0  0  0  0  0  0  0  0
    9.7445  -20.2988   25.6885 C   0  0  0  0  0  0  0  0  0  0  0  0
    8.9543  -20.1805   24.7312 O   0  0  0  0  0  0  0  0  0  0  0  0
   10.4721  -19.1235   26.2186 C   0  0  0  0  0  0  0  0  0  0  0  0
    9.4995  -18.1850   26.8559 C   0  0  2  0  0  0  0  0  0  0  0  0
    9.5738  -16.8957   26.1708 N   0  0  0  0  0  0  0  0  0  0  0  0
    9.7634  -17.9163   28.2869 C   0  0  0  0  0  0  0  0  0  0  0  0
   10.3678  -16.8561   28.6715 O   0  0  0  0  0  0  0  0  0  0  0  0
    9.3893  -18.7666   29.3269 O   0  0  0  0  0  0  0  0  0  0  0  0
  2  3  1  0
  2  1  1  1
  4  3  1  0
  5  4  2  0
  6  5  1  0
  7  8  1  0
  7  6  2  0
  8  9  2  0
  9  4  1  0
 10 11  2  0
 10  2  1  0
 13 12  1  0
 14 13  1  0
 15 14  1  0
 16 15  1  6
 16 17  1  0
 17 10  1  0
 18 25  1  0
 18 16  1  0
 19 18  2  0
 20 21  1  0
 21 22  2  0
 23 21  1  0
 24 23  1  6
 24 25  1  0
 26 24  1  0
 26 28  1  0
 27 26  2  0
M  END
$$$$
