FMN.pdb
     RDKit          3D

 28 28  0  0  1  0  0  0  0  0999 V2000
    8.5079  -18.0759   27.2913 N   0  0  0  0  0  0  0  0  0  0  0  0
    7.4034  -17.3904   26.6652 C   0  0  1  0  0  0  0  0  0  0  0  0
    7.0610  -16.1677   27.4625 C   0  0  0  0  0  0  0  0  0  0  0  0
    8.2751  -15.3572   27.6580 C   0  0  0  0  0  0  0  0  0  0  0  0
    8.3220  -14.0089   27.3629 C   0  0  0  0  0  0  0  0  0  0  0  0
    9.4844  -13.2665   27.5582 C   0  0  0  0  0  0  0  0  0  0  0  0
   10.6236  -13.8677   28.0550 C   0  0  0  0  0  0  0  0  0  0  0  0
   10.5830  -15.1956   28.3474 C   0  0  0  0  0  0  0  0  0  0  0  0
    9.4333  -15.9277   28.1537 C   0  0  0  0  0  0  0  0  0  0  0  0
    7.7352  -17.1343   25.2637 C   0  0  0  0  0  0  0  0  0  0  0  0
    8.0767  -18.1266   24.5490 O   0  0  0  0  0  0  0  0  0  0  0  0
    7.9487  -12.3206   19.0458 C   0  0  0  0  0  0  0  0  0  0  0  0
    7.6513  -12.4794   20.8263 S   0  0  0  0  0  0  0  0  0  0  0  0
    7.9757  -14.2051   21.3015 C   0  0  0  0  0  0  0  0  0  0  0  0
    7.6812  -14.3248   22.7816 C   0  0  0  0  0  0  0  0  0  0  0  0
    7.9491  -15.7385   23.2155 C   0  0  2  0  0  0  0  0  0  0  0  0
    7.7096  -15.8783   24.6335 N   0  0  0  0  0  0  0  0  0  0  0  0
    9.2871  -16.2291   22.8232 C   0  0  0  0  0  0  0  0  0  0  0  0
    9.4470  -16.5957   21.6301 O   0  0  0  0  0  0  0  0  0  0  0  0
   14.1058  -17.0731   22.2874 N   0  0  0  0  0  0  0  0  0  0  0  0
   13.9512  -15.7993   22.8788 C   0  0  0  0  0  0  0  0  0  0  0  0
   14.8850  -14.9765   22.9550 O   0  0  0  0  0  0  0  0  0  0  0  0
   12.6103  -15.4737   23.4150 C   0  0  0  0  0  0  0  0  0  0  0  0
   11.7290  -16.6756   23.3082 C   0  0  2  0  0  0  0  0  0  0  0  0
   10.3753  -16.3025   23.7152 N   0  0  0  0  0  0  0  0  0  0  0  0
   12.1328  -17.8039   24.1762 C   0  0  0  0  0  0  0  0  0  0  0  0
   13.2757  -18.3671   24.0586 O   0  0  0  0  0  0  0  0  0  0  0  0
   11.3314  -18.3479   25.1794 O   0  0  0  0  0  0  0  0  0  0  0  0
  2  3  1  0
  2  1  1  1
  4  3  1  0
  5  4  2  0
  6  5  1  0
  7  8  1  0
  7  6  2  0
  8  9  2  0
  9  4  1  0
 10 11  2  0
 10  2  1  0
 13 12  1  0
 14 13  1  0
 15 14  1  0
 16 15  1  1
 16 17  1  0
 17 10  1  0
 18 25  1  0
 18 16  1  0
 19 18  2  0
 20 21  1  0
 21 22  2  0
 23 21  1  0
 24 23  1  1
 24 25  1  0
 26 24  1  0
 26 28  1  0
 27 26  2  0
M  END
$$$$
