FMN.pdb
     RDKit          3D

 28 28  0  0  1  0  0  0  0  0999 V2000
    8.5964  -17.1589   21.2107 N   0  0  0  0  0  0  0  0  0  0  0  0
    9.6518  -16.3396   21.7553 C   0  0  1  0  0  0  0  0  0  0  0  0
    9.9988  -15.2597   20.7749 C   0  0  0  0  0  0  0  0  0  0  0  0
    8.8336  -14.3787   20.5870 C   0  0  0  0  0  0  0  0  0  0  0  0
    8.8335  -13.0551   20.9812 C   0  0  0  0  0  0  0  0  0  0  0  0
    7.7168  -12.2446   20.7907 C   0  0  0  0  0  0  0  0  0  0  0  0
    6.5769  -12.7512   20.1990 C   0  0  0  0  0  0  0  0  0  0  0  0
    6.5715  -14.0544   19.8088 C   0  0  0  0  0  0  0  0  0  0  0  0
    7.6762  -14.8540   19.9979 C   0  0  0  0  0  0  0  0  0  0  0  0
    9.2479  -15.8599   23.0770 C   0  0  0  0  0  0  0  0  0  0  0  0
    9.6150  -14.6930   23.4170 O   0  0  0  0  0  0  0  0  0  0  0  0
    7.1872  -11.6917   27.5484 C   0  0  0  0  0  0  0  0  0  0  0  0
    7.1738  -12.3219   25.8494 S   0  0  0  0  0  0  0  0  0  0  0  0
    6.5130  -14.0164   25.8806 C   0  0  0  0  0  0  0  0  0  0  0  0
    7.0689  -14.7361   24.6703 C   0  0  0  0  0  0  0  0  0  0  0  0
    7.8532  -15.9307   25.1357 C   0  0  2  0  0  0  0  0  0  0  0  0
    8.4844  -16.5814   24.0106 N   0  0  0  0  0  0  0  0  0  0  0  0
    7.0588  -16.8720   25.9528 C   0  0  0  0  0  0  0  0  0  0  0  0
    6.4278  -16.4024   26.9351 O   0  0  0  0  0  0  0  0  0  0  0  0
   11.4811  -19.4594   24.3075 N   0  0  0  0  0  0  0  0  0  0  0  0
   10.3409  -19.7067   25.1044 C   0  0  0  0  0  0  0  0  0  0  0  0
   10.2546  -20.6899   25.8664 O   0  0  0  0  0  0  0  0  0  0  0  0
    9.2309  -18.7330   24.9969 C   0  0  0  0  0  0  0  0  0  0  0  0
    8.0974  -19.1766   25.8635 C   0  0  2  0  0  0  0  0  0  0  0  0
    6.9790  -18.2525   25.6826 N   0  0  0  0  0  0  0  0  0  0  0  0
    8.4061  -19.1844   27.3106 C   0  0  0  0  0  0  0  0  0  0  0  0
    8.1875  -20.2134   28.0391 O   0  0  0  0  0  0  0  0  0  0  0  0
    8.9508  -18.1032   28.0025 O   0  0  0  0  0  0  0  0  0  0  0  0
  2  3  1  0
  2  1  1  6
  4  3  1  0
  5  4  2  0
  6  5  1  0
  7  8  1  0
  7  6  2  0
  8  9  2  0
  9  4  1  0
 10 11  2  0
 10  2  1  0
 13 12  1  0
 14 13  1  0
 15 14  1  0
 16 15  1  6
 16 17  1  0
 17 10  1  0
 18 25  1  0
 18 16  1  0
 19 18  2  0
 20 21  1  0
 21 22  2  0
 23 21  1  0
 24 23  1  6
 24 25  1  0
 26 24  1  0
 26 28  1  0
 27 26  2  0
M  END
$$$$
