FMN.pdb
     RDKit          3D

 28 28  0  0  1  0  0  0  0  0999 V2000
    8.8992  -15.8589   25.7459 N   0  0  0  0  0  0  0  0  0  0  0  0
    7.6693  -16.5082   25.3620 C   0  0  1  0  0  0  0  0  0  0  0  0
    6.5186  -15.8440   26.0567 C   0  0  0  0  0  0  0  0  0  0  0  0
    6.8400  -14.4248   26.2845 C   0  0  0  0  0  0  0  0  0  0  0  0
    8.1389  -13.9625   26.3653 C   0  0  0  0  0  0  0  0  0  0  0  0
    8.4136  -12.6140   26.5813 C   0  0  0  0  0  0  0  0  0  0  0  0
    7.3851  -11.7036   26.7204 C   0  0  0  0  0  0  0  0  0  0  0  0
    6.1037  -12.1537   26.6417 C   0  0  0  0  0  0  0  0  0  0  0  0
    5.8341  -13.4868   26.4282 C   0  0  0  0  0  0  0  0  0  0  0  0
    7.5758  -16.5252   23.9021 C   0  0  0  0  0  0  0  0  0  0  0  0
    6.6347  -17.1992   23.3806 O   0  0  0  0  0  0  0  0  0  0  0  0
    7.7725  -11.4049   20.6755 C   0  0  0  0  0  0  0  0  0  0  0  0
    7.4968  -12.5327   22.0669 S   0  0  0  0  0  0  0  0  0  0  0  0
    6.9666  -14.1383   21.3961 C   0  0  0  0  0  0  0  0  0  0  0  0
    8.2000  -14.8236   20.8476 C   0  0  0  0  0  0  0  0  0  0  0  0
    8.4132  -16.1088   21.5969 C   0  0  2  0  0  0  0  0  0  0  0  0
    8.4417  -15.8573   23.0194 N   0  0  0  0  0  0  0  0  0  0  0  0
    9.5974  -16.8656   21.1389 C   0  0  0  0  0  0  0  0  0  0  0  0
    9.7350  -17.0393   19.9001 O   0  0  0  0  0  0  0  0  0  0  0  0
   12.7401  -16.8700   19.3066 N   0  0  0  0  0  0  0  0  0  0  0  0
   12.8537  -15.7301   20.1336 C   0  0  0  0  0  0  0  0  0  0  0  0
   13.3532  -14.6590   19.7359 O   0  0  0  0  0  0  0  0  0  0  0  0
   12.3462  -15.8602   21.5182 C   0  0  0  0  0  0  0  0  0  0  0  0
   12.0048  -17.2896   21.7883 C   0  0  2  0  0  0  0  0  0  0  0  0
   10.5646  -17.3929   22.0172 N   0  0  0  0  0  0  0  0  0  0  0  0
   12.6625  -17.8551   22.9871 C   0  0  0  0  0  0  0  0  0  0  0  0
   13.6912  -18.6106   22.8962 O   0  0  0  0  0  0  0  0  0  0  0  0
   12.2391  -17.6261   24.2958 O   0  0  0  0  0  0  0  0  0  0  0  0
  2  3  1  0
  2  1  1  6
  4  3  1  0
  5  4  2  0
  6  5  1  0
  7  8  1  0
  7  6  2  0
  8  9  2  0
  9  4  1  0
 10 11  2  0
 10  2  1  0
 13 12  1  0
 14 13  1  0
 15 14  1  0
 16 15  1  6
 16 17  1  0
 17 10  1  0
 18 25  1  0
 18 16  1  0
 19 18  2  0
 20 21  1  0
 21 22  2  0
 23 21  1  0
 24 23  1  1
 24 25  1  0
 26 24  1  0
 26 28  1  0
 27 26  2  0
M  END
$$$$
