FMN.pdb
     RDKit          3D

 28 28  0  0  1  0  0  0  0  0999 V2000
    7.8620  -18.9311   26.8397 N   0  0  0  0  0  0  0  0  0  0  0  0
    8.2267  -17.5607   26.5736 C   0  0  1  0  0  0  0  0  0  0  0  0
    9.6404  -17.3278   27.0154 C   0  0  0  0  0  0  0  0  0  0  0  0
    9.7025  -16.0976   27.8227 C   0  0  0  0  0  0  0  0  0  0  0  0
    9.5196  -14.8423   27.2767 C   0  0  0  0  0  0  0  0  0  0  0  0
    9.5835  -13.6953   28.0646 C   0  0  0  0  0  0  0  0  0  0  0  0
    9.8332  -13.7897   29.4191 C   0  0  0  0  0  0  0  0  0  0  0  0
   10.0142  -15.0237   29.9622 C   0  0  0  0  0  0  0  0  0  0  0  0
    9.9507  -16.1561   29.1819 C   0  0  0  0  0  0  0  0  0  0  0  0
    7.9691  -17.2649   25.1642 C   0  0  0  0  0  0  0  0  0  0  0  0
    6.9259  -17.7632   24.6395 O   0  0  0  0  0  0  0  0  0  0  0  0
    5.9151  -12.9794   26.2154 C   0  0  0  0  0  0  0  0  0  0  0  0
    7.2255  -12.0496   25.3774 S   0  0  0  0  0  0  0  0  0  0  0  0
    8.2420  -13.2289   24.4366 C   0  0  0  0  0  0  0  0  0  0  0  0
    7.4128  -14.4808   24.2444 C   0  0  0  0  0  0  0  0  0  0  0  0
    8.2149  -15.4757   23.4534 C   0  0  2  0  0  0  0  0  0  0  0  0
    8.7799  -16.4726   24.3335 N   0  0  0  0  0  0  0  0  0  0  0  0
    9.2367  -14.8500   22.5878 C   0  0  0  0  0  0  0  0  0  0  0  0
    8.8385  -14.2501   21.5558 O   0  0  0  0  0  0  0  0  0  0  0  0
   12.9839  -18.5501   23.9663 N   0  0  0  0  0  0  0  0  0  0  0  0
   11.8174  -18.3910   23.1851 C   0  0  0  0  0  0  0  0  0  0  0  0
   11.4828  -19.2071   22.3038 O   0  0  0  0  0  0  0  0  0  0  0  0
   10.9916  -17.1933   23.4599 C   0  0  0  0  0  0  0  0  0  0  0  0
   11.4558  -16.0636   22.5991 C   0  0  2  0  0  0  0  0  0  0  0  0
   10.6173  -14.8959   22.8651 N   0  0  0  0  0  0  0  0  0  0  0  0
   11.3598  -16.3278   21.1463 C   0  0  0  0  0  0  0  0  0  0  0  0
   12.3789  -16.2375   20.3779 O   0  0  0  0  0  0  0  0  0  0  0  0
   10.1839  -16.6915   20.4910 O   0  0  0  0  0  0  0  0  0  0  0  0
  2  3  1  0
  2  1  1  6
  4  3  1  0
  5  4  2  0
  6  5  1  0
  7  8  1  0
  7  6  2  0
  8  9  2  0
  9  4  1  0
 10 11  2  0
 10  2  1  0
 13 12  1  0
 14 13  1  0
 15 14  1  0
 16 15  1  1
 16 17  1  0
 17 10  1  0
 18 25  1  0
 18 16  1  0
 19 18  2  0
 20 21  1  0
 21 22  2  0
 23 21  1  0
 24 23  1  1
 24 25  1  0
 26 24  1  0
 26 28  1  0
 27 26  2  0
M  END
$$$$
