FMN.pdb
     RDKit          3D

 28 28  0  0  1  0  0  0  0  0999 V2000
    6.3273  -17.6410   25.3123 N   0  0  0  0  0  0  0  0  0  0  0  0
    6.9477  -16.4031   24.9069 C   0  0  1  0  0  0  0  0  0  0  0  0
    7.8566  -15.9220   25.9979 C   0  0  0  0  0  0  0  0  0  0  0  0
    7.7132  -14.4635   26.1444 C   0  0  0  0  0  0  0  0  0  0  0  0
    6.5020  -13.8620   26.4248 C   0  0  0  0  0  0  0  0  0  0  0  0
    6.3957  -12.4796   26.5584 C   0  0  0  0  0  0  0  0  0  0  0  0
    7.5078  -11.6746   26.4121 C   0  0  0  0  0  0  0  0  0  0  0  0
    8.7033  -12.2618   26.1358 C   0  0  0  0  0  0  0  0  0  0  0  0
    8.8065  -13.6283   26.0042 C   0  0  0  0  0  0  0  0  0  0  0  0
    7.5971  -16.5984   23.6107 C   0  0  0  0  0  0  0  0  0  0  0  0
    8.0270  -17.7613   23.3372 O   0  0  0  0  0  0  0  0  0  0  0  0
    8.1538  -12.0510   19.2772 C   0  0  0  0  0  0  0  0  0  0  0  0
    6.5249  -12.7642   19.6263 S   0  0  0  0  0  0  0  0  0  0  0  0
    6.7586  -14.1970   20.7224 C   0  0  0  0  0  0  0  0  0  0  0  0
    8.0936  -14.8176   20.3695 C   0  0  0  0  0  0  0  0  0  0  0  0
    8.3974  -15.9073   21.3589 C   0  0  2  0  0  0  0  0  0  0  0  0
    7.7890  -15.6060   22.6343 N   0  0  0  0  0  0  0  0  0  0  0  0
    9.8406  -16.2012   21.4832 C   0  0  0  0  0  0  0  0  0  0  0  0
   10.3821  -16.8645   20.5610 O   0  0  0  0  0  0  0  0  0  0  0  0
   12.9269  -14.1400   19.8898 N   0  0  0  0  0  0  0  0  0  0  0  0
   13.1334  -15.2339   20.7599 C   0  0  0  0  0  0  0  0  0  0  0  0
   13.5208  -16.3485   20.3571 O   0  0  0  0  0  0  0  0  0  0  0  0
   12.8665  -14.9996   22.1971 C   0  0  0  0  0  0  0  0  0  0  0  0
   12.0365  -16.1194   22.7357 C   0  0  2  0  0  0  0  0  0  0  0  0
   10.6246  -15.7766   22.5742 N   0  0  0  0  0  0  0  0  0  0  0  0
   12.2414  -16.3889   24.1761 C   0  0  0  0  0  0  0  0  0  0  0  0
   12.9553  -17.3704   24.5815 O   0  0  0  0  0  0  0  0  0  0  0  0
   11.6937  -15.6216   25.2036 O   0  0  0  0  0  0  0  0  0  0  0  0
  2  3  1  0
  2  1  1  1
  4  3  1  0
  5  4  2  0
  6  5  1  0
  7  8  1  0
  7  6  2  0
  8  9  2  0
  9  4  1  0
 10 11  2  0
 10  2  1  0
 13 12  1  0
 14 13  1  0
 15 14  1  0
 16 15  1  6
 16 17  1  0
 17 10  1  0
 18 25  1  0
 18 16  1  0
 19 18  2  0
 20 21  1  0
 21 22  2  0
 23 21  1  0
 24 23  1  1
 24 25  1  0
 26 24  1  0
 26 28  1  0
 27 26  2  0
M  END
$$$$
