FMN.pdb
     RDKit          3D

 28 28  0  0  1  0  0  0  0  0999 V2000
    7.6625  -17.1498   26.8171 N   0  0  0  0  0  0  0  0  0  0  0  0
    6.8203  -16.9823   25.6575 C   0  0  1  0  0  0  0  0  0  0  0  0
    5.7707  -15.9526   25.9501 C   0  0  0  0  0  0  0  0  0  0  0  0
    6.4206  -14.6999   26.3717 C   0  0  0  0  0  0  0  0  0  0  0  0
    5.7424  -13.4986   26.4380 C   0  0  0  0  0  0  0  0  0  0  0  0
    6.3826  -12.3289   26.8408 C   0  0  0  0  0  0  0  0  0  0  0  0
    7.7195  -12.3456   27.1851 C   0  0  0  0  0  0  0  0  0  0  0  0
    8.3923  -13.5262   27.1217 C   0  0  0  0  0  0  0  0  0  0  0  0
    7.7579  -14.6813   26.7233 C   0  0  0  0  0  0  0  0  0  0  0  0
    7.6612  -16.6870   24.4974 C   0  0  0  0  0  0  0  0  0  0  0  0
    8.5799  -17.5150   24.2105 O   0  0  0  0  0  0  0  0  0  0  0  0
    6.5410  -12.3092   19.6397 C   0  0  0  0  0  0  0  0  0  0  0  0
    8.3041  -12.7136   19.5305 S   0  0  0  0  0  0  0  0  0  0  0  0
    8.5555  -14.3514   20.2812 C   0  0  0  0  0  0  0  0  0  0  0  0
    7.7555  -14.3827   21.5659 C   0  0  0  0  0  0  0  0  0  0  0  0
    8.3686  -15.3941   22.4933 C   0  0  2  0  0  0  0  0  0  0  0  0
    7.5417  -15.5599   23.6665 N   0  0  0  0  0  0  0  0  0  0  0  0
    9.7751  -15.0975   22.8376 C   0  0  0  0  0  0  0  0  0  0  0  0
   10.0177  -14.6984   24.0061 O   0  0  0  0  0  0  0  0  0  0  0  0
   14.4358  -16.0326   23.5695 N   0  0  0  0  0  0  0  0  0  0  0  0
   13.3620  -16.7371   24.1584 C   0  0  0  0  0  0  0  0  0  0  0  0
   13.5026  -17.4528   25.1698 O   0  0  0  0  0  0  0  0  0  0  0  0
   12.0371  -16.5889   23.5146 C   0  0  0  0  0  0  0  0  0  0  0  0
   12.1682  -15.7202   22.3060 C   0  0  2  0  0  0  0  0  0  0  0  0
   10.8403  -15.2407   21.9265 N   0  0  0  0  0  0  0  0  0  0  0  0
   12.7209  -16.4100   21.1192 C   0  0  0  0  0  0  0  0  0  0  0  0
   12.0482  -17.2908   20.4797 O   0  0  0  0  0  0  0  0  0  0  0  0
   13.9916  -16.1742   20.5957 O   0  0  0  0  0  0  0  0  0  0  0  0
  2  3  1  0
  2  1  1  1
  4  3  1  0
  5  4  2  0
  6  5  1  0
  7  8  1  0
  7  6  2  0
  8  9  2  0
  9  4  1  0
 10 11  2  0
 10  2  1  0
 13 12  1  0
 14 13  1  0
 15 14  1  0
 16 15  1  6
 16 17  1  0
 17 10  1  0
 18 25  1  0
 18 16  1  0
 19 18  2  0
 20 21  1  0
 21 22  2  0
 23 21  1  0
 24 23  1  1
 24 25  1  0
 26 24  1  0
 26 28  1  0
 27 26  2  0
M  END
$$$$
