FMN.pdb
     RDKit          3D

 28 28  0  0  1  0  0  0  0  0999 V2000
    7.3043  -17.7602   20.5565 N   0  0  0  0  0  0  0  0  0  0  0  0
    6.5542  -17.3210   21.7081 C   0  0  1  0  0  0  0  0  0  0  0  0
    5.9345  -18.5092   22.3804 C   0  0  0  0  0  0  0  0  0  0  0  0
    4.5186  -18.6087   21.9871 C   0  0  0  0  0  0  0  0  0  0  0  0
    3.5613  -19.1811   22.8014 C   0  0  0  0  0  0  0  0  0  0  0  0
    2.2288  -19.2614   22.4037 C   0  0  0  0  0  0  0  0  0  0  0  0
    1.8334  -18.7666   21.1770 C   0  0  0  0  0  0  0  0  0  0  0  0
    2.7723  -18.2017   20.3708 C   0  0  0  0  0  0  0  0  0  0  0  0
    4.0888  -18.1232   20.7656 C   0  0  0  0  0  0  0  0  0  0  0  0
    7.4257  -16.5178   22.5656 C   0  0  0  0  0  0  0  0  0  0  0  0
    8.6742  -16.5580   22.3382 O   0  0  0  0  0  0  0  0  0  0  0  0
    5.7171  -12.2900   27.2468 C   0  0  0  0  0  0  0  0  0  0  0  0
    7.3754  -11.7164   26.7939 S   0  0  0  0  0  0  0  0  0  0  0  0
    8.2535  -13.0974   25.9996 C   0  0  0  0  0  0  0  0  0  0  0  0
    7.2372  -13.8599   25.1764 C   0  0  0  0  0  0  0  0  0  0  0  0
    7.9423  -14.9618   24.4366 C   0  0  2  0  0  0  0  0  0  0  0  0
    7.0007  -15.7000   23.6266 N   0  0  0  0  0  0  0  0  0  0  0  0
    8.7360  -15.8451   25.3168 C   0  0  0  0  0  0  0  0  0  0  0  0
    9.6898  -15.3283   25.9546 O   0  0  0  0  0  0  0  0  0  0  0  0
    6.2521  -19.8020   26.1511 N   0  0  0  0  0  0  0  0  0  0  0  0
    7.3698  -19.4220   26.9273 C   0  0  0  0  0  0  0  0  0  0  0  0
    7.2693  -19.0545   28.1145 O   0  0  0  0  0  0  0  0  0  0  0  0
    8.6912  -19.4787   26.2621 C   0  0  0  0  0  0  0  0  0  0  0  0
    9.3078  -18.1176   26.2687 C   0  0  2  0  0  0  0  0  0  0  0  0
    8.4738  -17.2209   25.4701 N   0  0  0  0  0  0  0  0  0  0  0  0
   10.6651  -18.0629   25.6821 C   0  0  0  0  0  0  0  0  0  0  0  0
   10.8697  -18.2857   24.4388 O   0  0  0  0  0  0  0  0  0  0  0  0
   11.8211  -17.7706   26.4051 O   0  0  0  0  0  0  0  0  0  0  0  0
  2  3  1  0
  2  1  1  6
  4  3  1  0
  5  4  2  0
  6  5  1  0
  7  8  1  0
  7  6  2  0
  8  9  2  0
  9  4  1  0
 10 11  2  0
 10  2  1  0
 13 12  1  0
 14 13  1  0
 15 14  1  0
 16 15  1  1
 16 17  1  0
 17 10  1  0
 18 25  1  0
 18 16  1  0
 19 18  2  0
 20 21  1  0
 21 22  2  0
 23 21  1  0
 24 23  1  6
 24 25  1  0
 26 24  1  0
 26 28  1  0
 27 26  2  0
M  END
$$$$
