FMN.pdb
     RDKit          3D

 28 28  0  0  1  0  0  0  0  0999 V2000
    6.5080  -17.3024   25.9521 N   0  0  0  0  0  0  0  0  0  0  0  0
    7.0249  -16.1707   25.2215 C   0  0  1  0  0  0  0  0  0  0  0  0
    8.1302  -15.5335   26.0090 C   0  0  0  0  0  0  0  0  0  0  0  0
    7.7674  -14.1402   26.3194 C   0  0  0  0  0  0  0  0  0  0  0  0
    6.4943  -13.6435   26.1197 C   0  0  0  0  0  0  0  0  0  0  0  0
    6.1791  -12.3209   26.4227 C   0  0  0  0  0  0  0  0  0  0  0  0
    7.1405  -11.4714   26.9329 C   0  0  0  0  0  0  0  0  0  0  0  0
    8.3962  -11.9555   27.1315 C   0  0  0  0  0  0  0  0  0  0  0  0
    8.7058  -13.2630   26.8316 C   0  0  0  0  0  0  0  0  0  0  0  0
    7.4029  -16.6048   23.8766 C   0  0  0  0  0  0  0  0  0  0  0  0
    7.5709  -17.8487   23.6853 O   0  0  0  0  0  0  0  0  0  0  0  0
    8.0317  -12.4836   18.8332 C   0  0  0  0  0  0  0  0  0  0  0  0
    7.8192  -12.5803   20.6303 S   0  0  0  0  0  0  0  0  0  0  0  0
    6.9202  -14.1152   21.0111 C   0  0  0  0  0  0  0  0  0  0  0  0
    7.7094  -15.2576   20.4079 C   0  0  0  0  0  0  0  0  0  0  0  0
    7.9636  -16.2860   21.4740 C   0  0  2  0  0  0  0  0  0  0  0  0
    7.5983  -15.7613   22.7697 N   0  0  0  0  0  0  0  0  0  0  0  0
    9.3410  -16.8219   21.4556 C   0  0  0  0  0  0  0  0  0  0  0  0
    9.7164  -17.4299   20.4198 O   0  0  0  0  0  0  0  0  0  0  0  0
   14.2911  -16.9853   22.2261 N   0  0  0  0  0  0  0  0  0  0  0  0
   13.7419  -15.7958   21.6972 C   0  0  0  0  0  0  0  0  0  0  0  0
   14.4398  -14.9196   21.1492 O   0  0  0  0  0  0  0  0  0  0  0  0
   12.2764  -15.6274   21.8216 C   0  0  0  0  0  0  0  0  0  0  0  0
   11.6836  -16.8672   22.4085 C   0  0  2  0  0  0  0  0  0  0  0  0
   10.2386  -16.6829   22.5328 N   0  0  0  0  0  0  0  0  0  0  0  0
   12.1830  -17.1974   23.7616 C   0  0  0  0  0  0  0  0  0  0  0  0
   12.4214  -18.4041   24.1142 O   0  0  0  0  0  0  0  0  0  0  0  0
   12.4367  -16.2537   24.7563 O   0  0  0  0  0  0  0  0  0  0  0  0
  2  3  1  0
  2  1  1  1
  4  3  1  0
  5  4  2  0
  6  5  1  0
  7  8  1  0
  7  6  2  0
  8  9  2  0
  9  4  1  0
 10 11  2  0
 10  2  1  0
 13 12  1  0
 14 13  1  0
 15 14  1  0
 16 15  1  6
 16 17  1  0
 17 10  1  0
 18 25  1  0
 18 16  1  0
 19 18  2  0
 20 21  1  0
 21 22  2  0
 23 21  1  0
 24 23  1  1
 24 25  1  0
 26 24  1  0
 26 28  1  0
 27 26  2  0
M  END
$$$$
