IKR.pdb
     RDKit          3D

 29 28  0  0  1  0  0  0  0  0999 V2000
   29.8386  -20.2481  -12.3634 C   0  0  0  0  0  0  0  0  0  0  0  0
   28.7213  -21.1863  -11.9863 C   0  0  0  0  0  0  0  0  0  0  0  0
   27.3674  -20.6071  -12.2419 C   0  0  2  0  0  0  0  0  0  0  0  0
   27.2030  -19.3893  -11.3419 C   0  0  0  0  0  0  0  0  0  0  0  0
   26.2222  -21.5164  -11.9834 C   0  0  2  0  0  0  0  0  0  0  0  0
   26.3337  -22.7397  -12.7424 N   0  0  0  0  0  0  0  0  0  0  0  0
   24.8954  -20.9118  -12.2617 C   0  0  0  0  0  0  0  0  0  0  0  0
   24.4026  -19.9840  -11.5675 O   0  0  0  0  0  0  0  0  0  0  0  0
   24.1222  -21.3772  -13.3506 N   0  0  0  0  0  0  0  0  0  0  0  0
   22.8043  -20.8468  -13.6953 C   0  0  1  0  0  0  0  0  0  0  0  0
   22.7869  -20.2862  -15.0662 C   0  0  0  0  0  0  0  0  0  0  0  0
   21.5179  -19.7250  -15.5682 C   0  0  0  0  0  0  0  0  0  0  0  0
   21.4670  -19.2489  -16.9703 C   0  0  0  0  0  0  0  0  0  0  0  0
   20.0790  -18.7067  -17.2485 C   0  0  0  0  0  0  0  0  0  0  0  0
   20.1078  -18.1182  -18.5943 N   0  0  0  0  0  0  0  0  0  0  0  0
   21.7189  -21.7350  -13.3077 C   0  0  0  0  0  0  0  0  0  0  0  0
   21.8219  -22.9605  -13.5832 O   0  0  0  0  0  0  0  0  0  0  0  0
   18.8611  -24.6622   -6.2516 N   0  0  0  0  0  0  0  0  0  0  0  0
   18.0000  -25.1774   -7.2367 C   0  0  0  0  0  0  0  0  0  0  0  0
   17.4144  -26.3250   -7.0716 N   0  0  0  0  0  0  0  0  0  0  0  0
   17.7400  -24.4649   -8.4420 N   0  0  0  0  0  0  0  0  0  0  0  0
   18.6969  -23.5236   -8.9975 C   0  0  0  0  0  0  0  0  0  0  0  0
   18.0710  -22.8009  -10.2076 C   0  0  0  0  0  0  0  0  0  0  0  0
   19.0762  -21.9012  -10.8247 C   0  0  0  0  0  0  0  0  0  0  0  0
   19.5318  -22.3390  -12.2281 C   0  0  2  0  0  0  0  0  0  0  0  0
   20.5443  -21.3349  -12.6305 N   0  0  0  0  0  0  0  0  0  0  0  0
   18.3393  -22.3015  -13.0913 C   0  0  0  0  0  0  0  0  0  0  0  0
   17.4737  -23.3848  -13.1370 O   0  0  0  0  0  0  0  0  0  0  0  0
   18.0316  -21.3299  -13.8197 O   0  0  0  0  0  0  0  0  0  0  0  0
  2  1  1  0
  3  5  1  0
  3  2  1  0
  3  4  1  1
  5  7  1  0
  5  6  1  6
  7  8  2  0
  9 10  1  0
  9  7  1  0
 11 12  1  0
 10 11  1  6
 12 13  1  0
 13 14  1  0
 14 15  1  0
 16 10  1  0
 16 17  2  0
 18 19  1  0
 19 21  1  0
 20 19  2  0
 21 22  1  0
 22 23  1  0
 23 24  1  0
 25 24  1  1
 25 26  1  0
 25 27  1  0
 26 16  1  0
 27 29  2  0
 27 28  1  0
M  END
$$$$
