IKR.pdb
     RDKit          3D

 29 28  0  0  1  0  0  0  0  0999 V2000
   25.3532  -27.7128  -17.5445 C   0  0  0  0  0  0  0  0  0  0  0  0
   25.2043  -26.2145  -17.6044 C   0  0  0  0  0  0  0  0  0  0  0  0
   24.3884  -25.6679  -16.4778 C   0  0  2  0  0  0  0  0  0  0  0  0
   22.9209  -25.7646  -16.8743 C   0  0  0  0  0  0  0  0  0  0  0  0
   24.6645  -24.2551  -16.1129 C   0  0  2  0  0  0  0  0  0  0  0  0
   26.0249  -24.0794  -15.6622 N   0  0  0  0  0  0  0  0  0  0  0  0
   23.7533  -23.7093  -15.0761 C   0  0  0  0  0  0  0  0  0  0  0  0
   23.7612  -24.0988  -13.8787 O   0  0  0  0  0  0  0  0  0  0  0  0
   22.8194  -22.7031  -15.4163 N   0  0  0  0  0  0  0  0  0  0  0  0
   21.8616  -22.1321  -14.4711 C   0  0  1  0  0  0  0  0  0  0  0  0
   21.4228  -20.7817  -14.8928 C   0  0  0  0  0  0  0  0  0  0  0  0
   20.3457  -20.1319  -14.1215 C   0  0  0  0  0  0  0  0  0  0  0  0
   20.6931  -19.4960  -12.8292 C   0  0  0  0  0  0  0  0  0  0  0  0
   19.4139  -19.0551  -12.1459 C   0  0  0  0  0  0  0  0  0  0  0  0
   19.7932  -18.4906  -10.8437 N   0  0  0  0  0  0  0  0  0  0  0  0
   20.8407  -23.0829  -14.0575 C   0  0  0  0  0  0  0  0  0  0  0  0
   20.2081  -23.7072  -14.9510 O   0  0  0  0  0  0  0  0  0  0  0  0
   18.7580  -25.5203   -5.9236 N   0  0  0  0  0  0  0  0  0  0  0  0
   17.8022  -24.8636   -6.7189 C   0  0  0  0  0  0  0  0  0  0  0  0
   16.8505  -24.1680   -6.1735 N   0  0  0  0  0  0  0  0  0  0  0  0
   17.8428  -24.9362   -8.1405 N   0  0  0  0  0  0  0  0  0  0  0  0
   18.8136  -25.7613   -8.8384 C   0  0  0  0  0  0  0  0  0  0  0  0
   18.6160  -25.6190  -10.3612 C   0  0  0  0  0  0  0  0  0  0  0  0
   19.5126  -24.5583  -10.8827 C   0  0  0  0  0  0  0  0  0  0  0  0
   19.4683  -24.3961  -12.4126 C   0  0  2  0  0  0  0  0  0  0  0  0
   20.4989  -23.3762  -12.7175 N   0  0  0  0  0  0  0  0  0  0  0  0
   18.1119  -23.9329  -12.7502 C   0  0  0  0  0  0  0  0  0  0  0  0
   17.6842  -22.6729  -12.3573 O   0  0  0  0  0  0  0  0  0  0  0  0
   17.2772  -24.6145  -13.3889 O   0  0  0  0  0  0  0  0  0  0  0  0
  2  1  1  0
  3  5  1  0
  3  2  1  0
  3  4  1  6
  5  7  1  0
  5  6  1  1
  7  8  2  0
  9 10  1  0
  9  7  1  0
 11 12  1  0
 10 11  1  6
 12 13  1  0
 13 14  1  0
 14 15  1  0
 16 10  1  0
 16 17  2  0
 18 19  1  0
 19 21  1  0
 20 19  2  0
 21 22  1  0
 22 23  1  0
 23 24  1  0
 25 24  1  1
 25 26  1  0
 25 27  1  0
 26 16  1  0
 27 29  2  0
 27 28  1  0
M  END
$$$$
