IKR.pdb
     RDKit          3D

 29 28  0  0  1  0  0  0  0  0999 V2000
   27.8400  -19.2268   -7.6600 C   0  0  0  0  0  0  0  0  0  0  0  0
   27.3873  -20.4533   -8.4094 C   0  0  0  0  0  0  0  0  0  0  0  0
   26.3326  -20.1549   -9.4255 C   0  0  2  0  0  0  0  0  0  0  0  0
   25.0824  -19.7031   -8.6819 C   0  0  0  0  0  0  0  0  0  0  0  0
   25.9494  -21.2894  -10.3037 C   0  0  2  0  0  0  0  0  0  0  0  0
   27.1076  -21.9217  -10.8900 N   0  0  0  0  0  0  0  0  0  0  0  0
   25.0145  -20.9197  -11.3957 C   0  0  0  0  0  0  0  0  0  0  0  0
   23.8315  -20.5406  -11.1900 O   0  0  0  0  0  0  0  0  0  0  0  0
   25.4411  -20.9857  -12.7425 N   0  0  0  0  0  0  0  0  0  0  0  0
   24.5831  -20.6655  -13.8819 C   0  0  1  0  0  0  0  0  0  0  0  0
   25.3492  -20.6474  -15.1495 C   0  0  0  0  0  0  0  0  0  0  0  0
   24.6384  -20.2566  -16.3821 C   0  0  0  0  0  0  0  0  0  0  0  0
   24.2999  -18.8270  -16.5738 C   0  0  0  0  0  0  0  0  0  0  0  0
   23.6147  -18.6664  -17.9164 C   0  0  0  0  0  0  0  0  0  0  0  0
   24.6723  -18.5770  -18.9322 N   0  0  0  0  0  0  0  0  0  0  0  0
   23.3200  -21.3877  -13.8585 C   0  0  0  0  0  0  0  0  0  0  0  0
   23.3511  -22.6431  -13.7518 O   0  0  0  0  0  0  0  0  0  0  0  0
   19.0068  -24.2466   -8.0597 N   0  0  0  0  0  0  0  0  0  0  0  0
   19.1164  -25.0635   -9.1991 C   0  0  0  0  0  0  0  0  0  0  0  0
   19.1087  -26.3578   -9.0906 N   0  0  0  0  0  0  0  0  0  0  0  0
   19.2383  -24.5056  -10.5037 N   0  0  0  0  0  0  0  0  0  0  0  0
   19.1961  -23.0715  -10.7310 C   0  0  0  0  0  0  0  0  0  0  0  0
   19.3446  -22.7806  -12.2382 C   0  0  0  0  0  0  0  0  0  0  0  0
   20.5982  -22.0244  -12.4783 C   0  0  0  0  0  0  0  0  0  0  0  0
   20.8208  -21.6305  -13.9493 C   0  0  2  0  0  0  0  0  0  0  0  0
   22.0413  -20.7905  -13.9383 N   0  0  0  0  0  0  0  0  0  0  0  0
   19.6297  -20.8736  -14.3698 C   0  0  0  0  0  0  0  0  0  0  0  0
   18.4154  -21.5207  -14.5474 O   0  0  0  0  0  0  0  0  0  0  0  0
   19.6249  -19.6406  -14.5911 O   0  0  0  0  0  0  0  0  0  0  0  0
  2  1  1  0
  3  5  1  0
  3  2  1  0
  3  4  1  1
  5  7  1  0
  5  6  1  6
  7  8  2  0
  9 10  1  0
  9  7  1  0
 11 12  1  0
 10 11  1  6
 12 13  1  0
 13 14  1  0
 14 15  1  0
 16 10  1  0
 16 17  2  0
 18 19  1  0
 19 21  1  0
 20 19  2  0
 21 22  1  0
 22 23  1  0
 23 24  1  0
 25 24  1  1
 25 26  1  0
 25 27  1  0
 26 16  1  0
 27 29  2  0
 27 28  1  0
M  END
$$$$
