IKR.pdb
     RDKit          3D

 29 28  0  0  1  0  0  0  0  0999 V2000
   26.7972  -19.3337   -8.6748 C   0  0  0  0  0  0  0  0  0  0  0  0
   26.4584  -19.7764  -10.0748 C   0  0  0  0  0  0  0  0  0  0  0  0
   26.2301  -21.2499  -10.1772 C   0  0  2  0  0  0  0  0  0  0  0  0
   27.5099  -21.9520   -9.7420 C   0  0  0  0  0  0  0  0  0  0  0  0
   25.8785  -21.7515  -11.5300 C   0  0  2  0  0  0  0  0  0  0  0  0
   26.9502  -21.5325  -12.4726 N   0  0  0  0  0  0  0  0  0  0  0  0
   24.6356  -21.1632  -12.0888 C   0  0  0  0  0  0  0  0  0  0  0  0
   23.5651  -21.0654  -11.4331 O   0  0  0  0  0  0  0  0  0  0  0  0
   24.6191  -20.6803  -13.4180 N   0  0  0  0  0  0  0  0  0  0  0  0
   23.4090  -20.2273  -14.1016 C   0  0  1  0  0  0  0  0  0  0  0  0
   23.7131  -19.7061  -15.4544 C   0  0  0  0  0  0  0  0  0  0  0  0
   22.6188  -19.0706  -16.2132 C   0  0  0  0  0  0  0  0  0  0  0  0
   22.0124  -17.8338  -15.6677 C   0  0  0  0  0  0  0  0  0  0  0  0
   20.9369  -17.3579  -16.6241 C   0  0  0  0  0  0  0  0  0  0  0  0
   20.3613  -16.1338  -16.0511 N   0  0  0  0  0  0  0  0  0  0  0  0
   22.2995  -21.1585  -13.9629 C   0  0  0  0  0  0  0  0  0  0  0  0
   22.5275  -22.3878  -14.1215 O   0  0  0  0  0  0  0  0  0  0  0  0
   16.4861  -24.1129   -9.2221 N   0  0  0  0  0  0  0  0  0  0  0  0
   17.4583  -25.1173   -9.3756 C   0  0  0  0  0  0  0  0  0  0  0  0
   17.1522  -26.3682   -9.2058 N   0  0  0  0  0  0  0  0  0  0  0  0
   18.8035  -24.8022   -9.7207 N   0  0  0  0  0  0  0  0  0  0  0  0
   19.2317  -23.4360   -9.9664 C   0  0  0  0  0  0  0  0  0  0  0  0
   18.9658  -23.0662  -11.4398 C   0  0  0  0  0  0  0  0  0  0  0  0
   20.0772  -22.2268  -11.9509 C   0  0  0  0  0  0  0  0  0  0  0  0
   19.9393  -21.8392  -13.4340 C   0  0  2  0  0  0  0  0  0  0  0  0
   20.9689  -20.7963  -13.6524 N   0  0  0  0  0  0  0  0  0  0  0  0
   18.5738  -21.3168  -13.6099 C   0  0  0  0  0  0  0  0  0  0  0  0
   17.5079  -22.1876  -13.7835 O   0  0  0  0  0  0  0  0  0  0  0  0
   18.2854  -20.0977  -13.6175 O   0  0  0  0  0  0  0  0  0  0  0  0
  2  1  1  0
  3  5  1  0
  3  2  1  0
  3  4  1  6
  5  7  1  0
  5  6  1  6
  7  8  2  0
  9 10  1  0
  9  7  1  0
 11 12  1  0
 10 11  1  6
 12 13  1  0
 13 14  1  0
 14 15  1  0
 16 10  1  0
 16 17  2  0
 18 19  1  0
 19 21  1  0
 20 19  2  0
 21 22  1  0
 22 23  1  0
 23 24  1  0
 25 24  1  1
 25 26  1  0
 25 27  1  0
 26 16  1  0
 27 29  2  0
 27 28  1  0
M  END
$$$$
