IKR.pdb
     RDKit          3D

 29 28  0  0  1  0  0  0  0  0999 V2000
   26.0253  -12.4842  -17.6418 C   0  0  0  0  0  0  0  0  0  0  0  0
   25.6901  -13.4134  -16.5038 C   0  0  0  0  0  0  0  0  0  0  0  0
   25.3778  -14.8013  -16.9619 C   0  0  2  0  0  0  0  0  0  0  0  0
   24.1812  -14.7248  -17.9012 C   0  0  0  0  0  0  0  0  0  0  0  0
   25.0462  -15.7714  -15.8876 C   0  0  2  0  0  0  0  0  0  0  0  0
   26.1546  -15.9598  -14.9816 N   0  0  0  0  0  0  0  0  0  0  0  0
   24.6171  -17.1021  -16.3860 C   0  0  0  0  0  0  0  0  0  0  0  0
   23.7352  -17.2537  -17.2718 O   0  0  0  0  0  0  0  0  0  0  0  0
   25.2068  -18.2758  -15.8616 N   0  0  0  0  0  0  0  0  0  0  0  0
   24.8631  -19.6250  -16.3068 C   0  0  1  0  0  0  0  0  0  0  0  0
   25.9733  -20.5752  -16.0649 C   0  0  0  0  0  0  0  0  0  0  0  0
   25.7797  -21.9821  -16.4656 C   0  0  0  0  0  0  0  0  0  0  0  0
   26.8567  -22.9530  -16.1617 C   0  0  0  0  0  0  0  0  0  0  0  0
   26.4459  -24.3139  -16.6880 C   0  0  0  0  0  0  0  0  0  0  0  0
   27.4845  -25.2674  -16.2751 N   0  0  0  0  0  0  0  0  0  0  0  0
   23.5224  -20.0269  -15.9089 C   0  0  0  0  0  0  0  0  0  0  0  0
   23.0933  -19.6482  -14.7860 O   0  0  0  0  0  0  0  0  0  0  0  0
   18.7949  -23.4867  -10.4761 N   0  0  0  0  0  0  0  0  0  0  0  0
   18.3484  -23.7215  -11.7887 C   0  0  0  0  0  0  0  0  0  0  0  0
   17.5362  -24.7015  -12.0478 N   0  0  0  0  0  0  0  0  0  0  0  0
   18.7668  -22.8994  -12.8736 N   0  0  0  0  0  0  0  0  0  0  0  0
   20.0088  -22.1472  -12.8305 C   0  0  0  0  0  0  0  0  0  0  0  0
   20.0618  -21.1650  -14.0184 C   0  0  0  0  0  0  0  0  0  0  0  0
   21.3373  -21.3426  -14.7548 C   0  0  0  0  0  0  0  0  0  0  0  0
   21.2430  -21.0250  -16.2578 C   0  0  2  0  0  0  0  0  0  0  0  0
   22.6438  -20.8112  -16.6907 N   0  0  0  0  0  0  0  0  0  0  0  0
   20.4308  -19.8030  -16.3821 C   0  0  0  0  0  0  0  0  0  0  0  0
   20.9995  -18.5581  -16.1551 O   0  0  0  0  0  0  0  0  0  0  0  0
   19.2159  -19.7969  -16.6875 O   0  0  0  0  0  0  0  0  0  0  0  0
  2  1  1  0
  3  5  1  0
  3  2  1  0
  3  4  1  6
  5  7  1  0
  5  6  1  1
  7  8  2  0
  9 10  1  0
  9  7  1  0
 11 12  1  0
 10 11  1  1
 12 13  1  0
 13 14  1  0
 14 15  1  0
 16 10  1  0
 16 17  2  0
 18 19  1  0
 19 21  1  0
 20 19  2  0
 21 22  1  0
 22 23  1  0
 23 24  1  0
 25 24  1  1
 25 26  1  0
 25 27  1  0
 26 16  1  0
 27 29  2  0
 27 28  1  0
M  END
$$$$
