IKR.pdb
     RDKit          3D

 29 28  0  0  1  0  0  0  0  0999 V2000
   23.0058  -32.0176  -14.8581 C   0  0  0  0  0  0  0  0  0  0  0  0
   21.6366  -31.3884  -14.8607 C   0  0  0  0  0  0  0  0  0  0  0  0
   21.5973  -30.0834  -14.1332 C   0  0  2  0  0  0  0  0  0  0  0  0
   21.9369  -30.3525  -12.6730 C   0  0  0  0  0  0  0  0  0  0  0  0
   20.2961  -29.3686  -14.1690 C   0  0  2  0  0  0  0  0  0  0  0  0
   19.9654  -28.9344  -15.5058 N   0  0  0  0  0  0  0  0  0  0  0  0
   20.2265  -28.1939  -13.2642 C   0  0  0  0  0  0  0  0  0  0  0  0
   20.4779  -28.2584  -12.0321 O   0  0  0  0  0  0  0  0  0  0  0  0
   19.8635  -26.9275  -13.7786 N   0  0  0  0  0  0  0  0  0  0  0  0
   19.7286  -25.7262  -12.9567 C   0  0  1  0  0  0  0  0  0  0  0  0
   19.8022  -24.4959  -13.7782 C   0  0  0  0  0  0  0  0  0  0  0  0
   19.5257  -23.2056  -13.1181 C   0  0  0  0  0  0  0  0  0  0  0  0
   19.6872  -21.9635  -13.9095 C   0  0  0  0  0  0  0  0  0  0  0  0
   19.3252  -20.7799  -13.0343 C   0  0  0  0  0  0  0  0  0  0  0  0
   19.4884  -19.5717  -13.8539 N   0  0  0  0  0  0  0  0  0  0  0  0
   18.6576  -25.8293  -11.9770 C   0  0  0  0  0  0  0  0  0  0  0  0
   17.4895  -26.0591  -12.3904 O   0  0  0  0  0  0  0  0  0  0  0  0
   16.5255  -26.8540   -4.3433 N   0  0  0  0  0  0  0  0  0  0  0  0
   17.8518  -26.4062   -4.2096 C   0  0  0  0  0  0  0  0  0  0  0  0
   18.6378  -26.9194   -3.3118 N   0  0  0  0  0  0  0  0  0  0  0  0
   18.3778  -25.3820   -5.0476 N   0  0  0  0  0  0  0  0  0  0  0  0
   17.5592  -24.7088   -6.0410 C   0  0  0  0  0  0  0  0  0  0  0  0
   17.2139  -25.6898   -7.1798 C   0  0  0  0  0  0  0  0  0  0  0  0
   18.2187  -25.5674   -8.2643 C   0  0  0  0  0  0  0  0  0  0  0  0
   17.6523  -25.8120   -9.6743 C   0  0  2  0  0  0  0  0  0  0  0  0
   18.8204  -25.6996  -10.5788 N   0  0  0  0  0  0  0  0  0  0  0  0
   16.6564  -24.7554   -9.9197 C   0  0  0  0  0  0  0  0  0  0  0  0
   15.3019  -25.0263   -9.7913 O   0  0  0  0  0  0  0  0  0  0  0  0
   16.9462  -23.5824  -10.2508 O   0  0  0  0  0  0  0  0  0  0  0  0
  2  1  1  0
  3  5  1  0
  3  2  1  0
  3  4  1  1
  5  7  1  0
  5  6  1  6
  7  8  2  0
  9 10  1  0
  9  7  1  0
 11 12  1  0
 10 11  1  6
 12 13  1  0
 13 14  1  0
 14 15  1  0
 16 10  1  0
 16 17  2  0
 18 19  1  0
 19 21  1  0
 20 19  2  0
 21 22  1  0
 22 23  1  0
 23 24  1  0
 25 24  1  1
 25 26  1  0
 25 27  1  0
 26 16  1  0
 27 29  2  0
 27 28  1  0
M  END
$$$$
