IKR.pdb
     RDKit          3D

 29 28  0  0  1  0  0  0  0  0999 V2000
   29.3797  -20.2971  -12.5486 C   0  0  0  0  0  0  0  0  0  0  0  0
   28.2839  -21.3249  -12.6652 C   0  0  0  0  0  0  0  0  0  0  0  0
   26.9204  -20.7413  -12.4811 C   0  0  2  0  0  0  0  0  0  0  0  0
   26.8510  -20.1498  -11.0792 C   0  0  0  0  0  0  0  0  0  0  0  0
   25.7906  -21.6943  -12.6246 C   0  0  2  0  0  0  0  0  0  0  0  0
   25.9473  -22.5319  -13.7902 N   0  0  0  0  0  0  0  0  0  0  0  0
   24.4571  -21.0457  -12.6897 C   0  0  0  0  0  0  0  0  0  0  0  0
   23.8433  -20.6302  -11.6717 O   0  0  0  0  0  0  0  0  0  0  0  0
   23.8176  -20.8710  -13.9390 N   0  0  0  0  0  0  0  0  0  0  0  0
   22.5277  -20.2031  -14.1038 C   0  0  1  0  0  0  0  0  0  0  0  0
   22.5560  -19.2387  -15.2277 C   0  0  0  0  0  0  0  0  0  0  0  0
   21.3209  -18.4893  -15.5277 C   0  0  0  0  0  0  0  0  0  0  0  0
   21.2943  -17.6358  -16.7384 C   0  0  0  0  0  0  0  0  0  0  0  0
   19.9332  -16.9758  -16.8370 C   0  0  0  0  0  0  0  0  0  0  0  0
   19.9717  -16.0800  -18.0008 N   0  0  0  0  0  0  0  0  0  0  0  0
   21.4016  -21.1210  -14.0208 C   0  0  0  0  0  0  0  0  0  0  0  0
   21.4191  -22.1552  -14.7408 O   0  0  0  0  0  0  0  0  0  0  0  0
   18.8627  -25.8644  -10.1842 N   0  0  0  0  0  0  0  0  0  0  0  0
   17.5956  -25.7203   -9.5916 C   0  0  0  0  0  0  0  0  0  0  0  0
   16.9078  -26.7627   -9.2346 N   0  0  0  0  0  0  0  0  0  0  0  0
   17.0248  -24.4359   -9.3624 N   0  0  0  0  0  0  0  0  0  0  0  0
   17.7195  -23.2127   -9.7252 C   0  0  0  0  0  0  0  0  0  0  0  0
   17.9363  -23.1726  -11.2515 C   0  0  0  0  0  0  0  0  0  0  0  0
   18.9072  -22.1028  -11.5886 C   0  0  0  0  0  0  0  0  0  0  0  0
   19.2461  -22.0130  -13.0872 C   0  0  2  0  0  0  0  0  0  0  0  0
   20.2764  -20.9524  -13.1820 N   0  0  0  0  0  0  0  0  0  0  0  0
   18.0015  -21.6417  -13.7812 C   0  0  0  0  0  0  0  0  0  0  0  0
   17.1970  -22.6198  -14.3476 O   0  0  0  0  0  0  0  0  0  0  0  0
   17.5946  -20.4637  -13.9082 O   0  0  0  0  0  0  0  0  0  0  0  0
  2  1  1  0
  3  5  1  0
  3  2  1  0
  3  4  1  1
  5  7  1  0
  5  6  1  6
  7  8  2  0
  9 10  1  0
  9  7  1  0
 11 12  1  0
 10 11  1  6
 12 13  1  0
 13 14  1  0
 14 15  1  0
 16 10  1  0
 16 17  2  0
 18 19  1  0
 19 21  1  0
 20 19  2  0
 21 22  1  0
 22 23  1  0
 23 24  1  0
 25 24  1  1
 25 26  1  0
 25 27  1  0
 26 16  1  0
 27 29  2  0
 27 28  1  0
M  END
$$$$
