IKR.pdb
     RDKit          3D

 29 28  0  0  1  0  0  0  0  0999 V2000
   24.9435  -19.1982  -18.2039 C   0  0  0  0  0  0  0  0  0  0  0  0
   26.2802  -19.2488  -18.8978 C   0  0  0  0  0  0  0  0  0  0  0  0
   26.8364  -20.6334  -18.9834 C   0  0  2  0  0  0  0  0  0  0  0  0
   25.8371  -21.4916  -19.7481 C   0  0  0  0  0  0  0  0  0  0  0  0
   27.1003  -21.2996  -17.6827 C   0  0  2  0  0  0  0  0  0  0  0  0
   27.8894  -20.4640  -16.8087 N   0  0  0  0  0  0  0  0  0  0  0  0
   27.7726  -22.6173  -17.8039 C   0  0  0  0  0  0  0  0  0  0  0  0
   27.3811  -23.5202  -18.5895 O   0  0  0  0  0  0  0  0  0  0  0  0
   28.9096  -22.9048  -17.0133 N   0  0  0  0  0  0  0  0  0  0  0  0
   29.5952  -24.1958  -17.0173 C   0  0  1  0  0  0  0  0  0  0  0  0
   30.9363  -24.0996  -16.3959 C   0  0  0  0  0  0  0  0  0  0  0  0
   31.7968  -25.2981  -16.4179 C   0  0  0  0  0  0  0  0  0  0  0  0
   32.9334  -25.3288  -17.3678 C   0  0  0  0  0  0  0  0  0  0  0  0
   33.5942  -26.6908  -17.2899 C   0  0  0  0  0  0  0  0  0  0  0  0
   34.7398  -26.6673  -18.2093 N   0  0  0  0  0  0  0  0  0  0  0  0
   28.7324  -25.2949  -16.6110 C   0  0  0  0  0  0  0  0  0  0  0  0
   28.1017  -25.1898  -15.5250 O   0  0  0  0  0  0  0  0  0  0  0  0
   21.1095  -26.9937  -15.3567 N   0  0  0  0  0  0  0  0  0  0  0  0
   22.2157  -26.4696  -14.6646 C   0  0  0  0  0  0  0  0  0  0  0  0
   22.0711  -25.9376  -13.4885 N   0  0  0  0  0  0  0  0  0  0  0  0
   23.5251  -26.5032  -15.2235 N   0  0  0  0  0  0  0  0  0  0  0  0
   23.7842  -27.0708  -16.5353 C   0  0  0  0  0  0  0  0  0  0  0  0
   25.1275  -27.8280  -16.5168 C   0  0  0  0  0  0  0  0  0  0  0  0
   26.2364  -26.8815  -16.7915 C   0  0  0  0  0  0  0  0  0  0  0  0
   27.6268  -27.5402  -16.8344 C   0  0  2  0  0  0  0  0  0  0  0  0
   28.5324  -26.4853  -17.3467 N   0  0  0  0  0  0  0  0  0  0  0  0
   27.5259  -28.6822  -17.7586 C   0  0  0  0  0  0  0  0  0  0  0  0
   26.8962  -29.8523  -17.3598 O   0  0  0  0  0  0  0  0  0  0  0  0
   27.9839  -28.6828  -18.9246 O   0  0  0  0  0  0  0  0  0  0  0  0
  2  1  1  0
  3  5  1  0
  3  2  1  0
  3  4  1  6
  5  7  1  0
  5  6  1  1
  7  8  2  0
  9 10  1  0
  9  7  1  0
 11 12  1  0
 10 11  1  1
 12 13  1  0
 13 14  1  0
 14 15  1  0
 16 10  1  0
 16 17  2  0
 18 19  1  0
 19 21  1  0
 20 19  2  0
 21 22  1  0
 22 23  1  0
 23 24  1  0
 25 24  1  6
 25 26  1  0
 25 27  1  0
 26 16  1  0
 27 29  2  0
 27 28  1  0
M  END
$$$$
