IKR.pdb
     RDKit          3D

 29 28  0  0  1  0  0  0  0  0999 V2000
   26.9613  -19.4967  -18.0197 C   0  0  0  0  0  0  0  0  0  0  0  0
   27.4496  -20.5540  -17.0634 C   0  0  0  0  0  0  0  0  0  0  0  0
   27.6196  -21.8890  -17.7133 C   0  0  2  0  0  0  0  0  0  0  0  0
   26.2374  -22.4003  -18.0982 C   0  0  0  0  0  0  0  0  0  0  0  0
   28.2689  -22.9307  -16.8776 C   0  0  2  0  0  0  0  0  0  0  0  0
   29.5616  -22.4991  -16.4006 N   0  0  0  0  0  0  0  0  0  0  0  0
   28.4343  -24.2379  -17.5611 C   0  0  0  0  0  0  0  0  0  0  0  0
   27.5358  -24.7621  -18.2707 O   0  0  0  0  0  0  0  0  0  0  0  0
   29.6463  -24.9547  -17.4294 N   0  0  0  0  0  0  0  0  0  0  0  0
   29.8686  -26.2838  -17.9959 C   0  0  1  0  0  0  0  0  0  0  0  0
   31.2403  -26.4198  -18.5382 C   0  0  0  0  0  0  0  0  0  0  0  0
   31.6030  -27.6920  -19.1917 C   0  0  0  0  0  0  0  0  0  0  0  0
   32.9669  -27.8284  -19.7539 C   0  0  0  0  0  0  0  0  0  0  0  0
   33.1064  -29.2113  -20.3589 C   0  0  0  0  0  0  0  0  0  0  0  0
   34.5075  -29.3608  -20.7745 N   0  0  0  0  0  0  0  0  0  0  0  0
   29.3616  -27.3516  -17.1473 C   0  0  0  0  0  0  0  0  0  0  0  0
   29.7910  -27.4306  -15.9651 O   0  0  0  0  0  0  0  0  0  0  0  0
   21.5349  -29.0397  -17.3736 N   0  0  0  0  0  0  0  0  0  0  0  0
   22.5396  -28.7499  -18.3137 C   0  0  0  0  0  0  0  0  0  0  0  0
   22.2576  -28.6550  -19.5780 N   0  0  0  0  0  0  0  0  0  0  0  0
   23.8927  -28.5508  -17.9168 N   0  0  0  0  0  0  0  0  0  0  0  0
   24.2783  -28.4774  -16.5182 C   0  0  0  0  0  0  0  0  0  0  0  0
   25.8011  -28.2588  -16.4107 C   0  0  0  0  0  0  0  0  0  0  0  0
   26.5090  -29.5256  -16.7190 C   0  0  0  0  0  0  0  0  0  0  0  0
   28.0420  -29.4256  -16.6267 C   0  0  2  0  0  0  0  0  0  0  0  0
   28.4073  -28.3177  -17.5402 N   0  0  0  0  0  0  0  0  0  0  0  0
   28.5788  -30.7195  -17.0809 C   0  0  0  0  0  0  0  0  0  0  0  0
   28.5288  -31.8290  -16.2496 O   0  0  0  0  0  0  0  0  0  0  0  0
   29.1006  -30.9063  -18.2044 O   0  0  0  0  0  0  0  0  0  0  0  0
  2  1  1  0
  3  5  1  0
  3  2  1  0
  3  4  1  1
  5  7  1  0
  5  6  1  6
  7  8  2  0
  9 10  1  0
  9  7  1  0
 11 12  1  0
 10 11  1  1
 12 13  1  0
 13 14  1  0
 14 15  1  0
 16 10  1  0
 16 17  2  0
 18 19  1  0
 19 21  1  0
 20 19  2  0
 21 22  1  0
 22 23  1  0
 23 24  1  0
 25 24  1  6
 25 26  1  0
 25 27  1  0
 26 16  1  0
 27 29  2  0
 27 28  1  0
M  END
$$$$
