IKR.pdb
     RDKit          3D

 29 28  0  0  1  0  0  0  0  0999 V2000
   18.5463  -21.7868  -23.2226 C   0  0  0  0  0  0  0  0  0  0  0  0
   19.9307  -22.2353  -22.8311 C   0  0  0  0  0  0  0  0  0  0  0  0
   19.9634  -22.9228  -21.5045 C   0  0  2  0  0  0  0  0  0  0  0  0
   19.7157  -21.8735  -20.4285 C   0  0  0  0  0  0  0  0  0  0  0  0
   21.2339  -23.6166  -21.1733 C   0  0  2  0  0  0  0  0  0  0  0  0
   21.5201  -24.6766  -22.1112 N   0  0  0  0  0  0  0  0  0  0  0  0
   21.2745  -24.1815  -19.8013 C   0  0  0  0  0  0  0  0  0  0  0  0
   20.6866  -25.2471  -19.4781 O   0  0  0  0  0  0  0  0  0  0  0  0
   21.9986  -23.5158  -18.7851 N   0  0  0  0  0  0  0  0  0  0  0  0
   22.1870  -24.0525  -17.4385 C   0  0  1  0  0  0  0  0  0  0  0  0
   23.5022  -23.6639  -16.8788 C   0  0  0  0  0  0  0  0  0  0  0  0
   24.7150  -24.2065  -17.5207 C   0  0  0  0  0  0  0  0  0  0  0  0
   26.0343  -23.8187  -16.9692 C   0  0  0  0  0  0  0  0  0  0  0  0
   27.1150  -24.2788  -17.9274 C   0  0  0  0  0  0  0  0  0  0  0  0
   28.3942  -23.7772  -17.4076 N   0  0  0  0  0  0  0  0  0  0  0  0
   21.0119  -23.8894  -16.5959 C   0  0  0  0  0  0  0  0  0  0  0  0
   20.4522  -22.7607  -16.5627 O   0  0  0  0  0  0  0  0  0  0  0  0
   15.9407  -29.9431  -12.4096 N   0  0  0  0  0  0  0  0  0  0  0  0
   15.2135  -28.7400  -12.3728 C   0  0  0  0  0  0  0  0  0  0  0  0
   13.9825  -28.7213  -11.9589 N   0  0  0  0  0  0  0  0  0  0  0  0
   15.7961  -27.5075  -12.7845 N   0  0  0  0  0  0  0  0  0  0  0  0
   17.1844  -27.4178  -13.2028 C   0  0  0  0  0  0  0  0  0  0  0  0
   17.4592  -26.0195  -13.7923 C   0  0  0  0  0  0  0  0  0  0  0  0
   18.7646  -26.0240  -14.4971 C   0  0  0  0  0  0  0  0  0  0  0  0
   19.1843  -24.6496  -15.0482 C   0  0  2  0  0  0  0  0  0  0  0  0
   20.4313  -24.9075  -15.8056 N   0  0  0  0  0  0  0  0  0  0  0  0
   19.4125  -23.7782  -13.8832 C   0  0  0  0  0  0  0  0  0  0  0  0
   18.3693  -23.0360  -13.3489 O   0  0  0  0  0  0  0  0  0  0  0  0
   20.5201  -23.6461  -13.3131 O   0  0  0  0  0  0  0  0  0  0  0  0
  2  1  1  0
  3  5  1  0
  3  2  1  0
  3  4  1  1
  5  7  1  0
  5  6  1  6
  7  8  2  0
  9 10  1  0
  9  7  1  0
 11 12  1  0
 10 11  1  1
 12 13  1  0
 13 14  1  0
 14 15  1  0
 16 10  1  0
 16 17  2  0
 18 19  1  0
 19 21  1  0
 20 19  2  0
 21 22  1  0
 22 23  1  0
 23 24  1  0
 25 24  1  1
 25 26  1  0
 25 27  1  0
 26 16  1  0
 27 29  2  0
 27 28  1  0
M  END
$$$$
