IKR.pdb
     RDKit          3D

 29 28  0  0  1  0  0  0  0  0999 V2000
   27.8808  -27.2243  -17.6640 C   0  0  0  0  0  0  0  0  0  0  0  0
   26.4976  -27.5737  -17.1785 C   0  0  0  0  0  0  0  0  0  0  0  0
   25.7155  -26.3756  -16.7465 C   0  0  2  0  0  0  0  0  0  0  0  0
   26.4525  -25.7331  -15.5786 C   0  0  0  0  0  0  0  0  0  0  0  0
   24.3224  -26.6438  -16.3076 C   0  0  2  0  0  0  0  0  0  0  0  0
   23.4920  -27.0718  -17.4085 N   0  0  0  0  0  0  0  0  0  0  0  0
   23.6643  -25.4897  -15.6456 C   0  0  0  0  0  0  0  0  0  0  0  0
   24.1816  -24.8603  -14.6854 O   0  0  0  0  0  0  0  0  0  0  0  0
   22.3954  -25.0507  -16.0899 N   0  0  0  0  0  0  0  0  0  0  0  0
   21.6681  -23.9329  -15.4911 C   0  0  1  0  0  0  0  0  0  0  0  0
   21.4787  -22.8282  -16.4594 C   0  0  0  0  0  0  0  0  0  0  0  0
   20.6791  -21.6637  -16.0330 C   0  0  0  0  0  0  0  0  0  0  0  0
   21.2965  -20.6919  -15.1005 C   0  0  0  0  0  0  0  0  0  0  0  0
   20.2361  -19.7033  -14.6577 C   0  0  0  0  0  0  0  0  0  0  0  0
   20.8667  -18.8018  -13.6842 N   0  0  0  0  0  0  0  0  0  0  0  0
   20.5169  -24.3611  -14.7110 C   0  0  0  0  0  0  0  0  0  0  0  0
   19.6648  -25.1077  -15.2632 O   0  0  0  0  0  0  0  0  0  0  0  0
   18.8329  -25.2941   -7.0120 N   0  0  0  0  0  0  0  0  0  0  0  0
   18.4735  -26.5084   -7.6233 C   0  0  0  0  0  0  0  0  0  0  0  0
   17.5553  -27.2663   -7.1040 N   0  0  0  0  0  0  0  0  0  0  0  0
   19.0980  -26.9480   -8.8252 N   0  0  0  0  0  0  0  0  0  0  0  0
   19.6901  -26.0140   -9.7673 C   0  0  0  0  0  0  0  0  0  0  0  0
   18.6204  -25.0112  -10.2452 C   0  0  0  0  0  0  0  0  0  0  0  0
   19.2250  -24.0604  -11.2101 C   0  0  0  0  0  0  0  0  0  0  0  0
   19.0339  -24.4572  -12.6848 C   0  0  2  0  0  0  0  0  0  0  0  0
   20.2738  -24.0119  -13.3629 N   0  0  0  0  0  0  0  0  0  0  0  0
   17.8462  -23.7328  -13.1677 C   0  0  0  0  0  0  0  0  0  0  0  0
   16.6323  -24.3904  -13.3039 O   0  0  0  0  0  0  0  0  0  0  0  0
   17.8443  -22.5197  -13.4804 O   0  0  0  0  0  0  0  0  0  0  0  0
  2  1  1  0
  3  5  1  0
  3  2  1  0
  3  4  1  1
  5  7  1  0
  5  6  1  6
  7  8  2  0
  9 10  1  0
  9  7  1  0
 11 12  1  0
 10 11  1  6
 12 13  1  0
 13 14  1  0
 14 15  1  0
 16 10  1  0
 16 17  2  0
 18 19  1  0
 19 21  1  0
 20 19  2  0
 21 22  1  0
 22 23  1  0
 23 24  1  0
 25 24  1  1
 25 26  1  0
 25 27  1  0
 26 16  1  0
 27 29  2  0
 27 28  1  0
M  END
$$$$
