IKR.pdb
     RDKit          3D

 29 28  0  0  1  0  0  0  0  0999 V2000
   27.6913  -17.6882  -15.2839 C   0  0  0  0  0  0  0  0  0  0  0  0
   27.8005  -19.1876  -15.3886 C   0  0  0  0  0  0  0  0  0  0  0  0
   26.6297  -19.8969  -14.7888 C   0  0  2  0  0  0  0  0  0  0  0  0
   25.3631  -19.2795  -15.3673 C   0  0  0  0  0  0  0  0  0  0  0  0
   26.5287  -19.8293  -13.3088 C   0  0  2  0  0  0  0  0  0  0  0  0
   27.6934  -20.3961  -12.6707 N   0  0  0  0  0  0  0  0  0  0  0  0
   25.3217  -20.4917  -12.7542 C   0  0  0  0  0  0  0  0  0  0  0  0
   24.9934  -21.6736  -13.0383 O   0  0  0  0  0  0  0  0  0  0  0  0
   24.4787  -19.7897  -11.8616 N   0  0  0  0  0  0  0  0  0  0  0  0
   23.2021  -20.3084  -11.3737 C   0  0  1  0  0  0  0  0  0  0  0  0
   22.7003  -19.5206  -10.2241 C   0  0  0  0  0  0  0  0  0  0  0  0
   21.4281  -19.9364   -9.6029 C   0  0  0  0  0  0  0  0  0  0  0  0
   21.3779  -21.2487   -8.9170 C   0  0  0  0  0  0  0  0  0  0  0  0
   19.9481  -21.5202   -8.4930 C   0  0  0  0  0  0  0  0  0  0  0  0
   19.9428  -22.8143   -7.7978 N   0  0  0  0  0  0  0  0  0  0  0  0
   22.2702  -20.6173  -12.4477 C   0  0  0  0  0  0  0  0  0  0  0  0
   22.0036  -19.7146  -13.2858 O   0  0  0  0  0  0  0  0  0  0  0  0
   21.7278  -27.8695  -16.6261 N   0  0  0  0  0  0  0  0  0  0  0  0
   21.2852  -27.5085  -15.3411 C   0  0  0  0  0  0  0  0  0  0  0  0
   21.2408  -28.3856  -14.3841 N   0  0  0  0  0  0  0  0  0  0  0  0
   20.8733  -26.1781  -15.0442 N   0  0  0  0  0  0  0  0  0  0  0  0
   20.7241  -25.1723  -16.0817 C   0  0  0  0  0  0  0  0  0  0  0  0
   20.1781  -23.8683  -15.4654 C   0  0  0  0  0  0  0  0  0  0  0  0
   21.0777  -23.4181  -14.3751 C   0  0  0  0  0  0  0  0  0  0  0  0
   20.6881  -22.0618  -13.7607 C   0  0  2  0  0  0  0  0  0  0  0  0
   21.6353  -21.8658  -12.6384 N   0  0  0  0  0  0  0  0  0  0  0  0
   19.2966  -22.1913  -13.2966 C   0  0  0  0  0  0  0  0  0  0  0  0
   18.2450  -21.8350  -14.1284 O   0  0  0  0  0  0  0  0  0  0  0  0
   18.9724  -22.6135  -12.1626 O   0  0  0  0  0  0  0  0  0  0  0  0
  2  1  1  0
  3  5  1  0
  3  2  1  0
  3  4  1  6
  5  7  1  0
  5  6  1  1
  7  8  2  0
  9 10  1  0
  9  7  1  0
 11 12  1  0
 10 11  1  1
 12 13  1  0
 13 14  1  0
 14 15  1  0
 16 10  1  0
 16 17  2  0
 18 19  1  0
 19 21  1  0
 20 19  2  0
 21 22  1  0
 22 23  1  0
 23 24  1  0
 25 24  1  1
 25 26  1  0
 25 27  1  0
 26 16  1  0
 27 29  2  0
 27 28  1  0
M  END
$$$$
