IKR.pdb
     RDKit          3D

 29 28  0  0  1  0  0  0  0  0999 V2000
   19.7339  -16.9213  -21.7250 C   0  0  0  0  0  0  0  0  0  0  0  0
   21.1699  -17.3718  -21.8008 C   0  0  0  0  0  0  0  0  0  0  0  0
   21.5024  -18.4203  -20.7890 C   0  0  2  0  0  0  0  0  0  0  0  0
   20.7410  -19.6860  -21.1607 C   0  0  0  0  0  0  0  0  0  0  0  0
   21.1609  -18.0854  -19.3831 C   0  0  2  0  0  0  0  0  0  0  0  0
   21.9580  -16.9868  -18.8904 N   0  0  0  0  0  0  0  0  0  0  0  0
   21.2980  -19.2235  -18.4401 C   0  0  0  0  0  0  0  0  0  0  0  0
   20.8569  -20.3771  -18.6850 O   0  0  0  0  0  0  0  0  0  0  0  0
   21.9495  -19.0368  -17.1988 N   0  0  0  0  0  0  0  0  0  0  0  0
   22.1009  -20.0893  -16.1956 C   0  0  1  0  0  0  0  0  0  0  0  0
   23.5031  -20.1979  -15.7308 C   0  0  0  0  0  0  0  0  0  0  0  0
   23.8304  -21.2612  -14.7616 C   0  0  0  0  0  0  0  0  0  0  0  0
   25.2363  -21.3941  -14.3135 C   0  0  0  0  0  0  0  0  0  0  0  0
   25.8501  -22.6020  -14.9932 C   0  0  0  0  0  0  0  0  0  0  0  0
   27.2545  -22.6691  -14.5672 N   0  0  0  0  0  0  0  0  0  0  0  0
   21.0488  -20.0673  -15.1906 C   0  0  0  0  0  0  0  0  0  0  0  0
   20.8543  -18.9982  -14.5521 O   0  0  0  0  0  0  0  0  0  0  0  0
   18.1580  -25.6660   -8.7000 N   0  0  0  0  0  0  0  0  0  0  0  0
   17.1606  -25.2908   -9.6176 C   0  0  0  0  0  0  0  0  0  0  0  0
   16.1063  -26.0296   -9.7903 N   0  0  0  0  0  0  0  0  0  0  0  0
   17.2689  -24.0959  -10.3847 N   0  0  0  0  0  0  0  0  0  0  0  0
   18.4112  -23.8377  -11.2441 C   0  0  0  0  0  0  0  0  0  0  0  0
   18.1959  -22.5168  -12.0104 C   0  0  0  0  0  0  0  0  0  0  0  0
   19.2945  -22.3237  -12.9884 C   0  0  0  0  0  0  0  0  0  0  0  0
   19.1816  -21.0272  -13.8102 C   0  0  2  0  0  0  0  0  0  0  0  0
   20.2081  -21.1578  -14.8706 N   0  0  0  0  0  0  0  0  0  0  0  0
   19.4728  -19.9156  -12.8894 C   0  0  0  0  0  0  0  0  0  0  0  0
   18.4374  -19.2170  -12.2855 O   0  0  0  0  0  0  0  0  0  0  0  0
   20.6291  -19.5327  -12.5965 O   0  0  0  0  0  0  0  0  0  0  0  0
  2  1  1  0
  3  5  1  0
  3  2  1  0
  3  4  1  6
  5  7  1  0
  5  6  1  1
  7  8  2  0
  9 10  1  0
  9  7  1  0
 11 12  1  0
 10 11  1  1
 12 13  1  0
 13 14  1  0
 14 15  1  0
 16 10  1  0
 16 17  2  0
 18 19  1  0
 19 21  1  0
 20 19  2  0
 21 22  1  0
 22 23  1  0
 23 24  1  0
 25 24  1  1
 25 26  1  0
 25 27  1  0
 26 16  1  0
 27 29  2  0
 27 28  1  0
M  END
$$$$
