DKQ.pdb
     RDKit          3D

 27 26  0  0  1  0  0  0  0  0999 V2000
    7.6256  -19.9765   20.0078 N   0  0  0  0  0  0  0  0  0  0  0  0
    7.9187  -18.5670   20.0753 C   0  0  1  0  0  0  0  0  0  0  0  0
    7.7295  -17.9900   18.6856 C   0  0  0  0  0  0  0  0  0  0  0  0
    8.6771  -18.6080   17.7167 C   0  0  0  0  0  0  0  0  0  0  0  0
    9.8799  -18.7364   18.0442 O   0  0  0  0  0  0  0  0  0  0  0  0
    6.9572  -17.9048   20.9740 C   0  0  0  0  0  0  0  0  0  0  0  0
    6.9470  -16.6514   21.1456 O   0  0  0  0  0  0  0  0  0  0  0  0
    8.2813  -19.0453   16.4705 O   0  0  0  0  0  0  0  0  0  0  0  0
    6.0124  -18.6681   21.6732 N   0  0  0  0  0  0  0  0  0  0  0  0
    5.1322  -18.0925   22.7307 C   0  0  1  0  0  0  0  0  0  0  0  0
    3.8499  -18.8447   22.6739 C   0  0  0  0  0  0  0  0  0  0  0  0
    3.1413  -18.7289   21.3874 C   0  0  0  0  0  0  0  0  0  0  0  0
    1.9286  -19.6192   21.2635 C   0  0  0  0  0  0  0  0  0  0  0  0
    1.1923  -19.4511   19.9721 C   0  0  0  0  0  0  0  0  0  0  0  0
    0.0378  -20.3149   19.8652 N   0  0  0  0  0  0  0  0  0  0  0  0
    5.8484  -18.0551   23.9936 C   0  0  0  0  0  0  0  0  0  0  0  0
    5.1557  -17.8072   25.0464 O   0  0  0  0  0  0  0  0  0  0  0  0
    7.3277  -22.1487   27.4000 N   0  0  0  0  0  0  0  0  0  0  0  0
    7.9490  -21.1316   28.1361 C   0  0  0  0  0  0  0  0  0  0  0  0
    8.3453  -21.3301   29.2907 O   0  0  0  0  0  0  0  0  0  0  0  0
    8.1550  -19.7650   27.5479 C   0  0  0  0  0  0  0  0  0  0  0  0
    7.5690  -19.6835   26.1672 C   0  0  0  0  0  0  0  0  0  0  0  0
    7.8126  -18.3536   25.5594 C   0  0  2  0  0  0  0  0  0  0  0  0
    7.2175  -18.2617   24.2232 N   0  0  0  0  0  0  0  0  0  0  0  0
    9.2252  -18.0137   25.4875 C   0  0  0  0  0  0  0  0  0  0  0  0
    9.8005  -18.0648   24.3369 O   0  0  0  0  0  0  0  0  0  0  0  0
   10.0137  -17.6296   26.5758 O   0  0  0  0  0  0  0  0  0  0  0  0
  2  1  1  6
  3  2  1  0
  4  3  1  0
  5  4  2  0
  6  7  2  0
  6  2  1  0
  8  4  1  0
  9  6  1  0
 10 11  1  1
 10  9  1  0
 11 12  1  0
 13 12  1  0
 14 13  1  0
 15 14  1  0
 16 17  2  0
 16 10  1  0
 18 19  1  0
 19 20  2  0
 19 21  1  0
 21 22  1  0
 23 22  1  6
 23 24  1  0
 24 16  1  0
 25 23  1  0
 25 27  1  0
 26 25  2  0
M  END
$$$$
