DKQ.pdb
     RDKit          3D

 27 26  0  0  1  0  0  0  0  0999 V2000
    9.2661  -15.6610   18.9118 N   0  0  0  0  0  0  0  0  0  0  0  0
    8.6360  -14.5559   19.5891 C   0  0  1  0  0  0  0  0  0  0  0  0
    7.6692  -13.9096   18.6157 C   0  0  0  0  0  0  0  0  0  0  0  0
    8.2344  -13.8853   17.2378 C   0  0  0  0  0  0  0  0  0  0  0  0
    9.3607  -14.3963   17.0363 O   0  0  0  0  0  0  0  0  0  0  0  0
    7.8561  -15.0578   20.7340 C   0  0  0  0  0  0  0  0  0  0  0  0
    7.0871  -14.3109   21.4058 O   0  0  0  0  0  0  0  0  0  0  0  0
    7.5648  -13.3208   16.1729 O   0  0  0  0  0  0  0  0  0  0  0  0
    7.9529  -16.4043   21.1106 N   0  0  0  0  0  0  0  0  0  0  0  0
    7.3448  -16.9381   22.3634 C   0  0  1  0  0  0  0  0  0  0  0  0
    7.2410  -18.4123   22.1922 C   0  0  0  0  0  0  0  0  0  0  0  0
    6.7306  -19.1210   23.3786 C   0  0  0  0  0  0  0  0  0  0  0  0
    6.7180  -20.6247   23.2468 C   0  0  0  0  0  0  0  0  0  0  0  0
    6.2317  -21.3290   24.4738 C   0  0  0  0  0  0  0  0  0  0  0  0
    5.3052  -22.3991   24.1793 N   0  0  0  0  0  0  0  0  0  0  0  0
    8.0741  -16.4322   23.5130 C   0  0  0  0  0  0  0  0  0  0  0  0
    9.3484  -16.3272   23.3914 O   0  0  0  0  0  0  0  0  0  0  0  0
    5.3293  -11.9687   26.6884 N   0  0  0  0  0  0  0  0  0  0  0  0
    6.6625  -11.8071   27.0867 C   0  0  0  0  0  0  0  0  0  0  0  0
    7.0238  -10.8057   27.7163 O   0  0  0  0  0  0  0  0  0  0  0  0
    7.6990  -12.8448   26.7627 C   0  0  0  0  0  0  0  0  0  0  0  0
    7.1204  -13.9250   25.8938 C   0  0  0  0  0  0  0  0  0  0  0  0
    8.1401  -14.9479   25.5603 C   0  0  2  0  0  0  0  0  0  0  0  0
    7.5650  -16.0313   24.7580 N   0  0  0  0  0  0  0  0  0  0  0  0
    8.7893  -15.5053   26.7367 C   0  0  0  0  0  0  0  0  0  0  0  0
    9.4941  -14.7148   27.4687 O   0  0  0  0  0  0  0  0  0  0  0  0
    8.7059  -16.8406   27.1412 O   0  0  0  0  0  0  0  0  0  0  0  0
  2  1  1  6
  3  2  1  0
  4  3  1  0
  5  4  2  0
  6  7  2  0
  6  2  1  0
  8  4  1  0
  9  6  1  0
 10 11  1  6
 10  9  1  0
 11 12  1  0
 13 12  1  0
 14 13  1  0
 15 14  1  0
 16 17  2  0
 16 10  1  0
 18 19  1  0
 19 20  2  0
 19 21  1  0
 21 22  1  0
 23 22  1  1
 23 24  1  0
 24 16  1  0
 25 23  1  0
 25 27  1  0
 26 25  2  0
M  END
$$$$
