DKQ.pdb
     RDKit          3D

 27 26  0  0  1  0  0  0  0  0999 V2000
   10.7460  -20.3554   18.3598 N   0  0  0  0  0  0  0  0  0  0  0  0
   10.8623  -19.1624   19.1602 C   0  0  1  0  0  0  0  0  0  0  0  0
   10.7106  -17.9703   18.2350 C   0  0  0  0  0  0  0  0  0  0  0  0
   11.7744  -17.9641   17.1925 C   0  0  0  0  0  0  0  0  0  0  0  0
   12.9674  -18.1178   17.5438 O   0  0  0  0  0  0  0  0  0  0  0  0
    9.7633  -19.1160   20.1404 C   0  0  0  0  0  0  0  0  0  0  0  0
    9.6718  -18.2002   21.0085 O   0  0  0  0  0  0  0  0  0  0  0  0
   11.4967  -17.7954   15.8526 O   0  0  0  0  0  0  0  0  0  0  0  0
    8.7741  -20.1088   20.1308 N   0  0  0  0  0  0  0  0  0  0  0  0
    7.6072  -20.0951   21.0595 C   0  0  1  0  0  0  0  0  0  0  0  0
    6.4973  -20.7963   20.3596 C   0  0  0  0  0  0  0  0  0  0  0  0
    5.3209  -21.0563   21.2075 C   0  0  0  0  0  0  0  0  0  0  0  0
    4.2338  -21.8578   20.5335 C   0  0  0  0  0  0  0  0  0  0  0  0
    2.9968  -22.0039   21.3620 C   0  0  0  0  0  0  0  0  0  0  0  0
    1.9288  -22.6849   20.6648 N   0  0  0  0  0  0  0  0  0  0  0  0
    8.0157  -20.5899   22.3624 C   0  0  0  0  0  0  0  0  0  0  0  0
    8.8611  -21.5568   22.3770 O   0  0  0  0  0  0  0  0  0  0  0  0
   12.0888  -20.6519   25.9607 N   0  0  0  0  0  0  0  0  0  0  0  0
   11.2829  -19.8642   26.7926 C   0  0  0  0  0  0  0  0  0  0  0  0
   11.6587  -19.5414   27.9259 O   0  0  0  0  0  0  0  0  0  0  0  0
    9.9345  -19.3846   26.3366 C   0  0  0  0  0  0  0  0  0  0  0  0
    9.6362  -19.8708   24.9470 C   0  0  0  0  0  0  0  0  0  0  0  0
    8.2944  -20.4968   24.8749 C   0  0  2  0  0  0  0  0  0  0  0  0
    7.6082  -20.1432   23.6290 N   0  0  0  0  0  0  0  0  0  0  0  0
    7.4493  -20.1573   26.0093 C   0  0  0  0  0  0  0  0  0  0  0  0
    6.5487  -19.2527   25.8416 O   0  0  0  0  0  0  0  0  0  0  0  0
    7.5351  -20.7417   27.2760 O   0  0  0  0  0  0  0  0  0  0  0  0
  2  1  1  6
  3  2  1  0
  4  3  1  0
  5  4  2  0
  6  7  2  0
  6  2  1  0
  8  4  1  0
  9  6  1  0
 10 11  1  6
 10  9  1  0
 11 12  1  0
 13 12  1  0
 14 13  1  0
 15 14  1  0
 16 17  2  0
 16 10  1  0
 18 19  1  0
 19 20  2  0
 19 21  1  0
 21 22  1  0
 23 22  1  1
 23 24  1  0
 24 16  1  0
 25 23  1  0
 25 27  1  0
 26 25  2  0
M  END
$$$$
