DKQ.pdb
     RDKit          3D

 27 26  0  0  1  0  0  0  0  0999 V2000
    8.5446  -18.1423   17.3554 N   0  0  0  0  0  0  0  0  0  0  0  0
    8.3241  -19.3446   18.1191 C   0  0  1  0  0  0  0  0  0  0  0  0
    9.6799  -19.8784   18.5397 C   0  0  0  0  0  0  0  0  0  0  0  0
   10.5075  -20.2304   17.3524 C   0  0  0  0  0  0  0  0  0  0  0  0
    9.9330  -20.6030   16.3028 O   0  0  0  0  0  0  0  0  0  0  0  0
    7.5669  -19.0220   19.3410 C   0  0  0  0  0  0  0  0  0  0  0  0
    7.9457  -18.1293   20.1536 O   0  0  0  0  0  0  0  0  0  0  0  0
   11.8845  -20.1620   17.3633 O   0  0  0  0  0  0  0  0  0  0  0  0
    6.3839  -19.7138   19.6348 N   0  0  0  0  0  0  0  0  0  0  0  0
    5.5477  -19.4116   20.8322 C   0  0  1  0  0  0  0  0  0  0  0  0
    4.1469  -19.7610   20.4729 C   0  0  0  0  0  0  0  0  0  0  0  0
    3.1860  -19.6059   21.5788 C   0  0  0  0  0  0  0  0  0  0  0  0
    1.7617  -19.9517   21.2178 C   0  0  0  0  0  0  0  0  0  0  0  0
    0.7835  -19.6831   22.3173 C   0  0  0  0  0  0  0  0  0  0  0  0
   -0.5832  -19.9608   21.9359 N   0  0  0  0  0  0  0  0  0  0  0  0
    6.1307  -20.0398   22.0047 C   0  0  0  0  0  0  0  0  0  0  0  0
    6.4949  -21.2657   21.8855 O   0  0  0  0  0  0  0  0  0  0  0  0
   11.2874  -19.6309   22.3301 N   0  0  0  0  0  0  0  0  0  0  0  0
   11.2183  -20.0204   23.6739 C   0  0  0  0  0  0  0  0  0  0  0  0
   12.2413  -20.2967   24.3118 O   0  0  0  0  0  0  0  0  0  0  0  0
    9.8993  -20.1157   24.3860 C   0  0  0  0  0  0  0  0  0  0  0  0
    8.7709  -19.7230   23.4755 C   0  0  0  0  0  0  0  0  0  0  0  0
    7.4600  -19.8755   24.1506 C   0  0  2  0  0  0  0  0  0  0  0  0
    6.3581  -19.4770   23.2702 N   0  0  0  0  0  0  0  0  0  0  0  0
    7.3767  -19.1352   25.4001 C   0  0  0  0  0  0  0  0  0  0  0  0
    6.6675  -18.0608   25.4189 O   0  0  0  0  0  0  0  0  0  0  0  0
    8.0073  -19.5014   26.5924 O   0  0  0  0  0  0  0  0  0  0  0  0
  2  1  1  6
  3  2  1  0
  4  3  1  0
  5  4  2  0
  6  7  2  0
  6  2  1  0
  8  4  1  0
  9  6  1  0
 10 11  1  6
 10  9  1  0
 11 12  1  0
 13 12  1  0
 14 13  1  0
 15 14  1  0
 16 17  2  0
 16 10  1  0
 18 19  1  0
 19 20  2  0
 19 21  1  0
 21 22  1  0
 23 22  1  6
 23 24  1  0
 24 16  1  0
 25 23  1  0
 25 27  1  0
 26 25  2  0
M  END
$$$$
