DKQ.pdb
     RDKit          3D

 27 26  0  0  1  0  0  0  0  0999 V2000
   12.6881  -16.2341   18.6607 N   0  0  0  0  0  0  0  0  0  0  0  0
   13.5108  -15.6885   19.7109 C   0  0  1  0  0  0  0  0  0  0  0  0
   14.2692  -14.5079   19.1358 C   0  0  0  0  0  0  0  0  0  0  0  0
   15.1776  -14.9400   18.0373 C   0  0  0  0  0  0  0  0  0  0  0  0
   15.8644  -15.9768   18.1921 O   0  0  0  0  0  0  0  0  0  0  0  0
   12.6540  -15.1877   20.7999 C   0  0  0  0  0  0  0  0  0  0  0  0
   13.1116  -14.4928   21.7531 O   0  0  0  0  0  0  0  0  0  0  0  0
   15.2924  -14.2420   16.8539 O   0  0  0  0  0  0  0  0  0  0  0  0
   11.2829  -15.4778   20.8019 N   0  0  0  0  0  0  0  0  0  0  0  0
   10.3424  -14.9273   21.8201 C   0  0  1  0  0  0  0  0  0  0  0  0
    8.9938  -14.9151   21.1921 C   0  0  0  0  0  0  0  0  0  0  0  0
    8.8240  -13.8855   20.1521 C   0  0  0  0  0  0  0  0  0  0  0  0
    7.4799  -13.9112   19.4656 C   0  0  0  0  0  0  0  0  0  0  0  0
    7.2987  -12.8153   18.4635 C   0  0  0  0  0  0  0  0  0  0  0  0
    5.9969  -12.8363   17.8348 N   0  0  0  0  0  0  0  0  0  0  0  0
   10.5076  -15.6429   23.0731 C   0  0  0  0  0  0  0  0  0  0  0  0
   10.7171  -16.9077   22.9957 O   0  0  0  0  0  0  0  0  0  0  0  0
   10.6121  -13.7413   29.2026 N   0  0  0  0  0  0  0  0  0  0  0  0
   10.7894  -15.1289   29.2757 C   0  0  0  0  0  0  0  0  0  0  0  0
   10.9665  -15.6935   30.3617 O   0  0  0  0  0  0  0  0  0  0  0  0
   10.7705  -15.9785   28.0372 C   0  0  0  0  0  0  0  0  0  0  0  0
   10.6610  -15.1255   26.8056 C   0  0  0  0  0  0  0  0  0  0  0  0
   10.5881  -15.9587   25.5816 C   0  0  2  0  0  0  0  0  0  0  0  0
   10.4734  -15.1291   24.3788 N   0  0  0  0  0  0  0  0  0  0  0  0
    9.4974  -16.9207   25.6152 C   0  0  0  0  0  0  0  0  0  0  0  0
    8.3484  -16.5461   25.1712 O   0  0  0  0  0  0  0  0  0  0  0  0
    9.5983  -18.2307   26.0917 O   0  0  0  0  0  0  0  0  0  0  0  0
  2  1  1  6
  3  2  1  0
  4  3  1  0
  5  4  2  0
  6  7  2  0
  6  2  1  0
  8  4  1  0
  9  6  1  0
 10 11  1  6
 10  9  1  0
 11 12  1  0
 13 12  1  0
 14 13  1  0
 15 14  1  0
 16 17  2  0
 16 10  1  0
 18 19  1  0
 19 20  2  0
 19 21  1  0
 21 22  1  0
 23 22  1  1
 23 24  1  0
 24 16  1  0
 25 23  1  0
 25 27  1  0
 26 25  2  0
M  END
$$$$
