DKQ.pdb
     RDKit          3D

 27 26  0  0  1  0  0  0  0  0999 V2000
    9.3062  -13.6242   18.4075 N   0  0  0  0  0  0  0  0  0  0  0  0
    9.8321  -14.6899   19.2229 C   0  0  1  0  0  0  0  0  0  0  0  0
   11.2111  -14.2714   19.6950 C   0  0  0  0  0  0  0  0  0  0  0  0
   12.2115  -14.3936   18.5982 C   0  0  0  0  0  0  0  0  0  0  0  0
   12.0745  -15.3086   17.7529 O   0  0  0  0  0  0  0  0  0  0  0  0
    8.9818  -14.8671   20.4130 C   0  0  0  0  0  0  0  0  0  0  0  0
    8.2892  -13.9238   20.8939 O   0  0  0  0  0  0  0  0  0  0  0  0
   13.2849  -13.5369   18.4765 O   0  0  0  0  0  0  0  0  0  0  0  0
    8.9217  -16.1134   21.0513 N   0  0  0  0  0  0  0  0  0  0  0  0
    7.9344  -16.4239   22.1252 C   0  0  1  0  0  0  0  0  0  0  0  0
    7.5533  -17.8517   21.9537 C   0  0  0  0  0  0  0  0  0  0  0  0
    6.7359  -18.3922   23.0538 C   0  0  0  0  0  0  0  0  0  0  0  0
    6.3358  -19.8372   22.8790 C   0  0  0  0  0  0  0  0  0  0  0  0
    5.4168  -20.3373   23.9483 C   0  0  0  0  0  0  0  0  0  0  0  0
    5.0612  -21.7286   23.7803 N   0  0  0  0  0  0  0  0  0  0  0  0
    8.4658  -16.0070   23.4109 C   0  0  0  0  0  0  0  0  0  0  0  0
    9.7131  -16.2285   23.6227 O   0  0  0  0  0  0  0  0  0  0  0  0
    5.8528  -12.1483   27.5312 N   0  0  0  0  0  0  0  0  0  0  0  0
    6.5212  -11.7769   26.3576 C   0  0  0  0  0  0  0  0  0  0  0  0
    6.3339  -10.6696   25.8394 O   0  0  0  0  0  0  0  0  0  0  0  0
    7.4886  -12.7109   25.6884 C   0  0  0  0  0  0  0  0  0  0  0  0
    7.6155  -13.9926   26.4614 C   0  0  0  0  0  0  0  0  0  0  0  0
    8.4348  -14.9839   25.7242 C   0  0  2  0  0  0  0  0  0  0  0  0
    7.7899  -15.3798   24.4690 N   0  0  0  0  0  0  0  0  0  0  0  0
    8.7347  -16.1694   26.5122 C   0  0  0  0  0  0  0  0  0  0  0  0
    8.0149  -17.2195   26.3206 O   0  0  0  0  0  0  0  0  0  0  0  0
    9.7520  -16.2615   27.4662 O   0  0  0  0  0  0  0  0  0  0  0  0
  2  1  1  6
  3  2  1  0
  4  3  1  0
  5  4  2  0
  6  7  2  0
  6  2  1  0
  8  4  1  0
  9  6  1  0
 10 11  1  1
 10  9  1  0
 11 12  1  0
 13 12  1  0
 14 13  1  0
 15 14  1  0
 16 17  2  0
 16 10  1  0
 18 19  1  0
 19 20  2  0
 19 21  1  0
 21 22  1  0
 23 22  1  1
 23 24  1  0
 24 16  1  0
 25 23  1  0
 25 27  1  0
 26 25  2  0
M  END
$$$$
