DKQ.pdb
     RDKit          3D

 27 26  0  0  1  0  0  0  0  0999 V2000
   14.5115  -19.1723   13.5975 N   0  0  0  0  0  0  0  0  0  0  0  0
   14.7312  -20.5559   13.9359 C   0  0  1  0  0  0  0  0  0  0  0  0
   16.2246  -20.8131   13.8772 C   0  0  0  0  0  0  0  0  0  0  0  0
   16.7793  -20.4401   12.5461 C   0  0  0  0  0  0  0  0  0  0  0  0
   16.1015  -20.6782   11.5194 O   0  0  0  0  0  0  0  0  0  0  0  0
   14.2842  -20.8036   15.3178 C   0  0  0  0  0  0  0  0  0  0  0  0
   14.2849  -19.8967   16.1999 O   0  0  0  0  0  0  0  0  0  0  0  0
   18.0126  -19.8414   12.3995 O   0  0  0  0  0  0  0  0  0  0  0  0
   13.8390  -22.0789   15.6916 N   0  0  0  0  0  0  0  0  0  0  0  0
   13.2329  -22.3641   17.0242 C   0  0  1  0  0  0  0  0  0  0  0  0
   12.1068  -23.3070   16.7871 C   0  0  0  0  0  0  0  0  0  0  0  0
   11.3345  -23.6376   17.9974 C   0  0  0  0  0  0  0  0  0  0  0  0
   10.1813  -24.5822   17.7601 C   0  0  0  0  0  0  0  0  0  0  0  0
    9.3848  -24.8757   18.9920 C   0  0  0  0  0  0  0  0  0  0  0  0
    8.3527  -25.8643   18.7734 N   0  0  0  0  0  0  0  0  0  0  0  0
   14.2727  -22.7605   17.9575 C   0  0  0  0  0  0  0  0  0  0  0  0
   15.3027  -23.3478   17.4635 O   0  0  0  0  0  0  0  0  0  0  0  0
   15.7419  -20.4641   23.6656 N   0  0  0  0  0  0  0  0  0  0  0  0
   16.7445  -21.4168   23.4435 C   0  0  0  0  0  0  0  0  0  0  0  0
   17.6818  -21.5543   24.2386 O   0  0  0  0  0  0  0  0  0  0  0  0
   16.7153  -22.3040   22.2319 C   0  0  0  0  0  0  0  0  0  0  0  0
   15.4803  -22.0521   21.4147 C   0  0  0  0  0  0  0  0  0  0  0  0
   15.4813  -22.8682   20.1771 C   0  0  2  0  0  0  0  0  0  0  0  0
   14.3065  -22.5809   19.3491 N   0  0  0  0  0  0  0  0  0  0  0  0
   15.5533  -24.2970   20.4407 C   0  0  0  0  0  0  0  0  0  0  0  0
   14.4676  -24.9055   20.7699 O   0  0  0  0  0  0  0  0  0  0  0  0
   16.7157  -25.0691   20.3613 O   0  0  0  0  0  0  0  0  0  0  0  0
  2  1  1  1
  3  2  1  0
  4  3  1  0
  5  4  2  0
  6  7  2  0
  6  2  1  0
  8  4  1  0
  9  6  1  0
 10 11  1  6
 10  9  1  0
 11 12  1  0
 13 12  1  0
 14 13  1  0
 15 14  1  0
 16 17  2  0
 16 10  1  0
 18 19  1  0
 19 20  2  0
 19 21  1  0
 21 22  1  0
 23 22  1  1
 23 24  1  0
 24 16  1  0
 25 23  1  0
 25 27  1  0
 26 25  2  0
M  END
$$$$
