DKQ.pdb
     RDKit          3D

 27 26  0  0  1  0  0  0  0  0999 V2000
    8.5332  -13.8599   17.5517 N   0  0  0  0  0  0  0  0  0  0  0  0
    9.5678  -14.8515   17.7050 C   0  0  1  0  0  0  0  0  0  0  0  0
   10.9011  -14.1289   17.7123 C   0  0  0  0  0  0  0  0  0  0  0  0
   12.0328  -15.0946   17.6389 C   0  0  0  0  0  0  0  0  0  0  0  0
   11.8150  -16.3028   17.8905 O   0  0  0  0  0  0  0  0  0  0  0  0
    9.4142  -15.5290   19.0043 C   0  0  0  0  0  0  0  0  0  0  0  0
    9.2509  -14.8893   20.0836 O   0  0  0  0  0  0  0  0  0  0  0  0
   13.3137  -14.7099   17.3041 O   0  0  0  0  0  0  0  0  0  0  0  0
    9.4466  -16.9285   19.0723 N   0  0  0  0  0  0  0  0  0  0  0  0
    9.2240  -17.6807   20.3407 C   0  0  1  0  0  0  0  0  0  0  0  0
    8.3939  -18.8654   19.9935 C   0  0  0  0  0  0  0  0  0  0  0  0
    8.1803  -19.7990   21.1130 C   0  0  0  0  0  0  0  0  0  0  0  0
    7.4323  -21.0560   20.7401 C   0  0  0  0  0  0  0  0  0  0  0  0
    7.1219  -21.9367   21.9089 C   0  0  0  0  0  0  0  0  0  0  0  0
    6.2980  -23.0712   21.5563 N   0  0  0  0  0  0  0  0  0  0  0  0
   10.4968  -17.9071   21.0027 C   0  0  0  0  0  0  0  0  0  0  0  0
   11.4870  -18.2434   20.2569 O   0  0  0  0  0  0  0  0  0  0  0  0
   14.3755  -14.0069   21.1200 N   0  0  0  0  0  0  0  0  0  0  0  0
   14.0639  -15.2426   20.5384 C   0  0  0  0  0  0  0  0  0  0  0  0
   14.0037  -15.3728   19.3100 O   0  0  0  0  0  0  0  0  0  0  0  0
   13.7924  -16.4517   21.3871 C   0  0  0  0  0  0  0  0  0  0  0  0
   12.6345  -16.2063   22.3120 C   0  0  0  0  0  0  0  0  0  0  0  0
   12.1293  -17.4761   22.8864 C   0  0  2  0  0  0  0  0  0  0  0  0
   10.7968  -17.8012   22.3697 N   0  0  0  0  0  0  0  0  0  0  0  0
   12.0985  -17.4675   24.3407 C   0  0  0  0  0  0  0  0  0  0  0  0
   10.9590  -17.3118   24.9194 O   0  0  0  0  0  0  0  0  0  0  0  0
   13.2155  -17.6191   25.1670 O   0  0  0  0  0  0  0  0  0  0  0  0
  2  1  1  1
  3  2  1  0
  4  3  1  0
  5  4  2  0
  6  7  2  0
  6  2  1  0
  8  4  1  0
  9  6  1  0
 10 11  1  6
 10  9  1  0
 11 12  1  0
 13 12  1  0
 14 13  1  0
 15 14  1  0
 16 17  2  0
 16 10  1  0
 18 19  1  0
 19 20  2  0
 19 21  1  0
 21 22  1  0
 23 22  1  6
 23 24  1  0
 24 16  1  0
 25 23  1  0
 25 27  1  0
 26 25  2  0
M  END
$$$$
