DKQ.pdb
     RDKit          3D

 27 26  0  0  1  0  0  0  0  0999 V2000
   11.3108  -16.5577   19.8179 N   0  0  0  0  0  0  0  0  0  0  0  0
   11.3929  -15.4268   20.7077 C   0  0  1  0  0  0  0  0  0  0  0  0
   11.4320  -14.1725   19.8563 C   0  0  0  0  0  0  0  0  0  0  0  0
   12.6370  -14.1581   18.9809 C   0  0  0  0  0  0  0  0  0  0  0  0
   12.7683  -13.2324   18.1465 O   0  0  0  0  0  0  0  0  0  0  0  0
   10.1814  -15.3673   21.5442 C   0  0  0  0  0  0  0  0  0  0  0  0
    9.8480  -14.3227   22.1753 O   0  0  0  0  0  0  0  0  0  0  0  0
   13.6161  -15.1262   19.0532 O   0  0  0  0  0  0  0  0  0  0  0  0
    9.3547  -16.4930   21.6602 N   0  0  0  0  0  0  0  0  0  0  0  0
    8.0761  -16.4802   22.4278 C   0  0  1  0  0  0  0  0  0  0  0  0
    7.3019  -17.6714   21.9860 C   0  0  0  0  0  0  0  0  0  0  0  0
    5.8554  -17.4300   21.8450 C   0  0  0  0  0  0  0  0  0  0  0  0
    5.0468  -18.6652   21.5304 C   0  0  0  0  0  0  0  0  0  0  0  0
    3.5730  -18.4160   21.4680 C   0  0  0  0  0  0  0  0  0  0  0  0
    2.8162  -19.5971   21.1177 N   0  0  0  0  0  0  0  0  0  0  0  0
    8.3598  -16.3354   23.8448 C   0  0  0  0  0  0  0  0  0  0  0  0
    7.3532  -16.3489   24.6425 O   0  0  0  0  0  0  0  0  0  0  0  0
    8.8401  -15.9353   29.2261 N   0  0  0  0  0  0  0  0  0  0  0  0
    9.1843  -14.6301   28.8520 C   0  0  0  0  0  0  0  0  0  0  0  0
    9.5212  -13.7917   29.6966 O   0  0  0  0  0  0  0  0  0  0  0  0
    9.1562  -14.2041   27.4119 C   0  0  0  0  0  0  0  0  0  0  0  0
    8.6546  -15.3161   26.5354 C   0  0  0  0  0  0  0  0  0  0  0  0
    9.7785  -16.0626   25.9213 C   0  0  2  0  0  0  0  0  0  0  0  0
    9.6069  -16.1850   24.4708 N   0  0  0  0  0  0  0  0  0  0  0  0
    9.9663  -17.3829   26.5023 C   0  0  0  0  0  0  0  0  0  0  0  0
    9.1065  -18.2969   26.2143 O   0  0  0  0  0  0  0  0  0  0  0  0
   11.0158  -17.7427   27.3523 O   0  0  0  0  0  0  0  0  0  0  0  0
  2  1  1  6
  3  2  1  0
  4  3  1  0
  5  4  2  0
  6  7  2  0
  6  2  1  0
  8  4  1  0
  9  6  1  0
 10 11  1  1
 10  9  1  0
 11 12  1  0
 13 12  1  0
 14 13  1  0
 15 14  1  0
 16 17  2  0
 16 10  1  0
 18 19  1  0
 19 20  2  0
 19 21  1  0
 21 22  1  0
 23 22  1  1
 23 24  1  0
 24 16  1  0
 25 23  1  0
 25 27  1  0
 26 25  2  0
M  END
$$$$
