DKQ.pdb
     RDKit          3D

 27 26  0  0  1  0  0  0  0  0999 V2000
   12.6830  -17.7681   18.6922 N   0  0  0  0  0  0  0  0  0  0  0  0
   13.1333  -18.0981   20.0210 C   0  0  1  0  0  0  0  0  0  0  0  0
   14.6388  -17.9187   20.0551 C   0  0  0  0  0  0  0  0  0  0  0  0
   15.3168  -18.9266   19.1931 C   0  0  0  0  0  0  0  0  0  0  0  0
   16.5552  -18.8414   19.0214 O   0  0  0  0  0  0  0  0  0  0  0  0
   12.5443  -17.1576   20.9901 C   0  0  0  0  0  0  0  0  0  0  0  0
   13.2344  -16.2763   21.5800 O   0  0  0  0  0  0  0  0  0  0  0  0
   14.6330  -19.9521   18.5753 O   0  0  0  0  0  0  0  0  0  0  0  0
   11.1757  -17.2217   21.2850 N   0  0  0  0  0  0  0  0  0  0  0  0
   10.4708  -16.1744   22.0791 C   0  0  1  0  0  0  0  0  0  0  0  0
    9.1559  -15.9523   21.4194 C   0  0  0  0  0  0  0  0  0  0  0  0
    8.9623  -14.5835   20.9102 C   0  0  0  0  0  0  0  0  0  0  0  0
    7.6832  -14.3842   20.1339 C   0  0  0  0  0  0  0  0  0  0  0  0
    7.5635  -13.0272   19.5156 C   0  0  0  0  0  0  0  0  0  0  0  0
    6.3790  -12.8824   18.6994 N   0  0  0  0  0  0  0  0  0  0  0  0
   10.4782  -16.5413   23.4844 C   0  0  0  0  0  0  0  0  0  0  0  0
   10.5760  -17.7926   23.7569 O   0  0  0  0  0  0  0  0  0  0  0  0
    9.7187  -13.1733   28.8886 N   0  0  0  0  0  0  0  0  0  0  0  0
   10.0847  -14.4485   29.3382 C   0  0  0  0  0  0  0  0  0  0  0  0
   10.1633  -14.7012   30.5463 O   0  0  0  0  0  0  0  0  0  0  0  0
   10.3942  -15.5526   28.3681 C   0  0  0  0  0  0  0  0  0  0  0  0
   10.2810  -15.0665   26.9513 C   0  0  0  0  0  0  0  0  0  0  0  0
   10.4901  -16.1728   25.9870 C   0  0  2  0  0  0  0  0  0  0  0  0
   10.3965  -15.6981   24.6035 N   0  0  0  0  0  0  0  0  0  0  0  0
    9.5668  -17.2793   26.1854 C   0  0  0  0  0  0  0  0  0  0  0  0
    8.3898  -17.1827   25.6725 O   0  0  0  0  0  0  0  0  0  0  0  0
    9.8584  -18.4500   26.8910 O   0  0  0  0  0  0  0  0  0  0  0  0
  2  1  1  6
  3  2  1  0
  4  3  1  0
  5  4  2  0
  6  7  2  0
  6  2  1  0
  8  4  1  0
  9  6  1  0
 10 11  1  6
 10  9  1  0
 11 12  1  0
 13 12  1  0
 14 13  1  0
 15 14  1  0
 16 17  2  0
 16 10  1  0
 18 19  1  0
 19 20  2  0
 19 21  1  0
 21 22  1  0
 23 22  1  1
 23 24  1  0
 24 16  1  0
 25 23  1  0
 25 27  1  0
 26 25  2  0
M  END
$$$$
