DKQ.pdb
     RDKit          3D

 27 26  0  0  1  0  0  0  0  0999 V2000
   11.2900  -17.4058   19.7413 N   0  0  0  0  0  0  0  0  0  0  0  0
   10.6929  -17.7068   21.0181 C   0  0  1  0  0  0  0  0  0  0  0  0
   11.7580  -18.3506   21.8846 C   0  0  0  0  0  0  0  0  0  0  0  0
   11.8706  -19.8081   21.5988 C   0  0  0  0  0  0  0  0  0  0  0  0
   11.2084  -20.2922   20.6513 O   0  0  0  0  0  0  0  0  0  0  0  0
   10.2721  -16.4564   21.6739 C   0  0  0  0  0  0  0  0  0  0  0  0
   11.1022  -15.6510   22.1865 O   0  0  0  0  0  0  0  0  0  0  0  0
   12.6771  -20.6473   22.3379 O   0  0  0  0  0  0  0  0  0  0  0  0
    8.9118  -16.1264   21.7448 N   0  0  0  0  0  0  0  0  0  0  0  0
    8.4201  -14.8525   22.3446 C   0  0  1  0  0  0  0  0  0  0  0  0
    7.5276  -14.2225   21.3347 C   0  0  0  0  0  0  0  0  0  0  0  0
    8.2038  -13.8617   20.0764 C   0  0  0  0  0  0  0  0  0  0  0  0
    7.2762  -13.3742   18.9900 C   0  0  0  0  0  0  0  0  0  0  0  0
    7.9687  -13.0899   17.6947 C   0  0  0  0  0  0  0  0  0  0  0  0
    7.0523  -12.7574   16.6270 N   0  0  0  0  0  0  0  0  0  0  0  0
    7.8801  -15.1134   23.6673 C   0  0  0  0  0  0  0  0  0  0  0  0
    6.6037  -15.0495   23.7960 O   0  0  0  0  0  0  0  0  0  0  0  0
    7.5445  -20.5145   24.7614 N   0  0  0  0  0  0  0  0  0  0  0  0
    6.4069  -19.7202   24.9540 C   0  0  0  0  0  0  0  0  0  0  0  0
    5.2772  -20.2219   24.9931 O   0  0  0  0  0  0  0  0  0  0  0  0
    6.5205  -18.2316   25.1198 C   0  0  0  0  0  0  0  0  0  0  0  0
    7.9460  -17.7839   24.9651 C   0  0  0  0  0  0  0  0  0  0  0  0
    8.2031  -16.5408   25.7306 C   0  0  2  0  0  0  0  0  0  0  0  0
    8.5763  -15.4361   24.8426 N   0  0  0  0  0  0  0  0  0  0  0  0
    9.2222  -16.7070   26.7553 C   0  0  0  0  0  0  0  0  0  0  0  0
   10.4071  -16.2704   26.5045 O   0  0  0  0  0  0  0  0  0  0  0  0
    9.0157  -17.3045   28.0018 O   0  0  0  0  0  0  0  0  0  0  0  0
  2  1  1  6
  3  2  1  0
  4  3  1  0
  5  4  2  0
  6  7  2  0
  6  2  1  0
  8  4  1  0
  9  6  1  0
 10 11  1  6
 10  9  1  0
 11 12  1  0
 13 12  1  0
 14 13  1  0
 15 14  1  0
 16 17  2  0
 16 10  1  0
 18 19  1  0
 19 20  2  0
 19 21  1  0
 21 22  1  0
 23 22  1  6
 23 24  1  0
 24 16  1  0
 25 23  1  0
 25 27  1  0
 26 25  2  0
M  END
$$$$
