KVN.pdb
     RDKit          3D

 25 24  0  0  1  0  0  0  0  0999 V2000
    5.9178  -20.4670   23.2438 N   0  0  0  0  0  0  0  0  0  0  0  0
    6.3230  -19.2388   23.9490 C   0  0  1  0  0  0  0  0  0  0  0  0
    7.1700  -19.7395   25.1203 C   0  0  0  0  0  0  0  0  0  0  0  0
    6.4601  -20.7051   25.9935 C   0  0  0  0  0  0  0  0  0  0  0  0
    7.2658  -21.2905   27.1016 C   0  0  0  0  0  0  0  0  0  0  0  0
    6.6312  -22.3688   27.9093 C   0  0  0  0  0  0  0  0  0  0  0  0
    7.5369  -23.0019   28.8298 N   0  0  0  0  0  0  0  0  0  0  0  0
    7.1777  -18.4056   23.0807 C   0  0  0  0  0  0  0  0  0  0  0  0
    7.9628  -18.9123   22.2747 O   0  0  0  0  0  0  0  0  0  0  0  0
    6.0850  -14.8398   21.4653 C   0  0  0  0  0  0  0  0  0  0  0  0
    7.2921  -14.8078   22.3283 C   0  0  2  0  0  0  0  0  0  0  0  0
    8.1868  -13.6852   21.8485 C   0  0  0  0  0  0  0  0  0  0  0  0
    8.0305  -16.0976   22.4949 C   0  0  2  0  0  0  0  0  0  0  0  0
    7.0860  -16.9967   23.1839 N   0  0  0  0  0  0  0  0  0  0  0  0
    9.2617  -16.0296   23.2795 C   0  0  0  0  0  0  0  0  0  0  0  0
    9.2715  -15.4667   24.4008 O   0  0  0  0  0  0  0  0  0  0  0  0
   14.0024  -16.8104   25.2999 N   0  0  0  0  0  0  0  0  0  0  0  0
   13.1930  -17.9258   24.9765 C   0  0  0  0  0  0  0  0  0  0  0  0
   13.4871  -19.0995   25.3779 O   0  0  0  0  0  0  0  0  0  0  0  0
   11.9849  -17.7978   24.1737 C   0  0  0  0  0  0  0  0  0  0  0  0
   11.6800  -16.4098   23.6727 C   0  0  2  0  0  0  0  0  0  0  0  0
   10.4808  -16.5846   22.8236 N   0  0  0  0  0  0  0  0  0  0  0  0
   12.8059  -15.9344   22.8209 C   0  0  0  0  0  0  0  0  0  0  0  0
   12.7727  -15.7868   21.4535 O   0  0  0  0  0  0  0  0  0  0  0  0
   13.9200  -15.6263   23.3713 O   0  0  0  0  0  0  0  0  0  0  0  0
  2  1  1  6
  3  2  1  0
  4  5  1  0
  4  3  1  0
  5  6  1  0
  6  7  1  0
  8  2  1  0
  8 14  1  0
  9  8  2  0
 11 13  1  0
 11 10  1  6
 12 11  1  0
 13 14  1  1
 15 13  1  0
 16 15  2  0
 17 18  1  0
 18 19  2  0
 20 18  1  0
 21 20  1  6
 21 22  1  0
 21 23  1  0
 22 15  1  0
 23 24  1  0
 25 23  2  0
M  END
$$$$
