KVN.pdb
     RDKit          3D

 25 24  0  0  1  0  0  0  0  0999 V2000
    7.6508  -18.6587   20.0223 N   0  0  0  0  0  0  0  0  0  0  0  0
    7.3191  -18.2130   21.3865 C   0  0  1  0  0  0  0  0  0  0  0  0
    7.5233  -19.4594   22.2497 C   0  0  0  0  0  0  0  0  0  0  0  0
    6.3284  -20.3349   22.3165 C   0  0  0  0  0  0  0  0  0  0  0  0
    5.8442  -20.6672   23.6858 C   0  0  0  0  0  0  0  0  0  0  0  0
    4.6596  -21.5636   23.7907 C   0  0  0  0  0  0  0  0  0  0  0  0
    5.0015  -22.9596   23.8401 N   0  0  0  0  0  0  0  0  0  0  0  0
    8.2702  -17.1771   21.8346 C   0  0  0  0  0  0  0  0  0  0  0  0
    9.4638  -17.2233   21.5247 O   0  0  0  0  0  0  0  0  0  0  0  0
    6.6946  -13.6819   23.9427 C   0  0  0  0  0  0  0  0  0  0  0  0
    7.8481  -13.7850   23.0144 C   0  0  2  0  0  0  0  0  0  0  0  0
    7.3495  -13.5235   21.6095 C   0  0  0  0  0  0  0  0  0  0  0  0
    8.6733  -15.0289   23.1073 C   0  0  2  0  0  0  0  0  0  0  0  0
    7.7914  -16.1131   22.6362 N   0  0  0  0  0  0  0  0  0  0  0  0
    9.1580  -15.3730   24.4425 C   0  0  0  0  0  0  0  0  0  0  0  0
    8.4655  -16.0879   25.2063 O   0  0  0  0  0  0  0  0  0  0  0  0
   11.1585  -13.4698   28.3183 N   0  0  0  0  0  0  0  0  0  0  0  0
    9.9253  -14.1550   28.2018 C   0  0  0  0  0  0  0  0  0  0  0  0
    8.9605  -13.9288   29.0038 O   0  0  0  0  0  0  0  0  0  0  0  0
    9.6883  -15.1497   27.1651 C   0  0  0  0  0  0  0  0  0  0  0  0
   10.8534  -15.4278   26.2508 C   0  0  2  0  0  0  0  0  0  0  0  0
   10.4085  -14.9265   24.9316 N   0  0  0  0  0  0  0  0  0  0  0  0
   11.0671  -16.8992   26.1579 C   0  0  0  0  0  0  0  0  0  0  0  0
   10.1087  -17.8319   25.8351 O   0  0  0  0  0  0  0  0  0  0  0  0
   12.2309  -17.3784   26.3921 O   0  0  0  0  0  0  0  0  0  0  0  0
  2  1  1  6
  3  2  1  0
  4  5  1  0
  4  3  1  0
  5  6  1  0
  6  7  1  0
  8  2  1  0
  8 14  1  0
  9  8  2  0
 11 13  1  0
 11 10  1  1
 12 11  1  0
 13 14  1  1
 15 13  1  0
 16 15  2  0
 17 18  1  0
 18 19  2  0
 20 18  1  0
 21 20  1  1
 21 22  1  0
 21 23  1  0
 22 15  1  0
 23 24  1  0
 25 23  2  0
M  END
$$$$
