KVN.pdb
     RDKit          3D

 25 24  0  0  1  0  0  0  0  0999 V2000
    8.1984  -17.1551   16.4707 N   0  0  0  0  0  0  0  0  0  0  0  0
    7.5066  -16.9410   17.7535 C   0  0  1  0  0  0  0  0  0  0  0  0
    7.2018  -18.3531   18.2568 C   0  0  0  0  0  0  0  0  0  0  0  0
    7.4502  -19.4082   17.2450 C   0  0  0  0  0  0  0  0  0  0  0  0
    6.9950  -20.7784   17.6123 C   0  0  0  0  0  0  0  0  0  0  0  0
    7.1939  -21.8558   16.6036 C   0  0  0  0  0  0  0  0  0  0  0  0
    6.8191  -23.1603   17.0790 N   0  0  0  0  0  0  0  0  0  0  0  0
    8.4090  -16.2877   18.7217 C   0  0  0  0  0  0  0  0  0  0  0  0
    9.6287  -16.4726   18.6893 O   0  0  0  0  0  0  0  0  0  0  0  0
    6.6416  -13.5796   21.6601 C   0  0  0  0  0  0  0  0  0  0  0  0
    7.9344  -13.4299   20.9464 C   0  0  2  0  0  0  0  0  0  0  0  0
    7.6946  -12.6016   19.7024 C   0  0  0  0  0  0  0  0  0  0  0  0
    8.6909  -14.6878   20.6602 C   0  0  2  0  0  0  0  0  0  0  0  0
    7.8520  -15.4335   19.7035 N   0  0  0  0  0  0  0  0  0  0  0  0
    8.9559  -15.5474   21.8122 C   0  0  0  0  0  0  0  0  0  0  0  0
    8.1019  -16.3848   22.1911 O   0  0  0  0  0  0  0  0  0  0  0  0
   10.6057  -19.9885   23.1931 N   0  0  0  0  0  0  0  0  0  0  0  0
   11.4257  -18.9716   22.6478 C   0  0  0  0  0  0  0  0  0  0  0  0
   12.6852  -19.1265   22.5266 O   0  0  0  0  0  0  0  0  0  0  0  0
   10.8814  -17.6991   22.1951 C   0  0  0  0  0  0  0  0  0  0  0  0
   10.5967  -16.6905   23.2779 C   0  0  2  0  0  0  0  0  0  0  0  0
   10.1653  -15.4804   22.5436 N   0  0  0  0  0  0  0  0  0  0  0  0
   11.8572  -16.3837   24.0100 C   0  0  0  0  0  0  0  0  0  0  0  0
   12.6755  -15.3012   23.7831 O   0  0  0  0  0  0  0  0  0  0  0  0
   12.2488  -17.1723   24.9393 O   0  0  0  0  0  0  0  0  0  0  0  0
  2  1  1  6
  3  2  1  0
  4  5  1  0
  4  3  1  0
  5  6  1  0
  6  7  1  0
  8  2  1  0
  8 14  1  0
  9  8  2  0
 11 13  1  0
 11 10  1  6
 12 11  1  0
 13 14  1  6
 15 13  1  0
 16 15  2  0
 17 18  1  0
 18 19  2  0
 20 18  1  0
 21 20  1  6
 21 22  1  0
 21 23  1  0
 22 15  1  0
 23 24  1  0
 25 23  2  0
M  END
$$$$
