KVN.pdb
     RDKit          3D

 25 24  0  0  1  0  0  0  0  0999 V2000
    8.5889  -16.7112   16.1259 N   0  0  0  0  0  0  0  0  0  0  0  0
    8.0384  -16.9818   17.4651 C   0  0  1  0  0  0  0  0  0  0  0  0
    8.2389  -18.4861   17.6575 C   0  0  0  0  0  0  0  0  0  0  0  0
    7.4359  -19.3138   16.7254 C   0  0  0  0  0  0  0  0  0  0  0  0
    5.9927  -19.4584   17.0661 C   0  0  0  0  0  0  0  0  0  0  0  0
    5.1755  -20.3559   16.2033 C   0  0  0  0  0  0  0  0  0  0  0  0
    3.8107  -20.4809   16.6391 N   0  0  0  0  0  0  0  0  0  0  0  0
    8.8220  -16.2734   18.4960 C   0  0  0  0  0  0  0  0  0  0  0  0
   10.0559  -16.2732   18.4780 O   0  0  0  0  0  0  0  0  0  0  0  0
    6.5983  -14.3042   21.6263 C   0  0  0  0  0  0  0  0  0  0  0  0
    7.8479  -13.7823   21.0188 C   0  0  2  0  0  0  0  0  0  0  0  0
    7.4706  -12.7972   19.9334 C   0  0  0  0  0  0  0  0  0  0  0  0
    8.8402  -14.7986   20.5507 C   0  0  2  0  0  0  0  0  0  0  0  0
    8.1326  -15.5834   19.5219 N   0  0  0  0  0  0  0  0  0  0  0  0
    9.3406  -15.7171   21.5715 C   0  0  0  0  0  0  0  0  0  0  0  0
    8.7329  -16.7867   21.8181 O   0  0  0  0  0  0  0  0  0  0  0  0
   14.0172  -15.5094   21.5949 N   0  0  0  0  0  0  0  0  0  0  0  0
   13.1874  -16.5027   22.1682 C   0  0  0  0  0  0  0  0  0  0  0  0
   13.0568  -17.6514   21.6310 O   0  0  0  0  0  0  0  0  0  0  0  0
   12.4415  -16.2722   23.3975 C   0  0  0  0  0  0  0  0  0  0  0  0
   10.9506  -16.4681   23.3010 C   0  0  2  0  0  0  0  0  0  0  0  0
   10.5128  -15.4521   22.3183 N   0  0  0  0  0  0  0  0  0  0  0  0
   10.3266  -16.1616   24.6185 C   0  0  0  0  0  0  0  0  0  0  0  0
    9.4446  -15.1365   24.8712 O   0  0  0  0  0  0  0  0  0  0  0  0
   10.6103  -16.8927   25.6304 O   0  0  0  0  0  0  0  0  0  0  0  0
  2  1  1  6
  3  2  1  0
  4  5  1  0
  4  3  1  0
  5  6  1  0
  6  7  1  0
  8  2  1  0
  8 14  1  0
  9  8  2  0
 11 13  1  0
 11 10  1  6
 12 11  1  0
 13 14  1  6
 15 13  1  0
 16 15  2  0
 17 18  1  0
 18 19  2  0
 20 18  1  0
 21 20  1  1
 21 22  1  0
 21 23  1  0
 22 15  1  0
 23 24  1  0
 25 23  2  0
M  END
$$$$
