KVN.pdb
     RDKit          3D

 25 24  0  0  1  0  0  0  0  0999 V2000
    6.8176  -15.1869   21.4434 N   0  0  0  0  0  0  0  0  0  0  0  0
    8.1755  -14.6422   21.2720 C   0  0  1  0  0  0  0  0  0  0  0  0
    7.9744  -13.3950   20.4094 C   0  0  0  0  0  0  0  0  0  0  0  0
    8.5564  -13.5153   19.0509 C   0  0  0  0  0  0  0  0  0  0  0  0
    7.5863  -13.4492   17.9220 C   0  0  0  0  0  0  0  0  0  0  0  0
    8.1450  -13.4660   16.5417 C   0  0  0  0  0  0  0  0  0  0  0  0
    7.1448  -13.6344   15.5221 N   0  0  0  0  0  0  0  0  0  0  0  0
    8.7290  -14.2218   22.5741 C   0  0  0  0  0  0  0  0  0  0  0  0
    9.8790  -13.7851   22.6726 O   0  0  0  0  0  0  0  0  0  0  0  0
    7.7129  -12.6538   27.0737 C   0  0  0  0  0  0  0  0  0  0  0  0
    7.4011  -13.1666   25.7162 C   0  0  2  0  0  0  0  0  0  0  0  0
    6.0330  -13.8126   25.7574 C   0  0  0  0  0  0  0  0  0  0  0  0
    8.4306  -14.0449   25.0794 C   0  0  2  0  0  0  0  0  0  0  0  0
    7.9143  -14.3266   23.7270 N   0  0  0  0  0  0  0  0  0  0  0  0
    8.6863  -15.3169   25.7521 C   0  0  0  0  0  0  0  0  0  0  0  0
    7.8056  -16.2100   25.7807 O   0  0  0  0  0  0  0  0  0  0  0  0
   12.0119  -17.1498   24.0334 N   0  0  0  0  0  0  0  0  0  0  0  0
   11.1571  -17.7738   24.9736 C   0  0  0  0  0  0  0  0  0  0  0  0
   10.2442  -18.5845   24.6069 O   0  0  0  0  0  0  0  0  0  0  0  0
   11.2716  -17.5289   26.4045 C   0  0  0  0  0  0  0  0  0  0  0  0
   10.0617  -16.9134   27.0586 C   0  0  2  0  0  0  0  0  0  0  0  0
    9.9161  -15.6003   26.3921 N   0  0  0  0  0  0  0  0  0  0  0  0
   10.3431  -16.6892   28.5042 C   0  0  0  0  0  0  0  0  0  0  0  0
   10.3379  -17.6556   29.4835 O   0  0  0  0  0  0  0  0  0  0  0  0
   10.6179  -15.5073   28.9122 O   0  0  0  0  0  0  0  0  0  0  0  0
  2  1  1  1
  3  2  1  0
  4  5  1  0
  4  3  1  0
  5  6  1  0
  6  7  1  0
  8  2  1  0
  8 14  1  0
  9  8  2  0
 11 13  1  0
 11 10  1  1
 12 11  1  0
 13 14  1  6
 15 13  1  0
 16 15  2  0
 17 18  1  0
 18 19  2  0
 20 18  1  0
 21 20  1  6
 21 22  1  0
 21 23  1  0
 22 15  1  0
 23 24  1  0
 25 23  2  0
M  END
$$$$
