KVN.pdb
     RDKit          3D

 25 24  0  0  1  0  0  0  0  0999 V2000
    9.0896  -17.3100   16.0469 N   0  0  0  0  0  0  0  0  0  0  0  0
    8.1647  -17.1046   17.1748 C   0  0  1  0  0  0  0  0  0  0  0  0
    7.8302  -18.5197   17.6496 C   0  0  0  0  0  0  0  0  0  0  0  0
    8.7098  -19.5622   17.0680 C   0  0  0  0  0  0  0  0  0  0  0  0
    8.3688  -20.9689   17.4212 C   0  0  0  0  0  0  0  0  0  0  0  0
    9.2317  -22.0421   16.8544 C   0  0  0  0  0  0  0  0  0  0  0  0
    8.8564  -23.3630   17.2819 N   0  0  0  0  0  0  0  0  0  0  0  0
    8.8455  -16.3944   18.2752 C   0  0  0  0  0  0  0  0  0  0  0  0
   10.0718  -16.4374   18.4063 O   0  0  0  0  0  0  0  0  0  0  0  0
    7.1108  -12.9221   19.7281 C   0  0  0  0  0  0  0  0  0  0  0  0
    7.5925  -13.9160   20.7196 C   0  0  2  0  0  0  0  0  0  0  0  0
    7.9562  -13.1784   21.9903 C   0  0  0  0  0  0  0  0  0  0  0  0
    8.6740  -14.8440   20.2662 C   0  0  2  0  0  0  0  0  0  0  0  0
    8.0647  -15.6518   19.1932 N   0  0  0  0  0  0  0  0  0  0  0  0
    9.2041  -15.7494   21.2837 C   0  0  0  0  0  0  0  0  0  0  0  0
    8.5529  -16.7625   21.6356 O   0  0  0  0  0  0  0  0  0  0  0  0
   13.5820  -18.6940   23.2737 N   0  0  0  0  0  0  0  0  0  0  0  0
   13.2351  -17.3517   23.5592 C   0  0  0  0  0  0  0  0  0  0  0  0
   13.5889  -16.7904   24.6477 O   0  0  0  0  0  0  0  0  0  0  0  0
   12.4609  -16.5390   22.6314 C   0  0  0  0  0  0  0  0  0  0  0  0
   10.9658  -16.5894   22.8127 C   0  0  2  0  0  0  0  0  0  0  0  0
   10.4541  -15.5338   21.9108 N   0  0  0  0  0  0  0  0  0  0  0  0
   10.6269  -16.2265   24.2172 C   0  0  0  0  0  0  0  0  0  0  0  0
   10.0410  -15.0502   24.6244 O   0  0  0  0  0  0  0  0  0  0  0  0
   10.8880  -17.0546   25.1578 O   0  0  0  0  0  0  0  0  0  0  0  0
  2  1  1  6
  3  2  1  0
  4  5  1  0
  4  3  1  0
  5  6  1  0
  6  7  1  0
  8  2  1  0
  8 14  1  0
  9  8  2  0
 11 13  1  0
 11 10  1  6
 12 11  1  0
 13 14  1  6
 15 13  1  0
 16 15  2  0
 17 18  1  0
 18 19  2  0
 20 18  1  0
 21 20  1  1
 21 22  1  0
 21 23  1  0
 22 15  1  0
 23 24  1  0
 25 23  2  0
M  END
$$$$
