KVN.pdb
     RDKit          3D

 25 24  0  0  1  0  0  0  0  0999 V2000
    7.9934  -17.6938   16.0087 N   0  0  0  0  0  0  0  0  0  0  0  0
    7.3263  -17.3307   17.2709 C   0  0  1  0  0  0  0  0  0  0  0  0
    7.0619  -18.6725   17.9562 C   0  0  0  0  0  0  0  0  0  0  0  0
    6.7001  -19.7576   17.0126 C   0  0  0  0  0  0  0  0  0  0  0  0
    7.6163  -20.9324   16.9938 C   0  0  0  0  0  0  0  0  0  0  0  0
    7.5082  -21.8988   18.1217 C   0  0  0  0  0  0  0  0  0  0  0  0
    8.5136  -22.9268   18.0920 N   0  0  0  0  0  0  0  0  0  0  0  0
    8.2366  -16.5440   18.1259 C   0  0  0  0  0  0  0  0  0  0  0  0
    9.4616  -16.6703   18.0472 O   0  0  0  0  0  0  0  0  0  0  0  0
    8.2885  -12.6504   21.2412 C   0  0  0  0  0  0  0  0  0  0  0  0
    7.6492  -13.6930   20.4002 C   0  0  2  0  0  0  0  0  0  0  0  0
    6.3960  -14.1662   21.1048 C   0  0  0  0  0  0  0  0  0  0  0  0
    8.5211  -14.8254   19.9595 C   0  0  2  0  0  0  0  0  0  0  0  0
    7.6810  -15.6287   19.0518 N   0  0  0  0  0  0  0  0  0  0  0  0
    9.0192  -15.6963   21.0223 C   0  0  0  0  0  0  0  0  0  0  0  0
    8.3646  -16.7063   21.3765 O   0  0  0  0  0  0  0  0  0  0  0  0
   13.1645  -18.7453   23.0865 N   0  0  0  0  0  0  0  0  0  0  0  0
   13.0011  -17.3526   23.2806 C   0  0  0  0  0  0  0  0  0  0  0  0
   13.5299  -16.7530   24.2736 O   0  0  0  0  0  0  0  0  0  0  0  0
   12.2262  -16.5296   22.3627 C   0  0  0  0  0  0  0  0  0  0  0  0
   10.7421  -16.4876   22.6200 C   0  0  2  0  0  0  0  0  0  0  0  0
   10.2411  -15.4496   21.6919 N   0  0  0  0  0  0  0  0  0  0  0  0
   10.4967  -16.0390   24.0192 C   0  0  0  0  0  0  0  0  0  0  0  0
   10.4835  -16.8479   25.1320 O   0  0  0  0  0  0  0  0  0  0  0  0
   10.2739  -14.7995   24.2489 O   0  0  0  0  0  0  0  0  0  0  0  0
  2  1  1  6
  3  2  1  0
  4  5  1  0
  4  3  1  0
  5  6  1  0
  6  7  1  0
  8  2  1  0
  8 14  1  0
  9  8  2  0
 11 13  1  0
 11 10  1  1
 12 11  1  0
 13 14  1  6
 15 13  1  0
 16 15  2  0
 17 18  1  0
 18 19  2  0
 20 18  1  0
 21 20  1  1
 21 22  1  0
 21 23  1  0
 22 15  1  0
 23 24  1  0
 25 23  2  0
M  END
$$$$
