KVN.pdb
     RDKit          3D

 25 24  0  0  1  0  0  0  0  0999 V2000
    7.8881  -12.7101   20.0726 N   0  0  0  0  0  0  0  0  0  0  0  0
    7.3920  -13.7515   20.9885 C   0  0  1  0  0  0  0  0  0  0  0  0
    7.8226  -15.0651   20.3334 C   0  0  0  0  0  0  0  0  0  0  0  0
    7.1973  -15.2986   19.0093 C   0  0  0  0  0  0  0  0  0  0  0  0
    7.5767  -16.5682   18.3282 C   0  0  0  0  0  0  0  0  0  0  0  0
    6.9297  -16.8587   17.0187 C   0  0  0  0  0  0  0  0  0  0  0  0
    7.3144  -18.1267   16.4598 N   0  0  0  0  0  0  0  0  0  0  0  0
    8.0619  -13.6451   22.2994 C   0  0  0  0  0  0  0  0  0  0  0  0
    9.2781  -13.4549   22.3860 O   0  0  0  0  0  0  0  0  0  0  0  0
    6.5349  -11.6696   25.4121 C   0  0  0  0  0  0  0  0  0  0  0  0
    6.8543  -13.0912   25.6949 C   0  0  2  0  0  0  0  0  0  0  0  0
    7.1822  -13.2184   27.1671 C   0  0  0  0  0  0  0  0  0  0  0  0
    7.8844  -13.7327   24.8209 C   0  0  2  0  0  0  0  0  0  0  0  0
    7.2824  -13.7653   23.4750 N   0  0  0  0  0  0  0  0  0  0  0  0
    8.2729  -15.0930   25.1879 C   0  0  0  0  0  0  0  0  0  0  0  0
    7.4403  -16.0298   25.1311 O   0  0  0  0  0  0  0  0  0  0  0  0
   12.6922  -18.5409   26.7745 N   0  0  0  0  0  0  0  0  0  0  0  0
   11.8380  -18.3623   25.6599 C   0  0  0  0  0  0  0  0  0  0  0  0
   11.5552  -19.3280   24.8772 O   0  0  0  0  0  0  0  0  0  0  0  0
   11.2355  -17.0743   25.3460 C   0  0  0  0  0  0  0  0  0  0  0  0
    9.8733  -16.8300   25.9421 C   0  0  2  0  0  0  0  0  0  0  0  0
    9.5820  -15.4161   25.6169 N   0  0  0  0  0  0  0  0  0  0  0  0
    9.9496  -16.9759   27.4227 C   0  0  0  0  0  0  0  0  0  0  0  0
    9.8001  -18.1503   28.1235 O   0  0  0  0  0  0  0  0  0  0  0  0
   10.1719  -15.9409   28.1427 O   0  0  0  0  0  0  0  0  0  0  0  0
  2  1  1  6
  3  2  1  0
  4  5  1  0
  4  3  1  0
  5  6  1  0
  6  7  1  0
  8  2  1  0
  8 14  1  0
  9  8  2  0
 11 13  1  0
 11 10  1  6
 12 11  1  0
 13 14  1  6
 15 13  1  0
 16 15  2  0
 17 18  1  0
 18 19  2  0
 20 18  1  0
 21 20  1  6
 21 22  1  0
 21 23  1  0
 22 15  1  0
 23 24  1  0
 25 23  2  0
M  END
$$$$
