KVN.pdb
     RDKit          3D

 25 24  0  0  1  0  0  0  0  0999 V2000
    8.4139  -18.0213   16.1169 N   0  0  0  0  0  0  0  0  0  0  0  0
    7.6327  -17.6511   17.3096 C   0  0  1  0  0  0  0  0  0  0  0  0
    7.3452  -18.9855   18.0002 C   0  0  0  0  0  0  0  0  0  0  0  0
    6.2238  -19.7386   17.3886 C   0  0  0  0  0  0  0  0  0  0  0  0
    6.6005  -20.7125   16.3259 C   0  0  0  0  0  0  0  0  0  0  0  0
    5.5116  -21.5525   15.7545 C   0  0  0  0  0  0  0  0  0  0  0  0
    4.3218  -20.8089   15.4387 N   0  0  0  0  0  0  0  0  0  0  0  0
    8.4465  -16.8227   18.2207 C   0  0  0  0  0  0  0  0  0  0  0  0
    9.6631  -16.9961   18.3327 O   0  0  0  0  0  0  0  0  0  0  0  0
    8.1689  -12.6546   20.9561 C   0  0  0  0  0  0  0  0  0  0  0  0
    7.6112  -13.8010   20.1960 C   0  0  2  0  0  0  0  0  0  0  0  0
    6.3635  -14.2781   20.9076 C   0  0  0  0  0  0  0  0  0  0  0  0
    8.5543  -14.9183   19.8816 C   0  0  2  0  0  0  0  0  0  0  0  0
    7.8067  -15.8112   18.9767 N   0  0  0  0  0  0  0  0  0  0  0  0
    9.0183  -15.7007   21.0256 C   0  0  0  0  0  0  0  0  0  0  0  0
    8.3623  -16.6922   21.4265 O   0  0  0  0  0  0  0  0  0  0  0  0
   13.3002  -18.4891   23.3260 N   0  0  0  0  0  0  0  0  0  0  0  0
   12.9156  -17.1460   23.5540 C   0  0  0  0  0  0  0  0  0  0  0  0
   13.2033  -16.5473   24.6421 O   0  0  0  0  0  0  0  0  0  0  0  0
   12.1756  -16.3749   22.5649 C   0  0  0  0  0  0  0  0  0  0  0  0
   10.6804  -16.3433   22.7494 C   0  0  2  0  0  0  0  0  0  0  0  0
   10.2076  -15.3861   21.7247 N   0  0  0  0  0  0  0  0  0  0  0  0
   10.3615  -15.7983   24.0986 C   0  0  0  0  0  0  0  0  0  0  0  0
   10.2700  -16.5301   25.2601 O   0  0  0  0  0  0  0  0  0  0  0  0
   10.1465  -14.5434   24.2317 O   0  0  0  0  0  0  0  0  0  0  0  0
  2  1  1  6
  3  2  1  0
  4  5  1  0
  4  3  1  0
  5  6  1  0
  6  7  1  0
  8  2  1  0
  8 14  1  0
  9  8  2  0
 11 13  1  0
 11 10  1  1
 12 11  1  0
 13 14  1  6
 15 13  1  0
 16 15  2  0
 17 18  1  0
 18 19  2  0
 20 18  1  0
 21 20  1  1
 21 22  1  0
 21 23  1  0
 22 15  1  0
 23 24  1  0
 25 23  2  0
M  END
$$$$
