KVN.pdb
     RDKit          3D

 25 24  0  0  1  0  0  0  0  0999 V2000
    9.1266  -15.2844   20.9831 N   0  0  0  0  0  0  0  0  0  0  0  0
    7.9758  -15.1937   21.8980 C   0  0  1  0  0  0  0  0  0  0  0  0
    7.4628  -16.6311   22.0010 C   0  0  0  0  0  0  0  0  0  0  0  0
    7.6748  -17.4248   20.7666 C   0  0  0  0  0  0  0  0  0  0  0  0
    6.5074  -18.2262   20.3029 C   0  0  0  0  0  0  0  0  0  0  0  0
    6.7058  -19.0888   19.1053 C   0  0  0  0  0  0  0  0  0  0  0  0
    6.6703  -20.4956   19.4018 N   0  0  0  0  0  0  0  0  0  0  0  0
    8.4172  -14.7610   23.2383 C   0  0  0  0  0  0  0  0  0  0  0  0
    9.5925  -14.8770   23.5963 O   0  0  0  0  0  0  0  0  0  0  0  0
    6.5240  -11.5952   25.1183 C   0  0  0  0  0  0  0  0  0  0  0  0
    6.7043  -12.8457   25.8972 C   0  0  2  0  0  0  0  0  0  0  0  0
    6.7718  -12.4831   27.3651 C   0  0  0  0  0  0  0  0  0  0  0  0
    7.8257  -13.7411   25.4759 C   0  0  2  0  0  0  0  0  0  0  0  0
    7.4634  -14.2029   24.1230 N   0  0  0  0  0  0  0  0  0  0  0  0
    8.0564  -14.9123   26.3192 C   0  0  0  0  0  0  0  0  0  0  0  0
    8.5412  -14.7830   27.4691 O   0  0  0  0  0  0  0  0  0  0  0  0
    7.4563  -20.9867   26.2676 N   0  0  0  0  0  0  0  0  0  0  0  0
    7.2939  -19.7552   26.9465 C   0  0  0  0  0  0  0  0  0  0  0  0
    7.2342  -19.6999   28.2187 O   0  0  0  0  0  0  0  0  0  0  0  0
    7.1883  -18.4885   26.2360 C   0  0  0  0  0  0  0  0  0  0  0  0
    7.9124  -17.3265   26.8652 C   0  0  2  0  0  0  0  0  0  0  0  0
    7.7502  -16.2254   25.8901 N   0  0  0  0  0  0  0  0  0  0  0  0
    9.3610  -17.6535   26.9832 C   0  0  0  0  0  0  0  0  0  0  0  0
   10.0323  -17.9191   28.1543 O   0  0  0  0  0  0  0  0  0  0  0  0
   10.0797  -17.7012   25.9249 O   0  0  0  0  0  0  0  0  0  0  0  0
  2  1  1  6
  3  2  1  0
  4  5  1  0
  4  3  1  0
  5  6  1  0
  6  7  1  0
  8  2  1  0
  8 14  1  0
  9  8  2  0
 11 13  1  0
 11 10  1  6
 12 11  1  0
 13 14  1  6
 15 13  1  0
 16 15  2  0
 17 18  1  0
 18 19  2  0
 20 18  1  0
 21 20  1  6
 21 22  1  0
 21 23  1  0
 22 15  1  0
 23 24  1  0
 25 23  2  0
M  END
$$$$
