KVN.pdb
     RDKit          3D

 25 24  0  0  1  0  0  0  0  0999 V2000
    8.8187  -16.3095   15.8393 N   0  0  0  0  0  0  0  0  0  0  0  0
    8.1775  -16.6409   17.1234 C   0  0  1  0  0  0  0  0  0  0  0  0
    8.3163  -18.1604   17.2322 C   0  0  0  0  0  0  0  0  0  0  0  0
    7.6176  -18.8971   16.1516 C   0  0  0  0  0  0  0  0  0  0  0  0
    6.3982  -19.6481   16.5628 C   0  0  0  0  0  0  0  0  0  0  0  0
    5.7159  -20.4631   15.5197 C   0  0  0  0  0  0  0  0  0  0  0  0
    4.5286  -21.1213   15.9944 N   0  0  0  0  0  0  0  0  0  0  0  0
    8.9183  -16.0257   18.2420 C   0  0  0  0  0  0  0  0  0  0  0  0
   10.1513  -15.9737   18.2448 O   0  0  0  0  0  0  0  0  0  0  0  0
    6.6190  -14.2301   21.4945 C   0  0  0  0  0  0  0  0  0  0  0  0
    7.9458  -13.8147   20.9747 C   0  0  2  0  0  0  0  0  0  0  0  0
    7.7285  -12.7522   19.9188 C   0  0  0  0  0  0  0  0  0  0  0  0
    8.8548  -14.9074   20.5097 C   0  0  2  0  0  0  0  0  0  0  0  0
    8.1883  -15.4874   19.3288 N   0  0  0  0  0  0  0  0  0  0  0  0
    9.1073  -15.9782   21.4719 C   0  0  0  0  0  0  0  0  0  0  0  0
    8.8496  -17.1707   21.1790 O   0  0  0  0  0  0  0  0  0  0  0  0
   14.2313  -16.4570   23.2597 N   0  0  0  0  0  0  0  0  0  0  0  0
   13.1119  -17.0572   22.6348 C   0  0  0  0  0  0  0  0  0  0  0  0
   13.1211  -18.2848   22.2910 O   0  0  0  0  0  0  0  0  0  0  0  0
   11.8927  -16.3128   22.3521 C   0  0  0  0  0  0  0  0  0  0  0  0
   10.7178  -16.6252   23.2424 C   0  0  2  0  0  0  0  0  0  0  0  0
    9.6449  -15.7292   22.7568 N   0  0  0  0  0  0  0  0  0  0  0  0
   11.0516  -16.2569   24.6468 C   0  0  0  0  0  0  0  0  0  0  0  0
   11.6768  -17.0697   25.5640 O   0  0  0  0  0  0  0  0  0  0  0  0
   10.7461  -15.0906   25.0772 O   0  0  0  0  0  0  0  0  0  0  0  0
  2  1  1  6
  3  2  1  0
  4  5  1  0
  4  3  1  0
  5  6  1  0
  6  7  1  0
  8  2  1  0
  8 14  1  0
  9  8  2  0
 11 13  1  0
 11 10  1  6
 12 11  1  0
 13 14  1  6
 15 13  1  0
 16 15  2  0
 17 18  1  0
 18 19  2  0
 20 18  1  0
 21 20  1  6
 21 22  1  0
 21 23  1  0
 22 15  1  0
 23 24  1  0
 25 23  2  0
M  END
$$$$
