KVN.pdb
     RDKit          3D

 25 24  0  0  1  0  0  0  0  0999 V2000
    6.7773  -15.5770   21.2482 N   0  0  0  0  0  0  0  0  0  0  0  0
    6.4303  -15.8076   22.6610 C   0  0  1  0  0  0  0  0  0  0  0  0
    6.5781  -17.3193   22.8428 C   0  0  0  0  0  0  0  0  0  0  0  0
    5.6763  -18.1109   21.9717 C   0  0  0  0  0  0  0  0  0  0  0  0
    5.7731  -19.5909   22.1133 C   0  0  0  0  0  0  0  0  0  0  0  0
    4.9136  -20.4182   21.2219 C   0  0  0  0  0  0  0  0  0  0  0  0
    5.1148  -21.8328   21.3857 N   0  0  0  0  0  0  0  0  0  0  0  0
    7.4026  -15.1363   23.5456 C   0  0  0  0  0  0  0  0  0  0  0  0
    8.6035  -15.0930   23.2649 O   0  0  0  0  0  0  0  0  0  0  0  0
    6.3397  -11.8265   25.6082 C   0  0  0  0  0  0  0  0  0  0  0  0
    6.9919  -12.8822   26.4226 C   0  0  2  0  0  0  0  0  0  0  0  0
    7.7288  -12.2125   27.5624 C   0  0  0  0  0  0  0  0  0  0  0  0
    7.8464  -13.8640   25.6860 C   0  0  2  0  0  0  0  0  0  0  0  0
    6.9359  -14.5332   24.7382 N   0  0  0  0  0  0  0  0  0  0  0  0
    8.4940  -14.8856   26.5064 C   0  0  0  0  0  0  0  0  0  0  0  0
    7.8131  -15.7799   27.0639 O   0  0  0  0  0  0  0  0  0  0  0  0
   12.1610  -16.0498   24.4952 N   0  0  0  0  0  0  0  0  0  0  0  0
   11.6878  -16.8179   25.5861 C   0  0  0  0  0  0  0  0  0  0  0  0
   11.1763  -17.9728   25.4141 O   0  0  0  0  0  0  0  0  0  0  0  0
   11.7592  -16.3373   26.9589 C   0  0  0  0  0  0  0  0  0  0  0  0
   10.4407  -15.9728   27.5906 C   0  0  2  0  0  0  0  0  0  0  0  0
    9.8940  -14.9177   26.7089 N   0  0  0  0  0  0  0  0  0  0  0  0
   10.6845  -15.3915   28.9404 C   0  0  0  0  0  0  0  0  0  0  0  0
   11.0654  -16.0930   30.0609 O   0  0  0  0  0  0  0  0  0  0  0  0
   10.5369  -14.1319   29.1151 O   0  0  0  0  0  0  0  0  0  0  0  0
  2  1  1  6
  3  2  1  0
  4  5  1  0
  4  3  1  0
  5  6  1  0
  6  7  1  0
  8  2  1  0
  8 14  1  0
  9  8  2  0
 11 13  1  0
 11 10  1  6
 12 11  1  0
 13 14  1  6
 15 13  1  0
 16 15  2  0
 17 18  1  0
 18 19  2  0
 20 18  1  0
 21 20  1  6
 21 22  1  0
 21 23  1  0
 22 15  1  0
 23 24  1  0
 25 23  2  0
M  END
$$$$
