KVN.pdb
     RDKit          3D

 25 24  0  0  1  0  0  0  0  0999 V2000
    4.6594  -15.8808   22.8549 N   0  0  0  0  0  0  0  0  0  0  0  0
    5.9945  -16.5026   22.8813 C   0  0  1  0  0  0  0  0  0  0  0  0
    6.3618  -16.6681   21.4055 C   0  0  0  0  0  0  0  0  0  0  0  0
    5.8725  -17.9362   20.8128 C   0  0  0  0  0  0  0  0  0  0  0  0
    6.2730  -18.1881   19.4000 C   0  0  0  0  0  0  0  0  0  0  0  0
    5.7694  -19.4355   18.7611 C   0  0  0  0  0  0  0  0  0  0  0  0
    6.0987  -19.5358   17.3648 N   0  0  0  0  0  0  0  0  0  0  0  0
    6.9742  -15.5911   23.5041 C   0  0  0  0  0  0  0  0  0  0  0  0
    7.9193  -15.1267   22.8607 O   0  0  0  0  0  0  0  0  0  0  0  0
    6.1249  -12.4405   25.6380 C   0  0  0  0  0  0  0  0  0  0  0  0
    6.9196  -13.4463   26.3863 C   0  0  2  0  0  0  0  0  0  0  0  0
    7.7103  -12.7238   27.4557 C   0  0  0  0  0  0  0  0  0  0  0  0
    7.7681  -14.3700   25.5718 C   0  0  2  0  0  0  0  0  0  0  0  0
    6.8158  -15.2496   24.8687 N   0  0  0  0  0  0  0  0  0  0  0  0
    8.7024  -15.2054   26.3237 C   0  0  0  0  0  0  0  0  0  0  0  0
    8.2841  -16.1685   27.0104 O   0  0  0  0  0  0  0  0  0  0  0  0
   13.7727  -17.8073   26.0905 N   0  0  0  0  0  0  0  0  0  0  0  0
   13.3986  -16.6192   26.7631 C   0  0  0  0  0  0  0  0  0  0  0  0
   13.9957  -16.2389   27.8232 O   0  0  0  0  0  0  0  0  0  0  0  0
   12.3185  -15.7674   26.2851 C   0  0  0  0  0  0  0  0  0  0  0  0
   10.9724  -16.0051   26.9192 C   0  0  2  0  0  0  0  0  0  0  0  0
   10.0985  -14.9752   26.3149 N   0  0  0  0  0  0  0  0  0  0  0  0
   11.0665  -15.7548   28.3847 C   0  0  0  0  0  0  0  0  0  0  0  0
   10.6577  -14.6123   29.0329 O   0  0  0  0  0  0  0  0  0  0  0  0
   11.5663  -16.6573   29.1427 O   0  0  0  0  0  0  0  0  0  0  0  0
  2  1  1  6
  3  2  1  0
  4  5  1  0
  4  3  1  0
  5  6  1  0
  6  7  1  0
  8  2  1  0
  8 14  1  0
  9  8  2  0
 11 13  1  0
 11 10  1  6
 12 11  1  0
 13 14  1  1
 15 13  1  0
 16 15  2  0
 17 18  1  0
 18 19  2  0
 20 18  1  0
 21 20  1  6
 21 22  1  0
 21 23  1  0
 22 15  1  0
 23 24  1  0
 25 23  2  0
M  END
$$$$
