KVN.pdb
     RDKit          3D

 25 24  0  0  1  0  0  0  0  0999 V2000
    9.1788  -16.9154   15.6622 N   0  0  0  0  0  0  0  0  0  0  0  0
    8.2309  -16.6713   16.7631 C   0  0  1  0  0  0  0  0  0  0  0  0
    7.8145  -18.0710   17.2183 C   0  0  0  0  0  0  0  0  0  0  0  0
    7.1509  -18.8655   16.1566 C   0  0  0  0  0  0  0  0  0  0  0  0
    6.5537  -20.1589   16.5926 C   0  0  0  0  0  0  0  0  0  0  0  0
    5.8036  -20.9415   15.5715 C   0  0  0  0  0  0  0  0  0  0  0  0
    5.3566  -22.2227   16.0480 N   0  0  0  0  0  0  0  0  0  0  0  0
    8.9111  -16.0003   17.8881 C   0  0  0  0  0  0  0  0  0  0  0  0
   10.1079  -16.1909   18.1213 O   0  0  0  0  0  0  0  0  0  0  0  0
    8.2050  -12.5354   21.4180 C   0  0  0  0  0  0  0  0  0  0  0  0
    7.7962  -13.4099   20.2906 C   0  0  2  0  0  0  0  0  0  0  0  0
    6.3897  -13.9006   20.5585 C   0  0  0  0  0  0  0  0  0  0  0  0
    8.7317  -14.5199   19.9309 C   0  0  2  0  0  0  0  0  0  0  0  0
    8.1647  -15.1220   18.7099 N   0  0  0  0  0  0  0  0  0  0  0  0
    8.8895  -15.5701   20.9352 C   0  0  0  0  0  0  0  0  0  0  0  0
    8.2556  -16.6480   20.8337 O   0  0  0  0  0  0  0  0  0  0  0  0
   12.5208  -19.4304   22.0794 N   0  0  0  0  0  0  0  0  0  0  0  0
   11.5130  -18.6355   22.6764 C   0  0  0  0  0  0  0  0  0  0  0  0
   10.9474  -18.9852   23.7641 O   0  0  0  0  0  0  0  0  0  0  0  0
   11.0684  -17.3800   22.0878 C   0  0  0  0  0  0  0  0  0  0  0  0
   10.0225  -16.6284   22.8699 C   0  0  2  0  0  0  0  0  0  0  0  0
    9.7486  -15.4272   22.0504 N   0  0  0  0  0  0  0  0  0  0  0  0
   10.5974  -16.1980   24.1751 C   0  0  0  0  0  0  0  0  0  0  0  0
   10.6319  -16.9513   25.3258 O   0  0  0  0  0  0  0  0  0  0  0  0
   11.1141  -15.0312   24.2768 O   0  0  0  0  0  0  0  0  0  0  0  0
  2  1  1  6
  3  2  1  0
  4  5  1  0
  4  3  1  0
  5  6  1  0
  6  7  1  0
  8  2  1  0
  8 14  1  0
  9  8  2  0
 11 13  1  0
 11 10  1  1
 12 11  1  0
 13 14  1  6
 15 13  1  0
 16 15  2  0
 17 18  1  0
 18 19  2  0
 20 18  1  0
 21 20  1  6
 21 22  1  0
 21 23  1  0
 22 15  1  0
 23 24  1  0
 25 23  2  0
M  END
$$$$
