KVN.pdb
     RDKit          3D

 25 24  0  0  1  0  0  0  0  0999 V2000
    8.0544  -15.2148   20.8723 N   0  0  0  0  0  0  0  0  0  0  0  0
    7.3281  -15.3482   22.1468 C   0  0  1  0  0  0  0  0  0  0  0  0
    7.0798  -16.8515   22.2828 C   0  0  0  0  0  0  0  0  0  0  0  0
    7.3262  -17.6074   21.0311 C   0  0  0  0  0  0  0  0  0  0  0  0
    6.2062  -18.4726   20.5654 C   0  0  0  0  0  0  0  0  0  0  0  0
    6.4507  -19.3141   19.3613 C   0  0  0  0  0  0  0  0  0  0  0  0
    6.9758  -20.6166   19.6712 N   0  0  0  0  0  0  0  0  0  0  0  0
    8.1797  -14.9147   23.2718 C   0  0  0  0  0  0  0  0  0  0  0  0
    9.4018  -15.0851   23.2555 O   0  0  0  0  0  0  0  0  0  0  0  0
    6.2234  -13.1426   26.7405 C   0  0  0  0  0  0  0  0  0  0  0  0
    7.5175  -12.7220   26.1478 C   0  0  2  0  0  0  0  0  0  0  0  0
    7.2505  -11.5798   25.1912 C   0  0  0  0  0  0  0  0  0  0  0  0
    8.3548  -13.7990   25.5349 C   0  0  2  0  0  0  0  0  0  0  0  0
    7.5703  -14.2917   24.3873 N   0  0  0  0  0  0  0  0  0  0  0  0
    8.6689  -14.9325   26.4024 C   0  0  0  0  0  0  0  0  0  0  0  0
    7.8318  -15.8503   26.5784 O   0  0  0  0  0  0  0  0  0  0  0  0
   13.1744  -18.2620   28.2212 N   0  0  0  0  0  0  0  0  0  0  0  0
   11.7958  -18.1293   27.9281 C   0  0  0  0  0  0  0  0  0  0  0  0
   10.9533  -19.0208   28.2752 O   0  0  0  0  0  0  0  0  0  0  0  0
   11.2637  -16.9737   27.2196 C   0  0  0  0  0  0  0  0  0  0  0  0
   10.1323  -16.2531   27.9062 C   0  0  2  0  0  0  0  0  0  0  0  0
    9.9088  -15.0502   27.0740 N   0  0  0  0  0  0  0  0  0  0  0  0
   10.5727  -15.8231   29.2628 C   0  0  0  0  0  0  0  0  0  0  0  0
   10.7360  -16.6458   30.3533 O   0  0  0  0  0  0  0  0  0  0  0  0
   10.8317  -14.5873   29.4740 O   0  0  0  0  0  0  0  0  0  0  0  0
  2  1  1  6
  3  2  1  0
  4  5  1  0
  4  3  1  0
  5  6  1  0
  6  7  1  0
  8  2  1  0
  8 14  1  0
  9  8  2  0
 11 13  1  0
 11 10  1  6
 12 11  1  0
 13 14  1  6
 15 13  1  0
 16 15  2  0
 17 18  1  0
 18 19  2  0
 20 18  1  0
 21 20  1  6
 21 22  1  0
 21 23  1  0
 22 15  1  0
 23 24  1  0
 25 23  2  0
M  END
$$$$
