KVN.pdb
     RDKit          3D

 25 24  0  0  1  0  0  0  0  0999 V2000
    8.2711  -17.7862   16.3734 N   0  0  0  0  0  0  0  0  0  0  0  0
    7.5880  -17.7090   17.6762 C   0  0  1  0  0  0  0  0  0  0  0  0
    7.5721  -19.1536   18.1790 C   0  0  0  0  0  0  0  0  0  0  0  0
    7.1860  -20.1377   17.1391 C   0  0  0  0  0  0  0  0  0  0  0  0
    7.9987  -21.3856   17.0942 C   0  0  0  0  0  0  0  0  0  0  0  0
    7.2864  -22.6715   17.3325 C   0  0  0  0  0  0  0  0  0  0  0  0
    7.7910  -23.4036   18.4628 N   0  0  0  0  0  0  0  0  0  0  0  0
    8.3767  -16.8965   18.6230 C   0  0  0  0  0  0  0  0  0  0  0  0
    9.6092  -16.8644   18.5705 O   0  0  0  0  0  0  0  0  0  0  0  0
    7.0812  -13.2841   19.6717 C   0  0  0  0  0  0  0  0  0  0  0  0
    7.4558  -14.1372   20.8271 C   0  0  2  0  0  0  0  0  0  0  0  0
    7.9334  -13.2358   21.9453 C   0  0  0  0  0  0  0  0  0  0  0  0
    8.4047  -15.2596   20.5509 C   0  0  2  0  0  0  0  0  0  0  0  0
    7.6938  -16.1426   19.6075 N   0  0  0  0  0  0  0  0  0  0  0  0
    8.8097  -16.0510   21.7110 C   0  0  0  0  0  0  0  0  0  0  0  0
    8.3874  -17.2230   21.8606 O   0  0  0  0  0  0  0  0  0  0  0  0
   14.1867  -16.7330   22.0612 N   0  0  0  0  0  0  0  0  0  0  0  0
   12.9003  -17.3161   22.1551 C   0  0  0  0  0  0  0  0  0  0  0  0
   12.7489  -18.5537   22.4209 O   0  0  0  0  0  0  0  0  0  0  0  0
   11.6835  -16.5411   21.9568 C   0  0  0  0  0  0  0  0  0  0  0  0
   10.7869  -16.4171   23.1614 C   0  0  2  0  0  0  0  0  0  0  0  0
    9.6816  -15.5458   22.7042 N   0  0  0  0  0  0  0  0  0  0  0  0
   11.5234  -15.7238   24.2552 C   0  0  0  0  0  0  0  0  0  0  0  0
   11.8804  -14.3952   24.2675 O   0  0  0  0  0  0  0  0  0  0  0  0
   11.8734  -16.3876   25.2923 O   0  0  0  0  0  0  0  0  0  0  0  0
  2  1  1  6
  3  2  1  0
  4  5  1  0
  4  3  1  0
  5  6  1  0
  6  7  1  0
  8  2  1  0
  8 14  1  0
  9  8  2  0
 11 13  1  0
 11 10  1  6
 12 11  1  0
 13 14  1  6
 15 13  1  0
 16 15  2  0
 17 18  1  0
 18 19  2  0
 20 18  1  0
 21 20  1  6
 21 22  1  0
 21 23  1  0
 22 15  1  0
 23 24  1  0
 25 23  2  0
M  END
$$$$
