AIQ.pdb
     RDKit          3D

 23 22  0  0  1  0  0  0  0  0999 V2000
   33.6642  -25.2104  -17.2501 C   0  0  0  0  0  0  0  0  0  0  0  0
   32.7452  -25.2522  -16.0757 C   0  0  2  0  0  0  0  0  0  0  0  0
   33.2663  -26.0380  -14.9775 N   0  0  0  0  0  0  0  0  0  0  0  0
   31.4020  -25.8033  -16.4221 C   0  0  0  0  0  0  0  0  0  0  0  0
   31.2163  -27.0081  -16.1875 O   0  0  0  0  0  0  0  0  0  0  0  0
   28.3950  -22.0978  -16.4971 C   0  0  0  0  0  0  0  0  0  0  0  0
   28.0423  -23.5165  -16.1540 C   0  0  0  0  0  0  0  0  0  0  0  0
   28.0876  -24.3550  -17.4117 C   0  0  2  0  0  0  0  0  0  0  0  0
   26.6588  -24.7120  -17.7245 C   0  0  0  0  0  0  0  0  0  0  0  0
   29.0152  -25.5006  -17.2458 C   0  0  2  0  0  0  0  0  0  0  0  0
   30.3771  -25.0036  -16.9916 N   0  0  0  0  0  0  0  0  0  0  0  0
   29.0394  -26.4822  -18.3501 C   0  0  0  0  0  0  0  0  0  0  0  0
   29.6705  -26.1710  -19.4212 O   0  0  0  0  0  0  0  0  0  0  0  0
   31.9351  -32.2132  -20.6994 N   0  0  0  0  0  0  0  0  0  0  0  0
   31.5982  -31.0936  -19.9010 C   0  0  0  0  0  0  0  0  0  0  0  0
   32.2285  -30.9095  -18.8172 O   0  0  0  0  0  0  0  0  0  0  0  0
   30.5333  -30.1761  -20.3575 C   0  0  0  0  0  0  0  0  0  0  0  0
   30.1386  -29.1279  -19.3820 C   0  0  0  0  0  0  0  0  0  0  0  0
   28.7196  -28.7368  -19.4366 C   0  0  2  0  0  0  0  0  0  0  0  0
   28.4364  -27.7494  -18.3603 N   0  0  0  0  0  0  0  0  0  0  0  0
   27.7033  -29.7578  -19.3834 C   0  0  0  0  0  0  0  0  0  0  0  0
   27.6134  -30.7363  -20.4025 O   0  0  0  0  0  0  0  0  0  0  0  0
   26.8140  -29.9024  -18.4740 O   0  0  0  0  0  0  0  0  0  0  0  0
  2  1  1  6
  2  3  1  0
  4  5  2  0
  4  2  1  0
  7  6  1  0
  8  7  1  0
  8 10  1  0
  8  9  1  1
 10 12  1  0
 10 11  1  6
 11  4  1  0
 12 20  1  0
 13 12  2  0
 15 14  1  0
 16 15  2  0
 17 15  1  0
 18 17  1  0
 19 18  1  1
 20 19  1  0
 21 22  1  0
 21 19  1  0
 23 21  2  0
M  END
$$$$
