AIQ.pdb
     RDKit          3D

 23 22  0  0  1  0  0  0  0  0999 V2000
   28.4317  -22.8545  -17.1542 C   0  0  0  0  0  0  0  0  0  0  0  0
   27.2463  -22.0014  -16.8499 C   0  0  2  0  0  0  0  0  0  0  0  0
   27.5397  -20.5851  -16.9055 N   0  0  0  0  0  0  0  0  0  0  0  0
   26.6696  -22.2861  -15.5030 C   0  0  0  0  0  0  0  0  0  0  0  0
   26.2934  -23.4502  -15.2923 O   0  0  0  0  0  0  0  0  0  0  0  0
   29.0350  -20.6109  -11.2152 C   0  0  0  0  0  0  0  0  0  0  0  0
   28.1771  -21.4493  -12.1184 C   0  0  0  0  0  0  0  0  0  0  0  0
   26.7735  -20.8868  -12.1292 C   0  0  2  0  0  0  0  0  0  0  0  0
   26.2597  -21.0252  -10.7208 C   0  0  0  0  0  0  0  0  0  0  0  0
   25.9543  -21.5394  -13.1797 C   0  0  2  0  0  0  0  0  0  0  0  0
   26.5502  -21.2874  -14.5018 N   0  0  0  0  0  0  0  0  0  0  0  0
   24.5207  -21.1821  -13.2012 C   0  0  0  0  0  0  0  0  0  0  0  0
   24.2033  -19.9751  -13.4926 O   0  0  0  0  0  0  0  0  0  0  0  0
   19.4976  -24.7430  -14.4301 N   0  0  0  0  0  0  0  0  0  0  0  0
   18.9018  -23.4884  -14.1552 C   0  0  0  0  0  0  0  0  0  0  0  0
   17.6512  -23.3624  -14.3158 O   0  0  0  0  0  0  0  0  0  0  0  0
   19.7510  -22.3738  -13.6854 C   0  0  0  0  0  0  0  0  0  0  0  0
   21.1958  -22.6908  -13.5510 C   0  0  0  0  0  0  0  0  0  0  0  0
   22.0313  -21.5742  -13.0769 C   0  0  2  0  0  0  0  0  0  0  0  0
   23.4387  -22.0349  -12.9338 N   0  0  0  0  0  0  0  0  0  0  0  0
   21.6639  -20.8817  -11.8671 C   0  0  0  0  0  0  0  0  0  0  0  0
   20.8106  -19.7531  -11.9158 O   0  0  0  0  0  0  0  0  0  0  0  0
   22.0343  -21.1752  -10.6775 O   0  0  0  0  0  0  0  0  0  0  0  0
  2  1  1  1
  2  3  1  0
  4  5  2  0
  4  2  1  0
  7  6  1  0
  8  7  1  0
  8 10  1  0
  8  9  1  1
 10 12  1  0
 10 11  1  6
 11  4  1  0
 12 20  1  0
 13 12  2  0
 15 14  1  0
 16 15  2  0
 17 15  1  0
 18 17  1  0
 19 18  1  1
 20 19  1  0
 21 22  1  0
 21 19  1  0
 23 21  2  0
M  END
$$$$
