AIQ.pdb
     RDKit          3D

 23 22  0  0  1  0  0  0  0  0999 V2000
   13.0538  -23.6965   -2.7024 C   0  0  0  0  0  0  0  0  0  0  0  0
   14.4005  -23.0622   -2.8010 C   0  0  2  0  0  0  0  0  0  0  0  0
   15.2564  -23.7012   -3.7779 N   0  0  0  0  0  0  0  0  0  0  0  0
   15.1290  -23.0653   -1.4983 C   0  0  0  0  0  0  0  0  0  0  0  0
   15.8403  -24.0543   -1.2596 O   0  0  0  0  0  0  0  0  0  0  0  0
   17.6014  -18.6527    0.4494 C   0  0  0  0  0  0  0  0  0  0  0  0
   17.2278  -20.0570    0.0709 C   0  0  0  0  0  0  0  0  0  0  0  0
   16.1478  -20.5507    1.0073 C   0  0  2  0  0  0  0  0  0  0  0  0
   16.6627  -20.3062    2.4008 C   0  0  0  0  0  0  0  0  0  0  0  0
   15.7820  -21.9536    0.6936 C   0  0  2  0  0  0  0  0  0  0  0  0
   15.0246  -21.9989   -0.5676 N   0  0  0  0  0  0  0  0  0  0  0  0
   15.0447  -22.6835    1.7459 C   0  0  0  0  0  0  0  0  0  0  0  0
   13.7726  -22.5386    1.8033 O   0  0  0  0  0  0  0  0  0  0  0  0
   16.2647  -28.1758    4.4831 N   0  0  0  0  0  0  0  0  0  0  0  0
   15.0359  -27.8118    5.0847 C   0  0  0  0  0  0  0  0  0  0  0  0
   14.4707  -28.6400    5.8595 O   0  0  0  0  0  0  0  0  0  0  0  0
   14.4579  -26.4823    4.7975 C   0  0  0  0  0  0  0  0  0  0  0  0
   15.2382  -25.6424    3.8531 C   0  0  0  0  0  0  0  0  0  0  0  0
   14.7294  -24.2708    3.6817 C   0  0  2  0  0  0  0  0  0  0  0  0
   15.5913  -23.5405    2.7135 N   0  0  0  0  0  0  0  0  0  0  0  0
   14.5532  -23.4330    4.8415 C   0  0  0  0  0  0  0  0  0  0  0  0
   13.3712  -23.5172    5.6160 O   0  0  0  0  0  0  0  0  0  0  0  0
   15.3820  -22.5666    5.2898 O   0  0  0  0  0  0  0  0  0  0  0  0
  2  1  1  1
  2  3  1  0
  4  5  2  0
  4  2  1  0
  7  6  1  0
  8  7  1  0
  8 10  1  0
  8  9  1  1
 10 12  1  0
 10 11  1  6
 11  4  1  0
 12 20  1  0
 13 12  2  0
 15 14  1  0
 16 15  2  0
 17 15  1  0
 18 17  1  0
 19 18  1  1
 20 19  1  0
 21 22  1  0
 21 19  1  0
 23 21  2  0
M  END
$$$$
