AIQ.pdb
     RDKit          3D

 23 22  0  0  1  0  0  0  0  0999 V2000
   22.1826  -21.4676  -17.1730 C   0  0  0  0  0  0  0  0  0  0  0  0
   21.1599  -20.6351  -16.4754 C   0  0  2  0  0  0  0  0  0  0  0  0
   20.7483  -19.4813  -17.2464 N   0  0  0  0  0  0  0  0  0  0  0  0
   21.6348  -20.1408  -15.1496 C   0  0  0  0  0  0  0  0  0  0  0  0
   22.2369  -19.0552  -15.1425 O   0  0  0  0  0  0  0  0  0  0  0  0
   18.3815  -20.2770  -11.0768 C   0  0  0  0  0  0  0  0  0  0  0  0
   19.4656  -19.9346  -12.0576 C   0  0  0  0  0  0  0  0  0  0  0  0
   20.7461  -20.6215  -11.6388 C   0  0  2  0  0  0  0  0  0  0  0  0
   21.0234  -20.1615  -10.2324 C   0  0  0  0  0  0  0  0  0  0  0  0
   21.8254  -20.3659  -12.6238 C   0  0  2  0  0  0  0  0  0  0  0  0
   21.4173  -20.8633  -13.9476 N   0  0  0  0  0  0  0  0  0  0  0  0
   23.1595  -20.8996  -12.2788 C   0  0  0  0  0  0  0  0  0  0  0  0
   23.2757  -22.1626  -12.0948 O   0  0  0  0  0  0  0  0  0  0  0  0
   28.2476  -21.9292  -13.6761 N   0  0  0  0  0  0  0  0  0  0  0  0
   27.5458  -20.9531  -14.4240 C   0  0  0  0  0  0  0  0  0  0  0  0
   27.5821  -21.0161  -15.6891 O   0  0  0  0  0  0  0  0  0  0  0  0
   26.7913  -19.9018  -13.7099 C   0  0  0  0  0  0  0  0  0  0  0  0
   26.7563  -20.0401  -12.2316 C   0  0  0  0  0  0  0  0  0  0  0  0
   25.6164  -20.8141  -11.7108 C   0  0  2  0  0  0  0  0  0  0  0  0
   24.3448  -20.1636  -12.1273 N   0  0  0  0  0  0  0  0  0  0  0  0
   25.5352  -21.0873  -10.2977 C   0  0  0  0  0  0  0  0  0  0  0  0
   24.6110  -20.3903   -9.4828 O   0  0  0  0  0  0  0  0  0  0  0  0
   26.2372  -21.9341   -9.6429 O   0  0  0  0  0  0  0  0  0  0  0  0
  2  1  1  6
  2  3  1  0
  4  5  2  0
  4  2  1  0
  7  6  1  0
  8  7  1  0
  8 10  1  0
  8  9  1  1
 10 12  1  0
 10 11  1  6
 11  4  1  0
 12 20  1  0
 13 12  2  0
 15 14  1  0
 16 15  2  0
 17 15  1  0
 18 17  1  0
 19 18  1  1
 20 19  1  0
 21 22  1  0
 21 19  1  0
 23 21  2  0
M  END
$$$$
