AIQ.pdb
     RDKit          3D

 23 22  0  0  1  0  0  0  0  0999 V2000
   22.4527  -13.4015  -20.3319 C   0  0  0  0  0  0  0  0  0  0  0  0
   23.2988  -14.0683  -19.2998 C   0  0  2  0  0  0  0  0  0  0  0  0
   22.7502  -15.3291  -18.8473 N   0  0  0  0  0  0  0  0  0  0  0  0
   23.5077  -13.2132  -18.0945 C   0  0  0  0  0  0  0  0  0  0  0  0
   22.5935  -13.2003  -17.2548 O   0  0  0  0  0  0  0  0  0  0  0  0
   28.2663  -12.9653  -15.7333 C   0  0  0  0  0  0  0  0  0  0  0  0
   26.7791  -12.9656  -15.9404 C   0  0  0  0  0  0  0  0  0  0  0  0
   26.3387  -11.5827  -16.3652 C   0  0  2  0  0  0  0  0  0  0  0  0
   26.7270  -10.6596  -15.2409 C   0  0  0  0  0  0  0  0  0  0  0  0
   24.9017  -11.5791  -16.7332 C   0  0  2  0  0  0  0  0  0  0  0  0
   24.6867  -12.4469  -17.9024 N   0  0  0  0  0  0  0  0  0  0  0  0
   24.2968  -10.2531  -16.9769 C   0  0  0  0  0  0  0  0  0  0  0  0
   24.7374   -9.5597  -17.9605 O   0  0  0  0  0  0  0  0  0  0  0  0
   20.3397   -9.9645  -19.5447 N   0  0  0  0  0  0  0  0  0  0  0  0
   19.7425   -9.8006  -18.2716 C   0  0  0  0  0  0  0  0  0  0  0  0
   18.6223  -10.3506  -18.0515 O   0  0  0  0  0  0  0  0  0  0  0  0
   20.4435   -9.0039  -17.2429 C   0  0  0  0  0  0  0  0  0  0  0  0
   21.7470   -8.4304  -17.6648 C   0  0  0  0  0  0  0  0  0  0  0  0
   22.7432   -8.3035  -16.5873 C   0  0  2  0  0  0  0  0  0  0  0  0
   23.2676   -9.6510  -16.2368 N   0  0  0  0  0  0  0  0  0  0  0  0
   22.3782   -7.6350  -15.3634 C   0  0  0  0  0  0  0  0  0  0  0  0
   21.9576   -6.2834  -15.3805 O   0  0  0  0  0  0  0  0  0  0  0  0
   22.3864   -8.1395  -14.1869 O   0  0  0  0  0  0  0  0  0  0  0  0
  2  1  1  6
  2  3  1  0
  4  5  2  0
  4  2  1  0
  7  6  1  0
  8  7  1  0
  8 10  1  0
  8  9  1  1
 10 12  1  0
 10 11  1  6
 11  4  1  0
 12 20  1  0
 13 12  2  0
 15 14  1  0
 16 15  2  0
 17 15  1  0
 18 17  1  0
 19 18  1  6
 20 19  1  0
 21 22  1  0
 21 19  1  0
 23 21  2  0
M  END
$$$$
