AIQ.pdb
     RDKit          3D

 23 22  0  0  1  0  0  0  0  0999 V2000
   17.4355  -10.3312  -18.2422 C   0  0  0  0  0  0  0  0  0  0  0  0
   18.4312  -11.3686  -17.8446 C   0  0  2  0  0  0  0  0  0  0  0  0
   17.8164  -12.5944  -17.3813 N   0  0  0  0  0  0  0  0  0  0  0  0
   19.3497  -10.8943  -16.7679 C   0  0  0  0  0  0  0  0  0  0  0  0
   18.8385  -10.6643  -15.6602 O   0  0  0  0  0  0  0  0  0  0  0  0
   25.1372  -11.5289  -15.0587 C   0  0  0  0  0  0  0  0  0  0  0  0
   23.8810  -10.7196  -14.9116 C   0  0  0  0  0  0  0  0  0  0  0  0
   22.9459  -11.0461  -16.0544 C   0  0  2  0  0  0  0  0  0  0  0  0
   23.7257  -10.7871  -17.3160 C   0  0  0  0  0  0  0  0  0  0  0  0
   21.6720  -10.2980  -15.9206 C   0  0  2  0  0  0  0  0  0  0  0  0
   20.7404  -10.7102  -16.9829 N   0  0  0  0  0  0  0  0  0  0  0  0
   21.7832   -8.8246  -15.8973 C   0  0  0  0  0  0  0  0  0  0  0  0
   21.9412   -8.2131  -17.0125 O   0  0  0  0  0  0  0  0  0  0  0  0
   18.0438   -5.2165  -16.6785 N   0  0  0  0  0  0  0  0  0  0  0  0
   18.9285   -4.2265  -16.1869 C   0  0  0  0  0  0  0  0  0  0  0  0
   18.5918   -3.0089  -16.2855 O   0  0  0  0  0  0  0  0  0  0  0  0
   20.2062   -4.6422  -15.5713 C   0  0  0  0  0  0  0  0  0  0  0  0
   20.4654   -6.1046  -15.5749 C   0  0  0  0  0  0  0  0  0  0  0  0
   21.7017   -6.5141  -14.8868 C   0  0  2  0  0  0  0  0  0  0  0  0
   21.7328   -7.9966  -14.7653 N   0  0  0  0  0  0  0  0  0  0  0  0
   22.0089   -5.9545  -13.5943 C   0  0  0  0  0  0  0  0  0  0  0  0
   21.7606   -6.6945  -12.4133 O   0  0  0  0  0  0  0  0  0  0  0  0
   22.5096   -4.7994  -13.3626 O   0  0  0  0  0  0  0  0  0  0  0  0
  2  1  1  1
  2  3  1  0
  4  5  2  0
  4  2  1  0
  7  6  1  0
  8  7  1  0
  8 10  1  0
  8  9  1  6
 10 12  1  0
 10 11  1  6
 11  4  1  0
 12 20  1  0
 13 12  2  0
 15 14  1  0
 16 15  2  0
 17 15  1  0
 18 17  1  0
 19 18  1  1
 20 19  1  0
 21 22  1  0
 21 19  1  0
 23 21  2  0
M  END
$$$$
