AIQ.pdb
     RDKit          3D

 23 22  0  0  1  0  0  0  0  0999 V2000
   17.2080  -12.0795  -17.9534 C   0  0  0  0  0  0  0  0  0  0  0  0
   18.2677  -12.5244  -17.0023 C   0  0  2  0  0  0  0  0  0  0  0  0
   17.8417  -13.6144  -16.1505 N   0  0  0  0  0  0  0  0  0  0  0  0
   18.7370  -11.4201  -16.1145 C   0  0  0  0  0  0  0  0  0  0  0  0
   17.9859  -11.0988  -15.1798 O   0  0  0  0  0  0  0  0  0  0  0  0
   23.7617  -11.2203  -14.4900 C   0  0  0  0  0  0  0  0  0  0  0  0
   22.2704  -11.1206  -14.6336 C   0  0  0  0  0  0  0  0  0  0  0  0
   21.9220   -9.7887  -15.2593 C   0  0  2  0  0  0  0  0  0  0  0  0
   22.5538   -8.7401  -14.3829 C   0  0  0  0  0  0  0  0  0  0  0  0
   20.4564   -9.6670  -15.4533 C   0  0  2  0  0  0  0  0  0  0  0  0
   19.9773  -10.7601  -16.3148 N   0  0  0  0  0  0  0  0  0  0  0  0
   19.9756   -8.3712  -15.9760 C   0  0  0  0  0  0  0  0  0  0  0  0
   20.3276   -8.0294  -17.1600 O   0  0  0  0  0  0  0  0  0  0  0  0
   14.6868   -5.4742  -14.8187 N   0  0  0  0  0  0  0  0  0  0  0  0
   14.9510   -6.5051  -15.7524 C   0  0  0  0  0  0  0  0  0  0  0  0
   13.9793   -7.1902  -16.1910 O   0  0  0  0  0  0  0  0  0  0  0  0
   16.3426   -6.7438  -16.1892 C   0  0  0  0  0  0  0  0  0  0  0  0
   17.3607   -5.8523  -15.5773 C   0  0  0  0  0  0  0  0  0  0  0  0
   18.7534   -6.1641  -15.9421 C   0  0  2  0  0  0  0  0  0  0  0  0
   19.1553   -7.4488  -15.3083 N   0  0  0  0  0  0  0  0  0  0  0  0
   19.7865   -5.1942  -15.6775 C   0  0  0  0  0  0  0  0  0  0  0  0
   19.7514   -3.9203  -16.2941 O   0  0  0  0  0  0  0  0  0  0  0  0
   20.7971   -5.3471  -14.9068 O   0  0  0  0  0  0  0  0  0  0  0  0
  2  1  1  1
  2  3  1  0
  4  5  2  0
  4  2  1  0
  7  6  1  0
  8  7  1  0
  8 10  1  0
  8  9  1  1
 10 12  1  0
 10 11  1  6
 11  4  1  0
 12 20  1  0
 13 12  2  0
 15 14  1  0
 16 15  2  0
 17 15  1  0
 18 17  1  0
 19 18  1  1
 20 19  1  0
 21 22  1  0
 21 19  1  0
 23 21  2  0
M  END
$$$$
