AIQ.pdb
     RDKit          3D

 23 22  0  0  1  0  0  0  0  0999 V2000
   15.8847  -11.5992  -16.3780 C   0  0  0  0  0  0  0  0  0  0  0  0
   17.3408  -11.8989  -16.2533 C   0  0  2  0  0  0  0  0  0  0  0  0
   17.6180  -13.3140  -16.1274 N   0  0  0  0  0  0  0  0  0  0  0  0
   17.9655  -11.2150  -15.0829 C   0  0  0  0  0  0  0  0  0  0  0  0
   17.8595  -11.7823  -13.9838 O   0  0  0  0  0  0  0  0  0  0  0  0
   22.8809   -9.3959  -15.2547 C   0  0  0  0  0  0  0  0  0  0  0  0
   21.5552   -9.9463  -14.8140 C   0  0  0  0  0  0  0  0  0  0  0  0
   20.6304   -8.7981  -14.4776 C   0  0  2  0  0  0  0  0  0  0  0  0
   21.3571   -7.9654  -13.4552 C   0  0  0  0  0  0  0  0  0  0  0  0
   19.2967   -9.3011  -14.0671 C   0  0  2  0  0  0  0  0  0  0  0  0
   18.6502   -9.9777  -15.2032 N   0  0  0  0  0  0  0  0  0  0  0  0
   18.3744   -8.3009  -13.4904 C   0  0  0  0  0  0  0  0  0  0  0  0
   17.7891   -7.4876  -14.2893 O   0  0  0  0  0  0  0  0  0  0  0  0
   14.6999   -6.8018   -7.5208 N   0  0  0  0  0  0  0  0  0  0  0  0
   14.5065   -7.2350   -8.8548 C   0  0  0  0  0  0  0  0  0  0  0  0
   13.5948   -8.0827   -9.0913 O   0  0  0  0  0  0  0  0  0  0  0  0
   15.3641   -6.6828   -9.9243 C   0  0  0  0  0  0  0  0  0  0  0  0
   16.2509   -7.6662  -10.5968 C   0  0  0  0  0  0  0  0  0  0  0  0
   17.0765   -7.1111  -11.6832 C   0  0  2  0  0  0  0  0  0  0  0  0
   18.0564   -8.1361  -12.1335 N   0  0  0  0  0  0  0  0  0  0  0  0
   17.7896   -5.8770  -11.4679 C   0  0  0  0  0  0  0  0  0  0  0  0
   17.1333   -4.6318  -11.6195 O   0  0  0  0  0  0  0  0  0  0  0  0
   19.0198   -5.7546  -11.1360 O   0  0  0  0  0  0  0  0  0  0  0  0
  2  1  1  1
  2  3  1  0
  4  5  2  0
  4  2  1  0
  7  6  1  0
  8  7  1  0
  8 10  1  0
  8  9  1  1
 10 12  1  0
 10 11  1  6
 11  4  1  0
 12 20  1  0
 13 12  2  0
 15 14  1  0
 16 15  2  0
 17 15  1  0
 18 17  1  0
 19 18  1  1
 20 19  1  0
 21 22  1  0
 21 19  1  0
 23 21  2  0
M  END
$$$$
