AIQ.pdb
     RDKit          3D

 23 22  0  0  1  0  0  0  0  0999 V2000
   25.5348  -22.7030  -13.5073 C   0  0  0  0  0  0  0  0  0  0  0  0
   26.4649  -21.5835  -13.1801 C   0  0  2  0  0  0  0  0  0  0  0  0
   26.6841  -21.4276  -11.7578 N   0  0  0  0  0  0  0  0  0  0  0  0
   25.9847  -20.2713  -13.7050 C   0  0  0  0  0  0  0  0  0  0  0  0
   25.3642  -19.5465  -12.9108 O   0  0  0  0  0  0  0  0  0  0  0  0
   29.1091  -17.5540  -16.9373 C   0  0  0  0  0  0  0  0  0  0  0  0
   28.0863  -17.8779  -15.8867 C   0  0  0  0  0  0  0  0  0  0  0  0
   26.7345  -18.0374  -16.5454 C   0  0  2  0  0  0  0  0  0  0  0  0
   26.4039  -16.6966  -17.1451 C   0  0  0  0  0  0  0  0  0  0  0  0
   25.7414  -18.5739  -15.5829 C   0  0  2  0  0  0  0  0  0  0  0  0
   26.2175  -19.8576  -15.0425 N   0  0  0  0  0  0  0  0  0  0  0  0
   24.3618  -18.7259  -16.0898 C   0  0  0  0  0  0  0  0  0  0  0  0
   24.0283  -19.8506  -16.6059 O   0  0  0  0  0  0  0  0  0  0  0  0
   20.4919  -20.8256  -12.4745 N   0  0  0  0  0  0  0  0  0  0  0  0
   20.1597  -20.7305  -13.8474 C   0  0  0  0  0  0  0  0  0  0  0  0
   19.7201  -21.7618  -14.4382 O   0  0  0  0  0  0  0  0  0  0  0  0
   20.3282  -19.4373  -14.5427 C   0  0  0  0  0  0  0  0  0  0  0  0
   21.7342  -19.0384  -14.8074 C   0  0  0  0  0  0  0  0  0  0  0  0
   21.9132  -18.1322  -15.9547 C   0  0  2  0  0  0  0  0  0  0  0  0
   23.3480  -17.7556  -16.0690 N   0  0  0  0  0  0  0  0  0  0  0  0
   21.1283  -16.9254  -16.0303 C   0  0  0  0  0  0  0  0  0  0  0  0
   19.7405  -16.9865  -16.3030 O   0  0  0  0  0  0  0  0  0  0  0  0
   21.5529  -15.7281  -15.8725 O   0  0  0  0  0  0  0  0  0  0  0  0
  2  1  1  1
  2  3  1  0
  4  5  2  0
  4  2  1  0
  7  6  1  0
  8  7  1  0
  8 10  1  0
  8  9  1  1
 10 12  1  0
 10 11  1  6
 11  4  1  0
 12 20  1  0
 13 12  2  0
 15 14  1  0
 16 15  2  0
 17 15  1  0
 18 17  1  0
 19 18  1  1
 20 19  1  0
 21 22  1  0
 21 19  1  0
 23 21  2  0
M  END
$$$$
