AIQ.pdb
     RDKit          3D

 23 22  0  0  1  0  0  0  0  0999 V2000
   35.5288   -9.2519  -13.7785 C   0  0  0  0  0  0  0  0  0  0  0  0
   35.9351  -10.1769  -14.8762 C   0  0  2  0  0  0  0  0  0  0  0  0
   37.3311  -10.0485  -15.2363 N   0  0  0  0  0  0  0  0  0  0  0  0
   35.1324   -9.9750  -16.1183 C   0  0  0  0  0  0  0  0  0  0  0  0
   35.5683   -9.1485  -16.9356 O   0  0  0  0  0  0  0  0  0  0  0  0
   32.9235  -14.1032  -18.7596 C   0  0  0  0  0  0  0  0  0  0  0  0
   33.5835  -12.8079  -18.3836 C   0  0  0  0  0  0  0  0  0  0  0  0
   32.5211  -11.8117  -17.9764 C   0  0  2  0  0  0  0  0  0  0  0  0
   31.5410  -11.7597  -19.1181 C   0  0  0  0  0  0  0  0  0  0  0  0
   33.1347  -10.5159  -17.5959 C   0  0  2  0  0  0  0  0  0  0  0  0
   33.9288  -10.6843  -16.3681 N   0  0  0  0  0  0  0  0  0  0  0  0
   32.2049   -9.3784  -17.4377 C   0  0  0  0  0  0  0  0  0  0  0  0
   31.3707   -9.4107  -16.4653 O   0  0  0  0  0  0  0  0  0  0  0  0
   32.8216   -3.2739  -18.2356 N   0  0  0  0  0  0  0  0  0  0  0  0
   31.4306   -3.3748  -17.9919 C   0  0  0  0  0  0  0  0  0  0  0  0
   30.7591   -2.3085  -17.8584 O   0  0  0  0  0  0  0  0  0  0  0  0
   30.8078   -4.7125  -17.9086 C   0  0  0  0  0  0  0  0  0  0  0  0
   31.7308   -5.8559  -18.1246 C   0  0  0  0  0  0  0  0  0  0  0  0
   31.1031   -7.1843  -18.0194 C   0  0  2  0  0  0  0  0  0  0  0  0
   32.1294   -8.2364  -18.2501 N   0  0  0  0  0  0  0  0  0  0  0  0
   29.9581   -7.4911  -18.8398 C   0  0  0  0  0  0  0  0  0  0  0  0
   28.6548   -7.1354  -18.4168 O   0  0  0  0  0  0  0  0  0  0  0  0
   29.9695   -8.0823  -19.9751 O   0  0  0  0  0  0  0  0  0  0  0  0
  2  1  1  1
  2  3  1  0
  4  5  2  0
  4  2  1  0
  7  6  1  0
  8  7  1  0
  8 10  1  0
  8  9  1  6
 10 12  1  0
 10 11  1  1
 11  4  1  0
 12 20  1  0
 13 12  2  0
 15 14  1  0
 16 15  2  0
 17 15  1  0
 18 17  1  0
 19 18  1  6
 20 19  1  0
 21 22  1  0
 21 19  1  0
 23 21  2  0
M  END
$$$$
