AIQ.pdb
     RDKit          3D

 23 22  0  0  1  0  0  0  0  0999 V2000
   21.5144  -21.3197  -10.4511 C   0  0  0  0  0  0  0  0  0  0  0  0
   22.9189  -21.3047   -9.9484 C   0  0  2  0  0  0  0  0  0  0  0  0
   23.0197  -20.8945   -8.5640 N   0  0  0  0  0  0  0  0  0  0  0  0
   23.8008  -20.4036  -10.7472 C   0  0  0  0  0  0  0  0  0  0  0  0
   23.7581  -19.1940  -10.4714 O   0  0  0  0  0  0  0  0  0  0  0  0
   29.3361  -20.0638  -12.7947 C   0  0  0  0  0  0  0  0  0  0  0  0
   27.9355  -19.6153  -13.0978 C   0  0  0  0  0  0  0  0  0  0  0  0
   26.9598  -20.5308  -12.3929 C   0  0  2  0  0  0  0  0  0  0  0  0
   27.2120  -21.9093  -12.9431 C   0  0  0  0  0  0  0  0  0  0  0  0
   25.5718  -20.0264  -12.5327 C   0  0  2  0  0  0  0  0  0  0  0  0
   24.6515  -20.8891  -11.7742 N   0  0  0  0  0  0  0  0  0  0  0  0
   25.0769  -19.8611  -13.9152 C   0  0  0  0  0  0  0  0  0  0  0  0
   24.6775  -20.9048  -14.5426 O   0  0  0  0  0  0  0  0  0  0  0  0
   22.1716  -15.4167  -19.1228 N   0  0  0  0  0  0  0  0  0  0  0  0
   22.7648  -15.6941  -17.8675 C   0  0  0  0  0  0  0  0  0  0  0  0
   22.8839  -14.7501  -17.0307 O   0  0  0  0  0  0  0  0  0  0  0  0
   23.2174  -17.0696  -17.5715 C   0  0  0  0  0  0  0  0  0  0  0  0
   23.8581  -17.2543  -16.2444 C   0  0  0  0  0  0  0  0  0  0  0  0
   24.3722  -18.6110  -15.9905 C   0  0  2  0  0  0  0  0  0  0  0  0
   24.9901  -18.6613  -14.6381 N   0  0  0  0  0  0  0  0  0  0  0  0
   25.2971  -19.2019  -16.9252 C   0  0  0  0  0  0  0  0  0  0  0  0
   24.8227  -19.9285  -18.0438 O   0  0  0  0  0  0  0  0  0  0  0  0
   26.5749  -19.1507  -16.8699 O   0  0  0  0  0  0  0  0  0  0  0  0
  2  1  1  6
  2  3  1  0
  4  5  2  0
  4  2  1  0
  7  6  1  0
  8  7  1  0
  8 10  1  0
  8  9  1  6
 10 12  1  0
 10 11  1  1
 11  4  1  0
 12 20  1  0
 13 12  2  0
 15 14  1  0
 16 15  2  0
 17 15  1  0
 18 17  1  0
 19 18  1  6
 20 19  1  0
 21 22  1  0
 21 19  1  0
 23 21  2  0
M  END
$$$$
