AIQ.pdb
     RDKit          3D

 23 22  0  0  1  0  0  0  0  0999 V2000
   25.0068  -12.1806  -15.0928 C   0  0  0  0  0  0  0  0  0  0  0  0
   24.1432  -12.7612  -16.1618 C   0  0  2  0  0  0  0  0  0  0  0  0
   24.8617  -13.0188  -17.3916 N   0  0  0  0  0  0  0  0  0  0  0  0
   22.9832  -11.8837  -16.4970 C   0  0  0  0  0  0  0  0  0  0  0  0
   23.2207  -10.8917  -17.2044 O   0  0  0  0  0  0  0  0  0  0  0  0
   19.5166  -14.5527  -17.1479 C   0  0  0  0  0  0  0  0  0  0  0  0
   19.3306  -13.1468  -17.6414 C   0  0  0  0  0  0  0  0  0  0  0  0
   19.2887  -12.2084  -16.4562 C   0  0  2  0  0  0  0  0  0  0  0  0
   17.9739  -11.4807  -16.5490 C   0  0  0  0  0  0  0  0  0  0  0  0
   20.4980  -11.3500  -16.4232 C   0  0  2  0  0  0  0  0  0  0  0  0
   21.6681  -12.1556  -16.0380 N   0  0  0  0  0  0  0  0  0  0  0  0
   20.4171  -10.1463  -15.5698 C   0  0  0  0  0  0  0  0  0  0  0  0
   20.3401  -10.3094  -14.3010 O   0  0  0  0  0  0  0  0  0  0  0  0
   23.3726   -4.7728  -15.7812 N   0  0  0  0  0  0  0  0  0  0  0  0
   22.4754   -4.5346  -14.7122 C   0  0  0  0  0  0  0  0  0  0  0  0
   22.6039   -3.4692  -14.0382 O   0  0  0  0  0  0  0  0  0  0  0  0
   21.4189   -5.5265  -14.4222 C   0  0  0  0  0  0  0  0  0  0  0  0
   21.4192   -6.7269  -15.2969 C   0  0  0  0  0  0  0  0  0  0  0  0
   20.3291   -7.6821  -15.0345 C   0  0  2  0  0  0  0  0  0  0  0  0
   20.4165   -8.8105  -16.0002 N   0  0  0  0  0  0  0  0  0  0  0  0
   18.9665   -7.2120  -15.0205 C   0  0  0  0  0  0  0  0  0  0  0  0
   18.1813   -7.2488  -16.1979 O   0  0  0  0  0  0  0  0  0  0  0  0
   18.3345   -6.7344  -14.0150 O   0  0  0  0  0  0  0  0  0  0  0  0
  2  1  1  1
  2  3  1  0
  4  5  2  0
  4  2  1  0
  7  6  1  0
  8  7  1  0
  8 10  1  0
  8  9  1  6
 10 12  1  0
 10 11  1  1
 11  4  1  0
 12 20  1  0
 13 12  2  0
 15 14  1  0
 16 15  2  0
 17 15  1  0
 18 17  1  0
 19 18  1  6
 20 19  1  0
 21 22  1  0
 21 19  1  0
 23 21  2  0
M  END
$$$$
