AIQ.pdb
     RDKit          3D

 23 22  0  0  1  0  0  0  0  0999 V2000
   19.7671  -12.0058  -20.3972 C   0  0  0  0  0  0  0  0  0  0  0  0
   20.7270  -12.4554  -19.3474 C   0  0  2  0  0  0  0  0  0  0  0  0
   20.5134  -13.8265  -18.9357 N   0  0  0  0  0  0  0  0  0  0  0  0
   20.6699  -11.6062  -18.1213 C   0  0  0  0  0  0  0  0  0  0  0  0
   19.6749  -11.7460  -17.3922 O   0  0  0  0  0  0  0  0  0  0  0  0
   24.7728  -11.6102  -15.0262 C   0  0  0  0  0  0  0  0  0  0  0  0
   23.3894  -11.5180  -15.6027 C   0  0  0  0  0  0  0  0  0  0  0  0
   23.0750  -10.0699  -15.9044 C   0  0  2  0  0  0  0  0  0  0  0  0
   23.2770   -9.3232  -14.6128 C   0  0  0  0  0  0  0  0  0  0  0  0
   21.7308   -9.9413  -16.5183 C   0  0  2  0  0  0  0  0  0  0  0  0
   21.6935  -10.6803  -17.7907 N   0  0  0  0  0  0  0  0  0  0  0  0
   21.2408   -8.5628  -16.7264 C   0  0  0  0  0  0  0  0  0  0  0  0
   21.9145   -7.7922  -17.4975 O   0  0  0  0  0  0  0  0  0  0  0  0
   15.9363   -7.9298  -16.6023 N   0  0  0  0  0  0  0  0  0  0  0  0
   16.5719   -7.7364  -17.8525 C   0  0  0  0  0  0  0  0  0  0  0  0
   16.0392   -8.2365  -18.8878 O   0  0  0  0  0  0  0  0  0  0  0  0
   17.8254   -6.9558  -17.9116 C   0  0  0  0  0  0  0  0  0  0  0  0
   18.3027   -6.4237  -16.6097 C   0  0  0  0  0  0  0  0  0  0  0  0
   19.7524   -6.5545  -16.3835 C   0  0  2  0  0  0  0  0  0  0  0  0
   20.0919   -7.9862  -16.1632 N   0  0  0  0  0  0  0  0  0  0  0  0
   20.3762   -5.7826  -15.3380 C   0  0  0  0  0  0  0  0  0  0  0  0
   20.4680   -4.3737  -15.4419 O   0  0  0  0  0  0  0  0  0  0  0  0
   20.8913   -6.2371  -14.2579 O   0  0  0  0  0  0  0  0  0  0  0  0
  2  1  1  6
  2  3  1  0
  4  5  2  0
  4  2  1  0
  7  6  1  0
  8  7  1  0
  8 10  1  0
  8  9  1  1
 10 12  1  0
 10 11  1  6
 11  4  1  0
 12 20  1  0
 13 12  2  0
 15 14  1  0
 16 15  2  0
 17 15  1  0
 18 17  1  0
 19 18  1  1
 20 19  1  0
 21 22  1  0
 21 19  1  0
 23 21  2  0
M  END
$$$$
