AIQ.pdb
     RDKit          3D

 23 22  0  0  1  0  0  0  0  0999 V2000
   18.5155  -13.6566  -18.7331 C   0  0  0  0  0  0  0  0  0  0  0  0
   19.4315  -14.4553  -17.8679 C   0  0  2  0  0  0  0  0  0  0  0  0
   18.7764  -15.5836  -17.2410 N   0  0  0  0  0  0  0  0  0  0  0  0
   20.0487  -13.6371  -16.7828 C   0  0  0  0  0  0  0  0  0  0  0  0
   19.3358  -13.3896  -15.7970 O   0  0  0  0  0  0  0  0  0  0  0  0
   25.1104  -14.4703  -15.2952 C   0  0  0  0  0  0  0  0  0  0  0  0
   23.6445  -14.1449  -15.2903 C   0  0  0  0  0  0  0  0  0  0  0  0
   23.4568  -12.7030  -15.7055 C   0  0  2  0  0  0  0  0  0  0  0  0
   24.2625  -11.8827  -14.7335 C   0  0  0  0  0  0  0  0  0  0  0  0
   22.0151  -12.3649  -15.7920 C   0  0  2  0  0  0  0  0  0  0  0  0
   21.3824  -13.1580  -16.8584 N   0  0  0  0  0  0  0  0  0  0  0  0
   21.6931  -10.9344  -15.9750 C   0  0  0  0  0  0  0  0  0  0  0  0
   22.0920  -10.3578  -17.0478 O   0  0  0  0  0  0  0  0  0  0  0  0
   17.1584   -7.7417  -17.1895 N   0  0  0  0  0  0  0  0  0  0  0  0
   17.7874   -6.6848  -16.4883 C   0  0  0  0  0  0  0  0  0  0  0  0
   17.3378   -5.5088  -16.6322 O   0  0  0  0  0  0  0  0  0  0  0  0
   18.9374   -6.9854  -15.6100 C   0  0  0  0  0  0  0  0  0  0  0  0
   19.3145   -8.4196  -15.5280 C   0  0  0  0  0  0  0  0  0  0  0  0
   20.7574   -8.6705  -15.3704 C   0  0  2  0  0  0  0  0  0  0  0  0
   20.9808  -10.1138  -15.0868 N   0  0  0  0  0  0  0  0  0  0  0  0
   21.5057   -7.9055  -14.4045 C   0  0  0  0  0  0  0  0  0  0  0  0
   21.8545   -6.5590  -14.6684 O   0  0  0  0  0  0  0  0  0  0  0  0
   21.9222   -8.3139  -13.2651 O   0  0  0  0  0  0  0  0  0  0  0  0
  2  1  1  1
  2  3  1  0
  4  5  2  0
  4  2  1  0
  7  6  1  0
  8  7  1  0
  8 10  1  0
  8  9  1  1
 10 12  1  0
 10 11  1  6
 11  4  1  0
 12 20  1  0
 13 12  2  0
 15 14  1  0
 16 15  2  0
 17 15  1  0
 18 17  1  0
 19 18  1  1
 20 19  1  0
 21 22  1  0
 21 19  1  0
 23 21  2  0
M  END
$$$$
