DDC.pdb
     RDKit          3D

 23 22  0  0  1  0  0  0  0  0999 V2000
   14.3864  -10.0452  -12.8914 N   0  0  0  0  0  0  0  0  0  0  0  0
   15.3785  -10.0353  -11.8449 C   0  0  1  0  0  0  0  0  0  0  0  0
   16.2563  -11.2327  -12.0115 C   0  0  0  0  0  0  0  0  0  0  0  0
   15.4411  -12.4396  -11.8169 C   0  0  0  0  0  0  0  0  0  0  0  0
   15.5652  -13.4096  -12.5802 O   0  0  0  0  0  0  0  0  0  0  0  0
   16.1015   -8.7512  -11.7637 C   0  0  0  0  0  0  0  0  0  0  0  0
   16.3768   -8.1761  -12.8478 O   0  0  0  0  0  0  0  0  0  0  0  0
   14.5334  -12.5012  -10.7846 O   0  0  0  0  0  0  0  0  0  0  0  0
   16.4732   -8.1835  -10.5186 N   0  0  0  0  0  0  0  0  0  0  0  0
   17.1838   -6.9319  -10.3919 C   0  0  1  0  0  0  0  0  0  0  0  0
   16.9579   -6.2290   -9.1024 C   0  0  0  0  0  0  0  0  0  0  0  0
   15.5436   -5.8354   -8.9477 C   0  0  0  0  0  0  0  0  0  0  0  0
   14.9268   -5.3605   -9.9118 O   0  0  0  0  0  0  0  0  0  0  0  0
   18.6160   -7.0707  -10.7390 C   0  0  0  0  0  0  0  0  0  0  0  0
   19.3040   -7.9653  -10.2151 O   0  0  0  0  0  0  0  0  0  0  0  0
   14.9133   -5.9959   -7.7367 O   0  0  0  0  0  0  0  0  0  0  0  0
   19.2105   -6.1910  -11.6645 N   0  0  0  0  0  0  0  0  0  0  0  0
   20.5794   -6.3079  -12.1297 C   0  0  1  0  0  0  0  0  0  0  0  0
   20.6751   -7.6524  -12.8228 C   0  0  0  0  0  0  0  0  0  0  0  0
   22.2944   -7.8682  -13.5920 S   0  0  0  0  0  0  0  0  0  0  0  0
   21.0069   -5.1904  -12.9708 C   0  0  0  0  0  0  0  0  0  0  0  0
   22.1848   -4.7722  -12.9139 O   0  0  0  0  0  0  0  0  0  0  0  0
   20.1061   -4.5995  -13.8274 O   0  0  0  0  0  0  0  0  0  0  0  0
  2  1  1  6
  3  4  1  0
  3  2  1  0
  4  8  1  0
  5  4  2  0
  6  7  2  0
  6  2  1  0
  9  6  1  0
 10 14  1  0
 10  9  1  0
 10 11  1  1
 12 11  1  0
 13 12  2  0
 14 17  1  0
 15 14  2  0
 16 12  1  0
 17 18  1  0
 18 21  1  0
 18 19  1  6
 20 19  1  0
 21 22  2  0
 21 23  1  0
M  END
$$$$
