DDC.pdb
     RDKit          3D

 23 22  0  0  1  0  0  0  0  0999 V2000
   17.2411  -12.0524  -17.1656 N   0  0  0  0  0  0  0  0  0  0  0  0
   17.0901  -11.0714  -16.1195 C   0  0  1  0  0  0  0  0  0  0  0  0
   17.2148  -11.7611  -14.8002 C   0  0  0  0  0  0  0  0  0  0  0  0
   16.0344  -12.6146  -14.6064 C   0  0  0  0  0  0  0  0  0  0  0  0
   14.9261  -12.2581  -15.0349 O   0  0  0  0  0  0  0  0  0  0  0  0
   17.9905   -9.9151  -16.2948 C   0  0  0  0  0  0  0  0  0  0  0  0
   19.1730  -10.1551  -16.6497 O   0  0  0  0  0  0  0  0  0  0  0  0
   16.1517  -13.8168  -13.9474 O   0  0  0  0  0  0  0  0  0  0  0  0
   17.5475   -8.5864  -16.0741 N   0  0  0  0  0  0  0  0  0  0  0  0
   18.3773   -7.4226  -16.2844 C   0  0  1  0  0  0  0  0  0  0  0  0
   17.6320   -6.2095  -16.7096 C   0  0  0  0  0  0  0  0  0  0  0  0
   18.5523   -5.1006  -17.0303 C   0  0  0  0  0  0  0  0  0  0  0  0
   19.3874   -5.2348  -17.9358 O   0  0  0  0  0  0  0  0  0  0  0  0
   19.2886   -7.1789  -15.1437 C   0  0  0  0  0  0  0  0  0  0  0  0
   18.8550   -7.2077  -13.9778 O   0  0  0  0  0  0  0  0  0  0  0  0
   18.4819   -3.9226  -16.3255 O   0  0  0  0  0  0  0  0  0  0  0  0
   20.6532   -6.9124  -15.3696 N   0  0  0  0  0  0  0  0  0  0  0  0
   21.6086   -6.6274  -14.3162 C   0  0  1  0  0  0  0  0  0  0  0  0
   22.8362   -7.4611  -14.6244 C   0  0  0  0  0  0  0  0  0  0  0  0
   22.5386   -9.2056  -14.2657 S   0  0  0  0  0  0  0  0  0  0  0  0
   21.8993   -5.2023  -14.1624 C   0  0  0  0  0  0  0  0  0  0  0  0
   21.6047   -4.3963  -15.0729 O   0  0  0  0  0  0  0  0  0  0  0  0
   22.4995   -4.7505  -13.0091 O   0  0  0  0  0  0  0  0  0  0  0  0
  2  1  1  6
  3  4  1  0
  3  2  1  0
  4  8  1  0
  5  4  2  0
  6  7  2  0
  6  2  1  0
  9  6  1  0
 10 14  1  0
 10  9  1  0
 10 11  1  1
 12 11  1  0
 13 12  2  0
 14 17  1  0
 15 14  2  0
 16 12  1  0
 17 18  1  0
 18 21  1  0
 18 19  1  6
 20 19  1  0
 21 22  2  0
 21 23  1  0
M  END
$$$$
