DDC.pdb
     RDKit          3D

 23 22  0  0  1  0  0  0  0  0999 V2000
   18.1626  -12.4295  -15.7116 N   0  0  0  0  0  0  0  0  0  0  0  0
   17.5181  -11.1484  -15.5599 C   0  0  1  0  0  0  0  0  0  0  0  0
   16.0399  -11.3617  -15.5241 C   0  0  0  0  0  0  0  0  0  0  0  0
   15.5888  -11.7298  -16.8733 C   0  0  0  0  0  0  0  0  0  0  0  0
   15.0446  -12.8262  -17.0748 O   0  0  0  0  0  0  0  0  0  0  0  0
   18.0544  -10.3773  -14.4214 C   0  0  0  0  0  0  0  0  0  0  0  0
   18.0845  -10.9495  -13.3019 O   0  0  0  0  0  0  0  0  0  0  0  0
   15.7675  -10.8585  -17.9232 O   0  0  0  0  0  0  0  0  0  0  0  0
   18.5182   -9.0463  -14.5762 N   0  0  0  0  0  0  0  0  0  0  0  0
   18.9787   -8.2283  -13.4780 C   0  0  1  0  0  0  0  0  0  0  0  0
   20.0533   -7.2681  -13.8401 C   0  0  0  0  0  0  0  0  0  0  0  0
   20.5801   -6.5786  -12.6458 C   0  0  0  0  0  0  0  0  0  0  0  0
   20.1894   -6.9130  -11.5185 O   0  0  0  0  0  0  0  0  0  0  0  0
   17.8557   -7.6002  -12.7464 C   0  0  0  0  0  0  0  0  0  0  0  0
   17.0615   -6.8498  -13.3417 O   0  0  0  0  0  0  0  0  0  0  0  0
   21.5018   -5.5684  -12.7851 O   0  0  0  0  0  0  0  0  0  0  0  0
   17.6779   -7.8470  -11.3712 N   0  0  0  0  0  0  0  0  0  0  0  0
   16.5852   -7.3065  -10.5853 C   0  0  1  0  0  0  0  0  0  0  0  0
   15.9980   -8.4759   -9.8204 C   0  0  0  0  0  0  0  0  0  0  0  0
   14.8159   -7.9074   -8.5796 S   0  0  0  0  0  0  0  0  0  0  0  0
   16.9809   -6.1915   -9.7255 C   0  0  0  0  0  0  0  0  0  0  0  0
   18.1426   -6.1314   -9.2646 O   0  0  0  0  0  0  0  0  0  0  0  0
   16.0681   -5.2062   -9.4250 O   0  0  0  0  0  0  0  0  0  0  0  0
  2  1  1  1
  3  4  1  0
  3  2  1  0
  4  8  1  0
  5  4  2  0
  6  7  2  0
  6  2  1  0
  9  6  1  0
 10 14  1  0
 10  9  1  0
 10 11  1  6
 12 11  1  0
 13 12  2  0
 14 17  1  0
 15 14  2  0
 16 12  1  0
 17 18  1  0
 18 21  1  0
 18 19  1  1
 20 19  1  0
 21 22  2  0
 21 23  1  0
M  END
$$$$
