DDC.pdb
     RDKit          3D

 23 22  0  0  1  0  0  0  0  0999 V2000
   14.3464  -10.3176  -12.1143 N   0  0  0  0  0  0  0  0  0  0  0  0
   15.2436  -10.0806  -11.0105 C   0  0  1  0  0  0  0  0  0  0  0  0
   16.2914  -11.1455  -11.0131 C   0  0  0  0  0  0  0  0  0  0  0  0
   15.6487  -12.4331  -10.7163 C   0  0  0  0  0  0  0  0  0  0  0  0
   14.9563  -13.0007  -11.5750 O   0  0  0  0  0  0  0  0  0  0  0  0
   15.7702   -8.7019  -10.9961 C   0  0  0  0  0  0  0  0  0  0  0  0
   16.0463   -8.1797  -12.1065 O   0  0  0  0  0  0  0  0  0  0  0  0
   15.8117  -13.0183   -9.4817 O   0  0  0  0  0  0  0  0  0  0  0  0
   15.9593   -7.9896   -9.7848 N   0  0  0  0  0  0  0  0  0  0  0  0
   16.3457   -6.5987   -9.7281 C   0  0  1  0  0  0  0  0  0  0  0  0
   15.8070   -5.8622   -8.5553 C   0  0  0  0  0  0  0  0  0  0  0  0
   16.1110   -4.4203   -8.6427 C   0  0  0  0  0  0  0  0  0  0  0  0
   16.0804   -3.7208   -7.6204 O   0  0  0  0  0  0  0  0  0  0  0  0
   17.8038   -6.4211   -9.9104 C   0  0  0  0  0  0  0  0  0  0  0  0
   18.5917   -6.7295   -8.9981 O   0  0  0  0  0  0  0  0  0  0  0  0
   16.4273   -3.8562   -9.8556 O   0  0  0  0  0  0  0  0  0  0  0  0
   18.3102   -5.9016  -11.1177 N   0  0  0  0  0  0  0  0  0  0  0  0
   19.7209   -5.8546  -11.4514 C   0  0  1  0  0  0  0  0  0  0  0  0
   20.2008   -7.2923  -11.4550 C   0  0  0  0  0  0  0  0  0  0  0  0
   21.9207   -7.3974  -11.9946 S   0  0  0  0  0  0  0  0  0  0  0  0
   20.0017   -5.1467  -12.7000 C   0  0  0  0  0  0  0  0  0  0  0  0
   19.1684   -5.1585  -13.6333 O   0  0  0  0  0  0  0  0  0  0  0  0
   21.1889   -4.4656  -12.8444 O   0  0  0  0  0  0  0  0  0  0  0  0
  2  1  1  6
  3  4  1  0
  3  2  1  0
  4  8  1  0
  5  4  2  0
  6  7  2  0
  6  2  1  0
  9  6  1  0
 10 14  1  0
 10  9  1  0
 10 11  1  1
 12 11  1  0
 13 12  2  0
 14 17  1  0
 15 14  2  0
 16 12  1  0
 17 18  1  0
 18 21  1  0
 18 19  1  6
 20 19  1  0
 21 22  2  0
 21 23  1  0
M  END
$$$$
