DDC.pdb
     RDKit          3D

 23 22  0  0  1  0  0  0  0  0999 V2000
   17.8345  -10.4435  -16.0816 N   0  0  0  0  0  0  0  0  0  0  0  0
   18.2319   -9.4174  -17.0137 C   0  0  1  0  0  0  0  0  0  0  0  0
   17.2065   -9.3372  -18.0973 C   0  0  0  0  0  0  0  0  0  0  0  0
   17.2198  -10.6012  -18.8466 C   0  0  0  0  0  0  0  0  0  0  0  0
   16.2492  -11.3720  -18.7926 O   0  0  0  0  0  0  0  0  0  0  0  0
   18.5236   -8.1323  -16.3490 C   0  0  0  0  0  0  0  0  0  0  0  0
   17.7241   -7.7518  -15.4558 O   0  0  0  0  0  0  0  0  0  0  0  0
   18.3110  -10.9379  -19.6142 O   0  0  0  0  0  0  0  0  0  0  0  0
   19.6564   -7.3540  -16.6976 N   0  0  0  0  0  0  0  0  0  0  0  0
   20.0021   -6.1109  -16.0478 C   0  0  1  0  0  0  0  0  0  0  0  0
   21.3876   -6.0656  -15.5130 C   0  0  0  0  0  0  0  0  0  0  0  0
   21.5197   -6.8926  -14.2973 C   0  0  0  0  0  0  0  0  0  0  0  0
   21.2239   -6.4161  -13.1924 O   0  0  0  0  0  0  0  0  0  0  0  0
   19.6582   -4.9365  -16.8804 C   0  0  0  0  0  0  0  0  0  0  0  0
   20.1877   -4.7822  -17.9958 O   0  0  0  0  0  0  0  0  0  0  0  0
   21.9697   -8.1880  -14.3920 O   0  0  0  0  0  0  0  0  0  0  0  0
   18.7292   -3.9847  -16.4164 N   0  0  0  0  0  0  0  0  0  0  0  0
   18.3211   -2.8154  -17.1713 C   0  0  1  0  0  0  0  0  0  0  0  0
   16.8798   -3.0561  -17.5737 C   0  0  0  0  0  0  0  0  0  0  0  0
   16.7569   -4.4225  -18.7476 S   0  0  0  0  0  0  0  0  0  0  0  0
   18.5197   -1.5579  -16.4513 C   0  0  0  0  0  0  0  0  0  0  0  0
   18.9406   -1.5650  -15.2731 O   0  0  0  0  0  0  0  0  0  0  0  0
   18.2413   -0.3640  -17.0769 O   0  0  0  0  0  0  0  0  0  0  0  0
  2  1  1  1
  3  4  1  0
  3  2  1  0
  4  8  1  0
  5  4  2  0
  6  7  2  0
  6  2  1  0
  9  6  1  0
 10 14  1  0
 10  9  1  0
 10 11  1  6
 12 11  1  0
 13 12  2  0
 14 17  1  0
 15 14  2  0
 16 12  1  0
 17 18  1  0
 18 21  1  0
 18 19  1  1
 20 19  1  0
 21 22  2  0
 21 23  1  0
M  END
$$$$
