DDC.pdb
     RDKit          3D

 23 22  0  0  1  0  0  0  0  0999 V2000
   19.2858   -9.4514  -13.5995 N   0  0  0  0  0  0  0  0  0  0  0  0
   18.3798   -8.3506  -13.8160 C   0  0  1  0  0  0  0  0  0  0  0  0
   17.9797   -8.3410  -15.2554 C   0  0  0  0  0  0  0  0  0  0  0  0
   19.1825   -8.1297  -16.0726 C   0  0  0  0  0  0  0  0  0  0  0  0
   19.6704   -6.9950  -16.1883 O   0  0  0  0  0  0  0  0  0  0  0  0
   17.2507   -8.3526  -12.8655 C   0  0  0  0  0  0  0  0  0  0  0  0
   16.3808   -7.4548  -13.0034 O   0  0  0  0  0  0  0  0  0  0  0  0
   19.7763   -9.1916  -16.7155 O   0  0  0  0  0  0  0  0  0  0  0  0
   17.1446   -9.3233  -11.8374 N   0  0  0  0  0  0  0  0  0  0  0  0
   16.0514   -9.3713  -10.8941 C   0  0  1  0  0  0  0  0  0  0  0  0
   15.7971  -10.7187  -10.3216 C   0  0  0  0  0  0  0  0  0  0  0  0
   15.2143  -11.6271  -11.3288 C   0  0  0  0  0  0  0  0  0  0  0  0
   15.9411  -12.4343  -11.9249 O   0  0  0  0  0  0  0  0  0  0  0  0
   16.1591   -8.3108   -9.8672 C   0  0  0  0  0  0  0  0  0  0  0  0
   17.2615   -8.0429   -9.3560 O   0  0  0  0  0  0  0  0  0  0  0  0
   13.8684  -11.5767  -11.6037 O   0  0  0  0  0  0  0  0  0  0  0  0
   15.0147   -7.5972   -9.4609 N   0  0  0  0  0  0  0  0  0  0  0  0
   15.0491   -6.4382   -8.5895 C   0  0  1  0  0  0  0  0  0  0  0  0
   15.8037   -5.3641   -9.3472 C   0  0  0  0  0  0  0  0  0  0  0  0
   15.8001   -3.8064   -8.4340 S   0  0  0  0  0  0  0  0  0  0  0  0
   13.7260   -6.0083   -8.1382 C   0  0  0  0  0  0  0  0  0  0  0  0
   12.7042   -6.3249   -8.7872 O   0  0  0  0  0  0  0  0  0  0  0  0
   13.6093   -5.2525   -6.9938 O   0  0  0  0  0  0  0  0  0  0  0  0
  2  1  1  6
  3  4  1  0
  3  2  1  0
  4  8  1  0
  5  4  2  0
  6  7  2  0
  6  2  1  0
  9  6  1  0
 10 14  1  0
 10  9  1  0
 10 11  1  1
 12 11  1  0
 13 12  2  0
 14 17  1  0
 15 14  2  0
 16 12  1  0
 17 18  1  0
 18 21  1  0
 18 19  1  6
 20 19  1  0
 21 22  2  0
 21 23  1  0
M  END
$$$$
