DDC.pdb
     RDKit          3D

 23 22  0  0  1  0  0  0  0  0999 V2000
   14.3116  -11.0777  -10.8523 N   0  0  0  0  0  0  0  0  0  0  0  0
   15.7233  -10.8106  -10.9759 C   0  0  1  0  0  0  0  0  0  0  0  0
   16.2754  -11.6695  -12.0665 C   0  0  0  0  0  0  0  0  0  0  0  0
   16.0535  -13.0774  -11.7093 C   0  0  0  0  0  0  0  0  0  0  0  0
   16.1957  -13.4565  -10.5367 O   0  0  0  0  0  0  0  0  0  0  0  0
   16.0157   -9.3713  -11.1211 C   0  0  0  0  0  0  0  0  0  0  0  0
   15.5091   -8.7778  -12.1075 O   0  0  0  0  0  0  0  0  0  0  0  0
   15.6857  -13.9857  -12.6754 O   0  0  0  0  0  0  0  0  0  0  0  0
   16.8326   -8.6799  -10.1910 N   0  0  0  0  0  0  0  0  0  0  0  0
   17.1253   -7.2679  -10.2801 C   0  0  1  0  0  0  0  0  0  0  0  0
   16.6626   -6.4732   -9.1129 C   0  0  0  0  0  0  0  0  0  0  0  0
   16.8624   -5.0278   -9.3363 C   0  0  0  0  0  0  0  0  0  0  0  0
   16.9157   -4.5841  -10.4920 O   0  0  0  0  0  0  0  0  0  0  0  0
   18.5404   -7.0170  -10.6343 C   0  0  0  0  0  0  0  0  0  0  0  0
   19.4538   -7.5718   -9.9971 O   0  0  0  0  0  0  0  0  0  0  0  0
   16.9887   -4.1769   -8.2640 O   0  0  0  0  0  0  0  0  0  0  0  0
   18.8634   -6.1482  -11.6949 N   0  0  0  0  0  0  0  0  0  0  0  0
   20.2110   -5.9372  -12.1881 C   0  0  1  0  0  0  0  0  0  0  0  0
   20.6107   -7.2229  -12.8841 C   0  0  0  0  0  0  0  0  0  0  0  0
   21.3830   -8.3716  -11.7246 S   0  0  0  0  0  0  0  0  0  0  0  0
   20.3427   -4.7535  -13.0368 C   0  0  0  0  0  0  0  0  0  0  0  0
   19.3260   -4.2064  -13.5191 O   0  0  0  0  0  0  0  0  0  0  0  0
   21.5926   -4.2425  -13.3033 O   0  0  0  0  0  0  0  0  0  0  0  0
  2  1  1  6
  3  4  1  0
  3  2  1  0
  4  8  1  0
  5  4  2  0
  6  7  2  0
  6  2  1  0
  9  6  1  0
 10 14  1  0
 10  9  1  0
 10 11  1  1
 12 11  1  0
 13 12  2  0
 14 17  1  0
 15 14  2  0
 16 12  1  0
 17 18  1  0
 18 21  1  0
 18 19  1  6
 20 19  1  0
 21 22  2  0
 21 23  1  0
M  END
$$$$
