DDC.pdb
     RDKit          3D

 23 22  0  0  1  0  0  0  0  0999 V2000
   16.5936  -11.6817  -16.6161 N   0  0  0  0  0  0  0  0  0  0  0  0
   17.2536  -11.3211  -15.3856 C   0  0  1  0  0  0  0  0  0  0  0  0
   18.2580  -12.3774  -15.0582 C   0  0  0  0  0  0  0  0  0  0  0  0
   17.5403  -13.6097  -14.7037 C   0  0  0  0  0  0  0  0  0  0  0  0
   16.3002  -13.6271  -14.6767 O   0  0  0  0  0  0  0  0  0  0  0  0
   17.7948   -9.9483  -15.4159 C   0  0  0  0  0  0  0  0  0  0  0  0
   18.8867   -9.7732  -16.0150 O   0  0  0  0  0  0  0  0  0  0  0  0
   18.2411  -14.7541  -14.3993 O   0  0  0  0  0  0  0  0  0  0  0  0
   17.1173   -8.8671  -14.7976 N   0  0  0  0  0  0  0  0  0  0  0  0
   17.6118   -7.5096  -14.7980 C   0  0  1  0  0  0  0  0  0  0  0  0
   16.5601   -6.4761  -14.6139 C   0  0  0  0  0  0  0  0  0  0  0  0
   17.1266   -5.1154  -14.6950 C   0  0  0  0  0  0  0  0  0  0  0  0
   17.2370   -4.4313  -13.6677 O   0  0  0  0  0  0  0  0  0  0  0  0
   18.7644   -7.3398  -13.8850 C   0  0  0  0  0  0  0  0  0  0  0  0
   18.7687   -7.8943  -12.7711 O   0  0  0  0  0  0  0  0  0  0  0  0
   17.5304   -4.6094  -15.9076 O   0  0  0  0  0  0  0  0  0  0  0  0
   19.8647   -6.5493  -14.2702 N   0  0  0  0  0  0  0  0  0  0  0  0
   21.0614   -6.3800  -13.4683 C   0  0  1  0  0  0  0  0  0  0  0  0
   21.9709   -7.5406  -13.8192 C   0  0  0  0  0  0  0  0  0  0  0  0
   22.5295   -7.4279  -15.5325 S   0  0  0  0  0  0  0  0  0  0  0  0
   21.6970   -5.0737  -13.6376 C   0  0  0  0  0  0  0  0  0  0  0  0
   22.6770   -4.7522  -12.9294 O   0  0  0  0  0  0  0  0  0  0  0  0
   21.2115   -4.1976  -14.5817 O   0  0  0  0  0  0  0  0  0  0  0  0
  2  1  1  6
  3  4  1  0
  3  2  1  0
  4  8  1  0
  5  4  2  0
  6  7  2  0
  6  2  1  0
  9  6  1  0
 10 14  1  0
 10  9  1  0
 10 11  1  1
 12 11  1  0
 13 12  2  0
 14 17  1  0
 15 14  2  0
 16 12  1  0
 17 18  1  0
 18 21  1  0
 18 19  1  6
 20 19  1  0
 21 22  2  0
 21 23  1  0
M  END
$$$$
