DDC.pdb
     RDKit          3D

 23 22  0  0  1  0  0  0  0  0999 V2000
   19.9781  -11.0665  -16.4401 N   0  0  0  0  0  0  0  0  0  0  0  0
   19.9874   -9.8179  -17.1615 C   0  0  1  0  0  0  0  0  0  0  0  0
   18.8711   -9.8348  -18.1543 C   0  0  0  0  0  0  0  0  0  0  0  0
   19.1649  -10.8559  -19.1693 C   0  0  0  0  0  0  0  0  0  0  0  0
   18.6431  -11.9790  -19.0978 O   0  0  0  0  0  0  0  0  0  0  0  0
   19.9922   -8.6465  -16.2637 C   0  0  0  0  0  0  0  0  0  0  0  0
   19.0514   -8.5532  -15.4343 O   0  0  0  0  0  0  0  0  0  0  0  0
   20.0222  -10.5715  -20.2074 O   0  0  0  0  0  0  0  0  0  0  0  0
   21.0120   -7.6634  -16.3279 N   0  0  0  0  0  0  0  0  0  0  0  0
   21.0672   -6.5119  -15.4571 C   0  0  1  0  0  0  0  0  0  0  0  0
   22.4272   -6.1943  -14.9496 C   0  0  0  0  0  0  0  0  0  0  0  0
   22.3896   -5.0872  -13.9738 C   0  0  0  0  0  0  0  0  0  0  0  0
   22.6784   -3.9375  -14.3345 O   0  0  0  0  0  0  0  0  0  0  0  0
   20.3733   -5.3422  -16.0411 C   0  0  0  0  0  0  0  0  0  0  0  0
   20.7075   -4.9087  -17.1585 O   0  0  0  0  0  0  0  0  0  0  0  0
   22.0347   -5.3323  -12.6686 O   0  0  0  0  0  0  0  0  0  0  0  0
   19.3298   -4.7110  -15.3363 N   0  0  0  0  0  0  0  0  0  0  0  0
   18.6411   -3.5221  -15.8010 C   0  0  1  0  0  0  0  0  0  0  0  0
   17.3546   -4.0040  -16.4412 C   0  0  0  0  0  0  0  0  0  0  0  0
   16.3024   -2.6113  -16.9035 S   0  0  0  0  0  0  0  0  0  0  0  0
   18.4287   -2.5241  -14.7531 C   0  0  0  0  0  0  0  0  0  0  0  0
   18.1171   -2.8814  -13.5952 O   0  0  0  0  0  0  0  0  0  0  0  0
   18.5736   -1.1873  -15.0467 O   0  0  0  0  0  0  0  0  0  0  0  0
  2  1  1  1
  3  4  1  0
  3  2  1  0
  4  8  1  0
  5  4  2  0
  6  7  2  0
  6  2  1  0
  9  6  1  0
 10 14  1  0
 10  9  1  0
 10 11  1  6
 12 11  1  0
 13 12  2  0
 14 17  1  0
 15 14  2  0
 16 12  1  0
 17 18  1  0
 18 21  1  0
 18 19  1  1
 20 19  1  0
 21 22  2  0
 21 23  1  0
M  END
$$$$
