DDC.pdb
     RDKit          3D

 23 22  0  0  1  0  0  0  0  0999 V2000
   20.2844  -19.9483  -15.9770 N   0  0  0  0  0  0  0  0  0  0  0  0
   20.5372  -20.5041  -14.6706 C   0  0  1  0  0  0  0  0  0  0  0  0
   19.6195  -21.6645  -14.4625 C   0  0  0  0  0  0  0  0  0  0  0  0
   18.2339  -21.1773  -14.5074 C   0  0  0  0  0  0  0  0  0  0  0  0
   17.9778  -20.0583  -14.9777 O   0  0  0  0  0  0  0  0  0  0  0  0
   21.9655  -20.8046  -14.4509 C   0  0  0  0  0  0  0  0  0  0  0  0
   22.2486  -21.6119  -13.5291 O   0  0  0  0  0  0  0  0  0  0  0  0
   17.2101  -21.9613  -14.0271 O   0  0  0  0  0  0  0  0  0  0  0  0
   22.9814  -20.2115  -15.2425 N   0  0  0  0  0  0  0  0  0  0  0  0
   24.3925  -20.4402  -15.0335 C   0  0  1  0  0  0  0  0  0  0  0  0
   25.2655  -19.8907  -16.1029 C   0  0  0  0  0  0  0  0  0  0  0  0
   24.9203  -20.4592  -17.4208 C   0  0  0  0  0  0  0  0  0  0  0  0
   25.0015  -21.6818  -17.6052 O   0  0  0  0  0  0  0  0  0  0  0  0
   24.8208  -20.0503  -13.6714 C   0  0  0  0  0  0  0  0  0  0  0  0
   24.4564  -18.9638  -13.1866 O   0  0  0  0  0  0  0  0  0  0  0  0
   24.5099  -19.6334  -18.4402 O   0  0  0  0  0  0  0  0  0  0  0  0
   25.6442  -20.9061  -12.9139 N   0  0  0  0  0  0  0  0  0  0  0  0
   26.0765  -20.6244  -11.5584 C   0  0  1  0  0  0  0  0  0  0  0  0
   24.8144  -20.5357  -10.7238 C   0  0  0  0  0  0  0  0  0  0  0  0
   25.1973  -20.0692   -9.0220 S   0  0  0  0  0  0  0  0  0  0  0  0
   27.0457  -21.5907  -11.0427 C   0  0  0  0  0  0  0  0  0  0  0  0
   27.8460  -21.2609  -10.1392 O   0  0  0  0  0  0  0  0  0  0  0  0
   27.0737  -22.8673  -11.5563 O   0  0  0  0  0  0  0  0  0  0  0  0
  2  1  1  6
  3  4  1  0
  3  2  1  0
  4  8  1  0
  5  4  2  0
  6  7  2  0
  6  2  1  0
  9  6  1  0
 10 14  1  0
 10  9  1  0
 10 11  1  6
 12 11  1  0
 13 12  2  0
 14 17  1  0
 15 14  2  0
 16 12  1  0
 17 18  1  0
 18 21  1  0
 18 19  1  1
 20 19  1  0
 21 22  2  0
 21 23  1  0
M  END
$$$$
