DDC.pdb
     RDKit          3D

 23 22  0  0  1  0  0  0  0  0999 V2000
   16.8612  -12.6772  -14.4598 N   0  0  0  0  0  0  0  0  0  0  0  0
   16.0115  -11.5212  -14.3143 C   0  0  1  0  0  0  0  0  0  0  0  0
   14.6238  -11.9865  -14.0146 C   0  0  0  0  0  0  0  0  0  0  0  0
   14.1131  -12.7149  -15.1841 C   0  0  0  0  0  0  0  0  0  0  0  0
   13.5092  -13.7887  -15.0391 O   0  0  0  0  0  0  0  0  0  0  0  0
   16.5509  -10.5407  -13.3521 C   0  0  0  0  0  0  0  0  0  0  0  0
   16.8210  -10.9571  -12.1965 O   0  0  0  0  0  0  0  0  0  0  0  0
   14.3020  -12.2089  -16.4498 O   0  0  0  0  0  0  0  0  0  0  0  0
   16.7588   -9.1842  -13.7088 N   0  0  0  0  0  0  0  0  0  0  0  0
   17.2858   -8.1914  -12.8012 C   0  0  1  0  0  0  0  0  0  0  0  0
   18.1474   -7.1682  -13.4481 C   0  0  0  0  0  0  0  0  0  0  0  0
   19.3633   -7.7775  -14.0223 C   0  0  0  0  0  0  0  0  0  0  0  0
   20.2374   -8.2338  -13.2720 O   0  0  0  0  0  0  0  0  0  0  0  0
   16.2293   -7.6086  -11.9438 C   0  0  0  0  0  0  0  0  0  0  0  0
   15.1507   -7.2392  -12.4420 O   0  0  0  0  0  0  0  0  0  0  0  0
   19.5242   -7.8379  -15.3861 O   0  0  0  0  0  0  0  0  0  0  0  0
   16.4372   -7.4677  -10.5578 N   0  0  0  0  0  0  0  0  0  0  0  0
   15.4500   -6.9313   -9.6405 C   0  0  1  0  0  0  0  0  0  0  0  0
   15.7865   -7.5037   -8.2780 C   0  0  0  0  0  0  0  0  0  0  0  0
   14.5952   -6.9571   -7.0361 S   0  0  0  0  0  0  0  0  0  0  0  0
   15.3748   -5.4708   -9.6532 C   0  0  0  0  0  0  0  0  0  0  0  0
   16.4151   -4.7864   -9.7752 O   0  0  0  0  0  0  0  0  0  0  0  0
   14.1521   -4.8509   -9.5304 O   0  0  0  0  0  0  0  0  0  0  0  0
  2  1  1  1
  3  4  1  0
  3  2  1  0
  4  8  1  0
  5  4  2  0
  6  7  2  0
  6  2  1  0
  9  6  1  0
 10 14  1  0
 10  9  1  0
 10 11  1  6
 12 11  1  0
 13 12  2  0
 14 17  1  0
 15 14  2  0
 16 12  1  0
 17 18  1  0
 18 21  1  0
 18 19  1  1
 20 19  1  0
 21 22  2  0
 21 23  1  0
M  END
$$$$
