DDC.pdb
     RDKit          3D

 23 22  0  0  1  0  0  0  0  0999 V2000
   17.6951  -13.0694  -17.9063 N   0  0  0  0  0  0  0  0  0  0  0  0
   17.7046  -12.2074  -16.7502 C   0  0  1  0  0  0  0  0  0  0  0  0
   17.5297  -13.0496  -15.5287 C   0  0  0  0  0  0  0  0  0  0  0  0
   16.1812  -13.6326  -15.5530 C   0  0  0  0  0  0  0  0  0  0  0  0
   15.4094  -13.3879  -16.4929 O   0  0  0  0  0  0  0  0  0  0  0  0
   18.8815  -11.3174  -16.7184 C   0  0  0  0  0  0  0  0  0  0  0  0
   19.6660  -11.4353  -15.7425 O   0  0  0  0  0  0  0  0  0  0  0  0
   15.7656  -14.4554  -14.5314 O   0  0  0  0  0  0  0  0  0  0  0  0
   19.1239  -10.3668  -17.7422 N   0  0  0  0  0  0  0  0  0  0  0  0
   20.2911   -9.5163  -17.7821 C   0  0  1  0  0  0  0  0  0  0  0  0
   20.6946   -9.0964  -19.1492 C   0  0  0  0  0  0  0  0  0  0  0  0
   22.0481   -8.5071  -19.1507 C   0  0  0  0  0  0  0  0  0  0  0  0
   22.2354   -7.3915  -18.6451 O   0  0  0  0  0  0  0  0  0  0  0  0
   20.1863   -8.3871  -16.8309 C   0  0  0  0  0  0  0  0  0  0  0  0
   19.1587   -7.6861  -16.8009 O   0  0  0  0  0  0  0  0  0  0  0  0
   23.0975   -9.1953  -19.7117 O   0  0  0  0  0  0  0  0  0  0  0  0
   21.2489   -8.0976  -15.9528 N   0  0  0  0  0  0  0  0  0  0  0  0
   21.2238   -7.0262  -14.9755 C   0  0  1  0  0  0  0  0  0  0  0  0
   21.7842   -7.6115  -13.6946 C   0  0  0  0  0  0  0  0  0  0  0  0
   20.5253   -8.5593  -12.8130 S   0  0  0  0  0  0  0  0  0  0  0  0
   21.9226   -5.8190  -15.4154 C   0  0  0  0  0  0  0  0  0  0  0  0
   22.5663   -5.8180  -16.4883 O   0  0  0  0  0  0  0  0  0  0  0  0
   21.8686   -4.6813  -14.6426 O   0  0  0  0  0  0  0  0  0  0  0  0
  2  1  1  6
  3  4  1  0
  3  2  1  0
  4  8  1  0
  5  4  2  0
  6  7  2  0
  6  2  1  0
  9  6  1  0
 10 14  1  0
 10  9  1  0
 10 11  1  6
 12 11  1  0
 13 12  2  0
 14 17  1  0
 15 14  2  0
 16 12  1  0
 17 18  1  0
 18 21  1  0
 18 19  1  1
 20 19  1  0
 21 22  2  0
 21 23  1  0
M  END
$$$$
