LQT.pdb
     RDKit          3D

 25 24  0  0  1  0  0  0  0  0999 V2000
   24.3746  -20.7448   -8.5929 C   0  0  0  0  0  0  0  0  0  0  0  0
   25.8431  -20.4969   -8.9143 C   0  0  2  0  0  0  0  0  0  0  0  0
   26.3081  -19.3763   -8.0383 C   0  0  0  0  0  0  0  0  0  0  0  0
   25.9346  -20.1738  -10.3724 C   0  0  0  0  0  0  0  0  0  0  0  0
   25.6099  -21.3893  -11.1784 C   0  0  2  0  0  0  0  0  0  0  0  0
   26.6328  -22.3967  -11.0577 N   0  0  0  0  0  0  0  0  0  0  0  0
   25.3970  -21.0212  -12.6084 C   0  0  0  0  0  0  0  0  0  0  0  0
   26.3674  -20.8662  -13.3979 O   0  0  0  0  0  0  0  0  0  0  0  0
   23.7463  -24.4155  -14.2713 N   0  0  0  0  0  0  0  0  0  0  0  0
   22.7475  -23.4114  -14.2495 C   0  0  0  0  0  0  0  0  0  0  0  0
   21.9615  -23.3335  -13.2599 O   0  0  0  0  0  0  0  0  0  0  0  0
   22.6307  -22.4664  -15.3768 C   0  0  0  0  0  0  0  0  0  0  0  0
   22.4851  -21.0425  -14.8796 C   0  0  0  0  0  0  0  0  0  0  0  0
   23.8452  -20.4917  -14.5147 C   0  0  2  0  0  0  0  0  0  0  0  0
   24.1013  -20.8381  -13.1085 N   0  0  0  0  0  0  0  0  0  0  0  0
   23.8475  -19.0076  -14.6743 C   0  0  0  0  0  0  0  0  0  0  0  0
   23.2405  -18.3016  -13.8391 O   0  0  0  0  0  0  0  0  0  0  0  0
   26.7247  -16.8588  -14.5387 C   0  0  0  0  0  0  0  0  0  0  0  0
   26.1332  -16.5619  -15.9001 C   0  0  1  0  0  0  0  0  0  0  0  0
   26.7392  -17.3423  -16.9059 O   0  0  0  0  0  0  0  0  0  0  0  0
   24.6505  -16.9252  -15.8377 C   0  0  2  0  0  0  0  0  0  0  0  0
   24.5163  -18.3636  -15.7442 N   0  0  0  0  0  0  0  0  0  0  0  0
   24.0015  -16.4227  -17.0754 C   0  0  0  0  0  0  0  0  0  0  0  0
   23.5248  -17.2247  -17.9180 O   0  0  0  0  0  0  0  0  0  0  0  0
   23.8893  -15.0693  -17.3615 O   0  0  0  0  0  0  0  0  0  0  0  0
  2  1  1  1
  2  3  1  0
  4  5  1  0
  4  2  1  0
  5  6  1  6
  7  8  2  0
  7  5  1  0
  9 10  1  0
 10 11  2  0
 12 10  1  0
 12 13  1  0
 14 13  1  1
 14 15  1  0
 15  7  1  0
 16 17  2  0
 16 14  1  0
 19 18  1  1
 20 19  1  0
 21 19  1  0
 21 22  1  6
 22 16  1  0
 23 21  1  0
 24 23  2  0
 25 23  1  0
M  END
$$$$
