LQT.pdb
     RDKit          3D

 25 24  0  0  1  0  0  0  0  0999 V2000
   26.3699  -14.0435  -15.1315 C   0  0  0  0  0  0  0  0  0  0  0  0
   25.6796  -14.1645  -16.4843 C   0  0  2  0  0  0  0  0  0  0  0  0
   26.7416  -14.4306  -17.5044 C   0  0  0  0  0  0  0  0  0  0  0  0
   24.9441  -12.8845  -16.7285 C   0  0  0  0  0  0  0  0  0  0  0  0
   23.4937  -13.0715  -16.4220 C   0  0  2  0  0  0  0  0  0  0  0  0
   22.9579  -14.2386  -17.0750 N   0  0  0  0  0  0  0  0  0  0  0  0
   22.7224  -11.8523  -16.8025 C   0  0  0  0  0  0  0  0  0  0  0  0
   22.1239  -11.7730  -17.9090 O   0  0  0  0  0  0  0  0  0  0  0  0
   17.6923  -11.0239  -15.7938 N   0  0  0  0  0  0  0  0  0  0  0  0
   17.9052   -9.6556  -16.0919 C   0  0  0  0  0  0  0  0  0  0  0  0
   16.9118   -8.9027  -16.3140 O   0  0  0  0  0  0  0  0  0  0  0  0
   19.2791   -9.1194  -16.1411 C   0  0  0  0  0  0  0  0  0  0  0  0
   20.3007  -10.2250  -15.9686 C   0  0  0  0  0  0  0  0  0  0  0  0
   21.6931   -9.6584  -16.1320 C   0  0  2  0  0  0  0  0  0  0  0  0
   22.6467  -10.7596  -15.9293 N   0  0  0  0  0  0  0  0  0  0  0  0
   21.9284   -8.5964  -15.1100 C   0  0  0  0  0  0  0  0  0  0  0  0
   22.1972   -8.9277  -13.9342 O   0  0  0  0  0  0  0  0  0  0  0  0
   22.0303   -4.5961  -16.3636 C   0  0  0  0  0  0  0  0  0  0  0  0
   23.0011   -5.0802  -15.3078 C   0  0  1  0  0  0  0  0  0  0  0  0
   23.3513   -4.0448  -14.4171 O   0  0  0  0  0  0  0  0  0  0  0  0
   22.2954   -6.1787  -14.5144 C   0  0  2  0  0  0  0  0  0  0  0  0
   21.8581   -7.2167  -15.4237 N   0  0  0  0  0  0  0  0  0  0  0  0
   21.1306   -5.5702  -13.8225 C   0  0  0  0  0  0  0  0  0  0  0  0
   19.9582   -5.8372  -14.1895 O   0  0  0  0  0  0  0  0  0  0  0  0
   21.2717   -4.6929  -12.7565 O   0  0  0  0  0  0  0  0  0  0  0  0
  2  1  1  1
  2  3  1  0
  4  5  1  0
  4  2  1  0
  5  6  1  6
  7  8  2  0
  7  5  1  0
  9 10  1  0
 10 11  2  0
 12 10  1  0
 12 13  1  0
 14 13  1  1
 14 15  1  0
 15  7  1  0
 16 17  2  0
 16 14  1  0
 19 18  1  6
 20 19  1  0
 21 19  1  0
 21 22  1  6
 22 16  1  0
 23 21  1  0
 24 23  2  0
 25 23  1  0
M  END
$$$$
