LQT.pdb
     RDKit          3D

 25 24  0  0  1  0  0  0  0  0999 V2000
   17.9942  -13.4362  -15.3861 C   0  0  0  0  0  0  0  0  0  0  0  0
   18.6710  -13.3293  -16.7468 C   0  0  2  0  0  0  0  0  0  0  0  0
   19.1466  -14.6990  -17.1170 C   0  0  0  0  0  0  0  0  0  0  0  0
   19.7862  -12.3402  -16.6165 C   0  0  0  0  0  0  0  0  0  0  0  0
   19.2374  -11.0161  -16.1947 C   0  0  2  0  0  0  0  0  0  0  0  0
   18.0838  -10.6455  -16.9739 N   0  0  0  0  0  0  0  0  0  0  0  0
   20.2936   -9.9659  -16.2821 C   0  0  0  0  0  0  0  0  0  0  0  0
   21.3858  -10.0802  -15.6633 O   0  0  0  0  0  0  0  0  0  0  0  0
   23.8430   -7.2177  -19.2132 N   0  0  0  0  0  0  0  0  0  0  0  0
   23.2268   -8.3895  -19.7164 C   0  0  0  0  0  0  0  0  0  0  0  0
   23.9246   -9.2461  -20.3349 O   0  0  0  0  0  0  0  0  0  0  0  0
   21.7803   -8.6029  -19.5168 C   0  0  0  0  0  0  0  0  0  0  0  0
   21.1657   -7.4615  -18.7323 C   0  0  0  0  0  0  0  0  0  0  0  0
   21.1436   -7.8117  -17.2615 C   0  0  2  0  0  0  0  0  0  0  0  0
   20.0913   -8.8194  -17.0612 N   0  0  0  0  0  0  0  0  0  0  0  0
   20.8310   -6.5933  -16.4578 C   0  0  0  0  0  0  0  0  0  0  0  0
   19.9750   -5.7850  -16.8800 O   0  0  0  0  0  0  0  0  0  0  0  0
   19.2704   -6.2036  -13.3688 C   0  0  0  0  0  0  0  0  0  0  0  0
   20.6070   -5.5488  -13.0930 C   0  0  1  0  0  0  0  0  0  0  0  0
   21.5034   -6.4473  -12.4787 O   0  0  0  0  0  0  0  0  0  0  0  0
   21.1928   -5.1317  -14.4410 C   0  0  2  0  0  0  0  0  0  0  0  0
   21.4723   -6.3158  -15.2255 N   0  0  0  0  0  0  0  0  0  0  0  0
   22.4429   -4.3723  -14.1839 C   0  0  0  0  0  0  0  0  0  0  0  0
   22.4037   -3.2471  -13.6248 O   0  0  0  0  0  0  0  0  0  0  0  0
   23.6946   -4.8546  -14.5399 O   0  0  0  0  0  0  0  0  0  0  0  0
  2  1  1  1
  2  3  1  0
  4  5  1  0
  4  2  1  0
  5  6  1  6
  7  8  2  0
  7  5  1  0
  9 10  1  0
 10 11  2  0
 12 10  1  0
 12 13  1  0
 14 13  1  6
 14 15  1  0
 15  7  1  0
 16 17  2  0
 16 14  1  0
 19 18  1  6
 20 19  1  0
 21 19  1  0
 21 22  1  6
 22 16  1  0
 23 21  1  0
 24 23  2  0
 25 23  1  0
M  END
$$$$
