LQT.pdb
     RDKit          3D

 25 24  0  0  1  0  0  0  0  0999 V2000
   18.8644  -16.9197  -16.2749 C   0  0  0  0  0  0  0  0  0  0  0  0
   18.9412  -16.2525  -17.6424 C   0  0  2  0  0  0  0  0  0  0  0  0
   19.2943  -17.3135  -18.6369 C   0  0  0  0  0  0  0  0  0  0  0  0
   19.9696  -15.1691  -17.5557 C   0  0  0  0  0  0  0  0  0  0  0  0
   19.4806  -14.0824  -16.6543 C   0  0  2  0  0  0  0  0  0  0  0  0
   18.0450  -13.9671  -16.6900 N   0  0  0  0  0  0  0  0  0  0  0  0
   20.1239  -12.7844  -17.0113 C   0  0  0  0  0  0  0  0  0  0  0  0
   21.3775  -12.6683  -17.0737 O   0  0  0  0  0  0  0  0  0  0  0  0
   20.4580   -9.8226  -21.2961 N   0  0  0  0  0  0  0  0  0  0  0  0
   20.3967   -8.5851  -20.6096 C   0  0  0  0  0  0  0  0  0  0  0  0
   20.9046   -7.5522  -21.1371 O   0  0  0  0  0  0  0  0  0  0  0  0
   19.7431   -8.5090  -19.2887 C   0  0  0  0  0  0  0  0  0  0  0  0
   19.1879   -9.8578  -18.8784 C   0  0  0  0  0  0  0  0  0  0  0  0
   19.9320  -10.3636  -17.6631 C   0  0  2  0  0  0  0  0  0  0  0  0
   19.3403  -11.6565  -17.2871 N   0  0  0  0  0  0  0  0  0  0  0  0
   19.7774   -9.3948  -16.5381 C   0  0  0  0  0  0  0  0  0  0  0  0
   18.7202   -9.3973  -15.8696 O   0  0  0  0  0  0  0  0  0  0  0  0
   21.7673   -6.0849  -13.4941 C   0  0  0  0  0  0  0  0  0  0  0  0
   21.9869   -7.1534  -14.5436 C   0  0  1  0  0  0  0  0  0  0  0  0
   22.4957   -8.3383  -13.9732 O   0  0  0  0  0  0  0  0  0  0  0  0
   20.6257   -7.4645  -15.1637 C   0  0  2  0  0  0  0  0  0  0  0  0
   20.7906   -8.4656  -16.1963 N   0  0  0  0  0  0  0  0  0  0  0  0
   20.0853   -6.2074  -15.7410 C   0  0  0  0  0  0  0  0  0  0  0  0
   20.3821   -5.8630  -16.9130 O   0  0  0  0  0  0  0  0  0  0  0  0
   19.2414   -5.3640  -15.0321 O   0  0  0  0  0  0  0  0  0  0  0  0
  2  1  1  1
  2  3  1  0
  4  5  1  0
  4  2  1  0
  5  6  1  6
  7  8  2  0
  7  5  1  0
  9 10  1  0
 10 11  2  0
 12 10  1  0
 12 13  1  0
 14 13  1  6
 14 15  1  0
 15  7  1  0
 16 17  2  0
 16 14  1  0
 19 18  1  1
 20 19  1  0
 21 19  1  0
 21 22  1  6
 22 16  1  0
 23 21  1  0
 24 23  2  0
 25 23  1  0
M  END
$$$$
