LQT.pdb
     RDKit          3D

 25 24  0  0  1  0  0  0  0  0999 V2000
   14.8026  -10.3654  -16.8057 C   0  0  0  0  0  0  0  0  0  0  0  0
   14.7097  -11.6413  -15.9783 C   0  0  2  0  0  0  0  0  0  0  0  0
   13.2567  -11.9453  -15.7894 C   0  0  0  0  0  0  0  0  0  0  0  0
   15.4259  -11.3925  -14.6883 C   0  0  0  0  0  0  0  0  0  0  0  0
   16.8506  -11.0370  -14.9645 C   0  0  2  0  0  0  0  0  0  0  0  0
   17.6492  -12.2064  -15.2293 N   0  0  0  0  0  0  0  0  0  0  0  0
   17.4192  -10.2552  -13.8280 C   0  0  0  0  0  0  0  0  0  0  0  0
   17.7348  -10.8111  -12.7416 O   0  0  0  0  0  0  0  0  0  0  0  0
   21.3096   -5.8243  -14.6030 N   0  0  0  0  0  0  0  0  0  0  0  0
   21.5112   -7.2139  -14.4167 C   0  0  0  0  0  0  0  0  0  0  0  0
   22.6032   -7.7411  -14.7809 O   0  0  0  0  0  0  0  0  0  0  0  0
   20.4503   -8.0344  -13.8011 C   0  0  0  0  0  0  0  0  0  0  0  0
   19.2514   -7.1846  -13.4317 C   0  0  0  0  0  0  0  0  0  0  0  0
   18.1676   -8.0635  -12.8491 C   0  0  2  0  0  0  0  0  0  0  0  0
   17.6159   -8.8733  -13.9458 N   0  0  0  0  0  0  0  0  0  0  0  0
   17.0904   -7.2133  -12.2620 C   0  0  0  0  0  0  0  0  0  0  0  0
   16.1005   -6.9092  -12.9635 O   0  0  0  0  0  0  0  0  0  0  0  0
   15.3114   -4.8285   -8.2992 C   0  0  0  0  0  0  0  0  0  0  0  0
   16.4351   -5.6655   -8.8721 C   0  0  1  0  0  0  0  0  0  0  0  0
   16.5232   -6.9176   -8.2299 O   0  0  0  0  0  0  0  0  0  0  0  0
   16.1151   -5.9032  -10.3470 C   0  0  2  0  0  0  0  0  0  0  0  0
   17.1473   -6.7340  -10.9301 N   0  0  0  0  0  0  0  0  0  0  0  0
   16.0664   -4.5831  -11.0255 C   0  0  0  0  0  0  0  0  0  0  0  0
   17.1236   -4.0242  -11.4130 O   0  0  0  0  0  0  0  0  0  0  0  0
   14.8758   -3.9105  -11.2629 O   0  0  0  0  0  0  0  0  0  0  0  0
  2  1  1  6
  2  3  1  0
  4  5  1  0
  4  2  1  0
  5  6  1  1
  7  8  2  0
  7  5  1  0
  9 10  1  0
 10 11  2  0
 12 10  1  0
 12 13  1  0
 14 13  1  6
 14 15  1  0
 15  7  1  0
 16 17  2  0
 16 14  1  0
 19 18  1  1
 20 19  1  0
 21 19  1  0
 21 22  1  6
 22 16  1  0
 23 21  1  0
 24 23  2  0
 25 23  1  0
M  END
$$$$
