LQT.pdb
     RDKit          3D

 25 24  0  0  1  0  0  0  0  0999 V2000
   27.2831  -16.1546  -15.2613 C   0  0  0  0  0  0  0  0  0  0  0  0
   26.2931  -15.5319  -16.2377 C   0  0  2  0  0  0  0  0  0  0  0  0
   25.9439  -14.1745  -15.7133 C   0  0  0  0  0  0  0  0  0  0  0  0
   25.1116  -16.4460  -16.3227 C   0  0  0  0  0  0  0  0  0  0  0  0
   25.5516  -17.7942  -16.7932 C   0  0  2  0  0  0  0  0  0  0  0  0
   26.0302  -17.7538  -18.1514 N   0  0  0  0  0  0  0  0  0  0  0  0
   24.4402  -18.7798  -16.6537 C   0  0  0  0  0  0  0  0  0  0  0  0
   23.4580  -18.7778  -17.4438 O   0  0  0  0  0  0  0  0  0  0  0  0
   24.9605  -24.3721  -13.9261 N   0  0  0  0  0  0  0  0  0  0  0  0
   23.5662  -24.2942  -14.1630 C   0  0  0  0  0  0  0  0  0  0  0  0
   22.8246  -25.2735  -13.8563 O   0  0  0  0  0  0  0  0  0  0  0  0
   22.9898  -23.0757  -14.7637 C   0  0  0  0  0  0  0  0  0  0  0  0
   24.0425  -21.9975  -14.9221 C   0  0  0  0  0  0  0  0  0  0  0  0
   23.4035  -20.7424  -15.4723 C   0  0  2  0  0  0  0  0  0  0  0  0
   24.4652  -19.7372  -15.6314 N   0  0  0  0  0  0  0  0  0  0  0  0
   22.3752  -20.2388  -14.5148 C   0  0  0  0  0  0  0  0  0  0  0  0
   22.7281  -19.8852  -13.3682 O   0  0  0  0  0  0  0  0  0  0  0  0
   20.3224  -17.3134  -14.3133 C   0  0  0  0  0  0  0  0  0  0  0  0
   19.3237  -18.4407  -14.4654 C   0  0  1  0  0  0  0  0  0  0  0  0
   18.9915  -18.6550  -15.8188 O   0  0  0  0  0  0  0  0  0  0  0  0
   19.9863  -19.7075  -13.9266 C   0  0  2  0  0  0  0  0  0  0  0  0
   21.0040  -20.1456  -14.8584 N   0  0  0  0  0  0  0  0  0  0  0  0
   18.9368  -20.7476  -13.7774 C   0  0  0  0  0  0  0  0  0  0  0  0
   18.8992  -21.7340  -14.5558 O   0  0  0  0  0  0  0  0  0  0  0  0
   17.9622  -20.6870  -12.7912 O   0  0  0  0  0  0  0  0  0  0  0  0
  2  1  1  1
  2  3  1  0
  4  5  1  0
  4  2  1  0
  5  6  1  6
  7  8  2  0
  7  5  1  0
  9 10  1  0
 10 11  2  0
 12 10  1  0
 12 13  1  0
 14 13  1  1
 14 15  1  0
 15  7  1  0
 16 17  2  0
 16 14  1  0
 19 18  1  6
 20 19  1  0
 21 19  1  0
 21 22  1  6
 22 16  1  0
 23 21  1  0
 24 23  2  0
 25 23  1  0
M  END
$$$$
