LQT.pdb
     RDKit          3D

 25 24  0  0  1  0  0  0  0  0999 V2000
   16.1413  -13.1781  -18.3770 C   0  0  0  0  0  0  0  0  0  0  0  0
   15.9083  -13.5498  -16.9180 C   0  0  2  0  0  0  0  0  0  0  0  0
   14.4440  -13.8103  -16.7528 C   0  0  0  0  0  0  0  0  0  0  0  0
   16.3958  -12.4092  -16.0812 C   0  0  0  0  0  0  0  0  0  0  0  0
   17.8714  -12.2519  -16.2560 C   0  0  2  0  0  0  0  0  0  0  0  0
   18.5951  -13.3664  -15.6996 N   0  0  0  0  0  0  0  0  0  0  0  0
   18.3309  -10.9682  -15.6502 C   0  0  0  0  0  0  0  0  0  0  0  0
   18.2456  -10.7600  -14.4099 O   0  0  0  0  0  0  0  0  0  0  0  0
   23.4162   -8.1146  -17.2080 N   0  0  0  0  0  0  0  0  0  0  0  0
   22.8975   -7.2226  -16.2377 C   0  0  0  0  0  0  0  0  0  0  0  0
   23.6246   -6.2824  -15.8013 O   0  0  0  0  0  0  0  0  0  0  0  0
   21.5175   -7.3950  -15.7442 C   0  0  0  0  0  0  0  0  0  0  0  0
   20.8685   -8.6175  -16.3608 C   0  0  0  0  0  0  0  0  0  0  0  0
   19.4353   -8.7221  -15.8901 C   0  0  2  0  0  0  0  0  0  0  0  0
   18.8718   -9.9575  -16.4552 N   0  0  0  0  0  0  0  0  0  0  0  0
   18.6570   -7.5461  -16.3789 C   0  0  0  0  0  0  0  0  0  0  0  0
   18.4901   -7.3914  -17.6088 O   0  0  0  0  0  0  0  0  0  0  0  0
   15.1517   -6.3060  -15.5973 C   0  0  0  0  0  0  0  0  0  0  0  0
   16.1175   -5.2323  -15.1437 C   0  0  1  0  0  0  0  0  0  0  0  0
   16.4340   -5.3689  -13.7765 O   0  0  0  0  0  0  0  0  0  0  0  0
   17.4008   -5.4068  -15.9540 C   0  0  2  0  0  0  0  0  0  0  0  0
   18.0959   -6.5911  -15.4957 N   0  0  0  0  0  0  0  0  0  0  0  0
   18.2415   -4.1998  -15.7495 C   0  0  0  0  0  0  0  0  0  0  0  0
   19.3297   -4.2771  -15.1249 O   0  0  0  0  0  0  0  0  0  0  0  0
   17.8780   -2.9485  -16.2273 O   0  0  0  0  0  0  0  0  0  0  0  0
  2  1  1  6
  2  3  1  0
  4  5  1  0
  4  2  1  0
  5  6  1  1
  7  8  2  0
  7  5  1  0
  9 10  1  0
 10 11  2  0
 12 10  1  0
 12 13  1  0
 14 13  1  6
 14 15  1  0
 15  7  1  0
 16 17  2  0
 16 14  1  0
 19 18  1  6
 20 19  1  0
 21 19  1  0
 21 22  1  1
 22 16  1  0
 23 21  1  0
 24 23  2  0
 25 23  1  0
M  END
$$$$
