LQT.pdb
     RDKit          3D

 25 24  0  0  1  0  0  0  0  0999 V2000
   19.8551  -12.5908  -19.1530 C   0  0  0  0  0  0  0  0  0  0  0  0
   18.4298  -12.5802  -18.6149 C   0  0  2  0  0  0  0  0  0  0  0  0
   17.5096  -12.7106  -19.7878 C   0  0  0  0  0  0  0  0  0  0  0  0
   18.2426  -11.2982  -17.8665 C   0  0  0  0  0  0  0  0  0  0  0  0
   19.2629  -11.1966  -16.7797 C   0  0  2  0  0  0  0  0  0  0  0  0
   19.1371  -12.2719  -15.8293 N   0  0  0  0  0  0  0  0  0  0  0  0
   19.1629   -9.8737  -16.0971 C   0  0  0  0  0  0  0  0  0  0  0  0
   19.1441   -8.7968  -16.7520 O   0  0  0  0  0  0  0  0  0  0  0  0
   16.6697   -9.5390  -10.4978 N   0  0  0  0  0  0  0  0  0  0  0  0
   15.9839   -9.5708  -11.7367 C   0  0  0  0  0  0  0  0  0  0  0  0
   14.7659   -9.9149  -11.7680 O   0  0  0  0  0  0  0  0  0  0  0  0
   16.6921   -9.2036  -12.9783 C   0  0  0  0  0  0  0  0  0  0  0  0
   18.1411   -8.8614  -12.6966 C   0  0  0  0  0  0  0  0  0  0  0  0
   18.8455   -8.5331  -13.9937 C   0  0  2  0  0  0  0  0  0  0  0  0
   19.0872   -9.8001  -14.7003 N   0  0  0  0  0  0  0  0  0  0  0  0
   20.1478   -7.8634  -13.7047 C   0  0  0  0  0  0  0  0  0  0  0  0
   20.9807   -8.4373  -12.9688 O   0  0  0  0  0  0  0  0  0  0  0  0
   22.9247   -7.2131  -15.6813 C   0  0  0  0  0  0  0  0  0  0  0  0
   22.5303   -5.8113  -15.2681 C   0  0  1  0  0  0  0  0  0  0  0  0
   21.7063   -5.2019  -16.2365 O   0  0  0  0  0  0  0  0  0  0  0  0
   21.7371   -5.9296  -13.9678 C   0  0  2  0  0  0  0  0  0  0  0  0
   20.4786   -6.5927  -14.2364 N   0  0  0  0  0  0  0  0  0  0  0  0
   21.5008   -4.5590  -13.4470 C   0  0  0  0  0  0  0  0  0  0  0  0
   22.4510   -3.8785  -12.9841 O   0  0  0  0  0  0  0  0  0  0  0  0
   20.2446   -3.9691  -13.4439 O   0  0  0  0  0  0  0  0  0  0  0  0
  2  1  1  6
  2  3  1  0
  4  5  1  0
  4  2  1  0
  5  6  1  1
  7  8  2  0
  7  5  1  0
  9 10  1  0
 10 11  2  0
 12 10  1  0
 12 13  1  0
 14 13  1  1
 14 15  1  0
 15  7  1  0
 16 17  2  0
 16 14  1  0
 19 18  1  6
 20 19  1  0
 21 19  1  0
 21 22  1  6
 22 16  1  0
 23 21  1  0
 24 23  2  0
 25 23  1  0
M  END
$$$$
