LQT.pdb
     RDKit          3D

 25 24  0  0  1  0  0  0  0  0999 V2000
   32.5404  -22.5874  -10.4058 C   0  0  0  0  0  0  0  0  0  0  0  0
   31.8276  -21.5879   -9.5037 C   0  0  2  0  0  0  0  0  0  0  0  0
   32.4281  -21.7123   -8.1386 C   0  0  0  0  0  0  0  0  0  0  0  0
   30.3688  -21.9195   -9.5315 C   0  0  0  0  0  0  0  0  0  0  0  0
   29.8345  -21.7226  -10.9129 C   0  0  2  0  0  0  0  0  0  0  0  0
   30.2628  -20.4674  -11.4754 N   0  0  0  0  0  0  0  0  0  0  0  0
   28.3457  -21.8204  -10.9115 C   0  0  0  0  0  0  0  0  0  0  0  0
   27.7512  -22.7770  -10.3454 O   0  0  0  0  0  0  0  0  0  0  0  0
   24.0665  -21.0500   -7.9363 N   0  0  0  0  0  0  0  0  0  0  0  0
   24.1596  -20.2523   -9.1030 C   0  0  0  0  0  0  0  0  0  0  0  0
   23.1116  -19.9812   -9.7597 O   0  0  0  0  0  0  0  0  0  0  0  0
   25.4734  -19.7446   -9.5433 C   0  0  0  0  0  0  0  0  0  0  0  0
   25.5398  -19.6465  -11.0539 C   0  0  0  0  0  0  0  0  0  0  0  0
   26.1038  -20.9300  -11.6207 C   0  0  2  0  0  0  0  0  0  0  0  0
   27.5699  -20.8415  -11.5456 N   0  0  0  0  0  0  0  0  0  0  0  0
   25.6824  -21.0802  -13.0447 C   0  0  0  0  0  0  0  0  0  0  0  0
   25.9596  -20.1762  -13.8633 O   0  0  0  0  0  0  0  0  0  0  0  0
   23.7161  -23.9428  -16.5672 C   0  0  0  0  0  0  0  0  0  0  0  0
   24.1689  -23.8332  -15.1269 C   0  0  1  0  0  0  0  0  0  0  0  0
   25.3032  -24.6339  -14.8815 O   0  0  0  0  0  0  0  0  0  0  0  0
   24.5486  -22.3738  -14.8821 C   0  0  2  0  0  0  0  0  0  0  0  0
   24.9748  -22.2169  -13.5075 N   0  0  0  0  0  0  0  0  0  0  0  0
   23.3530  -21.5357  -15.1537 C   0  0  0  0  0  0  0  0  0  0  0  0
   22.5060  -21.3188  -14.2505 O   0  0  0  0  0  0  0  0  0  0  0  0
   23.1125  -20.9597  -16.3932 O   0  0  0  0  0  0  0  0  0  0  0  0
  2  1  1  6
  2  3  1  0
  4  5  1  0
  4  2  1  0
  5  6  1  1
  7  8  2  0
  7  5  1  0
  9 10  1  0
 10 11  2  0
 12 10  1  0
 12 13  1  0
 14 13  1  6
 14 15  1  0
 15  7  1  0
 16 17  2  0
 16 14  1  0
 19 18  1  6
 20 19  1  0
 21 19  1  0
 21 22  1  1
 22 16  1  0
 23 21  1  0
 24 23  2  0
 25 23  1  0
M  END
$$$$
