LQT.pdb
     RDKit          3D

 25 24  0  0  1  0  0  0  0  0999 V2000
   28.5785  -16.8209  -18.0116 C   0  0  0  0  0  0  0  0  0  0  0  0
   28.9656  -18.2057  -18.5153 C   0  0  2  0  0  0  0  0  0  0  0  0
   29.4968  -18.0423  -19.9047 C   0  0  0  0  0  0  0  0  0  0  0  0
   27.7406  -19.0628  -18.4563 C   0  0  0  0  0  0  0  0  0  0  0  0
   27.4612  -19.4441  -17.0389 C   0  0  2  0  0  0  0  0  0  0  0  0
   28.6307  -19.9817  -16.3919 N   0  0  0  0  0  0  0  0  0  0  0  0
   26.3298  -20.4148  -16.9768 C   0  0  0  0  0  0  0  0  0  0  0  0
   25.2666  -20.2260  -17.6270 O   0  0  0  0  0  0  0  0  0  0  0  0
   27.3763  -26.3089  -16.0734 N   0  0  0  0  0  0  0  0  0  0  0  0
   27.4085  -25.5618  -17.2764 C   0  0  0  0  0  0  0  0  0  0  0  0
   28.0407  -26.0140  -18.2759 O   0  0  0  0  0  0  0  0  0  0  0  0
   26.7070  -24.2659  -17.3557 C   0  0  0  0  0  0  0  0  0  0  0  0
   26.0251  -23.9357  -16.0435 C   0  0  0  0  0  0  0  0  0  0  0  0
   25.3616  -22.5807  -16.1443 C   0  0  2  0  0  0  0  0  0  0  0  0
   26.4266  -21.5674  -16.1866 N   0  0  0  0  0  0  0  0  0  0  0  0
   24.4985  -22.3519  -14.9482 C   0  0  0  0  0  0  0  0  0  0  0  0
   24.9796  -22.5187  -13.8057 O   0  0  0  0  0  0  0  0  0  0  0  0
   22.9140  -19.3152  -13.9682 C   0  0  0  0  0  0  0  0  0  0  0  0
   22.9153  -20.5493  -13.0916 C   0  0  1  0  0  0  0  0  0  0  0  0
   22.1282  -20.3613  -11.9370 O   0  0  0  0  0  0  0  0  0  0  0  0
   22.3046  -21.6858  -13.9099 C   0  0  2  0  0  0  0  0  0  0  0  0
   23.1446  -21.9498  -15.0589 N   0  0  0  0  0  0  0  0  0  0  0  0
   20.9489  -21.2627  -14.3442 C   0  0  0  0  0  0  0  0  0  0  0  0
   20.7075  -21.0381  -15.5573 O   0  0  0  0  0  0  0  0  0  0  0  0
   19.8986  -21.0965  -13.4524 O   0  0  0  0  0  0  0  0  0  0  0  0
  2  1  1  6
  2  3  1  0
  4  5  1  0
  4  2  1  0
  5  6  1  6
  7  8  2  0
  7  5  1  0
  9 10  1  0
 10 11  2  0
 12 10  1  0
 12 13  1  0
 14 13  1  1
 14 15  1  0
 15  7  1  0
 16 17  2  0
 16 14  1  0
 19 18  1  6
 20 19  1  0
 21 19  1  0
 21 22  1  6
 22 16  1  0
 23 21  1  0
 24 23  2  0
 25 23  1  0
M  END
$$$$
