IWQ.pdb
     RDKit          3D

 32 33  0  0  1  0  0  0  0  0999 V2000
   30.0135  -20.4610  -19.9645 C   0  0  0  0  0  0  0  0  0  0  0  0
   28.9910  -19.5920  -19.2626 C   0  0  0  0  0  0  0  0  0  0  0  0
   28.3836  -20.3754  -18.1542 C   0  0  2  0  0  0  0  0  0  0  0  0
   27.8965  -21.7005  -18.6727 C   0  0  0  0  0  0  0  0  0  0  0  0
   27.3235  -19.6342  -17.3814 C   0  0  2  0  0  0  0  0  0  0  0  0
   27.8991  -18.3533  -17.0084 N   0  0  0  0  0  0  0  0  0  0  0  0
   26.7950  -20.3711  -16.2428 C   0  0  0  0  0  0  0  0  0  0  0  0
   26.2674  -21.4909  -16.3963 O   0  0  0  0  0  0  0  0  0  0  0  0
   26.8692  -19.8320  -14.9390 N   0  0  0  0  0  0  0  0  0  0  0  0
   26.2972  -20.4775  -13.7766 C   0  0  1  0  0  0  0  0  0  0  0  0
   26.9400  -19.9750  -12.5163 C   0  0  0  0  0  0  0  0  0  0  0  0
   26.4049  -20.6735  -11.3203 C   0  0  0  0  0  0  0  0  0  0  0  0
   25.8002  -21.9086  -11.2235 C   0  0  0  0  0  0  0  0  0  0  0  0
   25.4665  -22.1515   -9.9372 N   0  0  0  0  0  0  0  0  0  0  0  0
   25.8317  -21.1102   -9.1654 C   0  0  0  0  0  0  0  0  0  0  0  0
   25.7067  -20.8929   -7.8115 C   0  0  0  0  0  0  0  0  0  0  0  0
   26.1890  -19.7049   -7.3130 C   0  0  0  0  0  0  0  0  0  0  0  0
   26.7823  -18.7578   -8.1523 C   0  0  0  0  0  0  0  0  0  0  0  0
   26.8872  -19.0132   -9.4946 C   0  0  0  0  0  0  0  0  0  0  0  0
   26.4194  -20.1805  -10.0196 C   0  0  0  0  0  0  0  0  0  0  0  0
   24.8298  -20.1653  -13.6973 C   0  0  0  0  0  0  0  0  0  0  0  0
   24.4243  -18.9804  -13.7944 O   0  0  0  0  0  0  0  0  0  0  0  0
   20.5154  -24.4606  -14.6976 N   0  0  0  0  0  0  0  0  0  0  0  0
   19.6179  -23.3529  -14.4640 C   0  0  0  0  0  0  0  0  0  0  0  0
   18.3955  -23.5613  -14.6529 O   0  0  0  0  0  0  0  0  0  0  0  0
   20.2215  -22.0810  -14.0236 C   0  0  0  0  0  0  0  0  0  0  0  0
   21.7060  -22.1872  -13.9261 C   0  0  0  0  0  0  0  0  0  0  0  0
   22.4187  -20.9363  -13.4987 C   0  0  2  0  0  0  0  0  0  0  0  0
   23.8668  -21.1730  -13.5131 N   0  0  0  0  0  0  0  0  0  0  0  0
   21.9787  -20.4901  -12.1552 C   0  0  0  0  0  0  0  0  0  0  0  0
   22.5217  -21.0248  -11.0109 O   0  0  0  0  0  0  0  0  0  0  0  0
   21.0986  -19.6125  -12.0710 O   0  0  0  0  0  0  0  0  0  0  0  0
  2  1  1  0
  3  4  1  6
  3  2  1  0
  5  3  1  0
  5  6  1  1
  7  5  1  0
  7  8  2  0
  9  7  1  0
 10  9  1  0
 10 11  1  1
 12 11  1  0
 13 12  2  0
 14 13  1  0
 15 14  1  0
 15 20  2  0
 16 15  1  0
 17 16  2  0
 17 18  1  0
 18 19  2  0
 19 20  1  0
 20 12  1  0
 21 10  1  0
 22 21  2  0
 23 24  1  0
 24 25  2  0
 24 26  1  0
 26 27  1  0
 28 29  1  0
 28 27  1  1
 29 21  1  0
 30 28  1  0
 31 30  1  0
 32 30  2  0
M  END
$$$$
