IWQ.pdb
     RDKit          3D

 32 33  0  0  1  0  0  0  0  0999 V2000
   26.7719  -26.0472  -19.2625 C   0  0  0  0  0  0  0  0  0  0  0  0
   27.2957  -24.6664  -18.9277 C   0  0  0  0  0  0  0  0  0  0  0  0
   26.9039  -24.3360  -17.5319 C   0  0  2  0  0  0  0  0  0  0  0  0
   25.4354  -24.5963  -17.3385 C   0  0  0  0  0  0  0  0  0  0  0  0
   27.3077  -22.9542  -17.0866 C   0  0  2  0  0  0  0  0  0  0  0  0
   28.7572  -22.8972  -17.1689 N   0  0  0  0  0  0  0  0  0  0  0  0
   26.7994  -22.5815  -15.7746 C   0  0  0  0  0  0  0  0  0  0  0  0
   27.0761  -23.2611  -14.7660 O   0  0  0  0  0  0  0  0  0  0  0  0
   25.9812  -21.4405  -15.6171 N   0  0  0  0  0  0  0  0  0  0  0  0
   25.4592  -21.0052  -14.3391 C   0  0  1  0  0  0  0  0  0  0  0  0
   26.0491  -19.6824  -13.9440 C   0  0  0  0  0  0  0  0  0  0  0  0
   27.3368  -19.8571  -13.2256 C   0  0  0  0  0  0  0  0  0  0  0  0
   28.6251  -19.6605  -13.6748 C   0  0  0  0  0  0  0  0  0  0  0  0
   29.4994  -19.9395  -12.6834 N   0  0  0  0  0  0  0  0  0  0  0  0
   28.8313  -20.3193  -11.5777 C   0  0  0  0  0  0  0  0  0  0  0  0
   29.2758  -20.6969  -10.3305 C   0  0  0  0  0  0  0  0  0  0  0  0
   28.3259  -21.0337   -9.3940 C   0  0  0  0  0  0  0  0  0  0  0  0
   26.9631  -20.9927   -9.7015 C   0  0  0  0  0  0  0  0  0  0  0  0
   26.5625  -20.6112  -10.9553 C   0  0  0  0  0  0  0  0  0  0  0  0
   27.4786  -20.2714  -11.9052 C   0  0  0  0  0  0  0  0  0  0  0  0
   23.9701  -20.8314  -14.4354 C   0  0  0  0  0  0  0  0  0  0  0  0
   23.4526  -20.3264  -15.4626 O   0  0  0  0  0  0  0  0  0  0  0  0
   19.9682  -19.8329   -9.8259 N   0  0  0  0  0  0  0  0  0  0  0  0
   19.1699  -20.7776  -10.5724 C   0  0  0  0  0  0  0  0  0  0  0  0
   17.9916  -20.9599  -10.1828 O   0  0  0  0  0  0  0  0  0  0  0  0
   19.8132  -21.4384  -11.7236 C   0  0  0  0  0  0  0  0  0  0  0  0
   21.2297  -20.9992  -11.8824 C   0  0  0  0  0  0  0  0  0  0  0  0
   21.6997  -20.8262  -13.2983 C   0  0  2  0  0  0  0  0  0  0  0  0
   23.1098  -21.2211  -13.3938 N   0  0  0  0  0  0  0  0  0  0  0  0
   21.5182  -19.4314  -13.7664 C   0  0  0  0  0  0  0  0  0  0  0  0
   22.4071  -18.4404  -13.4227 O   0  0  0  0  0  0  0  0  0  0  0  0
   20.5375  -19.1608  -14.4853 O   0  0  0  0  0  0  0  0  0  0  0  0
  2  1  1  0
  3  4  1  6
  3  2  1  0
  5  3  1  0
  5  6  1  1
  7  5  1  0
  7  8  2  0
  9  7  1  0
 10  9  1  0
 10 11  1  6
 12 11  1  0
 13 12  2  0
 14 13  1  0
 15 14  1  0
 15 20  2  0
 16 15  1  0
 17 16  2  0
 17 18  1  0
 18 19  2  0
 19 20  1  0
 20 12  1  0
 21 10  1  0
 22 21  2  0
 23 24  1  0
 24 25  2  0
 24 26  1  0
 26 27  1  0
 28 29  1  0
 28 27  1  1
 29 21  1  0
 30 28  1  0
 31 30  1  0
 32 30  2  0
M  END
$$$$
