IWQ.pdb
     RDKit          3D

 32 33  0  0  1  0  0  0  0  0999 V2000
   26.3633  -17.8290  -15.7781 C   0  0  0  0  0  0  0  0  0  0  0  0
   26.5891  -19.2495  -15.3044 C   0  0  0  0  0  0  0  0  0  0  0  0
   27.9610  -19.3486  -14.7394 C   0  0  2  0  0  0  0  0  0  0  0  0
   28.9693  -18.9166  -15.7682 C   0  0  0  0  0  0  0  0  0  0  0  0
   28.2878  -20.6923  -14.1410 C   0  0  2  0  0  0  0  0  0  0  0  0
   28.1645  -21.6663  -15.2120 N   0  0  0  0  0  0  0  0  0  0  0  0
   27.4895  -21.0312  -12.9720 C   0  0  0  0  0  0  0  0  0  0  0  0
   26.3656  -21.5576  -13.0972 O   0  0  0  0  0  0  0  0  0  0  0  0
   27.9723  -20.7703  -11.6701 N   0  0  0  0  0  0  0  0  0  0  0  0
   27.1886  -20.9847  -10.4722 C   0  0  1  0  0  0  0  0  0  0  0  0
   27.9397  -20.5304   -9.2543 C   0  0  0  0  0  0  0  0  0  0  0  0
   27.0769  -20.5549   -8.0461 C   0  0  0  0  0  0  0  0  0  0  0  0
   25.7628  -20.9504   -7.9149 C   0  0  0  0  0  0  0  0  0  0  0  0
   25.3714  -20.8069   -6.6300 N   0  0  0  0  0  0  0  0  0  0  0  0
   26.3897  -20.3244   -5.8927 C   0  0  0  0  0  0  0  0  0  0  0  0
   26.4775  -20.0161   -4.5536 C   0  0  0  0  0  0  0  0  0  0  0  0
   27.6801  -19.5330   -4.0919 C   0  0  0  0  0  0  0  0  0  0  0  0
   28.7680  -19.3633   -4.9528 C   0  0  0  0  0  0  0  0  0  0  0  0
   28.6387  -19.6823   -6.2792 C   0  0  0  0  0  0  0  0  0  0  0  0
   27.4609  -20.1632   -6.7677 C   0  0  0  0  0  0  0  0  0  0  0  0
   25.9187  -20.1859  -10.5507 C   0  0  0  0  0  0  0  0  0  0  0  0
   25.9551  -18.9303  -10.5565 O   0  0  0  0  0  0  0  0  0  0  0  0
   22.2818  -22.0985  -14.5283 N   0  0  0  0  0  0  0  0  0  0  0  0
   21.5213  -20.8989  -14.2640 C   0  0  0  0  0  0  0  0  0  0  0  0
   20.4594  -20.7438  -14.9133 O   0  0  0  0  0  0  0  0  0  0  0  0
   22.0627  -19.9693  -13.2548 C   0  0  0  0  0  0  0  0  0  0  0  0
   23.2713  -20.5333  -12.5871 C   0  0  0  0  0  0  0  0  0  0  0  0
   23.4500  -20.1565  -11.1444 C   0  0  2  0  0  0  0  0  0  0  0  0
   24.6576  -20.8039  -10.6191 N   0  0  0  0  0  0  0  0  0  0  0  0
   22.2665  -20.5288  -10.3331 C   0  0  0  0  0  0  0  0  0  0  0  0
   21.1637  -19.7111  -10.2603 O   0  0  0  0  0  0  0  0  0  0  0  0
   22.2804  -21.6062   -9.7079 O   0  0  0  0  0  0  0  0  0  0  0  0
  2  1  1  0
  3  4  1  6
  3  2  1  0
  5  3  1  0
  5  6  1  6
  7  5  1  0
  7  8  2  0
  9  7  1  0
 10  9  1  0
 10 11  1  1
 12 11  1  0
 13 12  2  0
 14 13  1  0
 15 14  1  0
 15 20  2  0
 16 15  1  0
 17 16  2  0
 17 18  1  0
 18 19  2  0
 19 20  1  0
 20 12  1  0
 21 10  1  0
 22 21  2  0
 23 24  1  0
 24 25  2  0
 24 26  1  0
 26 27  1  0
 28 29  1  0
 28 27  1  6
 29 21  1  0
 30 28  1  0
 31 30  1  0
 32 30  2  0
M  END
$$$$
