IWQ.pdb
     RDKit          3D

 32 33  0  0  1  0  0  0  0  0999 V2000
   23.0498  -10.3804    9.1153 C   0  0  0  0  0  0  0  0  0  0  0  0
   22.0249  -10.5652    8.0159 C   0  0  0  0  0  0  0  0  0  0  0  0
   21.1975  -11.7589    8.3345 C   0  0  2  0  0  0  0  0  0  0  0  0
   22.0855  -12.9005    8.7464 C   0  0  0  0  0  0  0  0  0  0  0  0
   20.2269  -12.1463    7.2489 C   0  0  2  0  0  0  0  0  0  0  0  0
   19.3337  -11.0152    7.0657 N   0  0  0  0  0  0  0  0  0  0  0  0
   19.5188  -13.3924    7.5033 C   0  0  0  0  0  0  0  0  0  0  0  0
   18.6719  -13.4705    8.4157 O   0  0  0  0  0  0  0  0  0  0  0  0
   19.7768  -14.5398    6.7206 N   0  0  0  0  0  0  0  0  0  0  0  0
   19.0928  -15.8017    6.9076 C   0  0  1  0  0  0  0  0  0  0  0  0
   18.8149  -16.4593    5.5869 C   0  0  0  0  0  0  0  0  0  0  0  0
   18.0433  -15.5638    4.6884 C   0  0  0  0  0  0  0  0  0  0  0  0
   17.4219  -14.3654    4.9674 C   0  0  0  0  0  0  0  0  0  0  0  0
   16.8329  -13.8879    3.8494 N   0  0  0  0  0  0  0  0  0  0  0  0
   17.0425  -14.7354    2.8242 C   0  0  0  0  0  0  0  0  0  0  0  0
   16.6477  -14.6847    1.5061 C   0  0  0  0  0  0  0  0  0  0  0  0
   17.0285  -15.7247    0.6899 C   0  0  0  0  0  0  0  0  0  0  0  0
   17.7868  -16.7896    1.1841 C   0  0  0  0  0  0  0  0  0  0  0  0
   18.1592  -16.8018    2.5028 C   0  0  0  0  0  0  0  0  0  0  0  0
   17.7981  -15.7867    3.3373 C   0  0  0  0  0  0  0  0  0  0  0  0
   19.9598  -16.7315    7.7079 C   0  0  0  0  0  0  0  0  0  0  0  0
   21.1756  -16.8713    7.4245 O   0  0  0  0  0  0  0  0  0  0  0  0
   23.5616  -16.5489   10.9244 N   0  0  0  0  0  0  0  0  0  0  0  0
   23.2242  -17.6823   11.7544 C   0  0  0  0  0  0  0  0  0  0  0  0
   24.1108  -18.0974   12.5385 O   0  0  0  0  0  0  0  0  0  0  0  0
   21.8688  -18.2448   11.6041 C   0  0  0  0  0  0  0  0  0  0  0  0
   21.0783  -17.4966   10.5843 C   0  0  0  0  0  0  0  0  0  0  0  0
   20.2640  -18.3419    9.6475 C   0  0  2  0  0  0  0  0  0  0  0  0
   19.4513  -17.4717    8.7898 N   0  0  0  0  0  0  0  0  0  0  0  0
   19.4018  -19.2966   10.3843 C   0  0  0  0  0  0  0  0  0  0  0  0
   18.0593  -19.0582   10.5608 O   0  0  0  0  0  0  0  0  0  0  0  0
   19.9126  -20.3332   10.8494 O   0  0  0  0  0  0  0  0  0  0  0  0
  2  1  1  0
  3  4  1  6
  3  2  1  0
  5  3  1  0
  5  6  1  1
  7  5  1  0
  7  8  2  0
  9  7  1  0
 10  9  1  0
 10 11  1  6
 12 11  1  0
 13 12  2  0
 14 13  1  0
 15 14  1  0
 15 20  2  0
 16 15  1  0
 17 16  2  0
 17 18  1  0
 18 19  2  0
 19 20  1  0
 20 12  1  0
 21 10  1  0
 22 21  2  0
 23 24  1  0
 24 25  2  0
 24 26  1  0
 26 27  1  0
 28 29  1  0
 28 27  1  1
 29 21  1  0
 30 28  1  0
 31 30  1  0
 32 30  2  0
M  END
$$$$
