IWQ.pdb
     RDKit          3D

 32 33  0  0  1  0  0  0  0  0999 V2000
   28.3366  -19.6195   -4.0951 C   0  0  0  0  0  0  0  0  0  0  0  0
   28.2494  -20.6471   -5.2040 C   0  0  0  0  0  0  0  0  0  0  0  0
   27.9307  -19.9464   -6.4761 C   0  0  2  0  0  0  0  0  0  0  0  0
   28.1313  -18.4655   -6.3074 C   0  0  0  0  0  0  0  0  0  0  0  0
   26.5769  -20.2833   -7.0456 C   0  0  2  0  0  0  0  0  0  0  0  0
   26.4541  -21.7303   -6.9992 N   0  0  0  0  0  0  0  0  0  0  0  0
   26.3391  -19.7366   -8.3735 C   0  0  0  0  0  0  0  0  0  0  0  0
   25.7998  -18.6212   -8.5175 O   0  0  0  0  0  0  0  0  0  0  0  0
   26.7151  -20.4596   -9.5276 N   0  0  0  0  0  0  0  0  0  0  0  0
   26.4232  -20.0172  -10.8746 C   0  0  1  0  0  0  0  0  0  0  0  0
   27.5966  -20.2548  -11.7806 C   0  0  0  0  0  0  0  0  0  0  0  0
   27.3811  -19.6436  -13.1166 C   0  0  0  0  0  0  0  0  0  0  0  0
   26.9981  -18.3600  -13.4421 C   0  0  0  0  0  0  0  0  0  0  0  0
   26.9238  -18.2349  -14.7851 N   0  0  0  0  0  0  0  0  0  0  0  0
   27.2473  -19.4029  -15.3720 C   0  0  0  0  0  0  0  0  0  0  0  0
   27.3165  -19.7667  -16.6981 C   0  0  0  0  0  0  0  0  0  0  0  0
   27.6863  -21.0611  -16.9820 C   0  0  0  0  0  0  0  0  0  0  0  0
   27.9793  -21.9685  -15.9601 C   0  0  0  0  0  0  0  0  0  0  0  0
   27.8983  -21.5660  -14.6527 C   0  0  0  0  0  0  0  0  0  0  0  0
   27.5351  -20.2907  -14.3384 C   0  0  0  0  0  0  0  0  0  0  0  0
   25.2596  -20.7952  -11.4199 C   0  0  0  0  0  0  0  0  0  0  0  0
   25.1819  -22.0359  -11.2394 O   0  0  0  0  0  0  0  0  0  0  0  0
   20.6645  -17.5272  -12.7263 N   0  0  0  0  0  0  0  0  0  0  0  0
   20.5089  -18.3739  -13.8865 C   0  0  0  0  0  0  0  0  0  0  0  0
   19.8763  -17.8965  -14.8587 O   0  0  0  0  0  0  0  0  0  0  0  0
   21.1094  -19.7197  -13.8210 C   0  0  0  0  0  0  0  0  0  0  0  0
   21.8506  -19.9241  -12.5430 C   0  0  0  0  0  0  0  0  0  0  0  0
   23.0203  -20.8633  -12.6151 C   0  0  2  0  0  0  0  0  0  0  0  0
   24.2269  -20.1738  -12.1440 N   0  0  0  0  0  0  0  0  0  0  0  0
   23.2207  -21.3798  -13.9901 C   0  0  0  0  0  0  0  0  0  0  0  0
   24.1800  -20.8498  -14.8202 O   0  0  0  0  0  0  0  0  0  0  0  0
   22.5008  -22.3132  -14.3931 O   0  0  0  0  0  0  0  0  0  0  0  0
  2  1  1  0
  3  4  1  1
  3  2  1  0
  5  3  1  0
  5  6  1  6
  7  5  1  0
  7  8  2  0
  9  7  1  0
 10  9  1  0
 10 11  1  6
 12 11  1  0
 13 12  2  0
 14 13  1  0
 15 14  1  0
 15 20  2  0
 16 15  1  0
 17 16  2  0
 17 18  1  0
 18 19  2  0
 19 20  1  0
 20 12  1  0
 21 10  1  0
 22 21  2  0
 23 24  1  0
 24 25  2  0
 24 26  1  0
 26 27  1  0
 28 29  1  0
 28 27  1  6
 29 21  1  0
 30 28  1  0
 31 30  1  0
 32 30  2  0
M  END
$$$$
