IWQ.pdb
     RDKit          3D

 32 33  0  0  1  0  0  0  0  0999 V2000
   30.6632  -21.3865  -10.1583 C   0  0  0  0  0  0  0  0  0  0  0  0
   29.3111  -22.0677  -10.1884 C   0  0  0  0  0  0  0  0  0  0  0  0
   28.2616  -21.0309  -10.3740 C   0  0  2  0  0  0  0  0  0  0  0  0
   28.3832  -19.9836   -9.3016 C   0  0  0  0  0  0  0  0  0  0  0  0
   26.8629  -21.5798  -10.4874 C   0  0  2  0  0  0  0  0  0  0  0  0
   26.9830  -22.9114  -11.0560 N   0  0  0  0  0  0  0  0  0  0  0  0
   25.9490  -20.7259  -11.2318 C   0  0  0  0  0  0  0  0  0  0  0  0
   25.6007  -19.6166  -10.7801 O   0  0  0  0  0  0  0  0  0  0  0  0
   25.4374  -21.1370  -12.4829 N   0  0  0  0  0  0  0  0  0  0  0  0
   24.5652  -20.3158  -13.2954 C   0  0  1  0  0  0  0  0  0  0  0  0
   24.8589  -20.5070  -14.7553 C   0  0  0  0  0  0  0  0  0  0  0  0
   26.1507  -19.8803  -15.1338 C   0  0  0  0  0  0  0  0  0  0  0  0
   27.3881  -20.4611  -15.3125 C   0  0  0  0  0  0  0  0  0  0  0  0
   28.2889  -19.5147  -15.6556 N   0  0  0  0  0  0  0  0  0  0  0  0
   27.6885  -18.3107  -15.7122 C   0  0  0  0  0  0  0  0  0  0  0  0
   28.1815  -17.0612  -16.0145 C   0  0  0  0  0  0  0  0  0  0  0  0
   27.2976  -16.0073  -15.9871 C   0  0  0  0  0  0  0  0  0  0  0  0
   25.9518  -16.2023  -15.6642 C   0  0  0  0  0  0  0  0  0  0  0  0
   25.5015  -17.4625  -15.3695 C   0  0  0  0  0  0  0  0  0  0  0  0
   26.3516  -18.5274  -15.3880 C   0  0  0  0  0  0  0  0  0  0  0  0
   23.1356  -20.7133  -13.0608 C   0  0  0  0  0  0  0  0  0  0  0  0
   22.8503  -21.8816  -12.6981 O   0  0  0  0  0  0  0  0  0  0  0  0
   18.4319  -16.9231  -13.4605 N   0  0  0  0  0  0  0  0  0  0  0  0
   17.7068  -17.9650  -12.7708 C   0  0  0  0  0  0  0  0  0  0  0  0
   16.4604  -17.8415  -12.7028 O   0  0  0  0  0  0  0  0  0  0  0  0
   18.4984  -19.0774  -12.2124 C   0  0  0  0  0  0  0  0  0  0  0  0
   19.9531  -18.9058  -12.4935 C   0  0  0  0  0  0  0  0  0  0  0  0
   20.6652  -20.1296  -12.9943 C   0  0  2  0  0  0  0  0  0  0  0  0
   22.0759  -19.8060  -13.2363 N   0  0  0  0  0  0  0  0  0  0  0  0
   20.0355  -20.6608  -14.2266 C   0  0  0  0  0  0  0  0  0  0  0  0
   20.1701  -20.0160  -15.4334 O   0  0  0  0  0  0  0  0  0  0  0  0
   19.3727  -21.7133  -14.1580 O   0  0  0  0  0  0  0  0  0  0  0  0
  2  1  1  0
  3  4  1  1
  3  2  1  0
  5  3  1  0
  5  6  1  6
  7  5  1  0
  7  8  2  0
  9  7  1  0
 10  9  1  0
 10 11  1  6
 12 11  1  0
 13 12  2  0
 14 13  1  0
 15 14  1  0
 15 20  2  0
 16 15  1  0
 17 16  2  0
 17 18  1  0
 18 19  2  0
 19 20  1  0
 20 12  1  0
 21 10  1  0
 22 21  2  0
 23 24  1  0
 24 25  2  0
 24 26  1  0
 26 27  1  0
 28 29  1  0
 28 27  1  6
 29 21  1  0
 30 28  1  0
 31 30  1  0
 32 30  2  0
M  END
$$$$
