IWQ.pdb
     RDKit          3D

 32 33  0  0  1  0  0  0  0  0999 V2000
   30.5468  -23.1995  -18.9635 C   0  0  0  0  0  0  0  0  0  0  0  0
   29.2684  -22.4039  -18.8024 C   0  0  0  0  0  0  0  0  0  0  0  0
   28.5834  -22.8532  -17.5614 C   0  0  2  0  0  0  0  0  0  0  0  0
   28.4450  -24.3507  -17.5681 C   0  0  0  0  0  0  0  0  0  0  0  0
   27.2762  -22.1549  -17.2891 C   0  0  2  0  0  0  0  0  0  0  0  0
   27.4393  -20.7796  -17.7282 N   0  0  0  0  0  0  0  0  0  0  0  0
   26.8238  -22.2596  -15.9096 C   0  0  0  0  0  0  0  0  0  0  0  0
   26.5802  -23.3718  -15.4003 O   0  0  0  0  0  0  0  0  0  0  0  0
   26.6515  -21.1017  -15.1186 N   0  0  0  0  0  0  0  0  0  0  0  0
   26.1614  -21.1331  -13.7570 C   0  0  1  0  0  0  0  0  0  0  0  0
   26.6785  -19.9596  -12.9762 C   0  0  0  0  0  0  0  0  0  0  0  0
   26.4044  -20.1123  -11.5249 C   0  0  0  0  0  0  0  0  0  0  0  0
   25.2334  -19.9065  -10.8273 C   0  0  0  0  0  0  0  0  0  0  0  0
   25.4342  -20.1647   -9.5165 N   0  0  0  0  0  0  0  0  0  0  0  0
   26.7117  -20.5393   -9.3145 C   0  0  0  0  0  0  0  0  0  0  0  0
   27.3841  -20.8993   -8.1681 C   0  0  0  0  0  0  0  0  0  0  0  0
   28.7119  -21.2374   -8.2918 C   0  0  0  0  0  0  0  0  0  0  0  0
   29.3496  -21.2149   -9.5353 C   0  0  0  0  0  0  0  0  0  0  0  0
   28.6440  -20.8506  -10.6521 C   0  0  0  0  0  0  0  0  0  0  0  0
   27.3275  -20.5102  -10.5632 C   0  0  0  0  0  0  0  0  0  0  0  0
   24.6611  -21.0555  -13.7592 C   0  0  0  0  0  0  0  0  0  0  0  0
   24.0614  -20.3379  -14.5978 O   0  0  0  0  0  0  0  0  0  0  0  0
   21.1347  -23.0684   -9.0635 N   0  0  0  0  0  0  0  0  0  0  0  0
   20.0620  -22.7926   -9.9910 C   0  0  0  0  0  0  0  0  0  0  0  0
   18.8908  -22.9401   -9.5667 O   0  0  0  0  0  0  0  0  0  0  0  0
   20.4429  -22.3618  -11.3493 C   0  0  0  0  0  0  0  0  0  0  0  0
   21.9228  -22.2366  -11.4864 C   0  0  0  0  0  0  0  0  0  0  0  0
   22.4135  -21.7896  -12.8336 C   0  0  2  0  0  0  0  0  0  0  0  0
   23.8808  -21.7725  -12.8352 N   0  0  0  0  0  0  0  0  0  0  0  0
   21.8782  -20.4549  -13.1935 C   0  0  0  0  0  0  0  0  0  0  0  0
   20.8105  -20.3197  -14.0491 O   0  0  0  0  0  0  0  0  0  0  0  0
   22.4129  -19.4408  -12.7061 O   0  0  0  0  0  0  0  0  0  0  0  0
  2  1  1  0
  3  4  1  6
  3  2  1  0
  5  3  1  0
  5  6  1  1
  7  5  1  0
  7  8  2  0
  9  7  1  0
 10  9  1  0
 10 11  1  1
 12 11  1  0
 13 12  2  0
 14 13  1  0
 15 14  1  0
 15 20  2  0
 16 15  1  0
 17 16  2  0
 17 18  1  0
 18 19  2  0
 19 20  1  0
 20 12  1  0
 21 10  1  0
 22 21  2  0
 23 24  1  0
 24 25  2  0
 24 26  1  0
 26 27  1  0
 28 29  1  0
 28 27  1  1
 29 21  1  0
 30 28  1  0
 31 30  1  0
 32 30  2  0
M  END
$$$$
