IWQ.pdb
     RDKit          3D

 32 33  0  0  1  0  0  0  0  0999 V2000
   27.6266  -17.2902  -16.6643 C   0  0  0  0  0  0  0  0  0  0  0  0
   28.4679  -18.0294  -15.6450 C   0  0  0  0  0  0  0  0  0  0  0  0
   27.5714  -18.8773  -14.8153 C   0  0  2  0  0  0  0  0  0  0  0  0
   26.4531  -18.0423  -14.2551 C   0  0  0  0  0  0  0  0  0  0  0  0
   28.2828  -19.6749  -13.7531 C   0  0  2  0  0  0  0  0  0  0  0  0
   29.3401  -20.4119  -14.4239 N   0  0  0  0  0  0  0  0  0  0  0  0
   27.4063  -20.5306  -12.9669 C   0  0  0  0  0  0  0  0  0  0  0  0
   27.0333  -21.6372  -13.4052 O   0  0  0  0  0  0  0  0  0  0  0  0
   26.9597  -20.1243  -11.6896 N   0  0  0  0  0  0  0  0  0  0  0  0
   26.1167  -20.9419  -10.8434 C   0  0  1  0  0  0  0  0  0  0  0  0
   26.1608  -20.4612   -9.4217 C   0  0  0  0  0  0  0  0  0  0  0  0
   27.4951  -20.6933   -8.8132 C   0  0  0  0  0  0  0  0  0  0  0  0
   28.5591  -21.4303   -9.2878 C   0  0  0  0  0  0  0  0  0  0  0  0
   29.5819  -21.3703   -8.4074 N   0  0  0  0  0  0  0  0  0  0  0  0
   29.2327  -20.6112   -7.3514 C   0  0  0  0  0  0  0  0  0  0  0  0
   29.9255  -20.2592   -6.2148 C   0  0  0  0  0  0  0  0  0  0  0  0
   29.2818  -19.4539   -5.3039 C   0  0  0  0  0  0  0  0  0  0  0  0
   27.9747  -19.0125   -5.5279 C   0  0  0  0  0  0  0  0  0  0  0  0
   27.3203  -19.3858   -6.6726 C   0  0  0  0  0  0  0  0  0  0  0  0
   27.9302  -20.1826   -7.5946 C   0  0  0  0  0  0  0  0  0  0  0  0
   24.6925  -20.8518  -11.3126 C   0  0  0  0  0  0  0  0  0  0  0  0
   24.0810  -19.7549  -11.2860 O   0  0  0  0  0  0  0  0  0  0  0  0
   22.2326  -25.5821  -14.5045 N   0  0  0  0  0  0  0  0  0  0  0  0
   21.1298  -24.6630  -14.6664 C   0  0  0  0  0  0  0  0  0  0  0  0
   20.1378  -25.0731  -15.3153 O   0  0  0  0  0  0  0  0  0  0  0  0
   21.2717  -23.3292  -14.0528 C   0  0  0  0  0  0  0  0  0  0  0  0
   22.5356  -23.2219  -13.2683 C   0  0  0  0  0  0  0  0  0  0  0  0
   22.7606  -21.9071  -12.5782 C   0  0  2  0  0  0  0  0  0  0  0  0
   23.9980  -21.9762  -11.7924 N   0  0  0  0  0  0  0  0  0  0  0  0
   21.6145  -21.5433  -11.7112 C   0  0  0  0  0  0  0  0  0  0  0  0
   20.4605  -21.0122  -12.2371 O   0  0  0  0  0  0  0  0  0  0  0  0
   21.7078  -21.7259  -10.4825 O   0  0  0  0  0  0  0  0  0  0  0  0
  2  1  1  0
  3  4  1  1
  3  2  1  0
  5  3  1  0
  5  6  1  6
  7  5  1  0
  7  8  2  0
  9  7  1  0
 10  9  1  0
 10 11  1  1
 12 11  1  0
 13 12  2  0
 14 13  1  0
 15 14  1  0
 15 20  2  0
 16 15  1  0
 17 16  2  0
 17 18  1  0
 18 19  2  0
 19 20  1  0
 20 12  1  0
 21 10  1  0
 22 21  2  0
 23 24  1  0
 24 25  2  0
 24 26  1  0
 26 27  1  0
 28 29  1  0
 28 27  1  1
 29 21  1  0
 30 28  1  0
 31 30  1  0
 32 30  2  0
M  END
$$$$
