IWQ.pdb
     RDKit          3D

 32 33  0  0  1  0  0  0  0  0999 V2000
   20.8322  -18.4878  -16.4212 C   0  0  0  0  0  0  0  0  0  0  0  0
   20.2656  -17.1545  -16.8623 C   0  0  0  0  0  0  0  0  0  0  0  0
   21.2672  -16.0943  -16.5727 C   0  0  2  0  0  0  0  0  0  0  0  0
   21.7383  -16.2120  -15.1494 C   0  0  0  0  0  0  0  0  0  0  0  0
   20.8086  -14.7002  -16.9145 C   0  0  2  0  0  0  0  0  0  0  0  0
   20.3755  -14.7325  -18.3010 N   0  0  0  0  0  0  0  0  0  0  0  0
   21.8020  -13.6685  -16.6549 C   0  0  0  0  0  0  0  0  0  0  0  0
   22.2556  -13.4936  -15.5062 O   0  0  0  0  0  0  0  0  0  0  0  0
   22.2733  -12.8435  -17.7005 N   0  0  0  0  0  0  0  0  0  0  0  0
   23.2504  -11.7932  -17.5073 C   0  0  1  0  0  0  0  0  0  0  0  0
   24.3819  -11.9304  -18.4846 C   0  0  0  0  0  0  0  0  0  0  0  0
   25.2560  -13.0809  -18.1422 C   0  0  0  0  0  0  0  0  0  0  0  0
   25.2886  -14.3486  -18.6827 C   0  0  0  0  0  0  0  0  0  0  0  0
   26.2450  -15.0794  -18.0694 N   0  0  0  0  0  0  0  0  0  0  0  0
   26.8571  -14.3349  -17.1290 C   0  0  0  0  0  0  0  0  0  0  0  0
   27.8794  -14.6321  -16.2558 C   0  0  0  0  0  0  0  0  0  0  0  0
   28.2919  -13.6368  -15.4003 C   0  0  0  0  0  0  0  0  0  0  0  0
   27.6933  -12.3740  -15.4204 C   0  0  0  0  0  0  0  0  0  0  0  0
   26.6785  -12.1191  -16.3054 C   0  0  0  0  0  0  0  0  0  0  0  0
   26.2469  -13.0836  -17.1659 C   0  0  0  0  0  0  0  0  0  0  0  0
   22.6060  -10.4561  -17.7387 C   0  0  0  0  0  0  0  0  0  0  0  0
   21.7754  -10.3013  -18.6683 O   0  0  0  0  0  0  0  0  0  0  0  0
   19.3422   -4.9270  -14.4406 N   0  0  0  0  0  0  0  0  0  0  0  0
   20.1400   -6.1272  -14.5413 C   0  0  0  0  0  0  0  0  0  0  0  0
   20.1769   -6.8722  -13.5328 O   0  0  0  0  0  0  0  0  0  0  0  0
   20.8353   -6.3660  -15.8201 C   0  0  0  0  0  0  0  0  0  0  0  0
   21.5787   -7.6590  -15.8030 C   0  0  0  0  0  0  0  0  0  0  0  0
   22.2710   -8.0256  -17.0843 C   0  0  2  0  0  0  0  0  0  0  0  0
   22.9038   -9.3411  -16.9355 N   0  0  0  0  0  0  0  0  0  0  0  0
   23.2756   -7.0068  -17.4721 C   0  0  0  0  0  0  0  0  0  0  0  0
   22.9044   -5.8336  -18.0853 O   0  0  0  0  0  0  0  0  0  0  0  0
   24.4784   -7.2267  -17.2335 O   0  0  0  0  0  0  0  0  0  0  0  0
  2  1  1  0
  3  4  1  1
  3  2  1  0
  5  3  1  0
  5  6  1  6
  7  5  1  0
  7  8  2  0
  9  7  1  0
 10  9  1  0
 10 11  1  6
 12 11  1  0
 13 12  2  0
 14 13  1  0
 15 14  1  0
 15 20  2  0
 16 15  1  0
 17 16  2  0
 17 18  1  0
 18 19  2  0
 19 20  1  0
 20 12  1  0
 21 10  1  0
 22 21  2  0
 23 24  1  0
 24 25  2  0
 24 26  1  0
 26 27  1  0
 28 29  1  0
 28 27  1  1
 29 21  1  0
 30 28  1  0
 31 30  1  0
 32 30  2  0
M  END
$$$$
