IWQ.pdb
     RDKit          3D

 32 33  0  0  1  0  0  0  0  0999 V2000
   28.2377  -20.9243  -17.3635 C   0  0  0  0  0  0  0  0  0  0  0  0
   29.0287  -20.6911  -16.0934 C   0  0  0  0  0  0  0  0  0  0  0  0
   28.2795  -21.2817  -14.9528 C   0  0  2  0  0  0  0  0  0  0  0  0
   28.2181  -22.7769  -15.1018 C   0  0  0  0  0  0  0  0  0  0  0  0
   26.9224  -20.6695  -14.7208 C   0  0  2  0  0  0  0  0  0  0  0  0
   27.1147  -19.2297  -14.6908 N   0  0  0  0  0  0  0  0  0  0  0  0
   26.2377  -21.1746  -13.5398 C   0  0  0  0  0  0  0  0  0  0  0  0
   25.8127  -22.3466  -13.5007 O   0  0  0  0  0  0  0  0  0  0  0  0
   26.0408  -20.3463  -12.4124 N   0  0  0  0  0  0  0  0  0  0  0  0
   25.2712  -20.7476  -11.2540 C   0  0  1  0  0  0  0  0  0  0  0  0
   25.6243  -19.9072  -10.0610 C   0  0  0  0  0  0  0  0  0  0  0  0
   26.9051  -20.3453   -9.4507 C   0  0  0  0  0  0  0  0  0  0  0  0
   27.8912  -21.1569   -9.9695 C   0  0  0  0  0  0  0  0  0  0  0  0
   28.8881  -21.2934   -9.0680 N   0  0  0  0  0  0  0  0  0  0  0  0
   28.5973  -20.5936   -7.9549 C   0  0  0  0  0  0  0  0  0  0  0  0
   29.2923  -20.4251   -6.7783 C   0  0  0  0  0  0  0  0  0  0  0  0
   28.7186  -19.6327   -5.8111 C   0  0  0  0  0  0  0  0  0  0  0  0
   27.4776  -19.0243   -6.0192 C   0  0  0  0  0  0  0  0  0  0  0  0
   26.8185  -19.2177   -7.2049 C   0  0  0  0  0  0  0  0  0  0  0  0
   27.3600  -19.9968   -8.1831 C   0  0  0  0  0  0  0  0  0  0  0  0
   23.8070  -20.5566  -11.5305 C   0  0  0  0  0  0  0  0  0  0  0  0
   23.4091  -19.5774  -12.2092 O   0  0  0  0  0  0  0  0  0  0  0  0
   19.4864  -24.7487   -9.8764 N   0  0  0  0  0  0  0  0  0  0  0  0
   18.5843  -23.6790  -10.2357 C   0  0  0  0  0  0  0  0  0  0  0  0
   17.3581  -23.8924  -10.0805 O   0  0  0  0  0  0  0  0  0  0  0  0
   19.1885  -22.4354  -10.7498 C   0  0  0  0  0  0  0  0  0  0  0  0
   20.6756  -22.4657  -10.6393 C   0  0  0  0  0  0  0  0  0  0  0  0
   21.3974  -21.3202  -11.2890 C   0  0  2  0  0  0  0  0  0  0  0  0
   22.8384  -21.4537  -11.0466 N   0  0  0  0  0  0  0  0  0  0  0  0
   20.9059  -20.0133  -10.7909 C   0  0  0  0  0  0  0  0  0  0  0  0
   19.8847  -19.3450  -11.4240 O   0  0  0  0  0  0  0  0  0  0  0  0
   21.4348  -19.5181   -9.7776 O   0  0  0  0  0  0  0  0  0  0  0  0
  2  1  1  0
  3  4  1  6
  3  2  1  0
  5  3  1  0
  5  6  1  1
  7  5  1  0
  7  8  2  0
  9  7  1  0
 10  9  1  0
 10 11  1  1
 12 11  1  0
 13 12  2  0
 14 13  1  0
 15 14  1  0
 15 20  2  0
 16 15  1  0
 17 16  2  0
 17 18  1  0
 18 19  2  0
 19 20  1  0
 20 12  1  0
 21 10  1  0
 22 21  2  0
 23 24  1  0
 24 25  2  0
 24 26  1  0
 26 27  1  0
 28 29  1  0
 28 27  1  1
 29 21  1  0
 30 28  1  0
 31 30  1  0
 32 30  2  0
M  END
$$$$
