CHV.pdb
     RDKit          3D

 24 24  0  0  1  0  0  0  0  0999 V2000
    7.6339  -16.5071   18.8163 N   0  0  0  0  0  0  0  0  0  0  0  0
    8.1759  -15.4749   19.6623 C   0  0  1  0  0  0  0  0  0  0  0  0
    7.4930  -14.1878   19.3391 C   0  0  0  0  0  0  0  0  0  0  0  0
    8.1806  -12.8968   20.4209 S   0  0  0  0  0  0  0  0  0  0  0  0
    8.1603  -15.8590   21.0644 C   0  0  0  0  0  0  0  0  0  0  0  0
    7.1197  -16.3873   21.5328 O   0  0  0  0  0  0  0  0  0  0  0  0
    9.2515  -15.6779   21.9565 N   0  0  0  0  0  0  0  0  0  0  0  0
    9.1865  -16.1742   23.3367 C   0  0  1  0  0  0  0  0  0  0  0  0
   10.2605  -17.2033   23.4944 C   0  0  0  0  0  0  0  0  0  0  0  0
    9.9891  -18.4798   22.7993 C   0  0  0  0  0  0  0  0  0  0  0  0
    9.3526  -19.5334   23.4476 C   0  0  0  0  0  0  0  0  0  0  0  0
    9.2517  -20.5432   22.5604 N   0  0  0  0  0  0  0  0  0  0  0  0
    9.8009  -20.1477   21.3978 C   0  0  0  0  0  0  0  0  0  0  0  0
   10.2437  -18.8966   21.5555 N   0  0  0  0  0  0  0  0  0  0  0  0
    9.3635  -14.9981   24.2530 C   0  0  0  0  0  0  0  0  0  0  0  0
   10.2997  -14.1808   24.1644 O   0  0  0  0  0  0  0  0  0  0  0  0
    6.2045  -13.7710   26.7776 C   0  0  0  0  0  0  0  0  0  0  0  0
    7.3650  -12.9072   26.4026 C   0  0  2  0  0  0  0  0  0  0  0  0
    7.0874  -12.1543   25.1223 C   0  0  0  0  0  0  0  0  0  0  0  0
    8.6065  -13.7581   26.2975 C   0  0  2  0  0  0  0  0  0  0  0  0
    8.4056  -14.7799   25.3067 N   0  0  0  0  0  0  0  0  0  0  0  0
    8.9198  -14.3754   27.6240 C   0  0  0  0  0  0  0  0  0  0  0  0
    8.6751  -15.5892   27.8204 O   0  0  0  0  0  0  0  0  0  0  0  0
    9.4783  -13.6483   28.6604 O   0  0  0  0  0  0  0  0  0  0  0  0
  2  1  1  6
  2  5  1  0
  3  2  1  0
  4  3  1  0
  5  6  2  0
  7  5  1  0
  7  8  1  0
  9 10  1  0
  8  9  1  6
 10 14  1  0
 11 12  1  0
 11 10  2  0
 12 13  1  0
 13 14  2  0
 15  8  1  0
 15 21  1  0
 16 15  2  0
 18 19  1  6
 18 17  1  0
 20 21  1  6
 20 18  1  0
 22 20  1  0
 23 22  2  0
 24 22  1  0
M  END
$$$$
