CHV.pdb
     RDKit          3D

 24 24  0  0  1  0  0  0  0  0999 V2000
    4.9826  -19.1025   20.1428 N   0  0  0  0  0  0  0  0  0  0  0  0
    4.8300  -17.7481   20.6089 C   0  0  1  0  0  0  0  0  0  0  0  0
    3.6978  -17.7043   21.5803 C   0  0  0  0  0  0  0  0  0  0  0  0
    4.1361  -18.7467   23.0054 S   0  0  0  0  0  0  0  0  0  0  0  0
    6.0868  -17.1932   21.0841 C   0  0  0  0  0  0  0  0  0  0  0  0
    7.0905  -17.9477   21.1540 O   0  0  0  0  0  0  0  0  0  0  0  0
    6.2658  -15.8404   21.4810 N   0  0  0  0  0  0  0  0  0  0  0  0
    7.5769  -15.3535   21.9275 C   0  0  1  0  0  0  0  0  0  0  0  0
    7.6980  -13.9277   21.4918 C   0  0  0  0  0  0  0  0  0  0  0  0
    8.0435  -13.7530   20.0648 C   0  0  0  0  0  0  0  0  0  0  0  0
    7.3039  -12.9106   19.2411 C   0  0  0  0  0  0  0  0  0  0  0  0
    7.8601  -12.9651   18.0144 N   0  0  0  0  0  0  0  0  0  0  0  0
    8.9087  -13.8067   18.0573 C   0  0  0  0  0  0  0  0  0  0  0  0
    9.0091  -14.2771   19.3042 N   0  0  0  0  0  0  0  0  0  0  0  0
    7.6407  -15.5176   23.4185 C   0  0  0  0  0  0  0  0  0  0  0  0
    6.8892  -14.9263   24.2171 O   0  0  0  0  0  0  0  0  0  0  0  0
    6.7731  -18.1278   25.2634 C   0  0  0  0  0  0  0  0  0  0  0  0
    8.1870  -18.0043   25.7312 C   0  0  2  0  0  0  0  0  0  0  0  0
    8.2975  -18.3113   27.2066 C   0  0  0  0  0  0  0  0  0  0  0  0
    8.7021  -16.6246   25.4031 C   0  0  2  0  0  0  0  0  0  0  0  0
    8.6223  -16.4072   23.9845 N   0  0  0  0  0  0  0  0  0  0  0  0
   10.1154  -16.4791   25.8723 C   0  0  0  0  0  0  0  0  0  0  0  0
   11.0551  -16.5226   25.0435 O   0  0  0  0  0  0  0  0  0  0  0  0
   10.4326  -16.2953   27.2066 O   0  0  0  0  0  0  0  0  0  0  0  0
  2  1  1  1
  2  5  1  0
  3  2  1  0
  4  3  1  0
  5  6  2  0
  7  5  1  0
  7  8  1  0
  9 10  1  0
  8  9  1  1
 10 14  1  0
 11 12  1  0
 11 10  2  0
 12 13  1  0
 13 14  2  0
 15  8  1  0
 15 21  1  0
 16 15  2  0
 18 19  1  1
 18 17  1  0
 20 21  1  6
 20 18  1  0
 22 20  1  0
 23 22  2  0
 24 22  1  0
M  END
$$$$
