CHV.pdb
     RDKit          3D

 24 24  0  0  1  0  0  0  0  0999 V2000
   13.4838  -14.8036   20.4758 N   0  0  0  0  0  0  0  0  0  0  0  0
   12.4753  -15.6600   21.0454 C   0  0  1  0  0  0  0  0  0  0  0  0
   13.1394  -16.6312   21.9636 C   0  0  0  0  0  0  0  0  0  0  0  0
   14.2008  -15.6934   23.1054 S   0  0  0  0  0  0  0  0  0  0  0  0
   11.3801  -14.8982   21.6230 C   0  0  0  0  0  0  0  0  0  0  0  0
   11.6072  -13.7300   22.0296 O   0  0  0  0  0  0  0  0  0  0  0  0
   10.0524  -15.3851   21.7634 N   0  0  0  0  0  0  0  0  0  0  0  0
    8.9880  -14.5272   22.2988 C   0  0  1  0  0  0  0  0  0  0  0  0
    7.7415  -14.8246   21.5274 C   0  0  0  0  0  0  0  0  0  0  0  0
    7.7235  -14.2663   20.1584 C   0  0  0  0  0  0  0  0  0  0  0  0
    8.7906  -13.5198   19.6693 C   0  0  0  0  0  0  0  0  0  0  0  0
    8.4777  -13.1571   18.4093 N   0  0  0  0  0  0  0  0  0  0  0  0
    7.2630  -13.6523   18.1107 C   0  0  0  0  0  0  0  0  0  0  0  0
    6.8171  -14.3219   19.1780 N   0  0  0  0  0  0  0  0  0  0  0  0
    8.8552  -14.8262   23.7641 C   0  0  0  0  0  0  0  0  0  0  0  0
    9.3542  -15.8235   24.3195 O   0  0  0  0  0  0  0  0  0  0  0  0
    5.9383  -12.7831   26.0496 C   0  0  0  0  0  0  0  0  0  0  0  0
    7.2941  -12.9637   26.6519 C   0  0  2  0  0  0  0  0  0  0  0  0
    8.1183  -11.7046   26.5162 C   0  0  0  0  0  0  0  0  0  0  0  0
    7.9701  -14.1508   26.0116 C   0  0  2  0  0  0  0  0  0  0  0  0
    8.1099  -13.9198   24.5998 N   0  0  0  0  0  0  0  0  0  0  0  0
    7.1710  -15.3916   26.2583 C   0  0  0  0  0  0  0  0  0  0  0  0
    6.3570  -15.7914   25.3927 O   0  0  0  0  0  0  0  0  0  0  0  0
    7.2963  -16.1281   27.4230 O   0  0  0  0  0  0  0  0  0  0  0  0
  2  1  1  1
  2  5  1  0
  3  2  1  0
  4  3  1  0
  5  6  2  0
  7  5  1  0
  7  8  1  0
  9 10  1  0
  8  9  1  6
 10 14  1  0
 11 12  1  0
 11 10  2  0
 12 13  1  0
 13 14  2  0
 15  8  1  0
 15 21  1  0
 16 15  2  0
 18 19  1  6
 18 17  1  0
 20 21  1  6
 20 18  1  0
 22 20  1  0
 23 22  2  0
 24 22  1  0
M  END
$$$$
