CHV.pdb
     RDKit          3D

 24 24  0  0  1  0  0  0  0  0999 V2000
    7.3348  -15.9356   18.5891 N   0  0  0  0  0  0  0  0  0  0  0  0
    8.0473  -15.0803   19.5032 C   0  0  1  0  0  0  0  0  0  0  0  0
    7.5607  -13.6810   19.3225 C   0  0  0  0  0  0  0  0  0  0  0  0
    8.4747  -12.6121   20.4764 S   0  0  0  0  0  0  0  0  0  0  0  0
    8.0068  -15.5881   20.8648 C   0  0  0  0  0  0  0  0  0  0  0  0
    6.9083  -15.9923   21.3246 O   0  0  0  0  0  0  0  0  0  0  0  0
    9.1348  -15.6620   21.7259 N   0  0  0  0  0  0  0  0  0  0  0  0
    9.0101  -16.2001   23.0862 C   0  0  1  0  0  0  0  0  0  0  0  0
   10.0339  -17.2802   23.2369 C   0  0  0  0  0  0  0  0  0  0  0  0
    9.6203  -18.5926   22.6960 C   0  0  0  0  0  0  0  0  0  0  0  0
    8.3021  -18.8371   22.3246 C   0  0  0  0  0  0  0  0  0  0  0  0
    8.2445  -20.1069   21.8758 N   0  0  0  0  0  0  0  0  0  0  0  0
    9.4742  -20.6461   21.9587 C   0  0  0  0  0  0  0  0  0  0  0  0
   10.2981  -19.7190   22.4568 N   0  0  0  0  0  0  0  0  0  0  0  0
    9.2123  -15.0636   24.0464 C   0  0  0  0  0  0  0  0  0  0  0  0
   10.2300  -14.3454   24.0712 O   0  0  0  0  0  0  0  0  0  0  0  0
    6.5051  -12.5361   25.0688 C   0  0  0  0  0  0  0  0  0  0  0  0
    7.0718  -13.0929   26.3346 C   0  0  2  0  0  0  0  0  0  0  0  0
    7.2291  -12.0117   27.3783 C   0  0  0  0  0  0  0  0  0  0  0  0
    8.3807  -13.7807   26.0347 C   0  0  2  0  0  0  0  0  0  0  0  0
    8.1810  -14.7658   25.0072 N   0  0  0  0  0  0  0  0  0  0  0  0
    8.9183  -14.4243   27.2739 C   0  0  0  0  0  0  0  0  0  0  0  0
    8.5506  -15.5817   27.5852 O   0  0  0  0  0  0  0  0  0  0  0  0
    9.8203  -13.7827   28.1043 O   0  0  0  0  0  0  0  0  0  0  0  0
  2  1  1  6
  2  5  1  0
  3  2  1  0
  4  3  1  0
  5  6  2  0
  7  5  1  0
  7  8  1  0
  9 10  1  0
  8  9  1  1
 10 14  1  0
 11 12  1  0
 11 10  2  0
 12 13  1  0
 13 14  2  0
 15  8  1  0
 15 21  1  0
 16 15  2  0
 18 19  1  1
 18 17  1  0
 20 21  1  6
 20 18  1  0
 22 20  1  0
 23 22  2  0
 24 22  1  0
M  END
$$$$
