CHV.pdb
     RDKit          3D

 24 24  0  0  1  0  0  0  0  0999 V2000
    8.1353  -15.5553   18.0636 N   0  0  0  0  0  0  0  0  0  0  0  0
    8.9340  -15.1500   19.1918 C   0  0  1  0  0  0  0  0  0  0  0  0
    9.2710  -13.7040   19.0408 C   0  0  0  0  0  0  0  0  0  0  0  0
    7.7549  -12.7386   19.3222 S   0  0  0  0  0  0  0  0  0  0  0  0
    8.3174  -15.5224   20.4546 C   0  0  0  0  0  0  0  0  0  0  0  0
    7.0703  -15.6796   20.4929 O   0  0  0  0  0  0  0  0  0  0  0  0
    9.0323  -15.7246   21.6660 N   0  0  0  0  0  0  0  0  0  0  0  0
    8.3431  -16.1766   22.8810 C   0  0  1  0  0  0  0  0  0  0  0  0
    8.7711  -17.5860   23.1414 C   0  0  0  0  0  0  0  0  0  0  0  0
    8.0940  -18.5948   22.2989 C   0  0  0  0  0  0  0  0  0  0  0  0
    6.7165  -18.7795   22.3607 C   0  0  0  0  0  0  0  0  0  0  0  0
    6.4067  -19.7565   21.4851 N   0  0  0  0  0  0  0  0  0  0  0  0
    7.5397  -20.1746   20.8923 C   0  0  0  0  0  0  0  0  0  0  0  0
    8.5541  -19.4634   21.3937 N   0  0  0  0  0  0  0  0  0  0  0  0
    8.7141  -15.2372   23.9919 C   0  0  0  0  0  0  0  0  0  0  0  0
    9.8799  -14.8708   24.2340 O   0  0  0  0  0  0  0  0  0  0  0  0
    6.1694  -12.3597   25.1672 C   0  0  0  0  0  0  0  0  0  0  0  0
    6.7296  -13.0893   26.3450 C   0  0  2  0  0  0  0  0  0  0  0  0
    6.9863  -12.1435   27.4951 C   0  0  0  0  0  0  0  0  0  0  0  0
    7.9811  -13.8219   25.9285 C   0  0  2  0  0  0  0  0  0  0  0  0
    7.6765  -14.7141   24.8434 N   0  0  0  0  0  0  0  0  0  0  0  0
    8.5390  -14.5856   27.0880 C   0  0  0  0  0  0  0  0  0  0  0  0
    8.1508  -15.7574   27.3076 O   0  0  0  0  0  0  0  0  0  0  0  0
    9.4820  -14.0417   27.9421 O   0  0  0  0  0  0  0  0  0  0  0  0
  2  1  1  6
  2  5  1  0
  3  2  1  0
  4  3  1  0
  5  6  2  0
  7  5  1  0
  7  8  1  0
  9 10  1  0
  8  9  1  1
 10 14  1  0
 11 12  1  0
 11 10  2  0
 12 13  1  0
 13 14  2  0
 15  8  1  0
 15 21  1  0
 16 15  2  0
 18 19  1  1
 18 17  1  0
 20 21  1  6
 20 18  1  0
 22 20  1  0
 23 22  2  0
 24 22  1  0
M  END
$$$$
