CHV.pdb
     RDKit          3D

 24 24  0  0  1  0  0  0  0  0999 V2000
    7.6621  -14.7153   18.2655 N   0  0  0  0  0  0  0  0  0  0  0  0
    8.3475  -14.3102   19.4659 C   0  0  1  0  0  0  0  0  0  0  0  0
    8.3758  -12.8189   19.5171 C   0  0  0  0  0  0  0  0  0  0  0  0
    9.7466  -12.2440   18.4683 S   0  0  0  0  0  0  0  0  0  0  0  0
    7.8105  -14.9688   20.6455 C   0  0  0  0  0  0  0  0  0  0  0  0
    6.5633  -14.9992   20.8033 O   0  0  0  0  0  0  0  0  0  0  0  0
    8.6045  -15.5894   21.6474 N   0  0  0  0  0  0  0  0  0  0  0  0
    7.9927  -16.1207   22.8717 C   0  0  1  0  0  0  0  0  0  0  0  0
    8.4368  -17.5418   23.0149 C   0  0  0  0  0  0  0  0  0  0  0  0
    8.0077  -18.1913   24.2720 C   0  0  0  0  0  0  0  0  0  0  0  0
    7.1855  -17.5327   25.1805 C   0  0  0  0  0  0  0  0  0  0  0  0
    6.9752  -18.3764   26.2106 N   0  0  0  0  0  0  0  0  0  0  0  0
    7.6360  -19.5225   25.9666 C   0  0  0  0  0  0  0  0  0  0  0  0
    8.2572  -19.3977   24.7897 N   0  0  0  0  0  0  0  0  0  0  0  0
    8.4318  -15.2520   24.0149 C   0  0  0  0  0  0  0  0  0  0  0  0
    9.6115  -14.9028   24.2112 O   0  0  0  0  0  0  0  0  0  0  0  0
    6.1084  -12.3384   25.1740 C   0  0  0  0  0  0  0  0  0  0  0  0
    6.6112  -13.0416   26.3931 C   0  0  2  0  0  0  0  0  0  0  0  0
    6.9371  -12.0556   27.4906 C   0  0  0  0  0  0  0  0  0  0  0  0
    7.8045  -13.8880   26.0240 C   0  0  2  0  0  0  0  0  0  0  0  0
    7.4477  -14.7809   24.9557 N   0  0  0  0  0  0  0  0  0  0  0  0
    8.2719  -14.6636   27.2151 C   0  0  0  0  0  0  0  0  0  0  0  0
    7.8346  -15.8213   27.4162 O   0  0  0  0  0  0  0  0  0  0  0  0
    9.1829  -14.1461   28.1190 O   0  0  0  0  0  0  0  0  0  0  0  0
  2  1  1  6
  2  5  1  0
  3  2  1  0
  4  3  1  0
  5  6  2  0
  7  5  1  0
  7  8  1  0
  9 10  1  0
  8  9  1  1
 10 14  1  0
 11 12  1  0
 11 10  2  0
 12 13  1  0
 13 14  2  0
 15  8  1  0
 15 21  1  0
 16 15  2  0
 18 19  1  1
 18 17  1  0
 20 21  1  6
 20 18  1  0
 22 20  1  0
 23 22  2  0
 24 22  1  0
M  END
$$$$
