CHV.pdb
     RDKit          3D

 24 24  0  0  1  0  0  0  0  0999 V2000
    7.5480  -16.1270   18.2968 N   0  0  0  0  0  0  0  0  0  0  0  0
    8.4685  -15.8175   19.3606 C   0  0  1  0  0  0  0  0  0  0  0  0
    9.0260  -14.4532   19.1251 C   0  0  0  0  0  0  0  0  0  0  0  0
    7.6808  -13.2482   19.3444 S   0  0  0  0  0  0  0  0  0  0  0  0
    7.8771  -16.0365   20.6705 C   0  0  0  0  0  0  0  0  0  0  0  0
    6.6302  -16.1782   20.7525 O   0  0  0  0  0  0  0  0  0  0  0  0
    8.6167  -16.1030   21.8821 N   0  0  0  0  0  0  0  0  0  0  0  0
    7.9571  -16.4401   23.1498 C   0  0  1  0  0  0  0  0  0  0  0  0
    8.3076  -17.8574   23.4747 C   0  0  0  0  0  0  0  0  0  0  0  0
    7.8230  -18.3187   24.7933 C   0  0  0  0  0  0  0  0  0  0  0  0
    6.9767  -17.5312   25.5671 C   0  0  0  0  0  0  0  0  0  0  0  0
    6.7165  -18.2186   26.6970 N   0  0  0  0  0  0  0  0  0  0  0  0
    7.3701  -19.3933   26.6432 C   0  0  0  0  0  0  0  0  0  0  0  0
    8.0363  -19.4416   25.4855 N   0  0  0  0  0  0  0  0  0  0  0  0
    8.4369  -15.4658   24.1865 C   0  0  0  0  0  0  0  0  0  0  0  0
    9.6255  -15.1158   24.3162 O   0  0  0  0  0  0  0  0  0  0  0  0
    6.0430  -12.4989   25.2921 C   0  0  0  0  0  0  0  0  0  0  0  0
    6.6841  -13.1015   26.5001 C   0  0  2  0  0  0  0  0  0  0  0  0
    7.0505  -12.0357   27.5065 C   0  0  0  0  0  0  0  0  0  0  0  0
    7.8841  -13.9118   26.0760 C   0  0  2  0  0  0  0  0  0  0  0  0
    7.4838  -14.8868   25.0986 N   0  0  0  0  0  0  0  0  0  0  0  0
    8.4937  -14.5871   27.2640 C   0  0  0  0  0  0  0  0  0  0  0  0
    8.1420  -15.7515   27.5678 O   0  0  0  0  0  0  0  0  0  0  0  0
    9.4459  -13.9679   28.0541 O   0  0  0  0  0  0  0  0  0  0  0  0
  2  1  1  6
  2  5  1  0
  3  2  1  0
  4  3  1  0
  5  6  2  0
  7  5  1  0
  7  8  1  0
  9 10  1  0
  8  9  1  1
 10 14  1  0
 11 12  1  0
 11 10  2  0
 12 13  1  0
 13 14  2  0
 15  8  1  0
 15 21  1  0
 16 15  2  0
 18 19  1  1
 18 17  1  0
 20 21  1  6
 20 18  1  0
 22 20  1  0
 23 22  2  0
 24 22  1  0
M  END
$$$$
