CHV.pdb
     RDKit          3D

 24 24  0  0  1  0  0  0  0  0999 V2000
    7.4068  -16.4514   18.5028 N   0  0  0  0  0  0  0  0  0  0  0  0
    7.9087  -15.4576   19.4168 C   0  0  1  0  0  0  0  0  0  0  0  0
    7.8201  -14.1201   18.7605 C   0  0  0  0  0  0  0  0  0  0  0  0
    8.5067  -12.8834   19.9045 S   0  0  0  0  0  0  0  0  0  0  0  0
    7.2821  -15.5578   20.7247 C   0  0  0  0  0  0  0  0  0  0  0  0
    6.1164  -16.0237   20.8002 O   0  0  0  0  0  0  0  0  0  0  0  0
    7.9004  -15.1619   21.9414 N   0  0  0  0  0  0  0  0  0  0  0  0
    7.4585  -15.7174   23.2266 C   0  0  1  0  0  0  0  0  0  0  0  0
    7.7885  -17.1763   23.2219 C   0  0  0  0  0  0  0  0  0  0  0  0
    7.5158  -17.8676   24.5001 C   0  0  0  0  0  0  0  0  0  0  0  0
    6.9542  -17.1935   25.5797 C   0  0  0  0  0  0  0  0  0  0  0  0
    6.8314  -18.0840   26.5842 N   0  0  0  0  0  0  0  0  0  0  0  0
    7.2953  -19.2735   26.1604 C   0  0  0  0  0  0  0  0  0  0  0  0
    7.7068  -19.1292   24.8970 N   0  0  0  0  0  0  0  0  0  0  0  0
    8.1625  -14.9614   24.3163 C   0  0  0  0  0  0  0  0  0  0  0  0
    9.4014  -14.8764   24.4166 O   0  0  0  0  0  0  0  0  0  0  0  0
    5.7991  -12.9450   27.2619 C   0  0  0  0  0  0  0  0  0  0  0  0
    7.0572  -12.3518   26.7152 C   0  0  2  0  0  0  0  0  0  0  0  0
    6.7604  -11.4248   25.5595 C   0  0  0  0  0  0  0  0  0  0  0  0
    8.0004  -13.4609   26.3195 C   0  0  2  0  0  0  0  0  0  0  0  0
    7.3796  -14.2848   25.3186 N   0  0  0  0  0  0  0  0  0  0  0  0
    8.3599  -14.2814   27.5180 C   0  0  0  0  0  0  0  0  0  0  0  0
    7.8580  -15.4205   27.6671 O   0  0  0  0  0  0  0  0  0  0  0  0
    9.2389  -13.8260   28.4848 O   0  0  0  0  0  0  0  0  0  0  0  0
  2  1  1  6
  2  5  1  0
  3  2  1  0
  4  3  1  0
  5  6  2  0
  7  5  1  0
  7  8  1  0
  9 10  1  0
  8  9  1  6
 10 14  1  0
 11 12  1  0
 11 10  2  0
 12 13  1  0
 13 14  2  0
 15  8  1  0
 15 21  1  0
 16 15  2  0
 18 19  1  6
 18 17  1  0
 20 21  1  6
 20 18  1  0
 22 20  1  0
 23 22  2  0
 24 22  1  0
M  END
$$$$
