CHV.pdb
     RDKit          3D

 24 24  0  0  1  0  0  0  0  0999 V2000
    7.1266  -16.9978   18.4440 N   0  0  0  0  0  0  0  0  0  0  0  0
    7.8753  -16.2022   19.3828 C   0  0  1  0  0  0  0  0  0  0  0  0
    7.9182  -14.7955   18.8860 C   0  0  0  0  0  0  0  0  0  0  0  0
    7.9879  -13.6893   20.3286 S   0  0  0  0  0  0  0  0  0  0  0  0
    7.3935  -16.3728   20.7438 C   0  0  0  0  0  0  0  0  0  0  0  0
    6.1765  -16.6334   20.9239 O   0  0  0  0  0  0  0  0  0  0  0  0
    8.2101  -16.2649   21.9019 N   0  0  0  0  0  0  0  0  0  0  0  0
    7.6670  -16.5496   23.2358 C   0  0  1  0  0  0  0  0  0  0  0  0
    7.9961  -17.9723   23.5599 C   0  0  0  0  0  0  0  0  0  0  0  0
    7.6059  -18.3937   24.9224 C   0  0  0  0  0  0  0  0  0  0  0  0
    8.0487  -17.7030   26.0459 C   0  0  0  0  0  0  0  0  0  0  0  0
    7.5289  -18.3229   27.1241 N   0  0  0  0  0  0  0  0  0  0  0  0
    6.7873  -19.3634   26.7031 C   0  0  0  0  0  0  0  0  0  0  0  0
    6.8420  -19.3953   25.3681 N   0  0  0  0  0  0  0  0  0  0  0  0
    8.2817  -15.5730   24.1964 C   0  0  0  0  0  0  0  0  0  0  0  0
    9.4872  -15.2585   24.1939 O   0  0  0  0  0  0  0  0  0  0  0  0
    6.0783  -12.4935   25.5419 C   0  0  0  0  0  0  0  0  0  0  0  0
    6.8339  -13.1411   26.6568 C   0  0  2  0  0  0  0  0  0  0  0  0
    7.3198  -12.1117   27.6505 C   0  0  0  0  0  0  0  0  0  0  0  0
    7.9707  -13.9512   26.0841 C   0  0  2  0  0  0  0  0  0  0  0  0
    7.4473  -14.9482   25.1908 N   0  0  0  0  0  0  0  0  0  0  0  0
    8.7470  -14.5983   27.1875 C   0  0  0  0  0  0  0  0  0  0  0  0
    8.5187  -15.7926   27.4931 O   0  0  0  0  0  0  0  0  0  0  0  0
    9.7231  -13.9205   27.8962 O   0  0  0  0  0  0  0  0  0  0  0  0
  2  1  1  6
  2  5  1  0
  3  2  1  0
  4  3  1  0
  5  6  2  0
  7  5  1  0
  7  8  1  0
  9 10  1  0
  8  9  1  1
 10 14  1  0
 11 12  1  0
 11 10  2  0
 12 13  1  0
 13 14  2  0
 15  8  1  0
 15 21  1  0
 16 15  2  0
 18 19  1  1
 18 17  1  0
 20 21  1  6
 20 18  1  0
 22 20  1  0
 23 22  2  0
 24 22  1  0
M  END
$$$$
