CHV.pdb
     RDKit          3D

 24 24  0  0  1  0  0  0  0  0999 V2000
    8.6174  -17.8057   19.2765 N   0  0  0  0  0  0  0  0  0  0  0  0
    9.3691  -17.5099   20.4691 C   0  0  1  0  0  0  0  0  0  0  0  0
   10.4473  -16.5379   20.1228 C   0  0  0  0  0  0  0  0  0  0  0  0
   11.4857  -16.2977   21.5972 S   0  0  0  0  0  0  0  0  0  0  0  0
    8.5054  -17.1225   21.5725 C   0  0  0  0  0  0  0  0  0  0  0  0
    7.5094  -16.3937   21.3309 O   0  0  0  0  0  0  0  0  0  0  0  0
    8.7080  -17.5135   22.9236 N   0  0  0  0  0  0  0  0  0  0  0  0
    7.7925  -17.0691   23.9819 C   0  0  1  0  0  0  0  0  0  0  0  0
    7.4671  -18.2621   24.8235 C   0  0  0  0  0  0  0  0  0  0  0  0
    6.5707  -19.2415   24.1729 C   0  0  0  0  0  0  0  0  0  0  0  0
    5.5896  -18.8359   23.2739 C   0  0  0  0  0  0  0  0  0  0  0  0
    4.9471  -19.9458   22.8590 N   0  0  0  0  0  0  0  0  0  0  0  0
    5.4969  -21.0115   23.4688 C   0  0  0  0  0  0  0  0  0  0  0  0
    6.4788  -20.5717   24.2616 N   0  0  0  0  0  0  0  0  0  0  0  0
    8.4806  -15.9793   24.7521 C   0  0  0  0  0  0  0  0  0  0  0  0
    9.7035  -15.9595   24.9892 O   0  0  0  0  0  0  0  0  0  0  0  0
    6.0629  -12.9961   26.6490 C   0  0  0  0  0  0  0  0  0  0  0  0
    7.4171  -12.6500   26.1202 C   0  0  2  0  0  0  0  0  0  0  0  0
    7.3188  -12.0293   24.7461 C   0  0  0  0  0  0  0  0  0  0  0  0
    8.2827  -13.8858   26.1191 C   0  0  2  0  0  0  0  0  0  0  0  0
    7.7007  -14.8788   25.2580 N   0  0  0  0  0  0  0  0  0  0  0  0
    8.4178  -14.4195   27.5104 C   0  0  0  0  0  0  0  0  0  0  0  0
    7.7575  -15.4267   27.8587 O   0  0  0  0  0  0  0  0  0  0  0  0
    9.2561  -13.8363   28.4441 O   0  0  0  0  0  0  0  0  0  0  0  0
  2  1  1  6
  2  5  1  0
  3  2  1  0
  4  3  1  0
  5  6  2  0
  7  5  1  0
  7  8  1  0
  9 10  1  0
  8  9  1  1
 10 14  1  0
 11 12  1  0
 11 10  2  0
 12 13  1  0
 13 14  2  0
 15  8  1  0
 15 21  1  0
 16 15  2  0
 18 19  1  6
 18 17  1  0
 20 21  1  6
 20 18  1  0
 22 20  1  0
 23 22  2  0
 24 22  1  0
M  END
$$$$
