CHV.pdb
     RDKit          3D

 24 24  0  0  1  0  0  0  0  0999 V2000
    6.3059  -17.1960   18.9091 N   0  0  0  0  0  0  0  0  0  0  0  0
    7.1521  -16.3644   19.7259 C   0  0  1  0  0  0  0  0  0  0  0  0
    7.1018  -14.9698   19.1967 C   0  0  0  0  0  0  0  0  0  0  0  0
    8.1442  -13.9246   20.2600 S   0  0  0  0  0  0  0  0  0  0  0  0
    6.8525  -16.5100   21.1410 C   0  0  0  0  0  0  0  0  0  0  0  0
    5.6494  -16.6014   21.4958 O   0  0  0  0  0  0  0  0  0  0  0  0
    7.8347  -16.5572   22.1669 N   0  0  0  0  0  0  0  0  0  0  0  0
    7.4475  -16.7189   23.5738 C   0  0  1  0  0  0  0  0  0  0  0  0
    7.8050  -18.1134   23.9800 C   0  0  0  0  0  0  0  0  0  0  0  0
    7.6209  -18.3956   25.4197 C   0  0  0  0  0  0  0  0  0  0  0  0
    8.7021  -18.7058   26.2383 C   0  0  0  0  0  0  0  0  0  0  0  0
    8.2162  -18.9077   27.4793 N   0  0  0  0  0  0  0  0  0  0  0  0
    6.8825  -18.7331   27.4501 C   0  0  0  0  0  0  0  0  0  0  0  0
    6.5347  -18.4233   26.1974 N   0  0  0  0  0  0  0  0  0  0  0  0
    8.1733  -15.6729   24.3696 C   0  0  0  0  0  0  0  0  0  0  0  0
    9.3448  -15.3143   24.1438 O   0  0  0  0  0  0  0  0  0  0  0  0
    6.0551  -12.6630   25.7666 C   0  0  0  0  0  0  0  0  0  0  0  0
    7.0262  -13.0949   26.8173 C   0  0  2  0  0  0  0  0  0  0  0  0
    7.6033  -11.9021   27.5436 C   0  0  0  0  0  0  0  0  0  0  0  0
    8.1016  -13.9428   26.1840 C   0  0  2  0  0  0  0  0  0  0  0  0
    7.4949  -15.0302   25.4661 N   0  0  0  0  0  0  0  0  0  0  0  0
    9.0279  -14.4672   27.2357 C   0  0  0  0  0  0  0  0  0  0  0  0
    8.7688  -15.5507   27.8107 O   0  0  0  0  0  0  0  0  0  0  0  0
   10.1783  -13.7932   27.6055 O   0  0  0  0  0  0  0  0  0  0  0  0
  2  1  1  6
  2  5  1  0
  3  2  1  0
  4  3  1  0
  5  6  2  0
  7  5  1  0
  7  8  1  0
  9 10  1  0
  8  9  1  1
 10 14  1  0
 11 12  1  0
 11 10  2  0
 12 13  1  0
 13 14  2  0
 15  8  1  0
 15 21  1  0
 16 15  2  0
 18 19  1  6
 18 17  1  0
 20 21  1  1
 20 18  1  0
 22 20  1  0
 23 22  2  0
 24 22  1  0
M  END
$$$$
