ECE.pdb
     RDKit          3D

 25 24  0  0  1  0  0  0  0  0999 V2000
   10.2767  -15.3054   14.6725 N   0  0  0  0  0  0  0  0  0  0  0  0
    9.0680  -15.4911   15.5058 C   0  0  1  0  0  0  0  0  0  0  0  0
    8.6814  -16.9278   15.5291 C   0  0  0  0  0  0  0  0  0  0  0  0
    9.7183  -17.8944   15.9676 C   0  0  0  0  0  0  0  0  0  0  0  0
    9.1517  -19.2886   16.0129 C   0  0  0  0  0  0  0  0  0  0  0  0
    9.8935  -20.2049   16.3907 O   0  0  0  0  0  0  0  0  0  0  0  0
    9.4659  -15.0453   16.8622 C   0  0  0  0  0  0  0  0  0  0  0  0
   10.6772  -15.1696   17.1758 O   0  0  0  0  0  0  0  0  0  0  0  0
    7.8588  -19.5785   15.6552 O   0  0  0  0  0  0  0  0  0  0  0  0
    8.5292  -14.4945   17.7905 N   0  0  0  0  0  0  0  0  0  0  0  0
    9.0037  -14.0199   19.0466 C   0  0  1  0  0  0  0  0  0  0  0  0
    7.9020  -13.4281   19.9052 C   0  0  0  0  0  0  0  0  0  0  0  0
    6.9812  -12.2531   18.9167 S   0  0  0  0  0  0  0  0  0  0  0  0
    9.7484  -15.0744   19.8082 C   0  0  0  0  0  0  0  0  0  0  0  0
    9.8221  -16.2553   19.3827 O   0  0  0  0  0  0  0  0  0  0  0  0
   10.4080  -14.8133   21.0392 N   0  0  0  0  0  0  0  0  0  0  0  0
   11.5481  -15.5763   21.5104 C   0  0  1  0  0  0  0  0  0  0  0  0
   12.8511  -15.0412   21.0134 C   0  0  0  0  0  0  0  0  0  0  0  0
   14.0387  -15.8602   21.4345 C   0  0  0  0  0  0  0  0  0  0  0  0
   15.3296  -15.3868   20.9365 C   0  0  0  0  0  0  0  0  0  0  0  0
   15.6720  -15.1978   19.7608 O   0  0  0  0  0  0  0  0  0  0  0  0
   11.5269  -15.7253   22.9929 C   0  0  0  0  0  0  0  0  0  0  0  0
   10.9196  -14.9616   23.7518 O   0  0  0  0  0  0  0  0  0  0  0  0
   16.3155  -15.1073   21.9051 O   0  0  0  0  0  0  0  0  0  0  0  0
   12.2358  -16.7883   23.5313 O   0  0  0  0  0  0  0  0  0  0  0  0
  2  1  1  6
  2  7  1  0
  3  2  1  0
  4  3  1  0
  5  4  1  0
  6  5  2  0
  7 10  1  0
  7  8  2  0
  9  5  1  0
 10 11  1  0
 11 12  1  1
 13 12  1  0
 14 11  1  0
 14 16  1  0
 15 14  2  0
 17 18  1  1
 17 22  1  0
 17 16  1  0
 19 18  1  0
 19 20  1  0
 20 24  1  0
 21 20  2  0
 22 25  1  0
 23 22  2  0
M  END
$$$$
