ECE.pdb
     RDKit          3D

 25 24  0  0  1  0  0  0  0  0999 V2000
    8.0231  -13.8163   20.3698 N   0  0  0  0  0  0  0  0  0  0  0  0
    7.0007  -14.0660   21.4099 C   0  0  1  0  0  0  0  0  0  0  0  0
    6.4351  -15.4331   21.2502 C   0  0  0  0  0  0  0  0  0  0  0  0
    7.4014  -16.5584   21.2120 C   0  0  0  0  0  0  0  0  0  0  0  0
    6.6761  -17.8689   21.0581 C   0  0  0  0  0  0  0  0  0  0  0  0
    6.7593  -18.4543   19.9704 O   0  0  0  0  0  0  0  0  0  0  0  0
    7.7293  -13.9599   22.6963 C   0  0  0  0  0  0  0  0  0  0  0  0
    8.9463  -14.2763   22.6953 O   0  0  0  0  0  0  0  0  0  0  0  0
    5.9351  -18.4323   22.0664 O   0  0  0  0  0  0  0  0  0  0  0  0
    7.0954  -13.5190   23.8990 N   0  0  0  0  0  0  0  0  0  0  0  0
    7.8557  -13.4796   25.1026 C   0  0  1  0  0  0  0  0  0  0  0  0
    7.1356  -12.7628   26.2290 C   0  0  0  0  0  0  0  0  0  0  0  0
    5.5254  -13.5157   26.4432 S   0  0  0  0  0  0  0  0  0  0  0  0
    8.2888  -14.8443   25.5462 C   0  0  0  0  0  0  0  0  0  0  0  0
    7.6223  -15.8680   25.2479 O   0  0  0  0  0  0  0  0  0  0  0  0
    9.4601  -15.0665   26.3191 N   0  0  0  0  0  0  0  0  0  0  0  0
   10.0573  -16.3754   26.5034 C   0  0  1  0  0  0  0  0  0  0  0  0
   11.2257  -16.6131   25.6038 C   0  0  0  0  0  0  0  0  0  0  0  0
   11.8186  -17.9876   25.7367 C   0  0  0  0  0  0  0  0  0  0  0  0
   13.0054  -18.2355   24.9189 C   0  0  0  0  0  0  0  0  0  0  0  0
   14.0075  -17.5183   24.7898 O   0  0  0  0  0  0  0  0  0  0  0  0
   10.3861  -16.6258   27.9350 C   0  0  0  0  0  0  0  0  0  0  0  0
   10.3059  -15.7658   28.8193 O   0  0  0  0  0  0  0  0  0  0  0  0
   13.0233  -19.4369   24.1810 O   0  0  0  0  0  0  0  0  0  0  0  0
   10.8042  -17.9038   28.2732 O   0  0  0  0  0  0  0  0  0  0  0  0
  2  1  1  6
  2  7  1  0
  3  2  1  0
  4  3  1  0
  5  4  1  0
  6  5  2  0
  7 10  1  0
  7  8  2  0
  9  5  1  0
 10 11  1  0
 11 12  1  1
 13 12  1  0
 14 11  1  0
 14 16  1  0
 15 14  2  0
 17 18  1  6
 17 22  1  0
 17 16  1  0
 19 18  1  0
 19 20  1  0
 20 24  1  0
 21 20  2  0
 22 25  1  0
 23 22  2  0
M  END
$$$$
