ECE.pdb
     RDKit          3D

 25 24  0  0  1  0  0  0  0  0999 V2000
    6.5696  -16.4808   21.4045 N   0  0  0  0  0  0  0  0  0  0  0  0
    8.0360  -16.3270   21.2796 C   0  0  1  0  0  0  0  0  0  0  0  0
    8.3741  -15.7194   19.9641 C   0  0  0  0  0  0  0  0  0  0  0  0
    7.4373  -15.9815   18.8436 C   0  0  0  0  0  0  0  0  0  0  0  0
    8.1944  -16.4113   17.6152 C   0  0  0  0  0  0  0  0  0  0  0  0
    8.8538  -17.4574   17.6760 O   0  0  0  0  0  0  0  0  0  0  0  0
    8.4201  -15.4121   22.3807 C   0  0  0  0  0  0  0  0  0  0  0  0
    9.6206  -15.0412   22.4275 O   0  0  0  0  0  0  0  0  0  0  0  0
    8.1812  -15.6956   16.4443 O   0  0  0  0  0  0  0  0  0  0  0  0
    7.4819  -14.9579   23.3586 N   0  0  0  0  0  0  0  0  0  0  0  0
    7.9512  -14.1693   24.4477 C   0  0  1  0  0  0  0  0  0  0  0  0
    6.8505  -13.3543   25.0999 C   0  0  0  0  0  0  0  0  0  0  0  0
    7.5281  -12.5361   26.5411 S   0  0  0  0  0  0  0  0  0  0  0  0
    8.6706  -14.9899   25.4752 C   0  0  0  0  0  0  0  0  0  0  0  0
    8.0740  -15.8819   26.1305 O   0  0  0  0  0  0  0  0  0  0  0  0
   10.0495  -14.8166   25.7706 N   0  0  0  0  0  0  0  0  0  0  0  0
   10.7940  -15.6996   26.6481 C   0  0  1  0  0  0  0  0  0  0  0  0
   12.2000  -15.9197   26.1945 C   0  0  0  0  0  0  0  0  0  0  0  0
   12.9968  -16.8058   27.1101 C   0  0  0  0  0  0  0  0  0  0  0  0
   14.3876  -17.0215   26.7130 C   0  0  0  0  0  0  0  0  0  0  0  0
   15.0005  -16.5070   25.7670 O   0  0  0  0  0  0  0  0  0  0  0  0
   10.7221  -15.2444   28.0652 C   0  0  0  0  0  0  0  0  0  0  0  0
   10.5933  -14.0619   28.4016 O   0  0  0  0  0  0  0  0  0  0  0  0
   15.1345  -17.9253   27.4964 O   0  0  0  0  0  0  0  0  0  0  0  0
   10.8066  -16.2196   29.0472 O   0  0  0  0  0  0  0  0  0  0  0  0
  2  1  1  6
  2  7  1  0
  3  2  1  0
  4  3  1  0
  5  4  1  0
  6  5  2  0
  7 10  1  0
  7  8  2  0
  9  5  1  0
 10 11  1  0
 11 12  1  1
 13 12  1  0
 14 11  1  0
 14 16  1  0
 15 14  2  0
 17 18  1  6
 17 22  1  0
 17 16  1  0
 19 18  1  0
 19 20  1  0
 20 24  1  0
 21 20  2  0
 22 25  1  0
 23 22  2  0
M  END
$$$$
