ECE.pdb
     RDKit          3D

 25 24  0  0  1  0  0  0  0  0999 V2000
    7.9267  -12.8001   18.6532 N   0  0  0  0  0  0  0  0  0  0  0  0
    7.6929  -14.1123   19.2959 C   0  0  1  0  0  0  0  0  0  0  0  0
    8.2531  -15.2008   18.4500 C   0  0  0  0  0  0  0  0  0  0  0  0
    7.9556  -15.1418   16.9975 C   0  0  0  0  0  0  0  0  0  0  0  0
    8.5276  -16.3443   16.2946 C   0  0  0  0  0  0  0  0  0  0  0  0
    9.0945  -16.1668   15.2085 O   0  0  0  0  0  0  0  0  0  0  0  0
    8.4184  -14.0412   20.5864 C   0  0  0  0  0  0  0  0  0  0  0  0
    9.5858  -13.5746   20.5645 O   0  0  0  0  0  0  0  0  0  0  0  0
    8.4450  -17.6148   16.8068 O   0  0  0  0  0  0  0  0  0  0  0  0
    7.8351  -14.4786   21.8156 N   0  0  0  0  0  0  0  0  0  0  0  0
    8.6132  -14.4161   23.0068 C   0  0  1  0  0  0  0  0  0  0  0  0
    7.7636  -14.2960   24.2578 C   0  0  0  0  0  0  0  0  0  0  0  0
    6.3004  -15.3067   24.0494 S   0  0  0  0  0  0  0  0  0  0  0  0
    9.5597  -15.5720   23.1287 C   0  0  0  0  0  0  0  0  0  0  0  0
    9.2774  -16.6985   22.6467 O   0  0  0  0  0  0  0  0  0  0  0  0
   10.8157  -15.4720   23.7853 N   0  0  0  0  0  0  0  0  0  0  0  0
   11.7734  -16.5598   23.8443 C   0  0  1  0  0  0  0  0  0  0  0  0
   13.1692  -16.1223   23.5419 C   0  0  0  0  0  0  0  0  0  0  0  0
   14.1738  -17.2390   23.5874 C   0  0  0  0  0  0  0  0  0  0  0  0
   15.5514  -16.8498   23.2886 C   0  0  0  0  0  0  0  0  0  0  0  0
   16.5981  -17.3967   23.6637 O   0  0  0  0  0  0  0  0  0  0  0  0
   11.6795  -17.2970   25.1358 C   0  0  0  0  0  0  0  0  0  0  0  0
   12.0899  -18.4514   25.2997 O   0  0  0  0  0  0  0  0  0  0  0  0
   15.7230  -15.7123   22.4732 O   0  0  0  0  0  0  0  0  0  0  0  0
   11.0946  -16.6314   26.2022 O   0  0  0  0  0  0  0  0  0  0  0  0
  2  1  1  6
  2  7  1  0
  3  2  1  0
  4  3  1  0
  5  4  1  0
  6  5  2  0
  7 10  1  0
  7  8  2  0
  9  5  1  0
 10 11  1  0
 11 12  1  1
 13 12  1  0
 14 11  1  0
 14 16  1  0
 15 14  2  0
 17 18  1  1
 17 22  1  0
 17 16  1  0
 19 18  1  0
 19 20  1  0
 20 24  1  0
 21 20  2  0
 22 25  1  0
 23 22  2  0
M  END
$$$$
