ECE.pdb
     RDKit          3D

 25 24  0  0  1  0  0  0  0  0999 V2000
    8.8176  -14.6365   20.4891 N   0  0  0  0  0  0  0  0  0  0  0  0
    7.6375  -14.7489   21.3748 C   0  0  1  0  0  0  0  0  0  0  0  0
    7.1418  -16.1519   21.3871 C   0  0  0  0  0  0  0  0  0  0  0  0
    8.1485  -17.2169   21.6198 C   0  0  0  0  0  0  0  0  0  0  0  0
    7.5101  -18.5762   21.5115 C   0  0  0  0  0  0  0  0  0  0  0  0
    7.6326  -19.1918   20.4444 O   0  0  0  0  0  0  0  0  0  0  0  0
    8.1305  -14.3677   22.7196 C   0  0  0  0  0  0  0  0  0  0  0  0
    9.3554  -14.5327   22.9509 O   0  0  0  0  0  0  0  0  0  0  0  0
    6.8059  -19.1518   22.5392 O   0  0  0  0  0  0  0  0  0  0  0  0
    7.2678  -13.8333   23.7261 N   0  0  0  0  0  0  0  0  0  0  0  0
    7.8081  -13.5420   25.0112 C   0  0  1  0  0  0  0  0  0  0  0  0
    6.8567  -12.7423   25.8809 C   0  0  0  0  0  0  0  0  0  0  0  0
    7.6665  -12.3981   27.4402 S   0  0  0  0  0  0  0  0  0  0  0  0
    8.2594  -14.7768   25.7312 C   0  0  0  0  0  0  0  0  0  0  0  0
    7.4985  -15.7692   25.8618 O   0  0  0  0  0  0  0  0  0  0  0  0
    9.5536  -14.9043   26.3033 N   0  0  0  0  0  0  0  0  0  0  0  0
    9.9867  -16.0744   27.0430 C   0  0  1  0  0  0  0  0  0  0  0  0
   11.1254  -16.7865   26.3895 C   0  0  0  0  0  0  0  0  0  0  0  0
   12.3695  -15.9519   26.2705 C   0  0  0  0  0  0  0  0  0  0  0  0
   13.1659  -16.1893   25.0672 C   0  0  0  0  0  0  0  0  0  0  0  0
   12.8620  -15.9487   23.8903 O   0  0  0  0  0  0  0  0  0  0  0  0
   10.2707  -15.7423   28.4676 C   0  0  0  0  0  0  0  0  0  0  0  0
   10.2324  -14.5952   28.9267 O   0  0  0  0  0  0  0  0  0  0  0  0
   14.4400  -16.7628   25.2569 O   0  0  0  0  0  0  0  0  0  0  0  0
   10.5946  -16.7953   29.3094 O   0  0  0  0  0  0  0  0  0  0  0  0
  2  1  1  6
  2  7  1  0
  3  2  1  0
  4  3  1  0
  5  4  1  0
  6  5  2  0
  7 10  1  0
  7  8  2  0
  9  5  1  0
 10 11  1  0
 11 12  1  1
 13 12  1  0
 14 11  1  0
 14 16  1  0
 15 14  2  0
 17 18  1  6
 17 22  1  0
 17 16  1  0
 19 18  1  0
 19 20  1  0
 20 24  1  0
 21 20  2  0
 22 25  1  0
 23 22  2  0
M  END
$$$$
