ECE.pdb
     RDKit          3D

 25 24  0  0  1  0  0  0  0  0999 V2000
    7.4083  -18.2296   19.1265 N   0  0  0  0  0  0  0  0  0  0  0  0
    8.8787  -18.1391   18.9878 C   0  0  1  0  0  0  0  0  0  0  0  0
    9.2326  -17.6459   17.6292 C   0  0  0  0  0  0  0  0  0  0  0  0
    8.2644  -17.9268   16.5404 C   0  0  0  0  0  0  0  0  0  0  0  0
    8.7330  -17.3114   15.2487 C   0  0  0  0  0  0  0  0  0  0  0  0
    9.9180  -17.4690   14.9267 O   0  0  0  0  0  0  0  0  0  0  0  0
    9.3005  -17.1578   20.0153 C   0  0  0  0  0  0  0  0  0  0  0  0
   10.5016  -16.7861   19.9965 O   0  0  0  0  0  0  0  0  0  0  0  0
    7.9056  -16.5906   14.4244 O   0  0  0  0  0  0  0  0  0  0  0  0
    8.3971  -16.6424   20.9955 N   0  0  0  0  0  0  0  0  0  0  0  0
    8.9035  -15.7869   22.0153 C   0  0  1  0  0  0  0  0  0  0  0  0
    7.8062  -15.1584   22.8533 C   0  0  0  0  0  0  0  0  0  0  0  0
    6.6638  -14.3218   21.7574 S   0  0  0  0  0  0  0  0  0  0  0  0
    9.8994  -16.4796   22.8956 C   0  0  0  0  0  0  0  0  0  0  0  0
    9.7425  -17.6793   23.2379 O   0  0  0  0  0  0  0  0  0  0  0  0
   11.0654  -15.8372   23.3921 N   0  0  0  0  0  0  0  0  0  0  0  0
   12.1693  -16.5512   24.0050 C   0  0  1  0  0  0  0  0  0  0  0  0
   13.5039  -16.0641   23.5440 C   0  0  0  0  0  0  0  0  0  0  0  0
   14.6554  -16.8741   24.0698 C   0  0  0  0  0  0  0  0  0  0  0  0
   15.9759  -16.4580   23.5988 C   0  0  0  0  0  0  0  0  0  0  0  0
   16.2533  -15.5333   22.8220 O   0  0  0  0  0  0  0  0  0  0  0  0
   12.0530  -16.5596   25.4906 C   0  0  0  0  0  0  0  0  0  0  0  0
   11.3762  -15.7477   26.1316 O   0  0  0  0  0  0  0  0  0  0  0  0
   17.0783  -17.1927   24.0815 O   0  0  0  0  0  0  0  0  0  0  0  0
   12.7522  -17.5429   26.1735 O   0  0  0  0  0  0  0  0  0  0  0  0
  2  1  1  6
  2  7  1  0
  3  2  1  0
  4  3  1  0
  5  4  1  0
  6  5  2  0
  7 10  1  0
  7  8  2  0
  9  5  1  0
 10 11  1  0
 11 12  1  1
 13 12  1  0
 14 11  1  0
 14 16  1  0
 15 14  2  0
 17 18  1  1
 17 22  1  0
 17 16  1  0
 19 18  1  0
 19 20  1  0
 20 24  1  0
 21 20  2  0
 22 25  1  0
 23 22  2  0
M  END
$$$$
