ECE.pdb
     RDKit          3D

 25 24  0  0  1  0  0  0  0  0999 V2000
    8.0953  -12.9125   19.7627 N   0  0  0  0  0  0  0  0  0  0  0  0
    7.0948  -13.5824   20.6230 C   0  0  1  0  0  0  0  0  0  0  0  0
    6.8825  -14.9814   20.1627 C   0  0  0  0  0  0  0  0  0  0  0  0
    7.6750  -15.4294   18.9910 C   0  0  0  0  0  0  0  0  0  0  0  0
    7.3657  -16.8667   18.6658 C   0  0  0  0  0  0  0  0  0  0  0  0
    7.9365  -17.3778   17.6934 O   0  0  0  0  0  0  0  0  0  0  0  0
    7.6901  -13.5741   21.9803 C   0  0  0  0  0  0  0  0  0  0  0  0
    8.9412  -13.6721   22.0598 O   0  0  0  0  0  0  0  0  0  0  0  0
    6.4851  -17.6226   19.3984 O   0  0  0  0  0  0  0  0  0  0  0  0
    6.8948  -13.4606   23.1624 N   0  0  0  0  0  0  0  0  0  0  0  0
    7.5444  -13.4478   24.4297 C   0  0  1  0  0  0  0  0  0  0  0  0
    6.7157  -12.7754   25.5078 C   0  0  0  0  0  0  0  0  0  0  0  0
    7.6486  -12.7951   27.0359 S   0  0  0  0  0  0  0  0  0  0  0  0
    7.9582  -14.8195   24.8702 C   0  0  0  0  0  0  0  0  0  0  0  0
    7.1071  -15.7224   25.0741 O   0  0  0  0  0  0  0  0  0  0  0  0
    9.3152  -15.1829   25.0822 N   0  0  0  0  0  0  0  0  0  0  0  0
    9.7328  -16.5187   25.4634 C   0  0  1  0  0  0  0  0  0  0  0  0
   11.1067  -16.8569   24.9849 C   0  0  0  0  0  0  0  0  0  0  0  0
   11.6209  -18.1686   25.5077 C   0  0  0  0  0  0  0  0  0  0  0  0
   12.9765  -18.5188   25.0856 C   0  0  0  0  0  0  0  0  0  0  0  0
   13.7533  -17.8558   24.3840 O   0  0  0  0  0  0  0  0  0  0  0  0
    9.5740  -16.7403   26.9283 C   0  0  0  0  0  0  0  0  0  0  0  0
    9.2606  -17.8261   27.4292 O   0  0  0  0  0  0  0  0  0  0  0  0
   13.4726  -19.7633   25.5254 O   0  0  0  0  0  0  0  0  0  0  0  0
    9.7952  -15.6529   27.7595 O   0  0  0  0  0  0  0  0  0  0  0  0
  2  1  1  6
  2  7  1  0
  3  2  1  0
  4  3  1  0
  5  4  1  0
  6  5  2  0
  7 10  1  0
  7  8  2  0
  9  5  1  0
 10 11  1  0
 11 12  1  1
 13 12  1  0
 14 11  1  0
 14 16  1  0
 15 14  2  0
 17 18  1  1
 17 22  1  0
 17 16  1  0
 19 18  1  0
 19 20  1  0
 20 24  1  0
 21 20  2  0
 22 25  1  0
 23 22  2  0
M  END
$$$$
