ECE.pdb
     RDKit          3D

 25 24  0  0  1  0  0  0  0  0999 V2000
    8.2540  -18.2784   19.4708 N   0  0  0  0  0  0  0  0  0  0  0  0
    9.0510  -17.0534   19.2385 C   0  0  1  0  0  0  0  0  0  0  0  0
    8.5433  -16.3356   18.0380 C   0  0  0  0  0  0  0  0  0  0  0  0
    8.3150  -17.1480   16.8175 C   0  0  0  0  0  0  0  0  0  0  0  0
    9.6280  -17.5830   16.2225 C   0  0  0  0  0  0  0  0  0  0  0  0
   10.5623  -16.7708   16.2212 O   0  0  0  0  0  0  0  0  0  0  0  0
    8.8478  -16.2285   20.4530 C   0  0  0  0  0  0  0  0  0  0  0  0
    9.3476  -15.0747   20.4544 O   0  0  0  0  0  0  0  0  0  0  0  0
    9.8256  -18.8314   15.6878 O   0  0  0  0  0  0  0  0  0  0  0  0
    8.1180  -16.7042   21.5860 N   0  0  0  0  0  0  0  0  0  0  0  0
    8.0976  -15.9154   22.7716 C   0  0  1  0  0  0  0  0  0  0  0  0
    6.6941  -15.6816   23.2975 C   0  0  0  0  0  0  0  0  0  0  0  0
    6.0417  -17.2412   23.8874 S   0  0  0  0  0  0  0  0  0  0  0  0
    8.9694  -16.4862   23.8491 C   0  0  0  0  0  0  0  0  0  0  0  0
    9.4309  -17.6527   23.7637 O   0  0  0  0  0  0  0  0  0  0  0  0
    9.3252  -15.7591   25.0168 N   0  0  0  0  0  0  0  0  0  0  0  0
   10.0531  -16.3418   26.1279 C   0  0  1  0  0  0  0  0  0  0  0  0
   10.1427  -15.4288   27.3067 C   0  0  0  0  0  0  0  0  0  0  0  0
   10.9797  -15.9745   28.4292 C   0  0  0  0  0  0  0  0  0  0  0  0
   11.0585  -15.1251   29.6170 C   0  0  0  0  0  0  0  0  0  0  0  0
   10.7227  -13.9378   29.7307 O   0  0  0  0  0  0  0  0  0  0  0  0
    9.5101  -17.6812   26.4906 C   0  0  0  0  0  0  0  0  0  0  0  0
    8.3028  -17.9374   26.5606 O   0  0  0  0  0  0  0  0  0  0  0  0
   11.5796  -15.7198   30.7845 O   0  0  0  0  0  0  0  0  0  0  0  0
   10.4291  -18.6834   26.7612 O   0  0  0  0  0  0  0  0  0  0  0  0
  2  1  1  1
  2  7  1  0
  3  2  1  0
  4  3  1  0
  5  4  1  0
  6  5  2  0
  7 10  1  0
  7  8  2  0
  9  5  1  0
 10 11  1  0
 11 12  1  1
 13 12  1  0
 14 11  1  0
 14 16  1  0
 15 14  2  0
 17 18  1  1
 17 22  1  0
 17 16  1  0
 19 18  1  0
 19 20  1  0
 20 24  1  0
 21 20  2  0
 22 25  1  0
 23 22  2  0
M  END
$$$$
