ECE.pdb
     RDKit          3D

 25 24  0  0  1  0  0  0  0  0999 V2000
    6.8430  -15.8869   21.6040 N   0  0  0  0  0  0  0  0  0  0  0  0
    8.2577  -16.1824   21.9219 C   0  0  1  0  0  0  0  0  0  0  0  0
    9.0881  -16.0806   20.6915 C   0  0  0  0  0  0  0  0  0  0  0  0
    8.5052  -16.6282   19.4417 C   0  0  0  0  0  0  0  0  0  0  0  0
    9.5812  -17.2380   18.5829 C   0  0  0  0  0  0  0  0  0  0  0  0
    9.9377  -16.6187   17.5720 O   0  0  0  0  0  0  0  0  0  0  0  0
    8.6566  -15.1401   22.8973 C   0  0  0  0  0  0  0  0  0  0  0  0
    9.8854  -15.0118   23.1311 O   0  0  0  0  0  0  0  0  0  0  0  0
   10.1745  -18.4404   18.8753 O   0  0  0  0  0  0  0  0  0  0  0  0
    7.7019  -14.3049   23.5558 N   0  0  0  0  0  0  0  0  0  0  0  0
    8.0833  -13.6371   24.7545 C   0  0  1  0  0  0  0  0  0  0  0  0
    7.1247  -12.5258   25.1382 C   0  0  0  0  0  0  0  0  0  0  0  0
    5.6732  -13.2610   25.8854 S   0  0  0  0  0  0  0  0  0  0  0  0
    8.2664  -14.5861   25.9002 C   0  0  0  0  0  0  0  0  0  0  0  0
    7.3552  -15.3846   26.2364 O   0  0  0  0  0  0  0  0  0  0  0  0
    9.4606  -14.6443   26.6677 N   0  0  0  0  0  0  0  0  0  0  0  0
    9.6997  -15.6388   27.6962 C   0  0  1  0  0  0  0  0  0  0  0  0
   10.5184  -16.7904   27.2122 C   0  0  0  0  0  0  0  0  0  0  0  0
   10.8378  -17.7950   28.2833 C   0  0  0  0  0  0  0  0  0  0  0  0
   11.6507  -18.9306   27.8495 C   0  0  0  0  0  0  0  0  0  0  0  0
   12.7403  -18.9091   27.2600 O   0  0  0  0  0  0  0  0  0  0  0  0
   10.2662  -15.0209   28.9282 C   0  0  0  0  0  0  0  0  0  0  0  0
   10.6048  -13.8348   29.0089 O   0  0  0  0  0  0  0  0  0  0  0  0
   11.1418  -20.2150   28.1314 O   0  0  0  0  0  0  0  0  0  0  0  0
   10.4135  -15.8412   30.0362 O   0  0  0  0  0  0  0  0  0  0  0  0
  2  1  1  6
  2  7  1  0
  3  2  1  0
  4  3  1  0
  5  4  1  0
  6  5  2  0
  7 10  1  0
  7  8  2  0
  9  5  1  0
 10 11  1  0
 11 12  1  1
 13 12  1  0
 14 11  1  0
 14 16  1  0
 15 14  2  0
 17 18  1  6
 17 22  1  0
 17 16  1  0
 19 18  1  0
 19 20  1  0
 20 24  1  0
 21 20  2  0
 22 25  1  0
 23 22  2  0
M  END
$$$$
