ECE.pdb
     RDKit          3D

 25 24  0  0  1  0  0  0  0  0999 V2000
    7.9340  -15.3654   18.3369 N   0  0  0  0  0  0  0  0  0  0  0  0
    7.3400  -16.0817   19.4875 C   0  0  1  0  0  0  0  0  0  0  0  0
    7.6078  -17.5408   19.3724 C   0  0  0  0  0  0  0  0  0  0  0  0
    9.0176  -17.9780   19.5249 C   0  0  0  0  0  0  0  0  0  0  0  0
    9.1282  -19.4685   19.3428 C   0  0  0  0  0  0  0  0  0  0  0  0
    8.6914  -19.9593   18.2935 O   0  0  0  0  0  0  0  0  0  0  0  0
    8.0255  -15.5271   20.6789 C   0  0  0  0  0  0  0  0  0  0  0  0
    9.2459  -15.2479   20.5618 O   0  0  0  0  0  0  0  0  0  0  0  0
    9.6886  -20.2939   20.2852 O   0  0  0  0  0  0  0  0  0  0  0  0
    7.3475  -15.3107   21.9184 N   0  0  0  0  0  0  0  0  0  0  0  0
    8.0924  -14.8377   23.0363 C   0  0  1  0  0  0  0  0  0  0  0  0
    7.2084  -14.4048   24.1905 C   0  0  0  0  0  0  0  0  0  0  0  0
    8.2524  -13.7599   25.4942 S   0  0  0  0  0  0  0  0  0  0  0  0
    9.1096  -15.8342   23.5042 C   0  0  0  0  0  0  0  0  0  0  0  0
    8.8271  -17.0554   23.6035 O   0  0  0  0  0  0  0  0  0  0  0  0
   10.4362  -15.4705   23.8599 N   0  0  0  0  0  0  0  0  0  0  0  0
   11.4481  -16.4321   24.2541 C   0  0  1  0  0  0  0  0  0  0  0  0
   12.8288  -16.0150   23.8660 C   0  0  0  0  0  0  0  0  0  0  0  0
   13.8874  -17.0143   24.2392 C   0  0  0  0  0  0  0  0  0  0  0  0
   15.2534  -16.6391   23.8763 C   0  0  0  0  0  0  0  0  0  0  0  0
   16.2804  -16.7370   24.5627 O   0  0  0  0  0  0  0  0  0  0  0  0
   11.3449  -16.7664   25.7026 C   0  0  0  0  0  0  0  0  0  0  0  0
   10.7307  -16.0776   26.5249 O   0  0  0  0  0  0  0  0  0  0  0  0
   15.4377  -16.0975   22.5875 O   0  0  0  0  0  0  0  0  0  0  0  0
   11.9818  -17.9209   26.1315 O   0  0  0  0  0  0  0  0  0  0  0  0
  2  1  1  6
  2  7  1  0
  3  2  1  0
  4  3  1  0
  5  4  1  0
  6  5  2  0
  7 10  1  0
  7  8  2  0
  9  5  1  0
 10 11  1  0
 11 12  1  1
 13 12  1  0
 14 11  1  0
 14 16  1  0
 15 14  2  0
 17 18  1  1
 17 22  1  0
 17 16  1  0
 19 18  1  0
 19 20  1  0
 20 24  1  0
 21 20  2  0
 22 25  1  0
 23 22  2  0
M  END
$$$$
