ECE.pdb
     RDKit          3D

 25 24  0  0  1  0  0  0  0  0999 V2000
   10.8774  -16.0559   21.5186 N   0  0  0  0  0  0  0  0  0  0  0  0
    9.6666  -16.2225   22.3528 C   0  0  1  0  0  0  0  0  0  0  0  0
    9.1498  -17.6123   22.2284 C   0  0  0  0  0  0  0  0  0  0  0  0
   10.1136  -18.6489   21.7829 C   0  0  0  0  0  0  0  0  0  0  0  0
    9.4148  -19.9689   21.5919 C   0  0  0  0  0  0  0  0  0  0  0  0
    9.7622  -20.9184   22.3063 O   0  0  0  0  0  0  0  0  0  0  0  0
   10.1197  -15.9665   23.7407 C   0  0  0  0  0  0  0  0  0  0  0  0
   11.3166  -16.2381   24.0139 O   0  0  0  0  0  0  0  0  0  0  0  0
    8.4190  -20.1568   20.6665 O   0  0  0  0  0  0  0  0  0  0  0  0
    9.2500  -15.4338   24.7419 N   0  0  0  0  0  0  0  0  0  0  0  0
    9.7739  -15.1739   26.0405 C   0  0  1  0  0  0  0  0  0  0  0  0
    8.9134  -14.2137   26.8397 C   0  0  0  0  0  0  0  0  0  0  0  0
    9.7668  -13.8209   28.3639 S   0  0  0  0  0  0  0  0  0  0  0  0
   10.0122  -16.4321   26.8195 C   0  0  0  0  0  0  0  0  0  0  0  0
    9.0837  -17.2535   27.0298 O   0  0  0  0  0  0  0  0  0  0  0  0
   11.2805  -16.7729   27.3617 N   0  0  0  0  0  0  0  0  0  0  0  0
   11.4906  -17.8985   28.2520 C   0  0  1  0  0  0  0  0  0  0  0  0
   12.9096  -18.0284   28.6999 C   0  0  0  0  0  0  0  0  0  0  0  0
   13.1653  -19.2428   29.5473 C   0  0  0  0  0  0  0  0  0  0  0  0
   14.5625  -19.4583   29.9213 C   0  0  0  0  0  0  0  0  0  0  0  0
   15.5499  -18.7764   29.6121 O   0  0  0  0  0  0  0  0  0  0  0  0
   10.5370  -17.8713   29.3967 C   0  0  0  0  0  0  0  0  0  0  0  0
   10.2261  -16.8428   30.0080 O   0  0  0  0  0  0  0  0  0  0  0  0
   14.8325  -20.5780   30.7347 O   0  0  0  0  0  0  0  0  0  0  0  0
    9.9777  -19.0800   29.7821 O   0  0  0  0  0  0  0  0  0  0  0  0
  2  1  1  6
  2  7  1  0
  3  2  1  0
  4  3  1  0
  5  4  1  0
  6  5  2  0
  7 10  1  0
  7  8  2  0
  9  5  1  0
 10 11  1  0
 11 12  1  1
 13 12  1  0
 14 11  1  0
 14 16  1  0
 15 14  2  0
 17 18  1  1
 17 22  1  0
 17 16  1  0
 19 18  1  0
 19 20  1  0
 20 24  1  0
 21 20  2  0
 22 25  1  0
 23 22  2  0
M  END
$$$$
