ECE.pdb
     RDKit          3D

 25 24  0  0  1  0  0  0  0  0999 V2000
    8.6626  -14.5443   20.4816 N   0  0  0  0  0  0  0  0  0  0  0  0
    7.4894  -14.7528   21.3590 C   0  0  1  0  0  0  0  0  0  0  0  0
    7.0808  -16.1833   21.3316 C   0  0  0  0  0  0  0  0  0  0  0  0
    8.1668  -17.1924   21.3954 C   0  0  0  0  0  0  0  0  0  0  0  0
    7.6042  -18.5805   21.2416 C   0  0  0  0  0  0  0  0  0  0  0  0
    7.3668  -18.9872   20.0968 O   0  0  0  0  0  0  0  0  0  0  0  0
    7.9547  -14.3785   22.7156 C   0  0  0  0  0  0  0  0  0  0  0  0
    9.1629  -14.5944   22.9888 O   0  0  0  0  0  0  0  0  0  0  0  0
    7.3477  -19.4021   22.3105 O   0  0  0  0  0  0  0  0  0  0  0  0
    7.0842  -13.7957   23.6878 N   0  0  0  0  0  0  0  0  0  0  0  0
    7.6096  -13.4601   24.9682 C   0  0  1  0  0  0  0  0  0  0  0  0
    6.6552  -12.6169   25.7923 C   0  0  0  0  0  0  0  0  0  0  0  0
    7.4303  -12.2556   27.3653 S   0  0  0  0  0  0  0  0  0  0  0  0
    8.0368  -14.6705   25.7424 C   0  0  0  0  0  0  0  0  0  0  0  0
    7.2750  -15.6622   25.8731 O   0  0  0  0  0  0  0  0  0  0  0  0
    9.3082  -14.7745   26.3680 N   0  0  0  0  0  0  0  0  0  0  0  0
    9.7489  -15.9548   27.0869 C   0  0  1  0  0  0  0  0  0  0  0  0
   10.8549  -16.6793   26.3919 C   0  0  0  0  0  0  0  0  0  0  0  0
   12.1609  -15.9357   26.4001 C   0  0  0  0  0  0  0  0  0  0  0  0
   13.2168  -16.5227   25.5760 C   0  0  0  0  0  0  0  0  0  0  0  0
   13.8093  -17.5977   25.7454 O   0  0  0  0  0  0  0  0  0  0  0  0
   10.0851  -15.6346   28.5028 C   0  0  0  0  0  0  0  0  0  0  0  0
   10.0442  -14.4942   28.9779 O   0  0  0  0  0  0  0  0  0  0  0  0
   13.6193  -15.7828   24.4452 O   0  0  0  0  0  0  0  0  0  0  0  0
   10.4631  -16.6913   29.3170 O   0  0  0  0  0  0  0  0  0  0  0  0
  2  1  1  6
  2  7  1  0
  3  2  1  0
  4  3  1  0
  5  4  1  0
  6  5  2  0
  7 10  1  0
  7  8  2  0
  9  5  1  0
 10 11  1  0
 11 12  1  1
 13 12  1  0
 14 11  1  0
 14 16  1  0
 15 14  2  0
 17 18  1  6
 17 22  1  0
 17 16  1  0
 19 18  1  0
 19 20  1  0
 20 24  1  0
 21 20  2  0
 22 25  1  0
 23 22  2  0
M  END
$$$$
