ECE.pdb
     RDKit          3D

 25 24  0  0  1  0  0  0  0  0999 V2000
   14.0039  -13.6595   14.4799 N   0  0  0  0  0  0  0  0  0  0  0  0
   13.4884  -14.9306   15.0350 C   0  0  1  0  0  0  0  0  0  0  0  0
   14.4610  -16.0281   14.7826 C   0  0  0  0  0  0  0  0  0  0  0  0
   15.7580  -15.9530   15.4994 C   0  0  0  0  0  0  0  0  0  0  0  0
   16.6097  -17.1506   15.1718 C   0  0  0  0  0  0  0  0  0  0  0  0
   17.8194  -16.9683   14.9817 O   0  0  0  0  0  0  0  0  0  0  0  0
   13.3571  -14.6870   16.4912 C   0  0  0  0  0  0  0  0  0  0  0  0
   14.2622  -14.0125   17.0450 O   0  0  0  0  0  0  0  0  0  0  0  0
   16.1014  -18.4219   15.0771 O   0  0  0  0  0  0  0  0  0  0  0  0
   12.2567  -15.1881   17.2531 N   0  0  0  0  0  0  0  0  0  0  0  0
   12.1912  -14.8906   18.6443 C   0  0  1  0  0  0  0  0  0  0  0  0
   10.8578  -15.2654   19.2630 C   0  0  0  0  0  0  0  0  0  0  0  0
   10.8724  -14.7729   20.9843 S   0  0  0  0  0  0  0  0  0  0  0  0
   13.3162  -15.5154   19.4127 C   0  0  0  0  0  0  0  0  0  0  0  0
   13.8045  -16.6218   19.0685 O   0  0  0  0  0  0  0  0  0  0  0  0
   13.8943  -14.9091   20.5603 N   0  0  0  0  0  0  0  0  0  0  0  0
   14.9911  -15.4969   21.3055 C   0  0  1  0  0  0  0  0  0  0  0  0
   16.2460  -14.6908   21.2256 C   0  0  0  0  0  0  0  0  0  0  0  0
   17.4249  -15.3436   21.8909 C   0  0  0  0  0  0  0  0  0  0  0  0
   18.6746  -14.5870   21.8254 C   0  0  0  0  0  0  0  0  0  0  0  0
   19.0132  -13.6107   22.5092 O   0  0  0  0  0  0  0  0  0  0  0  0
   14.5966  -15.7904   22.7121 C   0  0  0  0  0  0  0  0  0  0  0  0
   13.6183  -15.2828   23.2717 O   0  0  0  0  0  0  0  0  0  0  0  0
   19.6199  -15.0116   20.8692 O   0  0  0  0  0  0  0  0  0  0  0  0
   15.3860  -16.6872   23.4157 O   0  0  0  0  0  0  0  0  0  0  0  0
  2  1  1  6
  2  7  1  0
  3  2  1  0
  4  3  1  0
  5  4  1  0
  6  5  2  0
  7 10  1  0
  7  8  2  0
  9  5  1  0
 10 11  1  0
 11 12  1  1
 13 12  1  0
 14 11  1  0
 14 16  1  0
 15 14  2  0
 17 18  1  1
 17 22  1  0
 17 16  1  0
 19 18  1  0
 19 20  1  0
 20 24  1  0
 21 20  2  0
 22 25  1  0
 23 22  2  0
M  END
$$$$
