ECE.pdb
     RDKit          3D

 25 24  0  0  1  0  0  0  0  0999 V2000
    7.7920  -13.9224   19.6117 N   0  0  0  0  0  0  0  0  0  0  0  0
    6.8794  -14.2973   20.7146 C   0  0  1  0  0  0  0  0  0  0  0  0
    6.4013  -15.6939   20.5275 C   0  0  0  0  0  0  0  0  0  0  0  0
    7.4377  -16.7356   20.3209 C   0  0  0  0  0  0  0  0  0  0  0  0
    6.8037  -18.0988   20.2390 C   0  0  0  0  0  0  0  0  0  0  0  0
    7.5508  -19.0852   20.2009 O   0  0  0  0  0  0  0  0  0  0  0  0
    7.7025  -14.1975   21.9431 C   0  0  0  0  0  0  0  0  0  0  0  0
    8.9500  -14.2780   21.8074 O   0  0  0  0  0  0  0  0  0  0  0  0
    5.4446  -18.2868   20.2054 O   0  0  0  0  0  0  0  0  0  0  0  0
    7.1239  -14.0173   23.2375 N   0  0  0  0  0  0  0  0  0  0  0  0
    7.9784  -14.0006   24.3767 C   0  0  1  0  0  0  0  0  0  0  0  0
    7.3240  -13.3731   25.5928 C   0  0  0  0  0  0  0  0  0  0  0  0
    5.7708  -14.2103   25.8969 S   0  0  0  0  0  0  0  0  0  0  0  0
    8.5042  -15.3634   24.7127 C   0  0  0  0  0  0  0  0  0  0  0  0
    7.8480  -16.4004   24.4387 O   0  0  0  0  0  0  0  0  0  0  0  0
    9.7564  -15.5690   25.3518 N   0  0  0  0  0  0  0  0  0  0  0  0
   10.3267  -16.8823   25.5845 C   0  0  1  0  0  0  0  0  0  0  0  0
   11.6833  -17.0422   24.9802 C   0  0  0  0  0  0  0  0  0  0  0  0
   12.2698  -18.4127   25.1703 C   0  0  0  0  0  0  0  0  0  0  0  0
   13.6016  -18.6050   24.5975 C   0  0  0  0  0  0  0  0  0  0  0  0
   14.6633  -18.8354   25.1933 O   0  0  0  0  0  0  0  0  0  0  0  0
   10.3080  -17.2340   27.0323 C   0  0  0  0  0  0  0  0  0  0  0  0
   10.1480  -16.4082   27.9382 O   0  0  0  0  0  0  0  0  0  0  0  0
   13.7029  -18.5199   23.1937 O   0  0  0  0  0  0  0  0  0  0  0  0
   10.4819  -18.5698   27.3604 O   0  0  0  0  0  0  0  0  0  0  0  0
  2  1  1  6
  2  7  1  0
  3  2  1  0
  4  3  1  0
  5  4  1  0
  6  5  2  0
  7 10  1  0
  7  8  2  0
  9  5  1  0
 10 11  1  0
 11 12  1  1
 13 12  1  0
 14 11  1  0
 14 16  1  0
 15 14  2  0
 17 18  1  1
 17 22  1  0
 17 16  1  0
 19 18  1  0
 19 20  1  0
 20 24  1  0
 21 20  2  0
 22 25  1  0
 23 22  2  0
M  END
$$$$
