ECE.pdb
     RDKit          3D

 25 24  0  0  1  0  0  0  0  0999 V2000
    7.8559  -18.0049   21.6758 N   0  0  0  0  0  0  0  0  0  0  0  0
    9.2434  -17.5007   21.5747 C   0  0  1  0  0  0  0  0  0  0  0  0
    9.5198  -17.0454   20.1853 C   0  0  0  0  0  0  0  0  0  0  0  0
    8.3440  -16.7788   19.3204 C   0  0  0  0  0  0  0  0  0  0  0  0
    8.7862  -16.2679   17.9749 C   0  0  0  0  0  0  0  0  0  0  0  0
    7.9128  -16.0064   17.1374 O   0  0  0  0  0  0  0  0  0  0  0  0
    9.3031  -16.3536   22.5114 C   0  0  0  0  0  0  0  0  0  0  0  0
   10.3883  -15.7220   22.5784 O   0  0  0  0  0  0  0  0  0  0  0  0
   10.1057  -16.0834   17.6458 O   0  0  0  0  0  0  0  0  0  0  0  0
    8.1864  -15.9641   23.3139 N   0  0  0  0  0  0  0  0  0  0  0  0
    8.3788  -14.9876   24.3326 C   0  0  1  0  0  0  0  0  0  0  0  0
    7.0861  -14.3140   24.7523 C   0  0  0  0  0  0  0  0  0  0  0  0
    7.4560  -13.1307   26.0441 S   0  0  0  0  0  0  0  0  0  0  0  0
    9.0876  -15.5466   25.5292 C   0  0  0  0  0  0  0  0  0  0  0  0
    8.6383  -16.5476   26.1434 O   0  0  0  0  0  0  0  0  0  0  0  0
   10.2922  -14.9918   26.0388 N   0  0  0  0  0  0  0  0  0  0  0  0
   10.9668  -15.4983   27.2188 C   0  0  1  0  0  0  0  0  0  0  0  0
   12.4417  -15.6385   27.0298 C   0  0  0  0  0  0  0  0  0  0  0  0
   12.8199  -16.5253   25.8770 C   0  0  0  0  0  0  0  0  0  0  0  0
   14.2567  -16.7199   25.6863 C   0  0  0  0  0  0  0  0  0  0  0  0
   14.9182  -17.7521   25.8660 O   0  0  0  0  0  0  0  0  0  0  0  0
   10.6255  -14.6951   28.4266 C   0  0  0  0  0  0  0  0  0  0  0  0
    9.9848  -13.6386   28.3909 O   0  0  0  0  0  0  0  0  0  0  0  0
   14.9916  -15.6011   25.2431 O   0  0  0  0  0  0  0  0  0  0  0  0
   11.0615  -15.1786   29.6508 O   0  0  0  0  0  0  0  0  0  0  0  0
  2  1  1  6
  2  7  1  0
  3  2  1  0
  4  3  1  0
  5  4  1  0
  6  5  2  0
  7 10  1  0
  7  8  2  0
  9  5  1  0
 10 11  1  0
 11 12  1  1
 13 12  1  0
 14 11  1  0
 14 16  1  0
 15 14  2  0
 17 18  1  6
 17 22  1  0
 17 16  1  0
 19 18  1  0
 19 20  1  0
 20 24  1  0
 21 20  2  0
 22 25  1  0
 23 22  2  0
M  END
$$$$
