ECE.pdb
     RDKit          3D

 25 24  0  0  1  0  0  0  0  0999 V2000
    9.7165  -15.4239   20.6448 N   0  0  0  0  0  0  0  0  0  0  0  0
    8.4319  -15.3707   21.3775 C   0  0  1  0  0  0  0  0  0  0  0  0
    7.8000  -16.7177   21.3959 C   0  0  0  0  0  0  0  0  0  0  0  0
    8.6494  -17.8510   21.8387 C   0  0  0  0  0  0  0  0  0  0  0  0
    7.9125  -19.1542   21.6782 C   0  0  0  0  0  0  0  0  0  0  0  0
    8.5789  -20.1757   21.4659 O   0  0  0  0  0  0  0  0  0  0  0  0
    8.7930  -14.9551   22.7536 C   0  0  0  0  0  0  0  0  0  0  0  0
    9.9877  -15.1202   23.1091 O   0  0  0  0  0  0  0  0  0  0  0  0
    6.5458  -19.2511   21.7574 O   0  0  0  0  0  0  0  0  0  0  0  0
    7.8397  -14.3883   23.6551 N   0  0  0  0  0  0  0  0  0  0  0  0
    8.2805  -13.9518   24.9371 C   0  0  1  0  0  0  0  0  0  0  0  0
    7.2657  -13.0683   25.6377 C   0  0  0  0  0  0  0  0  0  0  0  0
    7.9979  -12.4533   27.1515 S   0  0  0  0  0  0  0  0  0  0  0  0
    8.6750  -15.0953   25.8223 C   0  0  0  0  0  0  0  0  0  0  0  0
    7.8843  -16.0464   26.0486 O   0  0  0  0  0  0  0  0  0  0  0  0
    9.9458  -15.1778   26.4523 N   0  0  0  0  0  0  0  0  0  0  0  0
   10.3101  -16.2342   27.3770 C   0  0  1  0  0  0  0  0  0  0  0  0
   11.6606  -16.8090   27.1000 C   0  0  0  0  0  0  0  0  0  0  0  0
   11.7670  -17.4783   25.7586 C   0  0  0  0  0  0  0  0  0  0  0  0
   13.1289  -17.7799   25.3195 C   0  0  0  0  0  0  0  0  0  0  0  0
   14.1926  -17.5329   25.9050 O   0  0  0  0  0  0  0  0  0  0  0  0
   10.1638  -15.7918   28.7924 C   0  0  0  0  0  0  0  0  0  0  0  0
    9.8015  -14.6574   29.1239 O   0  0  0  0  0  0  0  0  0  0  0  0
   13.2611  -18.4330   24.0768 O   0  0  0  0  0  0  0  0  0  0  0  0
   10.4557  -16.7217   29.7785 O   0  0  0  0  0  0  0  0  0  0  0  0
  2  1  1  6
  2  7  1  0
  3  2  1  0
  4  3  1  0
  5  4  1  0
  6  5  2  0
  7 10  1  0
  7  8  2  0
  9  5  1  0
 10 11  1  0
 11 12  1  1
 13 12  1  0
 14 11  1  0
 14 16  1  0
 15 14  2  0
 17 18  1  6
 17 22  1  0
 17 16  1  0
 19 18  1  0
 19 20  1  0
 20 24  1  0
 21 20  2  0
 22 25  1  0
 23 22  2  0
M  END
$$$$
