TYN.pdb
     RDKit          3D

 28 28  0  0  1  0  0  0  0  0999 V2000
   23.9944  -32.8236  -13.5600 C   0  0  0  0  0  0  0  0  0  0  0  0
   24.1389  -33.5049  -12.2152 C   0  0  1  0  0  0  0  0  0  0  0  0
   22.8380  -33.7492  -11.7585 O   0  0  0  0  0  0  0  0  0  0  0  0
   24.7810  -34.8610  -12.4243 C   0  0  2  0  0  0  0  0  0  0  0  0
   23.8782  -35.6555  -13.2163 N   0  0  0  0  0  0  0  0  0  0  0  0
   25.1261  -35.5121  -11.1364 C   0  0  0  0  0  0  0  0  0  0  0  0
   24.3841  -36.4159  -10.6796 O   0  0  0  0  0  0  0  0  0  0  0  0
   27.4001  -41.4110  -12.0199 O   0  0  0  0  0  0  0  0  0  0  0  0
   27.5233  -40.2459  -11.2977 C   0  0  0  0  0  0  0  0  0  0  0  0
   27.9955  -39.1340  -11.9707 C   0  0  0  0  0  0  0  0  0  0  0  0
   28.1407  -37.9384  -11.3017 C   0  0  0  0  0  0  0  0  0  0  0  0
   27.8300  -37.7985   -9.9649 C   0  0  0  0  0  0  0  0  0  0  0  0
   27.9961  -36.4967   -9.2655 C   0  0  0  0  0  0  0  0  0  0  0  0
   26.6558  -35.7817   -9.1354 C   0  0  2  0  0  0  0  0  0  0  0  0
   26.2743  -35.1641  -10.3725 N   0  0  0  0  0  0  0  0  0  0  0  0
   26.7623  -34.8260   -8.0130 C   0  0  0  0  0  0  0  0  0  0  0  0
   27.3935  -33.7481   -8.1664 O   0  0  0  0  0  0  0  0  0  0  0  0
   27.3555  -38.9249   -9.2978 C   0  0  0  0  0  0  0  0  0  0  0  0
   27.2083  -40.1225   -9.9611 C   0  0  0  0  0  0  0  0  0  0  0  0
   24.9099  -31.6011   -3.8329 N   0  0  0  0  0  0  0  0  0  0  0  0
   24.7660  -33.0076   -3.9294 C   0  0  0  0  0  0  0  0  0  0  0  0
   24.5447  -33.6677   -2.9007 O   0  0  0  0  0  0  0  0  0  0  0  0
   24.8826  -33.6404   -5.2389 C   0  0  0  0  0  0  0  0  0  0  0  0
   26.2745  -34.0609   -5.6426 C   0  0  2  0  0  0  0  0  0  0  0  0
   26.1842  -35.0489   -6.7385 N   0  0  0  0  0  0  0  0  0  0  0  0
   27.0027  -34.7532   -4.5682 C   0  0  0  0  0  0  0  0  0  0  0  0
   27.0277  -36.1279   -4.5043 O   0  0  0  0  0  0  0  0  0  0  0  0
   27.6124  -34.1167   -3.6926 O   0  0  0  0  0  0  0  0  0  0  0  0
  2  1  1  6
  2  4  1  0
  3  2  1  0
  4  5  1  1
  6  4  1  0
  7  6  2  0
  9  8  1  0
  9 10  2  0
 10 11  1  0
 12 13  1  0
 12 11  2  0
 14 15  1  0
 14 13  1  6
 15  6  1  0
 16 14  1  0
 17 16  2  0
 18 12  1  0
 19 18  2  0
 19  9  1  0
 20 21  1  0
 21 22  2  0
 23 21  1  0
 24 23  1  1
 24 25  1  0
 25 16  1  0
 26 24  1  0
 26 27  1  0
 28 26  2  0
M  END
$$$$
