TYN.pdb
     RDKit          3D

 28 28  0  0  1  0  0  0  0  0999 V2000
   38.1082    0.0413   -7.2612 C   0  0  0  0  0  0  0  0  0  0  0  0
   36.7288   -0.0322   -6.6403 C   0  0  1  0  0  0  0  0  0  0  0  0
   36.1813   -1.2550   -7.0472 O   0  0  0  0  0  0  0  0  0  0  0  0
   36.8775   -0.1096   -5.1346 C   0  0  2  0  0  0  0  0  0  0  0  0
   37.3669    1.1649   -4.6768 N   0  0  0  0  0  0  0  0  0  0  0  0
   37.7557   -1.2332   -4.7243 C   0  0  0  0  0  0  0  0  0  0  0  0
   38.9948   -1.0519   -4.6362 O   0  0  0  0  0  0  0  0  0  0  0  0
   37.9222   -0.7595    1.6785 O   0  0  0  0  0  0  0  0  0  0  0  0
   37.8829   -1.6353    0.6175 C   0  0  0  0  0  0  0  0  0  0  0  0
   36.7111   -1.6861   -0.1150 C   0  0  0  0  0  0  0  0  0  0  0  0
   36.6107   -2.5433   -1.1888 C   0  0  0  0  0  0  0  0  0  0  0  0
   37.6469   -3.3689   -1.5732 C   0  0  0  0  0  0  0  0  0  0  0  0
   37.5132   -4.2858   -2.7363 C   0  0  0  0  0  0  0  0  0  0  0  0
   38.0742   -3.6389   -3.9978 C   0  0  2  0  0  0  0  0  0  0  0  0
   37.2642   -2.5323   -4.4184 N   0  0  0  0  0  0  0  0  0  0  0  0
   38.2030   -4.6932   -5.0255 C   0  0  0  0  0  0  0  0  0  0  0  0
   37.2466   -5.4841   -5.2343 O   0  0  0  0  0  0  0  0  0  0  0  0
   38.8218   -3.3091   -0.8282 C   0  0  0  0  0  0  0  0  0  0  0  0
   38.9280   -2.4543    0.2462 C   0  0  0  0  0  0  0  0  0  0  0  0
   39.2037   -7.3314   -9.3042 N   0  0  0  0  0  0  0  0  0  0  0  0
   38.2620   -6.2853   -9.1393 C   0  0  0  0  0  0  0  0  0  0  0  0
   37.4205   -6.0795  -10.0294 O   0  0  0  0  0  0  0  0  0  0  0  0
   38.3095   -5.4785   -7.9246 C   0  0  0  0  0  0  0  0  0  0  0  0
   39.4106   -5.8221   -6.9516 C   0  0  2  0  0  0  0  0  0  0  0  0
   39.3655   -4.8784   -5.8146 N   0  0  0  0  0  0  0  0  0  0  0  0
   40.7566   -5.6617   -7.5230 C   0  0  0  0  0  0  0  0  0  0  0  0
   41.7741   -6.5252   -7.1861 O   0  0  0  0  0  0  0  0  0  0  0  0
   41.0093   -4.7449   -8.3225 O   0  0  0  0  0  0  0  0  0  0  0  0
  2  1  1  6
  2  4  1  0
  3  2  1  0
  4  5  1  6
  6  4  1  0
  7  6  2  0
  9  8  1  0
  9 10  2  0
 10 11  1  0
 12 13  1  0
 12 11  2  0
 14 15  1  0
 14 13  1  1
 15  6  1  0
 16 14  1  0
 17 16  2  0
 18 12  1  0
 19 18  2  0
 19  9  1  0
 20 21  1  0
 21 22  2  0
 23 21  1  0
 24 23  1  6
 24 25  1  0
 25 16  1  0
 26 24  1  0
 26 27  1  0
 28 26  2  0
M  END
$$$$
