TYN.pdb
     RDKit          3D

 28 28  0  0  1  0  0  0  0  0999 V2000
   26.0230  -29.5022  -21.2135 C   0  0  0  0  0  0  0  0  0  0  0  0
   27.3098  -29.2702  -21.9776 C   0  0  1  0  0  0  0  0  0  0  0  0
   27.1134  -28.1061  -22.7304 O   0  0  0  0  0  0  0  0  0  0  0  0
   28.4132  -28.9587  -20.9874 C   0  0  2  0  0  0  0  0  0  0  0  0
   29.6364  -28.7994  -21.7304 N   0  0  0  0  0  0  0  0  0  0  0  0
   28.5215  -30.0008  -19.9366 C   0  0  0  0  0  0  0  0  0  0  0  0
   29.0089  -31.1219  -20.2224 O   0  0  0  0  0  0  0  0  0  0  0  0
   34.4852  -31.0853  -18.0172 O   0  0  0  0  0  0  0  0  0  0  0  0
   33.1797  -30.8495  -17.6504 C   0  0  0  0  0  0  0  0  0  0  0  0
   32.4620  -31.9207  -17.1507 C   0  0  0  0  0  0  0  0  0  0  0  0
   31.1504  -31.7473  -16.7665 C   0  0  0  0  0  0  0  0  0  0  0  0
   30.5090  -30.5295  -16.8598 C   0  0  0  0  0  0  0  0  0  0  0  0
   29.0920  -30.3685  -16.4385 C   0  0  0  0  0  0  0  0  0  0  0  0
   28.1472  -30.7896  -17.5587 C   0  0  2  0  0  0  0  0  0  0  0  0
   28.0956  -29.7988  -18.5946 N   0  0  0  0  0  0  0  0  0  0  0  0
   26.8288  -31.0721  -16.9535 C   0  0  0  0  0  0  0  0  0  0  0  0
   26.1924  -30.1499  -16.3805 O   0  0  0  0  0  0  0  0  0  0  0  0
   31.2418  -29.4583  -17.3644 C   0  0  0  0  0  0  0  0  0  0  0  0
   32.5531  -29.6255  -17.7500 C   0  0  0  0  0  0  0  0  0  0  0  0
   22.2391  -33.2925  -15.7193 N   0  0  0  0  0  0  0  0  0  0  0  0
   22.8944  -34.1182  -16.6664 C   0  0  0  0  0  0  0  0  0  0  0  0
   22.3284  -35.1479  -17.0693 O   0  0  0  0  0  0  0  0  0  0  0  0
   24.2188  -33.7326  -17.1416 C   0  0  0  0  0  0  0  0  0  0  0  0
   24.8781  -32.5977  -16.3970 C   0  0  2  0  0  0  0  0  0  0  0  0
   26.2154  -32.3494  -16.9760 N   0  0  0  0  0  0  0  0  0  0  0  0
   25.1303  -32.9059  -14.9810 C   0  0  0  0  0  0  0  0  0  0  0  0
   26.2386  -33.6289  -14.6023 O   0  0  0  0  0  0  0  0  0  0  0  0
   24.3514  -32.5225  -14.0921 O   0  0  0  0  0  0  0  0  0  0  0  0
  2  1  1  1
  2  4  1  0
  3  2  1  0
  4  5  1  6
  6  4  1  0
  7  6  2  0
  9  8  1  0
  9 10  2  0
 10 11  1  0
 12 13  1  0
 12 11  2  0
 14 15  1  0
 14 13  1  1
 15  6  1  0
 16 14  1  0
 17 16  2  0
 18 12  1  0
 19 18  2  0
 19  9  1  0
 20 21  1  0
 21 22  2  0
 23 21  1  0
 24 23  1  6
 24 25  1  0
 25 16  1  0
 26 24  1  0
 26 27  1  0
 28 26  2  0
M  END
$$$$
