TYN.pdb
     RDKit          3D

 28 28  0  0  1  0  0  0  0  0999 V2000
   45.5343  -11.3298   -4.0001 C   0  0  0  0  0  0  0  0  0  0  0  0
   44.7649  -10.4350   -4.9492 C   0  0  1  0  0  0  0  0  0  0  0  0
   45.6807  -10.0179   -5.9227 O   0  0  0  0  0  0  0  0  0  0  0  0
   43.7257  -11.2700   -5.6688 C   0  0  2  0  0  0  0  0  0  0  0  0
   44.4225  -12.2635   -6.4442 N   0  0  0  0  0  0  0  0  0  0  0  0
   42.8251  -10.4333   -6.4999 C   0  0  0  0  0  0  0  0  0  0  0  0
   43.0481  -10.3143   -7.7296 O   0  0  0  0  0  0  0  0  0  0  0  0
   36.9711  -11.8178  -10.7727 O   0  0  0  0  0  0  0  0  0  0  0  0
   37.5462  -11.2099   -9.6800 C   0  0  0  0  0  0  0  0  0  0  0  0
   38.0391   -9.9301   -9.8574 C   0  0  0  0  0  0  0  0  0  0  0  0
   38.6263   -9.2694   -8.8007 C   0  0  0  0  0  0  0  0  0  0  0  0
   38.7467   -9.8385   -7.5498 C   0  0  0  0  0  0  0  0  0  0  0  0
   39.3853   -9.1041   -6.4254 C   0  0  0  0  0  0  0  0  0  0  0  0
   40.8599   -8.8499   -6.7181 C   0  0  2  0  0  0  0  0  0  0  0  0
   41.6989   -9.7430   -5.9725 N   0  0  0  0  0  0  0  0  0  0  0  0
   41.1342   -7.4238   -6.4437 C   0  0  0  0  0  0  0  0  0  0  0  0
   41.4055   -7.0526   -5.2722 O   0  0  0  0  0  0  0  0  0  0  0  0
   38.2468  -11.1274   -7.3832 C   0  0  0  0  0  0  0  0  0  0  0  0
   37.6588  -11.7928   -8.4356 C   0  0  0  0  0  0  0  0  0  0  0  0
   42.5032   -2.3933   -7.2220 N   0  0  0  0  0  0  0  0  0  0  0  0
   43.2490   -3.3503   -7.9543 C   0  0  0  0  0  0  0  0  0  0  0  0
   44.2909   -2.9967   -8.5308 O   0  0  0  0  0  0  0  0  0  0  0  0
   42.7691   -4.7270   -8.0091 C   0  0  0  0  0  0  0  0  0  0  0  0
   41.5470   -5.0292   -7.1771 C   0  0  2  0  0  0  0  0  0  0  0  0
   41.1114   -6.4171   -7.4408 N   0  0  0  0  0  0  0  0  0  0  0  0
   40.3877   -4.1955   -7.5303 C   0  0  0  0  0  0  0  0  0  0  0  0
   40.2465   -2.9274   -7.0140 O   0  0  0  0  0  0  0  0  0  0  0  0
   39.5080   -4.6132   -8.3019 O   0  0  0  0  0  0  0  0  0  0  0  0
  2  1  1  1
  2  4  1  0
  3  2  1  0
  4  5  1  6
  6  4  1  0
  7  6  2  0
  9  8  1  0
  9 10  2  0
 10 11  1  0
 12 13  1  0
 12 11  2  0
 14 15  1  0
 14 13  1  1
 15  6  1  0
 16 14  1  0
 17 16  2  0
 18 12  1  0
 19 18  2  0
 19  9  1  0
 20 21  1  0
 21 22  2  0
 23 21  1  0
 24 23  1  6
 24 25  1  0
 25 16  1  0
 26 24  1  0
 26 27  1  0
 28 26  2  0
M  END
$$$$
