TYN.pdb
     RDKit          3D

 28 28  0  0  1  0  0  0  0  0999 V2000
   27.9036  -16.9313  -19.8795 C   0  0  0  0  0  0  0  0  0  0  0  0
   27.2569  -17.6301  -18.7019 C   0  0  1  0  0  0  0  0  0  0  0  0
   26.0242  -18.1103  -19.1606 O   0  0  0  0  0  0  0  0  0  0  0  0
   28.0847  -18.8477  -18.3452 C   0  0  2  0  0  0  0  0  0  0  0  0
   28.1816  -19.6715  -19.5224 N   0  0  0  0  0  0  0  0  0  0  0  0
   27.5165  -19.5809  -17.1871 C   0  0  0  0  0  0  0  0  0  0  0  0
   26.7070  -20.5201  -17.3839 O   0  0  0  0  0  0  0  0  0  0  0  0
   25.0924  -21.4752   -8.9164 O   0  0  0  0  0  0  0  0  0  0  0  0
   25.7460  -20.9121   -9.9887 C   0  0  0  0  0  0  0  0  0  0  0  0
   26.4486  -21.7667  -10.8184 C   0  0  0  0  0  0  0  0  0  0  0  0
   27.1235  -21.2626  -11.9084 C   0  0  0  0  0  0  0  0  0  0  0  0
   27.1297  -19.9175  -12.2150 C   0  0  0  0  0  0  0  0  0  0  0  0
   27.8666  -19.3983  -13.3977 C   0  0  0  0  0  0  0  0  0  0  0  0
   27.1575  -19.7929  -14.6885 C   0  0  2  0  0  0  0  0  0  0  0  0
   27.8429  -19.2747  -15.8370 N   0  0  0  0  0  0  0  0  0  0  0  0
   25.7551  -19.3370  -14.5894 C   0  0  0  0  0  0  0  0  0  0  0  0
   25.4856  -18.1127  -14.6994 O   0  0  0  0  0  0  0  0  0  0  0  0
   26.4188  -19.0668  -11.3726 C   0  0  0  0  0  0  0  0  0  0  0  0
   25.7423  -19.5648  -10.2815 C   0  0  0  0  0  0  0  0  0  0  0  0
   22.1367  -17.3828  -15.3331 N   0  0  0  0  0  0  0  0  0  0  0  0
   22.0867  -18.5252  -16.1703 C   0  0  0  0  0  0  0  0  0  0  0  0
   21.5567  -18.4350  -17.2900 O   0  0  0  0  0  0  0  0  0  0  0  0
   22.6613  -19.7774  -15.6901 C   0  0  0  0  0  0  0  0  0  0  0  0
   23.2642  -19.7347  -14.3074 C   0  0  2  0  0  0  0  0  0  0  0  0
   24.6618  -20.2121  -14.3725 N   0  0  0  0  0  0  0  0  0  0  0  0
   22.5986  -20.6413  -13.3593 C   0  0  0  0  0  0  0  0  0  0  0  0
   21.6702  -20.1660  -12.4611 O   0  0  0  0  0  0  0  0  0  0  0  0
   22.8566  -21.8566  -13.3446 O   0  0  0  0  0  0  0  0  0  0  0  0
  2  1  1  6
  2  4  1  0
  3  2  1  0
  4  5  1  6
  6  4  1  0
  7  6  2  0
  9  8  1  0
  9 10  2  0
 10 11  1  0
 12 13  1  0
 12 11  2  0
 14 15  1  0
 14 13  1  1
 15  6  1  0
 16 14  1  0
 17 16  2  0
 18 12  1  0
 19 18  2  0
 19  9  1  0
 20 21  1  0
 21 22  2  0
 23 21  1  0
 24 23  1  6
 24 25  1  0
 25 16  1  0
 26 24  1  0
 26 27  1  0
 28 26  2  0
M  END
$$$$
