TYN.pdb
     RDKit          3D

 28 28  0  0  1  0  0  0  0  0999 V2000
   28.6593  -22.2653  -19.1316 C   0  0  0  0  0  0  0  0  0  0  0  0
   27.5400  -21.6408  -18.3250 C   0  0  1  0  0  0  0  0  0  0  0  0
   26.5978  -22.6546  -18.1130 O   0  0  0  0  0  0  0  0  0  0  0  0
   28.0773  -21.2635  -16.9597 C   0  0  2  0  0  0  0  0  0  0  0  0
   28.6796  -22.4390  -16.3859 N   0  0  0  0  0  0  0  0  0  0  0  0
   27.0209  -20.6880  -16.0911 C   0  0  0  0  0  0  0  0  0  0  0  0
   26.8041  -21.1910  -14.9614 O   0  0  0  0  0  0  0  0  0  0  0  0
   24.6665  -15.6699  -21.0703 O   0  0  0  0  0  0  0  0  0  0  0  0
   24.8742  -16.1083  -19.7824 C   0  0  0  0  0  0  0  0  0  0  0  0
   23.7608  -16.2345  -18.9720 C   0  0  0  0  0  0  0  0  0  0  0  0
   23.9046  -16.6689  -17.6726 C   0  0  0  0  0  0  0  0  0  0  0  0
   25.1333  -16.9897  -17.1336 C   0  0  0  0  0  0  0  0  0  0  0  0
   25.2618  -17.4562  -15.7274 C   0  0  0  0  0  0  0  0  0  0  0  0
   25.2026  -18.9781  -15.6585 C   0  0  2  0  0  0  0  0  0  0  0  0
   26.2217  -19.5749  -16.4726 N   0  0  0  0  0  0  0  0  0  0  0  0
   23.8352  -19.3932  -16.0356 C   0  0  0  0  0  0  0  0  0  0  0  0
   23.6097  -19.8253  -17.1958 O   0  0  0  0  0  0  0  0  0  0  0  0
   26.2471  -16.8588  -17.9589 C   0  0  0  0  0  0  0  0  0  0  0  0
   26.1096  -16.4251  -19.2586 C   0  0  0  0  0  0  0  0  0  0  0  0
   20.9747  -21.8017  -12.4670 N   0  0  0  0  0  0  0  0  0  0  0  0
   20.8598  -21.5593  -13.8585 C   0  0  0  0  0  0  0  0  0  0  0  0
   20.9742  -22.5081  -14.6519 O   0  0  0  0  0  0  0  0  0  0  0  0
   20.6098  -20.1976  -14.3190 C   0  0  0  0  0  0  0  0  0  0  0  0
   21.3729  -19.7707  -15.5489 C   0  0  2  0  0  0  0  0  0  0  0  0
   22.7287  -19.3353  -15.1520 N   0  0  0  0  0  0  0  0  0  0  0  0
   20.7813  -18.6021  -16.2185 C   0  0  0  0  0  0  0  0  0  0  0  0
   19.6782  -18.7371  -17.0306 O   0  0  0  0  0  0  0  0  0  0  0  0
   21.2607  -17.4657  -16.0687 O   0  0  0  0  0  0  0  0  0  0  0  0
  2  1  1  6
  2  4  1  0
  3  2  1  0
  4  5  1  1
  6  4  1  0
  7  6  2  0
  9  8  1  0
  9 10  2  0
 10 11  1  0
 12 13  1  0
 12 11  2  0
 14 15  1  0
 14 13  1  6
 15  6  1  0
 16 14  1  0
 17 16  2  0
 18 12  1  0
 19 18  2  0
 19  9  1  0
 20 21  1  0
 21 22  2  0
 23 21  1  0
 24 23  1  1
 24 25  1  0
 25 16  1  0
 26 24  1  0
 26 27  1  0
 28 26  2  0
M  END
$$$$
