TYN.pdb
     RDKit          3D

 28 28  0  0  1  0  0  0  0  0999 V2000
   18.5244  -14.1651  -19.7790 C   0  0  0  0  0  0  0  0  0  0  0  0
   18.6449  -12.8233  -19.0871 C   0  0  1  0  0  0  0  0  0  0  0  0
   17.3360  -12.3753  -18.8717 O   0  0  0  0  0  0  0  0  0  0  0  0
   19.2554  -13.0365  -17.7171 C   0  0  2  0  0  0  0  0  0  0  0  0
   18.4943  -14.0632  -17.0534 N   0  0  0  0  0  0  0  0  0  0  0  0
   19.3082  -11.7767  -16.9348 C   0  0  0  0  0  0  0  0  0  0  0  0
   18.3065  -11.4175  -16.2688 O   0  0  0  0  0  0  0  0  0  0  0  0
   22.3324   -4.2271  -13.4541 O   0  0  0  0  0  0  0  0  0  0  0  0
   22.2259   -5.5030  -13.9592 C   0  0  0  0  0  0  0  0  0  0  0  0
   22.5270   -5.6785  -15.2974 C   0  0  0  0  0  0  0  0  0  0  0  0
   22.4390   -6.9325  -15.8609 C   0  0  0  0  0  0  0  0  0  0  0  0
   22.0566   -8.0421  -15.1358 C   0  0  0  0  0  0  0  0  0  0  0  0
   21.9690   -9.3853  -15.7679 C   0  0  0  0  0  0  0  0  0  0  0  0
   20.5340   -9.6916  -16.1824 C   0  0  2  0  0  0  0  0  0  0  0  0
   20.4532  -10.9338  -16.8950 N   0  0  0  0  0  0  0  0  0  0  0  0
   20.0337   -8.5382  -16.9592 C   0  0  0  0  0  0  0  0  0  0  0  0
   20.3965   -8.3834  -18.1543 O   0  0  0  0  0  0  0  0  0  0  0  0
   21.7559   -7.8531  -13.7894 C   0  0  0  0  0  0  0  0  0  0  0  0
   21.8421   -6.6021  -13.2206 C   0  0  0  0  0  0  0  0  0  0  0  0
   17.1699   -4.9285  -19.4202 N   0  0  0  0  0  0  0  0  0  0  0  0
   16.5761   -5.5084  -18.2716 C   0  0  0  0  0  0  0  0  0  0  0  0
   15.5076   -5.0446  -17.8403 O   0  0  0  0  0  0  0  0  0  0  0  0
   17.2399   -6.6370  -17.6278 C   0  0  0  0  0  0  0  0  0  0  0  0
   18.6762   -6.4099  -17.2245 C   0  0  2  0  0  0  0  0  0  0  0  0
   19.1465   -7.5664  -16.4329 N   0  0  0  0  0  0  0  0  0  0  0  0
   18.8502   -5.2490  -16.3381 C   0  0  0  0  0  0  0  0  0  0  0  0
   19.5288   -4.1302  -16.7649 O   0  0  0  0  0  0  0  0  0  0  0  0
   18.3902   -5.2481  -15.1839 O   0  0  0  0  0  0  0  0  0  0  0  0
  2  1  1  6
  2  4  1  0
  3  2  1  0
  4  5  1  1
  6  4  1  0
  7  6  2  0
  9  8  1  0
  9 10  2  0
 10 11  1  0
 12 13  1  0
 12 11  2  0
 14 15  1  0
 14 13  1  6
 15  6  1  0
 16 14  1  0
 17 16  2  0
 18 12  1  0
 19 18  2  0
 19  9  1  0
 20 21  1  0
 21 22  2  0
 23 21  1  0
 24 23  1  1
 24 25  1  0
 25 16  1  0
 26 24  1  0
 26 27  1  0
 28 26  2  0
M  END
$$$$
