TYN.pdb
     RDKit          3D

 28 28  0  0  1  0  0  0  0  0999 V2000
   25.8806   -9.0190  -18.4258 C   0  0  0  0  0  0  0  0  0  0  0  0
   24.7115   -8.1930  -17.9312 C   0  0  1  0  0  0  0  0  0  0  0  0
   24.2200   -7.5035  -19.0462 O   0  0  0  0  0  0  0  0  0  0  0  0
   23.6078   -9.1308  -17.4869 C   0  0  2  0  0  0  0  0  0  0  0  0
   23.2519   -9.9533  -18.6141 N   0  0  0  0  0  0  0  0  0  0  0  0
   22.4448   -8.3919  -16.9363 C   0  0  0  0  0  0  0  0  0  0  0  0
   21.4842   -8.0969  -17.6889 O   0  0  0  0  0  0  0  0  0  0  0  0
   17.4228  -12.3649  -15.4951 O   0  0  0  0  0  0  0  0  0  0  0  0
   18.2621  -11.3604  -15.0697 C   0  0  0  0  0  0  0  0  0  0  0  0
   17.7632  -10.0708  -15.0908 C   0  0  0  0  0  0  0  0  0  0  0  0
   18.5556   -9.0226  -14.6769 C   0  0  0  0  0  0  0  0  0  0  0  0
   19.8492   -9.2057  -14.2340 C   0  0  0  0  0  0  0  0  0  0  0  0
   20.6844   -8.0571  -13.7928 C   0  0  0  0  0  0  0  0  0  0  0  0
   21.2362   -7.3005  -14.9960 C   0  0  2  0  0  0  0  0  0  0  0  0
   22.3531   -7.9894  -15.5752 N   0  0  0  0  0  0  0  0  0  0  0  0
   21.5608   -5.9278  -14.5546 C   0  0  0  0  0  0  0  0  0  0  0  0
   22.5872   -5.7210  -13.8563 O   0  0  0  0  0  0  0  0  0  0  0  0
   20.3406  -10.5085  -14.2172 C   0  0  0  0  0  0  0  0  0  0  0  0
   19.5534  -11.5602  -14.6297 C   0  0  0  0  0  0  0  0  0  0  0  0
   22.1389   -0.7990  -14.2631 N   0  0  0  0  0  0  0  0  0  0  0  0
   22.6302   -1.5475  -15.3616 C   0  0  0  0  0  0  0  0  0  0  0  0
   23.4252   -1.0143  -16.1531 O   0  0  0  0  0  0  0  0  0  0  0  0
   22.1859   -2.9270  -15.5304 C   0  0  0  0  0  0  0  0  0  0  0  0
   21.1769   -3.4191  -14.5220 C   0  0  2  0  0  0  0  0  0  0  0  0
   20.7703   -4.7959  -14.8745 N   0  0  0  0  0  0  0  0  0  0  0  0
   19.9277   -2.6423  -14.5292 C   0  0  0  0  0  0  0  0  0  0  0  0
   19.7661   -1.5573  -13.6980 O   0  0  0  0  0  0  0  0  0  0  0  0
   18.9882   -2.9448  -15.2840 O   0  0  0  0  0  0  0  0  0  0  0  0
  2  1  1  6
  2  4  1  0
  3  2  1  0
  4  5  1  6
  6  4  1  0
  7  6  2  0
  9  8  1  0
  9 10  2  0
 10 11  1  0
 12 13  1  0
 12 11  2  0
 14 15  1  0
 14 13  1  1
 15  6  1  0
 16 14  1  0
 17 16  2  0
 18 12  1  0
 19 18  2  0
 19  9  1  0
 20 21  1  0
 21 22  2  0
 23 21  1  0
 24 23  1  6
 24 25  1  0
 25 16  1  0
 26 24  1  0
 26 27  1  0
 28 26  2  0
M  END
$$$$
