TYN.pdb
     RDKit          3D

 28 28  0  0  1  0  0  0  0  0999 V2000
   26.2798  -10.9191  -14.9546 C   0  0  0  0  0  0  0  0  0  0  0  0
   26.4987  -11.4704  -16.3481 C   0  0  1  0  0  0  0  0  0  0  0  0
   27.6044  -12.3250  -16.2616 O   0  0  0  0  0  0  0  0  0  0  0  0
   25.3141  -12.3391  -16.7184 C   0  0  2  0  0  0  0  0  0  0  0  0
   25.6470  -13.0396  -17.9317 N   0  0  0  0  0  0  0  0  0  0  0  0
   24.0672  -11.5452  -16.8477 C   0  0  0  0  0  0  0  0  0  0  0  0
   23.8402  -10.9147  -17.9093 O   0  0  0  0  0  0  0  0  0  0  0  0
   19.2618  -15.5357  -19.1189 O   0  0  0  0  0  0  0  0  0  0  0  0
   19.5661  -14.5204  -18.2409 C   0  0  0  0  0  0  0  0  0  0  0  0
   20.5257  -14.7838  -17.2806 C   0  0  0  0  0  0  0  0  0  0  0  0
   20.8733  -13.8072  -16.3732 C   0  0  0  0  0  0  0  0  0  0  0  0
   20.2957  -12.5544  -16.3800 C   0  0  0  0  0  0  0  0  0  0  0  0
   20.6883  -11.5175  -15.3890 C   0  0  0  0  0  0  0  0  0  0  0  0
   21.8725  -10.7054  -15.9015 C   0  0  2  0  0  0  0  0  0  0  0  0
   23.0925  -11.4549  -15.8157 N   0  0  0  0  0  0  0  0  0  0  0  0
   21.9108   -9.4373  -15.1433 C   0  0  0  0  0  0  0  0  0  0  0  0
   22.6292   -9.3446  -14.1143 O   0  0  0  0  0  0  0  0  0  0  0  0
   19.3309  -12.3008  -17.3515 C   0  0  0  0  0  0  0  0  0  0  0  0
   18.9793  -13.2730  -18.2611 C   0  0  0  0  0  0  0  0  0  0  0  0
   21.7767   -4.3990  -13.8629 N   0  0  0  0  0  0  0  0  0  0  0  0
   22.8532   -5.0596  -14.5057 C   0  0  0  0  0  0  0  0  0  0  0  0
   23.9559   -4.4929  -14.5809 O   0  0  0  0  0  0  0  0  0  0  0  0
   22.6330   -6.3904  -15.0618 C   0  0  0  0  0  0  0  0  0  0  0  0
   21.2843   -7.0049  -14.7781 C   0  0  2  0  0  0  0  0  0  0  0  0
   21.1709   -8.2851  -15.5085 N   0  0  0  0  0  0  0  0  0  0  0  0
   20.1633   -6.1887  -15.2691 C   0  0  0  0  0  0  0  0  0  0  0  0
   19.5445   -5.2727  -14.4491 O   0  0  0  0  0  0  0  0  0  0  0  0
   19.7470   -6.3047  -16.4340 O   0  0  0  0  0  0  0  0  0  0  0  0
  2  1  1  1
  2  4  1  0
  3  2  1  0
  4  5  1  6
  6  4  1  0
  7  6  2  0
  9  8  1  0
  9 10  2  0
 10 11  1  0
 12 13  1  0
 12 11  2  0
 14 15  1  0
 14 13  1  1
 15  6  1  0
 16 14  1  0
 17 16  2  0
 18 12  1  0
 19 18  2  0
 19  9  1  0
 20 21  1  0
 21 22  2  0
 23 21  1  0
 24 23  1  6
 24 25  1  0
 25 16  1  0
 26 24  1  0
 26 27  1  0
 28 26  2  0
M  END
$$$$
