TYN.pdb
     RDKit          3D

 28 28  0  0  1  0  0  0  0  0999 V2000
   25.5139   -9.1298  -21.2203 C   0  0  0  0  0  0  0  0  0  0  0  0
   24.4410   -8.7198  -20.2332 C   0  0  1  0  0  0  0  0  0  0  0  0
   23.3433   -8.3063  -20.9979 O   0  0  0  0  0  0  0  0  0  0  0  0
   23.9911   -9.9470  -19.4673 C   0  0  2  0  0  0  0  0  0  0  0  0
   23.4974  -10.9036  -20.4237 N   0  0  0  0  0  0  0  0  0  0  0  0
   22.9834   -9.6116  -18.4311 C   0  0  0  0  0  0  0  0  0  0  0  0
   21.7613   -9.6683  -18.7128 O   0  0  0  0  0  0  0  0  0  0  0  0
   20.6853  -15.0039  -16.4286 O   0  0  0  0  0  0  0  0  0  0  0  0
   21.0574  -13.7306  -16.0616 C   0  0  0  0  0  0  0  0  0  0  0  0
   22.4049  -13.5042  -15.8490 C   0  0  0  0  0  0  0  0  0  0  0  0
   22.8392  -12.2500  -15.4796 C   0  0  0  0  0  0  0  0  0  0  0  0
   21.9731  -11.1898  -15.3092 C   0  0  0  0  0  0  0  0  0  0  0  0
   22.4672   -9.8454  -14.9096 C   0  0  0  0  0  0  0  0  0  0  0  0
   22.3889   -8.8737  -16.0819 C   0  0  2  0  0  0  0  0  0  0  0  0
   23.3292   -9.2208  -17.1079 N   0  0  0  0  0  0  0  0  0  0  0  0
   22.5821   -7.5087  -15.5491 C   0  0  0  0  0  0  0  0  0  0  0  0
   23.7382   -7.1107  -15.2513 O   0  0  0  0  0  0  0  0  0  0  0  0
   20.6187  -11.4298  -15.5261 C   0  0  0  0  0  0  0  0  0  0  0  0
   20.1787  -12.6812  -15.8954 C   0  0  0  0  0  0  0  0  0  0  0  0
   19.3620   -2.5142  -14.0967 N   0  0  0  0  0  0  0  0  0  0  0  0
   20.5813   -3.0116  -14.6204 C   0  0  0  0  0  0  0  0  0  0  0  0
   21.6023   -2.3070  -14.5563 O   0  0  0  0  0  0  0  0  0  0  0  0
   20.6009   -4.3409  -15.2213 C   0  0  0  0  0  0  0  0  0  0  0  0
   21.7389   -5.2361  -14.7963 C   0  0  2  0  0  0  0  0  0  0  0  0
   21.5214   -6.5914  -15.3452 N   0  0  0  0  0  0  0  0  0  0  0  0
   21.8113   -5.4254  -13.3393 C   0  0  0  0  0  0  0  0  0  0  0  0
   21.0742   -6.4073  -12.7174 O   0  0  0  0  0  0  0  0  0  0  0  0
   22.5379   -4.7055  -12.6340 O   0  0  0  0  0  0  0  0  0  0  0  0
  2  1  1  6
  2  4  1  0
  3  2  1  0
  4  5  1  6
  6  4  1  0
  7  6  2  0
  9  8  1  0
  9 10  2  0
 10 11  1  0
 12 13  1  0
 12 11  2  0
 14 15  1  0
 14 13  1  1
 15  6  1  0
 16 14  1  0
 17 16  2  0
 18 12  1  0
 19 18  2  0
 19  9  1  0
 20 21  1  0
 21 22  2  0
 23 21  1  0
 24 23  1  1
 24 25  1  0
 25 16  1  0
 26 24  1  0
 26 27  1  0
 28 26  2  0
M  END
$$$$
