TYN.pdb
     RDKit          3D

 28 28  0  0  1  0  0  0  0  0999 V2000
   28.6500  -18.7721  -19.8737 C   0  0  0  0  0  0  0  0  0  0  0  0
   27.8204  -19.1798  -18.6741 C   0  0  1  0  0  0  0  0  0  0  0  0
   26.5678  -19.5556  -19.1742 O   0  0  0  0  0  0  0  0  0  0  0  0
   28.4289  -20.4256  -18.0635 C   0  0  2  0  0  0  0  0  0  0  0  0
   28.4719  -21.4384  -19.0863 N   0  0  0  0  0  0  0  0  0  0  0  0
   27.6847  -20.8694  -16.8590 C   0  0  0  0  0  0  0  0  0  0  0  0
   26.8688  -21.8194  -16.9488 O   0  0  0  0  0  0  0  0  0  0  0  0
   24.3267  -20.9980   -8.6867 O   0  0  0  0  0  0  0  0  0  0  0  0
   25.1465  -20.7828   -9.7711 C   0  0  0  0  0  0  0  0  0  0  0  0
   24.9998  -19.5838  -10.4442 C   0  0  0  0  0  0  0  0  0  0  0  0
   25.7919  -19.3104  -11.5378 C   0  0  0  0  0  0  0  0  0  0  0  0
   26.7430  -20.1965  -11.9999 C   0  0  0  0  0  0  0  0  0  0  0  0
   27.5854  -19.8776  -13.1832 C   0  0  0  0  0  0  0  0  0  0  0  0
   27.0195  -20.5333  -14.4380 C   0  0  2  0  0  0  0  0  0  0  0  0
   27.8454  -20.2676  -15.5803 N   0  0  0  0  0  0  0  0  0  0  0  0
   25.6271  -20.0656  -14.6016 C   0  0  0  0  0  0  0  0  0  0  0  0
   25.4032  -18.8932  -15.0003 O   0  0  0  0  0  0  0  0  0  0  0  0
   26.8817  -21.4004  -11.3141 C   0  0  0  0  0  0  0  0  0  0  0  0
   26.0928  -21.6792  -10.2204 C   0  0  0  0  0  0  0  0  0  0  0  0
   20.1128  -21.7537  -16.0440 N   0  0  0  0  0  0  0  0  0  0  0  0
   21.0489  -20.7050  -15.8647 C   0  0  0  0  0  0  0  0  0  0  0  0
   20.6555  -19.5273  -15.8979 O   0  0  0  0  0  0  0  0  0  0  0  0
   22.4516  -21.0413  -15.6457 C   0  0  0  0  0  0  0  0  0  0  0  0
   23.1108  -20.3694  -14.4663 C   0  0  2  0  0  0  0  0  0  0  0  0
   24.4941  -20.8730  -14.3317 N   0  0  0  0  0  0  0  0  0  0  0  0
   22.4651  -20.6904  -13.1841 C   0  0  0  0  0  0  0  0  0  0  0  0
   22.9899  -21.6516  -12.3504 O   0  0  0  0  0  0  0  0  0  0  0  0
   21.4316  -20.1037  -12.8214 O   0  0  0  0  0  0  0  0  0  0  0  0
  2  1  1  6
  2  4  1  0
  3  2  1  0
  4  5  1  6
  6  4  1  0
  7  6  2  0
  9  8  1  0
  9 10  2  0
 10 11  1  0
 12 13  1  0
 12 11  2  0
 14 15  1  0
 14 13  1  1
 15  6  1  0
 16 14  1  0
 17 16  2  0
 18 12  1  0
 19 18  2  0
 19  9  1  0
 20 21  1  0
 21 22  2  0
 23 21  1  0
 24 23  1  6
 24 25  1  0
 25 16  1  0
 26 24  1  0
 26 27  1  0
 28 26  2  0
M  END
$$$$
