TYN.pdb
     RDKit          3D

 28 28  0  0  1  0  0  0  0  0999 V2000
   27.3613  -21.3223  -19.2981 C   0  0  0  0  0  0  0  0  0  0  0  0
   26.5219  -21.3423  -18.0377 C   0  0  1  0  0  0  0  0  0  0  0  0
   25.2434  -21.7609  -18.4257 O   0  0  0  0  0  0  0  0  0  0  0  0
   27.0608  -22.4138  -17.1122 C   0  0  2  0  0  0  0  0  0  0  0  0
   26.9912  -23.6712  -17.8107 N   0  0  0  0  0  0  0  0  0  0  0  0
   26.3322  -22.4436  -15.8199 C   0  0  0  0  0  0  0  0  0  0  0  0
   25.7605  -23.4998  -15.4542 O   0  0  0  0  0  0  0  0  0  0  0  0
   23.8745  -20.7550   -7.5720 O   0  0  0  0  0  0  0  0  0  0  0  0
   24.4170  -20.6300   -8.8307 C   0  0  0  0  0  0  0  0  0  0  0  0
   25.5379  -21.3893   -9.1124 C   0  0  0  0  0  0  0  0  0  0  0  0
   26.1264  -21.3074  -10.3553 C   0  0  0  0  0  0  0  0  0  0  0  0
   25.6380  -20.4861  -11.3504 C   0  0  0  0  0  0  0  0  0  0  0  0
   26.2921  -20.4155  -12.6840 C   0  0  0  0  0  0  0  0  0  0  0  0
   25.5724  -21.3140  -13.6837 C   0  0  2  0  0  0  0  0  0  0  0  0
   26.2419  -21.3202  -14.9523 N   0  0  0  0  0  0  0  0  0  0  0  0
   24.1678  -20.8615  -13.7660 C   0  0  0  0  0  0  0  0  0  0  0  0
   23.8337  -20.0112  -14.6315 O   0  0  0  0  0  0  0  0  0  0  0  0
   24.5090  -19.7264  -11.0551 C   0  0  0  0  0  0  0  0  0  0  0  0
   23.9164  -19.8040   -9.8146 C   0  0  0  0  0  0  0  0  0  0  0  0
   19.9478  -17.7225  -13.3603 N   0  0  0  0  0  0  0  0  0  0  0  0
   20.3009  -19.0187  -13.8114 C   0  0  0  0  0  0  0  0  0  0  0  0
   19.4639  -19.6949  -14.4319 O   0  0  0  0  0  0  0  0  0  0  0  0
   21.6417  -19.5217  -13.5325 C   0  0  0  0  0  0  0  0  0  0  0  0
   21.7231  -20.9624  -13.0911 C   0  0  2  0  0  0  0  0  0  0  0  0
   23.1422  -21.3353  -12.9105 N   0  0  0  0  0  0  0  0  0  0  0  0
   21.2098  -21.9044  -14.0976 C   0  0  0  0  0  0  0  0  0  0  0  0
   21.7211  -21.9202  -15.3754 O   0  0  0  0  0  0  0  0  0  0  0  0
   20.3035  -22.7080  -13.8212 O   0  0  0  0  0  0  0  0  0  0  0  0
  2  1  1  6
  2  4  1  0
  3  2  1  0
  4  5  1  6
  6  4  1  0
  7  6  2  0
  9  8  1  0
  9 10  2  0
 10 11  1  0
 12 13  1  0
 12 11  2  0
 14 15  1  0
 14 13  1  1
 15  6  1  0
 16 14  1  0
 17 16  2  0
 18 12  1  0
 19 18  2  0
 19  9  1  0
 20 21  1  0
 21 22  2  0
 23 21  1  0
 24 23  1  6
 24 25  1  0
 25 16  1  0
 26 24  1  0
 26 27  1  0
 28 26  2  0
M  END
$$$$
