TYN.pdb
     RDKit          3D

 28 28  0  0  1  0  0  0  0  0999 V2000
   27.3928    4.0988   -9.8425 C   0  0  0  0  0  0  0  0  0  0  0  0
   26.1469    4.9372  -10.0382 C   0  0  1  0  0  0  0  0  0  0  0  0
   26.0557    5.1874  -11.4128 O   0  0  0  0  0  0  0  0  0  0  0  0
   24.9370    4.1014   -9.6740 C   0  0  2  0  0  0  0  0  0  0  0  0
   23.7666    4.7985  -10.1409 N   0  0  0  0  0  0  0  0  0  0  0  0
   24.8821    3.8154   -8.2190 C   0  0  0  0  0  0  0  0  0  0  0  0
   24.8127    4.7661   -7.4020 O   0  0  0  0  0  0  0  0  0  0  0  0
   24.8325   -0.4336   -0.4904 O   0  0  0  0  0  0  0  0  0  0  0  0
   24.8774   -0.1733   -1.8411 C   0  0  0  0  0  0  0  0  0  0  0  0
   23.6996    0.2262   -2.4457 C   0  0  0  0  0  0  0  0  0  0  0  0
   23.6812    0.5012   -3.7955 C   0  0  0  0  0  0  0  0  0  0  0  0
   24.8068    0.3938   -4.5858 C   0  0  0  0  0  0  0  0  0  0  0  0
   24.7604    0.6962   -6.0411 C   0  0  0  0  0  0  0  0  0  0  0  0
   25.0153    2.1786   -6.2903 C   0  0  2  0  0  0  0  0  0  0  0  0
   24.9042    2.4976   -7.6844 N   0  0  0  0  0  0  0  0  0  0  0  0
   26.3369    2.5108   -5.7181 C   0  0  0  0  0  0  0  0  0  0  0  0
   27.3849    2.2055   -6.3442 O   0  0  0  0  0  0  0  0  0  0  0  0
   25.9868   -0.0092   -3.9660 C   0  0  0  0  0  0  0  0  0  0  0  0
   26.0114   -0.2855   -2.6173 C   0  0  0  0  0  0  0  0  0  0  0  0
   29.7551    6.6897   -4.2396 N   0  0  0  0  0  0  0  0  0  0  0  0
   29.6303    5.2790   -4.2918 C   0  0  0  0  0  0  0  0  0  0  0  0
   30.5854    4.5709   -3.9324 O   0  0  0  0  0  0  0  0  0  0  0  0
   28.3791    4.6987   -4.7678 C   0  0  0  0  0  0  0  0  0  0  0  0
   27.8381    3.5487   -3.9541 C   0  0  2  0  0  0  0  0  0  0  0  0
   26.5076    3.1694   -4.4749 N   0  0  0  0  0  0  0  0  0  0  0  0
   27.6068    3.8979   -2.5440 C   0  0  0  0  0  0  0  0  0  0  0  0
   26.3443    3.8368   -1.9994 O   0  0  0  0  0  0  0  0  0  0  0  0
   28.5429    4.2561   -1.8097 O   0  0  0  0  0  0  0  0  0  0  0  0
  2  1  1  6
  2  4  1  0
  3  2  1  0
  4  5  1  1
  6  4  1  0
  7  6  2  0
  9  8  1  0
  9 10  2  0
 10 11  1  0
 12 13  1  0
 12 11  2  0
 14 15  1  0
 14 13  1  6
 15  6  1  0
 16 14  1  0
 17 16  2  0
 18 12  1  0
 19 18  2  0
 19  9  1  0
 20 21  1  0
 21 22  2  0
 23 21  1  0
 24 23  1  6
 24 25  1  0
 25 16  1  0
 26 24  1  0
 26 27  1  0
 28 26  2  0
M  END
$$$$
