KWR.pdb
     RDKit          3D

 35 36  0  0  1  0  0  0  0  0999 V2000
    7.9864  -12.7343   18.2649 N   0  0  0  0  0  0  0  0  0  0  0  0
    7.6736  -14.0767   18.7054 C   0  0  1  0  0  0  0  0  0  0  0  0
    8.3816  -15.1236   17.8856 C   0  0  0  0  0  0  0  0  0  0  0  0
    8.1042  -14.9883   16.4090 C   0  0  0  0  0  0  0  0  0  0  0  0
    8.7867  -16.0645   15.5996 C   0  0  0  0  0  0  0  0  0  0  0  0
    8.4946  -15.9062   14.1238 C   0  0  0  0  0  0  0  0  0  0  0  0
    9.1682  -16.9196   13.3393 N   0  0  0  0  0  0  0  0  0  0  0  0
    8.1261  -14.2154   20.1088 C   0  0  0  0  0  0  0  0  0  0  0  0
    9.2802  -13.8628   20.4570 O   0  0  0  0  0  0  0  0  0  0  0  0
    7.2751  -14.7513   21.1110 N   0  0  0  0  0  0  0  0  0  0  0  0
    7.6755  -14.7647   22.4923 C   0  0  1  0  0  0  0  0  0  0  0  0
    6.5407  -14.9158   23.4625 C   0  0  0  0  0  0  0  0  0  0  0  0
    6.9352  -14.6992   24.8614 C   0  0  0  0  0  0  0  0  0  0  0  0
    7.3941  -15.6869   25.7344 C   0  0  0  0  0  0  0  0  0  0  0  0
    7.6834  -15.1132   26.9140 N   0  0  0  0  0  0  0  0  0  0  0  0
    7.4297  -13.7798   26.8473 C   0  0  0  0  0  0  0  0  0  0  0  0
    7.5718  -12.8083   27.8098 C   0  0  0  0  0  0  0  0  0  0  0  0
    7.2261  -11.5194   27.4652 C   0  0  0  0  0  0  0  0  0  0  0  0
    6.7558  -11.1927   26.2168 C   0  0  0  0  0  0  0  0  0  0  0  0
    6.6303  -12.2006   25.2842 C   0  0  0  0  0  0  0  0  0  0  0  0
    6.9618  -13.5254   25.5628 C   0  0  0  0  0  0  0  0  0  0  0  0
    8.5782  -15.9258   22.7113 C   0  0  0  0  0  0  0  0  0  0  0  0
    8.3268  -16.9996   22.1079 O   0  0  0  0  0  0  0  0  0  0  0  0
   13.6827  -19.4602   20.4199 N   0  0  0  0  0  0  0  0  0  0  0  0
   14.8399  -19.2802   21.2107 C   0  0  0  0  0  0  0  0  0  0  0  0
   15.7325  -20.2207   21.2843 N   0  0  0  0  0  0  0  0  0  0  0  0
   15.0880  -18.0964   21.9492 N   0  0  0  0  0  0  0  0  0  0  0  0
   14.0982  -17.0414   21.9669 C   0  0  0  0  0  0  0  0  0  0  0  0
   12.8987  -17.5979   22.7548 C   0  0  0  0  0  0  0  0  0  0  0  0
   11.8590  -16.5287   22.7727 C   0  0  0  0  0  0  0  0  0  0  0  0
   10.6439  -16.9487   23.5733 C   0  0  2  0  0  0  0  0  0  0  0  0
    9.6963  -15.8522   23.5689 N   0  0  0  0  0  0  0  0  0  0  0  0
   10.9286  -17.2787   24.9735 C   0  0  0  0  0  0  0  0  0  0  0  0
   11.2397  -16.3802   25.8303 O   0  0  0  0  0  0  0  0  0  0  0  0
   10.8844  -18.5707   25.4783 O   0  0  0  0  0  0  0  0  0  0  0  0
  2  1  1  6
  3  4  1  0
  3  2  1  0
  4  5  1  0
  5  6  1  0
  6  7  1  0
  8 10  1  0
  8  2  1  0
  9  8  2  0
 11 22  1  0
 11 10  1  0
 12 13  1  0
 11 12  1  1
 13 14  2  0
 13 21  1  0
 14 15  1  0
 15 16  1  0
 16 17  2  0
 17 18  1  0
 19 18  2  0
 20 19  1  0
 21 20  2  0
 21 16  1  0
 22 23  2  0
 24 25  1  0
 25 26  2  0
 25 27  1  0
 27 28  1  0
 29 28  1  0
 30 29  1  0
 31 30  1  1
 31 33  1  0
 32 31  1  0
 32 22  1  0
 33 34  2  0
 33 35  1  0
M  END
$$$$
