KWR.pdb
     RDKit          3D

 35 36  0  0  1  0  0  0  0  0999 V2000
    4.5303  -19.6975   24.3539 N   0  0  0  0  0  0  0  0  0  0  0  0
    5.9429  -19.8655   24.6188 C   0  0  1  0  0  0  0  0  0  0  0  0
    6.4958  -21.1150   23.9847 C   0  0  0  0  0  0  0  0  0  0  0  0
    5.5731  -21.6911   22.9396 C   0  0  0  0  0  0  0  0  0  0  0  0
    6.1117  -22.9705   22.3461 C   0  0  0  0  0  0  0  0  0  0  0  0
    5.1468  -23.5535   21.3374 C   0  0  0  0  0  0  0  0  0  0  0  0
    5.6856  -24.7459   20.7175 N   0  0  0  0  0  0  0  0  0  0  0  0
    6.6588  -18.7060   24.0384 C   0  0  0  0  0  0  0  0  0  0  0  0
    6.5230  -18.3982   22.8283 O   0  0  0  0  0  0  0  0  0  0  0  0
    7.5238  -17.9010   24.8256 N   0  0  0  0  0  0  0  0  0  0  0  0
    8.2621  -16.8153   24.2387 C   0  0  1  0  0  0  0  0  0  0  0  0
    8.6083  -15.7145   25.1980 C   0  0  0  0  0  0  0  0  0  0  0  0
    7.4462  -14.9200   25.6198 C   0  0  0  0  0  0  0  0  0  0  0  0
    6.1786  -15.4300   25.9051 C   0  0  0  0  0  0  0  0  0  0  0  0
    5.3851  -14.4144   26.2835 N   0  0  0  0  0  0  0  0  0  0  0  0
    6.0880  -13.2517   26.2564 C   0  0  0  0  0  0  0  0  0  0  0  0
    5.6836  -11.9723   26.5566 C   0  0  0  0  0  0  0  0  0  0  0  0
    6.6178  -10.9667   26.4320 C   0  0  0  0  0  0  0  0  0  0  0  0
    7.9076  -11.2070   26.0258 C   0  0  0  0  0  0  0  0  0  0  0  0
    8.2673  -12.5062   25.7358 C   0  0  0  0  0  0  0  0  0  0  0  0
    7.3756  -13.5722   25.8406 C   0  0  0  0  0  0  0  0  0  0  0  0
    9.5504  -17.3462   23.7195 C   0  0  0  0  0  0  0  0  0  0  0  0
   10.0464  -18.3586   24.2757 O   0  0  0  0  0  0  0  0  0  0  0  0
   15.5686  -16.3510   17.7194 N   0  0  0  0  0  0  0  0  0  0  0  0
   15.0970  -17.6767   17.5897 C   0  0  0  0  0  0  0  0  0  0  0  0
   15.8589  -18.5925   17.0724 N   0  0  0  0  0  0  0  0  0  0  0  0
   13.8016  -18.0743   18.0047 N   0  0  0  0  0  0  0  0  0  0  0  0
   12.9274  -17.1152   18.6442 C   0  0  0  0  0  0  0  0  0  0  0  0
   12.9012  -17.4936   20.1359 C   0  0  0  0  0  0  0  0  0  0  0  0
   11.6409  -16.9325   20.7027 C   0  0  0  0  0  0  0  0  0  0  0  0
   11.4376  -17.3642   22.1400 C   0  0  2  0  0  0  0  0  0  0  0  0
   10.2208  -16.7487   22.6311 N   0  0  0  0  0  0  0  0  0  0  0  0
   12.5236  -16.9760   23.0458 C   0  0  0  0  0  0  0  0  0  0  0  0
   12.4456  -15.9369   23.7890 O   0  0  0  0  0  0  0  0  0  0  0  0
   13.7062  -17.6913   23.1716 O   0  0  0  0  0  0  0  0  0  0  0  0
  2  1  1  6
  3  4  1  0
  3  2  1  0
  4  5  1  0
  5  6  1  0
  6  7  1  0
  8 10  1  0
  8  2  1  0
  9  8  2  0
 11 22  1  0
 11 10  1  0
 12 13  1  0
 11 12  1  1
 13 14  2  0
 13 21  1  0
 14 15  1  0
 15 16  1  0
 16 17  2  0
 17 18  1  0
 19 18  2  0
 20 19  1  0
 21 20  2  0
 21 16  1  0
 22 23  2  0
 24 25  1  0
 25 26  2  0
 25 27  1  0
 27 28  1  0
 29 28  1  0
 30 29  1  0
 31 30  1  6
 31 33  1  0
 32 31  1  0
 32 22  1  0
 33 34  2  0
 33 35  1  0
M  END
$$$$
