KWR.pdb
     RDKit          3D

 35 36  0  0  1  0  0  0  0  0999 V2000
    8.7493  -19.7071   20.5460 N   0  0  0  0  0  0  0  0  0  0  0  0
    9.2896  -18.9968   19.4069 C   0  0  1  0  0  0  0  0  0  0  0  0
    8.2158  -18.5737   18.4389 C   0  0  0  0  0  0  0  0  0  0  0  0
    7.5061  -19.7479   17.8117 C   0  0  0  0  0  0  0  0  0  0  0  0
    6.0048  -19.5941   17.8507 C   0  0  0  0  0  0  0  0  0  0  0  0
    5.3152  -20.8226   17.2998 C   0  0  0  0  0  0  0  0  0  0  0  0
    3.8755  -20.7149   17.4085 N   0  0  0  0  0  0  0  0  0  0  0  0
    9.9597  -17.7737   19.9056 C   0  0  0  0  0  0  0  0  0  0  0  0
   10.3877  -16.8984   19.1130 O   0  0  0  0  0  0  0  0  0  0  0  0
   10.1437  -17.5450   21.2948 N   0  0  0  0  0  0  0  0  0  0  0  0
   10.8386  -16.3776   21.7669 C   0  0  1  0  0  0  0  0  0  0  0  0
   10.1189  -15.6260   22.8481 C   0  0  0  0  0  0  0  0  0  0  0  0
    8.8799  -14.9835   22.3878 C   0  0  0  0  0  0  0  0  0  0  0  0
    7.6233  -15.1360   22.9758 C   0  0  0  0  0  0  0  0  0  0  0  0
    6.7421  -14.3782   22.3024 N   0  0  0  0  0  0  0  0  0  0  0  0
    7.3767  -13.7316   21.2895 C   0  0  0  0  0  0  0  0  0  0  0  0
    6.8743  -12.8641   20.3485 C   0  0  0  0  0  0  0  0  0  0  0  0
    7.7566  -12.3564   19.4194 C   0  0  0  0  0  0  0  0  0  0  0  0
    9.0892  -12.6885   19.4123 C   0  0  0  0  0  0  0  0  0  0  0  0
    9.5475  -13.5622   20.3756 C   0  0  0  0  0  0  0  0  0  0  0  0
    8.7126  -14.1132   21.3462 C   0  0  0  0  0  0  0  0  0  0  0  0
   12.1418  -16.8039   22.3421 C   0  0  0  0  0  0  0  0  0  0  0  0
   12.1737  -17.8509   23.0373 O   0  0  0  0  0  0  0  0  0  0  0  0
   18.1055  -12.7479   18.3059 N   0  0  0  0  0  0  0  0  0  0  0  0
   16.8243  -13.3208   18.4701 C   0  0  0  0  0  0  0  0  0  0  0  0
   15.9299  -13.1972   17.5365 N   0  0  0  0  0  0  0  0  0  0  0  0
   16.4500  -14.0437   19.6301 N   0  0  0  0  0  0  0  0  0  0  0  0
   16.7600  -15.4535   19.7278 C   0  0  0  0  0  0  0  0  0  0  0  0
   15.5381  -16.1116   20.3934 C   0  0  0  0  0  0  0  0  0  0  0  0
   15.7136  -15.9597   21.8667 C   0  0  0  0  0  0  0  0  0  0  0  0
   14.5778  -16.6073   22.6311 C   0  0  2  0  0  0  0  0  0  0  0  0
   13.3286  -16.0712   22.1288 N   0  0  0  0  0  0  0  0  0  0  0  0
   14.6099  -16.3670   24.0775 C   0  0  0  0  0  0  0  0  0  0  0  0
   13.8156  -15.5378   24.6430 O   0  0  0  0  0  0  0  0  0  0  0  0
   15.4884  -17.0083   24.9394 O   0  0  0  0  0  0  0  0  0  0  0  0
  2  1  1  1
  3  4  1  0
  3  2  1  0
  4  5  1  0
  5  6  1  0
  6  7  1  0
  8 10  1  0
  8  2  1  0
  9  8  2  0
 11 22  1  0
 11 10  1  0
 12 13  1  0
 11 12  1  1
 13 14  2  0
 13 21  1  0
 14 15  1  0
 15 16  1  0
 16 17  2  0
 17 18  1  0
 19 18  2  0
 20 19  1  0
 21 20  2  0
 21 16  1  0
 22 23  2  0
 24 25  1  0
 25 26  2  0
 25 27  1  0
 27 28  1  0
 29 28  1  0
 30 29  1  0
 31 30  1  6
 31 33  1  0
 32 31  1  0
 32 22  1  0
 33 34  2  0
 33 35  1  0
M  END
$$$$
