KWR.pdb
     RDKit          3D

 35 36  0  0  1  0  0  0  0  0999 V2000
    8.0827  -12.7543   18.2303 N   0  0  0  0  0  0  0  0  0  0  0  0
    8.0984  -14.1429   18.6372 C   0  0  1  0  0  0  0  0  0  0  0  0
    9.1520  -14.9367   17.9099 C   0  0  0  0  0  0  0  0  0  0  0  0
    8.7771  -15.2200   16.4764 C   0  0  0  0  0  0  0  0  0  0  0  0
    8.0116  -16.5132   16.3319 C   0  0  0  0  0  0  0  0  0  0  0  0
    7.5638  -16.7263   14.9028 C   0  0  0  0  0  0  0  0  0  0  0  0
    6.7685  -17.9290   14.7712 N   0  0  0  0  0  0  0  0  0  0  0  0
    8.4098  -14.1927   20.0843 C   0  0  0  0  0  0  0  0  0  0  0  0
    9.4883  -13.7311   20.5329 O   0  0  0  0  0  0  0  0  0  0  0  0
    7.5037  -14.7631   21.0168 N   0  0  0  0  0  0  0  0  0  0  0  0
    7.8050  -14.7849   22.4229 C   0  0  1  0  0  0  0  0  0  0  0  0
    6.6037  -14.9364   23.3093 C   0  0  0  0  0  0  0  0  0  0  0  0
    6.9246  -14.8841   24.7425 C   0  0  0  0  0  0  0  0  0  0  0  0
    7.0491  -15.9907   25.5841 C   0  0  0  0  0  0  0  0  0  0  0  0
    7.3757  -15.5577   26.8130 N   0  0  0  0  0  0  0  0  0  0  0  0
    7.4701  -14.2020   26.8090 C   0  0  0  0  0  0  0  0  0  0  0  0
    7.7719  -13.3384   27.8354 C   0  0  0  0  0  0  0  0  0  0  0  0
    7.7890  -11.9910   27.5457 C   0  0  0  0  0  0  0  0  0  0  0  0
    7.5186  -11.5051   26.2899 C   0  0  0  0  0  0  0  0  0  0  0  0
    7.2212  -12.4094   25.2922 C   0  0  0  0  0  0  0  0  0  0  0  0
    7.1869  -13.7851   25.5131 C   0  0  0  0  0  0  0  0  0  0  0  0
    8.6857  -15.9507   22.6993 C   0  0  0  0  0  0  0  0  0  0  0  0
    8.6274  -16.9397   21.9254 O   0  0  0  0  0  0  0  0  0  0  0  0
   17.6495  -17.8348   23.1362 N   0  0  0  0  0  0  0  0  0  0  0  0
   16.4815  -17.0584   22.9637 C   0  0  0  0  0  0  0  0  0  0  0  0
   16.4973  -15.7878   23.2321 N   0  0  0  0  0  0  0  0  0  0  0  0
   15.2586  -17.6046   22.5007 N   0  0  0  0  0  0  0  0  0  0  0  0
   14.1096  -16.7433   22.3240 C   0  0  0  0  0  0  0  0  0  0  0  0
   12.9867  -17.3522   23.1828 C   0  0  0  0  0  0  0  0  0  0  0  0
   11.7946  -16.4698   23.0255 C   0  0  0  0  0  0  0  0  0  0  0  0
   10.6155  -16.9808   23.8269 C   0  0  2  0  0  0  0  0  0  0  0  0
    9.5743  -15.9732   23.7952 N   0  0  0  0  0  0  0  0  0  0  0  0
   10.9175  -17.2573   25.2350 C   0  0  0  0  0  0  0  0  0  0  0  0
   10.6566  -16.4132   26.1611 O   0  0  0  0  0  0  0  0  0  0  0  0
   11.5007  -18.4377   25.6739 O   0  0  0  0  0  0  0  0  0  0  0  0
  2  1  1  6
  3  4  1  0
  3  2  1  0
  4  5  1  0
  5  6  1  0
  6  7  1  0
  8 10  1  0
  8  2  1  0
  9  8  2  0
 11 22  1  0
 11 10  1  0
 12 13  1  0
 11 12  1  1
 13 14  2  0
 13 21  1  0
 14 15  1  0
 15 16  1  0
 16 17  2  0
 17 18  1  0
 19 18  2  0
 20 19  1  0
 21 20  2  0
 21 16  1  0
 22 23  2  0
 24 25  1  0
 25 26  2  0
 25 27  1  0
 27 28  1  0
 29 28  1  0
 30 29  1  0
 31 30  1  6
 31 33  1  0
 32 31  1  0
 32 22  1  0
 33 34  2  0
 33 35  1  0
M  END
$$$$
