KWR.pdb
     RDKit          3D

 35 36  0  0  1  0  0  0  0  0999 V2000
    9.0168  -16.3183   18.1379 N   0  0  0  0  0  0  0  0  0  0  0  0
    8.7785  -17.2799   19.1926 C   0  0  1  0  0  0  0  0  0  0  0  0
    9.8184  -18.3695   19.2144 C   0  0  0  0  0  0  0  0  0  0  0  0
    9.8153  -19.1984   17.9540 C   0  0  0  0  0  0  0  0  0  0  0  0
   10.8185  -20.3251   18.0099 C   0  0  0  0  0  0  0  0  0  0  0  0
   10.8474  -21.0961   16.7087 C   0  0  0  0  0  0  0  0  0  0  0  0
   11.8861  -22.1047   16.7141 N   0  0  0  0  0  0  0  0  0  0  0  0
    8.8425  -16.5644   20.4878 C   0  0  0  0  0  0  0  0  0  0  0  0
    9.8255  -15.8399   20.7818 O   0  0  0  0  0  0  0  0  0  0  0  0
    7.7983  -16.6704   21.4440 N   0  0  0  0  0  0  0  0  0  0  0  0
    7.8924  -16.0112   22.7188 C   0  0  1  0  0  0  0  0  0  0  0  0
    6.5727  -15.7887   23.3975 C   0  0  0  0  0  0  0  0  0  0  0  0
    6.6968  -15.1942   24.7358 C   0  0  0  0  0  0  0  0  0  0  0  0
    6.6908  -15.9022   25.9387 C   0  0  0  0  0  0  0  0  0  0  0  0
    6.8535  -15.0306   26.9478 N   0  0  0  0  0  0  0  0  0  0  0  0
    6.9660  -13.7713   26.4493 C   0  0  0  0  0  0  0  0  0  0  0  0
    7.1375  -12.5767   27.1081 C   0  0  0  0  0  0  0  0  0  0  0  0
    7.2121  -11.4346   26.3404 C   0  0  0  0  0  0  0  0  0  0  0  0
    7.1213  -11.4620   24.9703 C   0  0  0  0  0  0  0  0  0  0  0  0
    6.9498  -12.6834   24.3535 C   0  0  0  0  0  0  0  0  0  0  0  0
    6.8670  -13.8781   25.0665 C   0  0  0  0  0  0  0  0  0  0  0  0
    8.7010  -16.8617   23.6319 C   0  0  0  0  0  0  0  0  0  0  0  0
    8.4525  -18.0933   23.6769 O   0  0  0  0  0  0  0  0  0  0  0  0
   16.0501  -18.7833   21.8136 N   0  0  0  0  0  0  0  0  0  0  0  0
   14.8345  -18.8459   21.0958 C   0  0  0  0  0  0  0  0  0  0  0  0
   14.8177  -19.3010   19.8796 N   0  0  0  0  0  0  0  0  0  0  0  0
   13.5968  -18.4276   21.6450 N   0  0  0  0  0  0  0  0  0  0  0  0
   13.5353  -17.9869   23.0217 C   0  0  0  0  0  0  0  0  0  0  0  0
   12.0977  -17.4831   23.2421 C   0  0  0  0  0  0  0  0  0  0  0  0
   11.9903  -17.0959   24.6785 C   0  0  0  0  0  0  0  0  0  0  0  0
   10.5708  -17.2371   25.1873 C   0  0  2  0  0  0  0  0  0  0  0  0
    9.7276  -16.3267   24.4387 N   0  0  0  0  0  0  0  0  0  0  0  0
   10.4056  -16.9210   26.6098 C   0  0  0  0  0  0  0  0  0  0  0  0
   10.0121  -15.7691   27.0052 O   0  0  0  0  0  0  0  0  0  0  0  0
   10.6569  -17.8292   27.6286 O   0  0  0  0  0  0  0  0  0  0  0  0
  2  1  1  6
  3  4  1  0
  3  2  1  0
  4  5  1  0
  5  6  1  0
  6  7  1  0
  8 10  1  0
  8  2  1  0
  9  8  2  0
 11 22  1  0
 11 10  1  0
 12 13  1  0
 11 12  1  1
 13 14  2  0
 13 21  1  0
 14 15  1  0
 15 16  1  0
 16 17  2  0
 17 18  1  0
 19 18  2  0
 20 19  1  0
 21 20  2  0
 21 16  1  0
 22 23  2  0
 24 25  1  0
 25 26  2  0
 25 27  1  0
 27 28  1  0
 29 28  1  0
 30 29  1  0
 31 30  1  6
 31 33  1  0
 32 31  1  0
 32 22  1  0
 33 34  2  0
 33 35  1  0
M  END
$$$$
