KWR.pdb
     RDKit          3D

 35 36  0  0  1  0  0  0  0  0999 V2000
    8.1695  -12.6339   17.9740 N   0  0  0  0  0  0  0  0  0  0  0  0
    8.0806  -14.0098   18.4132 C   0  0  1  0  0  0  0  0  0  0  0  0
    9.0930  -14.8914   17.7300 C   0  0  0  0  0  0  0  0  0  0  0  0
    8.7104  -15.2182   16.3078 C   0  0  0  0  0  0  0  0  0  0  0  0
    9.6505  -16.2188   15.6799 C   0  0  0  0  0  0  0  0  0  0  0  0
    9.3511  -16.4009   14.2083 C   0  0  0  0  0  0  0  0  0  0  0  0
   10.3817  -17.1764   13.5505 N   0  0  0  0  0  0  0  0  0  0  0  0
    8.3556  -14.0448   19.8682 C   0  0  0  0  0  0  0  0  0  0  0  0
    9.3935  -13.5232   20.3458 O   0  0  0  0  0  0  0  0  0  0  0  0
    7.4590  -14.6681   20.7757 N   0  0  0  0  0  0  0  0  0  0  0  0
    7.6965  -14.6305   22.1937 C   0  0  1  0  0  0  0  0  0  0  0  0
    6.4787  -14.8923   23.0306 C   0  0  0  0  0  0  0  0  0  0  0  0
    6.7184  -14.7458   24.4731 C   0  0  0  0  0  0  0  0  0  0  0  0
    6.8553  -15.7972   25.3808 C   0  0  0  0  0  0  0  0  0  0  0  0
    7.0917  -15.2818   26.5985 N   0  0  0  0  0  0  0  0  0  0  0  0
    7.1146  -13.9251   26.5231 C   0  0  0  0  0  0  0  0  0  0  0  0
    7.3146  -12.9925   27.5134 C   0  0  0  0  0  0  0  0  0  0  0  0
    7.2762  -11.6637   27.1497 C   0  0  0  0  0  0  0  0  0  0  0  0
    7.0490  -11.2613   25.8564 C   0  0  0  0  0  0  0  0  0  0  0  0
    6.8540  -12.2326   24.8971 C   0  0  0  0  0  0  0  0  0  0  0  0
    6.8803  -13.5943   25.1930 C   0  0  0  0  0  0  0  0  0  0  0  0
    8.6820  -15.6901   22.5359 C   0  0  0  0  0  0  0  0  0  0  0  0
    8.5560  -16.8190   21.9974 O   0  0  0  0  0  0  0  0  0  0  0  0
   16.0777  -13.7933   20.9014 N   0  0  0  0  0  0  0  0  0  0  0  0
   15.1222  -14.5912   20.2326 C   0  0  0  0  0  0  0  0  0  0  0  0
   14.9881  -14.5055   18.9437 N   0  0  0  0  0  0  0  0  0  0  0  0
   14.2779  -15.5062   20.9095 N   0  0  0  0  0  0  0  0  0  0  0  0
   14.4326  -15.7062   22.3340 C   0  0  0  0  0  0  0  0  0  0  0  0
   13.2443  -16.5814   22.7712 C   0  0  0  0  0  0  0  0  0  0  0  0
   12.0401  -15.7016   22.7831 C   0  0  0  0  0  0  0  0  0  0  0  0
   10.8610  -16.3825   23.4463 C   0  0  2  0  0  0  0  0  0  0  0  0
    9.7419  -15.4617   23.4389 N   0  0  0  0  0  0  0  0  0  0  0  0
   11.0972  -16.7768   24.8389 C   0  0  0  0  0  0  0  0  0  0  0  0
   10.5388  -16.1698   25.8177 O   0  0  0  0  0  0  0  0  0  0  0  0
   11.9310  -17.8238   25.2057 O   0  0  0  0  0  0  0  0  0  0  0  0
  2  1  1  6
  3  4  1  0
  3  2  1  0
  4  5  1  0
  5  6  1  0
  6  7  1  0
  8 10  1  0
  8  2  1  0
  9  8  2  0
 11 22  1  0
 11 10  1  0
 12 13  1  0
 11 12  1  1
 13 14  2  0
 13 21  1  0
 14 15  1  0
 15 16  1  0
 16 17  2  0
 17 18  1  0
 19 18  2  0
 20 19  1  0
 21 20  2  0
 21 16  1  0
 22 23  2  0
 24 25  1  0
 25 26  2  0
 25 27  1  0
 27 28  1  0
 29 28  1  0
 30 29  1  0
 31 30  1  1
 31 33  1  0
 32 31  1  0
 32 22  1  0
 33 34  2  0
 33 35  1  0
M  END
$$$$
