KWR.pdb
     RDKit          3D

 35 36  0  0  1  0  0  0  0  0999 V2000
    6.9365  -16.8679   21.0480 N   0  0  0  0  0  0  0  0  0  0  0  0
    8.2986  -16.6205   20.6268 C   0  0  1  0  0  0  0  0  0  0  0  0
    8.4013  -15.4373   19.7002 C   0  0  0  0  0  0  0  0  0  0  0  0
    7.8056  -15.7121   18.3417 C   0  0  0  0  0  0  0  0  0  0  0  0
    8.0256  -14.5688   17.3807 C   0  0  0  0  0  0  0  0  0  0  0  0
    7.3151  -14.8141   16.0679 C   0  0  0  0  0  0  0  0  0  0  0  0
    7.3815  -13.6533   15.2052 N   0  0  0  0  0  0  0  0  0  0  0  0
    9.1045  -16.3242   21.8335 C   0  0  0  0  0  0  0  0  0  0  0  0
   10.2688  -15.8626   21.7398 O   0  0  0  0  0  0  0  0  0  0  0  0
    8.5933  -16.5507   23.1386 N   0  0  0  0  0  0  0  0  0  0  0  0
    9.4045  -16.3142   24.3025 C   0  0  1  0  0  0  0  0  0  0  0  0
    8.6249  -16.1348   25.5721 C   0  0  0  0  0  0  0  0  0  0  0  0
    7.5560  -15.1320   25.4647 C   0  0  0  0  0  0  0  0  0  0  0  0
    6.2340  -15.3949   25.1021 C   0  0  0  0  0  0  0  0  0  0  0  0
    5.5439  -14.2432   25.1400 N   0  0  0  0  0  0  0  0  0  0  0  0
    6.3678  -13.2297   25.5152 C   0  0  0  0  0  0  0  0  0  0  0  0
    6.0975  -11.8917   25.6799 C   0  0  0  0  0  0  0  0  0  0  0  0
    7.1405  -11.0770   26.0645 C   0  0  0  0  0  0  0  0  0  0  0  0
    8.4086  -11.5582   26.2808 C   0  0  0  0  0  0  0  0  0  0  0  0
    8.6319  -12.9074   26.1034 C   0  0  0  0  0  0  0  0  0  0  0  0
    7.6245  -13.7895   25.7167 C   0  0  0  0  0  0  0  0  0  0  0  0
   10.2877  -17.4923   24.5100 C   0  0  0  0  0  0  0  0  0  0  0  0
    9.7604  -18.6324   24.5598 O   0  0  0  0  0  0  0  0  0  0  0  0
   11.4762  -18.8712   19.7828 N   0  0  0  0  0  0  0  0  0  0  0  0
   12.8034  -18.5579   19.4123 C   0  0  0  0  0  0  0  0  0  0  0  0
   13.0454  -17.9935   18.2679 N   0  0  0  0  0  0  0  0  0  0  0  0
   13.9174  -18.8332   20.2439 N   0  0  0  0  0  0  0  0  0  0  0  0
   13.7130  -19.4539   21.5347 C   0  0  0  0  0  0  0  0  0  0  0  0
   13.0407  -18.3868   22.4171 C   0  0  0  0  0  0  0  0  0  0  0  0
   13.5849  -18.5591   23.7950 C   0  0  0  0  0  0  0  0  0  0  0  0
   12.4811  -18.5608   24.8320 C   0  0  2  0  0  0  0  0  0  0  0  0
   11.6858  -17.3629   24.6503 N   0  0  0  0  0  0  0  0  0  0  0  0
   12.9568  -18.5669   26.2193 C   0  0  0  0  0  0  0  0  0  0  0  0
   12.7797  -17.5678   26.9993 O   0  0  0  0  0  0  0  0  0  0  0  0
   13.6263  -19.6387   26.7927 O   0  0  0  0  0  0  0  0  0  0  0  0
  2  1  1  1
  3  4  1  0
  3  2  1  0
  4  5  1  0
  5  6  1  0
  6  7  1  0
  8 10  1  0
  8  2  1  0
  9  8  2  0
 11 22  1  0
 11 10  1  0
 12 13  1  0
 11 12  1  1
 13 14  2  0
 13 21  1  0
 14 15  1  0
 15 16  1  0
 16 17  2  0
 17 18  1  0
 19 18  2  0
 20 19  1  0
 21 20  2  0
 21 16  1  0
 22 23  2  0
 24 25  1  0
 25 26  2  0
 25 27  1  0
 27 28  1  0
 29 28  1  0
 30 29  1  0
 31 30  1  6
 31 33  1  0
 32 31  1  0
 32 22  1  0
 33 34  2  0
 33 35  1  0
M  END
$$$$
