KWR.pdb
     RDKit          3D

 35 36  0  0  1  0  0  0  0  0999 V2000
    6.7667  -16.3706   20.9098 N   0  0  0  0  0  0  0  0  0  0  0  0
    7.9909  -15.6862   20.5538 C   0  0  1  0  0  0  0  0  0  0  0  0
    7.7292  -14.3419   19.9265 C   0  0  0  0  0  0  0  0  0  0  0  0
    7.1608  -14.4536   18.5336 C   0  0  0  0  0  0  0  0  0  0  0  0
    7.7063  -13.3928   17.6083 C   0  0  0  0  0  0  0  0  0  0  0  0
    7.0463  -13.4616   16.2489 C   0  0  0  0  0  0  0  0  0  0  0  0
    7.4547  -12.3578   15.4057 N   0  0  0  0  0  0  0  0  0  0  0  0
    8.7695  -15.4653   21.7943 C   0  0  0  0  0  0  0  0  0  0  0  0
    9.7619  -14.6956   21.8099 O   0  0  0  0  0  0  0  0  0  0  0  0
    8.4248  -16.1137   23.0095 N   0  0  0  0  0  0  0  0  0  0  0  0
    9.3297  -16.1200   24.1273 C   0  0  1  0  0  0  0  0  0  0  0  0
    8.6563  -16.0559   25.4668 C   0  0  0  0  0  0  0  0  0  0  0  0
    7.5764  -15.0611   25.5310 C   0  0  0  0  0  0  0  0  0  0  0  0
    6.2198  -15.3268   25.3383 C   0  0  0  0  0  0  0  0  0  0  0  0
    5.5336  -14.1835   25.5009 N   0  0  0  0  0  0  0  0  0  0  0  0
    6.3936  -13.1730   25.7939 C   0  0  0  0  0  0  0  0  0  0  0  0
    6.1393  -11.8429   26.0321 C   0  0  0  0  0  0  0  0  0  0  0  0
    7.2190  -11.0292   26.2996 C   0  0  0  0  0  0  0  0  0  0  0  0
    8.5074  -11.5037   26.3325 C   0  0  0  0  0  0  0  0  0  0  0  0
    8.7136  -12.8449   26.0875 C   0  0  0  0  0  0  0  0  0  0  0  0
    7.6694  -13.7257   25.8112 C   0  0  0  0  0  0  0  0  0  0  0  0
   10.1032  -17.3897   24.1019 C   0  0  0  0  0  0  0  0  0  0  0  0
    9.5248  -18.4333   23.7061 O   0  0  0  0  0  0  0  0  0  0  0  0
   17.3739  -18.9776   20.3295 N   0  0  0  0  0  0  0  0  0  0  0  0
   17.4190  -18.9279   21.7410 C   0  0  0  0  0  0  0  0  0  0  0  0
   18.5527  -18.7593   22.3519 N   0  0  0  0  0  0  0  0  0  0  0  0
   16.2629  -19.0553   22.5506 N   0  0  0  0  0  0  0  0  0  0  0  0
   15.0173  -19.4924   21.9586 C   0  0  0  0  0  0  0  0  0  0  0  0
   14.0575  -19.7532   23.1334 C   0  0  0  0  0  0  0  0  0  0  0  0
   13.2479  -18.5137   23.3141 C   0  0  0  0  0  0  0  0  0  0  0  0
   12.1686  -18.7027   24.3597 C   0  0  2  0  0  0  0  0  0  0  0  0
   11.4538  -17.4504   24.5057 N   0  0  0  0  0  0  0  0  0  0  0  0
   12.6717  -19.0793   25.6847 C   0  0  0  0  0  0  0  0  0  0  0  0
   13.2806  -20.1868   25.8873 O   0  0  0  0  0  0  0  0  0  0  0  0
   12.5329  -18.2796   26.8104 O   0  0  0  0  0  0  0  0  0  0  0  0
  2  1  1  1
  3  4  1  0
  3  2  1  0
  4  5  1  0
  5  6  1  0
  6  7  1  0
  8 10  1  0
  8  2  1  0
  9  8  2  0
 11 22  1  0
 11 10  1  0
 12 13  1  0
 11 12  1  1
 13 14  2  0
 13 21  1  0
 14 15  1  0
 15 16  1  0
 16 17  2  0
 17 18  1  0
 19 18  2  0
 20 19  1  0
 21 20  2  0
 21 16  1  0
 22 23  2  0
 24 25  1  0
 25 26  2  0
 25 27  1  0
 27 28  1  0
 29 28  1  0
 30 29  1  0
 31 30  1  6
 31 33  1  0
 32 31  1  0
 32 22  1  0
 33 34  2  0
 33 35  1  0
M  END
$$$$
