KWR.pdb
     RDKit          3D

 35 36  0  0  1  0  0  0  0  0999 V2000
    5.6273  -15.0738   20.8329 N   0  0  0  0  0  0  0  0  0  0  0  0
    7.0213  -15.0901   20.4450 C   0  0  1  0  0  0  0  0  0  0  0  0
    7.3418  -14.0236   19.4306 C   0  0  0  0  0  0  0  0  0  0  0  0
    6.9793  -14.4337   18.0249 C   0  0  0  0  0  0  0  0  0  0  0  0
    7.9394  -13.8751   17.0024 C   0  0  0  0  0  0  0  0  0  0  0  0
    7.4655  -14.1612   15.5945 C   0  0  0  0  0  0  0  0  0  0  0  0
    8.2961  -13.4978   14.6115 N   0  0  0  0  0  0  0  0  0  0  0  0
    7.8362  -14.8275   21.6536 C   0  0  0  0  0  0  0  0  0  0  0  0
    8.0750  -13.6545   22.0338 O   0  0  0  0  0  0  0  0  0  0  0  0
    8.3773  -15.8890   22.4260 N   0  0  0  0  0  0  0  0  0  0  0  0
    9.2378  -15.6241   23.5475 C   0  0  1  0  0  0  0  0  0  0  0  0
    8.7076  -16.1166   24.8621 C   0  0  0  0  0  0  0  0  0  0  0  0
    7.6134  -15.2937   25.3961 C   0  0  0  0  0  0  0  0  0  0  0  0
    6.2877  -15.7060   25.5403 C   0  0  0  0  0  0  0  0  0  0  0  0
    5.5845  -14.6995   26.0852 N   0  0  0  0  0  0  0  0  0  0  0  0
    6.4032  -13.6373   26.3045 C   0  0  0  0  0  0  0  0  0  0  0  0
    6.1175  -12.4015   26.8353 C   0  0  0  0  0  0  0  0  0  0  0  0
    7.1547  -11.4994   26.9352 C   0  0  0  0  0  0  0  0  0  0  0  0
    8.4317  -11.7987   26.5276 C   0  0  0  0  0  0  0  0  0  0  0  0
    8.6705  -13.0508   26.0017 C   0  0  0  0  0  0  0  0  0  0  0  0
    7.6703  -14.0127   25.8719 C   0  0  0  0  0  0  0  0  0  0  0  0
   10.5325  -16.3206   23.3245 C   0  0  0  0  0  0  0  0  0  0  0  0
   10.5094  -17.5388   23.0149 O   0  0  0  0  0  0  0  0  0  0  0  0
   14.1894  -14.2539   19.1531 N   0  0  0  0  0  0  0  0  0  0  0  0
   15.5928  -14.2970   18.9937 C   0  0  0  0  0  0  0  0  0  0  0  0
   16.1170  -14.2300   17.8074 N   0  0  0  0  0  0  0  0  0  0  0  0
   16.4861  -14.4124   20.0879 N   0  0  0  0  0  0  0  0  0  0  0  0
   15.9711  -14.7164   21.4052 C   0  0  0  0  0  0  0  0  0  0  0  0
   14.7310  -15.6005   21.1825 C   0  0  0  0  0  0  0  0  0  0  0  0
   13.6629  -15.0836   22.0861 C   0  0  0  0  0  0  0  0  0  0  0  0
   12.9306  -16.2115   22.7827 C   0  0  2  0  0  0  0  0  0  0  0  0
   11.7705  -15.6555   23.4502 N   0  0  0  0  0  0  0  0  0  0  0  0
   13.7265  -16.9132   23.7949 C   0  0  0  0  0  0  0  0  0  0  0  0
   13.5424  -16.7279   25.0479 O   0  0  0  0  0  0  0  0  0  0  0  0
   14.7282  -17.8221   23.4843 O   0  0  0  0  0  0  0  0  0  0  0  0
  2  1  1  1
  3  4  1  0
  3  2  1  0
  4  5  1  0
  5  6  1  0
  6  7  1  0
  8 10  1  0
  8  2  1  0
  9  8  2  0
 11 22  1  0
 11 10  1  0
 12 13  1  0
 11 12  1  1
 13 14  2  0
 13 21  1  0
 14 15  1  0
 15 16  1  0
 16 17  2  0
 17 18  1  0
 19 18  2  0
 20 19  1  0
 21 20  2  0
 21 16  1  0
 22 23  2  0
 24 25  1  0
 25 26  2  0
 25 27  1  0
 27 28  1  0
 29 28  1  0
 30 29  1  0
 31 30  1  1
 31 33  1  0
 32 31  1  0
 32 22  1  0
 33 34  2  0
 33 35  1  0
M  END
$$$$
