KWR.pdb
     RDKit          3D

 35 36  0  0  1  0  0  0  0  0999 V2000
    6.7282  -16.5567   21.2200 N   0  0  0  0  0  0  0  0  0  0  0  0
    7.9661  -15.9253   20.8163 C   0  0  1  0  0  0  0  0  0  0  0  0
    7.7370  -14.5782   20.1822 C   0  0  0  0  0  0  0  0  0  0  0  0
    7.6643  -14.6514   18.6772 C   0  0  0  0  0  0  0  0  0  0  0  0
    7.6609  -13.2832   18.0392 C   0  0  0  0  0  0  0  0  0  0  0  0
    7.4858  -13.3800   16.5397 C   0  0  0  0  0  0  0  0  0  0  0  0
    7.4376  -12.0692   15.9268 N   0  0  0  0  0  0  0  0  0  0  0  0
    8.7933  -15.7226   22.0281 C   0  0  0  0  0  0  0  0  0  0  0  0
    9.8640  -15.0677   21.9815 O   0  0  0  0  0  0  0  0  0  0  0  0
    8.4087  -16.2598   23.2848 N   0  0  0  0  0  0  0  0  0  0  0  0
    9.2416  -16.0959   24.4458 C   0  0  1  0  0  0  0  0  0  0  0  0
    8.4971  -16.1231   25.7484 C   0  0  0  0  0  0  0  0  0  0  0  0
    7.4467  -15.0997   25.8426 C   0  0  0  0  0  0  0  0  0  0  0  0
    6.0755  -15.3359   25.7328 C   0  0  0  0  0  0  0  0  0  0  0  0
    5.4271  -14.1713   25.8991 N   0  0  0  0  0  0  0  0  0  0  0  0
    6.3261  -13.1752   26.1144 C   0  0  0  0  0  0  0  0  0  0  0  0
    6.1174  -11.8329   26.3270 C   0  0  0  0  0  0  0  0  0  0  0  0
    7.2296  -11.0399   26.5106 C   0  0  0  0  0  0  0  0  0  0  0  0
    8.5061  -11.5461   26.4865 C   0  0  0  0  0  0  0  0  0  0  0  0
    8.6660  -12.8985   26.2701 C   0  0  0  0  0  0  0  0  0  0  0  0
    7.5872  -13.7597   26.0778 C   0  0  0  0  0  0  0  0  0  0  0  0
   10.2159  -17.2184   24.4905 C   0  0  0  0  0  0  0  0  0  0  0  0
    9.7912  -18.3856   24.2963 O   0  0  0  0  0  0  0  0  0  0  0  0
   17.5354  -19.4686   21.7318 N   0  0  0  0  0  0  0  0  0  0  0  0
   16.5707  -19.6166   20.7099 C   0  0  0  0  0  0  0  0  0  0  0  0
   16.7321  -20.5146   19.7856 N   0  0  0  0  0  0  0  0  0  0  0  0
   15.4032  -18.8168   20.6352 N   0  0  0  0  0  0  0  0  0  0  0  0
   15.1048  -17.8821   21.6983 C   0  0  0  0  0  0  0  0  0  0  0  0
   13.9416  -18.5014   22.4938 C   0  0  0  0  0  0  0  0  0  0  0  0
   13.6328  -17.5624   23.6107 C   0  0  0  0  0  0  0  0  0  0  0  0
   12.5171  -18.0906   24.4881 C   0  0  2  0  0  0  0  0  0  0  0  0
   11.5882  -17.0076   24.7423 N   0  0  0  0  0  0  0  0  0  0  0  0
   12.9629  -18.6022   25.7882 C   0  0  0  0  0  0  0  0  0  0  0  0
   12.9397  -19.8511   26.0675 O   0  0  0  0  0  0  0  0  0  0  0  0
   13.4399  -17.7890   26.8066 O   0  0  0  0  0  0  0  0  0  0  0  0
  2  1  1  1
  3  4  1  0
  3  2  1  0
  4  5  1  0
  5  6  1  0
  6  7  1  0
  8 10  1  0
  8  2  1  0
  9  8  2  0
 11 22  1  0
 11 10  1  0
 12 13  1  0
 11 12  1  1
 13 14  2  0
 13 21  1  0
 14 15  1  0
 15 16  1  0
 16 17  2  0
 17 18  1  0
 19 18  2  0
 20 19  1  0
 21 20  2  0
 21 16  1  0
 22 23  2  0
 24 25  1  0
 25 26  2  0
 25 27  1  0
 27 28  1  0
 29 28  1  0
 30 29  1  0
 31 30  1  6
 31 33  1  0
 32 31  1  0
 32 22  1  0
 33 34  2  0
 33 35  1  0
M  END
$$$$
