KWR.pdb
     RDKit          3D

 35 36  0  0  1  0  0  0  0  0999 V2000
    6.8665  -16.3312   20.5744 N   0  0  0  0  0  0  0  0  0  0  0  0
    8.0472  -15.5318   20.3278 C   0  0  1  0  0  0  0  0  0  0  0  0
    7.7064  -14.1582   19.8118 C   0  0  0  0  0  0  0  0  0  0  0  0
    7.1342  -14.1893   18.4163 C   0  0  0  0  0  0  0  0  0  0  0  0
    8.0540  -13.5434   17.4083 C   0  0  0  0  0  0  0  0  0  0  0  0
    7.4472  -13.5647   16.0227 C   0  0  0  0  0  0  0  0  0  0  0  0
    8.3346  -12.9674   15.0471 N   0  0  0  0  0  0  0  0  0  0  0  0
    8.7670  -15.3694   21.6120 C   0  0  0  0  0  0  0  0  0  0  0  0
    9.7436  -14.5864   21.7147 O   0  0  0  0  0  0  0  0  0  0  0  0
    8.3817  -16.0911   22.7724 N   0  0  0  0  0  0  0  0  0  0  0  0
    9.0985  -15.9396   24.0100 C   0  0  1  0  0  0  0  0  0  0  0  0
    8.2611  -16.1476   25.2378 C   0  0  0  0  0  0  0  0  0  0  0  0
    7.1707  -15.1718   25.3736 C   0  0  0  0  0  0  0  0  0  0  0  0
    5.8238  -15.4220   25.1062 C   0  0  0  0  0  0  0  0  0  0  0  0
    5.1221  -14.3073   25.3696 N   0  0  0  0  0  0  0  0  0  0  0  0
    5.9625  -13.3305   25.8012 C   0  0  0  0  0  0  0  0  0  0  0  0
    5.6881  -12.0361   26.1752 C   0  0  0  0  0  0  0  0  0  0  0  0
    6.7507  -11.2509   26.5675 C   0  0  0  0  0  0  0  0  0  0  0  0
    8.0415  -11.7192   26.5924 C   0  0  0  0  0  0  0  0  0  0  0  0
    8.2682  -13.0242   26.2089 C   0  0  0  0  0  0  0  0  0  0  0  0
    7.2420  -13.8749   25.8017 C   0  0  0  0  0  0  0  0  0  0  0  0
   10.1805  -16.9585   24.0570 C   0  0  0  0  0  0  0  0  0  0  0  0
    9.9078  -18.1355   23.7095 O   0  0  0  0  0  0  0  0  0  0  0  0
   15.6013  -18.4395   19.7083 N   0  0  0  0  0  0  0  0  0  0  0  0
   16.6750  -18.6516   20.6021 C   0  0  0  0  0  0  0  0  0  0  0  0
   17.6274  -19.4787   20.2931 N   0  0  0  0  0  0  0  0  0  0  0  0
   16.7735  -17.9929   21.8530 N   0  0  0  0  0  0  0  0  0  0  0  0
   15.7549  -17.0436   22.2460 C   0  0  0  0  0  0  0  0  0  0  0  0
   14.7771  -17.8190   23.1471 C   0  0  0  0  0  0  0  0  0  0  0  0
   13.6542  -16.8909   23.4667 C   0  0  0  0  0  0  0  0  0  0  0  0
   12.5515  -17.5948   24.2297 C   0  0  2  0  0  0  0  0  0  0  0  0
   11.4895  -16.6401   24.4767 N   0  0  0  0  0  0  0  0  0  0  0  0
   12.9670  -18.1365   25.5276 C   0  0  0  0  0  0  0  0  0  0  0  0
   12.6051  -17.5994   26.6317 O   0  0  0  0  0  0  0  0  0  0  0  0
   13.7726  -19.2581   25.6651 O   0  0  0  0  0  0  0  0  0  0  0  0
  2  1  1  1
  3  4  1  0
  3  2  1  0
  4  5  1  0
  5  6  1  0
  6  7  1  0
  8 10  1  0
  8  2  1  0
  9  8  2  0
 11 22  1  0
 11 10  1  0
 12 13  1  0
 11 12  1  1
 13 14  2  0
 13 21  1  0
 14 15  1  0
 15 16  1  0
 16 17  2  0
 17 18  1  0
 19 18  2  0
 20 19  1  0
 21 20  2  0
 21 16  1  0
 22 23  2  0
 24 25  1  0
 25 26  2  0
 25 27  1  0
 27 28  1  0
 29 28  1  0
 30 29  1  0
 31 30  1  1
 31 33  1  0
 32 31  1  0
 32 22  1  0
 33 34  2  0
 33 35  1  0
M  END
$$$$
