NMH.pdb
     RDKit          3D

 27 27  0  0  1  0  0  0  0  0999 V2000
   24.7513  -18.5032  -19.3983 N   0  0  0  0  0  0  0  0  0  0  0  0
   26.0594  -18.1789  -18.9597 C   0  0  0  0  0  0  0  0  0  0  0  0
   26.9003  -19.0972  -18.7679 O   0  0  0  0  0  0  0  0  0  0  0  0
   26.4987  -16.7826  -18.7093 C   0  0  0  0  0  0  0  0  0  0  0  0
   25.4071  -15.8025  -18.9836 C   0  0  2  0  0  0  0  0  0  0  0  0
   25.4687  -15.3446  -20.3411 N   0  0  0  0  0  0  0  0  0  0  0  0
   25.3519  -14.7005  -18.0030 C   0  0  0  0  0  0  0  0  0  0  0  0
   25.0525  -14.9147  -16.7807 O   0  0  0  0  0  0  0  0  0  0  0  0
   29.2501   -9.6234  -17.2495 C   0  0  0  0  0  0  0  0  0  0  0  0
   27.6701   -8.8359  -16.9137 S   0  0  0  0  0  0  0  0  0  0  0  0
   26.3683  -10.0889  -16.6004 C   0  0  0  0  0  0  0  0  0  0  0  0
   26.5347  -11.2237  -17.5693 C   0  0  0  0  0  0  0  0  0  0  0  0
   25.4665  -12.2402  -17.3806 C   0  0  2  0  0  0  0  0  0  0  0  0
   25.6204  -13.3496  -18.3321 N   0  0  0  0  0  0  0  0  0  0  0  0
   24.0722  -11.7146  -17.4668 C   0  0  0  0  0  0  0  0  0  0  0  0
   23.5151  -11.3667  -18.5295 O   0  0  0  0  0  0  0  0  0  0  0  0
   23.2782  -11.5817  -16.2762 N   0  0  0  0  0  0  0  0  0  0  0  0
   21.9311  -11.0076  -16.3848 C   0  0  1  0  0  0  0  0  0  0  0  0
   21.0670  -11.4596  -15.2580 C   0  0  0  0  0  0  0  0  0  0  0  0
   19.7027  -10.9151  -15.3993 C   0  0  0  0  0  0  0  0  0  0  0  0
   19.2075  -10.0438  -16.3413 C   0  0  0  0  0  0  0  0  0  0  0  0
   17.9069   -9.7612  -16.1099 N   0  0  0  0  0  0  0  0  0  0  0  0
   17.5817  -10.4616  -15.0111 C   0  0  0  0  0  0  0  0  0  0  0  0
   18.6321  -11.1500  -14.5772 N   0  0  0  0  0  0  0  0  0  0  0  0
   22.0491   -9.5394  -16.3829 C   0  0  0  0  0  0  0  0  0  0  0  0
   22.8527   -8.8847  -15.6548 O   0  0  0  0  0  0  0  0  0  0  0  0
   21.2088   -8.8161  -17.2523 O   0  0  0  0  0  0  0  0  0  0  0  0
  2  1  1  0
  3  2  2  0
  4  2  1  0
  5  4  1  0
  5  6  1  6
  7  5  1  0
  7  8  2  0
  9 10  1  0
 10 11  1  0
 12 11  1  0
 13 12  1  6
 13 14  1  0
 14  7  1  0
 15 13  1  0
 16 15  2  0
 17 15  1  0
 18 17  1  0
 18 25  1  0
 19 20  1  0
 18 19  1  1
 20 21  2  0
 20 24  1  0
 21 22  1  0
 22 23  1  0
 24 23  2  0
 25 27  1  0
 26 25  2  0
M  END
$$$$
