NMH.pdb
     RDKit          3D

 27 27  0  0  1  0  0  0  0  0999 V2000
   19.4925  -14.9406  -19.5963 N   0  0  0  0  0  0  0  0  0  0  0  0
   19.3403  -13.5517  -19.8344 C   0  0  0  0  0  0  0  0  0  0  0  0
   18.7976  -13.1558  -20.9001 O   0  0  0  0  0  0  0  0  0  0  0  0
   19.7974  -12.5177  -18.8716 C   0  0  0  0  0  0  0  0  0  0  0  0
   20.4691  -13.1256  -17.6855 C   0  0  2  0  0  0  0  0  0  0  0  0
   19.5503  -13.9442  -16.9491 N   0  0  0  0  0  0  0  0  0  0  0  0
   21.1693  -12.1379  -16.8410 C   0  0  0  0  0  0  0  0  0  0  0  0
   20.6171  -11.6441  -15.8015 O   0  0  0  0  0  0  0  0  0  0  0  0
   27.8510  -10.6655  -16.8615 C   0  0  0  0  0  0  0  0  0  0  0  0
   27.1390  -10.5375  -15.2164 S   0  0  0  0  0  0  0  0  0  0  0  0
   25.3692  -10.0659  -15.3046 C   0  0  0  0  0  0  0  0  0  0  0  0
   24.6418  -11.0468  -16.1781 C   0  0  0  0  0  0  0  0  0  0  0  0
   23.1925  -10.7227  -16.2431 C   0  0  2  0  0  0  0  0  0  0  0  0
   22.4786  -11.6704  -17.1103 N   0  0  0  0  0  0  0  0  0  0  0  0
   22.8755   -9.3306  -16.6784 C   0  0  0  0  0  0  0  0  0  0  0  0
   23.0995   -8.8823  -17.8227 O   0  0  0  0  0  0  0  0  0  0  0  0
   22.2722   -8.4079  -15.7562 N   0  0  0  0  0  0  0  0  0  0  0  0
   21.7016   -7.1591  -16.2767 C   0  0  1  0  0  0  0  0  0  0  0  0
   20.7255   -7.4340  -17.3686 C   0  0  0  0  0  0  0  0  0  0  0  0
   20.2340   -6.1724  -17.9554 C   0  0  0  0  0  0  0  0  0  0  0  0
   20.9187   -5.0069  -18.2096 C   0  0  0  0  0  0  0  0  0  0  0  0
   20.1022   -4.0634  -18.7277 N   0  0  0  0  0  0  0  0  0  0  0  0
   18.8923   -4.6418  -18.7994 C   0  0  0  0  0  0  0  0  0  0  0  0
   18.9517   -5.8896  -18.3465 N   0  0  0  0  0  0  0  0  0  0  0  0
   21.0423   -6.4501  -15.1667 C   0  0  0  0  0  0  0  0  0  0  0  0
   20.4215   -5.3522  -15.2841 O   0  0  0  0  0  0  0  0  0  0  0  0
   21.1085   -7.0361  -13.8872 O   0  0  0  0  0  0  0  0  0  0  0  0
  2  1  1  0
  3  2  2  0
  4  2  1  0
  5  4  1  0
  5  6  1  1
  7  5  1  0
  7  8  2  0
  9 10  1  0
 10 11  1  0
 12 11  1  0
 13 12  1  6
 13 14  1  0
 14  7  1  0
 15 13  1  0
 16 15  2  0
 17 15  1  0
 18 17  1  0
 18 25  1  0
 19 20  1  0
 18 19  1  6
 20 21  2  0
 20 24  1  0
 21 22  1  0
 22 23  1  0
 24 23  2  0
 25 27  1  0
 26 25  2  0
M  END
$$$$
