NMH.pdb
     RDKit          3D

 27 27  0  0  1  0  0  0  0  0999 V2000
   24.5833  -31.0092  -16.6870 N   0  0  0  0  0  0  0  0  0  0  0  0
   24.0367  -32.3146  -16.7644 C   0  0  0  0  0  0  0  0  0  0  0  0
   23.0481  -32.5351  -17.5134 O   0  0  0  0  0  0  0  0  0  0  0  0
   24.5812  -33.4598  -15.9915 C   0  0  0  0  0  0  0  0  0  0  0  0
   25.7577  -33.0590  -15.1652 C   0  0  2  0  0  0  0  0  0  0  0  0
   26.9617  -33.1095  -15.9426 N   0  0  0  0  0  0  0  0  0  0  0  0
   25.8583  -33.8017  -13.8935 C   0  0  0  0  0  0  0  0  0  0  0  0
   26.2557  -35.0144  -13.8634 O   0  0  0  0  0  0  0  0  0  0  0  0
   24.2852  -32.1600   -6.9566 C   0  0  0  0  0  0  0  0  0  0  0  0
   25.9425  -32.5297   -7.5448 S   0  0  0  0  0  0  0  0  0  0  0  0
   25.8933  -33.7423   -8.9195 C   0  0  0  0  0  0  0  0  0  0  0  0
   25.7534  -33.0057  -10.2202 C   0  0  0  0  0  0  0  0  0  0  0  0
   25.7035  -33.9557  -11.3625 C   0  0  2  0  0  0  0  0  0  0  0  0
   25.5297  -33.2415  -12.6351 N   0  0  0  0  0  0  0  0  0  0  0  0
   24.6615  -35.0189  -11.2547 C   0  0  0  0  0  0  0  0  0  0  0  0
   23.4485  -34.8434  -11.4962 O   0  0  0  0  0  0  0  0  0  0  0  0
   25.0289  -36.3483  -10.8501 N   0  0  0  0  0  0  0  0  0  0  0  0
   23.9712  -37.3513  -10.6730 C   0  0  1  0  0  0  0  0  0  0  0  0
   24.5242  -38.7316  -10.7716 C   0  0  0  0  0  0  0  0  0  0  0  0
   23.4355  -39.7277  -10.7803 C   0  0  0  0  0  0  0  0  0  0  0  0
   22.0820  -39.5351  -10.9317 C   0  0  0  0  0  0  0  0  0  0  0  0
   21.4099  -40.7042  -10.8512 N   0  0  0  0  0  0  0  0  0  0  0  0
   22.3505  -41.6408  -10.6468 C   0  0  0  0  0  0  0  0  0  0  0  0
   23.5547  -41.0809  -10.6020 N   0  0  0  0  0  0  0  0  0  0  0  0
   23.3472  -37.1424   -9.3552 C   0  0  0  0  0  0  0  0  0  0  0  0
   23.9581  -36.7145   -8.3314 O   0  0  0  0  0  0  0  0  0  0  0  0
   21.9760  -37.4399   -9.2280 O   0  0  0  0  0  0  0  0  0  0  0  0
  2  1  1  0
  3  2  2  0
  4  2  1  0
  5  4  1  0
  5  6  1  6
  7  5  1  0
  7  8  2  0
  9 10  1  0
 10 11  1  0
 12 11  1  0
 13 12  1  1
 13 14  1  0
 14  7  1  0
 15 13  1  0
 16 15  2  0
 17 15  1  0
 18 17  1  0
 18 25  1  0
 19 20  1  0
 18 19  1  1
 20 21  2  0
 20 24  1  0
 21 22  1  0
 22 23  1  0
 24 23  2  0
 25 27  1  0
 26 25  2  0
M  END
$$$$
