NMH.pdb
     RDKit          3D

 27 27  0  0  1  0  0  0  0  0999 V2000
   19.6456  -15.2945  -15.7138 N   0  0  0  0  0  0  0  0  0  0  0  0
   19.2515  -13.9422  -15.8712 C   0  0  0  0  0  0  0  0  0  0  0  0
   18.1982  -13.6676  -16.5054 O   0  0  0  0  0  0  0  0  0  0  0  0
   20.0332  -12.8086  -15.3151 C   0  0  0  0  0  0  0  0  0  0  0  0
   20.1412  -11.6821  -16.2882 C   0  0  2  0  0  0  0  0  0  0  0  0
   20.6094  -12.1549  -17.5584 N   0  0  0  0  0  0  0  0  0  0  0  0
   20.9199  -10.5386  -15.7734 C   0  0  0  0  0  0  0  0  0  0  0  0
   20.6386   -9.9952  -14.6532 O   0  0  0  0  0  0  0  0  0  0  0  0
   27.2733  -11.4545  -14.7114 C   0  0  0  0  0  0  0  0  0  0  0  0
   26.5685  -10.0542  -15.5898 S   0  0  0  0  0  0  0  0  0  0  0  0
   24.7535   -9.9722  -15.3407 C   0  0  0  0  0  0  0  0  0  0  0  0
   24.1861   -8.8890  -16.2118 C   0  0  0  0  0  0  0  0  0  0  0  0
   22.7194   -8.7606  -16.0070 C   0  0  2  0  0  0  0  0  0  0  0  0
   22.0154   -9.9666  -16.4650 N   0  0  0  0  0  0  0  0  0  0  0  0
   22.0956   -7.5623  -16.6417 C   0  0  0  0  0  0  0  0  0  0  0  0
   22.0930   -7.3371  -17.8705 O   0  0  0  0  0  0  0  0  0  0  0  0
   21.4430   -6.5740  -15.8271 N   0  0  0  0  0  0  0  0  0  0  0  0
   20.8318   -5.4100  -16.4810 C   0  0  1  0  0  0  0  0  0  0  0  0
   19.8685   -5.8362  -17.5352 C   0  0  0  0  0  0  0  0  0  0  0  0
   18.6533   -6.4108  -16.9263 C   0  0  0  0  0  0  0  0  0  0  0  0
   18.4417   -6.8245  -15.6318 C   0  0  0  0  0  0  0  0  0  0  0  0
   17.1962   -7.3239  -15.4756 N   0  0  0  0  0  0  0  0  0  0  0  0
   16.6195   -7.2234  -16.6843 C   0  0  0  0  0  0  0  0  0  0  0  0
   17.4672   -6.6854  -17.5547 N   0  0  0  0  0  0  0  0  0  0  0  0
   20.1459   -4.6063  -15.4549 C   0  0  0  0  0  0  0  0  0  0  0  0
   20.0352   -4.9392  -14.2378 O   0  0  0  0  0  0  0  0  0  0  0  0
   19.5747   -3.3831  -15.8581 O   0  0  0  0  0  0  0  0  0  0  0  0
  2  1  1  0
  3  2  2  0
  4  2  1  0
  5  4  1  0
  5  6  1  6
  7  5  1  0
  7  8  2  0
  9 10  1  0
 10 11  1  0
 12 11  1  0
 13 12  1  6
 13 14  1  0
 14  7  1  0
 15 13  1  0
 16 15  2  0
 17 15  1  0
 18 17  1  0
 18 25  1  0
 19 20  1  0
 18 19  1  6
 20 21  2  0
 20 24  1  0
 21 22  1  0
 22 23  1  0
 24 23  2  0
 25 27  1  0
 26 25  2  0
M  END
$$$$
