NMH.pdb
     RDKit          3D

 27 27  0  0  1  0  0  0  0  0999 V2000
   16.0389  -13.5961   -9.5628 N   0  0  0  0  0  0  0  0  0  0  0  0
   16.1095  -13.2940  -10.9458 C   0  0  0  0  0  0  0  0  0  0  0  0
   16.4963  -14.1747  -11.7592 O   0  0  0  0  0  0  0  0  0  0  0  0
   15.7431  -11.9645  -11.4965 C   0  0  0  0  0  0  0  0  0  0  0  0
   15.3150  -11.0206  -10.4226 C   0  0  2  0  0  0  0  0  0  0  0  0
   14.2030  -11.5565   -9.6928 N   0  0  0  0  0  0  0  0  0  0  0  0
   15.0788   -9.6480  -10.9117 C   0  0  0  0  0  0  0  0  0  0  0  0
   14.1945   -9.4031  -11.7991 O   0  0  0  0  0  0  0  0  0  0  0  0
   13.8988   -3.9249   -7.9256 C   0  0  0  0  0  0  0  0  0  0  0  0
   13.9382   -5.6594   -7.4573 S   0  0  0  0  0  0  0  0  0  0  0  0
   15.0614   -6.6076   -8.5538 C   0  0  0  0  0  0  0  0  0  0  0  0
   14.6140   -6.4422   -9.9773 C   0  0  0  0  0  0  0  0  0  0  0  0
   15.5350   -7.1488  -10.9059 C   0  0  2  0  0  0  0  0  0  0  0  0
   15.7975   -8.5199  -10.4464 N   0  0  0  0  0  0  0  0  0  0  0  0
   16.8363   -6.4599  -11.1506 C   0  0  0  0  0  0  0  0  0  0  0  0
   17.7639   -6.3899  -10.3168 O   0  0  0  0  0  0  0  0  0  0  0  0
   17.0856   -5.8200  -12.4132 N   0  0  0  0  0  0  0  0  0  0  0  0
   18.3196   -5.0419  -12.5803 C   0  0  1  0  0  0  0  0  0  0  0  0
   19.0519   -5.4618  -13.8084 C   0  0  0  0  0  0  0  0  0  0  0  0
   19.7130   -6.7643  -13.5988 C   0  0  0  0  0  0  0  0  0  0  0  0
   19.8537   -7.4915  -12.4399 C   0  0  0  0  0  0  0  0  0  0  0  0
   20.5536   -8.6265  -12.6569 N   0  0  0  0  0  0  0  0  0  0  0  0
   20.8560   -8.6122  -13.9653 C   0  0  0  0  0  0  0  0  0  0  0  0
   20.3666   -7.5177  -14.5383 N   0  0  0  0  0  0  0  0  0  0  0  0
   17.9634   -3.6149  -12.6589 C   0  0  0  0  0  0  0  0  0  0  0  0
   16.7774   -3.1728  -12.7074 O   0  0  0  0  0  0  0  0  0  0  0  0
   19.0168   -2.6796  -12.6815 O   0  0  0  0  0  0  0  0  0  0  0  0
  2  1  1  0
  3  2  2  0
  4  2  1  0
  5  4  1  0
  5  6  1  6
  7  5  1  0
  7  8  2  0
  9 10  1  0
 10 11  1  0
 12 11  1  0
 13 12  1  1
 13 14  1  0
 14  7  1  0
 15 13  1  0
 16 15  2  0
 17 15  1  0
 18 17  1  0
 18 25  1  0
 19 20  1  0
 18 19  1  6
 20 21  2  0
 20 24  1  0
 21 22  1  0
 22 23  1  0
 24 23  2  0
 25 27  1  0
 26 25  2  0
M  END
$$$$
