NMH.pdb
     RDKit          3D

 27 27  0  0  1  0  0  0  0  0999 V2000
   30.0942  -19.6282    9.2945 N   0  0  0  0  0  0  0  0  0  0  0  0
   30.5430  -20.9658    9.4288 C   0  0  0  0  0  0  0  0  0  0  0  0
   31.6105  -21.3267    8.8656 O   0  0  0  0  0  0  0  0  0  0  0  0
   29.8036  -21.9851   10.2159 C   0  0  0  0  0  0  0  0  0  0  0  0
   28.5189  -21.4454   10.7503 C   0  0  2  0  0  0  0  0  0  0  0  0
   28.7610  -20.3229   11.6092 N   0  0  0  0  0  0  0  0  0  0  0  0
   27.6660  -22.4770   11.3726 C   0  0  0  0  0  0  0  0  0  0  0  0
   27.9976  -23.0380   12.4702 O   0  0  0  0  0  0  0  0  0  0  0  0
   22.1478  -22.4146    8.6581 C   0  0  0  0  0  0  0  0  0  0  0  0
   21.8830  -22.6378   10.4215 S   0  0  0  0  0  0  0  0  0  0  0  0
   23.4811  -22.7317   11.3160 C   0  0  0  0  0  0  0  0  0  0  0  0
   24.2328  -23.9463   10.8537 C   0  0  0  0  0  0  0  0  0  0  0  0
   25.6070  -23.9643   11.4202 C   0  0  2  0  0  0  0  0  0  0  0  0
   26.4408  -22.9164   10.8148 N   0  0  0  0  0  0  0  0  0  0  0  0
   26.3168  -25.2730   11.3141 C   0  0  0  0  0  0  0  0  0  0  0  0
   27.0929  -25.5800   10.3846 O   0  0  0  0  0  0  0  0  0  0  0  0
   26.1270  -26.2787   12.3233 N   0  0  0  0  0  0  0  0  0  0  0  0
   26.8576  -27.5468   12.2044 C   0  0  1  0  0  0  0  0  0  0  0  0
   27.9999  -27.5951   13.1601 C   0  0  0  0  0  0  0  0  0  0  0  0
   29.2015  -26.9792   12.5645 C   0  0  0  0  0  0  0  0  0  0  0  0
   29.7617  -27.1870   11.3257 C   0  0  0  0  0  0  0  0  0  0  0  0
   30.8830  -26.4504   11.1666 N   0  0  0  0  0  0  0  0  0  0  0  0
   31.0289  -25.7733   12.3172 C   0  0  0  0  0  0  0  0  0  0  0  0
   30.0430  -26.0740   13.1558 N   0  0  0  0  0  0  0  0  0  0  0  0
   25.9200  -28.6512   12.4704 C   0  0  0  0  0  0  0  0  0  0  0  0
   24.6931  -28.5003   12.7470 O   0  0  0  0  0  0  0  0  0  0  0  0
   26.4258  -29.9649   12.4123 O   0  0  0  0  0  0  0  0  0  0  0  0
  2  1  1  0
  3  2  2  0
  4  2  1  0
  5  4  1  0
  5  6  1  1
  7  5  1  0
  7  8  2  0
  9 10  1  0
 10 11  1  0
 12 11  1  0
 13 12  1  6
 13 14  1  0
 14  7  1  0
 15 13  1  0
 16 15  2  0
 17 15  1  0
 18 17  1  0
 18 25  1  0
 19 20  1  0
 18 19  1  1
 20 21  2  0
 20 24  1  0
 21 22  1  0
 22 23  1  0
 24 23  2  0
 25 27  1  0
 26 25  2  0
M  END
$$$$
