NMH.pdb
     RDKit          3D

 27 27  0  0  1  0  0  0  0  0999 V2000
   33.2645  -21.6026  -10.5526 N   0  0  0  0  0  0  0  0  0  0  0  0
   32.5419  -22.7447  -10.9795 C   0  0  0  0  0  0  0  0  0  0  0  0
   33.1449  -23.6837  -11.5640 O   0  0  0  0  0  0  0  0  0  0  0  0
   31.0796  -22.8942  -10.7686 C   0  0  0  0  0  0  0  0  0  0  0  0
   30.4103  -21.5732  -10.5829 C   0  0  2  0  0  0  0  0  0  0  0  0
   31.2477  -20.6839   -9.8316 N   0  0  0  0  0  0  0  0  0  0  0  0
   29.0440  -21.6828  -10.0350 C   0  0  0  0  0  0  0  0  0  0  0  0
   28.2921  -22.6737  -10.3215 O   0  0  0  0  0  0  0  0  0  0  0  0
   28.0310  -18.0356   -5.1050 C   0  0  0  0  0  0  0  0  0  0  0  0
   27.6407  -19.7540   -4.7531 S   0  0  0  0  0  0  0  0  0  0  0  0
   27.7221  -20.7688   -6.2783 C   0  0  0  0  0  0  0  0  0  0  0  0
   26.9580  -20.0776   -7.3702 C   0  0  0  0  0  0  0  0  0  0  0  0
   27.0969  -20.8091   -8.6568 C   0  0  2  0  0  0  0  0  0  0  0  0
   28.4718  -20.7200   -9.1683 N   0  0  0  0  0  0  0  0  0  0  0  0
   26.1499  -20.3852   -9.7298 C   0  0  0  0  0  0  0  0  0  0  0  0
   26.0203  -19.2090  -10.1306 O   0  0  0  0  0  0  0  0  0  0  0  0
   25.3107  -21.3577  -10.3746 N   0  0  0  0  0  0  0  0  0  0  0  0
   24.4460  -20.9244  -11.4794 C   0  0  1  0  0  0  0  0  0  0  0  0
   24.2332  -22.0308  -12.4547 C   0  0  0  0  0  0  0  0  0  0  0  0
   23.2842  -21.6197  -13.5073 C   0  0  0  0  0  0  0  0  0  0  0  0
   22.8459  -20.3587  -13.8386 C   0  0  0  0  0  0  0  0  0  0  0  0
   21.9488  -20.4025  -14.8478 N   0  0  0  0  0  0  0  0  0  0  0  0
   21.8219  -21.7041  -15.1534 C   0  0  0  0  0  0  0  0  0  0  0  0
   22.6046  -22.4387  -14.3702 N   0  0  0  0  0  0  0  0  0  0  0  0
   23.1584  -20.4823  -10.9172 C   0  0  0  0  0  0  0  0  0  0  0  0
   22.7374  -20.7861   -9.7619 O   0  0  0  0  0  0  0  0  0  0  0  0
   22.3409  -19.6651  -11.7227 O   0  0  0  0  0  0  0  0  0  0  0  0
  2  1  1  0
  3  2  2  0
  4  2  1  0
  5  4  1  0
  5  6  1  1
  7  5  1  0
  7  8  2  0
  9 10  1  0
 10 11  1  0
 12 11  1  0
 13 12  1  1
 13 14  1  0
 14  7  1  0
 15 13  1  0
 16 15  2  0
 17 15  1  0
 18 17  1  0
 18 25  1  0
 19 20  1  0
 18 19  1  6
 20 21  2  0
 20 24  1  0
 21 22  1  0
 22 23  1  0
 24 23  2  0
 25 27  1  0
 26 25  2  0
M  END
$$$$
