NMH.pdb
     RDKit          3D

 27 27  0  0  1  0  0  0  0  0999 V2000
   17.9423  -26.7757    5.0045 N   0  0  0  0  0  0  0  0  0  0  0  0
   18.5431  -26.1148    3.9041 C   0  0  0  0  0  0  0  0  0  0  0  0
   19.2194  -26.7752    3.0713 O   0  0  0  0  0  0  0  0  0  0  0  0
   18.4135  -24.6529    3.6778 C   0  0  0  0  0  0  0  0  0  0  0  0
   17.6045  -23.9979    4.7474 C   0  0  2  0  0  0  0  0  0  0  0  0
   16.2117  -24.2958    4.5812 N   0  0  0  0  0  0  0  0  0  0  0  0
   17.8753  -22.5531    4.8822 C   0  0  0  0  0  0  0  0  0  0  0  0
   19.0563  -22.1164    5.0919 O   0  0  0  0  0  0  0  0  0  0  0  0
   16.4931  -18.5199   -0.2003 C   0  0  0  0  0  0  0  0  0  0  0  0
   15.9143  -18.3620    1.4937 S   0  0  0  0  0  0  0  0  0  0  0  0
   16.8917  -19.4283    2.6209 C   0  0  0  0  0  0  0  0  0  0  0  0
   16.3358  -19.3141    4.0108 C   0  0  0  0  0  0  0  0  0  0  0  0
   17.1345  -20.1246    4.9674 C   0  0  2  0  0  0  0  0  0  0  0  0
   16.8703  -21.5596    4.7918 N   0  0  0  0  0  0  0  0  0  0  0  0
   16.9502  -19.7679    6.4050 C   0  0  0  0  0  0  0  0  0  0  0  0
   16.4710  -20.5364    7.2655 O   0  0  0  0  0  0  0  0  0  0  0  0
   17.3341  -18.4663    6.8786 N   0  0  0  0  0  0  0  0  0  0  0  0
   17.1448  -18.1463    8.2991 C   0  0  1  0  0  0  0  0  0  0  0  0
   17.8840  -19.1080    9.1648 C   0  0  0  0  0  0  0  0  0  0  0  0
   17.6570  -18.8032   10.5907 C   0  0  0  0  0  0  0  0  0  0  0  0
   16.5442  -18.2719   11.1998 C   0  0  0  0  0  0  0  0  0  0  0  0
   16.7412  -18.1156   12.5272 N   0  0  0  0  0  0  0  0  0  0  0  0
   17.9906  -18.5527   12.7544 C   0  0  0  0  0  0  0  0  0  0  0  0
   18.5473  -18.9632   11.6198 N   0  0  0  0  0  0  0  0  0  0  0  0
   17.6223  -16.7731    8.5348 C   0  0  0  0  0  0  0  0  0  0  0  0
   17.7153  -16.2314    9.6761 O   0  0  0  0  0  0  0  0  0  0  0  0
   18.0011  -16.0121    7.4113 O   0  0  0  0  0  0  0  0  0  0  0  0
  2  1  1  0
  3  2  2  0
  4  2  1  0
  5  4  1  0
  5  6  1  6
  7  5  1  0
  7  8  2  0
  9 10  1  0
 10 11  1  0
 12 11  1  0
 13 12  1  6
 13 14  1  0
 14  7  1  0
 15 13  1  0
 16 15  2  0
 17 15  1  0
 18 17  1  0
 18 25  1  0
 19 20  1  0
 18 19  1  1
 20 21  2  0
 20 24  1  0
 21 22  1  0
 22 23  1  0
 24 23  2  0
 25 27  1  0
 26 25  2  0
M  END
$$$$
