NMH.pdb
     RDKit          3D

 27 27  0  0  1  0  0  0  0  0999 V2000
   24.7390  -20.9218  -19.1394 N   0  0  0  0  0  0  0  0  0  0  0  0
   25.5994  -20.5823  -18.0655 C   0  0  0  0  0  0  0  0  0  0  0  0
   26.8132  -20.3322  -18.2918 O   0  0  0  0  0  0  0  0  0  0  0  0
   25.1334  -20.5046  -16.6577 C   0  0  0  0  0  0  0  0  0  0  0  0
   23.6586  -20.7079  -16.5519 C   0  0  2  0  0  0  0  0  0  0  0  0
   22.9579  -19.7537  -17.3611 N   0  0  0  0  0  0  0  0  0  0  0  0
   23.1738  -20.7519  -15.1583 C   0  0  0  0  0  0  0  0  0  0  0  0
   23.5779  -19.9095  -14.2886 O   0  0  0  0  0  0  0  0  0  0  0  0
   20.2414  -17.4676  -12.5116 C   0  0  0  0  0  0  0  0  0  0  0  0
   19.6117  -18.7337  -11.4027 S   0  0  0  0  0  0  0  0  0  0  0  0
   20.4971  -20.3202  -11.6514 C   0  0  0  0  0  0  0  0  0  0  0  0
   21.0742  -20.3492  -13.0371 C   0  0  0  0  0  0  0  0  0  0  0  0
   21.6682  -21.6791  -13.3342 C   0  0  2  0  0  0  0  0  0  0  0  0
   22.2435  -21.7096  -14.6862 N   0  0  0  0  0  0  0  0  0  0  0  0
   20.7387  -22.8360  -13.1744 C   0  0  0  0  0  0  0  0  0  0  0  0
   20.7876  -23.8788  -13.8605 O   0  0  0  0  0  0  0  0  0  0  0  0
   19.7025  -22.7946  -12.1792 N   0  0  0  0  0  0  0  0  0  0  0  0
   18.9800  -24.0320  -11.8585 C   0  0  1  0  0  0  0  0  0  0  0  0
   19.8930  -25.0384  -11.2466 C   0  0  0  0  0  0  0  0  0  0  0  0
   19.1696  -26.2942  -10.9684 C   0  0  0  0  0  0  0  0  0  0  0  0
   17.8321  -26.5784  -11.1170 C   0  0  0  0  0  0  0  0  0  0  0  0
   17.5538  -27.8404  -10.7234 N   0  0  0  0  0  0  0  0  0  0  0  0
   18.7283  -28.3543  -10.3231 C   0  0  0  0  0  0  0  0  0  0  0  0
   19.6952  -27.4533  -10.4610 N   0  0  0  0  0  0  0  0  0  0  0  0
   17.8836  -23.7042  -10.9312 C   0  0  0  0  0  0  0  0  0  0  0  0
   17.7222  -22.5747  -10.3811 O   0  0  0  0  0  0  0  0  0  0  0  0
   16.9515  -24.7192  -10.6380 O   0  0  0  0  0  0  0  0  0  0  0  0
  2  1  1  0
  3  2  2  0
  4  2  1  0
  5  4  1  0
  5  6  1  6
  7  5  1  0
  7  8  2  0
  9 10  1  0
 10 11  1  0
 12 11  1  0
 13 12  1  6
 13 14  1  0
 14  7  1  0
 15 13  1  0
 16 15  2  0
 17 15  1  0
 18 17  1  0
 18 25  1  0
 19 20  1  0
 18 19  1  1
 20 21  2  0
 20 24  1  0
 21 22  1  0
 22 23  1  0
 24 23  2  0
 25 27  1  0
 26 25  2  0
M  END
$$$$
