NMH.pdb
     RDKit          3D

 27 27  0  0  1  0  0  0  0  0999 V2000
   21.1767  -15.7486  -18.9782 N   0  0  0  0  0  0  0  0  0  0  0  0
   21.4282  -15.8698  -17.5887 C   0  0  0  0  0  0  0  0  0  0  0  0
   21.3054  -16.9903  -17.0264 O   0  0  0  0  0  0  0  0  0  0  0  0
   21.8377  -14.7191  -16.7440 C   0  0  0  0  0  0  0  0  0  0  0  0
   21.8721  -13.4465  -17.5230 C   0  0  2  0  0  0  0  0  0  0  0  0
   22.7276  -13.5773  -18.6664 N   0  0  0  0  0  0  0  0  0  0  0  0
   22.1869  -12.2645  -16.6968 C   0  0  0  0  0  0  0  0  0  0  0  0
   21.5228  -11.9984  -15.6396 O   0  0  0  0  0  0  0  0  0  0  0  0
   27.9921   -9.9667  -16.9420 C   0  0  0  0  0  0  0  0  0  0  0  0
   27.5659  -10.9719  -15.5146 S   0  0  0  0  0  0  0  0  0  0  0  0
   25.7478  -11.1587  -15.3655 C   0  0  0  0  0  0  0  0  0  0  0  0
   25.0760  -10.0419  -16.1108 C   0  0  0  0  0  0  0  0  0  0  0  0
   23.6018  -10.2319  -16.1307 C   0  0  2  0  0  0  0  0  0  0  0  0
   23.2262  -11.3528  -17.0037 N   0  0  0  0  0  0  0  0  0  0  0  0
   22.8147   -9.0254  -16.5217 C   0  0  0  0  0  0  0  0  0  0  0  0
   22.6340   -8.6540  -17.7007 O   0  0  0  0  0  0  0  0  0  0  0  0
   22.2053   -8.2050  -15.5110 N   0  0  0  0  0  0  0  0  0  0  0  0
   21.2888   -7.1355  -15.9260 C   0  0  1  0  0  0  0  0  0  0  0  0
   20.1324   -7.6897  -16.6853 C   0  0  0  0  0  0  0  0  0  0  0  0
   19.1986   -6.6130  -17.0679 C   0  0  0  0  0  0  0  0  0  0  0  0
   19.2881   -5.2606  -16.8339 C   0  0  0  0  0  0  0  0  0  0  0  0
   18.2095   -4.6081  -17.3199 N   0  0  0  0  0  0  0  0  0  0  0  0
   17.4344   -5.5602  -17.8643 C   0  0  0  0  0  0  0  0  0  0  0  0
   18.0041   -6.7525  -17.7243 N   0  0  0  0  0  0  0  0  0  0  0  0
   20.8199   -6.4303  -14.7209 C   0  0  0  0  0  0  0  0  0  0  0  0
   21.1463   -6.7381  -13.5364 O   0  0  0  0  0  0  0  0  0  0  0  0
   19.9482   -5.3383  -14.9016 O   0  0  0  0  0  0  0  0  0  0  0  0
  2  1  1  0
  3  2  2  0
  4  2  1  0
  5  4  1  0
  5  6  1  6
  7  5  1  0
  7  8  2  0
  9 10  1  0
 10 11  1  0
 12 11  1  0
 13 12  1  6
 13 14  1  0
 14  7  1  0
 15 13  1  0
 16 15  2  0
 17 15  1  0
 18 17  1  0
 18 25  1  0
 19 20  1  0
 18 19  1  1
 20 21  2  0
 20 24  1  0
 21 22  1  0
 22 23  1  0
 24 23  2  0
 25 27  1  0
 26 25  2  0
M  END
$$$$
