NMH.pdb
     RDKit          3D

 27 27  0  0  1  0  0  0  0  0999 V2000
   29.1235  -19.9716  -16.6558 N   0  0  0  0  0  0  0  0  0  0  0  0
   29.0727  -21.3356  -16.2740 C   0  0  0  0  0  0  0  0  0  0  0  0
   29.7691  -22.1843  -16.8918 O   0  0  0  0  0  0  0  0  0  0  0  0
   28.2225  -21.8257  -15.1594 C   0  0  0  0  0  0  0  0  0  0  0  0
   27.4360  -20.7204  -14.5373 C   0  0  2  0  0  0  0  0  0  0  0  0
   28.3098  -19.7099  -14.0161 N   0  0  0  0  0  0  0  0  0  0  0  0
   26.4443  -21.1927  -13.5512 C   0  0  0  0  0  0  0  0  0  0  0  0
   25.5635  -22.0632  -13.8611 O   0  0  0  0  0  0  0  0  0  0  0  0
   28.6655  -21.1662   -7.0976 C   0  0  0  0  0  0  0  0  0  0  0  0
   27.1279  -20.4915   -7.7378 S   0  0  0  0  0  0  0  0  0  0  0  0
   26.8072  -21.0951   -9.4395 C   0  0  0  0  0  0  0  0  0  0  0  0
   25.5341  -20.4822   -9.9469 C   0  0  0  0  0  0  0  0  0  0  0  0
   25.2392  -20.9446  -11.3285 C   0  0  2  0  0  0  0  0  0  0  0  0
   26.3920  -20.7289  -12.2141 N   0  0  0  0  0  0  0  0  0  0  0  0
   24.0261  -20.3383  -11.9520 C   0  0  0  0  0  0  0  0  0  0  0  0
   24.0536  -19.4196  -12.7982 O   0  0  0  0  0  0  0  0  0  0  0  0
   22.7179  -20.8087  -11.5872 N   0  0  0  0  0  0  0  0  0  0  0  0
   21.6083  -20.6140  -12.5289 C   0  0  1  0  0  0  0  0  0  0  0  0
   21.8385  -21.3766  -13.7884 C   0  0  0  0  0  0  0  0  0  0  0  0
   20.7107  -21.1904  -14.7216 C   0  0  0  0  0  0  0  0  0  0  0  0
   19.7383  -20.2175  -14.7272 C   0  0  0  0  0  0  0  0  0  0  0  0
   18.8591  -20.4111  -15.7345 N   0  0  0  0  0  0  0  0  0  0  0  0
   19.2830  -21.5169  -16.3678 C   0  0  0  0  0  0  0  0  0  0  0  0
   20.3772  -21.9913  -15.7820 N   0  0  0  0  0  0  0  0  0  0  0  0
   20.3633  -21.0599  -11.8803 C   0  0  0  0  0  0  0  0  0  0  0  0
   19.2120  -20.9747  -12.4015 O   0  0  0  0  0  0  0  0  0  0  0  0
   20.4633  -21.6196  -10.5912 O   0  0  0  0  0  0  0  0  0  0  0  0
  2  1  1  0
  3  2  2  0
  4  2  1  0
  5  4  1  0
  5  6  1  1
  7  5  1  0
  7  8  2  0
  9 10  1  0
 10 11  1  0
 12 11  1  0
 13 12  1  1
 13 14  1  0
 14  7  1  0
 15 13  1  0
 16 15  2  0
 17 15  1  0
 18 17  1  0
 18 25  1  0
 19 20  1  0
 18 19  1  6
 20 21  2  0
 20 24  1  0
 21 22  1  0
 22 23  1  0
 24 23  2  0
 25 27  1  0
 26 25  2  0
M  END
$$$$
