NMH.pdb
     RDKit          3D

 27 27  0  0  1  0  0  0  0  0999 V2000
   18.4691  -14.0160  -17.4360 N   0  0  0  0  0  0  0  0  0  0  0  0
   19.0041  -14.4425  -16.1947 C   0  0  0  0  0  0  0  0  0  0  0  0
   18.4957  -15.4304  -15.6010 O   0  0  0  0  0  0  0  0  0  0  0  0
   20.1576  -13.7701  -15.5446 C   0  0  0  0  0  0  0  0  0  0  0  0
   20.6078  -12.5752  -16.3173 C   0  0  2  0  0  0  0  0  0  0  0  0
   21.0419  -12.9566  -17.6297 N   0  0  0  0  0  0  0  0  0  0  0  0
   21.5990  -11.7530  -15.5960 C   0  0  0  0  0  0  0  0  0  0  0  0
   21.4008  -11.3802  -14.3914 O   0  0  0  0  0  0  0  0  0  0  0  0
   27.7897  -10.0121  -17.7428 C   0  0  0  0  0  0  0  0  0  0  0  0
   27.7983  -10.0261  -15.9459 S   0  0  0  0  0  0  0  0  0  0  0  0
   26.1148   -9.7308  -15.2815 C   0  0  0  0  0  0  0  0  0  0  0  0
   25.1652  -10.7216  -15.8902 C   0  0  0  0  0  0  0  0  0  0  0  0
   23.7655  -10.4312  -15.4821 C   0  0  2  0  0  0  0  0  0  0  0  0
   22.8202  -11.3222  -16.1693 N   0  0  0  0  0  0  0  0  0  0  0  0
   23.3312   -9.0166  -15.6777 C   0  0  0  0  0  0  0  0  0  0  0  0
   23.8857   -8.0300  -15.1487 O   0  0  0  0  0  0  0  0  0  0  0  0
   22.2061   -8.7192  -16.5213 N   0  0  0  0  0  0  0  0  0  0  0  0
   21.8509   -7.3142  -16.7573 C   0  0  1  0  0  0  0  0  0  0  0  0
   21.1119   -7.1602  -18.0421 C   0  0  0  0  0  0  0  0  0  0  0  0
   20.7936   -5.7409  -18.2911 C   0  0  0  0  0  0  0  0  0  0  0  0
   21.6466   -4.6803  -18.4889 C   0  0  0  0  0  0  0  0  0  0  0  0
   20.9625   -3.5272  -18.6549 N   0  0  0  0  0  0  0  0  0  0  0  0
   19.6666   -3.8667  -18.5600 C   0  0  0  0  0  0  0  0  0  0  0  0
   19.5481   -5.1725  -18.3447 N   0  0  0  0  0  0  0  0  0  0  0  0
   21.0238   -6.8474  -15.6314 C   0  0  0  0  0  0  0  0  0  0  0  0
   20.2372   -7.5834  -14.9651 O   0  0  0  0  0  0  0  0  0  0  0  0
   21.1164   -5.4879  -15.2733 O   0  0  0  0  0  0  0  0  0  0  0  0
  2  1  1  0
  3  2  2  0
  4  2  1  0
  5  4  1  0
  5  6  1  6
  7  5  1  0
  7  8  2  0
  9 10  1  0
 10 11  1  0
 12 11  1  0
 13 12  1  6
 13 14  1  0
 14  7  1  0
 15 13  1  0
 16 15  2  0
 17 15  1  0
 18 17  1  0
 18 25  1  0
 19 20  1  0
 18 19  1  6
 20 21  2  0
 20 24  1  0
 21 22  1  0
 22 23  1  0
 24 23  2  0
 25 27  1  0
 26 25  2  0
M  END
$$$$
