IAK.pdb
     RDKit          3D

 23 22  0  0  1  0  0  0  0  0999 V2000
   22.3088  -21.6054  -18.0158 C   0  0  0  0  0  0  0  0  0  0  0  0
   23.2642  -21.1411  -16.9676 C   0  0  0  0  0  0  0  0  0  0  0  0
   23.2465  -19.6561  -16.8405 C   0  0  2  0  0  0  0  0  0  0  0  0
   23.3873  -18.9712  -18.1906 C   0  0  0  0  0  0  0  0  0  0  0  0
   24.1425  -19.0657  -15.8057 C   0  0  2  0  0  0  0  0  0  0  0  0
   23.7783  -19.7708  -14.5544 N   0  0  0  0  0  0  0  0  0  0  0  0
   24.0102  -17.6353  -15.5558 C   0  0  0  0  0  0  0  0  0  0  0  0
   22.8585  -17.1383  -15.2721 O   0  0  0  0  0  0  0  0  0  0  0  0
   26.1598  -14.5527  -15.4615 C   0  0  0  0  0  0  0  0  0  0  0  0
   24.7975  -15.2363  -15.5932 C   0  0  2  0  0  0  0  0  0  0  0  0
   25.0428  -16.6604  -15.5839 N   0  0  0  0  0  0  0  0  0  0  0  0
   24.2048  -14.7642  -16.8545 C   0  0  0  0  0  0  0  0  0  0  0  0
   23.9655  -15.4900  -17.8519 O   0  0  0  0  0  0  0  0  0  0  0  0
   23.8839  -13.3590  -16.9244 N   0  0  0  0  0  0  0  0  0  0  0  0
   22.9358  -12.8419  -17.8713 C   0  0  1  0  0  0  0  0  0  0  0  0
   21.5590  -13.3888  -17.5605 C   0  0  0  0  0  0  0  0  0  0  0  0
   20.5212  -12.9109  -18.5265 C   0  0  0  0  0  0  0  0  0  0  0  0
   19.1846  -13.5439  -18.1970 C   0  0  0  0  0  0  0  0  0  0  0  0
   18.1454  -13.2476  -19.2426 C   0  0  0  0  0  0  0  0  0  0  0  0
   16.9532  -14.0333  -19.1066 N   0  0  0  0  0  0  0  0  0  0  0  0
   22.9347  -11.3596  -17.7783 C   0  0  0  0  0  0  0  0  0  0  0  0
   23.6260  -10.6637  -16.7954 O   0  0  0  0  0  0  0  0  0  0  0  0
   22.2894  -10.6498  -18.6093 O   0  0  0  0  0  0  0  0  0  0  0  0
  2  3  1  0
  2  1  1  0
  3  5  1  0
  3  4  1  6
  5  7  1  0
  5  6  1  1
  7  8  2  0
 10  9  1  6
 10 12  1  0
 11 10  1  0
 11  7  1  0
 12 13  2  0
 14 15  1  0
 14 12  1  0
 15 21  1  0
 15 16  1  1
 17 16  1  0
 18 17  1  0
 19 18  1  0
 20 19  1  0
 21 23  2  0
 21 22  1  0
M  END
$$$$
