IAK.pdb
     RDKit          3D

 23 22  0  0  1  0  0  0  0  0999 V2000
   28.7320  -20.2331   -4.1540 C   0  0  0  0  0  0  0  0  0  0  0  0
   27.5996  -19.7719   -5.0095 C   0  0  0  0  0  0  0  0  0  0  0  0
   27.8507  -20.0750   -6.4472 C   0  0  2  0  0  0  0  0  0  0  0  0
   29.2717  -19.7248   -6.8592 C   0  0  0  0  0  0  0  0  0  0  0  0
   26.8363  -19.5773   -7.4196 C   0  0  2  0  0  0  0  0  0  0  0  0
   25.5512  -20.1277   -6.9285 N   0  0  0  0  0  0  0  0  0  0  0  0
   26.9899  -19.9974   -8.8073 C   0  0  0  0  0  0  0  0  0  0  0  0
   27.8536  -19.4146   -9.5613 O   0  0  0  0  0  0  0  0  0  0  0  0
   25.8589  -22.5572  -11.2616 C   0  0  0  0  0  0  0  0  0  0  0  0
   26.1280  -21.0921  -10.9133 C   0  0  2  0  0  0  0  0  0  0  0  0
   26.2731  -21.0245   -9.4771 N   0  0  0  0  0  0  0  0  0  0  0  0
   24.9796  -20.3186  -11.4112 C   0  0  0  0  0  0  0  0  0  0  0  0
   24.6138  -19.2044  -10.9598 O   0  0  0  0  0  0  0  0  0  0  0  0
   24.2355  -20.9060  -12.4992 N   0  0  0  0  0  0  0  0  0  0  0  0
   23.5771  -20.1025  -13.4910 C   0  0  1  0  0  0  0  0  0  0  0  0
   24.5860  -19.1916  -14.1572 C   0  0  0  0  0  0  0  0  0  0  0  0
   23.9865  -18.3870  -15.2669 C   0  0  0  0  0  0  0  0  0  0  0  0
   23.6647  -16.9915  -14.7718 C   0  0  0  0  0  0  0  0  0  0  0  0
   22.8543  -16.2106  -15.7689 C   0  0  0  0  0  0  0  0  0  0  0  0
   23.6004  -15.8063  -16.9252 N   0  0  0  0  0  0  0  0  0  0  0  0
   22.9557  -21.0044  -14.4941 C   0  0  0  0  0  0  0  0  0  0  0  0
   23.6382  -22.0573  -15.0889 O   0  0  0  0  0  0  0  0  0  0  0  0
   21.7501  -20.8494  -14.8591 O   0  0  0  0  0  0  0  0  0  0  0  0
  2  3  1  0
  2  1  1  0
  3  5  1  0
  3  4  1  6
  5  7  1  0
  5  6  1  1
  7  8  2  0
 10  9  1  1
 10 12  1  0
 11 10  1  0
 11  7  1  0
 12 13  2  0
 14 15  1  0
 14 12  1  0
 15 21  1  0
 15 16  1  6
 17 16  1  0
 18 17  1  0
 19 18  1  0
 20 19  1  0
 21 23  2  0
 21 22  1  0
M  END
$$$$
