IAK.pdb
     RDKit          3D

 23 22  0  0  1  0  0  0  0  0999 V2000
   15.7955   -9.9497  -16.6907 C   0  0  0  0  0  0  0  0  0  0  0  0
   16.8121   -9.9354  -15.5982 C   0  0  0  0  0  0  0  0  0  0  0  0
   16.2920   -9.2416  -14.3857 C   0  0  2  0  0  0  0  0  0  0  0  0
   15.6766   -7.8935  -14.7258 C   0  0  0  0  0  0  0  0  0  0  0  0
   17.2112   -9.1694  -13.2143 C   0  0  2  0  0  0  0  0  0  0  0  0
   17.5495  -10.5819  -12.9213 N   0  0  0  0  0  0  0  0  0  0  0  0
   16.6762   -8.5850  -11.9903 C   0  0  0  0  0  0  0  0  0  0  0  0
   15.5484   -8.9923  -11.5255 O   0  0  0  0  0  0  0  0  0  0  0  0
   17.7263   -6.1981   -9.2928 C   0  0  0  0  0  0  0  0  0  0  0  0
   16.6537   -7.0231  -10.0063 C   0  0  2  0  0  0  0  0  0  0  0  0
   17.2686   -7.5680  -11.1950 N   0  0  0  0  0  0  0  0  0  0  0  0
   15.5408   -6.1076  -10.3038 C   0  0  0  0  0  0  0  0  0  0  0  0
   15.3853   -5.4947  -11.3897 O   0  0  0  0  0  0  0  0  0  0  0  0
   14.5700   -5.9176   -9.2532 N   0  0  0  0  0  0  0  0  0  0  0  0
   13.4467   -5.0357   -9.4066 C   0  0  1  0  0  0  0  0  0  0  0  0
   12.4005   -5.3605   -8.3619 C   0  0  0  0  0  0  0  0  0  0  0  0
   11.6725   -6.6339   -8.6566 C   0  0  0  0  0  0  0  0  0  0  0  0
   10.6504   -6.9026   -7.5708 C   0  0  0  0  0  0  0  0  0  0  0  0
    9.9216   -8.1997   -7.7886 C   0  0  0  0  0  0  0  0  0  0  0  0
    8.9099   -8.4622   -6.8065 N   0  0  0  0  0  0  0  0  0  0  0  0
   13.9184   -3.6366   -9.2461 C   0  0  0  0  0  0  0  0  0  0  0  0
   13.2013   -2.5401   -9.7062 O   0  0  0  0  0  0  0  0  0  0  0  0
   15.0189   -3.3764   -8.6701 O   0  0  0  0  0  0  0  0  0  0  0  0
  2  3  1  0
  2  1  1  0
  3  5  1  0
  3  4  1  6
  5  7  1  0
  5  6  1  1
  7  8  2  0
 10  9  1  6
 10 12  1  0
 11 10  1  0
 11  7  1  0
 12 13  2  0
 14 15  1  0
 14 12  1  0
 15 21  1  0
 15 16  1  1
 17 16  1  0
 18 17  1  0
 19 18  1  0
 20 19  1  0
 21 23  2  0
 21 22  1  0
M  END
$$$$
