IAK.pdb
     RDKit          3D

 23 22  0  0  1  0  0  0  0  0999 V2000
   18.1771  -14.3157  -20.5939 C   0  0  0  0  0  0  0  0  0  0  0  0
   19.1116  -14.7762  -19.5255 C   0  0  0  0  0  0  0  0  0  0  0  0
   19.5183  -13.6478  -18.6405 C   0  0  2  0  0  0  0  0  0  0  0  0
   20.0361  -12.4616  -19.4385 C   0  0  0  0  0  0  0  0  0  0  0  0
   20.4014  -13.9894  -17.4892 C   0  0  2  0  0  0  0  0  0  0  0  0
   19.6581  -15.0368  -16.7502 N   0  0  0  0  0  0  0  0  0  0  0  0
   20.7011  -12.9184  -16.5463 C   0  0  0  0  0  0  0  0  0  0  0  0
   19.7584  -12.1492  -16.1295 O   0  0  0  0  0  0  0  0  0  0  0  0
   23.6723  -11.4847  -14.7385 C   0  0  0  0  0  0  0  0  0  0  0  0
   22.2008  -11.4387  -15.1542 C   0  0  2  0  0  0  0  0  0  0  0  0
   21.9679  -12.5923  -15.9928 N   0  0  0  0  0  0  0  0  0  0  0  0
   21.9981  -10.1645  -15.8615 C   0  0  0  0  0  0  0  0  0  0  0  0
   22.4744   -9.8857  -16.9904 O   0  0  0  0  0  0  0  0  0  0  0  0
   21.1882   -9.1793  -15.1862 N   0  0  0  0  0  0  0  0  0  0  0  0
   20.8829   -7.9086  -15.7820 C   0  0  1  0  0  0  0  0  0  0  0  0
   19.3865   -7.7851  -15.9743 C   0  0  0  0  0  0  0  0  0  0  0  0
   18.9538   -8.1582  -17.3570 C   0  0  0  0  0  0  0  0  0  0  0  0
   17.4477   -8.0379  -17.4723 C   0  0  0  0  0  0  0  0  0  0  0  0
   16.9443   -8.5016  -18.8111 C   0  0  0  0  0  0  0  0  0  0  0  0
   15.5144   -8.4903  -18.9226 N   0  0  0  0  0  0  0  0  0  0  0  0
   21.3775   -6.8341  -14.8839 C   0  0  0  0  0  0  0  0  0  0  0  0
   21.9240   -7.0871  -13.6326 O   0  0  0  0  0  0  0  0  0  0  0  0
   21.3214   -5.6135  -15.2270 O   0  0  0  0  0  0  0  0  0  0  0  0
  2  3  1  0
  2  1  1  0
  3  5  1  0
  3  4  1  6
  5  7  1  0
  5  6  1  1
  7  8  2  0
 10  9  1  6
 10 12  1  0
 11 10  1  0
 11  7  1  0
 12 13  2  0
 14 15  1  0
 14 12  1  0
 15 21  1  0
 15 16  1  1
 17 16  1  0
 18 17  1  0
 19 18  1  0
 20 19  1  0
 21 23  2  0
 21 22  1  0
M  END
$$$$
