IAK.pdb
     RDKit          3D

 23 22  0  0  1  0  0  0  0  0999 V2000
   23.3160  -24.9398  -13.3121 C   0  0  0  0  0  0  0  0  0  0  0  0
   24.4991  -24.1605  -12.8430 C   0  0  0  0  0  0  0  0  0  0  0  0
   24.6560  -22.8974  -13.6189 C   0  0  2  0  0  0  0  0  0  0  0  0
   24.4877  -23.1267  -15.1125 C   0  0  0  0  0  0  0  0  0  0  0  0
   25.8510  -22.0649  -13.3011 C   0  0  2  0  0  0  0  0  0  0  0  0
   25.6747  -21.6919  -11.8779 N   0  0  0  0  0  0  0  0  0  0  0  0
   26.0164  -20.8305  -14.0592 C   0  0  0  0  0  0  0  0  0  0  0  0
   25.1821  -19.8646  -13.9008 O   0  0  0  0  0  0  0  0  0  0  0  0
   28.4217  -19.2670  -16.4793 C   0  0  0  0  0  0  0  0  0  0  0  0
   27.0401  -19.3465  -15.8273 C   0  0  2  0  0  0  0  0  0  0  0  0
   27.0353  -20.5335  -15.0032 N   0  0  0  0  0  0  0  0  0  0  0  0
   26.0565  -19.4025  -16.9202 C   0  0  0  0  0  0  0  0  0  0  0  0
   25.7952  -20.4266  -17.5999 O   0  0  0  0  0  0  0  0  0  0  0  0
   25.3539  -18.1764  -17.2126 N   0  0  0  0  0  0  0  0  0  0  0  0
   24.3081  -18.1153  -18.1951 C   0  0  1  0  0  0  0  0  0  0  0  0
   23.1914  -17.2255  -17.6926 C   0  0  0  0  0  0  0  0  0  0  0  0
   22.0977  -17.9994  -17.0268 C   0  0  0  0  0  0  0  0  0  0  0  0
   21.0428  -17.0470  -16.5015 C   0  0  0  0  0  0  0  0  0  0  0  0
   19.8811  -17.7747  -15.8836 C   0  0  0  0  0  0  0  0  0  0  0  0
   18.8735  -16.9029  -15.3528 N   0  0  0  0  0  0  0  0  0  0  0  0
   24.8743  -17.5697  -19.4552 C   0  0  0  0  0  0  0  0  0  0  0  0
   24.3070  -17.8020  -20.7012 O   0  0  0  0  0  0  0  0  0  0  0  0
   25.9218  -16.8532  -19.4486 O   0  0  0  0  0  0  0  0  0  0  0  0
  2  3  1  0
  2  1  1  0
  3  5  1  0
  3  4  1  6
  5  7  1  0
  5  6  1  1
  7  8  2  0
 10  9  1  6
 10 12  1  0
 11 10  1  0
 11  7  1  0
 12 13  2  0
 14 15  1  0
 14 12  1  0
 15 21  1  0
 15 16  1  1
 17 16  1  0
 18 17  1  0
 19 18  1  0
 20 19  1  0
 21 23  2  0
 21 22  1  0
M  END
$$$$
