IAK.pdb
     RDKit          3D

 23 22  0  0  1  0  0  0  0  0999 V2000
   28.8617  -20.1324   -4.0931 C   0  0  0  0  0  0  0  0  0  0  0  0
   27.4047  -19.8773   -4.2902 C   0  0  0  0  0  0  0  0  0  0  0  0
   27.0013  -20.1154   -5.7053 C   0  0  2  0  0  0  0  0  0  0  0  0
   26.6517  -21.5737   -5.9560 C   0  0  0  0  0  0  0  0  0  0  0  0
   27.8979  -19.5554   -6.7564 C   0  0  2  0  0  0  0  0  0  0  0  0
   27.9893  -18.1118   -6.4347 N   0  0  0  0  0  0  0  0  0  0  0  0
   27.4460  -19.6675   -8.1382 C   0  0  0  0  0  0  0  0  0  0  0  0
   26.3660  -19.0759   -8.5090 O   0  0  0  0  0  0  0  0  0  0  0  0
   28.7633  -20.9097  -11.4173 C   0  0  0  0  0  0  0  0  0  0  0  0
   27.6260  -20.3448  -10.5641 C   0  0  2  0  0  0  0  0  0  0  0  0
   28.0758  -20.3828   -9.1914 N   0  0  0  0  0  0  0  0  0  0  0  0
   26.4497  -21.1949  -10.8065 C   0  0  0  0  0  0  0  0  0  0  0  0
   26.2237  -22.2895  -10.2323 O   0  0  0  0  0  0  0  0  0  0  0  0
   25.5009  -20.7121  -11.7807 N   0  0  0  0  0  0  0  0  0  0  0  0
   24.3260  -21.4596  -12.1327 C   0  0  1  0  0  0  0  0  0  0  0  0
   23.0919  -20.6375  -11.8285 C   0  0  0  0  0  0  0  0  0  0  0  0
   21.8285  -21.3297  -12.2322 C   0  0  0  0  0  0  0  0  0  0  0  0
   20.6361  -20.4587  -11.8923 C   0  0  0  0  0  0  0  0  0  0  0  0
   19.3314  -21.1537  -12.1672 C   0  0  0  0  0  0  0  0  0  0  0  0
   18.1817  -20.4008  -11.7569 N   0  0  0  0  0  0  0  0  0  0  0  0
   24.3866  -21.7814  -13.5814 C   0  0  0  0  0  0  0  0  0  0  0  0
   23.7800  -22.9025  -14.1323 O   0  0  0  0  0  0  0  0  0  0  0  0
   25.0075  -21.0314  -14.3955 O   0  0  0  0  0  0  0  0  0  0  0  0
  2  3  1  0
  2  1  1  0
  3  5  1  0
  3  4  1  6
  5  7  1  0
  5  6  1  1
  7  8  2  0
 10  9  1  6
 10 12  1  0
 11 10  1  0
 11  7  1  0
 12 13  2  0
 14 15  1  0
 14 12  1  0
 15 21  1  0
 15 16  1  6
 17 16  1  0
 18 17  1  0
 19 18  1  0
 20 19  1  0
 21 23  2  0
 21 22  1  0
M  END
$$$$
