IAK.pdb
     RDKit          3D

 23 22  0  0  1  0  0  0  0  0999 V2000
   16.9636  -13.2992  -19.4310 C   0  0  0  0  0  0  0  0  0  0  0  0
   18.4452  -13.1455  -19.5228 C   0  0  0  0  0  0  0  0  0  0  0  0
   18.9323  -12.0607  -18.6240 C   0  0  2  0  0  0  0  0  0  0  0  0
   18.1741  -10.7612  -18.8436 C   0  0  0  0  0  0  0  0  0  0  0  0
   20.4078  -11.8568  -18.5656 C   0  0  2  0  0  0  0  0  0  0  0  0
   20.9501  -13.1823  -18.1851 N   0  0  0  0  0  0  0  0  0  0  0  0
   20.9026  -10.8873  -17.5955 C   0  0  0  0  0  0  0  0  0  0  0  0
   20.5037  -10.9422  -16.3741 O   0  0  0  0  0  0  0  0  0  0  0  0
   23.2757   -7.9712  -17.4643 C   0  0  0  0  0  0  0  0  0  0  0  0
   22.2710   -8.9178  -16.8048 C   0  0  2  0  0  0  0  0  0  0  0  0
   21.8206   -9.8294  -17.8316 N   0  0  0  0  0  0  0  0  0  0  0  0
   21.1880   -8.0802  -16.2656 C   0  0  0  0  0  0  0  0  0  0  0  0
   20.2253   -7.6308  -16.9366 O   0  0  0  0  0  0  0  0  0  0  0  0
   21.2613   -7.7665  -14.8590 N   0  0  0  0  0  0  0  0  0  0  0  0
   20.2482   -6.9911  -14.1993 C   0  0  1  0  0  0  0  0  0  0  0  0
   19.7350   -7.7483  -12.9932 C   0  0  0  0  0  0  0  0  0  0  0  0
   18.6385   -7.0191  -12.2828 C   0  0  0  0  0  0  0  0  0  0  0  0
   18.2188   -7.7978  -11.0526 C   0  0  0  0  0  0  0  0  0  0  0  0
   17.2253   -7.0405  -10.2157 C   0  0  0  0  0  0  0  0  0  0  0  0
   16.9410   -7.6647   -8.9561 N   0  0  0  0  0  0  0  0  0  0  0  0
   20.8418   -5.6957  -13.7803 C   0  0  0  0  0  0  0  0  0  0  0  0
   22.2082   -5.5075  -13.6202 O   0  0  0  0  0  0  0  0  0  0  0  0
   20.1122   -4.6841  -13.5457 O   0  0  0  0  0  0  0  0  0  0  0  0
  2  3  1  0
  2  1  1  0
  3  5  1  0
  3  4  1  6
  5  7  1  0
  5  6  1  1
  7  8  2  0
 10  9  1  6
 10 12  1  0
 11 10  1  0
 11  7  1  0
 12 13  2  0
 14 15  1  0
 14 12  1  0
 15 21  1  0
 15 16  1  1
 17 16  1  0
 18 17  1  0
 19 18  1  0
 20 19  1  0
 21 23  2  0
 21 22  1  0
M  END
$$$$
