IAK.pdb
     RDKit          3D

 23 22  0  0  1  0  0  0  0  0999 V2000
   28.5970  -10.9551  -16.9116 C   0  0  0  0  0  0  0  0  0  0  0  0
   27.5130  -11.5020  -16.0440 C   0  0  0  0  0  0  0  0  0  0  0  0
   26.2440  -10.7400  -16.2203 C   0  0  2  0  0  0  0  0  0  0  0  0
   26.4627   -9.2406  -16.0951 C   0  0  0  0  0  0  0  0  0  0  0  0
   25.0690  -11.2123  -15.4338 C   0  0  2  0  0  0  0  0  0  0  0  0
   24.9331  -12.6432  -15.7939 N   0  0  0  0  0  0  0  0  0  0  0  0
   23.7894  -10.5692  -15.7076 C   0  0  0  0  0  0  0  0  0  0  0  0
   23.2728  -10.6450  -16.8829 O   0  0  0  0  0  0  0  0  0  0  0  0
   20.9948   -8.8962  -13.8714 C   0  0  0  0  0  0  0  0  0  0  0  0
   21.7584   -9.1689  -15.1686 C   0  0  2  0  0  0  0  0  0  0  0  0
   22.9895   -9.8282  -14.7973 N   0  0  0  0  0  0  0  0  0  0  0  0
   21.9776   -7.8655  -15.8152 C   0  0  0  0  0  0  0  0  0  0  0  0
   22.9493   -7.1030  -15.5839 O   0  0  0  0  0  0  0  0  0  0  0  0
   20.9881   -7.4566  -16.7828 N   0  0  0  0  0  0  0  0  0  0  0  0
   21.1144   -6.2364  -17.5299 C   0  0  1  0  0  0  0  0  0  0  0  0
   20.1797   -6.2714  -18.7201 C   0  0  0  0  0  0  0  0  0  0  0  0
   20.3295   -5.0720  -19.6018 C   0  0  0  0  0  0  0  0  0  0  0  0
   19.4153   -5.2020  -20.8031 C   0  0  0  0  0  0  0  0  0  0  0  0
   19.5963   -4.0705  -21.7766 C   0  0  0  0  0  0  0  0  0  0  0  0
   18.7708   -4.1796  -22.9444 N   0  0  0  0  0  0  0  0  0  0  0  0
   20.7719   -5.0986  -16.6389 C   0  0  0  0  0  0  0  0  0  0  0  0
   21.4170   -3.8705  -16.6998 O   0  0  0  0  0  0  0  0  0  0  0  0
   19.8566   -5.2006  -15.7656 O   0  0  0  0  0  0  0  0  0  0  0  0
  2  3  1  0
  2  1  1  0
  3  5  1  0
  3  4  1  1
  5  7  1  0
  5  6  1  6
  7  8  2  0
 10  9  1  1
 10 12  1  0
 11 10  1  0
 11  7  1  0
 12 13  2  0
 14 15  1  0
 14 12  1  0
 15 21  1  0
 15 16  1  6
 17 16  1  0
 18 17  1  0
 19 18  1  0
 20 19  1  0
 21 23  2  0
 21 22  1  0
M  END
$$$$
