IAK.pdb
     RDKit          3D

 23 22  0  0  1  0  0  0  0  0999 V2000
   15.7054  -14.1573  -17.3130 C   0  0  0  0  0  0  0  0  0  0  0  0
   17.0537  -13.5520  -17.1064 C   0  0  0  0  0  0  0  0  0  0  0  0
   16.9482  -12.1858  -16.5197 C   0  0  2  0  0  0  0  0  0  0  0  0
   15.9828  -11.3081  -17.3003 C   0  0  0  0  0  0  0  0  0  0  0  0
   18.2315  -11.4910  -16.2152 C   0  0  2  0  0  0  0  0  0  0  0  0
   18.9571  -12.4268  -15.3245 N   0  0  0  0  0  0  0  0  0  0  0  0
   18.1412  -10.2106  -15.5236 C   0  0  0  0  0  0  0  0  0  0  0  0
   17.2964  -10.0577  -14.5661 O   0  0  0  0  0  0  0  0  0  0  0  0
   19.8775   -6.8835  -15.4557 C   0  0  0  0  0  0  0  0  0  0  0  0
   18.6878   -7.7805  -15.1086 C   0  0  2  0  0  0  0  0  0  0  0  0
   18.9066   -9.0417  -15.7792 N   0  0  0  0  0  0  0  0  0  0  0  0
   17.4791   -7.0838  -15.5762 C   0  0  0  0  0  0  0  0  0  0  0  0
   17.0654   -7.0805  -16.7628 O   0  0  0  0  0  0  0  0  0  0  0  0
   16.7319   -6.3581  -14.5775 N   0  0  0  0  0  0  0  0  0  0  0  0
   15.6017   -5.5402  -14.9191 C   0  0  1  0  0  0  0  0  0  0  0  0
   14.5453   -5.6592  -13.8415 C   0  0  0  0  0  0  0  0  0  0  0  0
   13.6593   -6.8489  -14.0364 C   0  0  0  0  0  0  0  0  0  0  0  0
   12.7133   -6.9813  -12.8603 C   0  0  0  0  0  0  0  0  0  0  0  0
   11.8686   -8.2219  -12.9508 C   0  0  0  0  0  0  0  0  0  0  0  0
   11.0225   -8.4253  -11.8107 N   0  0  0  0  0  0  0  0  0  0  0  0
   16.0567   -4.1318  -15.0415 C   0  0  0  0  0  0  0  0  0  0  0  0
   17.3451   -3.7236  -14.7224 O   0  0  0  0  0  0  0  0  0  0  0  0
   15.2730   -3.2215  -15.4510 O   0  0  0  0  0  0  0  0  0  0  0  0
  2  3  1  0
  2  1  1  0
  3  5  1  0
  3  4  1  6
  5  7  1  0
  5  6  1  1
  7  8  2  0
 10  9  1  6
 10 12  1  0
 11 10  1  0
 11  7  1  0
 12 13  2  0
 14 15  1  0
 14 12  1  0
 15 21  1  0
 15 16  1  1
 17 16  1  0
 18 17  1  0
 19 18  1  0
 20 19  1  0
 21 23  2  0
 21 22  1  0
M  END
$$$$
