IAK.pdb
     RDKit          3D

 23 22  0  0  1  0  0  0  0  0999 V2000
   28.8011  -20.2211  -18.8924 C   0  0  0  0  0  0  0  0  0  0  0  0
   29.1551  -20.9130  -17.6184 C   0  0  0  0  0  0  0  0  0  0  0  0
   27.9566  -21.0935  -16.7508 C   0  0  2  0  0  0  0  0  0  0  0  0
   27.1359  -19.8177  -16.6474 C   0  0  0  0  0  0  0  0  0  0  0  0
   28.1854  -21.7332  -15.4239 C   0  0  2  0  0  0  0  0  0  0  0  0
   28.7818  -23.0509  -15.7458 N   0  0  0  0  0  0  0  0  0  0  0  0
   27.0098  -21.9758  -14.5962 C   0  0  0  0  0  0  0  0  0  0  0  0
   26.0482  -22.7015  -15.0462 O   0  0  0  0  0  0  0  0  0  0  0  0
   25.6911  -21.0230  -11.2040 C   0  0  0  0  0  0  0  0  0  0  0  0
   25.5276  -21.6875  -12.5723 C   0  0  2  0  0  0  0  0  0  0  0  0
   26.7706  -21.4913  -13.2826 N   0  0  0  0  0  0  0  0  0  0  0  0
   24.3828  -21.0355  -13.2277 C   0  0  0  0  0  0  0  0  0  0  0  0
   24.4278  -19.9258  -13.8155 O   0  0  0  0  0  0  0  0  0  0  0  0
   23.1271  -21.7447  -13.1768 N   0  0  0  0  0  0  0  0  0  0  0  0
   21.9387  -21.2319  -13.7994 C   0  0  1  0  0  0  0  0  0  0  0  0
   21.3067  -22.3113  -14.6520 C   0  0  0  0  0  0  0  0  0  0  0  0
   20.0341  -21.8604  -15.2967 C   0  0  0  0  0  0  0  0  0  0  0  0
   19.4124  -23.0106  -16.0625 C   0  0  0  0  0  0  0  0  0  0  0  0
   18.2520  -22.5651  -16.9086 C   0  0  0  0  0  0  0  0  0  0  0  0
   17.6341  -23.6306  -17.6433 N   0  0  0  0  0  0  0  0  0  0  0  0
   20.9971  -20.7978  -12.7359 C   0  0  0  0  0  0  0  0  0  0  0  0
   19.9876  -19.8696  -12.9535 O   0  0  0  0  0  0  0  0  0  0  0  0
   21.0753  -21.2653  -11.5586 O   0  0  0  0  0  0  0  0  0  0  0  0
  2  3  1  0
  2  1  1  0
  3  5  1  0
  3  4  1  1
  5  7  1  0
  5  6  1  6
  7  8  2  0
 10  9  1  1
 10 12  1  0
 11 10  1  0
 11  7  1  0
 12 13  2  0
 14 15  1  0
 14 12  1  0
 15 21  1  0
 15 16  1  1
 17 16  1  0
 18 17  1  0
 19 18  1  0
 20 19  1  0
 21 23  2  0
 21 22  1  0
M  END
$$$$
