IAK.pdb
     RDKit          3D

 23 22  0  0  1  0  0  0  0  0999 V2000
   28.0775  -13.6586  -15.4594 C   0  0  0  0  0  0  0  0  0  0  0  0
   28.6798  -12.5205  -16.2138 C   0  0  0  0  0  0  0  0  0  0  0  0
   27.6568  -11.8190  -17.0405 C   0  0  2  0  0  0  0  0  0  0  0  0
   26.7802  -12.7976  -17.8059 C   0  0  0  0  0  0  0  0  0  0  0  0
   28.1455  -10.7012  -17.8971 C   0  0  2  0  0  0  0  0  0  0  0  0
   28.8811   -9.8147  -16.9651 N   0  0  0  0  0  0  0  0  0  0  0  0
   27.1343   -9.8904  -18.5651 C   0  0  0  0  0  0  0  0  0  0  0  0
   26.1541   -9.4040  -17.8895 O   0  0  0  0  0  0  0  0  0  0  0  0
   26.5251   -8.3357  -21.9246 C   0  0  0  0  0  0  0  0  0  0  0  0
   26.0511   -8.7163  -20.5207 C   0  0  2  0  0  0  0  0  0  0  0  0
   27.0842   -9.5444  -19.9418 N   0  0  0  0  0  0  0  0  0  0  0  0
   24.7710   -9.4238  -20.6812 C   0  0  0  0  0  0  0  0  0  0  0  0
   24.6503  -10.6655  -20.8316 O   0  0  0  0  0  0  0  0  0  0  0  0
   23.5814   -8.6073  -20.6606 N   0  0  0  0  0  0  0  0  0  0  0  0
   22.2673   -9.1755  -20.7751 C   0  0  1  0  0  0  0  0  0  0  0  0
   21.3523   -8.5490  -19.7448 C   0  0  0  0  0  0  0  0  0  0  0  0
   19.9510   -9.0658  -19.8332 C   0  0  0  0  0  0  0  0  0  0  0  0
   19.1005   -8.4271  -18.7540 C   0  0  0  0  0  0  0  0  0  0  0  0
   17.7115   -9.0015  -18.7147 C   0  0  0  0  0  0  0  0  0  0  0  0
   16.9113   -8.4967  -17.6368 N   0  0  0  0  0  0  0  0  0  0  0  0
   21.7565   -8.9139  -22.1450 C   0  0  0  0  0  0  0  0  0  0  0  0
   20.7710   -9.6870  -22.7443 O   0  0  0  0  0  0  0  0  0  0  0  0
   22.2071   -7.9536  -22.8418 O   0  0  0  0  0  0  0  0  0  0  0  0
  2  3  1  0
  2  1  1  0
  3  5  1  0
  3  4  1  6
  5  7  1  0
  5  6  1  1
  7  8  2  0
 10  9  1  6
 10 12  1  0
 11 10  1  0
 11  7  1  0
 12 13  2  0
 14 15  1  0
 14 12  1  0
 15 21  1  0
 15 16  1  1
 17 16  1  0
 18 17  1  0
 19 18  1  0
 20 19  1  0
 21 23  2  0
 21 22  1  0
M  END
$$$$
