IAK.pdb
     RDKit          3D

 23 22  0  0  1  0  0  0  0  0999 V2000
   18.6395  -12.2703  -20.7109 C   0  0  0  0  0  0  0  0  0  0  0  0
   19.7919  -12.8102  -19.9314 C   0  0  0  0  0  0  0  0  0  0  0  0
   20.1313  -11.9215  -18.7838 C   0  0  2  0  0  0  0  0  0  0  0  0
   20.3138  -10.4770  -19.2218 C   0  0  0  0  0  0  0  0  0  0  0  0
   21.2238  -12.3862  -17.8823 C   0  0  2  0  0  0  0  0  0  0  0  0
   20.7805  -13.7229  -17.4215 N   0  0  0  0  0  0  0  0  0  0  0  0
   21.4887  -11.5807  -16.6961 C   0  0  0  0  0  0  0  0  0  0  0  0
   20.5271  -11.2839  -15.8953 O   0  0  0  0  0  0  0  0  0  0  0  0
   24.3160  -10.3110  -14.6465 C   0  0  0  0  0  0  0  0  0  0  0  0
   22.8910  -10.1340  -15.1740 C   0  0  2  0  0  0  0  0  0  0  0  0
   22.7392  -11.0499  -16.2813 N   0  0  0  0  0  0  0  0  0  0  0  0
   22.7571   -8.7240  -15.5728 C   0  0  0  0  0  0  0  0  0  0  0  0
   23.2071   -8.2329  -16.6383 O   0  0  0  0  0  0  0  0  0  0  0  0
   22.0523   -7.8630  -14.6539 N   0  0  0  0  0  0  0  0  0  0  0  0
   21.8315   -6.4716  -14.9333 C   0  0  1  0  0  0  0  0  0  0  0  0
   20.3571   -6.2310  -15.1772 C   0  0  0  0  0  0  0  0  0  0  0  0
   19.9024   -6.7562  -16.5023 C   0  0  0  0  0  0  0  0  0  0  0  0
   18.4215   -6.4881  -16.6787 C   0  0  0  0  0  0  0  0  0  0  0  0
   17.9220   -6.9362  -18.0244 C   0  0  0  0  0  0  0  0  0  0  0  0
   16.5120   -6.7471  -18.2059 N   0  0  0  0  0  0  0  0  0  0  0  0
   22.2979   -5.6756  -13.7693 C   0  0  0  0  0  0  0  0  0  0  0  0
   22.5366   -4.3093  -13.8352 O   0  0  0  0  0  0  0  0  0  0  0  0
   22.5028   -6.2197  -12.6412 O   0  0  0  0  0  0  0  0  0  0  0  0
  2  3  1  0
  2  1  1  0
  3  5  1  0
  3  4  1  6
  5  7  1  0
  5  6  1  1
  7  8  2  0
 10  9  1  6
 10 12  1  0
 11 10  1  0
 11  7  1  0
 12 13  2  0
 14 15  1  0
 14 12  1  0
 15 21  1  0
 15 16  1  1
 17 16  1  0
 18 17  1  0
 19 18  1  0
 20 19  1  0
 21 23  2  0
 21 22  1  0
M  END
$$$$
