EIM.pdb
     RDKit          3D

 26 25  0  0  1  0  0  0  0  0999 V2000
   11.1228  -17.6618   18.2294 N   0  0  0  0  0  0  0  0  0  0  0  0
   11.0676  -18.1563   19.6042 C   0  0  1  0  0  0  0  0  0  0  0  0
   12.2971  -18.9639   19.8282 C   0  0  0  0  0  0  0  0  0  0  0  0
   12.2112  -20.4119   19.4919 C   0  0  0  0  0  0  0  0  0  0  0  0
   13.3571  -21.2064   19.9787 C   0  0  0  0  0  0  0  0  0  0  0  0
   13.4335  -22.4297   19.7485 O   0  0  0  0  0  0  0  0  0  0  0  0
   10.8838  -17.0313   20.5567 C   0  0  0  0  0  0  0  0  0  0  0  0
   11.8030  -16.2368   20.8661 O   0  0  0  0  0  0  0  0  0  0  0  0
   14.3816  -20.6245   20.7038 O   0  0  0  0  0  0  0  0  0  0  0  0
    6.6658  -13.7331   20.3785 C   0  0  0  0  0  0  0  0  0  0  0  0
    8.0435  -14.3206   20.5790 C   0  0  0  0  0  0  0  0  0  0  0  0
    8.1035  -15.0034   21.9072 C   0  0  2  0  0  0  0  0  0  0  0  0
    7.9513  -13.9791   23.0096 C   0  0  0  0  0  0  0  0  0  0  0  0
    9.4274  -15.6968   22.1286 C   0  0  2  0  0  0  0  0  0  0  0  0
    9.6173  -16.7847   21.1906 N   0  0  0  0  0  0  0  0  0  0  0  0
    9.5528  -16.2551   23.5144 C   0  0  0  0  0  0  0  0  0  0  0  0
    8.8860  -17.2659   23.8594 O   0  0  0  0  0  0  0  0  0  0  0  0
    9.2777  -12.4663   28.8328 C   0  0  0  0  0  0  0  0  0  0  0  0
   10.3713  -13.8443   29.2307 S   0  0  0  0  0  0  0  0  0  0  0  0
    9.9136  -15.3434   28.2514 C   0  0  0  0  0  0  0  0  0  0  0  0
    9.9029  -14.9588   26.7944 C   0  0  0  0  0  0  0  0  0  0  0  0
   10.4972  -15.9935   25.8747 C   0  0  2  0  0  0  0  0  0  0  0  0
   10.3970  -15.7005   24.4810 N   0  0  0  0  0  0  0  0  0  0  0  0
    9.7784  -17.2488   26.0880 C   0  0  0  0  0  0  0  0  0  0  0  0
    8.5442  -17.2960   25.8805 O   0  0  0  0  0  0  0  0  0  0  0  0
   10.4228  -18.3840   26.5121 O   0  0  0  0  0  0  0  0  0  0  0  0
  2  1  1  6
  3  2  1  0
  4  3  1  0
  5  6  2  0
  5  4  1  0
  7  2  1  0
  7  8  2  0
  9  5  1  0
 10 11  1  0
 11 12  1  0
 12 14  1  0
 12 13  1  1
 14 15  1  6
 15  7  1  0
 16 14  1  0
 17 16  2  0
 19 18  1  0
 19 20  1  0
 20 21  1  0
 22 21  1  1
 22 24  1  0
 22 23  1  0
 23 16  1  0
 24 26  1  0
 25 24  2  0
M  END
$$$$
