EIM.pdb
     RDKit          3D

 26 25  0  0  1  0  0  0  0  0999 V2000
    9.2980  -15.5283   19.6682 N   0  0  0  0  0  0  0  0  0  0  0  0
    8.5435  -16.0815   20.7919 C   0  0  1  0  0  0  0  0  0  0  0  0
    8.5822  -17.5629   20.6575 C   0  0  0  0  0  0  0  0  0  0  0  0
    9.9189  -18.1736   20.4178 C   0  0  0  0  0  0  0  0  0  0  0  0
    9.8955  -19.6482   20.3387 C   0  0  0  0  0  0  0  0  0  0  0  0
   10.6557  -20.3406   21.0445 O   0  0  0  0  0  0  0  0  0  0  0  0
    9.0703  -15.5628   22.0803 C   0  0  0  0  0  0  0  0  0  0  0  0
   10.2527  -15.1746   22.2319 O   0  0  0  0  0  0  0  0  0  0  0  0
    9.0338  -20.3106   19.4829 O   0  0  0  0  0  0  0  0  0  0  0  0
    5.8705  -12.5432   25.3139 C   0  0  0  0  0  0  0  0  0  0  0  0
    7.0336  -13.1072   24.5313 C   0  0  0  0  0  0  0  0  0  0  0  0
    7.6235  -14.2589   25.2795 C   0  0  2  0  0  0  0  0  0  0  0  0
    8.2327  -13.7632   26.5722 C   0  0  0  0  0  0  0  0  0  0  0  0
    8.7284  -14.9340   24.5011 C   0  0  2  0  0  0  0  0  0  0  0  0
    8.2384  -15.4751   23.2496 N   0  0  0  0  0  0  0  0  0  0  0  0
    9.3647  -16.0528   25.2700 C   0  0  0  0  0  0  0  0  0  0  0  0
    8.9127  -17.2249   25.1854 O   0  0  0  0  0  0  0  0  0  0  0  0
    9.4459  -13.7419   29.1999 C   0  0  0  0  0  0  0  0  0  0  0  0
   10.7260  -14.7121   30.0202 S   0  0  0  0  0  0  0  0  0  0  0  0
   10.8302  -16.4057   29.2877 C   0  0  0  0  0  0  0  0  0  0  0  0
   11.8027  -16.3535   28.1378 C   0  0  0  0  0  0  0  0  0  0  0  0
   11.2382  -16.8301   26.8249 C   0  0  2  0  0  0  0  0  0  0  0  0
   10.4704  -15.8655   26.1049 N   0  0  0  0  0  0  0  0  0  0  0  0
   10.3414  -17.9510   27.1030 C   0  0  0  0  0  0  0  0  0  0  0  0
    9.1025  -17.7834   27.0281 O   0  0  0  0  0  0  0  0  0  0  0  0
   10.8228  -19.1897   27.4461 O   0  0  0  0  0  0  0  0  0  0  0  0
  2  1  1  6
  3  2  1  0
  4  3  1  0
  5  6  2  0
  5  4  1  0
  7  2  1  0
  7  8  2  0
  9  5  1  0
 10 11  1  0
 11 12  1  0
 12 14  1  0
 12 13  1  1
 14 15  1  6
 15  7  1  0
 16 14  1  0
 17 16  2  0
 19 18  1  0
 19 20  1  0
 20 21  1  0
 22 21  1  1
 22 24  1  0
 22 23  1  0
 23 16  1  0
 24 26  1  0
 25 24  2  0
M  END
$$$$
