EIM.pdb
     RDKit          3D

 26 25  0  0  1  0  0  0  0  0999 V2000
   10.4765  -18.7439   18.5889 N   0  0  0  0  0  0  0  0  0  0  0  0
    9.4189  -18.5621   19.5821 C   0  0  1  0  0  0  0  0  0  0  0  0
    9.3518  -19.8140   20.3836 C   0  0  0  0  0  0  0  0  0  0  0  0
   10.6492  -20.4786   20.6874 C   0  0  0  0  0  0  0  0  0  0  0  0
   10.7822  -20.9135   22.0925 C   0  0  0  0  0  0  0  0  0  0  0  0
   11.4590  -20.2543   22.9067 O   0  0  0  0  0  0  0  0  0  0  0  0
    9.6555  -17.3299   20.3772 C   0  0  0  0  0  0  0  0  0  0  0  0
   10.7986  -16.8657   20.5999 O   0  0  0  0  0  0  0  0  0  0  0  0
   10.1637  -22.0619   22.5533 O   0  0  0  0  0  0  0  0  0  0  0  0
    7.0660  -12.8932   19.2755 C   0  0  0  0  0  0  0  0  0  0  0  0
    8.1072  -13.8849   19.7400 C   0  0  0  0  0  0  0  0  0  0  0  0
    7.8349  -14.2618   21.1605 C   0  0  2  0  0  0  0  0  0  0  0  0
    8.0368  -13.0561   22.0511 C   0  0  0  0  0  0  0  0  0  0  0  0
    8.7763  -15.3364   21.6521 C   0  0  2  0  0  0  0  0  0  0  0  0
    8.5663  -16.5851   20.9480 N   0  0  0  0  0  0  0  0  0  0  0  0
    8.6203  -15.6020   23.1194 C   0  0  0  0  0  0  0  0  0  0  0  0
    7.5832  -16.1632   23.5610 O   0  0  0  0  0  0  0  0  0  0  0  0
    7.0996  -11.0298   25.7631 C   0  0  0  0  0  0  0  0  0  0  0  0
    7.0047  -12.0652   27.2369 S   0  0  0  0  0  0  0  0  0  0  0  0
    8.2182  -13.4554   27.1360 C   0  0  0  0  0  0  0  0  0  0  0  0
    8.4582  -13.7554   25.6788 C   0  0  0  0  0  0  0  0  0  0  0  0
    9.4383  -14.8715   25.4279 C   0  0  2  0  0  0  0  0  0  0  0  0
    9.5931  -15.2516   24.0604 N   0  0  0  0  0  0  0  0  0  0  0  0
    8.9589  -16.0572   26.1367 C   0  0  0  0  0  0  0  0  0  0  0  0
    8.4051  -16.9785   25.4939 O   0  0  0  0  0  0  0  0  0  0  0  0
    9.0996  -16.1892   27.4955 O   0  0  0  0  0  0  0  0  0  0  0  0
  2  1  1  6
  3  2  1  0
  4  3  1  0
  5  6  2  0
  5  4  1  0
  7  2  1  0
  7  8  2  0
  9  5  1  0
 10 11  1  0
 11 12  1  0
 12 14  1  0
 12 13  1  1
 14 15  1  6
 15  7  1  0
 16 14  1  0
 17 16  2  0
 19 18  1  0
 19 20  1  0
 20 21  1  0
 22 21  1  6
 22 24  1  0
 22 23  1  0
 23 16  1  0
 24 26  1  0
 25 24  2  0
M  END
$$$$
