EIM.pdb
     RDKit          3D

 26 25  0  0  1  0  0  0  0  0999 V2000
   12.2051  -16.6761   19.0770 N   0  0  0  0  0  0  0  0  0  0  0  0
   11.9745  -17.4486   20.2968 C   0  0  1  0  0  0  0  0  0  0  0  0
   13.2672  -18.0902   20.6591 C   0  0  0  0  0  0  0  0  0  0  0  0
   13.8271  -19.0581   19.6759 C   0  0  0  0  0  0  0  0  0  0  0  0
   15.1257  -19.6345   20.0794 C   0  0  0  0  0  0  0  0  0  0  0  0
   15.1818  -20.7014   20.7228 O   0  0  0  0  0  0  0  0  0  0  0  0
   11.3919  -16.5874   21.3578 C   0  0  0  0  0  0  0  0  0  0  0  0
   11.8667  -15.4707   21.6730 O   0  0  0  0  0  0  0  0  0  0  0  0
   16.3202  -19.0143   19.7594 O   0  0  0  0  0  0  0  0  0  0  0  0
    6.6165  -14.8426   21.1027 C   0  0  0  0  0  0  0  0  0  0  0  0
    8.0719  -15.0195   21.4690 C   0  0  0  0  0  0  0  0  0  0  0  0
    8.1736  -15.8252   22.7238 C   0  0  2  0  0  0  0  0  0  0  0  0
    7.5857  -15.0420   23.8765 C   0  0  0  0  0  0  0  0  0  0  0  0
    9.6080  -16.1327   23.0850 C   0  0  2  0  0  0  0  0  0  0  0  0
   10.2284  -16.9933   22.0982 N   0  0  0  0  0  0  0  0  0  0  0  0
    9.7275  -16.8019   24.4213 C   0  0  0  0  0  0  0  0  0  0  0  0
    9.6423  -18.0543   24.5192 O   0  0  0  0  0  0  0  0  0  0  0  0
    9.1480  -12.7255   28.1423 C   0  0  0  0  0  0  0  0  0  0  0  0
   10.9066  -12.9919   28.4411 S   0  0  0  0  0  0  0  0  0  0  0  0
   11.3375  -14.7786   28.2463 C   0  0  0  0  0  0  0  0  0  0  0  0
   10.0574  -15.5415   28.0219 C   0  0  0  0  0  0  0  0  0  0  0  0
   10.1366  -16.5809   26.9344 C   0  0  2  0  0  0  0  0  0  0  0  0
    9.9360  -16.0926   25.6079 N   0  0  0  0  0  0  0  0  0  0  0  0
    9.0836  -17.5658   27.1780 C   0  0  0  0  0  0  0  0  0  0  0  0
    7.9406  -17.3777   26.7016 O   0  0  0  0  0  0  0  0  0  0  0  0
    9.3144  -18.6978   27.9190 O   0  0  0  0  0  0  0  0  0  0  0  0
  2  1  1  6
  3  2  1  0
  4  3  1  0
  5  6  2  0
  5  4  1  0
  7  2  1  0
  7  8  2  0
  9  5  1  0
 10 11  1  0
 11 12  1  0
 12 14  1  0
 12 13  1  1
 14 15  1  6
 15  7  1  0
 16 14  1  0
 17 16  2  0
 19 18  1  0
 19 20  1  0
 20 21  1  0
 22 21  1  1
 22 24  1  0
 22 23  1  0
 23 16  1  0
 24 26  1  0
 25 24  2  0
M  END
$$$$
