EIM.pdb
     RDKit          3D

 26 25  0  0  1  0  0  0  0  0999 V2000
   11.7959  -17.6359   18.2199 N   0  0  0  0  0  0  0  0  0  0  0  0
   10.8149  -17.9860   19.2461 C   0  0  1  0  0  0  0  0  0  0  0  0
   11.2820  -19.2456   19.8860 C   0  0  0  0  0  0  0  0  0  0  0  0
   11.1227  -20.4939   19.0901 C   0  0  0  0  0  0  0  0  0  0  0  0
   11.5740  -21.7116   19.7935 C   0  0  0  0  0  0  0  0  0  0  0  0
   10.8927  -22.2126   20.7101 O   0  0  0  0  0  0  0  0  0  0  0  0
   10.6140  -16.8523   20.1847 C   0  0  0  0  0  0  0  0  0  0  0  0
   11.5550  -16.1499   20.6240 O   0  0  0  0  0  0  0  0  0  0  0  0
   12.7629  -22.3366   19.4622 O   0  0  0  0  0  0  0  0  0  0  0  0
    6.7136  -13.0534   19.9080 C   0  0  0  0  0  0  0  0  0  0  0  0
    8.0077  -13.7909   20.1625 C   0  0  0  0  0  0  0  0  0  0  0  0
    7.8571  -14.6547   21.3730 C   0  0  2  0  0  0  0  0  0  0  0  0
    7.6106  -13.7860   22.5864 C   0  0  0  0  0  0  0  0  0  0  0  0
    9.1041  -15.4604   21.6528 C   0  0  2  0  0  0  0  0  0  0  0  0
    9.3039  -16.4892   20.6524 N   0  0  0  0  0  0  0  0  0  0  0  0
    9.0629  -16.1247   22.9962 C   0  0  0  0  0  0  0  0  0  0  0  0
    8.5570  -17.2702   23.1278 O   0  0  0  0  0  0  0  0  0  0  0  0
    9.6034  -12.8566   28.8871 C   0  0  0  0  0  0  0  0  0  0  0  0
   10.6812  -14.2911   29.0707 S   0  0  0  0  0  0  0  0  0  0  0  0
   10.1654  -15.6450   27.9232 C   0  0  0  0  0  0  0  0  0  0  0  0
   10.1293  -15.0794   26.5268 C   0  0  0  0  0  0  0  0  0  0  0  0
    9.7091  -16.0654   25.4682 C   0  0  2  0  0  0  0  0  0  0  0  0
    9.5718  -15.5269   24.1530 N   0  0  0  0  0  0  0  0  0  0  0  0
    8.3966  -16.5912   25.8408 C   0  0  0  0  0  0  0  0  0  0  0  0
    8.3231  -17.5993   26.5803 O   0  0  0  0  0  0  0  0  0  0  0  0
    7.2356  -16.0071   25.3996 O   0  0  0  0  0  0  0  0  0  0  0  0
  2  1  1  6
  3  2  1  0
  4  3  1  0
  5  6  2  0
  5  4  1  0
  7  2  1  0
  7  8  2  0
  9  5  1  0
 10 11  1  0
 11 12  1  0
 12 14  1  0
 12 13  1  1
 14 15  1  6
 15  7  1  0
 16 14  1  0
 17 16  2  0
 19 18  1  0
 19 20  1  0
 20 21  1  0
 22 21  1  1
 22 24  1  0
 22 23  1  0
 23 16  1  0
 24 26  1  0
 25 24  2  0
M  END
$$$$
