EIM.pdb
     RDKit          3D

 26 25  0  0  1  0  0  0  0  0999 V2000
   10.6799  -19.0039   19.2482 N   0  0  0  0  0  0  0  0  0  0  0  0
    9.3695  -18.5432   19.7046 C   0  0  1  0  0  0  0  0  0  0  0  0
    8.7405  -19.6732   20.4405 C   0  0  0  0  0  0  0  0  0  0  0  0
    9.6659  -20.6866   21.0185 C   0  0  0  0  0  0  0  0  0  0  0  0
    9.2985  -21.1212   22.3814 C   0  0  0  0  0  0  0  0  0  0  0  0
    9.9396  -22.0191   22.9630 O   0  0  0  0  0  0  0  0  0  0  0  0
    9.5014  -17.2896   20.4905 C   0  0  0  0  0  0  0  0  0  0  0  0
   10.5335  -16.9895   21.1358 O   0  0  0  0  0  0  0  0  0  0  0  0
    8.2353  -20.5506   23.0580 O   0  0  0  0  0  0  0  0  0  0  0  0
    7.2109  -12.6843   18.6007 C   0  0  0  0  0  0  0  0  0  0  0  0
    8.1910  -13.6439   19.2348 C   0  0  0  0  0  0  0  0  0  0  0  0
    7.7256  -13.9907   20.6122 C   0  0  2  0  0  0  0  0  0  0  0  0
    7.8198  -12.7698   21.5000 C   0  0  0  0  0  0  0  0  0  0  0  0
    8.5798  -15.0640   21.2454 C   0  0  2  0  0  0  0  0  0  0  0  0
    8.4324  -16.3307   20.5577 N   0  0  0  0  0  0  0  0  0  0  0  0
    8.2426  -15.2812   22.6900 C   0  0  0  0  0  0  0  0  0  0  0  0
    7.3951  -16.1499   23.0253 O   0  0  0  0  0  0  0  0  0  0  0  0
    7.6226  -11.3822   27.9266 C   0  0  0  0  0  0  0  0  0  0  0  0
    6.3284  -12.0312   26.8511 S   0  0  0  0  0  0  0  0  0  0  0  0
    6.4949  -13.8621   26.6625 C   0  0  0  0  0  0  0  0  0  0  0  0
    6.9191  -14.1445   25.2443 C   0  0  0  0  0  0  0  0  0  0  0  0
    8.3990  -14.3667   25.0714 C   0  0  2  0  0  0  0  0  0  0  0  0
    8.8351  -14.5507   23.7244 N   0  0  0  0  0  0  0  0  0  0  0  0
    8.7568  -15.5864   25.7941 C   0  0  0  0  0  0  0  0  0  0  0  0
    8.4670  -15.6919   27.0080 O   0  0  0  0  0  0  0  0  0  0  0  0
    9.4055  -16.6256   25.1751 O   0  0  0  0  0  0  0  0  0  0  0  0
  2  1  1  1
  3  2  1  0
  4  3  1  0
  5  6  2  0
  5  4  1  0
  7  2  1  0
  7  8  2  0
  9  5  1  0
 10 11  1  0
 11 12  1  0
 12 14  1  0
 12 13  1  1
 14 15  1  6
 15  7  1  0
 16 14  1  0
 17 16  2  0
 19 18  1  0
 19 20  1  0
 20 21  1  0
 22 21  1  6
 22 24  1  0
 22 23  1  0
 23 16  1  0
 24 26  1  0
 25 24  2  0
M  END
$$$$
