EIM.pdb
     RDKit          3D

 26 25  0  0  1  0  0  0  0  0999 V2000
   12.5096  -17.3112   18.7270 N   0  0  0  0  0  0  0  0  0  0  0  0
   11.4287  -17.6397   19.6553 C   0  0  1  0  0  0  0  0  0  0  0  0
   11.9411  -18.6991   20.5659 C   0  0  0  0  0  0  0  0  0  0  0  0
   12.0430  -20.0716   19.9975 C   0  0  0  0  0  0  0  0  0  0  0  0
   12.6226  -21.0612   20.9281 C   0  0  0  0  0  0  0  0  0  0  0  0
   12.7189  -22.2628   20.6084 O   0  0  0  0  0  0  0  0  0  0  0  0
   10.9402  -16.4164   20.3418 C   0  0  0  0  0  0  0  0  0  0  0  0
   11.6855  -15.4543   20.6428 O   0  0  0  0  0  0  0  0  0  0  0  0
   13.0771  -20.6921   22.1815 O   0  0  0  0  0  0  0  0  0  0  0  0
    7.2113  -13.1030   18.7432 C   0  0  0  0  0  0  0  0  0  0  0  0
    8.4025  -13.6899   19.4643 C   0  0  0  0  0  0  0  0  0  0  0  0
    7.9337  -14.4362   20.6715 C   0  0  2  0  0  0  0  0  0  0  0  0
    7.2761  -13.4748   21.6364 C   0  0  0  0  0  0  0  0  0  0  0  0
    9.0763  -15.0918   21.4113 C   0  0  2  0  0  0  0  0  0  0  0  0
    9.5583  -16.2630   20.7077 N   0  0  0  0  0  0  0  0  0  0  0  0
    8.6898  -15.5127   22.7974 C   0  0  0  0  0  0  0  0  0  0  0  0
    8.2432  -16.6701   23.0132 O   0  0  0  0  0  0  0  0  0  0  0  0
    6.7335  -11.0196   27.0128 C   0  0  0  0  0  0  0  0  0  0  0  0
    6.0305  -12.5164   27.7327 S   0  0  0  0  0  0  0  0  0  0  0  0
    6.9839  -14.0067   27.1981 C   0  0  0  0  0  0  0  0  0  0  0  0
    7.5346  -13.7346   25.8220 C   0  0  0  0  0  0  0  0  0  0  0  0
    8.3507  -14.8621   25.2456 C   0  0  2  0  0  0  0  0  0  0  0  0
    8.8003  -14.6664   23.9048 N   0  0  0  0  0  0  0  0  0  0  0  0
    7.5130  -16.0605   25.2320 C   0  0  0  0  0  0  0  0  0  0  0  0
    6.6963  -16.2320   24.2980 O   0  0  0  0  0  0  0  0  0  0  0  0
    7.5973  -17.0087   26.2207 O   0  0  0  0  0  0  0  0  0  0  0  0
  2  1  1  6
  3  2  1  0
  4  3  1  0
  5  6  2  0
  5  4  1  0
  7  2  1  0
  7  8  2  0
  9  5  1  0
 10 11  1  0
 11 12  1  0
 12 14  1  0
 12 13  1  1
 14 15  1  6
 15  7  1  0
 16 14  1  0
 17 16  2  0
 19 18  1  0
 19 20  1  0
 20 21  1  0
 22 21  1  6
 22 24  1  0
 22 23  1  0
 23 16  1  0
 24 26  1  0
 25 24  2  0
M  END
$$$$
