EIM.pdb
     RDKit          3D

 26 25  0  0  1  0  0  0  0  0999 V2000
    9.8167  -18.9947   19.3449 N   0  0  0  0  0  0  0  0  0  0  0  0
   10.8672  -18.8799   20.3554 C   0  0  1  0  0  0  0  0  0  0  0  0
   12.1348  -19.3338   19.7220 C   0  0  0  0  0  0  0  0  0  0  0  0
   12.0309  -20.4749   18.7711 C   0  0  0  0  0  0  0  0  0  0  0  0
   13.2356  -21.3283   18.7295 C   0  0  0  0  0  0  0  0  0  0  0  0
   13.1409  -22.5664   18.6127 O   0  0  0  0  0  0  0  0  0  0  0  0
   10.9106  -17.5022   20.9092 C   0  0  0  0  0  0  0  0  0  0  0  0
   11.9055  -16.7478   20.7955 O   0  0  0  0  0  0  0  0  0  0  0  0
   14.5057  -20.7872   18.8181 O   0  0  0  0  0  0  0  0  0  0  0  0
    6.3117  -14.5845   20.8947 C   0  0  0  0  0  0  0  0  0  0  0  0
    7.7603  -14.9964   20.7705 C   0  0  0  0  0  0  0  0  0  0  0  0
    8.3916  -15.0056   22.1253 C   0  0  2  0  0  0  0  0  0  0  0  0
    8.5030  -13.5879   22.6408 C   0  0  0  0  0  0  0  0  0  0  0  0
    9.7905  -15.5753   22.0946 C   0  0  2  0  0  0  0  0  0  0  0  0
    9.7930  -16.9447   21.6211 N   0  0  0  0  0  0  0  0  0  0  0  0
   10.4441  -15.5523   23.4437 C   0  0  0  0  0  0  0  0  0  0  0  0
   11.4099  -14.7777   23.6733 O   0  0  0  0  0  0  0  0  0  0  0  0
    8.7592  -12.0555   28.2182 C   0  0  0  0  0  0  0  0  0  0  0  0
   10.0857  -13.2595   28.4278 S   0  0  0  0  0  0  0  0  0  0  0  0
    9.4950  -14.9598   28.0085 C   0  0  0  0  0  0  0  0  0  0  0  0
    9.3973  -15.0587   26.5079 C   0  0  0  0  0  0  0  0  0  0  0  0
   10.1945  -16.1868   25.9068 C   0  0  2  0  0  0  0  0  0  0  0  0
   10.0297  -16.3686   24.5004 N   0  0  0  0  0  0  0  0  0  0  0  0
    9.7592  -17.4307   26.5402 C   0  0  0  0  0  0  0  0  0  0  0  0
    9.0249  -18.2223   25.9055 O   0  0  0  0  0  0  0  0  0  0  0  0
   10.1351  -17.7570   27.8193 O   0  0  0  0  0  0  0  0  0  0  0  0
  2  1  1  6
  3  2  1  0
  4  3  1  0
  5  6  2  0
  5  4  1  0
  7  2  1  0
  7  8  2  0
  9  5  1  0
 10 11  1  0
 11 12  1  0
 12 14  1  0
 12 13  1  6
 14 15  1  1
 15  7  1  0
 16 14  1  0
 17 16  2  0
 19 18  1  0
 19 20  1  0
 20 21  1  0
 22 21  1  1
 22 24  1  0
 22 23  1  0
 23 16  1  0
 24 26  1  0
 25 24  2  0
M  END
$$$$
