EIM.pdb
     RDKit          3D

 26 25  0  0  1  0  0  0  0  0999 V2000
   11.3207  -16.9167   17.7947 N   0  0  0  0  0  0  0  0  0  0  0  0
   10.7989  -17.5805   18.9884 C   0  0  1  0  0  0  0  0  0  0  0  0
   11.7328  -18.6922   19.3141 C   0  0  0  0  0  0  0  0  0  0  0  0
   11.4449  -19.4590   20.5576 C   0  0  0  0  0  0  0  0  0  0  0  0
   12.3823  -20.5740   20.8015 C   0  0  0  0  0  0  0  0  0  0  0  0
   12.8612  -20.7730   21.9356 O   0  0  0  0  0  0  0  0  0  0  0  0
   10.5976  -16.5995   20.0855 C   0  0  0  0  0  0  0  0  0  0  0  0
   11.4602  -15.7513   20.4146 O   0  0  0  0  0  0  0  0  0  0  0  0
   12.7604  -21.4331   19.7853 O   0  0  0  0  0  0  0  0  0  0  0  0
    6.7849  -13.1101   20.0394 C   0  0  0  0  0  0  0  0  0  0  0  0
    8.0887  -13.7946   20.3782 C   0  0  0  0  0  0  0  0  0  0  0  0
    7.8666  -14.7589   21.4985 C   0  0  2  0  0  0  0  0  0  0  0  0
    7.4703  -14.0015   22.7463 C   0  0  0  0  0  0  0  0  0  0  0  0
    9.1179  -15.5367   21.8329 C   0  0  2  0  0  0  0  0  0  0  0  0
    9.3790  -16.5664   20.8476 N   0  0  0  0  0  0  0  0  0  0  0  0
    9.0366  -16.1947   23.1776 C   0  0  0  0  0  0  0  0  0  0  0  0
    8.7313  -17.4123   23.2763 O   0  0  0  0  0  0  0  0  0  0  0  0
   10.2438  -12.5649   28.3824 C   0  0  0  0  0  0  0  0  0  0  0  0
   10.5615  -14.1342   29.2125 S   0  0  0  0  0  0  0  0  0  0  0  0
   10.3750  -15.5449   28.0333 C   0  0  0  0  0  0  0  0  0  0  0  0
    9.9295  -14.9839   26.7074 C   0  0  0  0  0  0  0  0  0  0  0  0
    9.7562  -16.0155   25.6234 C   0  0  2  0  0  0  0  0  0  0  0  0
    9.2893  -15.5125   24.3715 N   0  0  0  0  0  0  0  0  0  0  0  0
    8.7594  -16.9829   26.0801 C   0  0  0  0  0  0  0  0  0  0  0  0
    9.1245  -17.9739   26.7533 O   0  0  0  0  0  0  0  0  0  0  0  0
    7.4263  -16.8341   25.7896 O   0  0  0  0  0  0  0  0  0  0  0  0
  2  1  1  6
  3  2  1  0
  4  3  1  0
  5  6  2  0
  5  4  1  0
  7  2  1  0
  7  8  2  0
  9  5  1  0
 10 11  1  0
 11 12  1  0
 12 14  1  0
 12 13  1  1
 14 15  1  6
 15  7  1  0
 16 14  1  0
 17 16  2  0
 19 18  1  0
 19 20  1  0
 20 21  1  0
 22 21  1  1
 22 24  1  0
 22 23  1  0
 23 16  1  0
 24 26  1  0
 25 24  2  0
M  END
$$$$
