EIM.pdb
     RDKit          3D

 26 25  0  0  1  0  0  0  0  0999 V2000
   13.4765  -15.2202   17.9390 N   0  0  0  0  0  0  0  0  0  0  0  0
   12.3954  -16.0238   18.5076 C   0  0  1  0  0  0  0  0  0  0  0  0
   12.9732  -17.3497   18.8571 C   0  0  0  0  0  0  0  0  0  0  0  0
   14.1334  -17.3436   19.7904 C   0  0  0  0  0  0  0  0  0  0  0  0
   14.6221  -18.6919   20.1435 C   0  0  0  0  0  0  0  0  0  0  0  0
   15.5777  -19.2086   19.5309 O   0  0  0  0  0  0  0  0  0  0  0  0
   11.7546  -15.3095   19.6415 C   0  0  0  0  0  0  0  0  0  0  0  0
   12.4016  -14.6631   20.4990 O   0  0  0  0  0  0  0  0  0  0  0  0
   14.0401  -19.4259   21.1614 O   0  0  0  0  0  0  0  0  0  0  0  0
    6.9685  -12.7152   18.8815 C   0  0  0  0  0  0  0  0  0  0  0  0
    8.3711  -13.0891   19.3013 C   0  0  0  0  0  0  0  0  0  0  0  0
    8.3074  -14.0789   20.4195 C   0  0  2  0  0  0  0  0  0  0  0  0
    7.6513  -13.4400   21.6233 C   0  0  0  0  0  0  0  0  0  0  0  0
    9.6815  -14.5320   20.8541 C   0  0  2  0  0  0  0  0  0  0  0  0
   10.3286  -15.3191   19.8240 N   0  0  0  0  0  0  0  0  0  0  0  0
    9.6396  -15.3556   22.1062 C   0  0  0  0  0  0  0  0  0  0  0  0
    9.4911  -16.6044   22.0455 O   0  0  0  0  0  0  0  0  0  0  0  0
   10.5330  -14.7172   30.0859 C   0  0  0  0  0  0  0  0  0  0  0  0
   10.2319  -13.9494   28.4820 S   0  0  0  0  0  0  0  0  0  0  0  0
   10.0564  -15.2353   27.1663 C   0  0  0  0  0  0  0  0  0  0  0  0
    9.9313  -14.5280   25.8415 C   0  0  0  0  0  0  0  0  0  0  0  0
    9.8343  -15.4483   24.6529 C   0  0  2  0  0  0  0  0  0  0  0  0
    9.7607  -14.7995   23.3832 N   0  0  0  0  0  0  0  0  0  0  0  0
    8.6070  -16.2312   24.7909 C   0  0  0  0  0  0  0  0  0  0  0  0
    7.5189  -15.7459   24.4049 O   0  0  0  0  0  0  0  0  0  0  0  0
    8.6145  -17.4910   25.3355 O   0  0  0  0  0  0  0  0  0  0  0  0
  2  1  1  1
  3  2  1  0
  4  3  1  0
  5  6  2  0
  5  4  1  0
  7  2  1  0
  7  8  2  0
  9  5  1  0
 10 11  1  0
 11 12  1  0
 12 14  1  0
 12 13  1  1
 14 15  1  6
 15  7  1  0
 16 14  1  0
 17 16  2  0
 19 18  1  0
 19 20  1  0
 20 21  1  0
 22 21  1  1
 22 24  1  0
 22 23  1  0
 23 16  1  0
 24 26  1  0
 25 24  2  0
M  END
$$$$
