EIM.pdb
     RDKit          3D

 26 25  0  0  1  0  0  0  0  0999 V2000
   11.1373  -17.1896   17.7226 N   0  0  0  0  0  0  0  0  0  0  0  0
   11.3847  -17.7196   19.0627 C   0  0  1  0  0  0  0  0  0  0  0  0
   12.7950  -18.1933   19.0920 C   0  0  0  0  0  0  0  0  0  0  0  0
   13.2798  -18.7566   20.3823 C   0  0  0  0  0  0  0  0  0  0  0  0
   14.6749  -19.2394   20.3357 C   0  0  0  0  0  0  0  0  0  0  0  0
   15.4740  -18.9816   21.2579 O   0  0  0  0  0  0  0  0  0  0  0  0
   11.0508  -16.7052   20.0952 C   0  0  0  0  0  0  0  0  0  0  0  0
   11.8324  -15.7841   20.4304 O   0  0  0  0  0  0  0  0  0  0  0  0
   15.1424  -19.9911   19.2727 O   0  0  0  0  0  0  0  0  0  0  0  0
    6.3698  -14.1027   20.0759 C   0  0  0  0  0  0  0  0  0  0  0  0
    7.8204  -14.4925   20.2411 C   0  0  0  0  0  0  0  0  0  0  0  0
    7.9905  -15.2403   21.5240 C   0  0  2  0  0  0  0  0  0  0  0  0
    7.6395  -14.3376   22.6858 C   0  0  0  0  0  0  0  0  0  0  0  0
    9.4170  -15.6924   21.7315 C   0  0  2  0  0  0  0  0  0  0  0  0
    9.7882  -16.7223   20.7824 N   0  0  0  0  0  0  0  0  0  0  0  0
    9.6483  -16.2313   23.1113 C   0  0  0  0  0  0  0  0  0  0  0  0
    9.8584  -17.4597   23.2912 O   0  0  0  0  0  0  0  0  0  0  0  0
   10.5440  -13.8074   30.7464 C   0  0  0  0  0  0  0  0  0  0  0  0
   10.1163  -13.4520   29.0307 S   0  0  0  0  0  0  0  0  0  0  0  0
   10.2823  -14.9700   27.9897 C   0  0  0  0  0  0  0  0  0  0  0  0
    9.9498  -14.5950   26.5684 C   0  0  0  0  0  0  0  0  0  0  0  0
   10.0211  -15.7395   25.5914 C   0  0  2  0  0  0  0  0  0  0  0  0
    9.6452  -15.4218   24.2512 N   0  0  0  0  0  0  0  0  0  0  0  0
    9.0966  -16.7765   26.0474 C   0  0  0  0  0  0  0  0  0  0  0  0
    7.8953  -16.7300   25.6963 O   0  0  0  0  0  0  0  0  0  0  0  0
    9.5115  -17.8060   26.8547 O   0  0  0  0  0  0  0  0  0  0  0  0
  2  1  1  6
  3  2  1  0
  4  3  1  0
  5  6  2  0
  5  4  1  0
  7  2  1  0
  7  8  2  0
  9  5  1  0
 10 11  1  0
 11 12  1  0
 12 14  1  0
 12 13  1  1
 14 15  1  6
 15  7  1  0
 16 14  1  0
 17 16  2  0
 19 18  1  0
 19 20  1  0
 20 21  1  0
 22 21  1  1
 22 24  1  0
 22 23  1  0
 23 16  1  0
 24 26  1  0
 25 24  2  0
M  END
$$$$
