EIM.pdb
     RDKit          3D

 26 25  0  0  1  0  0  0  0  0999 V2000
    9.2221  -18.9125   19.7688 N   0  0  0  0  0  0  0  0  0  0  0  0
   10.4877  -18.1817   19.7227 C   0  0  1  0  0  0  0  0  0  0  0  0
   10.8871  -18.0887   18.2923 C   0  0  0  0  0  0  0  0  0  0  0  0
   12.2017  -17.4489   18.0099 C   0  0  0  0  0  0  0  0  0  0  0  0
   13.0114  -18.1676   17.0054 C   0  0  0  0  0  0  0  0  0  0  0  0
   14.1423  -18.6096   17.2900 O   0  0  0  0  0  0  0  0  0  0  0  0
   10.3613  -16.8743   20.4164 C   0  0  0  0  0  0  0  0  0  0  0  0
   11.3333  -16.1097   20.6222 O   0  0  0  0  0  0  0  0  0  0  0  0
   12.5463  -18.3750   15.7191 O   0  0  0  0  0  0  0  0  0  0  0  0
    6.9219  -12.9761   19.4190 C   0  0  0  0  0  0  0  0  0  0  0  0
    8.1244  -13.7645   19.8834 C   0  0  0  0  0  0  0  0  0  0  0  0
    7.8579  -14.3203   21.2451 C   0  0  2  0  0  0  0  0  0  0  0  0
    7.7424  -13.1868   22.2400 C   0  0  0  0  0  0  0  0  0  0  0  0
    8.9791  -15.2137   21.7219 C   0  0  2  0  0  0  0  0  0  0  0  0
    9.0928  -16.4022   20.9011 N   0  0  0  0  0  0  0  0  0  0  0  0
    8.7930  -15.6508   23.1439 C   0  0  0  0  0  0  0  0  0  0  0  0
    7.8589  -16.4359   23.4545 O   0  0  0  0  0  0  0  0  0  0  0  0
    6.0396  -12.0038   26.0711 C   0  0  0  0  0  0  0  0  0  0  0  0
    6.9694  -12.3347   27.5807 S   0  0  0  0  0  0  0  0  0  0  0  0
    8.0565  -13.8137   27.3657 C   0  0  0  0  0  0  0  0  0  0  0  0
    8.4377  -13.9002   25.9103 C   0  0  0  0  0  0  0  0  0  0  0  0
    9.3343  -15.0623   25.5713 C   0  0  2  0  0  0  0  0  0  0  0  0
    9.6252  -15.2237   24.1829 N   0  0  0  0  0  0  0  0  0  0  0  0
    8.6615  -16.2878   25.9998 C   0  0  0  0  0  0  0  0  0  0  0  0
    7.7901  -16.8034   25.2626 O   0  0  0  0  0  0  0  0  0  0  0  0
    8.9601  -16.8925   27.1952 O   0  0  0  0  0  0  0  0  0  0  0  0
  2  1  1  6
  3  2  1  0
  4  3  1  0
  5  6  2  0
  5  4  1  0
  7  2  1  0
  7  8  2  0
  9  5  1  0
 10 11  1  0
 11 12  1  0
 12 14  1  0
 12 13  1  1
 14 15  1  6
 15  7  1  0
 16 14  1  0
 17 16  2  0
 19 18  1  0
 19 20  1  0
 20 21  1  0
 22 21  1  6
 22 24  1  0
 22 23  1  0
 23 16  1  0
 24 26  1  0
 25 24  2  0
M  END
$$$$
