GTN.pdb
     RDKit          3D

 20 19  0  0  1  0  0  0  0  0999 V2000
    7.9381  -13.5200   15.6283 N   0  0  0  0  0  0  0  0  0  0  0  0
    7.8965  -14.6527   16.5325 C   0  0  0  0  0  0  0  0  0  0  0  0
    8.6633  -14.3303   17.7609 C   0  0  0  0  0  0  0  0  0  0  0  0
    9.5984  -13.4970   17.7830 O   0  0  0  0  0  0  0  0  0  0  0  0
    7.1235  -13.4451   21.2116 C   0  0  0  0  0  0  0  0  0  0  0  0
    8.1147  -14.5728   21.4027 C   0  0  1  0  0  0  0  0  0  0  0  0
    7.3983  -15.7175   21.6346 O   0  0  0  0  0  0  0  0  0  0  0  0
    9.0285  -14.6771   20.2026 C   0  0  2  0  0  0  0  0  0  0  0  0
    8.3512  -14.9770   18.9879 N   0  0  0  0  0  0  0  0  0  0  0  0
   10.1464  -15.6275   20.4878 C   0  0  0  0  0  0  0  0  0  0  0  0
   10.1400  -16.8042   20.0447 O   0  0  0  0  0  0  0  0  0  0  0  0
   14.1120  -13.9454   19.2715 N   0  0  0  0  0  0  0  0  0  0  0  0
   14.0220  -15.2139   19.8969 C   0  0  0  0  0  0  0  0  0  0  0  0
   14.2539  -16.2317   19.1830 O   0  0  0  0  0  0  0  0  0  0  0  0
   13.6760  -15.3422   21.3178 C   0  0  0  0  0  0  0  0  0  0  0  0
   12.3870  -16.0502   21.5975 C   0  0  2  0  0  0  0  0  0  0  0  0
   11.2437  -15.1911   21.2791 N   0  0  0  0  0  0  0  0  0  0  0  0
   12.2869  -16.2801   23.0679 C   0  0  0  0  0  0  0  0  0  0  0  0
   11.4089  -15.7139   23.7863 O   0  0  0  0  0  0  0  0  0  0  0  0
   13.1526  -17.1227   23.6997 O   0  0  0  0  0  0  0  0  0  0  0  0
  2  1  1  0
  3  2  1  0
  4  3  2  0
  6  5  1  6
  7  6  1  0
  8  9  1  6
  8  6  1  0
  9  3  1  0
 10  8  1  0
 11 10  2  0
 13 12  1  0
 13 14  2  0
 15 13  1  0
 16 15  1  1
 16 17  1  0
 17 10  1  0
 18 20  1  0
 18 16  1  0
 19 18  2  0
M  END
$$$$
