GTN.pdb
     RDKit          3D

 20 19  0  0  1  0  0  0  0  0999 V2000
    8.4715  -13.8783   15.9813 N   0  0  0  0  0  0  0  0  0  0  0  0
    8.0256  -14.8077   17.0010 C   0  0  0  0  0  0  0  0  0  0  0  0
    8.6248  -14.4323   18.3051 C   0  0  0  0  0  0  0  0  0  0  0  0
    9.5295  -13.5732   18.4187 O   0  0  0  0  0  0  0  0  0  0  0  0
    6.7955  -13.5049   21.5842 C   0  0  0  0  0  0  0  0  0  0  0  0
    7.7574  -14.6329   21.8889 C   0  0  1  0  0  0  0  0  0  0  0  0
    7.0137  -15.7646   22.0980 O   0  0  0  0  0  0  0  0  0  0  0  0
    8.7630  -14.7816   20.7698 C   0  0  2  0  0  0  0  0  0  0  0  0
    8.1774  -15.0549   19.5023 N   0  0  0  0  0  0  0  0  0  0  0  0
    9.8095  -15.7800   21.1473 C   0  0  0  0  0  0  0  0  0  0  0  0
    9.8251  -16.9365   20.6542 O   0  0  0  0  0  0  0  0  0  0  0  0
   15.1571  -16.0214   24.2168 N   0  0  0  0  0  0  0  0  0  0  0  0
   14.2977  -16.3932   23.1531 C   0  0  0  0  0  0  0  0  0  0  0  0
   14.5629  -17.4670   22.5398 O   0  0  0  0  0  0  0  0  0  0  0  0
   13.1436  -15.5668   22.7790 C   0  0  0  0  0  0  0  0  0  0  0  0
   11.8812  -16.3234   22.5050 C   0  0  2  0  0  0  0  0  0  0  0  0
   10.8117  -15.4137   22.0866 N   0  0  0  0  0  0  0  0  0  0  0  0
   11.3965  -16.9088   23.7885 C   0  0  0  0  0  0  0  0  0  0  0  0
   10.6494  -16.2686   24.5883 O   0  0  0  0  0  0  0  0  0  0  0  0
   11.7475  -18.1752   24.1507 O   0  0  0  0  0  0  0  0  0  0  0  0
  2  1  1  0
  3  2  1  0
  4  3  2  0
  6  5  1  6
  7  6  1  0
  8  9  1  6
  8  6  1  0
  9  3  1  0
 10  8  1  0
 11 10  2  0
 13 12  1  0
 13 14  2  0
 15 13  1  0
 16 15  1  1
 16 17  1  0
 17 10  1  0
 18 20  1  0
 18 16  1  0
 19 18  2  0
M  END
$$$$
