GTN.pdb
     RDKit          3D

 20 19  0  0  1  0  0  0  0  0999 V2000
    6.4103  -19.0347   18.2095 N   0  0  0  0  0  0  0  0  0  0  0  0
    5.8714  -17.8872   18.9132 C   0  0  0  0  0  0  0  0  0  0  0  0
    6.9821  -16.9879   19.3114 C   0  0  0  0  0  0  0  0  0  0  0  0
    8.1827  -17.3455   19.3136 O   0  0  0  0  0  0  0  0  0  0  0  0
    8.5713  -12.4830   20.5550 C   0  0  0  0  0  0  0  0  0  0  0  0
    7.4035  -13.3209   20.0807 C   0  0  1  0  0  0  0  0  0  0  0  0
    7.1362  -12.9611   18.7859 O   0  0  0  0  0  0  0  0  0  0  0  0
    7.7162  -14.7920   20.2358 C   0  0  2  0  0  0  0  0  0  0  0  0
    6.7097  -15.6523   19.7152 N   0  0  0  0  0  0  0  0  0  0  0  0
    8.0558  -15.0988   21.6588 C   0  0  0  0  0  0  0  0  0  0  0  0
    7.1629  -15.2599   22.5292 O   0  0  0  0  0  0  0  0  0  0  0  0
   10.8967  -17.4799   25.3709 N   0  0  0  0  0  0  0  0  0  0  0  0
   10.1203  -18.0983   24.3594 C   0  0  0  0  0  0  0  0  0  0  0  0
    9.9309  -19.3452   24.4527 O   0  0  0  0  0  0  0  0  0  0  0  0
    9.5555  -17.3225   23.2484 C   0  0  0  0  0  0  0  0  0  0  0  0
    9.8516  -15.8554   23.2815 C   0  0  2  0  0  0  0  0  0  0  0  0
    9.4213  -15.2114   22.0379 N   0  0  0  0  0  0  0  0  0  0  0  0
   11.3322  -15.6755   23.3055 C   0  0  0  0  0  0  0  0  0  0  0  0
   12.0426  -15.7460   22.2576 O   0  0  0  0  0  0  0  0  0  0  0  0
   11.9824  -15.4247   24.4770 O   0  0  0  0  0  0  0  0  0  0  0  0
  2  1  1  0
  3  2  1  0
  4  3  2  0
  6  5  1  6
  7  6  1  0
  8  9  1  1
  8  6  1  0
  9  3  1  0
 10  8  1  0
 11 10  2  0
 13 12  1  0
 13 14  2  0
 15 13  1  0
 16 15  1  6
 16 17  1  0
 17 10  1  0
 18 20  1  0
 18 16  1  0
 19 18  2  0
M  END
$$$$
