GTN.pdb
     RDKit          3D

 20 19  0  0  1  0  0  0  0  0999 V2000
    4.0477  -18.7560   21.8752 N   0  0  0  0  0  0  0  0  0  0  0  0
    4.1871  -17.6633   20.9323 C   0  0  0  0  0  0  0  0  0  0  0  0
    5.5438  -17.0762   21.0564 C   0  0  0  0  0  0  0  0  0  0  0  0
    6.5706  -17.7658   21.2556 O   0  0  0  0  0  0  0  0  0  0  0  0
    8.4375  -13.0633   20.6720 C   0  0  0  0  0  0  0  0  0  0  0  0
    7.0555  -13.6527   20.4892 C   0  0  1  0  0  0  0  0  0  0  0  0
    6.7548  -13.5937   19.1538 O   0  0  0  0  0  0  0  0  0  0  0  0
    7.0060  -15.0568   21.0476 C   0  0  2  0  0  0  0  0  0  0  0  0
    5.7260  -15.6703   20.9500 N   0  0  0  0  0  0  0  0  0  0  0  0
    7.5487  -15.0764   22.4403 C   0  0  0  0  0  0  0  0  0  0  0  0
    6.8438  -14.7436   23.4268 O   0  0  0  0  0  0  0  0  0  0  0  0
    9.5314  -18.6183   26.3603 N   0  0  0  0  0  0  0  0  0  0  0  0
    9.4727  -17.2703   25.9268 C   0  0  0  0  0  0  0  0  0  0  0  0
    9.9473  -16.3897   26.7005 O   0  0  0  0  0  0  0  0  0  0  0  0
    8.8869  -16.9098   24.6299 C   0  0  0  0  0  0  0  0  0  0  0  0
    9.4609  -15.6836   23.9911 C   0  0  2  0  0  0  0  0  0  0  0  0
    8.8944  -15.4812   22.6553 N   0  0  0  0  0  0  0  0  0  0  0  0
   10.9149  -15.9155   23.7520 C   0  0  0  0  0  0  0  0  0  0  0  0
   11.7225  -16.1912   24.6896 O   0  0  0  0  0  0  0  0  0  0  0  0
   11.4329  -15.8371   22.4934 O   0  0  0  0  0  0  0  0  0  0  0  0
  2  1  1  0
  3  2  1  0
  4  3  2  0
  6  5  1  6
  7  6  1  0
  8  9  1  1
  8  6  1  0
  9  3  1  0
 10  8  1  0
 11 10  2  0
 13 12  1  0
 13 14  2  0
 15 13  1  0
 16 15  1  6
 16 17  1  0
 17 10  1  0
 18 20  1  0
 18 16  1  0
 19 18  2  0
M  END
$$$$
