GTN.pdb
     RDKit          3D

 20 19  0  0  1  0  0  0  0  0999 V2000
    8.4487  -13.5092   15.9847 N   0  0  0  0  0  0  0  0  0  0  0  0
    8.3535  -14.6308   16.8985 C   0  0  0  0  0  0  0  0  0  0  0  0
    8.9797  -14.2657   18.1929 C   0  0  0  0  0  0  0  0  0  0  0  0
    9.8328  -13.3552   18.3059 O   0  0  0  0  0  0  0  0  0  0  0  0
    7.1207  -13.6006   21.4566 C   0  0  0  0  0  0  0  0  0  0  0  0
    8.2157  -14.5943   21.7796 C   0  0  1  0  0  0  0  0  0  0  0  0
    7.6160  -15.7966   22.0485 O   0  0  0  0  0  0  0  0  0  0  0  0
    9.2096  -14.6677   20.6427 C   0  0  2  0  0  0  0  0  0  0  0  0
    8.6203  -14.9590   19.3809 N   0  0  0  0  0  0  0  0  0  0  0  0
   10.3201  -15.6063   20.9895 C   0  0  0  0  0  0  0  0  0  0  0  0
   10.4563  -16.7107   20.4040 O   0  0  0  0  0  0  0  0  0  0  0  0
   15.8835  -15.8668   21.7846 N   0  0  0  0  0  0  0  0  0  0  0  0
   14.9076  -15.6990   22.7984 C   0  0  0  0  0  0  0  0  0  0  0  0
   15.1908  -16.1269   23.9543 O   0  0  0  0  0  0  0  0  0  0  0  0
   13.6199  -15.0518   22.5195 C   0  0  0  0  0  0  0  0  0  0  0  0
   12.4798  -15.9875   22.2624 C   0  0  2  0  0  0  0  0  0  0  0  0
   11.2450  -15.2421   22.0057 N   0  0  0  0  0  0  0  0  0  0  0  0
   12.2059  -16.7493   23.5153 C   0  0  0  0  0  0  0  0  0  0  0  0
   11.3308  -16.3825   24.3563 O   0  0  0  0  0  0  0  0  0  0  0  0
   12.9005  -17.8865   23.8026 O   0  0  0  0  0  0  0  0  0  0  0  0
  2  1  1  0
  3  2  1  0
  4  3  2  0
  6  5  1  6
  7  6  1  0
  8  9  1  6
  8  6  1  0
  9  3  1  0
 10  8  1  0
 11 10  2  0
 13 12  1  0
 13 14  2  0
 15 13  1  0
 16 15  1  1
 16 17  1  0
 17 10  1  0
 18 20  1  0
 18 16  1  0
 19 18  2  0
M  END
$$$$
