GTN.pdb
     RDKit          3D

 20 19  0  0  1  0  0  0  0  0999 V2000
    8.8679  -17.1265   16.1264 N   0  0  0  0  0  0  0  0  0  0  0  0
    7.9676  -16.7851   17.2104 C   0  0  0  0  0  0  0  0  0  0  0  0
    8.7238  -16.0816   18.2753 C   0  0  0  0  0  0  0  0  0  0  0  0
    9.9752  -16.0287   18.3028 O   0  0  0  0  0  0  0  0  0  0  0  0
    7.6332  -12.6021   19.9970 C   0  0  0  0  0  0  0  0  0  0  0  0
    7.9373  -13.6585   21.0373 C   0  0  1  0  0  0  0  0  0  0  0  0
    6.7458  -14.0490   21.5898 O   0  0  0  0  0  0  0  0  0  0  0  0
    8.7062  -14.8018   20.4148 C   0  0  2  0  0  0  0  0  0  0  0  0
    8.0307  -15.4261   19.3294 N   0  0  0  0  0  0  0  0  0  0  0  0
    9.1240  -15.7756   21.4691 C   0  0  0  0  0  0  0  0  0  0  0  0
    8.5674  -16.8968   21.5882 O   0  0  0  0  0  0  0  0  0  0  0  0
   13.7164  -15.1969   21.9240 N   0  0  0  0  0  0  0  0  0  0  0  0
   13.0555  -16.2747   22.5642 C   0  0  0  0  0  0  0  0  0  0  0  0
   13.2980  -17.4405   22.1384 O   0  0  0  0  0  0  0  0  0  0  0  0
   12.1281  -16.0480   23.6794 C   0  0  0  0  0  0  0  0  0  0  0  0
   10.6906  -16.3411   23.3812 C   0  0  2  0  0  0  0  0  0  0  0  0
   10.1760  -15.4263   22.3591 N   0  0  0  0  0  0  0  0  0  0  0  0
    9.8864  -16.0347   24.5995 C   0  0  0  0  0  0  0  0  0  0  0  0
    9.0897  -15.0500   24.6583 O   0  0  0  0  0  0  0  0  0  0  0  0
    9.9833  -16.8181   25.7109 O   0  0  0  0  0  0  0  0  0  0  0  0
  2  1  1  0
  3  2  1  0
  4  3  2  0
  6  5  1  6
  7  6  1  0
  8  9  1  6
  8  6  1  0
  9  3  1  0
 10  8  1  0
 11 10  2  0
 13 12  1  0
 13 14  2  0
 15 13  1  0
 16 15  1  1
 16 17  1  0
 17 10  1  0
 18 20  1  0
 18 16  1  0
 19 18  2  0
M  END
$$$$
