GTN.pdb
     RDKit          3D

 20 19  0  0  1  0  0  0  0  0999 V2000
    8.7455  -15.7175   15.4366 N   0  0  0  0  0  0  0  0  0  0  0  0
    7.9859  -15.8754   16.6614 C   0  0  0  0  0  0  0  0  0  0  0  0
    8.7246  -15.2460   17.7834 C   0  0  0  0  0  0  0  0  0  0  0  0
    9.8909  -14.8031   17.6697 O   0  0  0  0  0  0  0  0  0  0  0  0
    7.2786  -12.6580   20.5008 C   0  0  0  0  0  0  0  0  0  0  0  0
    7.9062  -13.8647   21.1646 C   0  0  1  0  0  0  0  0  0  0  0  0
    6.8893  -14.6450   21.6488 O   0  0  0  0  0  0  0  0  0  0  0  0
    8.8013  -14.5941   20.1886 C   0  0  2  0  0  0  0  0  0  0  0  0
    8.1133  -15.1225   19.0609 N   0  0  0  0  0  0  0  0  0  0  0  0
    9.6102  -15.6270   20.9050 C   0  0  0  0  0  0  0  0  0  0  0  0
    9.3854  -16.8558   20.7618 O   0  0  0  0  0  0  0  0  0  0  0  0
   15.0453  -16.5600   23.1345 N   0  0  0  0  0  0  0  0  0  0  0  0
   13.7498  -16.2965   23.6451 C   0  0  0  0  0  0  0  0  0  0  0  0
   13.4468  -16.8158   24.7576 O   0  0  0  0  0  0  0  0  0  0  0  0
   12.7977  -15.4519   22.9135 C   0  0  0  0  0  0  0  0  0  0  0  0
   11.5648  -16.1520   22.4328 C   0  0  2  0  0  0  0  0  0  0  0  0
   10.6593  -15.2106   21.7692 N   0  0  0  0  0  0  0  0  0  0  0  0
   10.8031  -16.6316   23.6223 C   0  0  0  0  0  0  0  0  0  0  0  0
    9.9099  -15.9300   24.1857 O   0  0  0  0  0  0  0  0  0  0  0  0
   11.0470  -17.8635   24.1527 O   0  0  0  0  0  0  0  0  0  0  0  0
  2  1  1  0
  3  2  1  0
  4  3  2  0
  6  5  1  6
  7  6  1  0
  8  9  1  6
  8  6  1  0
  9  3  1  0
 10  8  1  0
 11 10  2  0
 13 12  1  0
 13 14  2  0
 15 13  1  0
 16 15  1  1
 16 17  1  0
 17 10  1  0
 18 20  1  0
 18 16  1  0
 19 18  2  0
M  END
$$$$
