GTN.pdb
     RDKit          3D

 20 19  0  0  1  0  0  0  0  0999 V2000
    9.2232  -15.4639   14.1855 N   0  0  0  0  0  0  0  0  0  0  0  0
    8.5323  -15.6916   15.4397 C   0  0  0  0  0  0  0  0  0  0  0  0
    9.2602  -15.0044   16.5345 C   0  0  0  0  0  0  0  0  0  0  0  0
   10.4334  -14.5817   16.4143 O   0  0  0  0  0  0  0  0  0  0  0  0
    7.5637  -12.5400   19.3017 C   0  0  0  0  0  0  0  0  0  0  0  0
    8.4091  -13.6208   19.9403 C   0  0  1  0  0  0  0  0  0  0  0  0
    7.5567  -14.5182   20.5282 O   0  0  0  0  0  0  0  0  0  0  0  0
    9.3185  -14.2524   18.9108 C   0  0  2  0  0  0  0  0  0  0  0  0
    8.6298  -14.7983   17.7920 N   0  0  0  0  0  0  0  0  0  0  0  0
   10.2281  -15.2417   19.5653 C   0  0  0  0  0  0  0  0  0  0  0  0
   10.0878  -16.4795   19.3939 O   0  0  0  0  0  0  0  0  0  0  0  0
   14.5588  -13.7751   19.0854 N   0  0  0  0  0  0  0  0  0  0  0  0
   14.2538  -15.0122   19.7057 C   0  0  0  0  0  0  0  0  0  0  0  0
   14.5561  -16.0675   19.0778 O   0  0  0  0  0  0  0  0  0  0  0  0
   13.6148  -15.0675   21.0262 C   0  0  0  0  0  0  0  0  0  0  0  0
   12.2432  -15.6672   21.0448 C   0  0  2  0  0  0  0  0  0  0  0  0
   11.2774  -14.7726   20.4018 N   0  0  0  0  0  0  0  0  0  0  0  0
   11.7883  -15.7554   22.4626 C   0  0  0  0  0  0  0  0  0  0  0  0
   12.3382  -16.5257   23.3063 O   0  0  0  0  0  0  0  0  0  0  0  0
   10.7466  -14.9962   22.9063 O   0  0  0  0  0  0  0  0  0  0  0  0
  2  1  1  0
  3  2  1  0
  4  3  2  0
  6  5  1  6
  7  6  1  0
  8  9  1  6
  8  6  1  0
  9  3  1  0
 10  8  1  0
 11 10  2  0
 13 12  1  0
 13 14  2  0
 15 13  1  0
 16 15  1  1
 16 17  1  0
 17 10  1  0
 18 20  1  0
 18 16  1  0
 19 18  2  0
M  END
$$$$
