GTN.pdb
     RDKit          3D

 20 19  0  0  1  0  0  0  0  0999 V2000
    8.4575  -12.9186   16.9835 N   0  0  0  0  0  0  0  0  0  0  0  0
    8.1192  -14.2372   17.4827 C   0  0  0  0  0  0  0  0  0  0  0  0
    8.5053  -14.3364   18.9116 C   0  0  0  0  0  0  0  0  0  0  0  0
    9.4539  -13.6869   19.4093 O   0  0  0  0  0  0  0  0  0  0  0  0
    7.3043  -15.6852   23.4897 C   0  0  0  0  0  0  0  0  0  0  0  0
    6.9505  -15.7905   22.0219 C   0  0  1  0  0  0  0  0  0  0  0  0
    5.8023  -15.0704   21.8212 O   0  0  0  0  0  0  0  0  0  0  0  0
    8.1054  -15.3168   21.1687 C   0  0  2  0  0  0  0  0  0  0  0  0
    7.7891  -15.1981   19.7867 N   0  0  0  0  0  0  0  0  0  0  0  0
    9.3089  -16.1692   21.4124 C   0  0  0  0  0  0  0  0  0  0  0  0
    9.4164  -17.3166   20.9096 O   0  0  0  0  0  0  0  0  0  0  0  0
   14.9454  -15.6533   23.9498 N   0  0  0  0  0  0  0  0  0  0  0  0
   13.9838  -16.2594   23.1035 C   0  0  0  0  0  0  0  0  0  0  0  0
   14.2396  -17.4197   22.6704 O   0  0  0  0  0  0  0  0  0  0  0  0
   12.7384  -15.5696   22.7455 C   0  0  0  0  0  0  0  0  0  0  0  0
   11.5464  -16.4582   22.5702 C   0  0  2  0  0  0  0  0  0  0  0  0
   10.3579  -15.6710   22.2324 N   0  0  0  0  0  0  0  0  0  0  0  0
   11.2249  -17.0782   23.8882 C   0  0  0  0  0  0  0  0  0  0  0  0
   10.5421  -16.4791   24.7728 O   0  0  0  0  0  0  0  0  0  0  0  0
   11.6629  -18.3332   24.1908 O   0  0  0  0  0  0  0  0  0  0  0  0
  2  1  1  0
  3  2  1  0
  4  3  2  0
  6  5  1  1
  7  6  1  0
  8  9  1  6
  8  6  1  0
  9  3  1  0
 10  8  1  0
 11 10  2  0
 13 12  1  0
 13 14  2  0
 15 13  1  0
 16 15  1  1
 16 17  1  0
 17 10  1  0
 18 20  1  0
 18 16  1  0
 19 18  2  0
M  END
$$$$
