GTN.pdb
     RDKit          3D

 20 19  0  0  1  0  0  0  0  0999 V2000
    7.9200  -13.1167   15.9129 N   0  0  0  0  0  0  0  0  0  0  0  0
    7.9669  -14.4482   16.4847 C   0  0  0  0  0  0  0  0  0  0  0  0
    8.3641  -14.3576   17.9112 C   0  0  0  0  0  0  0  0  0  0  0  0
    9.0681  -13.4265   18.3660 O   0  0  0  0  0  0  0  0  0  0  0  0
    6.2725  -13.9111   20.7546 C   0  0  0  0  0  0  0  0  0  0  0  0
    7.0559  -15.1540   21.1182 C   0  0  1  0  0  0  0  0  0  0  0  0
    6.1990  -16.2201   21.0391 O   0  0  0  0  0  0  0  0  0  0  0  0
    8.2634  -15.2947   20.2193 C   0  0  2  0  0  0  0  0  0  0  0  0
    7.9457  -15.3550   18.8338 N   0  0  0  0  0  0  0  0  0  0  0  0
    9.1069  -16.4449   20.6666 C   0  0  0  0  0  0  0  0  0  0  0  0
    9.3249  -17.4321   19.9190 O   0  0  0  0  0  0  0  0  0  0  0  0
   12.8973  -14.8899   23.3903 N   0  0  0  0  0  0  0  0  0  0  0  0
   12.6037  -16.1943   22.9205 C   0  0  0  0  0  0  0  0  0  0  0  0
   13.3315  -16.6563   21.9952 O   0  0  0  0  0  0  0  0  0  0  0  0
   11.5005  -16.9799   23.4868 C   0  0  0  0  0  0  0  0  0  0  0  0
   10.5157  -17.5053   22.4891 C   0  0  2  0  0  0  0  0  0  0  0  0
    9.6769  -16.4226   21.9688 N   0  0  0  0  0  0  0  0  0  0  0  0
    9.5652  -18.4097   23.1988 C   0  0  0  0  0  0  0  0  0  0  0  0
    8.3378  -18.1270   23.3438 O   0  0  0  0  0  0  0  0  0  0  0  0
    9.9933  -19.5923   23.7248 O   0  0  0  0  0  0  0  0  0  0  0  0
  2  1  1  0
  3  2  1  0
  4  3  2  0
  6  5  1  6
  7  6  1  0
  8  9  1  6
  8  6  1  0
  9  3  1  0
 10  8  1  0
 11 10  2  0
 13 12  1  0
 13 14  2  0
 15 13  1  0
 16 15  1  1
 16 17  1  0
 17 10  1  0
 18 20  1  0
 18 16  1  0
 19 18  2  0
M  END
$$$$
