GTN.pdb
     RDKit          3D

 20 19  0  0  1  0  0  0  0  0999 V2000
    9.0158  -15.4177   14.0017 N   0  0  0  0  0  0  0  0  0  0  0  0
    8.3276  -15.5548   15.2705 C   0  0  0  0  0  0  0  0  0  0  0  0
    9.2085  -15.0737   16.3628 C   0  0  0  0  0  0  0  0  0  0  0  0
   10.4494  -14.9555   16.2373 O   0  0  0  0  0  0  0  0  0  0  0  0
    7.8235  -12.3940   19.2134 C   0  0  0  0  0  0  0  0  0  0  0  0
    8.6386  -13.5366   19.7796 C   0  0  1  0  0  0  0  0  0  0  0  0
    7.7703  -14.3946   20.4019 O   0  0  0  0  0  0  0  0  0  0  0  0
    9.4451  -14.1983   18.6852 C   0  0  2  0  0  0  0  0  0  0  0  0
    8.6549  -14.7214   17.6240 N   0  0  0  0  0  0  0  0  0  0  0  0
   10.3689  -15.2172   19.2709 C   0  0  0  0  0  0  0  0  0  0  0  0
   10.1437  -16.4496   19.1637 O   0  0  0  0  0  0  0  0  0  0  0  0
   14.5348  -13.5212   18.5227 N   0  0  0  0  0  0  0  0  0  0  0  0
   14.4372  -14.8309   19.0550 C   0  0  0  0  0  0  0  0  0  0  0  0
   14.8240  -15.7864   18.3224 O   0  0  0  0  0  0  0  0  0  0  0  0
   13.9107  -15.0698   20.4044 C   0  0  0  0  0  0  0  0  0  0  0  0
   12.5568  -15.7065   20.4558 C   0  0  2  0  0  0  0  0  0  0  0  0
   11.5304  -14.7829   19.9660 N   0  0  0  0  0  0  0  0  0  0  0  0
   12.2015  -15.9399   21.8856 C   0  0  0  0  0  0  0  0  0  0  0  0
   11.2702  -15.3056   22.4668 O   0  0  0  0  0  0  0  0  0  0  0  0
   12.8794  -16.8602   22.6284 O   0  0  0  0  0  0  0  0  0  0  0  0
  2  1  1  0
  3  2  1  0
  4  3  2  0
  6  5  1  6
  7  6  1  0
  8  9  1  6
  8  6  1  0
  9  3  1  0
 10  8  1  0
 11 10  2  0
 13 12  1  0
 13 14  2  0
 15 13  1  0
 16 15  1  1
 16 17  1  0
 17 10  1  0
 18 20  1  0
 18 16  1  0
 19 18  2  0
M  END
$$$$
