GTN.pdb
     RDKit          3D

 20 19  0  0  1  0  0  0  0  0999 V2000
    8.7976  -15.0558   15.0786 N   0  0  0  0  0  0  0  0  0  0  0  0
    8.0642  -15.4101   16.2781 C   0  0  0  0  0  0  0  0  0  0  0  0
    8.8439  -14.9988   17.4713 C   0  0  0  0  0  0  0  0  0  0  0  0
   10.0562  -14.6873   17.4205 O   0  0  0  0  0  0  0  0  0  0  0  0
    7.1115  -12.8115   20.4072 C   0  0  0  0  0  0  0  0  0  0  0  0
    7.9680  -13.9243   20.9719 C   0  0  1  0  0  0  0  0  0  0  0  0
    7.1248  -14.8741   21.4858 O   0  0  0  0  0  0  0  0  0  0  0  0
    8.8937  -14.4660   19.9063 C   0  0  2  0  0  0  0  0  0  0  0  0
    8.2204  -14.9440   18.7477 N   0  0  0  0  0  0  0  0  0  0  0  0
    9.8175  -15.4829   20.4954 C   0  0  0  0  0  0  0  0  0  0  0  0
    9.7531  -16.6966   20.1733 O   0  0  0  0  0  0  0  0  0  0  0  0
   15.2022  -16.3166   22.5210 N   0  0  0  0  0  0  0  0  0  0  0  0
   13.9961  -16.0152   23.2013 C   0  0  0  0  0  0  0  0  0  0  0  0
   13.8590  -16.4732   24.3721 O   0  0  0  0  0  0  0  0  0  0  0  0
   12.9479  -15.2014   22.5736 C   0  0  0  0  0  0  0  0  0  0  0  0
   11.8057  -15.9741   21.9908 C   0  0  2  0  0  0  0  0  0  0  0  0
   10.7929  -15.0683   21.4429 N   0  0  0  0  0  0  0  0  0  0  0  0
   11.1098  -16.6908   23.0984 C   0  0  0  0  0  0  0  0  0  0  0  0
   10.1513  -16.1728   23.7469 O   0  0  0  0  0  0  0  0  0  0  0  0
   11.4887  -17.9504   23.4567 O   0  0  0  0  0  0  0  0  0  0  0  0
  2  1  1  0
  3  2  1  0
  4  3  2  0
  6  5  1  6
  7  6  1  0
  8  9  1  6
  8  6  1  0
  9  3  1  0
 10  8  1  0
 11 10  2  0
 13 12  1  0
 13 14  2  0
 15 13  1  0
 16 15  1  1
 16 17  1  0
 17 10  1  0
 18 20  1  0
 18 16  1  0
 19 18  2  0
M  END
$$$$
