GTN.pdb
     RDKit          3D

 20 19  0  0  1  0  0  0  0  0999 V2000
    9.3378  -18.7849   19.4028 N   0  0  0  0  0  0  0  0  0  0  0  0
    8.7565  -19.5007   20.5217 C   0  0  0  0  0  0  0  0  0  0  0  0
    9.0884  -18.7947   21.7835 C   0  0  0  0  0  0  0  0  0  0  0  0
   10.1066  -18.0772   21.9170 O   0  0  0  0  0  0  0  0  0  0  0  0
    7.8758  -16.7770   25.9925 C   0  0  0  0  0  0  0  0  0  0  0  0
    7.3968  -17.5662   24.7932 C   0  0  1  0  0  0  0  0  0  0  0  0
    6.8043  -16.6841   23.9283 O   0  0  0  0  0  0  0  0  0  0  0  0
    8.5470  -18.3255   24.1715 C   0  0  2  0  0  0  0  0  0  0  0  0
    8.2353  -18.9145   22.9145 N   0  0  0  0  0  0  0  0  0  0  0  0
    9.0998  -19.3128   25.1483 C   0  0  0  0  0  0  0  0  0  0  0  0
    8.5146  -20.3992   25.3897 O   0  0  0  0  0  0  0  0  0  0  0  0
   12.5347  -20.8704   24.5400 N   0  0  0  0  0  0  0  0  0  0  0  0
   13.1821  -20.1666   25.5858 C   0  0  0  0  0  0  0  0  0  0  0  0
   14.4186  -19.9366   25.4533 O   0  0  0  0  0  0  0  0  0  0  0  0
   12.4467  -19.7193   26.7751 C   0  0  0  0  0  0  0  0  0  0  0  0
   10.9691  -19.9568   26.7362 C   0  0  2  0  0  0  0  0  0  0  0  0
   10.3168  -19.0170   25.8209 N   0  0  0  0  0  0  0  0  0  0  0  0
   10.4052  -19.6282   28.0775 C   0  0  0  0  0  0  0  0  0  0  0  0
    9.8981  -18.4969   28.3432 O   0  0  0  0  0  0  0  0  0  0  0  0
   10.4167  -20.5511   29.0808 O   0  0  0  0  0  0  0  0  0  0  0  0
  2  1  1  0
  3  2  1  0
  4  3  2  0
  6  5  1  1
  7  6  1  0
  8  9  1  6
  8  6  1  0
  9  3  1  0
 10  8  1  0
 11 10  2  0
 13 12  1  0
 13 14  2  0
 15 13  1  0
 16 15  1  1
 16 17  1  0
 17 10  1  0
 18 20  1  0
 18 16  1  0
 19 18  2  0
M  END
$$$$
