GTN.pdb
     RDKit          3D

 20 19  0  0  1  0  0  0  0  0999 V2000
    8.1939  -14.0592   14.4446 N   0  0  0  0  0  0  0  0  0  0  0  0
    8.0450  -14.9577   15.5728 C   0  0  0  0  0  0  0  0  0  0  0  0
    8.8035  -14.4238   16.7306 C   0  0  0  0  0  0  0  0  0  0  0  0
    9.9480  -13.9252   16.6257 O   0  0  0  0  0  0  0  0  0  0  0  0
    7.0582  -12.8856   20.1932 C   0  0  0  0  0  0  0  0  0  0  0  0
    8.1231  -13.9339   20.4337 C   0  0  1  0  0  0  0  0  0  0  0  0
    7.4889  -15.0864   20.8170 O   0  0  0  0  0  0  0  0  0  0  0  0
    8.9761  -14.1084   19.1977 C   0  0  2  0  0  0  0  0  0  0  0  0
    8.2379  -14.4630   18.0343 N   0  0  0  0  0  0  0  0  0  0  0  0
   10.0995  -15.0542   19.4767 C   0  0  0  0  0  0  0  0  0  0  0  0
   10.1589  -16.1857   18.9316 O   0  0  0  0  0  0  0  0  0  0  0  0
   13.6344  -15.7163   18.2339 N   0  0  0  0  0  0  0  0  0  0  0  0
   14.0891  -14.8077   19.2219 C   0  0  0  0  0  0  0  0  0  0  0  0
   14.9776  -13.9749   18.8808 O   0  0  0  0  0  0  0  0  0  0  0  0
   13.5489  -14.8299   20.5867 C   0  0  0  0  0  0  0  0  0  0  0  0
   12.2419  -15.5432   20.7422 C   0  0  2  0  0  0  0  0  0  0  0  0
   11.1259  -14.6656   20.3802 N   0  0  0  0  0  0  0  0  0  0  0  0
   12.0359  -15.8358   22.1903 C   0  0  0  0  0  0  0  0  0  0  0  0
   12.7538  -16.6663   22.8248 O   0  0  0  0  0  0  0  0  0  0  0  0
   11.0504  -15.2080   22.8924 O   0  0  0  0  0  0  0  0  0  0  0  0
  2  1  1  0
  3  2  1  0
  4  3  2  0
  6  5  1  6
  7  6  1  0
  8  9  1  6
  8  6  1  0
  9  3  1  0
 10  8  1  0
 11 10  2  0
 13 12  1  0
 13 14  2  0
 15 13  1  0
 16 15  1  1
 16 17  1  0
 17 10  1  0
 18 20  1  0
 18 16  1  0
 19 18  2  0
M  END
$$$$
