GTN.pdb
     RDKit          3D

 20 19  0  0  1  0  0  0  0  0999 V2000
    3.5056  -17.9334   20.4706 N   0  0  0  0  0  0  0  0  0  0  0  0
    3.9839  -16.6103   20.8213 C   0  0  0  0  0  0  0  0  0  0  0  0
    5.4674  -16.6061   20.8172 C   0  0  0  0  0  0  0  0  0  0  0  0
    6.1531  -17.6544   20.8350 O   0  0  0  0  0  0  0  0  0  0  0  0
    7.6329  -14.3884   18.5460 C   0  0  0  0  0  0  0  0  0  0  0  0
    8.2016  -14.2640   19.9431 C   0  0  1  0  0  0  0  0  0  0  0  0
    7.9690  -12.9833   20.3711 O   0  0  0  0  0  0  0  0  0  0  0  0
    7.5982  -15.3121   20.8504 C   0  0  2  0  0  0  0  0  0  0  0  0
    6.1780  -15.3751   20.7923 N   0  0  0  0  0  0  0  0  0  0  0  0
    8.1100  -15.1425   22.2446 C   0  0  0  0  0  0  0  0  0  0  0  0
    7.4628  -14.5001   23.1104 O   0  0  0  0  0  0  0  0  0  0  0  0
    6.6289  -16.1941   25.2014 N   0  0  0  0  0  0  0  0  0  0  0  0
    7.9785  -15.9732   25.5730 C   0  0  0  0  0  0  0  0  0  0  0  0
    8.1930  -15.2029   26.5528 O   0  0  0  0  0  0  0  0  0  0  0  0
    9.0843  -16.6151   24.8517 C   0  0  0  0  0  0  0  0  0  0  0  0
    9.8815  -15.7055   23.9694 C   0  0  2  0  0  0  0  0  0  0  0  0
    9.3586  -15.7212   22.6009 N   0  0  0  0  0  0  0  0  0  0  0  0
   11.2622  -16.2576   23.8509 C   0  0  0  0  0  0  0  0  0  0  0  0
   11.6657  -16.8621   22.8120 O   0  0  0  0  0  0  0  0  0  0  0  0
   12.1524  -16.1277   24.8751 O   0  0  0  0  0  0  0  0  0  0  0  0
  2  1  1  0
  3  2  1  0
  4  3  2  0
  6  5  1  6
  7  6  1  0
  8  9  1  1
  8  6  1  0
  9  3  1  0
 10  8  1  0
 11 10  2  0
 13 12  1  0
 13 14  2  0
 15 13  1  0
 16 15  1  1
 16 17  1  0
 17 10  1  0
 18 20  1  0
 18 16  1  0
 19 18  2  0
M  END
$$$$
