VSL.pdb
     RDKit          3D

 22 21  0  0  1  0  0  0  0  0999 V2000
   32.5836  -14.6215  -19.7913 C   0  0  0  0  0  0  0  0  0  0  0  0
   32.5965  -13.1074  -19.6458 C   0  0  2  0  0  0  0  0  0  0  0  0
   33.1445  -12.6933  -18.3213 C   0  0  0  0  0  0  0  0  0  0  0  0
   31.1955  -12.5841  -19.8877 C   0  0  2  0  0  0  0  0  0  0  0  0
   30.6941  -13.0604  -21.1642 N   0  0  0  0  0  0  0  0  0  0  0  0
   31.2413  -11.1160  -19.8152 C   0  0  0  0  0  0  0  0  0  0  0  0
   32.0117  -10.4099  -20.5454 O   0  0  0  0  0  0  0  0  0  0  0  0
   28.2250   -9.1431  -17.6254 O   0  0  0  0  0  0  0  0  0  0  0  0
   28.9229   -8.5103  -18.6442 C   0  0  0  0  0  0  0  0  0  0  0  0
   30.3344   -9.0462  -18.7491 C   0  0  2  0  0  0  0  0  0  0  0  0
   30.3796  -10.4736  -18.8823 N   0  0  0  0  0  0  0  0  0  0  0  0
   31.1850   -8.5689  -17.6294 C   0  0  0  0  0  0  0  0  0  0  0  0
   31.0254   -9.1155  -16.4934 O   0  0  0  0  0  0  0  0  0  0  0  0
   36.5658   -7.9814  -16.0300 C   0  0  0  0  0  0  0  0  0  0  0  0
   35.1970   -7.4772  -15.5553 C   0  0  2  0  0  0  0  0  0  0  0  0
   34.8905   -8.2461  -14.2886 C   0  0  0  0  0  0  0  0  0  0  0  0
   34.2297   -7.8416  -16.6509 C   0  0  0  0  0  0  0  0  0  0  0  0
   32.9081   -7.1230  -16.5684 C   0  0  2  0  0  0  0  0  0  0  0  0
   32.1465   -7.5596  -17.7478 N   0  0  0  0  0  0  0  0  0  0  0  0
   33.0045   -5.6645  -16.5094 C   0  0  0  0  0  0  0  0  0  0  0  0
   32.8402   -4.9525  -17.5402 O   0  0  0  0  0  0  0  0  0  0  0  0
   33.2776   -4.9916  -15.3328 O   0  0  0  0  0  0  0  0  0  0  0  0
  2  3  1  1
  2  1  1  0
  4  2  1  0
  4  5  1  6
  6  4  1  0
  7  6  2  0
  8  9  1  0
 10  9  1  1
 10 12  1  0
 10 11  1  0
 11  6  1  0
 12 19  1  0
 13 12  2  0
 15 14  1  6
 16 15  1  0
 17 15  1  0
 18 17  1  6
 18 20  1  0
 19 18  1  0
 20 22  1  0
 21 20  2  0
M  END
$$$$
