VSL.pdb
     RDKit          3D

 22 21  0  0  1  0  0  0  0  0999 V2000
   20.2489   -9.0603  -19.7361 C   0  0  0  0  0  0  0  0  0  0  0  0
   21.5727   -9.3264  -19.0360 C   0  0  2  0  0  0  0  0  0  0  0  0
   22.3577  -10.3817  -19.7405 C   0  0  0  0  0  0  0  0  0  0  0  0
   21.2953   -9.6739  -17.5877 C   0  0  2  0  0  0  0  0  0  0  0  0
   20.5054  -10.8891  -17.5044 N   0  0  0  0  0  0  0  0  0  0  0  0
   20.6223   -8.5234  -16.9665 C   0  0  0  0  0  0  0  0  0  0  0  0
   19.3546   -8.3907  -16.9455 O   0  0  0  0  0  0  0  0  0  0  0  0
   20.4451   -5.2518  -13.6678 O   0  0  0  0  0  0  0  0  0  0  0  0
   21.0224   -6.3789  -14.2350 C   0  0  0  0  0  0  0  0  0  0  0  0
   20.8812   -6.3609  -15.7417 C   0  0  2  0  0  0  0  0  0  0  0  0
   21.4400   -7.5244  -16.3673 N   0  0  0  0  0  0  0  0  0  0  0  0
   21.4202   -5.1069  -16.3265 C   0  0  0  0  0  0  0  0  0  0  0  0
   22.6746   -5.0368  -16.5167 O   0  0  0  0  0  0  0  0  0  0  0  0
   20.5625   -1.7182  -20.8766 C   0  0  0  0  0  0  0  0  0  0  0  0
   21.3212   -1.6714  -19.5442 C   0  0  2  0  0  0  0  0  0  0  0  0
   22.7675   -1.9603  -19.8824 C   0  0  0  0  0  0  0  0  0  0  0  0
   20.7354   -2.7776  -18.7063 C   0  0  0  0  0  0  0  0  0  0  0  0
   21.2576   -2.8214  -17.2937 C   0  0  2  0  0  0  0  0  0  0  0  0
   20.6358   -4.0035  -16.6790 N   0  0  0  0  0  0  0  0  0  0  0  0
   20.9995   -1.6162  -16.5058 C   0  0  0  0  0  0  0  0  0  0  0  0
   19.9061   -1.4520  -15.8944 O   0  0  0  0  0  0  0  0  0  0  0  0
   21.9302   -0.6005  -16.3876 O   0  0  0  0  0  0  0  0  0  0  0  0
  2  3  1  6
  2  1  1  0
  4  2  1  0
  4  5  1  6
  6  4  1  0
  7  6  2  0
  8  9  1  0
 10  9  1  1
 10 12  1  0
 10 11  1  0
 11  6  1  0
 12 19  1  0
 13 12  2  0
 15 14  1  6
 16 15  1  0
 17 15  1  0
 18 17  1  6
 18 20  1  0
 19 18  1  0
 20 22  1  0
 21 20  2  0
M  END
$$$$
