VSL.pdb
     RDKit          3D

 22 21  0  0  1  0  0  0  0  0999 V2000
   16.3125  -12.2345  -14.8760 C   0  0  0  0  0  0  0  0  0  0  0  0
   15.7512  -12.2221  -16.2897 C   0  0  2  0  0  0  0  0  0  0  0  0
   14.4513  -12.9505  -16.3648 C   0  0  0  0  0  0  0  0  0  0  0  0
   16.7937  -12.7890  -17.2315 C   0  0  2  0  0  0  0  0  0  0  0  0
   17.0556  -14.1809  -16.9128 N   0  0  0  0  0  0  0  0  0  0  0  0
   17.9994  -11.9533  -17.1289 C   0  0  0  0  0  0  0  0  0  0  0  0
   19.0127  -12.2819  -16.4287 O   0  0  0  0  0  0  0  0  0  0  0  0
   20.4805   -8.4366  -19.3001 O   0  0  0  0  0  0  0  0  0  0  0  0
   19.2631   -9.0947  -19.1982 C   0  0  0  0  0  0  0  0  0  0  0  0
   19.1889   -9.9038  -17.9214 C   0  0  2  0  0  0  0  0  0  0  0  0
   18.0165  -10.7270  -17.8512 N   0  0  0  0  0  0  0  0  0  0  0  0
   19.3322   -9.0433  -16.7197 C   0  0  0  0  0  0  0  0  0  0  0  0
   18.2692   -8.6074  -16.1767 O   0  0  0  0  0  0  0  0  0  0  0  0
   20.9905   -9.6313  -12.5251 C   0  0  0  0  0  0  0  0  0  0  0  0
   21.9731   -9.6086  -13.7029 C   0  0  2  0  0  0  0  0  0  0  0  0
   23.3365   -9.8869  -13.1084 C   0  0  0  0  0  0  0  0  0  0  0  0
   21.9060   -8.2101  -14.2585 C   0  0  0  0  0  0  0  0  0  0  0  0
   20.5968   -7.8754  -14.9247 C   0  0  2  0  0  0  0  0  0  0  0  0
   20.5593   -8.6848  -16.1516 N   0  0  0  0  0  0  0  0  0  0  0  0
   20.4030   -6.4557  -15.2198 C   0  0  0  0  0  0  0  0  0  0  0  0
   20.5729   -5.9972  -16.3848 O   0  0  0  0  0  0  0  0  0  0  0  0
   20.0262   -5.5465  -14.2486 O   0  0  0  0  0  0  0  0  0  0  0  0
  2  3  1  1
  2  1  1  0
  4  2  1  0
  4  5  1  1
  6  4  1  0
  7  6  2  0
  8  9  1  0
 10  9  1  6
 10 12  1  0
 10 11  1  0
 11  6  1  0
 12 19  1  0
 13 12  2  0
 15 14  1  1
 16 15  1  0
 17 15  1  0
 18 17  1  6
 18 20  1  0
 19 18  1  0
 20 22  1  0
 21 20  2  0
M  END
$$$$
