VSL.pdb
     RDKit          3D

 22 21  0  0  1  0  0  0  0  0999 V2000
   18.8938   -8.9074  -19.3478 C   0  0  0  0  0  0  0  0  0  0  0  0
   20.0579   -9.8861  -19.3739 C   0  0  2  0  0  0  0  0  0  0  0  0
   20.2104  -10.5136  -20.7189 C   0  0  0  0  0  0  0  0  0  0  0  0
   19.8594  -10.9069  -18.2722 C   0  0  2  0  0  0  0  0  0  0  0  0
   18.6335  -11.6528  -18.4926 N   0  0  0  0  0  0  0  0  0  0  0  0
   19.8581  -10.1922  -16.9870 C   0  0  0  0  0  0  0  0  0  0  0  0
   18.7932   -9.7595  -16.4358 O   0  0  0  0  0  0  0  0  0  0  0  0
   22.1218   -9.2969  -12.8891 O   0  0  0  0  0  0  0  0  0  0  0  0
   22.0778   -9.9952  -14.0874 C   0  0  0  0  0  0  0  0  0  0  0  0
   21.2205   -9.2735  -15.1046 C   0  0  2  0  0  0  0  0  0  0  0  0
   21.1115   -9.9844  -16.3456 N   0  0  0  0  0  0  0  0  0  0  0  0
   21.6742   -7.8743  -15.3078 C   0  0  0  0  0  0  0  0  0  0  0  0
   22.5467   -7.6623  -16.2070 O   0  0  0  0  0  0  0  0  0  0  0  0
   19.6636   -2.5837  -16.2659 C   0  0  0  0  0  0  0  0  0  0  0  0
   20.9692   -3.2319  -15.7878 C   0  0  2  0  0  0  0  0  0  0  0  0
   21.8989   -3.2164  -16.9816 C   0  0  0  0  0  0  0  0  0  0  0  0
   20.6050   -4.6439  -15.4104 C   0  0  0  0  0  0  0  0  0  0  0  0
   21.7433   -5.4362  -14.8219 C   0  0  2  0  0  0  0  0  0  0  0  0
   21.2025   -6.7807  -14.5739 N   0  0  0  0  0  0  0  0  0  0  0  0
   22.3249   -4.8660  -13.6067 C   0  0  0  0  0  0  0  0  0  0  0  0
   22.0645   -5.3437  -12.4664 O   0  0  0  0  0  0  0  0  0  0  0  0
   23.1843   -3.7833  -13.6396 O   0  0  0  0  0  0  0  0  0  0  0  0
  2  3  1  6
  2  1  1  0
  4  2  1  0
  4  5  1  6
  6  4  1  0
  7  6  2  0
  8  9  1  0
 10  9  1  1
 10 12  1  0
 10 11  1  0
 11  6  1  0
 12 19  1  0
 13 12  2  0
 15 14  1  6
 16 15  1  0
 17 15  1  0
 18 17  1  1
 18 20  1  0
 19 18  1  0
 20 22  1  0
 21 20  2  0
M  END
$$$$
