VSL.pdb
     RDKit          3D

 22 21  0  0  1  0  0  0  0  0999 V2000
   24.0232  -31.6919  -10.2684 C   0  0  0  0  0  0  0  0  0  0  0  0
   24.3669  -32.3948   -8.9641 C   0  0  2  0  0  0  0  0  0  0  0  0
   24.5939  -31.4151   -7.8620 C   0  0  0  0  0  0  0  0  0  0  0  0
   25.5610  -33.2973   -9.1984 C   0  0  2  0  0  0  0  0  0  0  0  0
   25.3037  -34.1930  -10.3117 N   0  0  0  0  0  0  0  0  0  0  0  0
   25.8346  -34.0208   -7.9477 C   0  0  0  0  0  0  0  0  0  0  0  0
   25.0226  -34.8642   -7.4432 O   0  0  0  0  0  0  0  0  0  0  0  0
   29.6093  -35.4352   -6.4087 O   0  0  0  0  0  0  0  0  0  0  0  0
   28.9400  -34.3703   -5.8227 C   0  0  0  0  0  0  0  0  0  0  0  0
   27.4530  -34.4493   -6.0928 C   0  0  2  0  0  0  0  0  0  0  0  0
   27.0661  -33.7538   -7.2861 N   0  0  0  0  0  0  0  0  0  0  0  0
   26.6596  -34.0113   -4.9165 C   0  0  0  0  0  0  0  0  0  0  0  0
   26.5634  -32.7624   -4.7023 O   0  0  0  0  0  0  0  0  0  0  0  0
   21.7759  -35.0855   -1.9740 C   0  0  0  0  0  0  0  0  0  0  0  0
   22.9531  -34.1023   -1.9998 C   0  0  2  0  0  0  0  0  0  0  0  0
   22.3558  -32.7519   -2.3308 C   0  0  0  0  0  0  0  0  0  0  0  0
   23.8524  -34.5774   -3.1108 C   0  0  0  0  0  0  0  0  0  0  0  0
   25.3200  -34.3583   -2.8500 C   0  0  2  0  0  0  0  0  0  0  0  0
   26.0147  -34.8846   -4.0342 N   0  0  0  0  0  0  0  0  0  0  0  0
   25.8244  -34.9735   -1.6223 C   0  0  0  0  0  0  0  0  0  0  0  0
   26.2099  -36.1765   -1.6000 O   0  0  0  0  0  0  0  0  0  0  0  0
   25.9065  -34.2778   -0.4301 O   0  0  0  0  0  0  0  0  0  0  0  0
  2  3  1  1
  2  1  1  0
  4  2  1  0
  4  5  1  6
  6  4  1  0
  7  6  2  0
  8  9  1  0
 10  9  1  1
 10 12  1  0
 10 11  1  0
 11  6  1  0
 12 19  1  0
 13 12  2  0
 15 14  1  6
 16 15  1  0
 17 15  1  0
 18 17  1  6
 18 20  1  0
 19 18  1  0
 20 22  1  0
 21 20  2  0
M  END
$$$$
