VSL.pdb
     RDKit          3D

 22 21  0  0  1  0  0  0  0  0999 V2000
   26.6268  -27.0605  -17.0809 C   0  0  0  0  0  0  0  0  0  0  0  0
   27.1017  -25.6667  -16.6994 C   0  0  2  0  0  0  0  0  0  0  0  0
   26.0274  -24.8970  -16.0070 C   0  0  0  0  0  0  0  0  0  0  0  0
   27.6105  -24.9690  -17.9442 C   0  0  2  0  0  0  0  0  0  0  0  0
   26.5049  -24.6499  -18.8293 N   0  0  0  0  0  0  0  0  0  0  0  0
   28.6043  -25.8461  -18.5811 C   0  0  0  0  0  0  0  0  0  0  0  0
   28.3006  -26.7032  -19.4745 O   0  0  0  0  0  0  0  0  0  0  0  0
   32.7233  -25.5242  -17.3997 O   0  0  0  0  0  0  0  0  0  0  0  0
   32.3548  -25.7932  -18.7102 C   0  0  0  0  0  0  0  0  0  0  0  0
   31.0119  -26.4890  -18.7641 C   0  0  2  0  0  0  0  0  0  0  0  0
   29.9602  -25.7168  -18.1684 N   0  0  0  0  0  0  0  0  0  0  0  0
   31.0824  -27.8584  -18.1942 C   0  0  0  0  0  0  0  0  0  0  0  0
   30.7273  -28.0121  -16.9838 O   0  0  0  0  0  0  0  0  0  0  0  0
   29.6242  -31.7539  -16.4323 C   0  0  0  0  0  0  0  0  0  0  0  0
   29.0892  -30.7892  -17.4983 C   0  0  2  0  0  0  0  0  0  0  0  0
   27.7473  -31.3456  -17.9222 C   0  0  0  0  0  0  0  0  0  0  0  0
   30.0780  -30.8517  -18.6329 C   0  0  0  0  0  0  0  0  0  0  0  0
   31.4438  -30.3172  -18.2883 C   0  0  2  0  0  0  0  0  0  0  0  0
   31.5134  -28.9840  -18.9043 N   0  0  0  0  0  0  0  0  0  0  0  0
   32.5597  -31.1595  -18.7191 C   0  0  0  0  0  0  0  0  0  0  0  0
   33.1028  -31.0038  -19.8492 O   0  0  0  0  0  0  0  0  0  0  0  0
   33.0766  -32.1623  -17.9199 O   0  0  0  0  0  0  0  0  0  0  0  0
  2  3  1  6
  2  1  1  0
  4  2  1  0
  4  5  1  6
  6  4  1  0
  7  6  2  0
  8  9  1  0
 10  9  1  1
 10 12  1  0
 10 11  1  0
 11  6  1  0
 12 19  1  0
 13 12  2  0
 15 14  1  1
 16 15  1  0
 17 15  1  0
 18 17  1  6
 18 20  1  0
 19 18  1  0
 20 22  1  0
 21 20  2  0
M  END
$$$$
