VSL.pdb
     RDKit          3D

 22 21  0  0  1  0  0  0  0  0999 V2000
   16.7596  -15.6282  -17.9549 C   0  0  0  0  0  0  0  0  0  0  0  0
   17.6571  -14.4112  -17.7908 C   0  0  2  0  0  0  0  0  0  0  0  0
   17.3103  -13.6420  -16.5603 C   0  0  0  0  0  0  0  0  0  0  0  0
   17.5713  -13.5709  -19.0485 C   0  0  2  0  0  0  0  0  0  0  0  0
   17.8971  -14.3741  -20.2131 N   0  0  0  0  0  0  0  0  0  0  0  0
   18.4751  -12.4219  -18.8884 C   0  0  0  0  0  0  0  0  0  0  0  0
   19.7396  -12.5445  -18.7822 O   0  0  0  0  0  0  0  0  0  0  0  0
   16.8704   -8.4769  -18.2042 O   0  0  0  0  0  0  0  0  0  0  0  0
   17.9273   -8.6782  -19.0804 C   0  0  0  0  0  0  0  0  0  0  0  0
   18.6901   -9.9376  -18.7302 C   0  0  2  0  0  0  0  0  0  0  0  0
   17.8930  -11.1237  -18.8529 N   0  0  0  0  0  0  0  0  0  0  0  0
   19.3276   -9.8366  -17.3929 C   0  0  0  0  0  0  0  0  0  0  0  0
   18.6326  -10.1684  -16.3820 O   0  0  0  0  0  0  0  0  0  0  0  0
   24.5293  -10.5052  -14.6425 C   0  0  0  0  0  0  0  0  0  0  0  0
   23.1767   -9.8110  -14.4382 C   0  0  2  0  0  0  0  0  0  0  0  0
   22.4798  -10.5809  -13.3375 C   0  0  0  0  0  0  0  0  0  0  0  0
   22.4432   -9.9620  -15.7451 C   0  0  0  0  0  0  0  0  0  0  0  0
   21.1397   -9.2093  -15.8092 C   0  0  2  0  0  0  0  0  0  0  0  0
   20.6395   -9.4009  -17.1785 N   0  0  0  0  0  0  0  0  0  0  0  0
   21.2335   -7.7887  -15.4727 C   0  0  0  0  0  0  0  0  0  0  0  0
   21.1061   -7.3853  -14.2822 O   0  0  0  0  0  0  0  0  0  0  0  0
   21.4653   -6.8189  -16.4306 O   0  0  0  0  0  0  0  0  0  0  0  0
  2  3  1  1
  2  1  1  0
  4  2  1  0
  4  5  1  6
  6  4  1  0
  7  6  2  0
  8  9  1  0
 10  9  1  1
 10 12  1  0
 10 11  1  0
 11  6  1  0
 12 19  1  0
 13 12  2  0
 15 14  1  6
 16 15  1  0
 17 15  1  0
 18 17  1  6
 18 20  1  0
 19 18  1  0
 20 22  1  0
 21 20  2  0
M  END
$$$$
