VSL.pdb
     RDKit          3D

 22 21  0  0  1  0  0  0  0  0999 V2000
   17.5062  -23.3479  -15.1673 C   0  0  0  0  0  0  0  0  0  0  0  0
   18.9355  -23.2945  -14.6498 C   0  0  2  0  0  0  0  0  0  0  0  0
   19.7554  -22.3130  -15.4181 C   0  0  0  0  0  0  0  0  0  0  0  0
   19.5167  -24.6932  -14.6823 C   0  0  2  0  0  0  0  0  0  0  0  0
   18.6902  -25.5995  -13.9056 N   0  0  0  0  0  0  0  0  0  0  0  0
   20.8970  -24.6223  -14.1797 C   0  0  0  0  0  0  0  0  0  0  0  0
   21.1781  -24.4846  -12.9439 O   0  0  0  0  0  0  0  0  0  0  0  0
   24.0059  -26.6403  -15.9336 O   0  0  0  0  0  0  0  0  0  0  0  0
   24.2512  -25.2832  -15.7795 C   0  0  0  0  0  0  0  0  0  0  0  0
   23.3313  -24.6803  -14.7400 C   0  0  2  0  0  0  0  0  0  0  0  0
   21.9517  -24.7135  -15.1309 N   0  0  0  0  0  0  0  0  0  0  0  0
   23.7633  -23.3128  -14.3548 C   0  0  0  0  0  0  0  0  0  0  0  0
   22.8678  -22.4994  -13.9659 O   0  0  0  0  0  0  0  0  0  0  0  0
   26.1221  -21.7027   -9.8758 C   0  0  0  0  0  0  0  0  0  0  0  0
   25.9042  -21.0129  -11.2285 C   0  0  2  0  0  0  0  0  0  0  0  0
   24.7268  -20.0828  -11.0325 C   0  0  0  0  0  0  0  0  0  0  0  0
   25.5605  -22.1164  -12.1944 C   0  0  0  0  0  0  0  0  0  0  0  0
   25.4896  -21.6744  -13.6330 C   0  0  2  0  0  0  0  0  0  0  0  0
   25.0888  -22.8671  -14.3936 N   0  0  0  0  0  0  0  0  0  0  0  0
   26.7270  -21.0998  -14.1608 C   0  0  0  0  0  0  0  0  0  0  0  0
   26.8251  -19.8647  -14.4083 O   0  0  0  0  0  0  0  0  0  0  0  0
   27.8469  -21.8701  -14.4146 O   0  0  0  0  0  0  0  0  0  0  0  0
  2  3  1  6
  2  1  1  0
  4  2  1  0
  4  5  1  1
  6  4  1  0
  7  6  2  0
  8  9  1  0
 10  9  1  6
 10 12  1  0
 10 11  1  0
 11  6  1  0
 12 19  1  0
 13 12  2  0
 15 14  1  1
 16 15  1  0
 17 15  1  0
 18 17  1  1
 18 20  1  0
 19 18  1  0
 20 22  1  0
 21 20  2  0
M  END
$$$$
