VSL.pdb
     RDKit          3D

 22 21  0  0  1  0  0  0  0  0999 V2000
   18.9581  -13.9363  -15.4377 C   0  0  0  0  0  0  0  0  0  0  0  0
   17.5174  -13.5534  -15.7398 C   0  0  2  0  0  0  0  0  0  0  0  0
   16.5834  -14.6807  -15.4515 C   0  0  0  0  0  0  0  0  0  0  0  0
   17.4320  -13.0767  -17.1753 C   0  0  2  0  0  0  0  0  0  0  0  0
   17.5975  -14.1943  -18.0871 N   0  0  0  0  0  0  0  0  0  0  0  0
   18.4545  -12.0378  -17.3694 C   0  0  0  0  0  0  0  0  0  0  0  0
   19.6449  -12.2986  -17.7439 O   0  0  0  0  0  0  0  0  0  0  0  0
   17.5651   -7.9715  -16.3146 O   0  0  0  0  0  0  0  0  0  0  0  0
   18.2655   -8.2636  -17.4763 C   0  0  0  0  0  0  0  0  0  0  0  0
   18.9770   -9.5944  -17.3608 C   0  0  2  0  0  0  0  0  0  0  0  0
   18.0789  -10.6872  -17.1235 N   0  0  0  0  0  0  0  0  0  0  0  0
   20.0665   -9.5462  -16.3530 C   0  0  0  0  0  0  0  0  0  0  0  0
   19.7867   -9.9001  -15.1650 O   0  0  0  0  0  0  0  0  0  0  0  0
   26.0519   -9.9043  -16.0533 C   0  0  0  0  0  0  0  0  0  0  0  0
   24.8207   -9.5838  -15.1961 C   0  0  2  0  0  0  0  0  0  0  0  0
   24.7051  -10.7169  -14.1999 C   0  0  0  0  0  0  0  0  0  0  0  0
   23.6535   -9.5860  -16.1482 C   0  0  0  0  0  0  0  0  0  0  0  0
   22.3713   -9.0680  -15.5502 C   0  0  2  0  0  0  0  0  0  0  0  0
   21.3755   -9.1373  -16.6296 N   0  0  0  0  0  0  0  0  0  0  0  0
   22.4551   -7.7185  -14.9917 C   0  0  0  0  0  0  0  0  0  0  0  0
   22.3597   -6.6956  -15.7271 O   0  0  0  0  0  0  0  0  0  0  0  0
   22.6410   -7.4910  -13.6405 O   0  0  0  0  0  0  0  0  0  0  0  0
  2  3  1  6
  2  1  1  0
  4  2  1  0
  4  5  1  6
  6  4  1  0
  7  6  2  0
  8  9  1  0
 10  9  1  1
 10 12  1  0
 10 11  1  0
 11  6  1  0
 12 19  1  0
 13 12  2  0
 15 14  1  6
 16 15  1  0
 17 15  1  0
 18 17  1  6
 18 20  1  0
 19 18  1  0
 20 22  1  0
 21 20  2  0
M  END
$$$$
