VSL.pdb
     RDKit          3D

 22 21  0  0  1  0  0  0  0  0999 V2000
   21.5609   -9.0124  -18.9587 C   0  0  0  0  0  0  0  0  0  0  0  0
   21.9946   -9.9980  -17.8845 C   0  0  2  0  0  0  0  0  0  0  0  0
   22.5470  -11.2475  -18.4842 C   0  0  0  0  0  0  0  0  0  0  0  0
   20.8204  -10.2616  -16.9641 C   0  0  2  0  0  0  0  0  0  0  0  0
   19.7677  -10.9601  -17.6793 N   0  0  0  0  0  0  0  0  0  0  0  0
   20.3700   -8.9704  -16.4230 C   0  0  0  0  0  0  0  0  0  0  0  0
   19.7446   -8.1067  -17.1215 O   0  0  0  0  0  0  0  0  0  0  0  0
   21.0816   -8.0850  -12.2739 O   0  0  0  0  0  0  0  0  0  0  0  0
   19.9365   -7.6724  -12.9403 C   0  0  0  0  0  0  0  0  0  0  0  0
   20.2054   -7.4883  -14.4181 C   0  0  2  0  0  0  0  0  0  0  0  0
   20.6544   -8.6916  -15.0566 N   0  0  0  0  0  0  0  0  0  0  0  0
   21.1289   -6.3527  -14.6686 C   0  0  0  0  0  0  0  0  0  0  0  0
   22.3104   -6.6264  -15.0479 O   0  0  0  0  0  0  0  0  0  0  0  0
   22.5331   -3.1809  -18.5616 C   0  0  0  0  0  0  0  0  0  0  0  0
   22.6492   -2.9600  -17.0480 C   0  0  2  0  0  0  0  0  0  0  0  0
   24.1144   -3.1403  -16.7158 C   0  0  0  0  0  0  0  0  0  0  0  0
   21.8187   -4.0461  -16.4160 C   0  0  0  0  0  0  0  0  0  0  0  0
   21.7186   -3.9493  -14.9159 C   0  0  2  0  0  0  0  0  0  0  0  0
   20.7799   -5.0069  -14.5133 N   0  0  0  0  0  0  0  0  0  0  0  0
   21.2941   -2.6433  -14.4115 C   0  0  0  0  0  0  0  0  0  0  0  0
   20.0778   -2.3014  -14.4136 O   0  0  0  0  0  0  0  0  0  0  0  0
   22.1928   -1.7206  -13.9088 O   0  0  0  0  0  0  0  0  0  0  0  0
  2  3  1  6
  2  1  1  0
  4  2  1  0
  4  5  1  6
  6  4  1  0
  7  6  2  0
  8  9  1  0
 10  9  1  1
 10 12  1  0
 10 11  1  0
 11  6  1  0
 12 19  1  0
 13 12  2  0
 15 14  1  6
 16 15  1  0
 17 15  1  0
 18 17  1  6
 18 20  1  0
 19 18  1  0
 20 22  1  0
 21 20  2  0
M  END
$$$$
