VSL.pdb
     RDKit          3D

 22 21  0  0  1  0  0  0  0  0999 V2000
   17.2963   -8.9363  -18.1119 C   0  0  0  0  0  0  0  0  0  0  0  0
   18.2401  -10.0126  -18.6262 C   0  0  2  0  0  0  0  0  0  0  0  0
   17.6893  -10.6840  -19.8395 C   0  0  0  0  0  0  0  0  0  0  0  0
   18.5279  -10.9848  -17.5006 C   0  0  2  0  0  0  0  0  0  0  0  0
   17.3210  -11.7053  -17.1373 N   0  0  0  0  0  0  0  0  0  0  0  0
   19.0866  -10.2218  -16.3744 C   0  0  0  0  0  0  0  0  0  0  0  0
   18.3618   -9.5798  -15.5451 O   0  0  0  0  0  0  0  0  0  0  0  0
   23.3124  -10.0570  -16.0029 O   0  0  0  0  0  0  0  0  0  0  0  0
   22.5324   -9.9879  -14.8573 C   0  0  0  0  0  0  0  0  0  0  0  0
   21.1460   -9.4709  -15.1753 C   0  0  2  0  0  0  0  0  0  0  0  0
   20.5014  -10.2120  -16.2204 N   0  0  0  0  0  0  0  0  0  0  0  0
   21.1577   -8.0132  -15.4584 C   0  0  0  0  0  0  0  0  0  0  0  0
   20.9929   -7.6455  -16.6635 O   0  0  0  0  0  0  0  0  0  0  0  0
   18.7066   -3.3622  -16.0575 C   0  0  0  0  0  0  0  0  0  0  0  0
   20.1785   -3.6927  -15.7788 C   0  0  2  0  0  0  0  0  0  0  0  0
   20.8982   -3.5155  -17.0981 C   0  0  0  0  0  0  0  0  0  0  0  0
   20.1944   -5.1363  -15.3492 C   0  0  0  0  0  0  0  0  0  0  0  0
   21.5414   -5.6243  -14.8831 C   0  0  2  0  0  0  0  0  0  0  0  0
   21.3382   -7.0249  -14.4848 N   0  0  0  0  0  0  0  0  0  0  0  0
   22.1349   -4.8448  -13.7967 C   0  0  0  0  0  0  0  0  0  0  0  0
   22.7316   -3.7537  -14.0203 O   0  0  0  0  0  0  0  0  0  0  0  0
   22.0751   -5.2554  -12.4778 O   0  0  0  0  0  0  0  0  0  0  0  0
  2  3  1  6
  2  1  1  0
  4  2  1  0
  4  5  1  1
  6  4  1  0
  7  6  2  0
  8  9  1  0
 10  9  1  6
 10 12  1  0
 10 11  1  0
 11  6  1  0
 12 19  1  0
 13 12  2  0
 15 14  1  6
 16 15  1  0
 17 15  1  0
 18 17  1  1
 18 20  1  0
 19 18  1  0
 20 22  1  0
 21 20  2  0
M  END
$$$$
