VSL.pdb
     RDKit          3D

 22 21  0  0  1  0  0  0  0  0999 V2000
   15.7160  -10.0672  -16.7344 C   0  0  0  0  0  0  0  0  0  0  0  0
   16.1944   -9.4050  -18.0174 C   0  0  2  0  0  0  0  0  0  0  0  0
   15.7780  -10.1845  -19.2195 C   0  0  0  0  0  0  0  0  0  0  0  0
   17.6952   -9.2148  -17.9357 C   0  0  2  0  0  0  0  0  0  0  0  0
   18.3579  -10.4987  -17.7943 N   0  0  0  0  0  0  0  0  0  0  0  0
   17.9769   -8.3108  -16.8105 C   0  0  0  0  0  0  0  0  0  0  0  0
   17.4397   -7.1605  -16.6946 O   0  0  0  0  0  0  0  0  0  0  0  0
   20.9022   -9.4662  -13.8855 O   0  0  0  0  0  0  0  0  0  0  0  0
   19.7523   -8.7829  -13.5163 C   0  0  0  0  0  0  0  0  0  0  0  0
   19.2156   -7.9618  -14.6688 C   0  0  2  0  0  0  0  0  0  0  0  0
   18.8925   -8.7582  -15.8170 N   0  0  0  0  0  0  0  0  0  0  0  0
   20.1271   -6.8411  -15.0128 C   0  0  0  0  0  0  0  0  0  0  0  0
   20.9396   -7.0161  -15.9741 O   0  0  0  0  0  0  0  0  0  0  0  0
   20.2563   -0.8876  -15.0565 C   0  0  0  0  0  0  0  0  0  0  0  0
   21.1974   -2.0948  -15.1571 C   0  0  2  0  0  0  0  0  0  0  0  0
   21.6388   -2.1546  -16.6033 C   0  0  0  0  0  0  0  0  0  0  0  0
   20.3567   -3.2934  -14.8032 C   0  0  0  0  0  0  0  0  0  0  0  0
   21.1298   -4.5840  -14.7210 C   0  0  2  0  0  0  0  0  0  0  0  0
   20.1461   -5.6108  -14.3472 N   0  0  0  0  0  0  0  0  0  0  0  0
   22.2578   -4.5661  -13.7896 C   0  0  0  0  0  0  0  0  0  0  0  0
   22.1246   -4.9353  -12.5886 O   0  0  0  0  0  0  0  0  0  0  0  0
   23.5199   -4.1485  -14.1696 O   0  0  0  0  0  0  0  0  0  0  0  0
  2  3  1  6
  2  1  1  0
  4  2  1  0
  4  5  1  1
  6  4  1  0
  7  6  2  0
  8  9  1  0
 10  9  1  1
 10 12  1  0
 10 11  1  0
 11  6  1  0
 12 19  1  0
 13 12  2  0
 15 14  1  6
 16 15  1  0
 17 15  1  0
 18 17  1  1
 18 20  1  0
 19 18  1  0
 20 22  1  0
 21 20  2  0
M  END
$$$$
