VSL.pdb
     RDKit          3D

 22 21  0  0  1  0  0  0  0  0999 V2000
   13.9084  -11.9578  -15.5661 C   0  0  0  0  0  0  0  0  0  0  0  0
   14.3943  -11.2837  -14.2921 C   0  0  2  0  0  0  0  0  0  0  0  0
   14.1304   -9.8155  -14.3193 C   0  0  0  0  0  0  0  0  0  0  0  0
   15.8611  -11.6099  -14.0986 C   0  0  2  0  0  0  0  0  0  0  0  0
   16.0597  -13.0480  -14.0911 N   0  0  0  0  0  0  0  0  0  0  0  0
   16.3055  -10.9753  -12.8487 C   0  0  0  0  0  0  0  0  0  0  0  0
   15.8829  -11.3346  -11.7009 O   0  0  0  0  0  0  0  0  0  0  0  0
   18.9294   -7.5795  -13.0714 O   0  0  0  0  0  0  0  0  0  0  0  0
   18.9932   -8.4635  -12.0038 C   0  0  0  0  0  0  0  0  0  0  0  0
   17.6667   -9.1624  -11.7981 C   0  0  2  0  0  0  0  0  0  0  0  0
   17.2499   -9.9150  -12.9457 N   0  0  0  0  0  0  0  0  0  0  0  0
   16.6148   -8.2168  -11.3460 C   0  0  0  0  0  0  0  0  0  0  0  0
   15.8853   -7.6773  -12.2358 O   0  0  0  0  0  0  0  0  0  0  0  0
   14.0929   -6.2282   -6.1554 C   0  0  0  0  0  0  0  0  0  0  0  0
   14.1315   -5.9855   -7.6696 C   0  0  2  0  0  0  0  0  0  0  0  0
   12.7281   -6.2560   -8.1668 C   0  0  0  0  0  0  0  0  0  0  0  0
   15.0993   -7.0015   -8.2173 C   0  0  0  0  0  0  0  0  0  0  0  0
   15.4471   -6.7990   -9.6692 C   0  0  2  0  0  0  0  0  0  0  0  0
   16.3787   -7.8850  -10.0077 N   0  0  0  0  0  0  0  0  0  0  0  0
   16.0196   -5.4908   -9.9871 C   0  0  0  0  0  0  0  0  0  0  0  0
   15.2840   -4.4928  -10.2304 O   0  0  0  0  0  0  0  0  0  0  0  0
   17.3847   -5.2770  -10.0374 O   0  0  0  0  0  0  0  0  0  0  0  0
  2  3  1  6
  2  1  1  0
  4  2  1  0
  4  5  1  1
  6  4  1  0
  7  6  2  0
  8  9  1  0
 10  9  1  6
 10 12  1  0
 10 11  1  0
 11  6  1  0
 12 19  1  0
 13 12  2  0
 15 14  1  1
 16 15  1  0
 17 15  1  0
 18 17  1  1
 18 20  1  0
 19 18  1  0
 20 22  1  0
 21 20  2  0
M  END
$$$$
