VSL.pdb
     RDKit          3D

 22 21  0  0  1  0  0  0  0  0999 V2000
   18.5287  -14.2297  -15.9684 C   0  0  0  0  0  0  0  0  0  0  0  0
   17.0387  -14.1162  -15.6840 C   0  0  2  0  0  0  0  0  0  0  0  0
   16.4268  -15.4563  -15.4477 C   0  0  0  0  0  0  0  0  0  0  0  0
   16.3818  -13.3673  -16.8254 C   0  0  2  0  0  0  0  0  0  0  0  0
   16.3719  -14.1858  -18.0244 N   0  0  0  0  0  0  0  0  0  0  0  0
   17.1081  -12.1027  -17.0152 C   0  0  0  0  0  0  0  0  0  0  0  0
   18.0391  -11.9606  -17.8744 O   0  0  0  0  0  0  0  0  0  0  0  0
   16.8990   -7.3536  -16.4939 O   0  0  0  0  0  0  0  0  0  0  0  0
   16.3352   -8.5778  -16.1638 C   0  0  0  0  0  0  0  0  0  0  0  0
   17.3293   -9.7025  -16.3567 C   0  0  2  0  0  0  0  0  0  0  0  0
   16.7405  -11.0002  -16.1937 N   0  0  0  0  0  0  0  0  0  0  0  0
   18.5268   -9.5275  -15.4963 C   0  0  0  0  0  0  0  0  0  0  0  0
   18.5978  -10.2244  -14.4361 O   0  0  0  0  0  0  0  0  0  0  0  0
   22.6195   -9.8852  -13.1701 C   0  0  0  0  0  0  0  0  0  0  0  0
   22.9542   -9.8588  -14.6669 C   0  0  2  0  0  0  0  0  0  0  0  0
   23.7725   -8.6047  -14.8848 C   0  0  0  0  0  0  0  0  0  0  0  0
   21.6286   -9.7638  -15.3760 C   0  0  0  0  0  0  0  0  0  0  0  0
   20.7673   -8.6157  -14.9181 C   0  0  2  0  0  0  0  0  0  0  0  0
   19.5763   -8.6469  -15.7797 N   0  0  0  0  0  0  0  0  0  0  0  0
   21.4172   -7.3057  -14.9589 C   0  0  0  0  0  0  0  0  0  0  0  0
   21.3580   -6.5742  -15.9873 O   0  0  0  0  0  0  0  0  0  0  0  0
   22.1247   -6.8010  -13.8835 O   0  0  0  0  0  0  0  0  0  0  0  0
  2  3  1  6
  2  1  1  0
  4  2  1  0
  4  5  1  6
  6  4  1  0
  7  6  2  0
  8  9  1  0
 10  9  1  1
 10 12  1  0
 10 11  1  0
 11  6  1  0
 12 19  1  0
 13 12  2  0
 15 14  1  1
 16 15  1  0
 17 15  1  0
 18 17  1  6
 18 20  1  0
 19 18  1  0
 20 22  1  0
 21 20  2  0
M  END
$$$$
