VSL.pdb
     RDKit          3D

 22 21  0  0  1  0  0  0  0  0999 V2000
   17.5903  -19.3544    2.4082 C   0  0  0  0  0  0  0  0  0  0  0  0
   17.2132  -20.5680    3.2441 C   0  0  2  0  0  0  0  0  0  0  0  0
   17.5636  -21.8391    2.5458 C   0  0  0  0  0  0  0  0  0  0  0  0
   15.7416  -20.4796    3.5928 C   0  0  2  0  0  0  0  0  0  0  0  0
   14.9354  -20.5216    2.3862 N   0  0  0  0  0  0  0  0  0  0  0  0
   15.5321  -19.2459    4.3652 C   0  0  0  0  0  0  0  0  0  0  0  0
   14.7849  -18.2948    3.9625 O   0  0  0  0  0  0  0  0  0  0  0  0
   17.0038  -19.1482    8.3663 O   0  0  0  0  0  0  0  0  0  0  0  0
   15.8226  -18.5376    7.9694 C   0  0  0  0  0  0  0  0  0  0  0  0
   15.9117  -18.0653    6.5344 C   0  0  2  0  0  0  0  0  0  0  0  0
   16.2018  -19.1276    5.6154 N   0  0  0  0  0  0  0  0  0  0  0  0
   16.8629  -16.9342    6.3891 C   0  0  0  0  0  0  0  0  0  0  0  0
   18.0972  -17.2133    6.2730 O   0  0  0  0  0  0  0  0  0  0  0  0
   19.0959  -12.7497    3.8899 C   0  0  0  0  0  0  0  0  0  0  0  0
   18.2418  -14.0238    3.9058 C   0  0  2  0  0  0  0  0  0  0  0  0
   17.5866  -14.0984    2.5438 C   0  0  0  0  0  0  0  0  0  0  0  0
   17.2129  -13.8074    4.9844 C   0  0  0  0  0  0  0  0  0  0  0  0
   17.5077  -14.5352    6.2702 C   0  0  2  0  0  0  0  0  0  0  0  0
   16.4856  -15.5872    6.3722 N   0  0  0  0  0  0  0  0  0  0  0  0
   17.5208  -13.6909    7.4648 C   0  0  0  0  0  0  0  0  0  0  0  0
   18.4150  -12.8160    7.6417 O   0  0  0  0  0  0  0  0  0  0  0  0
   16.5634  -13.8028    8.4561 O   0  0  0  0  0  0  0  0  0  0  0  0
  2  3  1  6
  2  1  1  0
  4  2  1  0
  4  5  1  6
  6  4  1  0
  7  6  2  0
  8  9  1  0
 10  9  1  1
 10 12  1  0
 10 11  1  0
 11  6  1  0
 12 19  1  0
 13 12  2  0
 15 14  1  6
 16 15  1  0
 17 15  1  0
 18 17  1  6
 18 20  1  0
 19 18  1  0
 20 22  1  0
 21 20  2  0
M  END
$$$$
