VSL.pdb
     RDKit          3D

 22 21  0  0  1  0  0  0  0  0999 V2000
   25.6274  -20.0476   -6.4010 C   0  0  0  0  0  0  0  0  0  0  0  0
   25.9702  -20.1241   -7.8809 C   0  0  2  0  0  0  0  0  0  0  0  0
   26.4282  -18.8031   -8.4018 C   0  0  0  0  0  0  0  0  0  0  0  0
   24.7691  -20.6630   -8.6308 C   0  0  2  0  0  0  0  0  0  0  0  0
   24.2478  -21.8426   -7.9642 N   0  0  0  0  0  0  0  0  0  0  0  0
   25.1846  -20.9378  -10.0145 C   0  0  0  0  0  0  0  0  0  0  0  0
   26.2721  -21.5361  -10.3055 O   0  0  0  0  0  0  0  0  0  0  0  0
   22.4409  -21.3988  -13.0461 O   0  0  0  0  0  0  0  0  0  0  0  0
   23.7821  -21.7485  -13.1121 C   0  0  0  0  0  0  0  0  0  0  0  0
   24.6488  -20.7034  -12.4437 C   0  0  2  0  0  0  0  0  0  0  0  0
   24.3207  -20.5091  -11.0610 N   0  0  0  0  0  0  0  0  0  0  0  0
   24.6426  -19.4242  -13.1978 C   0  0  0  0  0  0  0  0  0  0  0  0
   23.8524  -18.5108  -12.8024 O   0  0  0  0  0  0  0  0  0  0  0  0
   26.0040  -16.4222  -17.5524 C   0  0  0  0  0  0  0  0  0  0  0  0
   26.7673  -16.2198  -16.2372 C   0  0  2  0  0  0  0  0  0  0  0  0
   28.1945  -15.9083  -16.6322 C   0  0  0  0  0  0  0  0  0  0  0  0
   26.6867  -17.5395  -15.5156 C   0  0  0  0  0  0  0  0  0  0  0  0
   25.2999  -17.9032  -15.0524 C   0  0  2  0  0  0  0  0  0  0  0  0
   25.4489  -19.1640  -14.3110 N   0  0  0  0  0  0  0  0  0  0  0  0
   24.3089  -18.0302  -16.1210 C   0  0  0  0  0  0  0  0  0  0  0  0
   24.2817  -19.0434  -16.8754 O   0  0  0  0  0  0  0  0  0  0  0  0
   23.3561  -17.0574  -16.3610 O   0  0  0  0  0  0  0  0  0  0  0  0
  2  3  1  6
  2  1  1  0
  4  2  1  0
  4  5  1  1
  6  4  1  0
  7  6  2  0
  8  9  1  0
 10  9  1  6
 10 12  1  0
 10 11  1  0
 11  6  1  0
 12 19  1  0
 13 12  2  0
 15 14  1  6
 16 15  1  0
 17 15  1  0
 18 17  1  6
 18 20  1  0
 19 18  1  0
 20 22  1  0
 21 20  2  0
M  END
$$$$
