ING.pdb
     RDKit          3D

 21 20  0  0  1  0  0  0  0  0999 V2000
    6.5334  -10.8830   26.6846 C   0  0  0  0  0  0  0  0  0  0  0  0
    5.8992  -12.2238   26.2895 C   0  0  0  0  0  0  0  0  0  0  0  0
    7.0015  -13.1533   25.9017 C   0  0  2  0  0  0  0  0  0  0  0  0
    7.9058  -12.5727   24.8395 C   0  0  0  0  0  0  0  0  0  0  0  0
    6.5635  -14.5182   25.4650 C   0  0  2  0  0  0  0  0  0  0  0  0
    5.6990  -15.0311   26.5369 N   0  0  0  0  0  0  0  0  0  0  0  0
    7.7138  -15.4173   25.3363 C   0  0  0  0  0  0  0  0  0  0  0  0
    8.4374  -15.7510   26.3285 O   0  0  0  0  0  0  0  0  0  0  0  0
    6.4593  -18.8797   23.3013 N   0  0  0  0  0  0  0  0  0  0  0  0
    7.7762  -18.7262   23.8182 C   0  0  0  0  0  0  0  0  0  0  0  0
    8.0632  -19.2350   24.9613 O   0  0  0  0  0  0  0  0  0  0  0  0
    8.8111  -17.9916   23.0660 C   0  0  0  0  0  0  0  0  0  0  0  0
    9.2605  -16.7497   23.8520 C   0  0  2  0  0  0  0  0  0  0  0  0
    8.0717  -15.9635   24.0604 N   0  0  0  0  0  0  0  0  0  0  0  0
   10.2526  -15.9948   22.9998 C   0  0  0  0  0  0  0  0  0  0  0  0
    9.8941  -15.2723   22.0340 O   0  0  0  0  0  0  0  0  0  0  0  0
   11.6222  -16.1015   23.2947 N   0  0  0  0  0  0  0  0  0  0  0  0
   12.6752  -15.4701   22.5187 C   0  0  0  0  0  0  0  0  0  0  0  0
   14.0242  -15.7673   23.0466 C   0  0  0  0  0  0  0  0  0  0  0  0
   15.1912  -15.3372   22.4630 O   0  0  0  0  0  0  0  0  0  0  0  0
   14.1571  -16.4564   24.1001 O   0  0  0  0  0  0  0  0  0  0  0  0
  1  2  1  0
  3  2  1  0
  3  5  1  0
  3  4  1  6
  5  6  1  1
  5  7  1  0
  7 14  1  0
  7  8  2  0
 10  9  1  0
 10 12  1  0
 11 10  2  0
 13 12  1  6
 14 13  1  0
 15 13  1  0
 15 17  1  0
 16 15  2  0
 18 17  1  0
 18 19  1  0
 19 20  1  0
 21 19  2  0
M  END
$$$$
