ING.pdb
     RDKit          3D

 21 20  0  0  1  0  0  0  0  0999 V2000
    6.9964  -10.8195   26.6745 C   0  0  0  0  0  0  0  0  0  0  0  0
    6.6137  -12.2948   26.8564 C   0  0  0  0  0  0  0  0  0  0  0  0
    7.0057  -13.0245   25.6142 C   0  0  2  0  0  0  0  0  0  0  0  0
    6.3898  -12.4282   24.3699 C   0  0  0  0  0  0  0  0  0  0  0  0
    6.7338  -14.4980   25.6250 C   0  0  2  0  0  0  0  0  0  0  0  0
    7.3246  -15.0123   26.8684 N   0  0  0  0  0  0  0  0  0  0  0  0
    7.3976  -15.1578   24.4970 C   0  0  0  0  0  0  0  0  0  0  0  0
    6.8926  -15.1929   23.3295 O   0  0  0  0  0  0  0  0  0  0  0  0
    8.3357  -15.9684   20.9730 N   0  0  0  0  0  0  0  0  0  0  0  0
    8.9737  -14.8740   21.6212 C   0  0  0  0  0  0  0  0  0  0  0  0
    8.7520  -13.6816   21.2003 O   0  0  0  0  0  0  0  0  0  0  0  0
    9.8847  -15.0875   22.7618 C   0  0  0  0  0  0  0  0  0  0  0  0
    9.4425  -16.3147   23.5746 C   0  0  2  0  0  0  0  0  0  0  0  0
    8.6664  -15.8008   24.6738 N   0  0  0  0  0  0  0  0  0  0  0  0
   10.6846  -17.0081   24.0812 C   0  0  0  0  0  0  0  0  0  0  0  0
   11.5439  -17.4977   23.3034 O   0  0  0  0  0  0  0  0  0  0  0  0
   10.8891  -17.1099   25.4676 N   0  0  0  0  0  0  0  0  0  0  0  0
   12.0347  -17.7621   26.0774 C   0  0  0  0  0  0  0  0  0  0  0  0
   11.7444  -19.1539   26.4841 C   0  0  0  0  0  0  0  0  0  0  0  0
   12.6088  -19.9413   27.2055 O   0  0  0  0  0  0  0  0  0  0  0  0
   10.6422  -19.6913   26.1701 O   0  0  0  0  0  0  0  0  0  0  0  0
  1  2  1  0
  3  2  1  0
  3  5  1  0
  3  4  1  6
  5  6  1  1
  5  7  1  0
  7 14  1  0
  7  8  2  0
 10  9  1  0
 10 12  1  0
 11 10  2  0
 13 12  1  6
 14 13  1  0
 15 13  1  0
 15 17  1  0
 16 15  2  0
 18 17  1  0
 18 19  1  0
 19 20  1  0
 21 19  2  0
M  END
$$$$
