ING.pdb
     RDKit          3D

 21 20  0  0  1  0  0  0  0  0999 V2000
    8.9233  -12.1847   27.0298 C   0  0  0  0  0  0  0  0  0  0  0  0
    7.8790  -13.3077   26.9648 C   0  0  0  0  0  0  0  0  0  0  0  0
    7.2647  -13.2815   25.6042 C   0  0  2  0  0  0  0  0  0  0  0  0
    6.5282  -11.9924   25.3228 C   0  0  0  0  0  0  0  0  0  0  0  0
    6.3564  -14.4311   25.2900 C   0  0  2  0  0  0  0  0  0  0  0  0
    5.4195  -14.5302   26.4176 N   0  0  0  0  0  0  0  0  0  0  0  0
    7.1119  -15.6847   25.2124 C   0  0  0  0  0  0  0  0  0  0  0  0
    7.3808  -16.3877   26.2385 O   0  0  0  0  0  0  0  0  0  0  0  0
    6.1204  -18.9615   24.7529 N   0  0  0  0  0  0  0  0  0  0  0  0
    6.3177  -18.9697   23.3436 C   0  0  0  0  0  0  0  0  0  0  0  0
    5.5297  -19.6640   22.6053 O   0  0  0  0  0  0  0  0  0  0  0  0
    7.4111  -18.1995   22.7209 C   0  0  0  0  0  0  0  0  0  0  0  0
    8.2194  -17.4567   23.7966 C   0  0  2  0  0  0  0  0  0  0  0  0
    7.5847  -16.1729   23.9504 N   0  0  0  0  0  0  0  0  0  0  0  0
    9.6309  -17.2924   23.2857 C   0  0  0  0  0  0  0  0  0  0  0  0
   10.3507  -18.2766   22.9753 O   0  0  0  0  0  0  0  0  0  0  0  0
   10.1591  -15.9973   23.1513 N   0  0  0  0  0  0  0  0  0  0  0  0
   11.4885  -15.7073   22.6432 C   0  0  0  0  0  0  0  0  0  0  0  0
   12.5416  -15.9130   23.6607 C   0  0  0  0  0  0  0  0  0  0  0  0
   13.8722  -15.6372   23.4581 O   0  0  0  0  0  0  0  0  0  0  0  0
   12.2416  -16.3682   24.8031 O   0  0  0  0  0  0  0  0  0  0  0  0
  1  2  1  0
  3  2  1  0
  3  5  1  0
  3  4  1  1
  5  6  1  1
  5  7  1  0
  7 14  1  0
  7  8  2  0
 10  9  1  0
 10 12  1  0
 11 10  2  0
 13 12  1  6
 14 13  1  0
 15 13  1  0
 15 17  1  0
 16 15  2  0
 18 17  1  0
 18 19  1  0
 19 20  1  0
 21 19  2  0
M  END
$$$$
