ING.pdb
     RDKit          3D

 21 20  0  0  1  0  0  0  0  0999 V2000
    7.5008  -11.6126   26.9341 C   0  0  0  0  0  0  0  0  0  0  0  0
    6.6418  -12.8747   26.7749 C   0  0  0  0  0  0  0  0  0  0  0  0
    7.3295  -13.7752   25.8025 C   0  0  2  0  0  0  0  0  0  0  0  0
    7.6510  -13.0852   24.4971 C   0  0  0  0  0  0  0  0  0  0  0  0
    6.6157  -15.0583   25.5036 C   0  0  2  0  0  0  0  0  0  0  0  0
    6.3756  -15.7031   26.8021 N   0  0  0  0  0  0  0  0  0  0  0  0
    7.4595  -15.9482   24.7009 C   0  0  0  0  0  0  0  0  0  0  0  0
    8.2886  -16.7610   25.2217 O   0  0  0  0  0  0  0  0  0  0  0  0
    8.9004  -18.7289   20.5534 N   0  0  0  0  0  0  0  0  0  0  0  0
    7.7546  -17.9596   20.2066 C   0  0  0  0  0  0  0  0  0  0  0  0
    7.1757  -18.1717   19.0806 O   0  0  0  0  0  0  0  0  0  0  0  0
    7.2263  -16.9241   21.1150 C   0  0  0  0  0  0  0  0  0  0  0  0
    8.0037  -16.9313   22.4408 C   0  0  2  0  0  0  0  0  0  0  0  0
    7.3785  -15.9332   23.2699 N   0  0  0  0  0  0  0  0  0  0  0  0
    9.4345  -16.5520   22.1420 C   0  0  0  0  0  0  0  0  0  0  0  0
   10.1687  -17.2436   21.3899 O   0  0  0  0  0  0  0  0  0  0  0  0
    9.9646  -15.3873   22.7223 N   0  0  0  0  0  0  0  0  0  0  0  0
   11.3575  -14.9879   22.6233 C   0  0  0  0  0  0  0  0  0  0  0  0
   12.2692  -15.9406   23.2926 C   0  0  0  0  0  0  0  0  0  0  0  0
   13.6306  -15.9620   23.1086 O   0  0  0  0  0  0  0  0  0  0  0  0
   11.8083  -16.8056   24.0937 O   0  0  0  0  0  0  0  0  0  0  0  0
  1  2  1  0
  3  2  1  0
  3  5  1  0
  3  4  1  6
  5  6  1  1
  5  7  1  0
  7 14  1  0
  7  8  2  0
 10  9  1  0
 10 12  1  0
 11 10  2  0
 13 12  1  6
 14 13  1  0
 15 13  1  0
 15 17  1  0
 16 15  2  0
 18 17  1  0
 18 19  1  0
 19 20  1  0
 21 19  2  0
M  END
$$$$
