ING.pdb
     RDKit          3D

 21 20  0  0  1  0  0  0  0  0999 V2000
    6.8444  -10.9723   27.0221 C   0  0  0  0  0  0  0  0  0  0  0  0
    7.3507  -12.4202   27.0784 C   0  0  0  0  0  0  0  0  0  0  0  0
    6.9428  -13.0958   25.8110 C   0  0  2  0  0  0  0  0  0  0  0  0
    5.4543  -13.0181   25.5627 C   0  0  0  0  0  0  0  0  0  0  0  0
    7.3770  -14.5239   25.6789 C   0  0  2  0  0  0  0  0  0  0  0  0
    8.7682  -14.5721   26.1498 N   0  0  0  0  0  0  0  0  0  0  0  0
    7.3550  -14.9467   24.2757 C   0  0  0  0  0  0  0  0  0  0  0  0
    6.3144  -15.4235   23.7196 O   0  0  0  0  0  0  0  0  0  0  0  0
    7.2757  -12.2052   20.2465 N   0  0  0  0  0  0  0  0  0  0  0  0
    7.6956  -13.5527   20.4278 C   0  0  0  0  0  0  0  0  0  0  0  0
    7.0679  -14.4915   19.8172 O   0  0  0  0  0  0  0  0  0  0  0  0
    8.8335  -13.8867   21.3054 C   0  0  0  0  0  0  0  0  0  0  0  0
    8.5533  -15.1915   22.0678 C   0  0  2  0  0  0  0  0  0  0  0  0
    8.5307  -14.8357   23.4633 N   0  0  0  0  0  0  0  0  0  0  0  0
    9.6866  -16.1481   21.7829 C   0  0  0  0  0  0  0  0  0  0  0  0
   10.1184  -16.3485   20.6182 O   0  0  0  0  0  0  0  0  0  0  0  0
   10.2802  -16.8374   22.8538 N   0  0  0  0  0  0  0  0  0  0  0  0
   11.3172  -17.8429   22.7020 C   0  0  0  0  0  0  0  0  0  0  0  0
   11.8413  -18.3172   24.0009 C   0  0  0  0  0  0  0  0  0  0  0  0
   12.8960  -19.1875   24.1339 O   0  0  0  0  0  0  0  0  0  0  0  0
   11.3156  -17.9202   25.0818 O   0  0  0  0  0  0  0  0  0  0  0  0
  1  2  1  0
  3  2  1  0
  3  5  1  0
  3  4  1  1
  5  6  1  6
  5  7  1  0
  7 14  1  0
  7  8  2  0
 10  9  1  0
 10 12  1  0
 11 10  2  0
 13 12  1  6
 14 13  1  0
 15 13  1  0
 15 17  1  0
 16 15  2  0
 18 17  1  0
 18 19  1  0
 19 20  1  0
 21 19  2  0
M  END
$$$$
