ING.pdb
     RDKit          3D

 21 20  0  0  1  0  0  0  0  0999 V2000
    7.9097  -12.4934   22.7754 C   0  0  0  0  0  0  0  0  0  0  0  0
    7.6234  -13.8031   22.0280 C   0  0  0  0  0  0  0  0  0  0  0  0
    8.4397  -13.8030   20.7778 C   0  0  2  0  0  0  0  0  0  0  0  0
    8.1205  -12.6347   19.8742 C   0  0  0  0  0  0  0  0  0  0  0  0
    8.3753  -15.0644   19.9716 C   0  0  2  0  0  0  0  0  0  0  0  0
    6.9603  -15.2534   19.6230 N   0  0  0  0  0  0  0  0  0  0  0  0
    8.8065  -16.2150   20.7706 C   0  0  0  0  0  0  0  0  0  0  0  0
    8.0066  -16.8776   21.5057 O   0  0  0  0  0  0  0  0  0  0  0  0
   10.2050  -19.4179   18.3485 N   0  0  0  0  0  0  0  0  0  0  0  0
   10.1881  -19.4051   19.7714 C   0  0  0  0  0  0  0  0  0  0  0  0
    9.2188  -19.9749   20.3910 O   0  0  0  0  0  0  0  0  0  0  0  0
   11.2601  -18.7469   20.5421 C   0  0  0  0  0  0  0  0  0  0  0  0
   10.6599  -17.7452   21.5414 C   0  0  2  0  0  0  0  0  0  0  0  0
   10.1743  -16.6430   20.7515 N   0  0  0  0  0  0  0  0  0  0  0  0
   11.7659  -17.2899   22.4633 C   0  0  0  0  0  0  0  0  0  0  0  0
   12.3106  -18.0651   23.2914 O   0  0  0  0  0  0  0  0  0  0  0  0
   12.2029  -15.9563   22.3944 N   0  0  0  0  0  0  0  0  0  0  0  0
   13.2378  -15.3922   23.2432 C   0  0  0  0  0  0  0  0  0  0  0  0
   14.6000  -15.7180   22.7686 C   0  0  0  0  0  0  0  0  0  0  0  0
   15.7501  -15.2098   23.3222 O   0  0  0  0  0  0  0  0  0  0  0  0
   14.7614  -16.5113   21.7955 O   0  0  0  0  0  0  0  0  0  0  0  0
  1  2  1  0
  3  2  1  0
  3  5  1  0
  3  4  1  6
  5  6  1  1
  5  7  1  0
  7 14  1  0
  7  8  2  0
 10  9  1  0
 10 12  1  0
 11 10  2  0
 13 12  1  6
 14 13  1  0
 15 13  1  0
 15 17  1  0
 16 15  2  0
 18 17  1  0
 18 19  1  0
 19 20  1  0
 21 19  2  0
M  END
$$$$
