ING.pdb
     RDKit          3D

 21 20  0  0  1  0  0  0  0  0999 V2000
    6.6820  -11.6381   27.3052 C   0  0  0  0  0  0  0  0  0  0  0  0
    6.0477  -12.6198   26.3103 C   0  0  0  0  0  0  0  0  0  0  0  0
    7.0748  -13.6468   25.9646 C   0  0  2  0  0  0  0  0  0  0  0  0
    8.3579  -13.0366   25.4501 C   0  0  0  0  0  0  0  0  0  0  0  0
    6.6252  -14.7020   25.0003 C   0  0  2  0  0  0  0  0  0  0  0  0
    5.4335  -15.3194   25.5984 N   0  0  0  0  0  0  0  0  0  0  0  0
    7.6499  -15.7391   24.8492 C   0  0  0  0  0  0  0  0  0  0  0  0
    7.8398  -16.6472   25.7201 O   0  0  0  0  0  0  0  0  0  0  0  0
    8.8611  -14.9086   20.5752 N   0  0  0  0  0  0  0  0  0  0  0  0
    9.0246  -16.2009   21.1482 C   0  0  0  0  0  0  0  0  0  0  0  0
    8.2060  -17.1362   20.8269 O   0  0  0  0  0  0  0  0  0  0  0  0
   10.1127  -16.4803   22.1044 C   0  0  0  0  0  0  0  0  0  0  0  0
    9.5371  -16.7407   23.5055 C   0  0  2  0  0  0  0  0  0  0  0  0
    8.4922  -15.7667   23.6898 N   0  0  0  0  0  0  0  0  0  0  0  0
   10.6446  -16.5265   24.5095 C   0  0  0  0  0  0  0  0  0  0  0  0
   11.1800  -15.4019   24.6879 O   0  0  0  0  0  0  0  0  0  0  0  0
   11.0927  -17.6189   25.2712 N   0  0  0  0  0  0  0  0  0  0  0  0
   12.1166  -17.5323   26.2978 C   0  0  0  0  0  0  0  0  0  0  0  0
   11.7493  -18.2664   27.5278 C   0  0  0  0  0  0  0  0  0  0  0  0
   12.5853  -18.4286   28.6060 O   0  0  0  0  0  0  0  0  0  0  0  0
   10.6030  -18.7923   27.6361 O   0  0  0  0  0  0  0  0  0  0  0  0
  1  2  1  0
  3  2  1  0
  3  5  1  0
  3  4  1  6
  5  6  1  1
  5  7  1  0
  7 14  1  0
  7  8  2  0
 10  9  1  0
 10 12  1  0
 11 10  2  0
 13 12  1  6
 14 13  1  0
 15 13  1  0
 15 17  1  0
 16 15  2  0
 18 17  1  0
 18 19  1  0
 19 20  1  0
 21 19  2  0
M  END
$$$$
