ING.pdb
     RDKit          3D

 21 20  0  0  1  0  0  0  0  0999 V2000
    7.3722  -12.0172   27.5704 C   0  0  0  0  0  0  0  0  0  0  0  0
    6.5151  -13.1438   26.9770 C   0  0  0  0  0  0  0  0  0  0  0  0
    7.3521  -13.8786   25.9827 C   0  0  2  0  0  0  0  0  0  0  0  0
    7.9819  -12.9611   24.9606 C   0  0  0  0  0  0  0  0  0  0  0  0
    6.6581  -14.9944   25.2624 C   0  0  2  0  0  0  0  0  0  0  0  0
    6.1792  -15.9153   26.3025 N   0  0  0  0  0  0  0  0  0  0  0  0
    7.5969  -15.7229   24.4043 C   0  0  0  0  0  0  0  0  0  0  0  0
    8.1599  -16.8047   24.7678 O   0  0  0  0  0  0  0  0  0  0  0  0
    5.8140  -14.6017   20.1459 N   0  0  0  0  0  0  0  0  0  0  0  0
    6.6634  -15.6703   20.5480 C   0  0  0  0  0  0  0  0  0  0  0  0
    6.1553  -16.8319   20.7492 O   0  0  0  0  0  0  0  0  0  0  0  0
    8.1115  -15.4642   20.7399 C   0  0  0  0  0  0  0  0  0  0  0  0
    8.5574  -16.0426   22.0923 C   0  0  2  0  0  0  0  0  0  0  0  0
    7.9206  -15.2311   23.0975 N   0  0  0  0  0  0  0  0  0  0  0  0
   10.0595  -15.9133   22.1799 C   0  0  0  0  0  0  0  0  0  0  0  0
   10.8286  -16.4438   21.3372 O   0  0  0  0  0  0  0  0  0  0  0  0
   10.6180  -15.1754   23.2372 N   0  0  0  0  0  0  0  0  0  0  0  0
   12.0423  -14.9514   23.4123 C   0  0  0  0  0  0  0  0  0  0  0  0
   12.6928  -16.0244   24.1950 C   0  0  0  0  0  0  0  0  0  0  0  0
   13.9509  -15.9264   24.7381 O   0  0  0  0  0  0  0  0  0  0  0  0
   12.0873  -17.1165   24.4021 O   0  0  0  0  0  0  0  0  0  0  0  0
  1  2  1  0
  3  2  1  0
  3  5  1  0
  3  4  1  6
  5  6  1  1
  5  7  1  0
  7 14  1  0
  7  8  2  0
 10  9  1  0
 10 12  1  0
 11 10  2  0
 13 12  1  6
 14 13  1  0
 15 13  1  0
 15 17  1  0
 16 15  2  0
 18 17  1  0
 18 19  1  0
 19 20  1  0
 21 19  2  0
M  END
$$$$
