ING.pdb
     RDKit          3D

 21 20  0  0  1  0  0  0  0  0999 V2000
    6.9625  -10.8845   26.6765 C   0  0  0  0  0  0  0  0  0  0  0  0
    6.1507  -12.0925   26.1890 C   0  0  0  0  0  0  0  0  0  0  0  0
    7.0992  -13.2272   25.9842 C   0  0  2  0  0  0  0  0  0  0  0  0
    8.2240  -12.8819   25.0361 C   0  0  0  0  0  0  0  0  0  0  0  0
    6.4721  -14.5124   25.5365 C   0  0  2  0  0  0  0  0  0  0  0  0
    5.3106  -14.7255   26.4110 N   0  0  0  0  0  0  0  0  0  0  0  0
    7.3962  -15.6348   25.7230 C   0  0  0  0  0  0  0  0  0  0  0  0
    7.8135  -15.9959   26.8696 O   0  0  0  0  0  0  0  0  0  0  0  0
    7.1287  -20.1492   25.5573 N   0  0  0  0  0  0  0  0  0  0  0  0
    7.0260  -19.1705   24.5294 C   0  0  0  0  0  0  0  0  0  0  0  0
    5.8636  -18.7665   24.1637 O   0  0  0  0  0  0  0  0  0  0  0  0
    8.2288  -18.6182   23.8777 C   0  0  0  0  0  0  0  0  0  0  0  0
    8.8089  -17.4683   24.7166 C   0  0  2  0  0  0  0  0  0  0  0  0
    7.8726  -16.3806   24.5955 N   0  0  0  0  0  0  0  0  0  0  0  0
   10.1437  -17.0875   24.1220 C   0  0  0  0  0  0  0  0  0  0  0  0
   11.2161  -17.6481   24.4669 O   0  0  0  0  0  0  0  0  0  0  0  0
   10.1910  -16.0736   23.1504 N   0  0  0  0  0  0  0  0  0  0  0  0
   11.4196  -15.5108   22.6179 C   0  0  0  0  0  0  0  0  0  0  0  0
   12.1271  -16.4457   21.7166 C   0  0  0  0  0  0  0  0  0  0  0  0
   12.6790  -16.0838   20.5116 O   0  0  0  0  0  0  0  0  0  0  0  0
   12.2560  -17.6633   22.0376 O   0  0  0  0  0  0  0  0  0  0  0  0
  1  2  1  0
  3  2  1  0
  3  5  1  0
  3  4  1  6
  5  6  1  1
  5  7  1  0
  7 14  1  0
  7  8  2  0
 10  9  1  0
 10 12  1  0
 11 10  2  0
 13 12  1  6
 14 13  1  0
 15 13  1  0
 15 17  1  0
 16 15  2  0
 18 17  1  0
 18 19  1  0
 19 20  1  0
 21 19  2  0
M  END
$$$$
