ING.pdb
     RDKit          3D

 21 20  0  0  1  0  0  0  0  0999 V2000
    7.4457  -11.8830   20.3709 C   0  0  0  0  0  0  0  0  0  0  0  0
    7.4093  -13.2034   21.1525 C   0  0  0  0  0  0  0  0  0  0  0  0
    8.4001  -14.1302   20.5291 C   0  0  2  0  0  0  0  0  0  0  0  0
    8.0275  -14.5163   19.1166 C   0  0  0  0  0  0  0  0  0  0  0  0
    8.6866  -15.3781   21.3076 C   0  0  2  0  0  0  0  0  0  0  0  0
    7.4165  -16.1134   21.3809 N   0  0  0  0  0  0  0  0  0  0  0  0
    9.1062  -15.0540   22.6741 C   0  0  0  0  0  0  0  0  0  0  0  0
   10.1775  -14.4163   22.9292 O   0  0  0  0  0  0  0  0  0  0  0  0
    7.2087  -12.7371   25.0473 N   0  0  0  0  0  0  0  0  0  0  0  0
    6.6110  -13.8078   25.7694 C   0  0  0  0  0  0  0  0  0  0  0  0
    5.4557  -13.6357   26.3020 O   0  0  0  0  0  0  0  0  0  0  0  0
    7.2969  -15.1055   25.9181 C   0  0  0  0  0  0  0  0  0  0  0  0
    8.6294  -15.0948   25.1523 C   0  0  2  0  0  0  0  0  0  0  0  0
    8.3071  -15.4531   23.7950 N   0  0  0  0  0  0  0  0  0  0  0  0
    9.5311  -16.1339   25.7750 C   0  0  0  0  0  0  0  0  0  0  0  0
    9.9046  -16.0656   26.9746 O   0  0  0  0  0  0  0  0  0  0  0  0
    9.9676  -17.2141   24.9896 N   0  0  0  0  0  0  0  0  0  0  0  0
   10.8046  -18.2944   25.4815 C   0  0  0  0  0  0  0  0  0  0  0  0
   11.6989  -18.8390   24.4372 C   0  0  0  0  0  0  0  0  0  0  0  0
   12.9942  -18.4254   24.2408 O   0  0  0  0  0  0  0  0  0  0  0  0
   11.2856  -19.7446   23.6553 O   0  0  0  0  0  0  0  0  0  0  0  0
  1  2  1  0
  3  2  1  0
  3  5  1  0
  3  4  1  6
  5  6  1  1
  5  7  1  0
  7 14  1  0
  7  8  2  0
 10  9  1  0
 10 12  1  0
 11 10  2  0
 13 12  1  1
 14 13  1  0
 15 13  1  0
 15 17  1  0
 16 15  2  0
 18 17  1  0
 18 19  1  0
 19 20  1  0
 21 19  2  0
M  END
$$$$
