ING.pdb
     RDKit          3D

 21 20  0  0  1  0  0  0  0  0999 V2000
    7.9223  -11.8843   19.9235 C   0  0  0  0  0  0  0  0  0  0  0  0
    7.4539  -13.3450   19.8686 C   0  0  0  0  0  0  0  0  0  0  0  0
    7.8258  -13.9925   21.1615 C   0  0  2  0  0  0  0  0  0  0  0  0
    9.3107  -13.9343   21.4357 C   0  0  0  0  0  0  0  0  0  0  0  0
    7.3633  -15.4084   21.3243 C   0  0  2  0  0  0  0  0  0  0  0  0
    5.9424  -15.4186   20.9495 N   0  0  0  0  0  0  0  0  0  0  0  0
    7.4697  -15.8329   22.7231 C   0  0  0  0  0  0  0  0  0  0  0  0
    6.7405  -15.3452   23.6449 O   0  0  0  0  0  0  0  0  0  0  0  0
    6.3172  -19.5569   23.3611 N   0  0  0  0  0  0  0  0  0  0  0  0
    6.8642  -18.8620   24.4760 C   0  0  0  0  0  0  0  0  0  0  0  0
    6.0724  -18.3935   25.3713 O   0  0  0  0  0  0  0  0  0  0  0  0
    8.3201  -18.6692   24.6165 C   0  0  0  0  0  0  0  0  0  0  0  0
    8.6756  -17.1798   24.4845 C   0  0  2  0  0  0  0  0  0  0  0  0
    8.4200  -16.8338   23.1099 N   0  0  0  0  0  0  0  0  0  0  0  0
   10.1424  -17.0223   24.8068 C   0  0  0  0  0  0  0  0  0  0  0  0
   10.5950  -17.1857   25.9695 O   0  0  0  0  0  0  0  0  0  0  0  0
   11.0330  -16.6827   23.7744 N   0  0  0  0  0  0  0  0  0  0  0  0
   12.4504  -16.4327   23.9693 C   0  0  0  0  0  0  0  0  0  0  0  0
   13.1603  -16.1741   22.6980 C   0  0  0  0  0  0  0  0  0  0  0  0
   14.5011  -15.8879   22.6095 O   0  0  0  0  0  0  0  0  0  0  0  0
   12.5315  -16.2101   21.6000 O   0  0  0  0  0  0  0  0  0  0  0  0
  1  2  1  0
  3  2  1  0
  3  5  1  0
  3  4  1  6
  5  6  1  1
  5  7  1  0
  7 14  1  0
  7  8  2  0
 10  9  1  0
 10 12  1  0
 11 10  2  0
 13 12  1  6
 14 13  1  0
 15 13  1  0
 15 17  1  0
 16 15  2  0
 18 17  1  0
 18 19  1  0
 19 20  1  0
 21 19  2  0
M  END
$$$$
