ING.pdb
     RDKit          3D

 21 20  0  0  1  0  0  0  0  0999 V2000
    7.5891  -11.9392   19.4814 C   0  0  0  0  0  0  0  0  0  0  0  0
    8.3159  -13.0082   18.6538 C   0  0  0  0  0  0  0  0  0  0  0  0
    8.8509  -14.0320   19.5998 C   0  0  2  0  0  0  0  0  0  0  0  0
    9.7599  -13.4361   20.6495 C   0  0  0  0  0  0  0  0  0  0  0  0
    9.5533  -15.1902   18.9588 C   0  0  2  0  0  0  0  0  0  0  0  0
    8.6556  -15.6770   17.9021 N   0  0  0  0  0  0  0  0  0  0  0  0
    9.7539  -16.2754   19.9234 C   0  0  0  0  0  0  0  0  0  0  0  0
    9.0015  -17.3007   19.9682 O   0  0  0  0  0  0  0  0  0  0  0  0
   11.2925  -19.4338   18.2198 N   0  0  0  0  0  0  0  0  0  0  0  0
   11.4118  -19.1567   19.6104 C   0  0  0  0  0  0  0  0  0  0  0  0
   10.8250  -19.9257   20.4545 O   0  0  0  0  0  0  0  0  0  0  0  0
   12.1926  -18.0025   20.0951 C   0  0  0  0  0  0  0  0  0  0  0  0
   11.5238  -17.3901   21.3360 C   0  0  2  0  0  0  0  0  0  0  0  0
   10.8280  -16.2179   20.8708 N   0  0  0  0  0  0  0  0  0  0  0  0
   12.6132  -17.0083   22.3096 C   0  0  0  0  0  0  0  0  0  0  0  0
   13.1142  -17.8361   23.1140 O   0  0  0  0  0  0  0  0  0  0  0  0
   13.0846  -15.6847   22.3180 N   0  0  0  0  0  0  0  0  0  0  0  0
   14.0408  -15.1655   23.2801 C   0  0  0  0  0  0  0  0  0  0  0  0
   15.4412  -15.3393   22.8377 C   0  0  0  0  0  0  0  0  0  0  0  0
   16.5249  -14.7902   23.4793 O   0  0  0  0  0  0  0  0  0  0  0  0
   15.7021  -16.0305   21.8099 O   0  0  0  0  0  0  0  0  0  0  0  0
  1  2  1  0
  3  2  1  0
  3  5  1  0
  3  4  1  1
  5  6  1  6
  5  7  1  0
  7 14  1  0
  7  8  2  0
 10  9  1  0
 10 12  1  0
 11 10  2  0
 13 12  1  6
 14 13  1  0
 15 13  1  0
 15 17  1  0
 16 15  2  0
 18 17  1  0
 18 19  1  0
 19 20  1  0
 21 19  2  0
M  END
$$$$
