ING.pdb
     RDKit          3D

 21 20  0  0  1  0  0  0  0  0999 V2000
    6.9198  -10.8971   26.8218 C   0  0  0  0  0  0  0  0  0  0  0  0
    6.2538  -12.0783   26.1027 C   0  0  0  0  0  0  0  0  0  0  0  0
    7.2544  -13.1832   26.0168 C   0  0  2  0  0  0  0  0  0  0  0  0
    8.5220  -12.7667   25.3076 C   0  0  0  0  0  0  0  0  0  0  0  0
    6.7538  -14.4529   25.3982 C   0  0  2  0  0  0  0  0  0  0  0  0
    5.4458  -14.7178   26.0132 N   0  0  0  0  0  0  0  0  0  0  0  0
    7.6437  -15.5730   25.7172 C   0  0  0  0  0  0  0  0  0  0  0  0
    7.8575  -15.9605   26.9103 O   0  0  0  0  0  0  0  0  0  0  0  0
    7.0813  -19.7115   25.3073 N   0  0  0  0  0  0  0  0  0  0  0  0
    7.4479  -18.8879   24.2063 C   0  0  0  0  0  0  0  0  0  0  0  0
    6.5373  -18.4836   23.3965 O   0  0  0  0  0  0  0  0  0  0  0  0
    8.8520  -18.4961   23.9795 C   0  0  0  0  0  0  0  0  0  0  0  0
    9.2477  -17.3566   24.9320 C   0  0  2  0  0  0  0  0  0  0  0  0
    8.3193  -16.2863   24.6735 N   0  0  0  0  0  0  0  0  0  0  0  0
   10.6555  -16.9319   24.5880 C   0  0  0  0  0  0  0  0  0  0  0  0
   11.6657  -17.5432   25.0227 O   0  0  0  0  0  0  0  0  0  0  0  0
   10.8448  -15.8171   23.7538 N   0  0  0  0  0  0  0  0  0  0  0  0
   12.1416  -15.2402   23.4452 C   0  0  0  0  0  0  0  0  0  0  0  0
   12.8466  -15.9725   22.3712 C   0  0  0  0  0  0  0  0  0  0  0  0
   14.0555  -15.5887   21.8433 O   0  0  0  0  0  0  0  0  0  0  0  0
   12.3406  -17.0240   21.8806 O   0  0  0  0  0  0  0  0  0  0  0  0
  1  2  1  0
  3  2  1  0
  3  5  1  0
  3  4  1  6
  5  6  1  1
  5  7  1  0
  7 14  1  0
  7  8  2  0
 10  9  1  0
 10 12  1  0
 11 10  2  0
 13 12  1  6
 14 13  1  0
 15 13  1  0
 15 17  1  0
 16 15  2  0
 18 17  1  0
 18 19  1  0
 19 20  1  0
 21 19  2  0
M  END
$$$$
