YSF.pdb
     RDKit          3D

 30 31  0  0  1  0  0  0  0  0999 V2000
   24.5856  -26.8122  -17.7207 O   0  0  0  0  0  0  0  0  0  0  0  0
   25.0127  -25.8257  -16.8516 C   0  0  0  0  0  0  0  0  0  0  0  0
   24.2824  -25.5044  -15.7397 C   0  0  0  0  0  0  0  0  0  0  0  0
   24.6932  -24.5291  -14.8695 C   0  0  0  0  0  0  0  0  0  0  0  0
   25.8804  -23.8613  -15.1374 C   0  0  0  0  0  0  0  0  0  0  0  0
   26.2745  -22.8100  -14.1529 C   0  0  0  0  0  0  0  0  0  0  0  0
   25.3472  -21.5925  -14.2606 C   0  0  2  0  0  0  0  0  0  0  0  0
   25.8732  -20.7444  -15.3185 N   0  0  0  0  0  0  0  0  0  0  0  0
   25.4793  -20.8444  -12.9839 C   0  0  0  0  0  0  0  0  0  0  0  0
   26.5045  -20.0894  -12.8923 O   0  0  0  0  0  0  0  0  0  0  0  0
   26.6396  -24.1572  -16.2440 C   0  0  0  0  0  0  0  0  0  0  0  0
   26.1954  -25.1430  -17.0958 C   0  0  0  0  0  0  0  0  0  0  0  0
   22.7058  -20.9804  -10.0523 O   0  0  0  0  0  0  0  0  0  0  0  0
   23.4371  -19.8304  -10.1366 C   0  0  0  0  0  0  0  0  0  0  0  0
   24.8086  -20.1560  -10.7210 C   0  0  2  0  0  0  0  0  0  0  0  0
   24.5551  -20.9342  -11.9181 N   0  0  0  0  0  0  0  0  0  0  0  0
   25.5671  -20.9228   -9.7248 C   0  0  0  0  0  0  0  0  0  0  0  0
   25.6197  -22.1965   -9.7384 O   0  0  0  0  0  0  0  0  0  0  0  0
   26.2715  -20.2332   -8.7081 N   0  0  0  0  0  0  0  0  0  0  0  0
   26.8872  -20.9473   -7.5918 C   0  0  1  0  0  0  0  0  0  0  0  0
   28.3496  -20.5630   -7.5557 C   0  0  0  0  0  0  0  0  0  0  0  0
   28.6697  -19.9013   -6.2795 C   0  0  0  0  0  0  0  0  0  0  0  0
   28.4071  -18.5605   -6.1025 C   0  0  0  0  0  0  0  0  0  0  0  0
   28.6842  -17.9074   -4.9074 C   0  0  0  0  0  0  0  0  0  0  0  0
   29.2431  -18.6007   -3.8401 C   0  0  0  0  0  0  0  0  0  0  0  0
   29.5038  -19.9385   -4.0200 C   0  0  0  0  0  0  0  0  0  0  0  0
   29.2229  -20.5717   -5.2122 C   0  0  0  0  0  0  0  0  0  0  0  0
   26.1838  -20.6899   -6.3332 C   0  0  0  0  0  0  0  0  0  0  0  0
   26.3645  -21.4946   -5.3650 O   0  0  0  0  0  0  0  0  0  0  0  0
   25.3285  -19.6308   -6.1033 O   0  0  0  0  0  0  0  0  0  0  0  0
  2  1  1  0
  2  3  2  0
  4  3  1  0
  5  4  2  0
  6  5  1  0
  7  6  1  0
  7  8  1  6
  9 10  2  0
  9  7  1  0
 11 12  2  0
 11  5  1  0
 12  2  1  0
 13 14  1  0
 15 14  1  1
 15 16  1  0
 16  9  1  0
 17 18  2  0
 17 15  1  0
 19 17  1  0
 20 21  1  1
 20 19  1  0
 22 21  1  0
 22 23  2  0
 24 23  1  0
 25 24  2  0
 26 27  2  0
 26 25  1  0
 27 22  1  0
 28 20  1  0
 29 28  2  0
 30 28  1  0
M  END
$$$$
