YSF.pdb
     RDKit          3D

 30 31  0  0  1  0  0  0  0  0999 V2000
   20.8392  -15.4192  -20.7791 O   0  0  0  0  0  0  0  0  0  0  0  0
   20.8793  -14.2583  -20.0299 C   0  0  0  0  0  0  0  0  0  0  0  0
   20.6250  -14.2803  -18.6854 C   0  0  0  0  0  0  0  0  0  0  0  0
   20.6612  -13.1377  -17.9303 C   0  0  0  0  0  0  0  0  0  0  0  0
   20.9644  -11.9383  -18.5599 C   0  0  0  0  0  0  0  0  0  0  0  0
   20.9884  -10.7290  -17.6842 C   0  0  0  0  0  0  0  0  0  0  0  0
   22.4140  -10.1750  -17.5650 C   0  0  2  0  0  0  0  0  0  0  0  0
   23.1407  -11.0505  -16.6593 N   0  0  0  0  0  0  0  0  0  0  0  0
   22.2999   -8.8487  -16.9054 C   0  0  0  0  0  0  0  0  0  0  0  0
   22.2325   -8.8723  -15.6308 O   0  0  0  0  0  0  0  0  0  0  0  0
   21.2252  -11.8780  -19.9079 C   0  0  0  0  0  0  0  0  0  0  0  0
   21.1798  -13.0462  -20.6344 C   0  0  0  0  0  0  0  0  0  0  0  0
   23.1892   -5.4181  -18.7056 O   0  0  0  0  0  0  0  0  0  0  0  0
   23.2439   -5.4724  -17.3423 C   0  0  0  0  0  0  0  0  0  0  0  0
   22.1394   -6.3964  -16.8375 C   0  0  2  0  0  0  0  0  0  0  0  0
   22.2649   -7.6207  -17.6044 N   0  0  0  0  0  0  0  0  0  0  0  0
   20.8456   -5.7413  -17.0675 C   0  0  0  0  0  0  0  0  0  0  0  0
   20.0819   -6.0590  -18.0375 O   0  0  0  0  0  0  0  0  0  0  0  0
   20.4192   -4.7191  -16.1850 N   0  0  0  0  0  0  0  0  0  0  0  0
   19.1719   -3.9919  -16.4105 C   0  0  1  0  0  0  0  0  0  0  0  0
   18.0440   -4.9990  -16.3736 C   0  0  0  0  0  0  0  0  0  0  0  0
   16.7520   -4.3224  -16.5778 C   0  0  0  0  0  0  0  0  0  0  0  0
   15.8665   -4.1770  -15.5323 C   0  0  0  0  0  0  0  0  0  0  0  0
   14.6447   -3.5327  -15.6864 C   0  0  0  0  0  0  0  0  0  0  0  0
   14.2765   -3.0086  -16.9200 C   0  0  0  0  0  0  0  0  0  0  0  0
   15.1623   -3.1553  -17.9611 C   0  0  0  0  0  0  0  0  0  0  0  0
   16.3708   -3.7973  -17.7917 C   0  0  0  0  0  0  0  0  0  0  0  0
   19.0072   -2.8944  -15.4549 C   0  0  0  0  0  0  0  0  0  0  0  0
   18.0960   -2.0346  -15.6741 O   0  0  0  0  0  0  0  0  0  0  0  0
   19.7677   -2.7105  -14.3174 O   0  0  0  0  0  0  0  0  0  0  0  0
  2  1  1  0
  2  3  2  0
  4  3  1  0
  5  4  2  0
  6  5  1  0
  7  6  1  0
  7  8  1  1
  9 10  2  0
  9  7  1  0
 11 12  2  0
 11  5  1  0
 12  2  1  0
 13 14  1  0
 15 14  1  6
 15 16  1  0
 16  9  1  0
 17 18  2  0
 17 15  1  0
 19 17  1  0
 20 21  1  1
 20 19  1  0
 22 21  1  0
 22 23  2  0
 24 23  1  0
 25 24  2  0
 26 27  2  0
 26 25  1  0
 27 22  1  0
 28 20  1  0
 29 28  2  0
 30 28  1  0
M  END
$$$$
