YSF.pdb
     RDKit          3D

 30 31  0  0  1  0  0  0  0  0999 V2000
   23.6041  -27.4020  -18.3864 O   0  0  0  0  0  0  0  0  0  0  0  0
   24.0441  -26.5561  -17.3857 C   0  0  0  0  0  0  0  0  0  0  0  0
   25.2935  -26.6968  -16.8453 C   0  0  0  0  0  0  0  0  0  0  0  0
   25.7431  -25.8659  -15.8531 C   0  0  0  0  0  0  0  0  0  0  0  0
   24.8983  -24.8631  -15.3970 C   0  0  0  0  0  0  0  0  0  0  0  0
   25.4449  -23.9908  -14.3153 C   0  0  0  0  0  0  0  0  0  0  0  0
   25.5440  -22.5358  -14.7914 C   0  0  2  0  0  0  0  0  0  0  0  0
   26.7077  -22.4461  -15.6590 N   0  0  0  0  0  0  0  0  0  0  0  0
   25.8233  -21.7132  -13.5862 C   0  0  0  0  0  0  0  0  0  0  0  0
   27.0530  -21.4392  -13.3803 O   0  0  0  0  0  0  0  0  0  0  0  0
   23.6373  -24.6920  -15.9160 C   0  0  0  0  0  0  0  0  0  0  0  0
   23.2199  -25.5457  -16.9118 C   0  0  0  0  0  0  0  0  0  0  0  0
   22.9834  -20.5031  -10.9057 O   0  0  0  0  0  0  0  0  0  0  0  0
   23.9523  -19.5974  -11.2305 C   0  0  0  0  0  0  0  0  0  0  0  0
   25.2185  -20.3479  -11.6331 C   0  0  2  0  0  0  0  0  0  0  0  0
   24.8248  -21.2455  -12.7019 N   0  0  0  0  0  0  0  0  0  0  0  0
   25.7148  -21.0818  -10.4623 C   0  0  0  0  0  0  0  0  0  0  0  0
   25.5422  -22.3367  -10.3190 O   0  0  0  0  0  0  0  0  0  0  0  0
   26.4137  -20.3809   -9.4495 N   0  0  0  0  0  0  0  0  0  0  0  0
   26.7698  -21.0248   -8.1870 C   0  0  1  0  0  0  0  0  0  0  0  0
   28.2551  -20.8299   -7.9788 C   0  0  0  0  0  0  0  0  0  0  0  0
   28.5024  -20.1297   -6.7071 C   0  0  0  0  0  0  0  0  0  0  0  0
   28.1998  -18.7920   -6.5756 C   0  0  0  0  0  0  0  0  0  0  0  0
   28.4079  -18.1034   -5.3865 C   0  0  0  0  0  0  0  0  0  0  0  0
   28.9358  -18.7563   -4.2787 C   0  0  0  0  0  0  0  0  0  0  0  0
   29.2366  -20.0910   -4.4131 C   0  0  0  0  0  0  0  0  0  0  0  0
   29.0240  -20.7598   -5.6001 C   0  0  0  0  0  0  0  0  0  0  0  0
   25.9535  -20.5257   -7.0781 C   0  0  0  0  0  0  0  0  0  0  0  0
   25.3908  -19.3922   -7.2051 O   0  0  0  0  0  0  0  0  0  0  0  0
   25.7378  -21.1913   -5.8879 O   0  0  0  0  0  0  0  0  0  0  0  0
  2  1  1  0
  2  3  2  0
  4  3  1  0
  5  4  2  0
  6  5  1  0
  7  6  1  0
  7  8  1  6
  9 10  2  0
  9  7  1  0
 11 12  2  0
 11  5  1  0
 12  2  1  0
 13 14  1  0
 15 14  1  1
 15 16  1  0
 16  9  1  0
 17 18  2  0
 17 15  1  0
 19 17  1  0
 20 21  1  1
 20 19  1  0
 22 21  1  0
 22 23  2  0
 24 23  1  0
 25 24  2  0
 26 27  2  0
 26 25  1  0
 27 22  1  0
 28 20  1  0
 29 28  2  0
 30 28  1  0
M  END
$$$$
