YSF.pdb
     RDKit          3D

 30 31  0  0  1  0  0  0  0  0999 V2000
   19.7472  -24.9205  -17.6042 O   0  0  0  0  0  0  0  0  0  0  0  0
   20.9283  -24.6457  -16.9407 C   0  0  0  0  0  0  0  0  0  0  0  0
   20.9427  -23.8355  -15.8379 C   0  0  0  0  0  0  0  0  0  0  0  0
   22.1056  -23.5544  -15.1702 C   0  0  0  0  0  0  0  0  0  0  0  0
   23.2877  -24.1128  -15.6370 C   0  0  0  0  0  0  0  0  0  0  0  0
   24.5205  -23.7693  -14.8675 C   0  0  0  0  0  0  0  0  0  0  0  0
   25.2282  -22.5593  -15.4909 C   0  0  2  0  0  0  0  0  0  0  0  0
   26.0468  -23.0572  -16.5850 N   0  0  0  0  0  0  0  0  0  0  0  0
   26.1486  -22.0256  -14.4540 C   0  0  0  0  0  0  0  0  0  0  0  0
   27.2660  -22.6333  -14.3450 O   0  0  0  0  0  0  0  0  0  0  0  0
   23.3113  -24.9308  -16.7411 C   0  0  0  0  0  0  0  0  0  0  0  0
   22.1236  -25.1909  -17.3863 C   0  0  0  0  0  0  0  0  0  0  0  0
   25.6468  -18.4798  -12.8253 O   0  0  0  0  0  0  0  0  0  0  0  0
   26.9128  -18.9864  -12.7536 C   0  0  0  0  0  0  0  0  0  0  0  0
   26.8338  -20.5065  -12.6464 C   0  0  2  0  0  0  0  0  0  0  0  0
   25.8464  -20.9224  -13.6237 N   0  0  0  0  0  0  0  0  0  0  0  0
   26.4257  -20.8546  -11.2796 C   0  0  0  0  0  0  0  0  0  0  0  0
   25.2124  -21.0914  -10.9683 O   0  0  0  0  0  0  0  0  0  0  0  0
   27.4073  -20.9350  -10.2620 N   0  0  0  0  0  0  0  0  0  0  0  0
   27.0397  -21.1807   -8.8692 C   0  0  1  0  0  0  0  0  0  0  0  0
   28.3193  -21.2554   -8.0663 C   0  0  0  0  0  0  0  0  0  0  0  0
   28.2146  -20.4115   -6.8640 C   0  0  0  0  0  0  0  0  0  0  0  0
   27.7663  -20.9426   -5.6744 C   0  0  0  0  0  0  0  0  0  0  0  0
   27.6676  -20.1786   -4.5177 C   0  0  0  0  0  0  0  0  0  0  0  0
   28.0244  -18.8352   -4.5294 C   0  0  0  0  0  0  0  0  0  0  0  0
   28.4714  -18.3083   -5.7180 C   0  0  0  0  0  0  0  0  0  0  0  0
   28.5636  -19.0801   -6.8569 C   0  0  0  0  0  0  0  0  0  0  0  0
   26.0970  -20.1748   -8.3747 C   0  0  0  0  0  0  0  0  0  0  0  0
   26.3071  -18.9550   -8.6675 O   0  0  0  0  0  0  0  0  0  0  0  0
   24.9811  -20.4412   -7.6067 O   0  0  0  0  0  0  0  0  0  0  0  0
  2  1  1  0
  2  3  2  0
  4  3  1  0
  5  4  2  0
  6  5  1  0
  7  6  1  0
  7  8  1  6
  9 10  2  0
  9  7  1  0
 11 12  2  0
 11  5  1  0
 12  2  1  0
 13 14  1  0
 15 14  1  1
 15 16  1  0
 16  9  1  0
 17 18  2  0
 17 15  1  0
 19 17  1  0
 20 21  1  1
 20 19  1  0
 22 21  1  0
 22 23  2  0
 24 23  1  0
 25 24  2  0
 26 27  2  0
 26 25  1  0
 27 22  1  0
 28 20  1  0
 29 28  2  0
 30 28  1  0
M  END
$$$$
