YSF.pdb
     RDKit          3D

 30 31  0  0  1  0  0  0  0  0999 V2000
   23.5237  -13.1703  -16.8961 O   0  0  0  0  0  0  0  0  0  0  0  0
   23.7617  -14.3394  -16.1979 C   0  0  0  0  0  0  0  0  0  0  0  0
   22.7679  -15.2617  -16.0121 C   0  0  0  0  0  0  0  0  0  0  0  0
   22.9891  -16.4246  -15.3224 C   0  0  0  0  0  0  0  0  0  0  0  0
   24.2569  -16.6567  -14.8068 C   0  0  0  0  0  0  0  0  0  0  0  0
   24.4353  -17.9407  -14.0656 C   0  0  0  0  0  0  0  0  0  0  0  0
   25.4472  -18.8437  -14.7827 C   0  0  2  0  0  0  0  0  0  0  0  0
   24.7816  -19.3874  -15.9560 N   0  0  0  0  0  0  0  0  0  0  0  0
   25.7282  -19.9780  -13.8653 C   0  0  0  0  0  0  0  0  0  0  0  0
   24.8350  -20.8893  -13.8279 O   0  0  0  0  0  0  0  0  0  0  0  0
   25.2790  -15.7534  -14.9738 C   0  0  0  0  0  0  0  0  0  0  0  0
   25.0197  -14.5960  -15.6723 C   0  0  0  0  0  0  0  0  0  0  0  0
   29.3079  -20.8555  -12.3125 O   0  0  0  0  0  0  0  0  0  0  0  0
   28.3415  -21.8194  -12.3517 C   0  0  0  0  0  0  0  0  0  0  0  0
   26.9814  -21.1686  -12.1171 C   0  0  2  0  0  0  0  0  0  0  0  0
   26.8927  -20.0798  -13.0708 N   0  0  0  0  0  0  0  0  0  0  0  0
   26.9321  -20.6833  -10.7322 C   0  0  0  0  0  0  0  0  0  0  0  0
   27.4695  -19.5842  -10.3739 O   0  0  0  0  0  0  0  0  0  0  0  0
   26.2644  -21.4550   -9.7503 N   0  0  0  0  0  0  0  0  0  0  0  0
   26.5514  -21.2873   -8.3273 C   0  0  1  0  0  0  0  0  0  0  0  0
   27.5246  -20.1375   -8.1909 C   0  0  0  0  0  0  0  0  0  0  0  0
   27.8845  -19.9416   -6.7764 C   0  0  0  0  0  0  0  0  0  0  0  0
   27.3531  -18.8922   -6.0591 C   0  0  0  0  0  0  0  0  0  0  0  0
   27.6607  -18.6853   -4.7196 C   0  0  0  0  0  0  0  0  0  0  0  0
   28.5274  -19.5458   -4.0559 C   0  0  0  0  0  0  0  0  0  0  0  0
   29.0559  -20.5919   -4.7745 C   0  0  0  0  0  0  0  0  0  0  0  0
   28.7404  -20.7834   -6.1031 C   0  0  0  0  0  0  0  0  0  0  0  0
   25.3247  -21.1106   -7.5469 C   0  0  0  0  0  0  0  0  0  0  0  0
   24.3377  -20.5272   -8.0975 O   0  0  0  0  0  0  0  0  0  0  0  0
   25.1442  -21.5310   -6.2443 O   0  0  0  0  0  0  0  0  0  0  0  0
  2  1  1  0
  2  3  2  0
  4  3  1  0
  5  4  2  0
  6  5  1  0
  7  6  1  0
  7  8  1  6
  9 10  2  0
  9  7  1  0
 11 12  2  0
 11  5  1  0
 12  2  1  0
 13 14  1  0
 15 14  1  1
 15 16  1  0
 16  9  1  0
 17 18  2  0
 17 15  1  0
 19 17  1  0
 20 21  1  6
 20 19  1  0
 22 21  1  0
 22 23  2  0
 24 23  1  0
 25 24  2  0
 26 27  2  0
 26 25  1  0
 27 22  1  0
 28 20  1  0
 29 28  2  0
 30 28  1  0
M  END
$$$$
