YSF.pdb
     RDKit          3D

 30 31  0  0  1  0  0  0  0  0999 V2000
   19.2066  -13.2184    2.7583 O   0  0  0  0  0  0  0  0  0  0  0  0
   18.3018  -14.2629    2.7265 C   0  0  0  0  0  0  0  0  0  0  0  0
   18.5669  -15.4009    2.0141 C   0  0  0  0  0  0  0  0  0  0  0  0
   17.6796  -16.4441    1.9735 C   0  0  0  0  0  0  0  0  0  0  0  0
   16.4887  -16.3271    2.6772 C   0  0  0  0  0  0  0  0  0  0  0  0
   15.5637  -17.4964    2.5939 C   0  0  0  0  0  0  0  0  0  0  0  0
   16.1330  -18.6932    3.3666 C   0  0  2  0  0  0  0  0  0  0  0  0
   15.1322  -19.7475    3.3236 N   0  0  0  0  0  0  0  0  0  0  0  0
   16.2632  -18.2612    4.7821 C   0  0  0  0  0  0  0  0  0  0  0  0
   15.1641  -18.0474    5.3952 O   0  0  0  0  0  0  0  0  0  0  0  0
   16.1887  -15.1995    3.4032 C   0  0  0  0  0  0  0  0  0  0  0  0
   17.1042  -14.1717    3.4209 C   0  0  0  0  0  0  0  0  0  0  0  0
   17.9731  -18.2679    8.9845 O   0  0  0  0  0  0  0  0  0  0  0  0
   18.0634  -18.6569    7.6788 C   0  0  0  0  0  0  0  0  0  0  0  0
   17.4907  -17.5552    6.7918 C   0  0  2  0  0  0  0  0  0  0  0  0
   17.5006  -18.0867    5.4426 N   0  0  0  0  0  0  0  0  0  0  0  0
   18.3469  -16.3687    6.9147 C   0  0  0  0  0  0  0  0  0  0  0  0
   19.0484  -15.9291    5.9454 O   0  0  0  0  0  0  0  0  0  0  0  0
   18.4021  -15.6782    8.1499 N   0  0  0  0  0  0  0  0  0  0  0  0
   19.3578  -14.5956    8.3733 C   0  0  1  0  0  0  0  0  0  0  0  0
   19.0492  -13.5019    7.3752 C   0  0  0  0  0  0  0  0  0  0  0  0
   19.9727  -12.3698    7.5603 C   0  0  0  0  0  0  0  0  0  0  0  0
   21.1279  -12.2813    6.8148 C   0  0  0  0  0  0  0  0  0  0  0  0
   22.0149  -11.2205    6.9543 C   0  0  0  0  0  0  0  0  0  0  0  0
   21.7565  -10.2026    7.8650 C   0  0  0  0  0  0  0  0  0  0  0  0
   20.6029  -10.2940    8.6073 C   0  0  0  0  0  0  0  0  0  0  0  0
   19.7331  -11.3532    8.4568 C   0  0  0  0  0  0  0  0  0  0  0  0
   19.3400  -14.1392    9.7648 C   0  0  0  0  0  0  0  0  0  0  0  0
   18.2362  -14.1692   10.3960 O   0  0  0  0  0  0  0  0  0  0  0  0
   20.4366  -13.6729   10.4621 O   0  0  0  0  0  0  0  0  0  0  0  0
  2  1  1  0
  2  3  2  0
  4  3  1  0
  5  4  2  0
  6  5  1  0
  7  6  1  0
  7  8  1  1
  9 10  2  0
  9  7  1  0
 11 12  2  0
 11  5  1  0
 12  2  1  0
 13 14  1  0
 15 14  1  1
 15 16  1  0
 16  9  1  0
 17 18  2  0
 17 15  1  0
 19 17  1  0
 20 21  1  6
 20 19  1  0
 22 21  1  0
 22 23  2  0
 24 23  1  0
 25 24  2  0
 26 27  2  0
 26 25  1  0
 27 22  1  0
 28 20  1  0
 29 28  2  0
 30 28  1  0
M  END
$$$$
