YSF.pdb
     RDKit          3D

 30 31  0  0  1  0  0  0  0  0999 V2000
   20.2197  -16.9873  -17.2127 O   0  0  0  0  0  0  0  0  0  0  0  0
   20.8067  -17.6343  -16.1414 C   0  0  0  0  0  0  0  0  0  0  0  0
   20.0443  -18.1545  -15.1310 C   0  0  0  0  0  0  0  0  0  0  0  0
   20.6121  -18.7982  -14.0632 C   0  0  0  0  0  0  0  0  0  0  0  0
   21.9946  -18.9166  -14.0213 C   0  0  0  0  0  0  0  0  0  0  0  0
   22.5532  -19.6279  -12.8331 C   0  0  0  0  0  0  0  0  0  0  0  0
   23.1902  -20.9600  -13.2495 C   0  0  2  0  0  0  0  0  0  0  0  0
   22.1174  -21.9372  -13.3467 N   0  0  0  0  0  0  0  0  0  0  0  0
   24.0717  -21.3774  -12.1289 C   0  0  0  0  0  0  0  0  0  0  0  0
   23.4839  -21.9476  -11.1497 O   0  0  0  0  0  0  0  0  0  0  0  0
   22.7919  -18.4067  -15.0178 C   0  0  0  0  0  0  0  0  0  0  0  0
   22.1862  -17.7664  -16.0750 C   0  0  0  0  0  0  0  0  0  0  0  0
   28.0565  -20.5914  -12.0051 O   0  0  0  0  0  0  0  0  0  0  0  0
   27.6547  -21.7202  -11.3504 C   0  0  0  0  0  0  0  0  0  0  0  0
   26.2022  -21.5508  -10.9143 C   0  0  2  0  0  0  0  0  0  0  0  0
   25.4706  -21.1757  -12.1089 N   0  0  0  0  0  0  0  0  0  0  0  0
   26.1450  -20.5006   -9.8898 C   0  0  0  0  0  0  0  0  0  0  0  0
   25.4919  -19.4186  -10.0564 O   0  0  0  0  0  0  0  0  0  0  0  0
   26.8350  -20.6862   -8.6671 N   0  0  0  0  0  0  0  0  0  0  0  0
   27.3558  -19.5510   -7.9085 C   0  0  1  0  0  0  0  0  0  0  0  0
   26.5493  -19.4464   -6.6333 C   0  0  0  0  0  0  0  0  0  0  0  0
   27.3553  -19.8926   -5.4844 C   0  0  0  0  0  0  0  0  0  0  0  0
   28.3087  -19.0632   -4.9354 C   0  0  0  0  0  0  0  0  0  0  0  0
   29.0777  -19.4468   -3.8432 C   0  0  0  0  0  0  0  0  0  0  0  0
   28.9033  -20.6988   -3.2651 C   0  0  0  0  0  0  0  0  0  0  0  0
   27.9511  -21.5240   -3.8152 C   0  0  0  0  0  0  0  0  0  0  0  0
   27.1962  -21.1281   -4.8990 C   0  0  0  0  0  0  0  0  0  0  0  0
   28.7975  -19.6707   -7.6804 C   0  0  0  0  0  0  0  0  0  0  0  0
   29.4255  -18.6557   -7.2407 O   0  0  0  0  0  0  0  0  0  0  0  0
   29.5455  -20.8094   -7.9038 O   0  0  0  0  0  0  0  0  0  0  0  0
  2  1  1  0
  2  3  2  0
  4  3  1  0
  5  4  2  0
  6  5  1  0
  7  6  1  0
  7  8  1  1
  9 10  2  0
  9  7  1  0
 11 12  2  0
 11  5  1  0
 12  2  1  0
 13 14  1  0
 15 14  1  6
 15 16  1  0
 16  9  1  0
 17 18  2  0
 17 15  1  0
 19 17  1  0
 20 21  1  1
 20 19  1  0
 22 21  1  0
 22 23  2  0
 24 23  1  0
 25 24  2  0
 26 27  2  0
 26 25  1  0
 27 22  1  0
 28 20  1  0
 29 28  2  0
 30 28  1  0
M  END
$$$$
