YSF.pdb
     RDKit          3D

 30 31  0  0  1  0  0  0  0  0999 V2000
   30.4344  -17.6850  -19.0261 O   0  0  0  0  0  0  0  0  0  0  0  0
   29.7542  -17.7903  -17.8273 C   0  0  0  0  0  0  0  0  0  0  0  0
   29.1250  -16.7060  -17.2787 C   0  0  0  0  0  0  0  0  0  0  0  0
   28.4471  -16.7954  -16.0914 C   0  0  0  0  0  0  0  0  0  0  0  0
   28.4076  -18.0224  -15.4433 C   0  0  0  0  0  0  0  0  0  0  0  0
   27.6540  -18.0561  -14.1546 C   0  0  0  0  0  0  0  0  0  0  0  0
   26.4336  -18.9792  -14.2651 C   0  0  2  0  0  0  0  0  0  0  0  0
   25.4688  -18.3141  -15.1265 N   0  0  0  0  0  0  0  0  0  0  0  0
   25.8370  -19.0579  -12.9068 C   0  0  0  0  0  0  0  0  0  0  0  0
   24.8980  -18.2262  -12.6695 O   0  0  0  0  0  0  0  0  0  0  0  0
   29.0278  -19.1327  -15.9644 C   0  0  0  0  0  0  0  0  0  0  0  0
   29.6993  -19.0049  -17.1591 C   0  0  0  0  0  0  0  0  0  0  0  0
   23.6565  -21.1196   -9.8370 O   0  0  0  0  0  0  0  0  0  0  0  0
   24.1448  -20.4867  -10.9440 C   0  0  0  0  0  0  0  0  0  0  0  0
   25.5522  -19.9786  -10.6450 C   0  0  2  0  0  0  0  0  0  0  0  0
   26.2514  -19.9762  -11.9155 N   0  0  0  0  0  0  0  0  0  0  0  0
   26.1798  -20.8910   -9.6810 C   0  0  0  0  0  0  0  0  0  0  0  0
   26.5325  -22.0760   -9.9917 O   0  0  0  0  0  0  0  0  0  0  0  0
   26.4082  -20.4491   -8.3551 N   0  0  0  0  0  0  0  0  0  0  0  0
   26.9985  -21.3315   -7.3510 C   0  0  1  0  0  0  0  0  0  0  0  0
   28.4478  -20.9312   -7.1876 C   0  0  0  0  0  0  0  0  0  0  0  0
   28.5945  -20.0065   -6.0509 C   0  0  0  0  0  0  0  0  0  0  0  0
   28.5386  -18.6439   -6.2468 C   0  0  0  0  0  0  0  0  0  0  0  0
   28.6601  -17.7432   -5.1953 C   0  0  0  0  0  0  0  0  0  0  0  0
   28.8443  -18.2000   -3.8955 C   0  0  0  0  0  0  0  0  0  0  0  0
   28.8995  -19.5602   -3.7034 C   0  0  0  0  0  0  0  0  0  0  0  0
   28.7772  -20.4407   -4.7575 C   0  0  0  0  0  0  0  0  0  0  0  0
   26.2401  -21.3062   -6.0982 C   0  0  0  0  0  0  0  0  0  0  0  0
   25.3194  -20.4386   -5.9673 O   0  0  0  0  0  0  0  0  0  0  0  0
   26.4413  -22.1579   -5.0304 O   0  0  0  0  0  0  0  0  0  0  0  0
  2  1  1  0
  2  3  2  0
  4  3  1  0
  5  4  2  0
  6  5  1  0
  7  6  1  0
  7  8  1  6
  9 10  2  0
  9  7  1  0
 11 12  2  0
 11  5  1  0
 12  2  1  0
 13 14  1  0
 15 14  1  6
 15 16  1  0
 16  9  1  0
 17 18  2  0
 17 15  1  0
 19 17  1  0
 20 21  1  1
 20 19  1  0
 22 21  1  0
 22 23  2  0
 24 23  1  0
 25 24  2  0
 26 27  2  0
 26 25  1  0
 27 22  1  0
 28 20  1  0
 29 28  2  0
 30 28  1  0
M  END
$$$$
