YSF.pdb
     RDKit          3D

 30 31  0  0  1  0  0  0  0  0999 V2000
   22.2380   -8.4463  -21.3099 O   0  0  0  0  0  0  0  0  0  0  0  0
   21.9615   -9.7333  -20.8880 C   0  0  0  0  0  0  0  0  0  0  0  0
   20.6759  -10.2013  -20.8555 C   0  0  0  0  0  0  0  0  0  0  0  0
   20.3869  -11.4744  -20.4397 C   0  0  0  0  0  0  0  0  0  0  0  0
   21.4348  -12.2953  -20.0458 C   0  0  0  0  0  0  0  0  0  0  0  0
   21.0562  -13.6704  -19.6035 C   0  0  0  0  0  0  0  0  0  0  0  0
   21.7169  -14.7277  -20.4973 C   0  0  2  0  0  0  0  0  0  0  0  0
   21.1205  -14.6069  -21.8182 N   0  0  0  0  0  0  0  0  0  0  0  0
   21.3224  -16.0517  -19.9508 C   0  0  0  0  0  0  0  0  0  0  0  0
   20.1344  -16.4287  -20.2265 O   0  0  0  0  0  0  0  0  0  0  0  0
   22.7380  -11.8594  -20.0653 C   0  0  0  0  0  0  0  0  0  0  0  0
   22.9902  -10.5743  -20.4890 C   0  0  0  0  0  0  0  0  0  0  0  0
   23.4478  -18.2577  -17.1946 O   0  0  0  0  0  0  0  0  0  0  0  0
   22.9063  -18.9323  -18.2511 C   0  0  0  0  0  0  0  0  0  0  0  0
   21.6848  -18.1686  -18.7542 C   0  0  2  0  0  0  0  0  0  0  0  0
   22.1741  -16.8696  -19.1740 N   0  0  0  0  0  0  0  0  0  0  0  0
   20.7216  -18.0561  -17.6517 C   0  0  0  0  0  0  0  0  0  0  0  0
   20.5741  -16.9826  -16.9802 O   0  0  0  0  0  0  0  0  0  0  0  0
   19.9203  -19.1739  -17.3140 N   0  0  0  0  0  0  0  0  0  0  0  0
   18.9334  -19.1044  -16.2386 C   0  0  1  0  0  0  0  0  0  0  0  0
   17.9451  -18.0168  -16.5965 C   0  0  0  0  0  0  0  0  0  0  0  0
   17.0329  -18.4867  -17.6528 C   0  0  0  0  0  0  0  0  0  0  0  0
   15.8674  -19.1454  -17.3274 C   0  0  0  0  0  0  0  0  0  0  0  0
   14.9777  -19.5907  -18.2979 C   0  0  0  0  0  0  0  0  0  0  0  0
   15.2439  -19.3802  -19.6458 C   0  0  0  0  0  0  0  0  0  0  0  0
   16.4077  -18.7226  -19.9671 C   0  0  0  0  0  0  0  0  0  0  0  0
   17.2799  -18.2870  -18.9920 C   0  0  0  0  0  0  0  0  0  0  0  0
   18.3078  -20.4062  -15.9959 C   0  0  0  0  0  0  0  0  0  0  0  0
   17.3967  -20.4826  -15.1117 O   0  0  0  0  0  0  0  0  0  0  0  0
   18.6262  -21.5762  -16.6560 O   0  0  0  0  0  0  0  0  0  0  0  0
  2  1  1  0
  2  3  2  0
  4  3  1  0
  5  4  2  0
  6  5  1  0
  7  6  1  0
  7  8  1  6
  9 10  2  0
  9  7  1  0
 11 12  2  0
 11  5  1  0
 12  2  1  0
 13 14  1  0
 15 14  1  1
 15 16  1  0
 16  9  1  0
 17 18  2  0
 17 15  1  0
 19 17  1  0
 20 21  1  6
 20 19  1  0
 22 21  1  0
 22 23  2  0
 24 23  1  0
 25 24  2  0
 26 27  2  0
 26 25  1  0
 27 22  1  0
 28 20  1  0
 29 28  2  0
 30 28  1  0
M  END
$$$$
