NEP.pdb
     RDKit          3D

 25 25  0  0  1  0  0  0  0  0999 V2000
   33.8754  -26.2388  -15.3522 N   0  0  0  0  0  0  0  0  0  0  0  0
   32.8615  -25.5708  -14.6400 C   0  0  0  0  0  0  0  0  0  0  0  0
   33.0437  -25.2831  -13.4252 O   0  0  0  0  0  0  0  0  0  0  0  0
   31.5676  -25.1810  -15.2553 C   0  0  0  0  0  0  0  0  0  0  0  0
   31.5361  -25.4982  -16.7307 C   0  0  2  0  0  0  0  0  0  0  0  0
   32.4332  -24.6495  -17.4673 N   0  0  0  0  0  0  0  0  0  0  0  0
   30.1799  -25.4739  -17.2896 C   0  0  0  0  0  0  0  0  0  0  0  0
   29.7206  -26.5384  -17.7965 O   0  0  0  0  0  0  0  0  0  0  0  0
   29.3532  -24.3401  -17.2988 N   0  0  0  0  0  0  0  0  0  0  0  0
   28.0967  -24.3296  -18.0516 C   0  0  1  0  0  0  0  0  0  0  0  0
   27.1341  -23.5716  -17.1561 C   0  0  0  0  0  0  0  0  0  0  0  0
   25.7747  -23.6498  -17.8203 C   0  0  0  0  0  0  0  0  0  0  0  0
   24.7650  -22.8447  -17.0517 C   0  0  0  0  0  0  0  0  0  0  0  0
   24.2630  -23.3088  -15.9959 O   0  0  0  0  0  0  0  0  0  0  0  0
   28.2688  -23.6364  -19.3757 C   0  0  0  0  0  0  0  0  0  0  0  0
   28.6379  -22.4452  -19.2868 O   0  0  0  0  0  0  0  0  0  0  0  0
   24.4214  -21.6058  -17.5420 O   0  0  0  0  0  0  0  0  0  0  0  0
   28.0440  -24.2451  -20.5989 N   0  0  0  0  0  0  0  0  0  0  0  0
   27.9501  -25.7162  -20.7394 C   0  0  0  0  0  0  0  0  0  0  0  0
   26.8441  -25.8770  -21.7498 C   0  0  0  0  0  0  0  0  0  0  0  0
   26.6262  -24.5230  -22.3697 C   0  0  0  0  0  0  0  0  0  0  0  0
   27.9267  -23.7814  -21.9259 C   0  0  1  0  0  0  0  0  0  0  0  0
   27.8031  -22.3708  -22.2117 C   0  0  0  0  0  0  0  0  0  0  0  0
   27.1164  -21.6634  -21.3891 O   0  0  0  0  0  0  0  0  0  0  0  0
   28.3397  -21.6924  -23.2664 O   0  0  0  0  0  0  0  0  0  0  0  0
  1  2  1  0
  2  3  2  0
  4  5  1  0
  4  2  1  0
  5  6  1  6
  7  5  1  0
  8  7  2  0
  9  7  1  0
 10 11  1  1
 10  9  1  0
 11 12  1  0
 12 13  1  0
 13 17  1  0
 14 13  2  0
 15 10  1  0
 16 15  2  0
 18 15  1  0
 18 22  1  0
 19 20  1  0
 19 18  1  0
 20 21  1  0
 21 22  1  0
 22 23  1  1
 23 25  1  0
 24 23  2  0
M  END
$$$$
