NEP.pdb
     RDKit          3D

 25 25  0  0  1  0  0  0  0  0999 V2000
   16.1745  -19.2230  -14.5158 N   0  0  0  0  0  0  0  0  0  0  0  0
   17.5805  -19.1622  -14.5514 C   0  0  0  0  0  0  0  0  0  0  0  0
   18.1461  -18.3472  -15.3308 O   0  0  0  0  0  0  0  0  0  0  0  0
   18.4458  -20.0220  -13.7047 C   0  0  0  0  0  0  0  0  0  0  0  0
   19.4518  -20.7841  -14.5326 C   0  0  2  0  0  0  0  0  0  0  0  0
   18.8214  -21.8354  -15.2843 N   0  0  0  0  0  0  0  0  0  0  0  0
   20.5811  -21.2822  -13.7397 C   0  0  0  0  0  0  0  0  0  0  0  0
   20.3326  -21.9783  -12.7126 O   0  0  0  0  0  0  0  0  0  0  0  0
   21.9278  -21.0358  -14.0477 N   0  0  0  0  0  0  0  0  0  0  0  0
   23.0040  -21.6865  -13.2967 C   0  0  1  0  0  0  0  0  0  0  0  0
   22.8539  -23.1587  -13.6335 C   0  0  0  0  0  0  0  0  0  0  0  0
   23.7942  -23.4347  -14.7889 C   0  0  0  0  0  0  0  0  0  0  0  0
   24.0849  -24.9056  -14.8924 C   0  0  0  0  0  0  0  0  0  0  0  0
   23.1983  -25.6936  -15.3108 O   0  0  0  0  0  0  0  0  0  0  0  0
   24.3491  -21.1649  -13.7234 C   0  0  0  0  0  0  0  0  0  0  0  0
   24.4749  -21.0209  -14.9589 O   0  0  0  0  0  0  0  0  0  0  0  0
   25.3347  -25.3427  -14.5181 O   0  0  0  0  0  0  0  0  0  0  0  0
   25.3735  -20.8634  -12.8419 N   0  0  0  0  0  0  0  0  0  0  0  0
   25.1568  -20.7953  -11.3787 C   0  0  0  0  0  0  0  0  0  0  0  0
   26.4158  -21.4180  -10.8336 C   0  0  0  0  0  0  0  0  0  0  0  0
   27.3969  -21.4751  -11.9733 C   0  0  0  0  0  0  0  0  0  0  0  0
   26.7275  -20.4968  -12.9897 C   0  0  1  0  0  0  0  0  0  0  0  0
   27.3892  -20.5985  -14.2698 C   0  0  0  0  0  0  0  0  0  0  0  0
   27.1021  -21.6152  -14.9995 O   0  0  0  0  0  0  0  0  0  0  0  0
   28.2940  -19.7278  -14.8025 O   0  0  0  0  0  0  0  0  0  0  0  0
  1  2  1  0
  2  3  2  0
  4  5  1  0
  4  2  1  0
  5  6  1  1
  7  5  1  0
  8  7  2  0
  9  7  1  0
 10 11  1  6
 10  9  1  0
 11 12  1  0
 12 13  1  0
 13 17  1  0
 14 13  2  0
 15 10  1  0
 16 15  2  0
 18 15  1  0
 18 22  1  0
 19 20  1  0
 19 18  1  0
 20 21  1  0
 21 22  1  0
 22 23  1  6
 23 25  1  0
 24 23  2  0
M  END
$$$$
