NEP.pdb
     RDKit          3D

 25 25  0  0  1  0  0  0  0  0999 V2000
   20.7473  -14.2775  -16.4563 N   0  0  0  0  0  0  0  0  0  0  0  0
   20.2040  -13.9036  -17.6999 C   0  0  0  0  0  0  0  0  0  0  0  0
   20.2568  -14.7115  -18.6675 O   0  0  0  0  0  0  0  0  0  0  0  0
   19.5615  -12.5857  -17.9350 C   0  0  0  0  0  0  0  0  0  0  0  0
   19.4223  -11.7992  -16.6542 C   0  0  2  0  0  0  0  0  0  0  0  0
   18.3788  -12.3349  -15.8225 N   0  0  0  0  0  0  0  0  0  0  0  0
   19.2513  -10.3606  -16.8852 C   0  0  0  0  0  0  0  0  0  0  0  0
   18.3938   -9.9874  -17.7377 O   0  0  0  0  0  0  0  0  0  0  0  0
   19.9810   -9.3647  -16.2185 N   0  0  0  0  0  0  0  0  0  0  0  0
   19.6288   -7.9500  -16.3599 C   0  0  1  0  0  0  0  0  0  0  0  0
   18.2679   -7.8384  -15.6975 C   0  0  0  0  0  0  0  0  0  0  0  0
   17.8331   -6.3947  -15.8459 C   0  0  0  0  0  0  0  0  0  0  0  0
   16.8318   -6.0337  -14.7849 C   0  0  0  0  0  0  0  0  0  0  0  0
   16.4994   -4.8323  -14.6170 O   0  0  0  0  0  0  0  0  0  0  0  0
   20.6411   -7.0726  -15.6751 C   0  0  0  0  0  0  0  0  0  0  0  0
   20.7234   -7.2520  -14.4406 O   0  0  0  0  0  0  0  0  0  0  0  0
   16.3065   -7.0516  -14.0225 O   0  0  0  0  0  0  0  0  0  0  0  0
   21.4248   -6.1409  -16.3347 N   0  0  0  0  0  0  0  0  0  0  0  0
   21.5470   -6.1201  -17.8102 C   0  0  0  0  0  0  0  0  0  0  0  0
   21.5552   -4.6447  -18.1156 C   0  0  0  0  0  0  0  0  0  0  0  0
   21.7898   -3.9353  -16.8092 C   0  0  0  0  0  0  0  0  0  0  0  0
   22.2977   -5.1137  -15.9194 C   0  0  1  0  0  0  0  0  0  0  0  0
   22.3464   -4.6934  -14.5382 C   0  0  0  0  0  0  0  0  0  0  0  0
   23.3998   -4.0692  -14.1515 O   0  0  0  0  0  0  0  0  0  0  0  0
   21.3903   -4.8826  -13.5839 O   0  0  0  0  0  0  0  0  0  0  0  0
  1  2  1  0
  2  3  2  0
  4  5  1  0
  4  2  1  0
  5  6  1  6
  7  5  1  0
  8  7  2  0
  9  7  1  0
 10 11  1  1
 10  9  1  0
 11 12  1  0
 12 13  1  0
 13 17  1  0
 14 13  2  0
 15 10  1  0
 16 15  2  0
 18 15  1  0
 18 22  1  0
 19 20  1  0
 19 18  1  0
 20 21  1  0
 21 22  1  0
 22 23  1  1
 23 25  1  0
 24 23  2  0
M  END
$$$$
