NEP.pdb
     RDKit          3D

 25 25  0  0  1  0  0  0  0  0999 V2000
   12.7296  -10.8121  -10.5710 N   0  0  0  0  0  0  0  0  0  0  0  0
   12.7336  -11.6633  -11.6922 C   0  0  0  0  0  0  0  0  0  0  0  0
   11.7499  -12.4269  -11.8942 O   0  0  0  0  0  0  0  0  0  0  0  0
   13.8545  -11.7091  -12.6649 C   0  0  0  0  0  0  0  0  0  0  0  0
   14.8830  -10.6423  -12.3779 C   0  0  2  0  0  0  0  0  0  0  0  0
   14.2985   -9.3291  -12.4141 N   0  0  0  0  0  0  0  0  0  0  0  0
   16.0612  -10.7389  -13.2467 C   0  0  0  0  0  0  0  0  0  0  0  0
   16.2346  -11.8048  -13.9064 O   0  0  0  0  0  0  0  0  0  0  0  0
   17.0148   -9.7203  -13.3951 N   0  0  0  0  0  0  0  0  0  0  0  0
   18.0207   -9.7786  -14.4582 C   0  0  1  0  0  0  0  0  0  0  0  0
   17.2060   -9.8687  -15.7354 C   0  0  0  0  0  0  0  0  0  0  0  0
   17.2102  -11.3265  -16.1476 C   0  0  0  0  0  0  0  0  0  0  0  0
   16.5096  -11.5040  -17.4653 C   0  0  0  0  0  0  0  0  0  0  0  0
   17.0419  -11.0786  -18.5226 O   0  0  0  0  0  0  0  0  0  0  0  0
   18.8845   -8.5467  -14.4494 C   0  0  0  0  0  0  0  0  0  0  0  0
   18.2544   -7.4776  -14.6006 O   0  0  0  0  0  0  0  0  0  0  0  0
   15.2884  -12.1378  -17.4648 O   0  0  0  0  0  0  0  0  0  0  0  0
   20.2596   -8.5712  -14.2889 N   0  0  0  0  0  0  0  0  0  0  0  0
   20.9694   -9.7627  -13.7703 C   0  0  0  0  0  0  0  0  0  0  0  0
   22.2180   -9.7906  -14.6130 C   0  0  0  0  0  0  0  0  0  0  0  0
   22.3089   -8.4513  -15.2934 C   0  0  0  0  0  0  0  0  0  0  0  0
   21.2897   -7.6212  -14.4506 C   0  0  1  0  0  0  0  0  0  0  0  0
   21.0380   -6.3561  -15.1009 C   0  0  0  0  0  0  0  0  0  0  0  0
   21.5169   -5.3037  -14.5425 O   0  0  0  0  0  0  0  0  0  0  0  0
   20.3437   -6.1458  -16.2561 O   0  0  0  0  0  0  0  0  0  0  0  0
  1  2  1  0
  2  3  2  0
  4  5  1  0
  4  2  1  0
  5  6  1  6
  7  5  1  0
  8  7  2  0
  9  7  1  0
 10 11  1  6
 10  9  1  0
 11 12  1  0
 12 13  1  0
 13 17  1  0
 14 13  2  0
 15 10  1  0
 16 15  2  0
 18 15  1  0
 18 22  1  0
 19 20  1  0
 19 18  1  0
 20 21  1  0
 21 22  1  0
 22 23  1  6
 23 25  1  0
 24 23  2  0
M  END
$$$$
