NEP.pdb
     RDKit          3D

 25 25  0  0  1  0  0  0  0  0999 V2000
   19.8638  -18.9370  -16.0461 N   0  0  0  0  0  0  0  0  0  0  0  0
   19.7839  -20.2912  -15.6697 C   0  0  0  0  0  0  0  0  0  0  0  0
   18.7989  -20.9826  -16.0484 O   0  0  0  0  0  0  0  0  0  0  0  0
   20.8162  -20.9580  -14.8364 C   0  0  0  0  0  0  0  0  0  0  0  0
   21.8829  -19.9874  -14.3911 C   0  0  2  0  0  0  0  0  0  0  0  0
   22.4472  -19.2813  -15.5093 N   0  0  0  0  0  0  0  0  0  0  0  0
   22.9185  -20.6186  -13.5657 C   0  0  0  0  0  0  0  0  0  0  0  0
   22.5602  -21.4689  -12.6998 O   0  0  0  0  0  0  0  0  0  0  0  0
   24.2893  -20.3396  -13.6743 N   0  0  0  0  0  0  0  0  0  0  0  0
   25.2596  -20.9652  -12.7728 C   0  0  1  0  0  0  0  0  0  0  0  0
   26.5052  -21.1289  -13.6242 C   0  0  0  0  0  0  0  0  0  0  0  0
   26.2027  -22.2254  -14.6248 C   0  0  0  0  0  0  0  0  0  0  0  0
   27.3557  -22.4084  -15.5713 C   0  0  0  0  0  0  0  0  0  0  0  0
   28.1631  -21.4643  -15.7685 O   0  0  0  0  0  0  0  0  0  0  0  0
   25.5274  -20.0894  -11.5792 C   0  0  0  0  0  0  0  0  0  0  0  0
   26.0139  -18.9728  -11.8614 O   0  0  0  0  0  0  0  0  0  0  0  0
   27.4866  -23.6261  -16.1985 O   0  0  0  0  0  0  0  0  0  0  0  0
   25.2652  -20.4662  -10.2728 N   0  0  0  0  0  0  0  0  0  0  0  0
   24.3150  -21.5531   -9.9439 C   0  0  0  0  0  0  0  0  0  0  0  0
   24.9996  -22.2478   -8.7955 C   0  0  0  0  0  0  0  0  0  0  0  0
   26.0918  -21.3264   -8.3235 C   0  0  0  0  0  0  0  0  0  0  0  0
   25.6670  -19.9886   -9.0079 C   0  0  1  0  0  0  0  0  0  0  0  0
   26.7313  -19.0199   -8.8833 C   0  0  0  0  0  0  0  0  0  0  0  0
   27.6871  -19.0851   -9.7382 O   0  0  0  0  0  0  0  0  0  0  0  0
   26.8402  -18.0288   -7.9524 O   0  0  0  0  0  0  0  0  0  0  0  0
  1  2  1  0
  2  3  2  0
  4  5  1  0
  4  2  1  0
  5  6  1  6
  7  5  1  0
  8  7  2  0
  9  7  1  0
 10 11  1  6
 10  9  1  0
 11 12  1  0
 12 13  1  0
 13 17  1  0
 14 13  2  0
 15 10  1  0
 16 15  2  0
 18 15  1  0
 18 22  1  0
 19 20  1  0
 19 18  1  0
 20 21  1  0
 21 22  1  0
 22 23  1  6
 23 25  1  0
 24 23  2  0
M  END
$$$$
