NEP.pdb
     RDKit          3D

 25 25  0  0  1  0  0  0  0  0999 V2000
   13.3056   -6.9788   -8.8861 N   0  0  0  0  0  0  0  0  0  0  0  0
   14.5143   -6.2670   -8.7681 C   0  0  0  0  0  0  0  0  0  0  0  0
   14.5345   -5.1824   -8.1240 O   0  0  0  0  0  0  0  0  0  0  0  0
   15.7872   -6.7349   -9.3727 C   0  0  0  0  0  0  0  0  0  0  0  0
   15.6052   -8.0386  -10.1113 C   0  0  2  0  0  0  0  0  0  0  0  0
   15.3537   -9.1240   -9.2022 N   0  0  0  0  0  0  0  0  0  0  0  0
   16.7156   -8.3366  -11.0225 C   0  0  0  0  0  0  0  0  0  0  0  0
   17.8114   -8.7281  -10.5254 O   0  0  0  0  0  0  0  0  0  0  0  0
   16.6417   -8.2151  -12.4185 N   0  0  0  0  0  0  0  0  0  0  0  0
   17.8166   -8.4566  -13.2593 C   0  0  1  0  0  0  0  0  0  0  0  0
   17.2383   -8.9597  -14.5692 C   0  0  0  0  0  0  0  0  0  0  0  0
   16.9234  -10.4276  -14.3660 C   0  0  0  0  0  0  0  0  0  0  0  0
   16.2709  -11.0017  -15.5921 C   0  0  0  0  0  0  0  0  0  0  0  0
   15.0686  -11.3688  -15.5510 O   0  0  0  0  0  0  0  0  0  0  0  0
   18.6024   -7.1898  -13.4623 C   0  0  0  0  0  0  0  0  0  0  0  0
   17.9047   -6.1955  -13.7583 O   0  0  0  0  0  0  0  0  0  0  0  0
   17.0289  -11.1058  -16.7358 O   0  0  0  0  0  0  0  0  0  0  0  0
   19.9790   -7.1086  -13.3368 N   0  0  0  0  0  0  0  0  0  0  0  0
   20.7559   -8.0932  -12.5497 C   0  0  0  0  0  0  0  0  0  0  0  0
   21.9930   -8.2784  -13.3896 C   0  0  0  0  0  0  0  0  0  0  0  0
   22.0058   -7.1557  -14.3917 C   0  0  0  0  0  0  0  0  0  0  0  0
   20.9566   -6.1853  -13.7626 C   0  0  1  0  0  0  0  0  0  0  0  0
   20.6316   -5.1423  -14.7077 C   0  0  0  0  0  0  0  0  0  0  0  0
   19.8899   -5.4644  -15.7051 O   0  0  0  0  0  0  0  0  0  0  0  0
   21.0239   -3.8366  -14.6630 O   0  0  0  0  0  0  0  0  0  0  0  0
  1  2  1  0
  2  3  2  0
  4  5  1  0
  4  2  1  0
  5  6  1  1
  7  5  1  0
  8  7  2  0
  9  7  1  0
 10 11  1  6
 10  9  1  0
 11 12  1  0
 12 13  1  0
 13 17  1  0
 14 13  2  0
 15 10  1  0
 16 15  2  0
 18 15  1  0
 18 22  1  0
 19 20  1  0
 19 18  1  0
 20 21  1  0
 21 22  1  0
 22 23  1  6
 23 25  1  0
 24 23  2  0
M  END
$$$$
