NEP.pdb
     RDKit          3D

 25 25  0  0  1  0  0  0  0  0999 V2000
   18.2637  -14.2264  -15.8573 N   0  0  0  0  0  0  0  0  0  0  0  0
   17.4908  -13.3551  -15.0667 C   0  0  0  0  0  0  0  0  0  0  0  0
   16.2330  -13.4505  -15.0876 O   0  0  0  0  0  0  0  0  0  0  0  0
   18.0898  -12.3128  -14.1952 C   0  0  0  0  0  0  0  0  0  0  0  0
   17.4088  -10.9781  -14.3769 C   0  0  2  0  0  0  0  0  0  0  0  0
   17.5674  -10.4886  -15.7197 N   0  0  0  0  0  0  0  0  0  0  0  0
   17.8274   -9.9851  -13.3815 C   0  0  0  0  0  0  0  0  0  0  0  0
   17.8097  -10.3155  -12.1601 O   0  0  0  0  0  0  0  0  0  0  0  0
   18.2488   -8.6844  -13.6969 N   0  0  0  0  0  0  0  0  0  0  0  0
   18.5456   -7.7117  -12.6427 C   0  0  1  0  0  0  0  0  0  0  0  0
   19.7123   -6.9123  -13.1932 C   0  0  0  0  0  0  0  0  0  0  0  0
   20.1750   -5.9996  -12.0760 C   0  0  0  0  0  0  0  0  0  0  0  0
   21.2119   -5.0347  -12.5786 C   0  0  0  0  0  0  0  0  0  0  0  0
   21.0267   -3.7961  -12.4623 O   0  0  0  0  0  0  0  0  0  0  0  0
   17.3576   -6.8278  -12.3764 C   0  0  0  0  0  0  0  0  0  0  0  0
   17.0350   -6.0987  -13.3393 O   0  0  0  0  0  0  0  0  0  0  0  0
   22.3468   -5.5536  -13.1584 O   0  0  0  0  0  0  0  0  0  0  0  0
   16.6661   -6.8074  -11.1769 N   0  0  0  0  0  0  0  0  0  0  0  0
   16.7916   -7.8937  -10.1786 C   0  0  0  0  0  0  0  0  0  0  0  0
   16.7879   -7.1395   -8.8743 C   0  0  0  0  0  0  0  0  0  0  0  0
   16.3160   -5.7445   -9.1843 C   0  0  0  0  0  0  0  0  0  0  0  0
   15.7040   -5.9480  -10.6064 C   0  0  1  0  0  0  0  0  0  0  0  0
   15.4119   -4.6630  -11.1980 C   0  0  0  0  0  0  0  0  0  0  0  0
   14.2027   -4.2395  -11.1139 O   0  0  0  0  0  0  0  0  0  0  0  0
   16.2828   -3.8341  -11.8425 O   0  0  0  0  0  0  0  0  0  0  0  0
  1  2  1  0
  2  3  2  0
  4  5  1  0
  4  2  1  0
  5  6  1  6
  7  5  1  0
  8  7  2  0
  9  7  1  0
 10 11  1  6
 10  9  1  0
 11 12  1  0
 12 13  1  0
 13 17  1  0
 14 13  2  0
 15 10  1  0
 16 15  2  0
 18 15  1  0
 18 22  1  0
 19 20  1  0
 19 18  1  0
 20 21  1  0
 21 22  1  0
 22 23  1  6
 23 25  1  0
 24 23  2  0
M  END
$$$$
