NEP.pdb
     RDKit          3D

 25 25  0  0  1  0  0  0  0  0999 V2000
   19.6135  -13.9999  -16.3882 N   0  0  0  0  0  0  0  0  0  0  0  0
   20.4730  -12.9697  -16.8145 C   0  0  0  0  0  0  0  0  0  0  0  0
   21.6113  -13.2622  -17.2730 O   0  0  0  0  0  0  0  0  0  0  0  0
   20.1023  -11.5333  -16.7510 C   0  0  0  0  0  0  0  0  0  0  0  0
   18.7217  -11.3409  -16.1721 C   0  0  2  0  0  0  0  0  0  0  0  0
   17.7022  -11.6926  -17.1232 N   0  0  0  0  0  0  0  0  0  0  0  0
   18.5162   -9.9954  -15.6248 C   0  0  0  0  0  0  0  0  0  0  0  0
   18.1150   -9.0845  -16.4061 O   0  0  0  0  0  0  0  0  0  0  0  0
   18.7369   -9.6500  -14.2827 N   0  0  0  0  0  0  0  0  0  0  0  0
   18.5164   -8.2810  -13.8107 C   0  0  1  0  0  0  0  0  0  0  0  0
   17.8807   -8.4577  -12.4440 C   0  0  0  0  0  0  0  0  0  0  0  0
   17.5498   -7.0680  -11.9395 C   0  0  0  0  0  0  0  0  0  0  0  0
   16.9775   -7.1333  -10.5513 C   0  0  0  0  0  0  0  0  0  0  0  0
   15.9154   -7.7726  -10.3387 O   0  0  0  0  0  0  0  0  0  0  0  0
   19.8163   -7.5298  -13.7133 C   0  0  0  0  0  0  0  0  0  0  0  0
   20.6025   -7.9753  -12.8494 O   0  0  0  0  0  0  0  0  0  0  0  0
   17.6508   -6.4782   -9.5460 O   0  0  0  0  0  0  0  0  0  0  0  0
   20.1357   -6.4375  -14.5021 N   0  0  0  0  0  0  0  0  0  0  0  0
   19.3700   -6.0990  -15.7234 C   0  0  0  0  0  0  0  0  0  0  0  0
   19.3163   -4.5943  -15.6676 C   0  0  0  0  0  0  0  0  0  0  0  0
   20.3290   -4.1645  -14.6406 C   0  0  0  0  0  0  0  0  0  0  0  0
   21.1655   -5.4736  -14.4836 C   0  0  1  0  0  0  0  0  0  0  0  0
   22.0490   -5.3522  -13.3472 C   0  0  0  0  0  0  0  0  0  0  0  0
   23.0668   -4.5799  -13.4752 O   0  0  0  0  0  0  0  0  0  0  0  0
   21.9258   -5.9685  -12.1366 O   0  0  0  0  0  0  0  0  0  0  0  0
  1  2  1  0
  2  3  2  0
  4  5  1  0
  4  2  1  0
  5  6  1  6
  7  5  1  0
  8  7  2  0
  9  7  1  0
 10 11  1  1
 10  9  1  0
 11 12  1  0
 12 13  1  0
 13 17  1  0
 14 13  2  0
 15 10  1  0
 16 15  2  0
 18 15  1  0
 18 22  1  0
 19 20  1  0
 19 18  1  0
 20 21  1  0
 21 22  1  0
 22 23  1  1
 23 25  1  0
 24 23  2  0
M  END
$$$$
