NEP.pdb
     RDKit          3D

 25 25  0  0  1  0  0  0  0  0999 V2000
   22.5535  -10.2756  -14.1960 N   0  0  0  0  0  0  0  0  0  0  0  0
   22.3747   -8.9788  -13.6784 C   0  0  0  0  0  0  0  0  0  0  0  0
   22.9395   -8.6601  -12.5962 O   0  0  0  0  0  0  0  0  0  0  0  0
   21.5421   -7.9503  -14.3518 C   0  0  0  0  0  0  0  0  0  0  0  0
   20.8516   -8.5069  -15.5732 C   0  0  2  0  0  0  0  0  0  0  0  0
   21.8031   -8.9203  -16.5689 N   0  0  0  0  0  0  0  0  0  0  0  0
   19.8466   -7.5921  -16.1256 C   0  0  0  0  0  0  0  0  0  0  0  0
   20.1415   -6.9334  -17.1650 O   0  0  0  0  0  0  0  0  0  0  0  0
   18.5713   -7.3984  -15.5733 N   0  0  0  0  0  0  0  0  0  0  0  0
   17.6204   -6.4648  -16.1815 C   0  0  1  0  0  0  0  0  0  0  0  0
   16.2614   -6.9901  -15.7569 C   0  0  0  0  0  0  0  0  0  0  0  0
   16.0889   -8.3354  -16.4319 C   0  0  0  0  0  0  0  0  0  0  0  0
   14.7557   -8.9341  -16.0817 C   0  0  0  0  0  0  0  0  0  0  0  0
   13.7173   -8.5484  -16.6777 O   0  0  0  0  0  0  0  0  0  0  0  0
   17.8444   -5.0648  -15.6780 C   0  0  0  0  0  0  0  0  0  0  0  0
   18.0127   -4.9854  -14.4417 O   0  0  0  0  0  0  0  0  0  0  0  0
   14.7211   -9.9005  -15.1029 O   0  0  0  0  0  0  0  0  0  0  0  0
   17.8667   -3.9468  -16.4946 N   0  0  0  0  0  0  0  0  0  0  0  0
   18.1230   -4.0412  -17.9499 C   0  0  0  0  0  0  0  0  0  0  0  0
   17.1706   -3.0199  -18.5154 C   0  0  0  0  0  0  0  0  0  0  0  0
   16.7015   -2.1803  -17.3578 C   0  0  0  0  0  0  0  0  0  0  0  0
   17.7570   -2.5584  -16.2709 C   0  0  1  0  0  0  0  0  0  0  0  0
   17.3387   -2.0434  -14.9877 C   0  0  0  0  0  0  0  0  0  0  0  0
   16.5591   -2.7826  -14.2846 O   0  0  0  0  0  0  0  0  0  0  0  0
   17.6815   -0.8483  -14.4267 O   0  0  0  0  0  0  0  0  0  0  0  0
  1  2  1  0
  2  3  2  0
  4  5  1  0
  4  2  1  0
  5  6  1  6
  7  5  1  0
  8  7  2  0
  9  7  1  0
 10 11  1  1
 10  9  1  0
 11 12  1  0
 12 13  1  0
 13 17  1  0
 14 13  2  0
 15 10  1  0
 16 15  2  0
 18 15  1  0
 18 22  1  0
 19 20  1  0
 19 18  1  0
 20 21  1  0
 21 22  1  0
 22 23  1  1
 23 25  1  0
 24 23  2  0
M  END
$$$$
