NEP.pdb
     RDKit          3D

 25 25  0  0  1  0  0  0  0  0999 V2000
   21.5544  -36.2275   -2.0583 N   0  0  0  0  0  0  0  0  0  0  0  0
   20.5997  -35.3465   -2.6007 C   0  0  0  0  0  0  0  0  0  0  0  0
   19.7472  -35.7849   -3.4209 O   0  0  0  0  0  0  0  0  0  0  0  0
   20.5438  -33.9045   -2.2512 C   0  0  0  0  0  0  0  0  0  0  0  0
   20.9096  -33.0330   -3.4280 C   0  0  2  0  0  0  0  0  0  0  0  0
   22.2717  -33.2487   -3.8350 N   0  0  0  0  0  0  0  0  0  0  0  0
   20.6289  -31.6123   -3.1934 C   0  0  0  0  0  0  0  0  0  0  0  0
   21.5850  -30.8618   -2.8416 O   0  0  0  0  0  0  0  0  0  0  0  0
   19.3613  -31.0272   -3.3345 N   0  0  0  0  0  0  0  0  0  0  0  0
   19.1605  -29.5965   -3.0934 C   0  0  1  0  0  0  0  0  0  0  0  0
   18.2477  -29.1545   -4.2224 C   0  0  0  0  0  0  0  0  0  0  0  0
   17.9527  -27.6869   -3.9890 C   0  0  0  0  0  0  0  0  0  0  0  0
   16.9306  -27.1915   -4.9731 C   0  0  0  0  0  0  0  0  0  0  0  0
   15.8736  -27.8458   -5.1646 O   0  0  0  0  0  0  0  0  0  0  0  0
   18.5203  -29.3617   -1.7523 C   0  0  0  0  0  0  0  0  0  0  0  0
   17.4187  -29.9335   -1.6028 O   0  0  0  0  0  0  0  0  0  0  0  0
   17.1954  -26.0176   -5.6404 O   0  0  0  0  0  0  0  0  0  0  0  0
   19.0843  -28.5840   -0.7550 N   0  0  0  0  0  0  0  0  0  0  0  0
   20.4868  -28.1141   -0.8230 C   0  0  0  0  0  0  0  0  0  0  0  0
   20.3889  -26.7155   -0.2716 C   0  0  0  0  0  0  0  0  0  0  0  0
   19.0406  -26.6054    0.3880 C   0  0  0  0  0  0  0  0  0  0  0  0
   18.6409  -28.1109    0.4977 C   0  0  1  0  0  0  0  0  0  0  0  0
   17.2530  -28.2181    0.8835 C   0  0  0  0  0  0  0  0  0  0  0  0
   16.9699  -28.0143    2.1192 O   0  0  0  0  0  0  0  0  0  0  0  0
   16.1928  -28.5124    0.0772 O   0  0  0  0  0  0  0  0  0  0  0  0
  1  2  1  0
  2  3  2  0
  4  5  1  0
  4  2  1  0
  5  6  1  1
  7  5  1  0
  8  7  2  0
  9  7  1  0
 10 11  1  6
 10  9  1  0
 11 12  1  0
 12 13  1  0
 13 17  1  0
 14 13  2  0
 15 10  1  0
 16 15  2  0
 18 15  1  0
 18 22  1  0
 19 20  1  0
 19 18  1  0
 20 21  1  0
 21 22  1  0
 22 23  1  6
 23 25  1  0
 24 23  2  0
M  END
$$$$
