NEP.pdb
     RDKit          3D

 25 25  0  0  1  0  0  0  0  0999 V2000
   14.6025  -13.8548  -17.6085 N   0  0  0  0  0  0  0  0  0  0  0  0
   14.4734  -12.7405  -16.7580 C   0  0  0  0  0  0  0  0  0  0  0  0
   13.3225  -12.3168  -16.4619 O   0  0  0  0  0  0  0  0  0  0  0  0
   15.6413  -12.0268  -16.1823 C   0  0  0  0  0  0  0  0  0  0  0  0
   16.9447  -12.6408  -16.6325 C   0  0  2  0  0  0  0  0  0  0  0  0
   17.1159  -13.9612  -16.0893 N   0  0  0  0  0  0  0  0  0  0  0  0
   18.1029  -11.7835  -16.3574 C   0  0  0  0  0  0  0  0  0  0  0  0
   18.5753  -11.7713  -15.1835 O   0  0  0  0  0  0  0  0  0  0  0  0
   18.7254  -10.9707  -17.3170 N   0  0  0  0  0  0  0  0  0  0  0  0
   19.9445  -10.2246  -16.9963 C   0  0  1  0  0  0  0  0  0  0  0  0
   20.6003   -9.9884  -18.3444 C   0  0  0  0  0  0  0  0  0  0  0  0
   21.1803  -11.3183  -18.7807 C   0  0  0  0  0  0  0  0  0  0  0  0
   21.8581  -11.1856  -20.1155 C   0  0  0  0  0  0  0  0  0  0  0  0
   21.5678  -11.9766  -21.0493 O   0  0  0  0  0  0  0  0  0  0  0  0
   19.6156   -8.9237  -16.3158 C   0  0  0  0  0  0  0  0  0  0  0  0
   18.7177   -8.2622  -16.8807 O   0  0  0  0  0  0  0  0  0  0  0  0
   22.7890  -10.1838  -20.2680 O   0  0  0  0  0  0  0  0  0  0  0  0
   20.2397   -8.4781  -15.1629 N   0  0  0  0  0  0  0  0  0  0  0  0
   20.9369   -9.4018  -14.2392 C   0  0  0  0  0  0  0  0  0  0  0  0
   22.1469   -8.6023  -13.8307 C   0  0  0  0  0  0  0  0  0  0  0  0
   21.8881   -7.1816  -14.2545 C   0  0  0  0  0  0  0  0  0  0  0  0
   20.3501   -7.2273  -14.5202 C   0  0  1  0  0  0  0  0  0  0  0  0
   19.9353   -6.0125  -15.1828 C   0  0  0  0  0  0  0  0  0  0  0  0
   19.0984   -5.2621  -14.5622 O   0  0  0  0  0  0  0  0  0  0  0  0
   20.3357   -5.5619  -16.4064 O   0  0  0  0  0  0  0  0  0  0  0  0
  1  2  1  0
  2  3  2  0
  4  5  1  0
  4  2  1  0
  5  6  1  1
  7  5  1  0
  8  7  2  0
  9  7  1  0
 10 11  1  6
 10  9  1  0
 11 12  1  0
 12 13  1  0
 13 17  1  0
 14 13  2  0
 15 10  1  0
 16 15  2  0
 18 15  1  0
 18 22  1  0
 19 20  1  0
 19 18  1  0
 20 21  1  0
 21 22  1  0
 22 23  1  6
 23 25  1  0
 24 23  2  0
M  END
$$$$
