NEP.pdb
     RDKit          3D

 25 25  0  0  1  0  0  0  0  0999 V2000
   29.5199  -24.2934  -17.8312 N   0  0  0  0  0  0  0  0  0  0  0  0
   30.0635  -23.0071  -17.6534 C   0  0  0  0  0  0  0  0  0  0  0  0
   31.2832  -22.8090  -17.9082 O   0  0  0  0  0  0  0  0  0  0  0  0
   29.2619  -21.8530  -17.1738 C   0  0  0  0  0  0  0  0  0  0  0  0
   27.8571  -22.2662  -16.8074 C   0  0  2  0  0  0  0  0  0  0  0  0
   27.0736  -22.5512  -17.9789 N   0  0  0  0  0  0  0  0  0  0  0  0
   27.1907  -21.3000  -15.9273 C   0  0  0  0  0  0  0  0  0  0  0  0
   27.4446  -20.0704  -16.0846 O   0  0  0  0  0  0  0  0  0  0  0  0
   26.2842  -21.6524  -14.9159 N   0  0  0  0  0  0  0  0  0  0  0  0
   25.3480  -20.6688  -14.3666 C   0  0  1  0  0  0  0  0  0  0  0  0
   24.5150  -20.2420  -15.5613 C   0  0  0  0  0  0  0  0  0  0  0  0
   23.4859  -19.2596  -15.0407 C   0  0  0  0  0  0  0  0  0  0  0  0
   22.3016  -19.1978  -15.9638 C   0  0  0  0  0  0  0  0  0  0  0  0
   22.3337  -18.4553  -16.9786 O   0  0  0  0  0  0  0  0  0  0  0  0
   24.4885  -21.2838  -13.2959 C   0  0  0  0  0  0  0  0  0  0  0  0
   23.5091  -21.9274  -13.7312 O   0  0  0  0  0  0  0  0  0  0  0  0
   21.2055  -19.9711  -15.6575 O   0  0  0  0  0  0  0  0  0  0  0  0
   24.7415  -21.1612  -11.9400 N   0  0  0  0  0  0  0  0  0  0  0  0
   26.1152  -21.0175  -11.4065 C   0  0  0  0  0  0  0  0  0  0  0  0
   25.9302  -20.0169  -10.2954 C   0  0  0  0  0  0  0  0  0  0  0  0
   24.4499  -19.9250  -10.0400 C   0  0  0  0  0  0  0  0  0  0  0  0
   23.9421  -21.2036  -10.7786 C   0  0  1  0  0  0  0  0  0  0  0  0
   22.5006  -21.1730  -10.8675 C   0  0  0  0  0  0  0  0  0  0  0  0
   21.8409  -21.6144   -9.8582 O   0  0  0  0  0  0  0  0  0  0  0  0
   21.7476  -20.7217  -11.9115 O   0  0  0  0  0  0  0  0  0  0  0  0
  1  2  1  0
  2  3  2  0
  4  5  1  0
  4  2  1  0
  5  6  1  6
  7  5  1  0
  8  7  2  0
  9  7  1  0
 10 11  1  6
 10  9  1  0
 11 12  1  0
 12 13  1  0
 13 17  1  0
 14 13  2  0
 15 10  1  0
 16 15  2  0
 18 15  1  0
 18 22  1  0
 19 20  1  0
 19 18  1  0
 20 21  1  0
 21 22  1  0
 22 23  1  6
 23 25  1  0
 24 23  2  0
M  END
$$$$
