NEP.pdb
     RDKit          3D

 25 25  0  0  1  0  0  0  0  0999 V2000
   15.3012  -15.2206  -16.2728 N   0  0  0  0  0  0  0  0  0  0  0  0
   15.9870  -14.8280  -15.1078 C   0  0  0  0  0  0  0  0  0  0  0  0
   15.4392  -14.9875  -13.9826 O   0  0  0  0  0  0  0  0  0  0  0  0
   17.3441  -14.2261  -15.1361 C   0  0  0  0  0  0  0  0  0  0  0  0
   17.7915  -13.9307  -16.5471 C   0  0  2  0  0  0  0  0  0  0  0  0
   18.1846  -15.1317  -17.2333 N   0  0  0  0  0  0  0  0  0  0  0  0
   18.8341  -12.9006  -16.6099 C   0  0  0  0  0  0  0  0  0  0  0  0
   20.0379  -13.2543  -16.4456 O   0  0  0  0  0  0  0  0  0  0  0  0
   18.5824  -11.5398  -16.8419 N   0  0  0  0  0  0  0  0  0  0  0  0
   19.6811  -10.5976  -17.0666 C   0  0  1  0  0  0  0  0  0  0  0  0
   19.5807  -10.2555  -18.5417 C   0  0  0  0  0  0  0  0  0  0  0  0
   20.7116   -9.2921  -18.8390 C   0  0  0  0  0  0  0  0  0  0  0  0
   20.3750   -8.4338  -20.0259 C   0  0  0  0  0  0  0  0  0  0  0  0
   21.2261   -7.6261  -20.4791 O   0  0  0  0  0  0  0  0  0  0  0  0
   19.5207   -9.3703  -16.2111 C   0  0  0  0  0  0  0  0  0  0  0  0
   18.4553   -8.7457  -16.4053 O   0  0  0  0  0  0  0  0  0  0  0  0
   19.1237   -8.5670  -20.5824 O   0  0  0  0  0  0  0  0  0  0  0  0
   20.4583   -8.9505  -15.2827 N   0  0  0  0  0  0  0  0  0  0  0  0
   21.5592   -9.8287  -14.8250 C   0  0  0  0  0  0  0  0  0  0  0  0
   22.7187   -8.8719  -14.7242 C   0  0  0  0  0  0  0  0  0  0  0  0
   22.1392   -7.4843  -14.7846 C   0  0  0  0  0  0  0  0  0  0  0  0
   20.6305   -7.7813  -14.5126 C   0  0  1  0  0  0  0  0  0  0  0  0
   19.8470   -6.5965  -14.7756 C   0  0  0  0  0  0  0  0  0  0  0  0
   19.5373   -6.3573  -15.9986 O   0  0  0  0  0  0  0  0  0  0  0  0
   19.3894   -5.6907  -13.8642 O   0  0  0  0  0  0  0  0  0  0  0  0
  1  2  1  0
  2  3  2  0
  4  5  1  0
  4  2  1  0
  5  6  1  1
  7  5  1  0
  8  7  2  0
  9  7  1  0
 10 11  1  6
 10  9  1  0
 11 12  1  0
 12 13  1  0
 13 17  1  0
 14 13  2  0
 15 10  1  0
 16 15  2  0
 18 15  1  0
 18 22  1  0
 19 20  1  0
 19 18  1  0
 20 21  1  0
 21 22  1  0
 22 23  1  6
 23 25  1  0
 24 23  2  0
M  END
$$$$
