RPL.pdb
     RDKit          3D

 27 27  0  0  1  0  0  0  0  0999 V2000
    8.5239  -21.7298   18.6014 N   0  0  0  0  0  0  0  0  0  0  0  0
    7.4427  -21.8725   19.5076 C   0  0  0  0  0  0  0  0  0  0  0  0
    7.1105  -23.0323   19.9569 N   0  0  0  0  0  0  0  0  0  0  0  0
    6.7108  -20.7317   19.9321 N   0  0  0  0  0  0  0  0  0  0  0  0
    6.9795  -19.4039   19.4053 C   0  0  0  0  0  0  0  0  0  0  0  0
    8.4845  -19.2112   19.1800 C   0  0  0  0  0  0  0  0  0  0  0  0
    9.0011  -18.3288   20.2899 C   0  0  0  0  0  0  0  0  0  0  0  0
    9.7240  -17.1059   19.7615 C   0  0  2  0  0  0  0  0  0  0  0  0
   10.9865  -17.4256   19.1610 N   0  0  0  0  0  0  0  0  0  0  0  0
    9.7278  -15.9997   20.7138 C   0  0  0  0  0  0  0  0  0  0  0  0
   10.7943  -15.8462   21.3901 O   0  0  0  0  0  0  0  0  0  0  0  0
    6.2776  -23.1514   20.5504 N   0  0  0  0  0  0  0  0  0  0  0  0
    8.6623  -15.0795   20.9624 C   0  0  0  0  0  0  0  0  0  0  0  0
    7.4080  -15.0461   20.2783 C   0  0  0  0  0  0  0  0  0  0  0  0
    6.8435  -13.6757   20.5206 C   0  0  0  0  0  0  0  0  0  0  0  0
    7.9485  -12.9087   21.2601 C   0  0  1  0  0  0  0  0  0  0  0  0
    8.6588  -14.0243   21.9502 C   0  0  0  0  0  0  0  0  0  0  0  0
    8.0586  -14.4452   23.2310 O   0  0  0  0  0  0  0  0  0  0  0  0
    7.1122  -15.2721   23.1805 C   0  0  0  0  0  0  0  0  0  0  0  0
    7.5984  -11.9895   27.1588 C   0  0  1  0  0  0  0  0  0  0  0  0
    6.6969  -12.6684   26.1164 C   0  0  0  0  0  0  0  0  0  0  0  0
    5.2734  -12.2483   26.4713 C   0  0  0  0  0  0  0  0  0  0  0  0
    6.9031  -14.1381   26.2767 C   0  0  2  0  0  0  0  0  0  0  0  0
    8.2064  -14.6630   25.7591 N   0  0  0  0  0  0  0  0  0  0  0  0
    8.4697  -13.9872   24.5022 C   0  0  0  0  0  0  0  0  0  0  0  0
    8.1858  -16.1399   25.5755 O   0  0  0  0  0  0  0  0  0  0  0  0
    7.8408  -16.6878   24.4836 O   0  0  0  0  0  0  0  0  0  0  0  0
  2  1  1  0
  3  2  2  0
  4  2  1  0
  5  6  1  0
  5  4  1  0
  6  7  1  0
  7  8  1  0
  8  9  1  1
 10  8  1  0
 11 10  2  0
 12 10  1  0
 12 16  1  0
 13 14  1  0
 13 12  1  0
 14 15  1  0
 15 16  1  0
 16 17  1  1
 17 18  2  0
 20 19  1  6
 20 22  1  0
 21 20  1  0
 23 22  1  1
 23 24  1  0
 24 17  1  0
 25 23  1  0
 25 27  1  0
 26 25  2  0
M  END
$$$$
