RPL.pdb
     RDKit          3D

 27 27  0  0  1  0  0  0  0  0999 V2000
    8.9085  -15.3084   14.6726 N   0  0  0  0  0  0  0  0  0  0  0  0
    9.8943  -16.2359   15.0949 C   0  0  0  0  0  0  0  0  0  0  0  0
   11.0664  -16.2375   14.5623 N   0  0  0  0  0  0  0  0  0  0  0  0
    9.5984  -17.1779   16.1159 N   0  0  0  0  0  0  0  0  0  0  0  0
    9.8313  -16.8896   17.5214 C   0  0  0  0  0  0  0  0  0  0  0  0
    9.6284  -15.3954   17.8027 C   0  0  0  0  0  0  0  0  0  0  0  0
    9.9268  -15.1632   19.2636 C   0  0  0  0  0  0  0  0  0  0  0  0
    9.1492  -13.9913   19.8290 C   0  0  2  0  0  0  0  0  0  0  0  0
    9.4972  -12.7457   19.2095 N   0  0  0  0  0  0  0  0  0  0  0  0
    9.1100  -13.9939   21.2881 C   0  0  0  0  0  0  0  0  0  0  0  0
   10.0164  -13.3207   21.8742 O   0  0  0  0  0  0  0  0  0  0  0  0
   11.7841  -16.9110   14.8642 N   0  0  0  0  0  0  0  0  0  0  0  0
    8.1644  -14.6722   22.1186 C   0  0  0  0  0  0  0  0  0  0  0  0
    7.1987  -15.6294   21.6788 C   0  0  0  0  0  0  0  0  0  0  0  0
    6.1573  -15.6896   22.7591 C   0  0  0  0  0  0  0  0  0  0  0  0
    6.5422  -14.5850   23.7531 C   0  0  1  0  0  0  0  0  0  0  0  0
    8.0183  -14.5172   23.5483 C   0  0  0  0  0  0  0  0  0  0  0  0
    8.7980  -15.5108   24.3114 O   0  0  0  0  0  0  0  0  0  0  0  0
    9.0244  -16.6165   23.7562 C   0  0  0  0  0  0  0  0  0  0  0  0
   10.5714  -13.5359   27.6351 C   0  0  1  0  0  0  0  0  0  0  0  0
    9.4586  -14.5043   28.0644 C   0  0  0  0  0  0  0  0  0  0  0  0
    9.2356  -14.2379   29.5503 C   0  0  0  0  0  0  0  0  0  0  0  0
    9.9805  -15.8805   27.8147 C   0  0  2  0  0  0  0  0  0  0  0  0
   10.0658  -16.2825   26.3749 N   0  0  0  0  0  0  0  0  0  0  0  0
    9.3047  -15.3089   25.6142 C   0  0  0  0  0  0  0  0  0  0  0  0
    9.5509  -17.6597   26.1432 O   0  0  0  0  0  0  0  0  0  0  0  0
   10.2109  -18.6975   26.4573 O   0  0  0  0  0  0  0  0  0  0  0  0
  2  1  1  0
  3  2  2  0
  4  2  1  0
  5  6  1  0
  5  4  1  0
  6  7  1  0
  7  8  1  0
  8  9  1  1
 10  8  1  0
 11 10  2  0
 12 10  1  0
 12 16  1  0
 13 14  1  0
 13 12  1  0
 14 15  1  0
 15 16  1  0
 16 17  1  1
 17 18  2  0
 20 19  1  6
 20 22  1  0
 21 20  1  0
 23 22  1  6
 23 24  1  0
 24 17  1  0
 25 23  1  0
 25 27  1  0
 26 25  2  0
M  END
$$$$
