RPL.pdb
     RDKit          3D

 27 27  0  0  1  0  0  0  0  0999 V2000
    6.5300  -21.9744   17.6553 N   0  0  0  0  0  0  0  0  0  0  0  0
    7.6695  -22.1378   18.4831 C   0  0  0  0  0  0  0  0  0  0  0  0
    8.5184  -23.0783   18.2546 N   0  0  0  0  0  0  0  0  0  0  0  0
    7.8883  -21.2610   19.5789 N   0  0  0  0  0  0  0  0  0  0  0  0
    8.0902  -19.8334   19.3950 C   0  0  0  0  0  0  0  0  0  0  0  0
    8.1902  -19.1270   20.7530 C   0  0  0  0  0  0  0  0  0  0  0  0
    9.6481  -18.8294   21.0044 C   0  0  0  0  0  0  0  0  0  0  0  0
   10.0196  -17.4120   20.6166 C   0  0  2  0  0  0  0  0  0  0  0  0
   11.1138  -17.3602   19.6910 N   0  0  0  0  0  0  0  0  0  0  0  0
   10.1098  -16.5193   21.7679 C   0  0  0  0  0  0  0  0  0  0  0  0
   11.2832  -16.2594   22.1849 O   0  0  0  0  0  0  0  0  0  0  0  0
    9.1902  -23.3721   18.9773 N   0  0  0  0  0  0  0  0  0  0  0  0
    9.0215  -15.9133   22.4696 C   0  0  0  0  0  0  0  0  0  0  0  0
    7.6361  -16.0548   22.1490 C   0  0  0  0  0  0  0  0  0  0  0  0
    6.9399  -14.9025   22.8144 C   0  0  0  0  0  0  0  0  0  0  0  0
    8.0635  -14.0336   23.3966 C   0  0  1  0  0  0  0  0  0  0  0  0
    9.1249  -15.0558   23.6286 C   0  0  0  0  0  0  0  0  0  0  0  0
    9.0062  -15.7980   24.8985 O   0  0  0  0  0  0  0  0  0  0  0  0
    8.3449  -16.8679   24.8818 C   0  0  0  0  0  0  0  0  0  0  0  0
   11.3032  -13.3699   27.3322 C   0  0  2  0  0  0  0  0  0  0  0  0
   10.2122  -14.0178   28.1984 C   0  0  0  0  0  0  0  0  0  0  0  0
   10.3031  -13.3257   29.5555 C   0  0  0  0  0  0  0  0  0  0  0  0
   10.5523  -15.4686   28.2862 C   0  0  1  0  0  0  0  0  0  0  0  0
   10.2712  -16.2689   27.0523 N   0  0  0  0  0  0  0  0  0  0  0  0
    9.5792  -15.3937   26.1244 C   0  0  0  0  0  0  0  0  0  0  0  0
    9.4624  -17.4846   27.3415 O   0  0  0  0  0  0  0  0  0  0  0  0
    8.2544  -17.6054   26.9709 O   0  0  0  0  0  0  0  0  0  0  0  0
  2  1  1  0
  3  2  2  0
  4  2  1  0
  5  6  1  0
  5  4  1  0
  6  7  1  0
  7  8  1  0
  8  9  1  1
 10  8  1  0
 11 10  2  0
 12 10  1  0
 12 16  1  0
 13 14  1  0
 13 12  1  0
 14 15  1  0
 15 16  1  0
 16 17  1  1
 17 18  2  0
 20 19  1  6
 20 22  1  0
 21 20  1  0
 23 22  1  6
 23 24  1  0
 24 17  1  0
 25 23  1  0
 25 27  1  0
 26 25  2  0
M  END
$$$$
