RPL.pdb
     RDKit          3D

 27 27  0  0  1  0  0  0  0  0999 V2000
    9.8829  -16.2256   14.5302 N   0  0  0  0  0  0  0  0  0  0  0  0
    8.5392  -15.9863   14.9145 C   0  0  0  0  0  0  0  0  0  0  0  0
    7.9507  -14.8862   14.5968 N   0  0  0  0  0  0  0  0  0  0  0  0
    7.8238  -16.9627   15.6577 N   0  0  0  0  0  0  0  0  0  0  0  0
    8.4856  -17.8557   16.5943 C   0  0  0  0  0  0  0  0  0  0  0  0
    9.7136  -17.1726   17.2095 C   0  0  0  0  0  0  0  0  0  0  0  0
    9.4484  -17.0044   18.6856 C   0  0  0  0  0  0  0  0  0  0  0  0
   10.6546  -16.4638   19.4274 C   0  0  2  0  0  0  0  0  0  0  0  0
   11.6717  -17.4550   19.6268 N   0  0  0  0  0  0  0  0  0  0  0  0
   10.2870  -15.6762   20.6000 C   0  0  0  0  0  0  0  0  0  0  0  0
   10.9622  -15.8946   21.6558 O   0  0  0  0  0  0  0  0  0  0  0  0
    6.9435  -14.7566   14.7661 N   0  0  0  0  0  0  0  0  0  0  0  0
    9.2524  -14.6929   20.6818 C   0  0  0  0  0  0  0  0  0  0  0  0
    8.3336  -14.3556   19.6405 C   0  0  0  0  0  0  0  0  0  0  0  0
    7.7908  -13.0006   19.9935 C   0  0  0  0  0  0  0  0  0  0  0  0
    8.5918  -12.5528   21.2240 C   0  0  1  0  0  0  0  0  0  0  0  0
    8.9464  -13.8692   21.8295 C   0  0  0  0  0  0  0  0  0  0  0  0
    7.9032  -14.4583   22.6912 O   0  0  0  0  0  0  0  0  0  0  0  0
    7.1852  -15.3623   22.1920 C   0  0  0  0  0  0  0  0  0  0  0  0
    7.2305  -11.8471   25.8676 C   0  0  2  0  0  0  0  0  0  0  0  0
    6.2999  -13.0618   26.0050 C   0  0  0  0  0  0  0  0  0  0  0  0
    5.3394  -12.7145   27.1389 C   0  0  0  0  0  0  0  0  0  0  0  0
    7.1731  -14.2231   26.3471 C   0  0  1  0  0  0  0  0  0  0  0  0
    7.7425  -14.9638   25.1770 N   0  0  0  0  0  0  0  0  0  0  0  0
    7.6556  -14.0801   24.0292 C   0  0  0  0  0  0  0  0  0  0  0  0
    7.0282  -16.2439   24.9189 O   0  0  0  0  0  0  0  0  0  0  0  0
    6.3295  -16.4381   23.8770 O   0  0  0  0  0  0  0  0  0  0  0  0
  2  1  1  0
  3  2  2  0
  4  2  1  0
  5  6  1  0
  5  4  1  0
  6  7  1  0
  7  8  1  0
  8  9  1  1
 10  8  1  0
 11 10  2  0
 12 10  1  0
 12 16  1  0
 13 14  1  0
 13 12  1  0
 14 15  1  0
 15 16  1  0
 16 17  1  1
 17 18  2  0
 20 19  1  6
 20 22  1  0
 21 20  1  0
 23 22  1  1
 23 24  1  0
 24 17  1  0
 25 23  1  0
 25 27  1  0
 26 25  2  0
M  END
$$$$
