RPL.pdb
     RDKit          3D

 27 27  0  0  1  0  0  0  0  0999 V2000
   10.6629  -20.0000   15.0305 N   0  0  0  0  0  0  0  0  0  0  0  0
   10.5407  -20.5256   16.3418 C   0  0  0  0  0  0  0  0  0  0  0  0
   11.3826  -21.3940   16.7829 N   0  0  0  0  0  0  0  0  0  0  0  0
    9.4831  -20.0974   17.1876 N   0  0  0  0  0  0  0  0  0  0  0  0
    8.4783  -19.1456   16.7434 C   0  0  0  0  0  0  0  0  0  0  0  0
    9.0798  -17.7379   16.6454 C   0  0  0  0  0  0  0  0  0  0  0  0
    7.9862  -16.8074   16.1811 C   0  0  0  0  0  0  0  0  0  0  0  0
    8.4813  -15.3868   15.9967 C   0  0  2  0  0  0  0  0  0  0  0  0
    9.1436  -15.1901   14.7401 N   0  0  0  0  0  0  0  0  0  0  0  0
    9.1748  -14.8756   17.1749 C   0  0  0  0  0  0  0  0  0  0  0  0
   10.4449  -14.9438   17.1511 O   0  0  0  0  0  0  0  0  0  0  0  0
   11.3034  -21.7705   17.7378 N   0  0  0  0  0  0  0  0  0  0  0  0
    8.5760  -14.3117   18.3443 C   0  0  0  0  0  0  0  0  0  0  0  0
    7.1751  -14.1377   18.5667 C   0  0  0  0  0  0  0  0  0  0  0  0
    7.0556  -13.1081   19.6534 C   0  0  0  0  0  0  0  0  0  0  0  0
    8.4886  -12.6186   19.9051 C   0  0  2  0  0  0  0  0  0  0  0  0
    9.2759  -13.8226   19.5106 C   0  0  0  0  0  0  0  0  0  0  0  0
    9.4139  -14.8475   20.5633 O   0  0  0  0  0  0  0  0  0  0  0  0
    8.5033  -15.7107   20.6510 C   0  0  0  0  0  0  0  0  0  0  0  0
   14.1336  -16.7218   23.9693 C   0  0  1  0  0  0  0  0  0  0  0  0
   12.7235  -17.1353   23.5210 C   0  0  0  0  0  0  0  0  0  0  0  0
   12.8998  -18.4637   22.7909 C   0  0  0  0  0  0  0  0  0  0  0  0
   12.2392  -16.0561   22.6105 C   0  0  2  0  0  0  0  0  0  0  0  0
   10.7653  -16.0530   22.3469 N   0  0  0  0  0  0  0  0  0  0  0  0
   10.4902  -14.9266   21.4743 C   0  0  0  0  0  0  0  0  0  0  0  0
    9.9690  -15.9619   23.6012 O   0  0  0  0  0  0  0  0  0  0  0  0
    9.5518  -14.8570   24.0666 O   0  0  0  0  0  0  0  0  0  0  0  0
  2  1  1  0
  3  2  2  0
  4  2  1  0
  5  6  1  0
  5  4  1  0
  6  7  1  0
  7  8  1  0
  8  9  1  6
 10  8  1  0
 11 10  2  0
 12 10  1  0
 12 16  1  0
 13 14  1  0
 13 12  1  0
 14 15  1  0
 15 16  1  0
 16 17  1  1
 17 18  2  0
 20 19  1  1
 20 22  1  0
 21 20  1  0
 23 22  1  6
 23 24  1  0
 24 17  1  0
 25 23  1  0
 25 27  1  0
 26 25  2  0
M  END
$$$$
