RPL.pdb
     RDKit          3D

 27 27  0  0  1  0  0  0  0  0999 V2000
   11.0450  -15.1966   12.2619 N   0  0  0  0  0  0  0  0  0  0  0  0
   11.7229  -16.4353   12.3902 C   0  0  0  0  0  0  0  0  0  0  0  0
   12.1307  -17.0724   11.3484 N   0  0  0  0  0  0  0  0  0  0  0  0
   11.9613  -16.9897   13.6759 N   0  0  0  0  0  0  0  0  0  0  0  0
   11.4806  -16.3528   14.8909 C   0  0  0  0  0  0  0  0  0  0  0  0
    9.9497  -16.2579   14.8766 C   0  0  0  0  0  0  0  0  0  0  0  0
    9.4169  -17.3726   15.7431 C   0  0  0  0  0  0  0  0  0  0  0  0
    8.4841  -16.8636   16.8238 C   0  0  2  0  0  0  0  0  0  0  0  0
    7.2756  -16.3030   16.2929 N   0  0  0  0  0  0  0  0  0  0  0  0
    9.1740  -16.0644   17.8316 C   0  0  0  0  0  0  0  0  0  0  0  0
   10.4297  -16.2448   17.9266 O   0  0  0  0  0  0  0  0  0  0  0  0
   12.7080  -17.9200   11.4385 N   0  0  0  0  0  0  0  0  0  0  0  0
    8.5859  -15.1078   18.7166 C   0  0  0  0  0  0  0  0  0  0  0  0
    7.2465  -14.6146   18.6461 C   0  0  0  0  0  0  0  0  0  0  0  0
    7.2386  -13.3321   19.4274 C   0  0  0  0  0  0  0  0  0  0  0  0
    8.7052  -13.0794   19.8037 C   0  0  1  0  0  0  0  0  0  0  0  0
    9.2354  -14.4732   19.8413 C   0  0  0  0  0  0  0  0  0  0  0  0
    9.0069  -15.1912   21.1101 O   0  0  0  0  0  0  0  0  0  0  0  0
    7.8167  -15.4629   21.4131 C   0  0  0  0  0  0  0  0  0  0  0  0
   11.6538  -17.2773   21.0363 C   0  0  1  0  0  0  0  0  0  0  0  0
   11.6501  -17.8938   22.4435 C   0  0  0  0  0  0  0  0  0  0  0  0
   12.0397  -19.3566   22.2500 C   0  0  0  0  0  0  0  0  0  0  0  0
   10.2575  -17.7494   22.9614 C   0  0  1  0  0  0  0  0  0  0  0  0
    9.8146  -16.3439   23.2267 N   0  0  0  0  0  0  0  0  0  0  0  0
   10.0248  -15.5922   22.0033 C   0  0  0  0  0  0  0  0  0  0  0  0
   10.5502  -15.7266   24.3640 O   0  0  0  0  0  0  0  0  0  0  0  0
   11.3690  -14.7692   24.2087 O   0  0  0  0  0  0  0  0  0  0  0  0
  2  1  1  0
  3  2  2  0
  4  2  1  0
  5  6  1  0
  5  4  1  0
  6  7  1  0
  7  8  1  0
  8  9  1  6
 10  8  1  0
 11 10  2  0
 12 10  1  0
 12 16  1  0
 13 14  1  0
 13 12  1  0
 14 15  1  0
 15 16  1  0
 16 17  1  1
 17 18  2  0
 20 19  1  1
 20 22  1  0
 21 20  1  0
 23 22  1  6
 23 24  1  0
 24 17  1  0
 25 23  1  0
 25 27  1  0
 26 25  2  0
M  END
$$$$
