RPL.pdb
     RDKit          3D

 27 27  0  0  1  0  0  0  0  0999 V2000
    1.3761  -18.8640   19.5629 N   0  0  0  0  0  0  0  0  0  0  0  0
    1.6116  -19.7686   20.6291 C   0  0  0  0  0  0  0  0  0  0  0  0
    0.6293  -20.3219   21.2508 N   0  0  0  0  0  0  0  0  0  0  0  0
    2.9405  -20.0764   21.0248 N   0  0  0  0  0  0  0  0  0  0  0  0
    4.0956  -19.5995   20.2823 C   0  0  0  0  0  0  0  0  0  0  0  0
    4.5660  -18.2475   20.8334 C   0  0  0  0  0  0  0  0  0  0  0  0
    5.9215  -18.4594   21.4619 C   0  0  0  0  0  0  0  0  0  0  0  0
    7.0528  -18.0722   20.5305 C   0  0  2  0  0  0  0  0  0  0  0  0
    7.6335  -19.2021   19.8652 N   0  0  0  0  0  0  0  0  0  0  0  0
    7.9905  -17.1364   21.1434 C   0  0  0  0  0  0  0  0  0  0  0  0
    9.0882  -17.6312   21.5539 O   0  0  0  0  0  0  0  0  0  0  0  0
    0.7962  -20.9938   22.0127 N   0  0  0  0  0  0  0  0  0  0  0  0
    7.8010  -15.7315   21.3289 C   0  0  0  0  0  0  0  0  0  0  0  0
    6.6563  -14.9799   20.9204 C   0  0  0  0  0  0  0  0  0  0  0  0
    7.0997  -13.5457   20.8770 C   0  0  0  0  0  0  0  0  0  0  0  0
    8.6108  -13.5820   21.1441 C   0  0  1  0  0  0  0  0  0  0  0  0
    8.7269  -14.8220   21.9651 C   0  0  0  0  0  0  0  0  0  0  0  0
    8.4512  -14.6429   23.4038 O   0  0  0  0  0  0  0  0  0  0  0  0
    7.2455  -14.5994   23.7592 C   0  0  0  0  0  0  0  0  0  0  0  0
    8.4858  -11.8913   26.8532 C   0  0  1  0  0  0  0  0  0  0  0  0
    7.5659  -12.6015   25.8484 C   0  0  0  0  0  0  0  0  0  0  0  0
    6.1479  -12.1807   26.2241 C   0  0  0  0  0  0  0  0  0  0  0  0
    7.7847  -14.0655   26.0410 C   0  0  2  0  0  0  0  0  0  0  0  0
    9.1908  -14.5365   25.8333 N   0  0  0  0  0  0  0  0  0  0  0  0
    9.4405  -14.5173   24.4039 C   0  0  0  0  0  0  0  0  0  0  0  0
    9.4184  -15.8958   26.3954 O   0  0  0  0  0  0  0  0  0  0  0  0
    9.2628  -16.9531   25.7104 O   0  0  0  0  0  0  0  0  0  0  0  0
  2  1  1  0
  3  2  2  0
  4  2  1  0
  5  6  1  0
  5  4  1  0
  6  7  1  0
  7  8  1  0
  8  9  1  1
 10  8  1  0
 11 10  2  0
 12 10  1  0
 12 16  1  0
 13 14  1  0
 13 12  1  0
 14 15  1  0
 15 16  1  0
 16 17  1  1
 17 18  2  0
 20 19  1  6
 20 22  1  0
 21 20  1  0
 23 22  1  1
 23 24  1  0
 24 17  1  0
 25 23  1  0
 25 27  1  0
 26 25  2  0
M  END
$$$$
