RPL.pdb
     RDKit          3D

 27 27  0  0  1  0  0  0  0  0999 V2000
    9.2740  -21.6668   21.5521 N   0  0  0  0  0  0  0  0  0  0  0  0
    7.8775  -21.6799   21.7970 C   0  0  0  0  0  0  0  0  0  0  0  0
    7.2215  -22.7877   21.8021 N   0  0  0  0  0  0  0  0  0  0  0  0
    7.1833  -20.4651   22.0410 N   0  0  0  0  0  0  0  0  0  0  0  0
    7.8277  -19.1691   21.9070 C   0  0  0  0  0  0  0  0  0  0  0  0
    8.8168  -19.1811   20.7346 C   0  0  0  0  0  0  0  0  0  0  0  0
    8.2864  -18.2382   19.6825 C   0  0  0  0  0  0  0  0  0  0  0  0
    9.3224  -17.2200   19.2495 C   0  0  2  0  0  0  0  0  0  0  0  0
   10.5309  -17.8281   18.7737 N   0  0  0  0  0  0  0  0  0  0  0  0
    9.4853  -16.1378   20.2153 C   0  0  0  0  0  0  0  0  0  0  0  0
   10.6104  -16.0785   20.8059 O   0  0  0  0  0  0  0  0  0  0  0  0
    6.2161  -22.8065   22.0228 N   0  0  0  0  0  0  0  0  0  0  0  0
    8.5155  -15.1464   20.5629 C   0  0  0  0  0  0  0  0  0  0  0  0
    7.1949  -15.0428   20.0268 C   0  0  0  0  0  0  0  0  0  0  0  0
    6.7492  -13.6349   20.2999 C   0  0  0  0  0  0  0  0  0  0  0  0
    7.9785  -12.9293   20.8892 C   0  0  2  0  0  0  0  0  0  0  0  0
    8.6929  -14.0773   21.5193 C   0  0  0  0  0  0  0  0  0  0  0  0
    8.2205  -14.4376   22.8702 O   0  0  0  0  0  0  0  0  0  0  0  0
    7.1572  -15.1047   22.9507 C   0  0  0  0  0  0  0  0  0  0  0  0
    7.5899  -11.9969   26.6588 C   0  0  1  0  0  0  0  0  0  0  0  0
    6.8250  -12.6637   25.5053 C   0  0  0  0  0  0  0  0  0  0  0  0
    5.3563  -12.3189   25.7355 C   0  0  0  0  0  0  0  0  0  0  0  0
    7.0810  -14.1295   25.6238 C   0  0  2  0  0  0  0  0  0  0  0  0
    8.4985  -14.5536   25.3941 N   0  0  0  0  0  0  0  0  0  0  0  0
    8.8744  -14.0877   24.0721 C   0  0  0  0  0  0  0  0  0  0  0  0
    8.6711  -16.0276   25.5082 O   0  0  0  0  0  0  0  0  0  0  0  0
    8.2634  -16.8341   24.6168 O   0  0  0  0  0  0  0  0  0  0  0  0
  2  1  1  0
  3  2  2  0
  4  2  1  0
  5  6  1  0
  5  4  1  0
  6  7  1  0
  7  8  1  0
  8  9  1  1
 10  8  1  0
 11 10  2  0
 12 10  1  0
 12 16  1  0
 13 14  1  0
 13 12  1  0
 14 15  1  0
 15 16  1  0
 16 17  1  1
 17 18  2  0
 20 19  1  6
 20 22  1  0
 21 20  1  0
 23 22  1  1
 23 24  1  0
 24 17  1  0
 25 23  1  0
 25 27  1  0
 26 25  2  0
M  END
$$$$
