RPL.pdb
     RDKit          3D

 27 27  0  0  1  0  0  0  0  0999 V2000
    6.7879  -21.8394   25.1867 N   0  0  0  0  0  0  0  0  0  0  0  0
    7.0423  -20.4739   24.9017 C   0  0  0  0  0  0  0  0  0  0  0  0
    8.2198  -19.9779   25.0596 N   0  0  0  0  0  0  0  0  0  0  0  0
    5.9959  -19.6340   24.4361 N   0  0  0  0  0  0  0  0  0  0  0  0
    5.3422  -19.8547   23.1566 C   0  0  0  0  0  0  0  0  0  0  0  0
    6.2952  -19.5176   22.0028 C   0  0  0  0  0  0  0  0  0  0  0  0
    6.0633  -18.0742   21.6286 C   0  0  0  0  0  0  0  0  0  0  0  0
    6.9649  -17.6228   20.4968 C   0  0  2  0  0  0  0  0  0  0  0  0
    7.3595  -18.7024   19.6393 N   0  0  0  0  0  0  0  0  0  0  0  0
    8.0341  -16.7378   20.9484 C   0  0  0  0  0  0  0  0  0  0  0  0
    9.1945  -17.2538   21.0235 O   0  0  0  0  0  0  0  0  0  0  0  0
    8.3921  -18.9713   24.9291 N   0  0  0  0  0  0  0  0  0  0  0  0
    7.9101  -15.3611   21.3134 C   0  0  0  0  0  0  0  0  0  0  0  0
    6.6896  -14.6217   21.3898 C   0  0  0  0  0  0  0  0  0  0  0  0
    7.0812  -13.1733   21.3274 C   0  0  0  0  0  0  0  0  0  0  0  0
    8.5924  -13.1748   21.0581 C   0  0  2  0  0  0  0  0  0  0  0  0
    8.9919  -14.4730   21.6748 C   0  0  0  0  0  0  0  0  0  0  0  0
    9.2257  -14.4236   23.1310 O   0  0  0  0  0  0  0  0  0  0  0  0
   10.2171  -13.7629   23.5341 C   0  0  0  0  0  0  0  0  0  0  0  0
    7.9252  -12.1341   26.3569 C   0  0  2  0  0  0  0  0  0  0  0  0
    6.9907  -13.1566   25.6924 C   0  0  0  0  0  0  0  0  0  0  0  0
    5.5871  -12.8011   26.1744 C   0  0  0  0  0  0  0  0  0  0  0  0
    7.4255  -14.4998   26.1772 C   0  0  2  0  0  0  0  0  0  0  0  0
    8.6597  -15.0467   25.5294 N   0  0  0  0  0  0  0  0  0  0  0  0
    8.4192  -15.0628   24.0984 C   0  0  0  0  0  0  0  0  0  0  0  0
    9.0015  -16.4071   26.0273 O   0  0  0  0  0  0  0  0  0  0  0  0
    8.6953  -17.4634   25.3933 O   0  0  0  0  0  0  0  0  0  0  0  0
  2  1  1  0
  3  2  2  0
  4  2  1  0
  5  6  1  0
  5  4  1  0
  6  7  1  0
  7  8  1  0
  8  9  1  1
 10  8  1  0
 11 10  2  0
 12 10  1  0
 12 16  1  0
 13 14  1  0
 13 12  1  0
 14 15  1  0
 15 16  1  0
 16 17  1  1
 17 18  2  0
 20 19  1  6
 20 22  1  0
 21 20  1  0
 23 22  1  6
 23 24  1  0
 24 17  1  0
 25 23  1  0
 25 27  1  0
 26 25  2  0
M  END
$$$$
