RPL.pdb
     RDKit          3D

 27 27  0  0  1  0  0  0  0  0999 V2000
    4.1274  -21.4737   17.1525 N   0  0  0  0  0  0  0  0  0  0  0  0
    4.7341  -20.3877   17.8329 C   0  0  0  0  0  0  0  0  0  0  0  0
    5.2168  -19.3894   17.1788 N   0  0  0  0  0  0  0  0  0  0  0  0
    4.8159  -20.3888   19.2509 N   0  0  0  0  0  0  0  0  0  0  0  0
    5.3926  -19.2781   19.9903 C   0  0  0  0  0  0  0  0  0  0  0  0
    6.6288  -18.7343   19.2629 C   0  0  0  0  0  0  0  0  0  0  0  0
    7.2368  -17.6649   20.1368 C   0  0  0  0  0  0  0  0  0  0  0  0
    8.3952  -16.9601   19.4595 C   0  0  2  0  0  0  0  0  0  0  0  0
    9.2709  -17.8666   18.7754 N   0  0  0  0  0  0  0  0  0  0  0  0
    9.0383  -15.9762   20.3247 C   0  0  0  0  0  0  0  0  0  0  0  0
   10.2479  -16.2126   20.6399 O   0  0  0  0  0  0  0  0  0  0  0  0
    5.7474  -18.6489   17.6585 N   0  0  0  0  0  0  0  0  0  0  0  0
    8.4507  -14.7837   20.8509 C   0  0  0  0  0  0  0  0  0  0  0  0
    7.0782  -14.4036   20.7319 C   0  0  0  0  0  0  0  0  0  0  0  0
    7.0371  -12.9245   20.9882 C   0  0  0  0  0  0  0  0  0  0  0  0
    8.5058  -12.4941   21.1063 C   0  0  1  0  0  0  0  0  0  0  0  0
    9.1345  -13.7537   21.5997 C   0  0  0  0  0  0  0  0  0  0  0  0
    9.0511  -13.9600   23.0586 O   0  0  0  0  0  0  0  0  0  0  0  0
    9.9030  -13.3728   23.7739 C   0  0  0  0  0  0  0  0  0  0  0  0
    7.9076  -12.3758   26.5993 C   0  0  2  0  0  0  0  0  0  0  0  0
    6.8727  -12.8850   25.5844 C   0  0  0  0  0  0  0  0  0  0  0  0
    5.5426  -12.2735   26.0152 C   0  0  0  0  0  0  0  0  0  0  0  0
    6.8681  -14.3732   25.7003 C   0  0  2  0  0  0  0  0  0  0  0  0
    8.0646  -15.0649   25.1242 N   0  0  0  0  0  0  0  0  0  0  0  0
    8.0878  -14.7660   23.7043 C   0  0  0  0  0  0  0  0  0  0  0  0
    8.0329  -16.5345   25.3585 O   0  0  0  0  0  0  0  0  0  0  0  0
    8.0460  -17.0410   26.5224 O   0  0  0  0  0  0  0  0  0  0  0  0
  2  1  1  0
  3  2  2  0
  4  2  1  0
  5  6  1  0
  5  4  1  0
  6  7  1  0
  7  8  1  0
  8  9  1  1
 10  8  1  0
 11 10  2  0
 12 10  1  0
 12 16  1  0
 13 14  1  0
 13 12  1  0
 14 15  1  0
 15 16  1  0
 16 17  1  1
 17 18  2  0
 20 19  1  6
 20 22  1  0
 21 20  1  0
 23 22  1  1
 23 24  1  0
 24 17  1  0
 25 23  1  0
 25 27  1  0
 26 25  2  0
M  END
$$$$
