RPL.pdb
     RDKit          3D

 27 27  0  0  1  0  0  0  0  0999 V2000
   10.3826  -20.4875   15.8669 N   0  0  0  0  0  0  0  0  0  0  0  0
    9.4703  -21.3504   16.5254 C   0  0  0  0  0  0  0  0  0  0  0  0
    8.6630  -22.0920   15.8504 N   0  0  0  0  0  0  0  0  0  0  0  0
    9.4372  -21.4069   17.9442 N   0  0  0  0  0  0  0  0  0  0  0  0
    9.0043  -20.2776   18.7505 C   0  0  0  0  0  0  0  0  0  0  0  0
    9.6705  -18.9846   18.2633 C   0  0  0  0  0  0  0  0  0  0  0  0
    9.1872  -17.8625   19.1490 C   0  0  0  0  0  0  0  0  0  0  0  0
   10.2110  -16.7524   19.2791 C   0  0  2  0  0  0  0  0  0  0  0  0
   11.5603  -17.2326   19.2064 N   0  0  0  0  0  0  0  0  0  0  0  0
    9.9130  -15.8385   20.3776 C   0  0  0  0  0  0  0  0  0  0  0  0
   10.7984  -15.7474   21.2865 O   0  0  0  0  0  0  0  0  0  0  0  0
    7.9836  -22.7031   16.3246 N   0  0  0  0  0  0  0  0  0  0  0  0
    8.7357  -15.0428   20.5348 C   0  0  0  0  0  0  0  0  0  0  0  0
    7.5560  -15.1253   19.7325 C   0  0  0  0  0  0  0  0  0  0  0  0
    6.8265  -13.8289   19.9387 C   0  0  0  0  0  0  0  0  0  0  0  0
    7.7670  -12.9679   20.7934 C   0  0  1  0  0  0  0  0  0  0  0  0
    8.5245  -14.0189   21.5330 C   0  0  0  0  0  0  0  0  0  0  0  0
    7.8541  -14.5329   22.7430 O   0  0  0  0  0  0  0  0  0  0  0  0
    7.3499  -15.6835   22.6785 C   0  0  0  0  0  0  0  0  0  0  0  0
    6.1119  -12.3009   25.4203 C   0  0  1  0  0  0  0  0  0  0  0  0
    7.0143  -12.6755   26.6058 C   0  0  0  0  0  0  0  0  0  0  0  0
    6.9655  -11.4783   27.5509 C   0  0  0  0  0  0  0  0  0  0  0  0
    8.3803  -12.8886   26.0427 C   0  0  1  0  0  0  0  0  0  0  0  0
    8.5276  -14.0833   25.1523 N   0  0  0  0  0  0  0  0  0  0  0  0
    7.7391  -13.8277   23.9612 C   0  0  0  0  0  0  0  0  0  0  0  0
    8.0918  -15.3404   25.8197 O   0  0  0  0  0  0  0  0  0  0  0  0
    8.6795  -15.8101   26.8421 O   0  0  0  0  0  0  0  0  0  0  0  0
  2  1  1  0
  3  2  2  0
  4  2  1  0
  5  6  1  0
  5  4  1  0
  6  7  1  0
  7  8  1  0
  8  9  1  1
 10  8  1  0
 11 10  2  0
 12 10  1  0
 12 16  1  0
 13 14  1  0
 13 12  1  0
 14 15  1  0
 15 16  1  0
 16 17  1  1
 17 18  2  0
 20 19  1  1
 20 22  1  0
 21 20  1  0
 23 22  1  6
 23 24  1  0
 24 17  1  0
 25 23  1  0
 25 27  1  0
 26 25  2  0
M  END
$$$$
