RPL.pdb
     RDKit          3D

 27 27  0  0  1  0  0  0  0  0999 V2000
   11.1279  -14.1461   17.8387 N   0  0  0  0  0  0  0  0  0  0  0  0
   10.2694  -13.1221   18.3127 C   0  0  0  0  0  0  0  0  0  0  0  0
   10.6836  -12.2668   19.1813 N   0  0  0  0  0  0  0  0  0  0  0  0
    8.9363  -13.0277   17.8318 N   0  0  0  0  0  0  0  0  0  0  0  0
    7.7894  -13.0936   18.7224 C   0  0  0  0  0  0  0  0  0  0  0  0
    7.4539  -14.5526   19.0569 C   0  0  0  0  0  0  0  0  0  0  0  0
    7.7011  -14.7491   20.5326 C   0  0  0  0  0  0  0  0  0  0  0  0
    7.2254  -16.1036   21.0188 C   0  0  2  0  0  0  0  0  0  0  0  0
    5.8794  -16.3941   20.6183 N   0  0  0  0  0  0  0  0  0  0  0  0
    7.5424  -16.3398   22.4239 C   0  0  0  0  0  0  0  0  0  0  0  0
    6.5792  -16.2112   23.2449 O   0  0  0  0  0  0  0  0  0  0  0  0
   10.0500  -11.5510   19.5632 N   0  0  0  0  0  0  0  0  0  0  0  0
    8.8159  -16.6968   22.9667 C   0  0  0  0  0  0  0  0  0  0  0  0
   10.0418  -16.7854   22.2377 C   0  0  0  0  0  0  0  0  0  0  0  0
   10.9578  -17.6320   23.0740 C   0  0  0  0  0  0  0  0  0  0  0  0
   10.0948  -18.1274   24.2428 C   0  0  2  0  0  0  0  0  0  0  0  0
    9.0937  -17.0264   24.3464 C   0  0  0  0  0  0  0  0  0  0  0  0
    9.5339  -15.8581   25.1333 O   0  0  0  0  0  0  0  0  0  0  0  0
   10.5141  -15.2032   24.6948 C   0  0  0  0  0  0  0  0  0  0  0  0
    8.4186  -12.0986   25.3698 C   0  0  2  0  0  0  0  0  0  0  0  0
    7.5114  -13.0346   26.1828 C   0  0  0  0  0  0  0  0  0  0  0  0
    6.2718  -12.2109   26.5204 C   0  0  0  0  0  0  0  0  0  0  0  0
    8.2830  -13.4108   27.4040 C   0  0  2  0  0  0  0  0  0  0  0  0
    9.4275  -14.3488   27.1757 N   0  0  0  0  0  0  0  0  0  0  0  0
    8.9355  -15.4264   26.3376 C   0  0  0  0  0  0  0  0  0  0  0  0
    9.9852  -14.8778   28.4504 O   0  0  0  0  0  0  0  0  0  0  0  0
    9.7844  -16.0685   28.8417 O   0  0  0  0  0  0  0  0  0  0  0  0
  2  1  1  0
  3  2  2  0
  4  2  1  0
  5  6  1  0
  5  4  1  0
  6  7  1  0
  7  8  1  0
  8  9  1  1
 10  8  1  0
 11 10  2  0
 12 10  1  0
 12 16  1  0
 13 14  1  0
 13 12  1  0
 14 15  1  0
 15 16  1  0
 16 17  1  1
 17 18  2  0
 20 19  1  6
 20 22  1  0
 21 20  1  0
 23 22  1  6
 23 24  1  0
 24 17  1  0
 25 23  1  0
 25 27  1  0
 26 25  2  0
M  END
$$$$
