RPL.pdb
     RDKit          3D

 27 27  0  0  1  0  0  0  0  0999 V2000
    2.9863  -20.8991   19.0041 N   0  0  0  0  0  0  0  0  0  0  0  0
    2.9498  -19.8869   19.9965 C   0  0  0  0  0  0  0  0  0  0  0  0
    1.9327  -19.1045   20.1001 N   0  0  0  0  0  0  0  0  0  0  0  0
    4.0402  -19.7245   20.8920 N   0  0  0  0  0  0  0  0  0  0  0  0
    5.2079  -20.5891   20.8491 C   0  0  0  0  0  0  0  0  0  0  0  0
    6.3186  -19.9481   20.0073 C   0  0  0  0  0  0  0  0  0  0  0  0
    6.9030  -18.8141   20.8134 C   0  0  0  0  0  0  0  0  0  0  0  0
    8.0524  -18.1336   20.0970 C   0  0  2  0  0  0  0  0  0  0  0  0
    8.9182  -19.0634   19.4318 N   0  0  0  0  0  0  0  0  0  0  0  0
    8.7078  -17.1218   20.9200 C   0  0  0  0  0  0  0  0  0  0  0  0
    9.9652  -17.2475   21.0670 O   0  0  0  0  0  0  0  0  0  0  0  0
    1.9182  -18.3443   20.7942 N   0  0  0  0  0  0  0  0  0  0  0  0
    8.0845  -16.0135   21.5735 C   0  0  0  0  0  0  0  0  0  0  0  0
    6.6889  -15.7065   21.5535 C   0  0  0  0  0  0  0  0  0  0  0  0
    6.5805  -14.2585   21.9366 C   0  0  0  0  0  0  0  0  0  0  0  0
    8.0277  -13.7535   22.0202 C   0  0  1  0  0  0  0  0  0  0  0  0
    8.7496  -15.0101   22.3736 C   0  0  0  0  0  0  0  0  0  0  0  0
    8.7549  -15.3404   23.8119 O   0  0  0  0  0  0  0  0  0  0  0  0
    7.7474  -15.9377   24.2705 C   0  0  0  0  0  0  0  0  0  0  0  0
    8.8454  -13.2987   29.0248 C   0  0  1  0  0  0  0  0  0  0  0  0
    9.5866  -14.4945   28.4076 C   0  0  0  0  0  0  0  0  0  0  0  0
   10.9803  -14.4765   29.0288 C   0  0  0  0  0  0  0  0  0  0  0  0
    9.6267  -14.2492   26.9357 C   0  0  2  0  0  0  0  0  0  0  0  0
    9.8753  -15.4598   26.0904 N   0  0  0  0  0  0  0  0  0  0  0  0
    9.8056  -15.0343   24.7047 C   0  0  0  0  0  0  0  0  0  0  0  0
    8.8969  -16.5478   26.3631 O   0  0  0  0  0  0  0  0  0  0  0  0
    7.6772  -16.4716   26.0198 O   0  0  0  0  0  0  0  0  0  0  0  0
  2  1  1  0
  3  2  2  0
  4  2  1  0
  5  6  1  0
  5  4  1  0
  6  7  1  0
  7  8  1  0
  8  9  1  1
 10  8  1  0
 11 10  2  0
 12 10  1  0
 12 16  1  0
 13 14  1  0
 13 12  1  0
 14 15  1  0
 15 16  1  0
 16 17  1  1
 17 18  2  0
 20 19  1  1
 20 22  1  0
 21 20  1  0
 23 22  1  1
 23 24  1  0
 24 17  1  0
 25 23  1  0
 25 27  1  0
 26 25  2  0
M  END
$$$$
