RPL.pdb
     RDKit          3D

 27 27  0  0  1  0  0  0  0  0999 V2000
    8.6350  -14.5713   14.4035 N   0  0  0  0  0  0  0  0  0  0  0  0
    8.3460  -14.6466   15.7896 C   0  0  0  0  0  0  0  0  0  0  0  0
    8.2099  -13.5762   16.4917 N   0  0  0  0  0  0  0  0  0  0  0  0
    8.2023  -15.9103   16.4219 N   0  0  0  0  0  0  0  0  0  0  0  0
    9.1724  -16.4049   17.3848 C   0  0  0  0  0  0  0  0  0  0  0  0
    8.5049  -16.6394   18.7459 C   0  0  0  0  0  0  0  0  0  0  0  0
    9.5786  -17.0850   19.7081 C   0  0  0  0  0  0  0  0  0  0  0  0
   10.5196  -15.9566   20.0807 C   0  0  2  0  0  0  0  0  0  0  0  0
   11.8697  -16.2013   19.6637 N   0  0  0  0  0  0  0  0  0  0  0  0
   10.3443  -15.5104   21.4593 C   0  0  0  0  0  0  0  0  0  0  0  0
   11.4018  -15.4336   22.1622 O   0  0  0  0  0  0  0  0  0  0  0  0
    8.0144  -13.6265   17.5012 N   0  0  0  0  0  0  0  0  0  0  0  0
    9.1140  -15.1549   22.0950 C   0  0  0  0  0  0  0  0  0  0  0  0
    7.8039  -15.3960   21.5775 C   0  0  0  0  0  0  0  0  0  0  0  0
    6.8920  -14.4551   22.3113 C   0  0  0  0  0  0  0  0  0  0  0  0
    7.8190  -13.5740   23.1601 C   0  0  1  0  0  0  0  0  0  0  0  0
    8.9732  -14.4947   23.3732 C   0  0  0  0  0  0  0  0  0  0  0  0
    8.8120  -15.4454   24.4903 O   0  0  0  0  0  0  0  0  0  0  0  0
    8.1999  -16.5180   24.2513 C   0  0  0  0  0  0  0  0  0  0  0  0
   11.3645  -13.5467   28.8892 C   0  0  1  0  0  0  0  0  0  0  0  0
   10.4507  -14.0552   27.7638 C   0  0  0  0  0  0  0  0  0  0  0  0
    9.0562  -13.5371   28.1039 C   0  0  0  0  0  0  0  0  0  0  0  0
   10.5201  -15.5457   27.8079 C   0  0  1  0  0  0  0  0  0  0  0  0
    9.9087  -16.2510   26.6371 N   0  0  0  0  0  0  0  0  0  0  0  0
    9.2935  -15.2366   25.8015 C   0  0  0  0  0  0  0  0  0  0  0  0
    8.9114  -17.2743   27.0540 O   0  0  0  0  0  0  0  0  0  0  0  0
    7.6627  -17.1190   26.8865 O   0  0  0  0  0  0  0  0  0  0  0  0
  2  1  1  0
  3  2  2  0
  4  2  1  0
  5  6  1  0
  5  4  1  0
  6  7  1  0
  7  8  1  0
  8  9  1  1
 10  8  1  0
 11 10  2  0
 12 10  1  0
 12 16  1  0
 13 14  1  0
 13 12  1  0
 14 15  1  0
 15 16  1  0
 16 17  1  1
 17 18  2  0
 20 19  1  6
 20 22  1  0
 21 20  1  0
 23 22  1  6
 23 24  1  0
 24 17  1  0
 25 23  1  0
 25 27  1  0
 26 25  2  0
M  END
$$$$
