THT.pdb
     RDKit          3D

 25 25  0  0  1  0  0  0  0  0999 V2000
   10.9525  -20.5258   17.0865 C   0  0  0  0  0  0  0  0  0  0  0  0
   11.1391  -19.5772   18.2330 C   0  0  1  0  0  0  0  0  0  0  0  0
   12.2913  -19.8742   18.9553 O   0  0  0  0  0  0  0  0  0  0  0  0
   11.1988  -18.1403   17.8029 C   0  0  2  0  0  0  0  0  0  0  0  0
   12.2505  -17.8468   16.8819 N   0  0  0  0  0  0  0  0  0  0  0  0
   11.2622  -17.2758   19.0213 C   0  0  0  0  0  0  0  0  0  0  0  0
   12.2847  -16.6177   19.3380 O   0  0  0  0  0  0  0  0  0  0  0  0
   10.1440  -17.1796   19.8624 N   0  0  0  0  0  0  0  0  0  0  0  0
   10.1637  -16.2393   21.0139 C   0  0  1  0  0  0  0  0  0  0  0  0
    8.8384  -15.5767   21.0830 C   0  0  0  0  0  0  0  0  0  0  0  0
    8.5793  -14.4051   20.2667 C   0  0  0  0  0  0  0  0  0  0  0  0
    9.5153  -13.7372   19.4516 C   0  0  0  0  0  0  0  0  0  0  0  0
    8.9241  -12.7046   18.8484 N   0  0  0  0  0  0  0  0  0  0  0  0
    7.6460  -12.6935   19.2517 C   0  0  0  0  0  0  0  0  0  0  0  0
    7.4642  -13.7159   20.0962 N   0  0  0  0  0  0  0  0  0  0  0  0
   10.3306  -17.1512   22.1781 C   0  0  0  0  0  0  0  0  0  0  0  0
    9.4597  -18.1069   22.2774 O   0  0  0  0  0  0  0  0  0  0  0  0
   12.9951  -19.3899   22.8350 C   0  0  0  0  0  0  0  0  0  0  0  0
   12.7915  -18.6856   24.1409 C   0  0  1  0  0  0  0  0  0  0  0  0
   13.7108  -17.6132   24.1914 O   0  0  0  0  0  0  0  0  0  0  0  0
   11.3831  -18.1174   24.2061 C   0  0  2  0  0  0  0  0  0  0  0  0
   11.3196  -17.0878   23.1585 N   0  0  0  0  0  0  0  0  0  0  0  0
   11.0903  -17.5254   25.5237 C   0  0  0  0  0  0  0  0  0  0  0  0
   10.9976  -18.3008   26.6467 O   0  0  0  0  0  0  0  0  0  0  0  0
   10.9214  -16.2831   25.6237 O   0  0  0  0  0  0  0  0  0  0  0  0
  2  1  1  6
  3  2  1  0
  4  2  1  0
  4  5  1  6
  4  6  1  0
  6  7  2  0
  8  6  1  0
  8  9  1  0
  9 16  1  0
 10 11  1  0
  9 10  1  1
 11 15  1  0
 12 11  2  0
 12 13  1  0
 13 14  1  0
 15 14  2  0
 16 17  2  0
 19 18  1  6
 19 21  1  0
 20 19  1  0
 21 23  1  0
 22 16  1  0
 21 22  1  6
 23 25  2  0
 23 24  1  0
M  END
$$$$
