THT.pdb
     RDKit          3D

 25 25  0  0  1  0  0  0  0  0999 V2000
    8.6470  -12.5306   19.4218 C   0  0  0  0  0  0  0  0  0  0  0  0
    8.0438  -13.4445   18.3971 C   0  0  1  0  0  0  0  0  0  0  0  0
    7.1126  -12.7769   17.6068 O   0  0  0  0  0  0  0  0  0  0  0  0
    9.0672  -14.0793   17.5011 C   0  0  2  0  0  0  0  0  0  0  0  0
    8.5148  -14.8122   16.4064 N   0  0  0  0  0  0  0  0  0  0  0  0
    9.9814  -14.9193   18.3345 C   0  0  0  0  0  0  0  0  0  0  0  0
    9.7935  -16.1467   18.5269 O   0  0  0  0  0  0  0  0  0  0  0  0
   11.1039  -14.3337   18.9377 N   0  0  0  0  0  0  0  0  0  0  0  0
   12.0054  -15.1611   19.7823 C   0  0  1  0  0  0  0  0  0  0  0  0
   13.3519  -14.5392   19.7554 C   0  0  0  0  0  0  0  0  0  0  0  0
   14.2021  -14.7205   18.5933 C   0  0  0  0  0  0  0  0  0  0  0  0
   14.1086  -15.7640   17.6504 C   0  0  0  0  0  0  0  0  0  0  0  0
   15.0514  -15.6090   16.7193 N   0  0  0  0  0  0  0  0  0  0  0  0
   15.7399  -14.5041   17.0379 C   0  0  0  0  0  0  0  0  0  0  0  0
   15.2157  -13.9920   18.1579 N   0  0  0  0  0  0  0  0  0  0  0  0
   11.4108  -15.0128   21.1384 C   0  0  0  0  0  0  0  0  0  0  0  0
   11.8899  -14.0506   21.8639 O   0  0  0  0  0  0  0  0  0  0  0  0
    8.0377  -14.2494   22.3736 C   0  0  0  0  0  0  0  0  0  0  0  0
    8.4759  -15.4955   23.0791 C   0  0  1  0  0  0  0  0  0  0  0  0
    7.9803  -16.5956   22.3429 O   0  0  0  0  0  0  0  0  0  0  0  0
    9.9941  -15.5712   23.0967 C   0  0  2  0  0  0  0  0  0  0  0  0
   10.3986  -15.7894   21.7002 N   0  0  0  0  0  0  0  0  0  0  0  0
   10.4791  -16.6723   23.9480 C   0  0  0  0  0  0  0  0  0  0  0  0
   10.2495  -16.6826   25.2963 O   0  0  0  0  0  0  0  0  0  0  0  0
   11.1175  -17.6242   23.4298 O   0  0  0  0  0  0  0  0  0  0  0  0
  2  1  1  1
  3  2  1  0
  4  2  1  0
  4  5  1  6
  4  6  1  0
  6  7  2  0
  8  6  1  0
  8  9  1  0
  9 16  1  0
 10 11  1  0
  9 10  1  1
 11 15  1  0
 12 11  2  0
 12 13  1  0
 13 14  1  0
 15 14  2  0
 16 17  2  0
 19 18  1  6
 19 21  1  0
 20 19  1  0
 21 23  1  0
 22 16  1  0
 21 22  1  6
 23 25  2  0
 23 24  1  0
M  END
$$$$
