THT.pdb
     RDKit          3D

 25 25  0  0  1  0  0  0  0  0999 V2000
    8.5662  -12.5237   20.6249 C   0  0  0  0  0  0  0  0  0  0  0  0
    7.8081  -13.4098   19.6821 C   0  0  1  0  0  0  0  0  0  0  0  0
    7.8720  -12.9337   18.3757 O   0  0  0  0  0  0  0  0  0  0  0  0
    8.2874  -14.8322   19.6989 C   0  0  2  0  0  0  0  0  0  0  0  0
    7.6630  -15.6733   18.7278 N   0  0  0  0  0  0  0  0  0  0  0  0
    8.1422  -15.3723   21.0857 C   0  0  0  0  0  0  0  0  0  0  0  0
    7.1229  -15.9982   21.4704 O   0  0  0  0  0  0  0  0  0  0  0  0
    9.1757  -15.1845   22.0149 N   0  0  0  0  0  0  0  0  0  0  0  0
    9.1465  -15.9129   23.3107 C   0  0  1  0  0  0  0  0  0  0  0  0
   10.4460  -16.6101   23.4702 C   0  0  0  0  0  0  0  0  0  0  0  0
   10.6013  -17.9615   22.9647 C   0  0  0  0  0  0  0  0  0  0  0  0
    9.6811  -19.0177   23.1211 C   0  0  0  0  0  0  0  0  0  0  0  0
   10.1554  -20.1136   22.5261 N   0  0  0  0  0  0  0  0  0  0  0  0
   11.3439  -19.7902   21.9976 C   0  0  0  0  0  0  0  0  0  0  0  0
   11.5883  -18.5032   22.2717 N   0  0  0  0  0  0  0  0  0  0  0  0
    9.0431  -14.8096   24.3040 C   0  0  0  0  0  0  0  0  0  0  0  0
    9.9338  -13.8725   24.2031 O   0  0  0  0  0  0  0  0  0  0  0  0
    6.4351  -12.1946   25.1754 C   0  0  0  0  0  0  0  0  0  0  0  0
    6.7688  -13.0100   26.3863 C   0  0  1  0  0  0  0  0  0  0  0  0
    5.8669  -14.0976   26.4262 O   0  0  0  0  0  0  0  0  0  0  0  0
    8.1813  -13.5586   26.2652 C   0  0  2  0  0  0  0  0  0  0  0  0
    8.0941  -14.6785   25.3167 N   0  0  0  0  0  0  0  0  0  0  0  0
    8.7019  -14.0261   27.5624 C   0  0  0  0  0  0  0  0  0  0  0  0
    9.1025  -15.3215   27.7425 O   0  0  0  0  0  0  0  0  0  0  0  0
    8.7817  -13.2225   28.5267 O   0  0  0  0  0  0  0  0  0  0  0  0
  2  1  1  1
  3  2  1  0
  4  2  1  0
  4  5  1  6
  4  6  1  0
  6  7  2  0
  8  6  1  0
  8  9  1  0
  9 16  1  0
 10 11  1  0
  9 10  1  1
 11 15  1  0
 12 11  2  0
 12 13  1  0
 13 14  1  0
 15 14  2  0
 16 17  2  0
 19 18  1  6
 19 21  1  0
 20 19  1  0
 21 23  1  0
 22 16  1  0
 21 22  1  6
 23 25  2  0
 23 24  1  0
M  END
$$$$
