THT.pdb
     RDKit          3D

 25 25  0  0  1  0  0  0  0  0999 V2000
    7.1797  -12.5211   19.0351 C   0  0  0  0  0  0  0  0  0  0  0  0
    8.1672  -13.6372   18.8668 C   0  0  1  0  0  0  0  0  0  0  0  0
    8.8848  -13.5058   17.6814 O   0  0  0  0  0  0  0  0  0  0  0  0
    9.1381  -13.7395   20.0071 C   0  0  2  0  0  0  0  0  0  0  0  0
   10.3137  -14.4949   19.7108 N   0  0  0  0  0  0  0  0  0  0  0  0
    8.4180  -14.2690   21.2059 C   0  0  0  0  0  0  0  0  0  0  0  0
    7.2938  -13.8418   21.5698 O   0  0  0  0  0  0  0  0  0  0  0  0
    9.0032  -15.2869   21.9728 N   0  0  0  0  0  0  0  0  0  0  0  0
    8.2441  -15.8944   23.0977 C   0  0  1  0  0  0  0  0  0  0  0  0
    8.7838  -17.2568   23.3276 C   0  0  0  0  0  0  0  0  0  0  0  0
    8.5211  -18.3048   22.3586 C   0  0  0  0  0  0  0  0  0  0  0  0
    7.7515  -18.1768   21.1847 C   0  0  0  0  0  0  0  0  0  0  0  0
    7.7278  -19.3434   20.5381 N   0  0  0  0  0  0  0  0  0  0  0  0
    8.4550  -20.2072   21.2599 C   0  0  0  0  0  0  0  0  0  0  0  0
    8.9174  -19.5659   22.3398 N   0  0  0  0  0  0  0  0  0  0  0  0
    8.5979  -15.0141   24.2443 C   0  0  0  0  0  0  0  0  0  0  0  0
    9.8118  -14.5580   24.2538 O   0  0  0  0  0  0  0  0  0  0  0  0
    7.0800  -11.7910   25.5553 C   0  0  0  0  0  0  0  0  0  0  0  0
    7.1927  -12.7746   26.6790 C   0  0  1  0  0  0  0  0  0  0  0  0
    5.9619  -13.4643   26.7630 O   0  0  0  0  0  0  0  0  0  0  0  0
    8.2903  -13.7813   26.3749 C   0  0  2  0  0  0  0  0  0  0  0  0
    7.7657  -14.6289   25.2943 N   0  0  0  0  0  0  0  0  0  0  0  0
    8.6242  -14.6021   27.5527 C   0  0  0  0  0  0  0  0  0  0  0  0
    9.1401  -14.0399   28.6879 O   0  0  0  0  0  0  0  0  0  0  0  0
    8.4330  -15.8448   27.5192 O   0  0  0  0  0  0  0  0  0  0  0  0
  2  1  1  1
  3  2  1  0
  4  2  1  0
  4  5  1  6
  4  6  1  0
  6  7  2  0
  8  6  1  0
  8  9  1  0
  9 16  1  0
 10 11  1  0
  9 10  1  1
 11 15  1  0
 12 11  2  0
 12 13  1  0
 13 14  1  0
 15 14  2  0
 16 17  2  0
 19 18  1  6
 19 21  1  0
 20 19  1  0
 21 23  1  0
 22 16  1  0
 21 22  1  6
 23 25  2  0
 23 24  1  0
M  END
$$$$
