THT.pdb
     RDKit          3D

 25 25  0  0  1  0  0  0  0  0999 V2000
    4.3933  -17.6152   20.2815 C   0  0  0  0  0  0  0  0  0  0  0  0
    5.8501  -17.4454   20.5945 C   0  0  1  0  0  0  0  0  0  0  0  0
    6.1033  -17.6325   21.9503 O   0  0  0  0  0  0  0  0  0  0  0  0
    6.7317  -18.3720   19.8088 C   0  0  2  0  0  0  0  0  0  0  0  0
    6.3789  -19.7518   19.9194 N   0  0  0  0  0  0  0  0  0  0  0  0
    8.1550  -18.1240   20.1942 C   0  0  0  0  0  0  0  0  0  0  0  0
    8.7921  -18.8778   20.9719 O   0  0  0  0  0  0  0  0  0  0  0  0
    8.8288  -17.0077   19.6778 N   0  0  0  0  0  0  0  0  0  0  0  0
   10.2421  -16.7535   20.0635 C   0  0  1  0  0  0  0  0  0  0  0  0
   10.7946  -15.7438   19.1278 C   0  0  0  0  0  0  0  0  0  0  0  0
   12.1883  -15.3539   19.2350 C   0  0  0  0  0  0  0  0  0  0  0  0
   13.1070  -15.8120   20.2009 C   0  0  0  0  0  0  0  0  0  0  0  0
   14.2945  -15.2410   19.9924 N   0  0  0  0  0  0  0  0  0  0  0  0
   14.1621  -14.4367   18.9285 C   0  0  0  0  0  0  0  0  0  0  0  0
   12.8988  -14.5206   18.4944 N   0  0  0  0  0  0  0  0  0  0  0  0
   10.1090  -16.1599   21.4216 C   0  0  0  0  0  0  0  0  0  0  0  0
    9.4102  -15.0701   21.4966 O   0  0  0  0  0  0  0  0  0  0  0  0
    8.1363  -15.4423   23.4018 C   0  0  0  0  0  0  0  0  0  0  0  0
    9.1037  -16.0968   24.3391 C   0  0  1  0  0  0  0  0  0  0  0  0
    8.8357  -17.4844   24.3233 O   0  0  0  0  0  0  0  0  0  0  0  0
   10.5258  -15.8743   23.8504 C   0  0  2  0  0  0  0  0  0  0  0  0
   10.6473  -16.6530   22.6092 N   0  0  0  0  0  0  0  0  0  0  0  0
   11.5226  -16.3262   24.8376 C   0  0  0  0  0  0  0  0  0  0  0  0
   11.6733  -15.6890   26.0384 O   0  0  0  0  0  0  0  0  0  0  0  0
   12.2521  -17.3169   24.5760 O   0  0  0  0  0  0  0  0  0  0  0  0
  2  1  1  1
  3  2  1  0
  4  2  1  0
  4  5  1  1
  4  6  1  0
  6  7  2  0
  8  6  1  0
  8  9  1  0
  9 16  1  0
 10 11  1  0
  9 10  1  6
 11 15  1  0
 12 11  2  0
 12 13  1  0
 13 14  1  0
 15 14  2  0
 16 17  2  0
 19 18  1  6
 19 21  1  0
 20 19  1  0
 21 23  1  0
 22 16  1  0
 21 22  1  6
 23 25  2  0
 23 24  1  0
M  END
$$$$
