THT.pdb
     RDKit          3D

 25 25  0  0  1  0  0  0  0  0999 V2000
    9.0198  -19.1253   15.1283 C   0  0  0  0  0  0  0  0  0  0  0  0
    9.9221  -18.0600   15.6760 C   0  0  1  0  0  0  0  0  0  0  0  0
   11.2476  -18.2814   15.3131 O   0  0  0  0  0  0  0  0  0  0  0  0
    9.5298  -16.6776   15.2420 C   0  0  2  0  0  0  0  0  0  0  0  0
    9.4125  -16.5179   13.8274 N   0  0  0  0  0  0  0  0  0  0  0  0
   10.4862  -15.6961   15.8403 C   0  0  0  0  0  0  0  0  0  0  0  0
   11.3351  -15.0689   15.1585 O   0  0  0  0  0  0  0  0  0  0  0  0
   10.4531  -15.4485   17.2203 N   0  0  0  0  0  0  0  0  0  0  0  0
   11.3337  -14.4029   17.8052 C   0  0  1  0  0  0  0  0  0  0  0  0
   10.6562  -13.8574   19.0068 C   0  0  0  0  0  0  0  0  0  0  0  0
   10.2455  -14.7573   20.0687 C   0  0  0  0  0  0  0  0  0  0  0  0
   10.3230  -16.1644   20.0414 C   0  0  0  0  0  0  0  0  0  0  0  0
    9.8571  -16.6587   21.1896 N   0  0  0  0  0  0  0  0  0  0  0  0
    9.4866  -15.6151   21.9446 C   0  0  0  0  0  0  0  0  0  0  0  0
    9.7274  -14.4931   21.2559 N   0  0  0  0  0  0  0  0  0  0  0  0
   12.5354  -15.1791   18.2151 C   0  0  0  0  0  0  0  0  0  0  0  0
   12.3620  -16.4563   18.3586 O   0  0  0  0  0  0  0  0  0  0  0  0
   15.9049  -14.9916   16.5415 C   0  0  0  0  0  0  0  0  0  0  0  0
   16.1366  -15.0133   18.0209 C   0  0  1  0  0  0  0  0  0  0  0  0
   16.2912  -13.6739   18.4450 O   0  0  0  0  0  0  0  0  0  0  0  0
   14.9257  -15.6054   18.7237 C   0  0  2  0  0  0  0  0  0  0  0  0
   13.8154  -14.6806   18.4523 N   0  0  0  0  0  0  0  0  0  0  0  0
   15.1418  -15.7330   20.1761 C   0  0  0  0  0  0  0  0  0  0  0  0
   16.0942  -16.5745   20.6819 O   0  0  0  0  0  0  0  0  0  0  0  0
   14.4396  -15.0571   20.9712 O   0  0  0  0  0  0  0  0  0  0  0  0
  2  1  1  6
  3  2  1  0
  4  2  1  0
  4  5  1  6
  4  6  1  0
  6  7  2  0
  8  6  1  0
  8  9  1  0
  9 16  1  0
 10 11  1  0
  9 10  1  1
 11 15  1  0
 12 11  2  0
 12 13  1  0
 13 14  1  0
 15 14  2  0
 16 17  2  0
 19 18  1  6
 19 21  1  0
 20 19  1  0
 21 23  1  0
 22 16  1  0
 21 22  1  1
 23 25  2  0
 23 24  1  0
M  END
$$$$
