THT.pdb
     RDKit          3D

 25 25  0  0  1  0  0  0  0  0999 V2000
    8.5368  -12.3473   20.5462 C   0  0  0  0  0  0  0  0  0  0  0  0
    8.0621  -13.1646   19.3819 C   0  0  1  0  0  0  0  0  0  0  0  0
    8.4748  -12.6129   18.1724 O   0  0  0  0  0  0  0  0  0  0  0  0
    8.5214  -14.5925   19.4401 C   0  0  2  0  0  0  0  0  0  0  0  0
    8.1043  -15.3888   18.3300 N   0  0  0  0  0  0  0  0  0  0  0  0
    8.0941  -15.1823   20.7460 C   0  0  0  0  0  0  0  0  0  0  0  0
    6.9278  -15.5998   20.9565 O   0  0  0  0  0  0  0  0  0  0  0  0
    9.0178  -15.2844   21.7963 N   0  0  0  0  0  0  0  0  0  0  0  0
    8.6465  -16.0105   23.0396 C   0  0  1  0  0  0  0  0  0  0  0  0
    9.6516  -17.0789   23.2600 C   0  0  0  0  0  0  0  0  0  0  0  0
    9.5418  -18.3281   22.5297 C   0  0  0  0  0  0  0  0  0  0  0  0
    8.5238  -18.6697   21.6166 C   0  0  0  0  0  0  0  0  0  0  0  0
    8.7470  -19.8950   21.1385 N   0  0  0  0  0  0  0  0  0  0  0  0
    9.8705  -20.3431   21.7157 C   0  0  0  0  0  0  0  0  0  0  0  0
   10.3259  -19.3924   22.5404 N   0  0  0  0  0  0  0  0  0  0  0  0
    8.7903  -14.9621   24.0859 C   0  0  0  0  0  0  0  0  0  0  0  0
    9.8744  -14.2527   24.0307 O   0  0  0  0  0  0  0  0  0  0  0  0
    6.5552  -12.0248   25.2139 C   0  0  0  0  0  0  0  0  0  0  0  0
    6.9076  -12.9006   26.3764 C   0  0  1  0  0  0  0  0  0  0  0  0
    5.8783  -13.8598   26.5113 O   0  0  0  0  0  0  0  0  0  0  0  0
    8.2122  -13.6288   26.0965 C   0  0  2  0  0  0  0  0  0  0  0  0
    7.8863  -14.6637   25.1043 N   0  0  0  0  0  0  0  0  0  0  0  0
    8.7694  -14.2447   27.3141 C   0  0  0  0  0  0  0  0  0  0  0  0
    9.1944  -13.4812   28.3663 O   0  0  0  0  0  0  0  0  0  0  0  0
    8.8584  -15.4969   27.3928 O   0  0  0  0  0  0  0  0  0  0  0  0
  2  1  1  1
  3  2  1  0
  4  2  1  0
  4  5  1  6
  4  6  1  0
  6  7  2  0
  8  6  1  0
  8  9  1  0
  9 16  1  0
 10 11  1  0
  9 10  1  1
 11 15  1  0
 12 11  2  0
 12 13  1  0
 13 14  1  0
 15 14  2  0
 16 17  2  0
 19 18  1  6
 19 21  1  0
 20 19  1  0
 21 23  1  0
 22 16  1  0
 21 22  1  6
 23 25  2  0
 23 24  1  0
M  END
$$$$
