THT.pdb
     RDKit          3D

 25 25  0  0  1  0  0  0  0  0999 V2000
    8.9401  -20.7169   18.5795 C   0  0  0  0  0  0  0  0  0  0  0  0
    9.4656  -19.6710   19.5170 C   0  0  1  0  0  0  0  0  0  0  0  0
   10.7359  -19.9983   19.9824 O   0  0  0  0  0  0  0  0  0  0  0  0
    9.5173  -18.3029   18.9014 C   0  0  2  0  0  0  0  0  0  0  0  0
   10.3368  -18.2151   17.7347 N   0  0  0  0  0  0  0  0  0  0  0  0
    9.9267  -17.3188   19.9501 C   0  0  0  0  0  0  0  0  0  0  0  0
   11.0402  -16.7366   19.9413 O   0  0  0  0  0  0  0  0  0  0  0  0
    9.0462  -17.0164   20.9989 N   0  0  0  0  0  0  0  0  0  0  0  0
    9.4213  -15.9893   22.0064 C   0  0  1  0  0  0  0  0  0  0  0  0
    8.3302  -14.9859   22.0614 C   0  0  0  0  0  0  0  0  0  0  0  0
    8.1919  -14.0178   20.9892 C   0  0  0  0  0  0  0  0  0  0  0  0
    9.0183  -13.9141   19.8520 C   0  0  0  0  0  0  0  0  0  0  0  0
    8.5932  -12.9108   19.0823 N   0  0  0  0  0  0  0  0  0  0  0  0
    7.5263  -12.3741   19.6907 C   0  0  0  0  0  0  0  0  0  0  0  0
    7.3064  -13.0501   20.8247 N   0  0  0  0  0  0  0  0  0  0  0  0
    9.4507  -16.7693   23.2735 C   0  0  0  0  0  0  0  0  0  0  0  0
    8.3449  -17.3646   23.5969 O   0  0  0  0  0  0  0  0  0  0  0  0
   11.0678  -19.7562   24.0346 C   0  0  0  0  0  0  0  0  0  0  0  0
   11.4349  -18.8709   25.1854 C   0  0  1  0  0  0  0  0  0  0  0  0
   12.6826  -18.2795   24.8834 O   0  0  0  0  0  0  0  0  0  0  0  0
   10.4013  -17.7666   25.3364 C   0  0  2  0  0  0  0  0  0  0  0  0
   10.5345  -16.9288   24.1356 N   0  0  0  0  0  0  0  0  0  0  0  0
   10.6309  -16.9618   26.5497 C   0  0  0  0  0  0  0  0  0  0  0  0
   10.4611  -17.4939   27.7983 O   0  0  0  0  0  0  0  0  0  0  0  0
   10.9904  -15.7614   26.4410 O   0  0  0  0  0  0  0  0  0  0  0  0
  2  1  1  6
  3  2  1  0
  4  2  1  0
  4  5  1  6
  4  6  1  0
  6  7  2  0
  8  6  1  0
  8  9  1  0
  9 16  1  0
 10 11  1  0
  9 10  1  1
 11 15  1  0
 12 11  2  0
 12 13  1  0
 13 14  1  0
 15 14  2  0
 16 17  2  0
 19 18  1  6
 19 21  1  0
 20 19  1  0
 21 23  1  0
 22 16  1  0
 21 22  1  6
 23 25  2  0
 23 24  1  0
M  END
$$$$
