THT.pdb
     RDKit          3D

 25 25  0  0  1  0  0  0  0  0999 V2000
    8.4180  -12.8984   19.9072 C   0  0  0  0  0  0  0  0  0  0  0  0
    7.6370  -13.6693   18.8851 C   0  0  1  0  0  0  0  0  0  0  0  0
    6.4891  -12.9828   18.4996 O   0  0  0  0  0  0  0  0  0  0  0  0
    8.4370  -13.9950   17.6574 C   0  0  2  0  0  0  0  0  0  0  0  0
    7.6962  -14.6623   16.6344 N   0  0  0  0  0  0  0  0  0  0  0  0
    9.6513  -14.7664   18.0651 C   0  0  0  0  0  0  0  0  0  0  0  0
    9.7065  -16.0212   18.0272 O   0  0  0  0  0  0  0  0  0  0  0  0
   10.7902  -14.0813   18.5128 N   0  0  0  0  0  0  0  0  0  0  0  0
   11.9992  -14.8445   18.9210 C   0  0  1  0  0  0  0  0  0  0  0  0
   13.1754  -13.9561   18.7553 C   0  0  0  0  0  0  0  0  0  0  0  0
   14.4889  -14.4230   19.1587 C   0  0  0  0  0  0  0  0  0  0  0  0
   14.7736  -15.6388   19.8128 C   0  0  0  0  0  0  0  0  0  0  0  0
   16.0871  -15.7330   20.0262 N   0  0  0  0  0  0  0  0  0  0  0  0
   16.6461  -14.6203   19.5307 C   0  0  0  0  0  0  0  0  0  0  0  0
   15.6745  -13.8551   19.0191 N   0  0  0  0  0  0  0  0  0  0  0  0
   11.7567  -15.0919   20.3683 C   0  0  0  0  0  0  0  0  0  0  0  0
   11.4317  -14.0529   21.0731 O   0  0  0  0  0  0  0  0  0  0  0  0
   10.4983  -18.5732   22.0288 C   0  0  0  0  0  0  0  0  0  0  0  0
   10.2784  -17.2078   22.6032 C   0  0  1  0  0  0  0  0  0  0  0  0
    9.9835  -17.3685   23.9762 O   0  0  0  0  0  0  0  0  0  0  0  0
   11.5496  -16.3840   22.4758 C   0  0  2  0  0  0  0  0  0  0  0  0
   11.8362  -16.3132   21.0356 N   0  0  0  0  0  0  0  0  0  0  0  0
   12.6790  -17.0029   23.1925 C   0  0  0  0  0  0  0  0  0  0  0  0
   12.6715  -17.1329   24.5540 O   0  0  0  0  0  0  0  0  0  0  0  0
   13.6724  -17.4216   22.5444 O   0  0  0  0  0  0  0  0  0  0  0  0
  2  1  1  1
  3  2  1  0
  4  2  1  0
  4  5  1  6
  4  6  1  0
  6  7  2  0
  8  6  1  0
  8  9  1  0
  9 16  1  0
 10 11  1  0
  9 10  1  1
 11 15  1  0
 12 11  2  0
 12 13  1  0
 13 14  1  0
 15 14  2  0
 16 17  2  0
 19 18  1  1
 19 21  1  0
 20 19  1  0
 21 23  1  0
 22 16  1  0
 21 22  1  6
 23 25  2  0
 23 24  1  0
M  END
$$$$
