THT.pdb
     RDKit          3D

 25 25  0  0  1  0  0  0  0  0999 V2000
    8.5297  -12.3271   20.6579 C   0  0  0  0  0  0  0  0  0  0  0  0
    7.9979  -13.0037   19.4297 C   0  0  1  0  0  0  0  0  0  0  0  0
    8.3156  -12.2889   18.2784 O   0  0  0  0  0  0  0  0  0  0  0  0
    8.4942  -14.4118   19.2732 C   0  0  2  0  0  0  0  0  0  0  0  0
    7.9883  -15.0874   18.1207 N   0  0  0  0  0  0  0  0  0  0  0  0
    8.2117  -15.1643   20.5340 C   0  0  0  0  0  0  0  0  0  0  0  0
    7.1325  -15.7753   20.7362 O   0  0  0  0  0  0  0  0  0  0  0  0
    9.1784  -15.2041   21.5493 N   0  0  0  0  0  0  0  0  0  0  0  0
    8.9693  -16.0756   22.7356 C   0  0  1  0  0  0  0  0  0  0  0  0
   10.1334  -16.9890   22.8401 C   0  0  0  0  0  0  0  0  0  0  0  0
   10.1695  -18.1988   22.0393 C   0  0  0  0  0  0  0  0  0  0  0  0
    9.1760  -18.6266   21.1356 C   0  0  0  0  0  0  0  0  0  0  0  0
    9.5475  -19.7806   20.5788 N   0  0  0  0  0  0  0  0  0  0  0  0
   10.7414  -20.1003   21.0970 C   0  0  0  0  0  0  0  0  0  0  0  0
   11.0916  -19.1432   21.9646 N   0  0  0  0  0  0  0  0  0  0  0  0
    8.9902  -15.1044   23.8629 C   0  0  0  0  0  0  0  0  0  0  0  0
    9.9469  -14.2293   23.8380 O   0  0  0  0  0  0  0  0  0  0  0  0
    6.5568  -12.5226   25.0452 C   0  0  0  0  0  0  0  0  0  0  0  0
    6.9079  -13.4061   26.2022 C   0  0  1  0  0  0  0  0  0  0  0  0
    5.9487  -14.4431   26.2495 O   0  0  0  0  0  0  0  0  0  0  0  0
    8.2781  -14.0259   25.9804 C   0  0  2  0  0  0  0  0  0  0  0  0
    8.0933  -15.0357   24.9279 N   0  0  0  0  0  0  0  0  0  0  0  0
    8.8013  -14.6547   27.2065 C   0  0  0  0  0  0  0  0  0  0  0  0
    9.0921  -13.9122   28.3177 O   0  0  0  0  0  0  0  0  0  0  0  0
    8.9861  -15.8985   27.2374 O   0  0  0  0  0  0  0  0  0  0  0  0
  2  1  1  1
  3  2  1  0
  4  2  1  0
  4  5  1  6
  4  6  1  0
  6  7  2  0
  8  6  1  0
  8  9  1  0
  9 16  1  0
 10 11  1  0
  9 10  1  1
 11 15  1  0
 12 11  2  0
 12 13  1  0
 13 14  1  0
 15 14  2  0
 16 17  2  0
 19 18  1  6
 19 21  1  0
 20 19  1  0
 21 23  1  0
 22 16  1  0
 21 22  1  6
 23 25  2  0
 23 24  1  0
M  END
$$$$
