THT.pdb
     RDKit          3D

 25 25  0  0  1  0  0  0  0  0999 V2000
   13.2532  -19.3055   14.0442 C   0  0  0  0  0  0  0  0  0  0  0  0
   12.9302  -18.3771   15.1768 C   0  0  1  0  0  0  0  0  0  0  0  0
   14.0483  -18.1354   15.9699 O   0  0  0  0  0  0  0  0  0  0  0  0
   12.3737  -17.0609   14.7171 C   0  0  2  0  0  0  0  0  0  0  0  0
   13.2926  -16.2656   13.9663 N   0  0  0  0  0  0  0  0  0  0  0  0
   11.8341  -16.3265   15.9026 C   0  0  0  0  0  0  0  0  0  0  0  0
   12.3344  -15.2546   16.3263 O   0  0  0  0  0  0  0  0  0  0  0  0
   10.7217  -16.8371   16.5872 N   0  0  0  0  0  0  0  0  0  0  0  0
   10.1274  -16.0660   17.7111 C   0  0  1  0  0  0  0  0  0  0  0  0
    8.6772  -15.9115   17.4402 C   0  0  0  0  0  0  0  0  0  0  0  0
    8.2245  -14.8775   16.5281 C   0  0  0  0  0  0  0  0  0  0  0  0
    8.5384  -13.5055   16.6061 C   0  0  0  0  0  0  0  0  0  0  0  0
    7.9483  -12.8557   15.6015 N   0  0  0  0  0  0  0  0  0  0  0  0
    7.2711  -13.7665   14.8888 C   0  0  0  0  0  0  0  0  0  0  0  0
    7.4505  -14.9636   15.4598 N   0  0  0  0  0  0  0  0  0  0  0  0
   10.3273  -16.9744   18.8728 C   0  0  0  0  0  0  0  0  0  0  0  0
   10.3946  -18.2396   18.5965 O   0  0  0  0  0  0  0  0  0  0  0  0
   11.5290  -17.8918   23.5377 C   0  0  0  0  0  0  0  0  0  0  0  0
   11.2844  -16.9196   22.4251 C   0  0  1  0  0  0  0  0  0  0  0  0
   12.5396  -16.4040   22.0297 O   0  0  0  0  0  0  0  0  0  0  0  0
   10.6629  -17.6392   21.2391 C   0  0  2  0  0  0  0  0  0  0  0  0
   10.4542  -16.6083   20.2119 N   0  0  0  0  0  0  0  0  0  0  0  0
    9.3816  -18.2758   21.5930 C   0  0  0  0  0  0  0  0  0  0  0  0
    8.1887  -17.7527   21.1756 O   0  0  0  0  0  0  0  0  0  0  0  0
    9.3787  -19.3211   22.2925 O   0  0  0  0  0  0  0  0  0  0  0  0
  2  1  1  6
  3  2  1  0
  4  2  1  0
  4  5  1  1
  4  6  1  0
  6  7  2  0
  8  6  1  0
  8  9  1  0
  9 16  1  0
 10 11  1  0
  9 10  1  6
 11 15  1  0
 12 11  2  0
 12 13  1  0
 13 14  1  0
 15 14  2  0
 16 17  2  0
 19 18  1  1
 19 21  1  0
 20 19  1  0
 21 23  1  0
 22 16  1  0
 21 22  1  6
 23 25  2  0
 23 24  1  0
M  END
$$$$
