THT.pdb
     RDKit          3D

 25 25  0  0  1  0  0  0  0  0999 V2000
   10.4983  -20.1608   16.3706 C   0  0  0  0  0  0  0  0  0  0  0  0
   10.8189  -19.3439   17.5867 C   0  0  1  0  0  0  0  0  0  0  0  0
   12.0000  -19.7697   18.1876 O   0  0  0  0  0  0  0  0  0  0  0  0
   10.9304  -17.8756   17.2954 C   0  0  2  0  0  0  0  0  0  0  0  0
   11.9122  -17.5455   16.3117 N   0  0  0  0  0  0  0  0  0  0  0  0
   11.1566  -17.1460   18.5809 C   0  0  0  0  0  0  0  0  0  0  0  0
   12.2339  -16.5584   18.8510 O   0  0  0  0  0  0  0  0  0  0  0  0
   10.1363  -17.1019   19.5421 N   0  0  0  0  0  0  0  0  0  0  0  0
   10.3083  -16.2747   20.7655 C   0  0  1  0  0  0  0  0  0  0  0  0
    9.0176  -15.5980   21.0424 C   0  0  0  0  0  0  0  0  0  0  0  0
    8.6634  -14.4000   20.3038 C   0  0  0  0  0  0  0  0  0  0  0  0
    9.4846  -13.7190   19.3825 C   0  0  0  0  0  0  0  0  0  0  0  0
    8.8297  -12.6624   18.8983 N   0  0  0  0  0  0  0  0  0  0  0  0
    7.6222  -12.6487   19.4795 C   0  0  0  0  0  0  0  0  0  0  0  0
    7.5462  -13.6934   20.3127 N   0  0  0  0  0  0  0  0  0  0  0  0
   10.5757  -17.2949   21.8154 C   0  0  0  0  0  0  0  0  0  0  0  0
    9.6572  -18.1963   21.9752 O   0  0  0  0  0  0  0  0  0  0  0  0
   13.2566  -19.7262   22.1304 C   0  0  0  0  0  0  0  0  0  0  0  0
   13.1665  -19.0671   23.4721 C   0  0  1  0  0  0  0  0  0  0  0  0
   14.1351  -18.0383   23.5043 O   0  0  0  0  0  0  0  0  0  0  0  0
   11.7922  -18.4418   23.6481 C   0  0  2  0  0  0  0  0  0  0  0  0
   11.7025  -17.3836   22.6314 N   0  0  0  0  0  0  0  0  0  0  0  0
   11.6166  -17.8724   24.9961 C   0  0  0  0  0  0  0  0  0  0  0  0
   11.4173  -16.5320   25.1812 O   0  0  0  0  0  0  0  0  0  0  0  0
   11.6496  -18.6294   26.0001 O   0  0  0  0  0  0  0  0  0  0  0  0
  2  1  1  6
  3  2  1  0
  4  2  1  0
  4  5  1  6
  4  6  1  0
  6  7  2  0
  8  6  1  0
  8  9  1  0
  9 16  1  0
 10 11  1  0
  9 10  1  1
 11 15  1  0
 12 11  2  0
 12 13  1  0
 13 14  1  0
 15 14  2  0
 16 17  2  0
 19 18  1  6
 19 21  1  0
 20 19  1  0
 21 23  1  0
 22 16  1  0
 21 22  1  6
 23 25  2  0
 23 24  1  0
M  END
$$$$
