IKD.pdb
     RDKit          3D

 26 25  0  0  1  0  0  0  0  0999 V2000
   10.5891  -11.4042  -10.9610 C   0  0  0  0  0  0  0  0  0  0  0  0
   11.7226  -11.9614  -11.7983 C   0  0  0  0  0  0  0  0  0  0  0  0
   12.9694  -11.1048  -11.6904 C   0  0  2  0  0  0  0  0  0  0  0  0
   12.6146   -9.6968  -12.0182 C   0  0  0  0  0  0  0  0  0  0  0  0
   14.0178  -11.7053  -12.5898 C   0  0  2  0  0  0  0  0  0  0  0  0
   14.3362  -13.0197  -12.1444 N   0  0  0  0  0  0  0  0  0  0  0  0
   15.2538  -10.8968  -12.6465 C   0  0  0  0  0  0  0  0  0  0  0  0
   16.0534  -10.9527  -11.6829 O   0  0  0  0  0  0  0  0  0  0  0  0
   15.5226  -10.0838  -13.7596 N   0  0  0  0  0  0  0  0  0  0  0  0
   16.7621   -9.2889  -13.8883 C   0  0  1  0  0  0  0  0  0  0  0  0
   17.5799   -9.8148  -15.0078 C   0  0  0  0  0  0  0  0  0  0  0  0
   18.7956   -9.0042  -15.3268 C   0  0  0  0  0  0  0  0  0  0  0  0
   19.4930   -9.5626  -16.5251 C   0  0  0  0  0  0  0  0  0  0  0  0
   20.7749   -8.7805  -16.7353 C   0  0  0  0  0  0  0  0  0  0  0  0
   21.4139   -9.2187  -17.9436 N   0  0  0  0  0  0  0  0  0  0  0  0
   16.3064   -7.8871  -14.0393 C   0  0  0  0  0  0  0  0  0  0  0  0
   15.2706   -7.6840  -14.7726 O   0  0  0  0  0  0  0  0  0  0  0  0
   16.9080   -6.7607  -13.4452 N   0  0  0  0  0  0  0  0  0  0  0  0
   16.3478   -5.4263  -13.7666 C   0  0  1  0  0  0  0  0  0  0  0  0
   15.5135   -4.9573  -12.6036 C   0  0  0  0  0  0  0  0  0  0  0  0
   15.1331   -3.5574  -12.7732 C   0  0  0  0  0  0  0  0  0  0  0  0
   14.7671   -3.1170  -13.8765 O   0  0  0  0  0  0  0  0  0  0  0  0
   17.5166   -4.5144  -13.9461 C   0  0  0  0  0  0  0  0  0  0  0  0
   18.6760   -4.9452  -13.6619 O   0  0  0  0  0  0  0  0  0  0  0  0
   15.1535   -2.6270  -11.7208 O   0  0  0  0  0  0  0  0  0  0  0  0
   17.4080   -3.2398  -14.4006 O   0  0  0  0  0  0  0  0  0  0  0  0
  1  2  1  0
  2  3  1  0
  3  4  1  6
  5  3  1  0
  5  6  1  1
  7  5  1  0
  8  7  2  0
  9  7  1  0
 10  9  1  0
 11 12  1  0
 10 11  1  6
 13 12  1  0
 13 14  1  0
 14 15  1  0
 16 10  1  0
 16 18  1  0
 17 16  2  0
 19 18  1  0
 19 20  1  1
 20 21  1  0
 21 22  2  0
 23 19  1  0
 24 23  2  0
 25 21  1  0
 26 23  1  0
M  END
$$$$
