IKD.pdb
     RDKit          3D

 26 25  0  0  1  0  0  0  0  0999 V2000
   27.9629  -13.0399  -17.2859 C   0  0  0  0  0  0  0  0  0  0  0  0
   27.0914  -12.4407  -16.2008 C   0  0  0  0  0  0  0  0  0  0  0  0
   26.0286  -11.5268  -16.7799 C   0  0  2  0  0  0  0  0  0  0  0  0
   26.6863  -10.5231  -17.6607 C   0  0  0  0  0  0  0  0  0  0  0  0
   25.2586  -10.9323  -15.6300 C   0  0  2  0  0  0  0  0  0  0  0  0
   24.8278  -11.9690  -14.7542 N   0  0  0  0  0  0  0  0  0  0  0  0
   24.0859  -10.1483  -16.0715 C   0  0  0  0  0  0  0  0  0  0  0  0
   24.2681   -9.1760  -16.8412 O   0  0  0  0  0  0  0  0  0  0  0  0
   22.7956  -10.4897  -15.6346 N   0  0  0  0  0  0  0  0  0  0  0  0
   21.5912   -9.7277  -16.0267 C   0  0  1  0  0  0  0  0  0  0  0  0
   20.3856  -10.5735  -15.8535 C   0  0  0  0  0  0  0  0  0  0  0  0
   20.1101  -11.5070  -16.9889 C   0  0  0  0  0  0  0  0  0  0  0  0
   18.8413  -12.2592  -16.7474 C   0  0  0  0  0  0  0  0  0  0  0  0
   18.5998  -13.1749  -17.9315 C   0  0  0  0  0  0  0  0  0  0  0  0
   17.4072  -13.9427  -17.7112 N   0  0  0  0  0  0  0  0  0  0  0  0
   21.6277   -8.4983  -15.2004 C   0  0  0  0  0  0  0  0  0  0  0  0
   21.9206   -8.6373  -13.9567 O   0  0  0  0  0  0  0  0  0  0  0  0
   21.3737   -7.1922  -15.6620 N   0  0  0  0  0  0  0  0  0  0  0  0
   21.3992   -6.0902  -14.6707 C   0  0  1  0  0  0  0  0  0  0  0  0
   22.4788   -5.1141  -15.0579 C   0  0  0  0  0  0  0  0  0  0  0  0
   22.4550   -3.9449  -14.1828 C   0  0  0  0  0  0  0  0  0  0  0  0
   22.0068   -2.8539  -14.5751 O   0  0  0  0  0  0  0  0  0  0  0  0
   20.0659   -5.4228  -14.7529 C   0  0  0  0  0  0  0  0  0  0  0  0
   19.4144   -5.4930  -15.8398 O   0  0  0  0  0  0  0  0  0  0  0  0
   22.9281   -3.9704  -12.8603 O   0  0  0  0  0  0  0  0  0  0  0  0
   19.5064   -4.7400  -13.7216 O   0  0  0  0  0  0  0  0  0  0  0  0
  1  2  1  0
  2  3  1  0
  3  4  1  1
  5  3  1  0
  5  6  1  1
  7  5  1  0
  8  7  2  0
  9  7  1  0
 10  9  1  0
 11 12  1  0
 10 11  1  1
 13 12  1  0
 13 14  1  0
 14 15  1  0
 16 10  1  0
 16 18  1  0
 17 16  2  0
 19 18  1  0
 19 20  1  6
 20 21  1  0
 21 22  2  0
 23 19  1  0
 24 23  2  0
 25 21  1  0
 26 23  1  0
M  END
$$$$
