IKD.pdb
     RDKit          3D

 26 25  0  0  1  0  0  0  0  0999 V2000
   26.4464  -14.6431  -19.1280 C   0  0  0  0  0  0  0  0  0  0  0  0
   26.1236  -13.8545  -17.8749 C   0  0  0  0  0  0  0  0  0  0  0  0
   24.9798  -12.8854  -18.1047 C   0  0  2  0  0  0  0  0  0  0  0  0
   25.3009  -12.0340  -19.2828 C   0  0  0  0  0  0  0  0  0  0  0  0
   24.7644  -12.1187  -16.8263 C   0  0  2  0  0  0  0  0  0  0  0  0
   24.5130  -13.0269  -15.7589 N   0  0  0  0  0  0  0  0  0  0  0  0
   23.6481  -11.1543  -16.9191 C   0  0  0  0  0  0  0  0  0  0  0  0
   23.7318  -10.2155  -17.7454 O   0  0  0  0  0  0  0  0  0  0  0  0
   22.5186  -11.2910  -16.0958 N   0  0  0  0  0  0  0  0  0  0  0  0
   21.3127  -10.4497  -16.2470 C   0  0  1  0  0  0  0  0  0  0  0  0
   20.1060  -11.2371  -15.8964 C   0  0  0  0  0  0  0  0  0  0  0  0
   18.8219  -10.4735  -15.9627 C   0  0  0  0  0  0  0  0  0  0  0  0
   17.6634  -11.3806  -15.6996 C   0  0  0  0  0  0  0  0  0  0  0  0
   16.3864  -10.5808  -15.8691 C   0  0  0  0  0  0  0  0  0  0  0  0
   15.2519  -11.4474  -15.7198 N   0  0  0  0  0  0  0  0  0  0  0  0
   21.5635   -9.2614  -15.3982 C   0  0  0  0  0  0  0  0  0  0  0  0
   22.0204   -9.4726  -14.2157 O   0  0  0  0  0  0  0  0  0  0  0  0
   21.3485   -7.9223  -15.7779 N   0  0  0  0  0  0  0  0  0  0  0  0
   21.6671   -6.8630  -14.7908 C   0  0  1  0  0  0  0  0  0  0  0  0
   22.1668   -5.6480  -15.5272 C   0  0  0  0  0  0  0  0  0  0  0  0
   22.3170   -4.5175  -14.6147 C   0  0  0  0  0  0  0  0  0  0  0  0
   22.6685   -4.6833  -13.4339 O   0  0  0  0  0  0  0  0  0  0  0  0
   20.3849   -6.5380  -14.0978 C   0  0  0  0  0  0  0  0  0  0  0  0
   20.4130   -6.2671  -12.8582 O   0  0  0  0  0  0  0  0  0  0  0  0
   22.0794   -3.1876  -14.9999 O   0  0  0  0  0  0  0  0  0  0  0  0
   19.1809   -6.5152  -14.7244 O   0  0  0  0  0  0  0  0  0  0  0  0
  1  2  1  0
  2  3  1  0
  3  4  1  6
  5  3  1  0
  5  6  1  1
  7  5  1  0
  8  7  2  0
  9  7  1  0
 10  9  1  0
 11 12  1  0
 10 11  1  1
 13 12  1  0
 13 14  1  0
 14 15  1  0
 16 10  1  0
 16 18  1  0
 17 16  2  0
 19 18  1  0
 19 20  1  6
 20 21  1  0
 21 22  2  0
 23 19  1  0
 24 23  2  0
 25 21  1  0
 26 23  1  0
M  END
$$$$
