IKD.pdb
     RDKit          3D

 26 25  0  0  1  0  0  0  0  0999 V2000
   27.7985  -15.9596  -16.5732 C   0  0  0  0  0  0  0  0  0  0  0  0
   26.7875  -15.2088  -15.7303 C   0  0  0  0  0  0  0  0  0  0  0  0
   26.0260  -14.1861  -16.5516 C   0  0  2  0  0  0  0  0  0  0  0  0
   27.0017  -13.2660  -17.1976 C   0  0  0  0  0  0  0  0  0  0  0  0
   25.0426  -13.5039  -15.6372 C   0  0  2  0  0  0  0  0  0  0  0  0
   24.2596  -14.4814  -14.9600 N   0  0  0  0  0  0  0  0  0  0  0  0
   24.1464  -12.5725  -16.3541 C   0  0  0  0  0  0  0  0  0  0  0  0
   24.6562  -11.6808  -17.0725 O   0  0  0  0  0  0  0  0  0  0  0  0
   22.7523  -12.6881  -16.2298 N   0  0  0  0  0  0  0  0  0  0  0  0
   21.8101  -11.7883  -16.9281 C   0  0  1  0  0  0  0  0  0  0  0  0
   20.4874  -12.4472  -17.0517 C   0  0  0  0  0  0  0  0  0  0  0  0
   20.3278  -13.3027  -18.2679 C   0  0  0  0  0  0  0  0  0  0  0  0
   19.8734  -14.6737  -17.8833 C   0  0  0  0  0  0  0  0  0  0  0  0
   19.6614  -15.4766  -19.1519 C   0  0  0  0  0  0  0  0  0  0  0  0
   19.2210  -16.8008  -18.8158 N   0  0  0  0  0  0  0  0  0  0  0  0
   21.8224  -10.5327  -16.1416 C   0  0  0  0  0  0  0  0  0  0  0  0
   21.9868  -10.6391  -14.8714 O   0  0  0  0  0  0  0  0  0  0  0  0
   21.6739   -9.2344  -16.6670 N   0  0  0  0  0  0  0  0  0  0  0  0
   21.6975   -8.0962  -15.7173 C   0  0  1  0  0  0  0  0  0  0  0  0
   21.9330   -6.8248  -16.4895 C   0  0  0  0  0  0  0  0  0  0  0  0
   21.9098   -5.6681  -15.5979 C   0  0  0  0  0  0  0  0  0  0  0  0
   21.8194   -5.8047  -14.3657 O   0  0  0  0  0  0  0  0  0  0  0  0
   20.3472   -8.0545  -15.0811 C   0  0  0  0  0  0  0  0  0  0  0  0
   19.3402   -8.4182  -15.7624 O   0  0  0  0  0  0  0  0  0  0  0  0
   21.9868   -4.3442  -16.0614 O   0  0  0  0  0  0  0  0  0  0  0  0
   20.1345   -7.6465  -13.8039 O   0  0  0  0  0  0  0  0  0  0  0  0
  1  2  1  0
  2  3  1  0
  3  4  1  1
  5  3  1  0
  5  6  1  6
  7  5  1  0
  8  7  2  0
  9  7  1  0
 10  9  1  0
 11 12  1  0
 10 11  1  1
 13 12  1  0
 13 14  1  0
 14 15  1  0
 16 10  1  0
 16 18  1  0
 17 16  2  0
 19 18  1  0
 19 20  1  6
 20 21  1  0
 21 22  2  0
 23 19  1  0
 24 23  2  0
 25 21  1  0
 26 23  1  0
M  END
$$$$
