IKD.pdb
     RDKit          3D

 26 25  0  0  1  0  0  0  0  0999 V2000
   28.0248  -19.7909   -6.0152 C   0  0  0  0  0  0  0  0  0  0  0  0
   28.0093  -20.7100   -7.2198 C   0  0  0  0  0  0  0  0  0  0  0  0
   27.0865  -20.1910   -8.3057 C   0  0  2  0  0  0  0  0  0  0  0  0
   25.6998  -20.1281   -7.7681 C   0  0  0  0  0  0  0  0  0  0  0  0
   27.2451  -21.0842   -9.5080 C   0  0  2  0  0  0  0  0  0  0  0  0
   28.6287  -21.2732   -9.7860 N   0  0  0  0  0  0  0  0  0  0  0  0
   26.5747  -20.5479  -10.7113 C   0  0  0  0  0  0  0  0  0  0  0  0
   26.7175  -19.3339  -10.9882 O   0  0  0  0  0  0  0  0  0  0  0  0
   25.7945  -21.3857  -11.5247 N   0  0  0  0  0  0  0  0  0  0  0  0
   25.2680  -20.9596  -12.8386 C   0  0  1  0  0  0  0  0  0  0  0  0
   26.0277  -21.6278  -13.9227 C   0  0  0  0  0  0  0  0  0  0  0  0
   25.6274  -21.2234  -15.3057 C   0  0  0  0  0  0  0  0  0  0  0  0
   26.3269  -22.0716  -16.3183 C   0  0  0  0  0  0  0  0  0  0  0  0
   25.9266  -21.5894  -17.6990 C   0  0  0  0  0  0  0  0  0  0  0  0
   26.6695  -22.3089  -18.6945 N   0  0  0  0  0  0  0  0  0  0  0  0
   23.8203  -21.2719  -12.7928 C   0  0  0  0  0  0  0  0  0  0  0  0
   23.3576  -21.7429  -11.6901 O   0  0  0  0  0  0  0  0  0  0  0  0
   22.9089  -21.0927  -13.8514 N   0  0  0  0  0  0  0  0  0  0  0  0
   21.4787  -20.9047  -13.5094 C   0  0  1  0  0  0  0  0  0  0  0  0
   21.3104  -19.5624  -12.8474 C   0  0  0  0  0  0  0  0  0  0  0  0
   19.9091  -19.3259  -12.5099 C   0  0  0  0  0  0  0  0  0  0  0  0
   19.1165  -20.2693  -12.3460 O   0  0  0  0  0  0  0  0  0  0  0  0
   20.7334  -20.9232  -14.8033 C   0  0  0  0  0  0  0  0  0  0  0  0
   19.5136  -21.2734  -14.8000 O   0  0  0  0  0  0  0  0  0  0  0  0
   19.3683  -18.0393  -12.3497 O   0  0  0  0  0  0  0  0  0  0  0  0
   21.2918  -20.5832  -15.9930 O   0  0  0  0  0  0  0  0  0  0  0  0
  1  2  1  0
  2  3  1  0
  3  4  1  1
  5  3  1  0
  5  6  1  6
  7  5  1  0
  8  7  2  0
  9  7  1  0
 10  9  1  0
 11 12  1  0
 10 11  1  6
 13 12  1  0
 13 14  1  0
 14 15  1  0
 16 10  1  0
 16 18  1  0
 17 16  2  0
 19 18  1  0
 19 20  1  6
 20 21  1  0
 21 22  2  0
 23 19  1  0
 24 23  2  0
 25 21  1  0
 26 23  1  0
M  END
$$$$
