IKD.pdb
     RDKit          3D

 26 25  0  0  1  0  0  0  0  0999 V2000
   21.4801  -17.3920  -17.2062 C   0  0  0  0  0  0  0  0  0  0  0  0
   21.9339  -18.7530  -16.7184 C   0  0  0  0  0  0  0  0  0  0  0  0
   22.5825  -18.6676  -15.3501 C   0  0  2  0  0  0  0  0  0  0  0  0
   23.7345  -17.7276  -15.4226 C   0  0  0  0  0  0  0  0  0  0  0  0
   22.9493  -20.0662  -14.9283 C   0  0  2  0  0  0  0  0  0  0  0  0
   23.8314  -20.6406  -15.8871 N   0  0  0  0  0  0  0  0  0  0  0  0
   21.7699  -20.9419  -14.7645 C   0  0  0  0  0  0  0  0  0  0  0  0
   21.4270  -21.6739  -15.7224 O   0  0  0  0  0  0  0  0  0  0  0  0
   21.0512  -20.9502  -13.5580 N   0  0  0  0  0  0  0  0  0  0  0  0
   19.9510  -21.9001  -13.2894 C   0  0  1  0  0  0  0  0  0  0  0  0
   20.0679  -22.4234  -11.9069 C   0  0  0  0  0  0  0  0  0  0  0  0
   19.0387  -23.4432  -11.5366 C   0  0  0  0  0  0  0  0  0  0  0  0
   19.1596  -23.8028  -10.0909 C   0  0  0  0  0  0  0  0  0  0  0  0
   18.0834  -24.8193   -9.7632 C   0  0  0  0  0  0  0  0  0  0  0  0
   18.1262  -25.1316   -8.3628 N   0  0  0  0  0  0  0  0  0  0  0  0
   18.7101  -21.1438  -13.5786 C   0  0  0  0  0  0  0  0  0  0  0  0
   18.6633  -19.9222  -13.1820 O   0  0  0  0  0  0  0  0  0  0  0  0
   17.5814  -21.6473  -14.2539 N   0  0  0  0  0  0  0  0  0  0  0  0
   16.4588  -20.7153  -14.5164 C   0  0  1  0  0  0  0  0  0  0  0  0
   15.7733  -21.1285  -15.7922 C   0  0  0  0  0  0  0  0  0  0  0  0
   14.5470  -20.3604  -15.9909 C   0  0  0  0  0  0  0  0  0  0  0  0
   14.1899  -19.4922  -15.1760 O   0  0  0  0  0  0  0  0  0  0  0  0
   15.5151  -20.8637  -13.3687 C   0  0  0  0  0  0  0  0  0  0  0  0
   14.8065  -19.8673  -13.0285 O   0  0  0  0  0  0  0  0  0  0  0  0
   13.7001  -20.5451  -17.0964 O   0  0  0  0  0  0  0  0  0  0  0  0
   15.3707  -22.0143  -12.6629 O   0  0  0  0  0  0  0  0  0  0  0  0
  1  2  1  0
  2  3  1  0
  3  4  1  6
  5  3  1  0
  5  6  1  6
  7  5  1  0
  8  7  2  0
  9  7  1  0
 10  9  1  0
 11 12  1  0
 10 11  1  1
 13 12  1  0
 13 14  1  0
 14 15  1  0
 16 10  1  0
 16 18  1  0
 17 16  2  0
 19 18  1  0
 19 20  1  6
 20 21  1  0
 21 22  2  0
 23 19  1  0
 24 23  2  0
 25 21  1  0
 26 23  1  0
M  END
$$$$
