IKD.pdb
     RDKit          3D

 26 25  0  0  1  0  0  0  0  0999 V2000
   18.9096  -16.2526  -17.9386 C   0  0  0  0  0  0  0  0  0  0  0  0
   19.1802  -15.1433  -16.9423 C   0  0  0  0  0  0  0  0  0  0  0  0
   18.3710  -13.9001  -17.2580 C   0  0  2  0  0  0  0  0  0  0  0  0
   18.6620  -13.4798  -18.6561 C   0  0  0  0  0  0  0  0  0  0  0  0
   18.7003  -12.8620  -16.2176 C   0  0  2  0  0  0  0  0  0  0  0  0
   18.6736  -13.4548  -14.9233 N   0  0  0  0  0  0  0  0  0  0  0  0
   17.7741  -11.7104  -16.2456 C   0  0  0  0  0  0  0  0  0  0  0  0
   17.6474  -11.0668  -17.3137 O   0  0  0  0  0  0  0  0  0  0  0  0
   17.0529  -11.3485  -15.0962 N   0  0  0  0  0  0  0  0  0  0  0  0
   16.0845  -10.2318  -15.0788 C   0  0  1  0  0  0  0  0  0  0  0  0
   15.2032  -10.3522  -13.8924 C   0  0  0  0  0  0  0  0  0  0  0  0
   14.2673   -9.2032  -13.6913 C   0  0  0  0  0  0  0  0  0  0  0  0
   12.8661   -9.6112  -14.0144 C   0  0  0  0  0  0  0  0  0  0  0  0
   11.9471   -8.4495  -13.6906 C   0  0  0  0  0  0  0  0  0  0  0  0
   10.6195   -8.7428  -14.1511 N   0  0  0  0  0  0  0  0  0  0  0  0
   16.9121   -9.0039  -15.1324 C   0  0  0  0  0  0  0  0  0  0  0  0
   18.0425   -9.0327  -14.5216 O   0  0  0  0  0  0  0  0  0  0  0  0
   16.5679   -7.8115  -15.7982 N   0  0  0  0  0  0  0  0  0  0  0  0
   17.4624   -6.6413  -15.6295 C   0  0  1  0  0  0  0  0  0  0  0  0
   18.3003   -6.4880  -16.8716 C   0  0  0  0  0  0  0  0  0  0  0  0
   19.0024   -5.2072  -16.8652 C   0  0  0  0  0  0  0  0  0  0  0  0
   19.7084   -4.8629  -15.9018 O   0  0  0  0  0  0  0  0  0  0  0  0
   16.5715   -5.4529  -15.4750 C   0  0  0  0  0  0  0  0  0  0  0  0
   17.0984   -4.3206  -15.2490 O   0  0  0  0  0  0  0  0  0  0  0  0
   18.9307   -4.2911  -17.9277 O   0  0  0  0  0  0  0  0  0  0  0  0
   15.2184   -5.5158  -15.5641 O   0  0  0  0  0  0  0  0  0  0  0  0
  1  2  1  0
  2  3  1  0
  3  4  1  6
  5  3  1  0
  5  6  1  1
  7  5  1  0
  8  7  2  0
  9  7  1  0
 10  9  1  0
 11 12  1  0
 10 11  1  1
 13 12  1  0
 13 14  1  0
 14 15  1  0
 16 10  1  0
 16 18  1  0
 17 16  2  0
 19 18  1  0
 19 20  1  6
 20 21  1  0
 21 22  2  0
 23 19  1  0
 24 23  2  0
 25 21  1  0
 26 23  1  0
M  END
$$$$
