IKD.pdb
     RDKit          3D

 26 25  0  0  1  0  0  0  0  0999 V2000
   27.8404  -19.8084   -6.1714 C   0  0  0  0  0  0  0  0  0  0  0  0
   26.6102  -20.2893   -6.9139 C   0  0  0  0  0  0  0  0  0  0  0  0
   26.6243  -19.8449   -8.3638 C   0  0  2  0  0  0  0  0  0  0  0  0
   26.7050  -18.3592   -8.4100 C   0  0  0  0  0  0  0  0  0  0  0  0
   25.4032  -20.4203   -9.0319 C   0  0  2  0  0  0  0  0  0  0  0  0
   25.3743  -21.8315   -8.8451 N   0  0  0  0  0  0  0  0  0  0  0  0
   25.3467  -20.1185  -10.4778 C   0  0  0  0  0  0  0  0  0  0  0  0
   25.1647  -18.9317  -10.8375 O   0  0  0  0  0  0  0  0  0  0  0  0
   25.4944  -21.1442  -11.4256 N   0  0  0  0  0  0  0  0  0  0  0  0
   25.3164  -20.9237  -12.8763 C   0  0  1  0  0  0  0  0  0  0  0  0
   26.4174  -21.5810  -13.6212 C   0  0  0  0  0  0  0  0  0  0  0  0
   26.8265  -20.8799  -14.8772 C   0  0  0  0  0  0  0  0  0  0  0  0
   27.8309  -21.6961  -15.6247 C   0  0  0  0  0  0  0  0  0  0  0  0
   28.1366  -20.9915  -16.9321 C   0  0  0  0  0  0  0  0  0  0  0  0
   29.1440  -21.7212  -17.6484 N   0  0  0  0  0  0  0  0  0  0  0  0
   23.9564  -21.4283  -13.1784 C   0  0  0  0  0  0  0  0  0  0  0  0
   23.5752  -22.4893  -12.5612 O   0  0  0  0  0  0  0  0  0  0  0  0
   23.0458  -20.8428  -14.0793 N   0  0  0  0  0  0  0  0  0  0  0  0
   21.6131  -21.1995  -13.9454 C   0  0  1  0  0  0  0  0  0  0  0  0
   21.1496  -20.8348  -12.5596 C   0  0  0  0  0  0  0  0  0  0  0  0
   19.7190  -21.0887  -12.4109 C   0  0  0  0  0  0  0  0  0  0  0  0
   19.1555  -21.9980  -13.0439 O   0  0  0  0  0  0  0  0  0  0  0  0
   20.8812  -20.3753  -14.9528 C   0  0  0  0  0  0  0  0  0  0  0  0
   21.3206  -19.2171  -15.2290 O   0  0  0  0  0  0  0  0  0  0  0  0
   18.8942  -20.3371  -11.5575 O   0  0  0  0  0  0  0  0  0  0  0  0
   19.7632  -20.7989  -15.5958 O   0  0  0  0  0  0  0  0  0  0  0  0
  1  2  1  0
  2  3  1  0
  3  4  1  1
  5  3  1  0
  5  6  1  6
  7  5  1  0
  8  7  2  0
  9  7  1  0
 10  9  1  0
 11 12  1  0
 10 11  1  6
 13 12  1  0
 13 14  1  0
 14 15  1  0
 16 10  1  0
 16 18  1  0
 17 16  2  0
 19 18  1  0
 19 20  1  1
 20 21  1  0
 21 22  2  0
 23 19  1  0
 24 23  2  0
 25 21  1  0
 26 23  1  0
M  END
$$$$
