IKD.pdb
     RDKit          3D

 26 25  0  0  1  0  0  0  0  0999 V2000
   22.7217  -14.9428  -20.3210 C   0  0  0  0  0  0  0  0  0  0  0  0
   23.8228  -15.5921  -19.5073 C   0  0  0  0  0  0  0  0  0  0  0  0
   23.3461  -16.8688  -18.8418 C   0  0  2  0  0  0  0  0  0  0  0  0
   22.1611  -16.5564  -17.9967 C   0  0  0  0  0  0  0  0  0  0  0  0
   24.5097  -17.4540  -18.0855 C   0  0  2  0  0  0  0  0  0  0  0  0
   25.5878  -17.7031  -18.9816 N   0  0  0  0  0  0  0  0  0  0  0  0
   24.1622  -18.7059  -17.3806 C   0  0  0  0  0  0  0  0  0  0  0  0
   23.8247  -19.7041  -18.0594 O   0  0  0  0  0  0  0  0  0  0  0  0
   24.2107  -18.7708  -15.9786 N   0  0  0  0  0  0  0  0  0  0  0  0
   23.7416  -19.9469  -15.2161 C   0  0  1  0  0  0  0  0  0  0  0  0
   24.5815  -20.1273  -14.0074 C   0  0  0  0  0  0  0  0  0  0  0  0
   24.4364  -21.4576  -13.3398 C   0  0  0  0  0  0  0  0  0  0  0  0
   24.6509  -22.5603  -14.3257 C   0  0  0  0  0  0  0  0  0  0  0  0
   24.5610  -23.8814  -13.5870 C   0  0  0  0  0  0  0  0  0  0  0  0
   24.6350  -24.9644  -14.5263 N   0  0  0  0  0  0  0  0  0  0  0  0
   22.3052  -19.6905  -14.9580 C   0  0  0  0  0  0  0  0  0  0  0  0
   21.9864  -18.5196  -14.5347 O   0  0  0  0  0  0  0  0  0  0  0  0
   21.2609  -20.6175  -15.1411 N   0  0  0  0  0  0  0  0  0  0  0  0
   19.8873  -20.1937  -14.7783 C   0  0  1  0  0  0  0  0  0  0  0  0
   19.3060  -19.4023  -15.9202 C   0  0  0  0  0  0  0  0  0  0  0  0
   17.8900  -19.1283  -15.6897 C   0  0  0  0  0  0  0  0  0  0  0  0
   17.3413  -19.4274  -14.6152 O   0  0  0  0  0  0  0  0  0  0  0  0
   19.1003  -21.4479  -14.5846 C   0  0  0  0  0  0  0  0  0  0  0  0
   19.6579  -22.5618  -14.8276 O   0  0  0  0  0  0  0  0  0  0  0  0
   17.0636  -18.5187  -16.6483 O   0  0  0  0  0  0  0  0  0  0  0  0
   17.8113  -21.4639  -14.1591 O   0  0  0  0  0  0  0  0  0  0  0  0
  1  2  1  0
  2  3  1  0
  3  4  1  1
  5  3  1  0
  5  6  1  6
  7  5  1  0
  8  7  2  0
  9  7  1  0
 10  9  1  0
 11 12  1  0
 10 11  1  1
 13 12  1  0
 13 14  1  0
 14 15  1  0
 16 10  1  0
 16 18  1  0
 17 16  2  0
 19 18  1  0
 19 20  1  6
 20 21  1  0
 21 22  2  0
 23 19  1  0
 24 23  2  0
 25 21  1  0
 26 23  1  0
M  END
$$$$
