IKD.pdb
     RDKit          3D

 26 25  0  0  1  0  0  0  0  0999 V2000
   18.8628  -12.4829  -23.3521 C   0  0  0  0  0  0  0  0  0  0  0  0
   18.4269  -13.0482  -22.0155 C   0  0  0  0  0  0  0  0  0  0  0  0
   19.2210  -12.4493  -20.8706 C   0  0  2  0  0  0  0  0  0  0  0  0
   19.4057  -10.9941  -21.1238 C   0  0  0  0  0  0  0  0  0  0  0  0
   20.5061  -13.2252  -20.7484 C   0  0  2  0  0  0  0  0  0  0  0  0
   20.2175  -14.6125  -20.6094 N   0  0  0  0  0  0  0  0  0  0  0  0
   21.3349  -12.7828  -19.6072 C   0  0  0  0  0  0  0  0  0  0  0  0
   20.8892  -12.9355  -18.4457 O   0  0  0  0  0  0  0  0  0  0  0  0
   22.5956  -12.2035  -19.8250 N   0  0  0  0  0  0  0  0  0  0  0  0
   23.4479  -11.7068  -18.7243 C   0  0  1  0  0  0  0  0  0  0  0  0
   24.8551  -11.6155  -19.1831 C   0  0  0  0  0  0  0  0  0  0  0  0
   25.7967  -11.0109  -18.1910 C   0  0  0  0  0  0  0  0  0  0  0  0
   26.6303  -12.0735  -17.5508 C   0  0  0  0  0  0  0  0  0  0  0  0
   27.5789  -11.4077  -16.5730 C   0  0  0  0  0  0  0  0  0  0  0  0
   28.3393  -12.4097  -15.8815 N   0  0  0  0  0  0  0  0  0  0  0  0
   22.8317  -10.4249  -18.3087 C   0  0  0  0  0  0  0  0  0  0  0  0
   22.4234   -9.6419  -19.2425 O   0  0  0  0  0  0  0  0  0  0  0  0
   22.6517   -9.9944  -16.9799 N   0  0  0  0  0  0  0  0  0  0  0  0
   22.0469   -8.6587  -16.7608 C   0  0  1  0  0  0  0  0  0  0  0  0
   21.1267   -8.7319  -15.5708 C   0  0  0  0  0  0  0  0  0  0  0  0
   20.5398   -7.4239  -15.2915 C   0  0  0  0  0  0  0  0  0  0  0  0
   20.9251   -6.7353  -14.3310 O   0  0  0  0  0  0  0  0  0  0  0  0
   23.1787   -7.7309  -16.4640 C   0  0  0  0  0  0  0  0  0  0  0  0
   22.9320   -6.4945  -16.3181 O   0  0  0  0  0  0  0  0  0  0  0  0
   19.5175   -6.8621  -16.0743 O   0  0  0  0  0  0  0  0  0  0  0  0
   24.4674   -8.1389  -16.3396 O   0  0  0  0  0  0  0  0  0  0  0  0
  1  2  1  0
  2  3  1  0
  3  4  1  6
  5  3  1  0
  5  6  1  1
  7  5  1  0
  8  7  2  0
  9  7  1  0
 10  9  1  0
 11 12  1  0
 10 11  1  6
 13 12  1  0
 13 14  1  0
 14 15  1  0
 16 10  1  0
 16 18  1  0
 17 16  2  0
 19 18  1  0
 19 20  1  1
 20 21  1  0
 21 22  2  0
 23 19  1  0
 24 23  2  0
 25 21  1  0
 26 23  1  0
M  END
$$$$
