IKD.pdb
     RDKit          3D

 26 25  0  0  1  0  0  0  0  0999 V2000
   21.7457  -23.1069  -16.2746 C   0  0  0  0  0  0  0  0  0  0  0  0
   23.0020  -23.6985  -15.6679 C   0  0  0  0  0  0  0  0  0  0  0  0
   23.6682  -24.6810  -16.6118 C   0  0  2  0  0  0  0  0  0  0  0  0
   22.6673  -25.7013  -17.0279 C   0  0  0  0  0  0  0  0  0  0  0  0
   24.8742  -25.2466  -15.9088 C   0  0  2  0  0  0  0  0  0  0  0  0
   25.7242  -24.1856  -15.4856 N   0  0  0  0  0  0  0  0  0  0  0  0
   25.6449  -26.1802  -16.7569 C   0  0  0  0  0  0  0  0  0  0  0  0
   25.0559  -27.1709  -17.2493 O   0  0  0  0  0  0  0  0  0  0  0  0
   27.0095  -25.9574  -17.0032 N   0  0  0  0  0  0  0  0  0  0  0  0
   27.8066  -26.8069  -17.9130 C   0  0  1  0  0  0  0  0  0  0  0  0
   28.8996  -26.0064  -18.5159 C   0  0  0  0  0  0  0  0  0  0  0  0
   28.5089  -25.2375  -19.7376 C   0  0  0  0  0  0  0  0  0  0  0  0
   28.2155  -23.8150  -19.3850 C   0  0  0  0  0  0  0  0  0  0  0  0
   27.7561  -23.1000  -20.6407 C   0  0  0  0  0  0  0  0  0  0  0  0
   27.4032  -21.7456  -20.3219 N   0  0  0  0  0  0  0  0  0  0  0  0
   28.2439  -27.9544  -17.0837 C   0  0  0  0  0  0  0  0  0  0  0  0
   28.6710  -27.6923  -15.9002 O   0  0  0  0  0  0  0  0  0  0  0  0
   28.2270  -29.3059  -17.4797 N   0  0  0  0  0  0  0  0  0  0  0  0
   28.6105  -30.3265  -16.4752 C   0  0  1  0  0  0  0  0  0  0  0  0
   27.4615  -30.5249  -15.5219 C   0  0  0  0  0  0  0  0  0  0  0  0
   26.7602  -31.7728  -15.8122 C   0  0  0  0  0  0  0  0  0  0  0  0
   27.2131  -32.5928  -16.6292 O   0  0  0  0  0  0  0  0  0  0  0  0
   28.8566  -31.5886  -17.2344 C   0  0  0  0  0  0  0  0  0  0  0  0
   28.3504  -31.7132  -18.3915 O   0  0  0  0  0  0  0  0  0  0  0  0
   25.5469  -32.1279  -15.1996 O   0  0  0  0  0  0  0  0  0  0  0  0
   29.5982  -32.6187  -16.7529 O   0  0  0  0  0  0  0  0  0  0  0  0
  1  2  1  0
  2  3  1  0
  3  4  1  1
  5  3  1  0
  5  6  1  6
  7  5  1  0
  8  7  2  0
  9  7  1  0
 10  9  1  0
 11 12  1  0
 10 11  1  1
 13 12  1  0
 13 14  1  0
 14 15  1  0
 16 10  1  0
 16 18  1  0
 17 16  2  0
 19 18  1  0
 19 20  1  1
 20 21  1  0
 21 22  2  0
 23 19  1  0
 24 23  2  0
 25 21  1  0
 26 23  1  0
M  END
$$$$
