IKD.pdb
     RDKit          3D

 26 25  0  0  1  0  0  0  0  0999 V2000
   24.2599  -15.8210  -15.6638 C   0  0  0  0  0  0  0  0  0  0  0  0
   25.3099  -16.8263  -16.0918 C   0  0  0  0  0  0  0  0  0  0  0  0
   26.7111  -16.3357  -15.7822 C   0  0  2  0  0  0  0  0  0  0  0  0
   26.9313  -15.0394  -16.4800 C   0  0  0  0  0  0  0  0  0  0  0  0
   27.6755  -17.4234  -16.1765 C   0  0  2  0  0  0  0  0  0  0  0  0
   27.4797  -17.7652  -17.5448 N   0  0  0  0  0  0  0  0  0  0  0  0
   27.5381  -18.6382  -15.3459 C   0  0  0  0  0  0  0  0  0  0  0  0
   26.8903  -19.6090  -15.8031 O   0  0  0  0  0  0  0  0  0  0  0  0
   28.1232  -18.6989  -14.0706 N   0  0  0  0  0  0  0  0  0  0  0  0
   28.1106  -19.9234  -13.2428 C   0  0  1  0  0  0  0  0  0  0  0  0
   29.3341  -19.9747  -12.4065 C   0  0  0  0  0  0  0  0  0  0  0  0
   30.2675  -21.0961  -12.7347 C   0  0  0  0  0  0  0  0  0  0  0  0
   31.1443  -21.4023  -11.5636 C   0  0  0  0  0  0  0  0  0  0  0  0
   32.1316  -22.4759  -11.9779 C   0  0  0  0  0  0  0  0  0  0  0  0
   32.9825  -22.8017  -10.8688 N   0  0  0  0  0  0  0  0  0  0  0  0
   26.8327  -19.8693  -12.4948 C   0  0  0  0  0  0  0  0  0  0  0  0
   26.5347  -18.7565  -11.9250 O   0  0  0  0  0  0  0  0  0  0  0  0
   25.9164  -20.9302  -12.3590 N   0  0  0  0  0  0  0  0  0  0  0  0
   24.6879  -20.6867  -11.5657 C   0  0  1  0  0  0  0  0  0  0  0  0
   23.5102  -21.2648  -12.3052 C   0  0  0  0  0  0  0  0  0  0  0  0
   22.2808  -21.0868  -11.5368 C   0  0  0  0  0  0  0  0  0  0  0  0
   22.2556  -20.3813  -10.5137 O   0  0  0  0  0  0  0  0  0  0  0  0
   24.8743  -21.4115  -10.2735 C   0  0  0  0  0  0  0  0  0  0  0  0
   25.8071  -22.2674  -10.1829 O   0  0  0  0  0  0  0  0  0  0  0  0
   21.0628  -21.6890  -11.8934 O   0  0  0  0  0  0  0  0  0  0  0  0
   24.0961  -21.2044   -9.1806 O   0  0  0  0  0  0  0  0  0  0  0  0
  1  2  1  0
  2  3  1  0
  3  4  1  6
  5  3  1  0
  5  6  1  6
  7  5  1  0
  8  7  2  0
  9  7  1  0
 10  9  1  0
 11 12  1  0
 10 11  1  1
 13 12  1  0
 13 14  1  0
 14 15  1  0
 16 10  1  0
 16 18  1  0
 17 16  2  0
 19 18  1  0
 19 20  1  6
 20 21  1  0
 21 22  2  0
 23 19  1  0
 24 23  2  0
 25 21  1  0
 26 23  1  0
M  END
$$$$
