IKD.pdb
     RDKit          3D

 26 25  0  0  1  0  0  0  0  0999 V2000
   20.1462  -20.4553   -8.2325 C   0  0  0  0  0  0  0  0  0  0  0  0
   21.5230  -20.9853   -8.5784 C   0  0  0  0  0  0  0  0  0  0  0  0
   22.0784  -20.3240   -9.8251 C   0  0  2  0  0  0  0  0  0  0  0  0
   21.0677  -20.4249  -10.9132 C   0  0  0  0  0  0  0  0  0  0  0  0
   23.3978  -20.9777  -10.1421 C   0  0  2  0  0  0  0  0  0  0  0  0
   24.3203  -20.7333   -9.0854 N   0  0  0  0  0  0  0  0  0  0  0  0
   23.9790  -20.5045  -11.4161 C   0  0  0  0  0  0  0  0  0  0  0  0
   24.5151  -19.3720  -11.4483 O   0  0  0  0  0  0  0  0  0  0  0  0
   23.9291  -21.3111  -12.5647 N   0  0  0  0  0  0  0  0  0  0  0  0
   24.5057  -20.8938  -13.8601 C   0  0  1  0  0  0  0  0  0  0  0  0
   24.8706  -22.0916  -14.6545 C   0  0  0  0  0  0  0  0  0  0  0  0
   25.3914  -21.7964  -16.0250 C   0  0  0  0  0  0  0  0  0  0  0  0
   26.8847  -21.8608  -16.0388 C   0  0  0  0  0  0  0  0  0  0  0  0
   27.3597  -21.5567  -17.4462 C   0  0  0  0  0  0  0  0  0  0  0  0
   28.7947  -21.5386  -17.4768 N   0  0  0  0  0  0  0  0  0  0  0  0
   23.4818  -20.0146  -14.4719 C   0  0  0  0  0  0  0  0  0  0  0  0
   22.2511  -20.3454  -14.3053 O   0  0  0  0  0  0  0  0  0  0  0  0
   23.7418  -18.8470  -15.2153 N   0  0  0  0  0  0  0  0  0  0  0  0
   22.5819  -18.0476  -15.6771 C   0  0  1  0  0  0  0  0  0  0  0  0
   22.7942  -16.6104  -15.2801 C   0  0  0  0  0  0  0  0  0  0  0  0
   21.7131  -15.7699  -15.7883 C   0  0  0  0  0  0  0  0  0  0  0  0
   20.6875  -16.2672  -16.2843 O   0  0  0  0  0  0  0  0  0  0  0  0
   22.5631  -18.1597  -17.1660 C   0  0  0  0  0  0  0  0  0  0  0  0
   21.5840  -17.6633  -17.8030 O   0  0  0  0  0  0  0  0  0  0  0  0
   21.7553  -14.3662  -15.7530 O   0  0  0  0  0  0  0  0  0  0  0  0
   23.5428  -18.7672  -17.8828 O   0  0  0  0  0  0  0  0  0  0  0  0
  1  2  1  0
  2  3  1  0
  3  4  1  6
  5  3  1  0
  5  6  1  1
  7  5  1  0
  8  7  2  0
  9  7  1  0
 10  9  1  0
 11 12  1  0
 10 11  1  6
 13 12  1  0
 13 14  1  0
 14 15  1  0
 16 10  1  0
 16 18  1  0
 17 16  2  0
 19 18  1  0
 19 20  1  6
 20 21  1  0
 21 22  2  0
 23 19  1  0
 24 23  2  0
 25 21  1  0
 26 23  1  0
M  END
$$$$
