IKD.pdb
     RDKit          3D

 26 25  0  0  1  0  0  0  0  0999 V2000
   15.7724  -25.1111   -7.6248 C   0  0  0  0  0  0  0  0  0  0  0  0
   16.9637  -25.7288   -6.9209 C   0  0  0  0  0  0  0  0  0  0  0  0
   16.5704  -26.3378   -5.5887 C   0  0  2  0  0  0  0  0  0  0  0  0
   15.1052  -26.1618   -5.3940 C   0  0  0  0  0  0  0  0  0  0  0  0
   17.4188  -25.6958   -4.5226 C   0  0  2  0  0  0  0  0  0  0  0  0
   18.7694  -25.6180   -4.9665 N   0  0  0  0  0  0  0  0  0  0  0  0
   17.3692  -26.4235   -3.2370 C   0  0  0  0  0  0  0  0  0  0  0  0
   16.2707  -26.5164   -2.6408 O   0  0  0  0  0  0  0  0  0  0  0  0
   18.5323  -26.9976   -2.6984 N   0  0  0  0  0  0  0  0  0  0  0  0
   18.5163  -27.8575   -1.4962 C   0  0  1  0  0  0  0  0  0  0  0  0
   19.7002  -28.7503   -1.5038 C   0  0  0  0  0  0  0  0  0  0  0  0
   19.5692  -29.9675   -0.6448 C   0  0  0  0  0  0  0  0  0  0  0  0
   20.8405  -30.7534   -0.6593 C   0  0  0  0  0  0  0  0  0  0  0  0
   20.6937  -31.9111    0.3088 C   0  0  0  0  0  0  0  0  0  0  0  0
   21.9041  -32.6826    0.3241 N   0  0  0  0  0  0  0  0  0  0  0  0
   18.4370  -26.9187   -0.3525 C   0  0  0  0  0  0  0  0  0  0  0  0
   19.1055  -25.8250   -0.4455 O   0  0  0  0  0  0  0  0  0  0  0  0
   17.6892  -27.1205    0.8237 N   0  0  0  0  0  0  0  0  0  0  0  0
   17.7432  -26.0691    1.8675 C   0  0  1  0  0  0  0  0  0  0  0  0
   16.3425  -25.5930    2.1496 C   0  0  0  0  0  0  0  0  0  0  0  0
   15.5385  -26.6681    2.7250 C   0  0  0  0  0  0  0  0  0  0  0  0
   16.0370  -27.7750    2.9922 O   0  0  0  0  0  0  0  0  0  0  0  0
   18.3076  -26.7196    3.0874 C   0  0  0  0  0  0  0  0  0  0  0  0
   18.3209  -27.9870    3.1524 O   0  0  0  0  0  0  0  0  0  0  0  0
   14.1702  -26.5296    3.0117 O   0  0  0  0  0  0  0  0  0  0  0  0
   18.8122  -26.0258    4.1395 O   0  0  0  0  0  0  0  0  0  0  0  0
  1  2  1  0
  2  3  1  0
  3  4  1  1
  5  3  1  0
  5  6  1  6
  7  5  1  0
  8  7  2  0
  9  7  1  0
 10  9  1  0
 11 12  1  0
 10 11  1  1
 13 12  1  0
 13 14  1  0
 14 15  1  0
 16 10  1  0
 16 18  1  0
 17 16  2  0
 19 18  1  0
 19 20  1  1
 20 21  1  0
 21 22  2  0
 23 19  1  0
 24 23  2  0
 25 21  1  0
 26 23  1  0
M  END
$$$$
