QIC.pdb
     RDKit          3D

 24 23  0  0  1  0  0  0  0  0999 V2000
    6.4610  -20.5195   22.5347 N   0  0  0  0  0  0  0  0  0  0  0  0
    7.3947  -19.9761   21.5779 C   0  0  0  0  0  0  0  0  0  0  0  0
    8.1545  -20.7869   21.0017 O   0  0  0  0  0  0  0  0  0  0  0  0
    7.4064  -18.5353   21.3320 C   0  0  0  0  0  0  0  0  0  0  0  0
    7.9100  -17.7437   22.4922 C   0  0  0  0  0  0  0  0  0  0  0  0
    7.8361  -16.2689   22.2841 C   0  0  2  0  0  0  0  0  0  0  0  0
    8.4215  -15.9031   20.9853 N   0  0  0  0  0  0  0  0  0  0  0  0
    8.5598  -15.5185   23.3620 C   0  0  0  0  0  0  0  0  0  0  0  0
    9.7515  -15.1835   23.1378 O   0  0  0  0  0  0  0  0  0  0  0  0
    6.1930  -11.6763   25.9893 C   0  0  0  0  0  0  0  0  0  0  0  0
    7.3076  -12.5234   25.4183 C   0  0  0  0  0  0  0  0  0  0  0  0
    7.7453  -13.6214   26.3222 C   0  0  2  0  0  0  0  0  0  0  0  0
    8.2108  -13.1111   27.6740 C   0  0  0  0  0  0  0  0  0  0  0  0
    8.7158  -14.5814   25.7186 C   0  0  2  0  0  0  0  0  0  0  0  0
    7.9686  -15.1833   24.5860 N   0  0  0  0  0  0  0  0  0  0  0  0
    9.1352  -15.6987   26.5646 C   0  0  0  0  0  0  0  0  0  0  0  0
    8.2785  -16.5602   26.9903 O   0  0  0  0  0  0  0  0  0  0  0  0
   10.4640  -15.9688   27.0005 N   0  0  0  0  0  0  0  0  0  0  0  0
   10.7865  -17.0899   27.8649 C   0  0  1  0  0  0  0  0  0  0  0  0
   12.1689  -17.5953   27.4331 C   0  0  0  0  0  0  0  0  0  0  0  0
   12.3066  -17.6360   25.6249 S   0  0  0  0  0  0  0  0  0  0  0  0
   10.9178  -16.6764   29.2771 C   0  0  0  0  0  0  0  0  0  0  0  0
   11.2121  -17.5784   30.2746 O   0  0  0  0  0  0  0  0  0  0  0  0
   10.7565  -15.4738   29.5699 O   0  0  0  0  0  0  0  0  0  0  0  0
  1  2  1  0
  2  3  2  0
  4  5  1  0
  4  2  1  0
  5  6  1  0
  6  7  1  6
  8  6  1  0
  9  8  2  0
 11 10  1  0
 11 12  1  0
 12 14  1  0
 12 13  1  1
 14 15  1  6
 15  8  1  0
 16 17  2  0
 16 14  1  0
 18 16  1  0
 19 18  1  0
 19 20  1  6
 21 20  1  0
 22 19  1  0
 23 22  1  0
 24 22  2  0
M  END
$$$$
