QIC.pdb
     RDKit          3D

 24 23  0  0  1  0  0  0  0  0999 V2000
    5.0455  -19.6251   16.2331 N   0  0  0  0  0  0  0  0  0  0  0  0
    5.4029  -19.9662   17.5891 C   0  0  0  0  0  0  0  0  0  0  0  0
    4.4838  -19.9559   18.4387 O   0  0  0  0  0  0  0  0  0  0  0  0
    6.7916  -20.3016   17.8977 C   0  0  0  0  0  0  0  0  0  0  0  0
    7.4495  -19.3134   18.8014 C   0  0  0  0  0  0  0  0  0  0  0  0
    7.8984  -18.0744   18.1034 C   0  0  2  0  0  0  0  0  0  0  0  0
    8.7711  -18.4113   16.9684 N   0  0  0  0  0  0  0  0  0  0  0  0
    8.6462  -17.1573   19.0245 C   0  0  0  0  0  0  0  0  0  0  0  0
    9.8914  -17.3119   19.1143 O   0  0  0  0  0  0  0  0  0  0  0  0
    6.8124  -12.1066   19.7805 C   0  0  0  0  0  0  0  0  0  0  0  0
    7.8451  -13.2078   19.6984 C   0  0  0  0  0  0  0  0  0  0  0  0
    7.8652  -14.0969   20.8914 C   0  0  2  0  0  0  0  0  0  0  0  0
    8.1318  -13.3372   22.1784 C   0  0  0  0  0  0  0  0  0  0  0  0
    8.7338  -15.3034   20.7599 C   0  0  2  0  0  0  0  0  0  0  0  0
    8.0207  -16.1540   19.7744 N   0  0  0  0  0  0  0  0  0  0  0  0
    8.8921  -16.1235   21.9609 C   0  0  0  0  0  0  0  0  0  0  0  0
    7.8678  -16.6376   22.5470 O   0  0  0  0  0  0  0  0  0  0  0  0
   10.1232  -16.4461   22.6007 N   0  0  0  0  0  0  0  0  0  0  0  0
   10.1790  -17.1298   23.8804 C   0  0  1  0  0  0  0  0  0  0  0  0
   10.5263  -18.5939   23.5825 C   0  0  0  0  0  0  0  0  0  0  0  0
   10.8099  -19.5164   25.1184 S   0  0  0  0  0  0  0  0  0  0  0  0
   11.2664  -16.6105   24.7351 C   0  0  0  0  0  0  0  0  0  0  0  0
   11.3252  -16.8835   26.0831 O   0  0  0  0  0  0  0  0  0  0  0  0
   12.1553  -15.9044   24.2161 O   0  0  0  0  0  0  0  0  0  0  0  0
  1  2  1  0
  2  3  2  0
  4  5  1  0
  4  2  1  0
  5  6  1  0
  6  7  1  6
  8  6  1  0
  9  8  2  0
 11 10  1  0
 11 12  1  0
 12 14  1  0
 12 13  1  1
 14 15  1  6
 15  8  1  0
 16 17  2  0
 16 14  1  0
 18 16  1  0
 19 18  1  0
 19 20  1  6
 21 20  1  0
 22 19  1  0
 23 22  1  0
 24 22  2  0
M  END
$$$$
