QIC.pdb
     RDKit          3D

 24 23  0  0  1  0  0  0  0  0999 V2000
   10.0905  -20.7656   14.8354 N   0  0  0  0  0  0  0  0  0  0  0  0
   10.4980  -20.6661   16.2162 C   0  0  0  0  0  0  0  0  0  0  0  0
   11.6741  -20.9981   16.4870 O   0  0  0  0  0  0  0  0  0  0  0  0
    9.5379  -20.1909   17.2106 C   0  0  0  0  0  0  0  0  0  0  0  0
   10.1161  -19.1943   18.1586 C   0  0  0  0  0  0  0  0  0  0  0  0
    9.5817  -17.8147   17.9716 C   0  0  2  0  0  0  0  0  0  0  0  0
   10.1223  -17.2164   16.7414 N   0  0  0  0  0  0  0  0  0  0  0  0
    9.9269  -16.9235   19.1272 C   0  0  0  0  0  0  0  0  0  0  0  0
   11.1360  -16.6120   19.2806 O   0  0  0  0  0  0  0  0  0  0  0  0
    6.9519  -12.7069   19.8009 C   0  0  0  0  0  0  0  0  0  0  0  0
    8.1618  -13.6102   19.8805 C   0  0  0  0  0  0  0  0  0  0  0  0
    8.1666  -14.4970   21.0754 C   0  0  2  0  0  0  0  0  0  0  0  0
    8.0338  -13.7230   22.3746 C   0  0  0  0  0  0  0  0  0  0  0  0
    9.2858  -15.4833   21.1199 C   0  0  2  0  0  0  0  0  0  0  0  0
    8.9703  -16.4346   20.0250 N   0  0  0  0  0  0  0  0  0  0  0  0
    9.3931  -16.2892   22.3362 C   0  0  0  0  0  0  0  0  0  0  0  0
    8.4369  -17.0739   22.6926 O   0  0  0  0  0  0  0  0  0  0  0  0
   10.5010  -16.3150   23.2309 N   0  0  0  0  0  0  0  0  0  0  0  0
   10.5309  -17.1647   24.4079 C   0  0  1  0  0  0  0  0  0  0  0  0
   12.0068  -17.4706   24.6927 C   0  0  0  0  0  0  0  0  0  0  0  0
   12.8146  -18.1768   23.2302 S   0  0  0  0  0  0  0  0  0  0  0  0
   10.0127  -16.4682   25.6032 C   0  0  0  0  0  0  0  0  0  0  0  0
    9.9087  -17.0971   26.8233 O   0  0  0  0  0  0  0  0  0  0  0  0
    9.6603  -15.2752   25.4995 O   0  0  0  0  0  0  0  0  0  0  0  0
  1  2  1  0
  2  3  2  0
  4  5  1  0
  4  2  1  0
  5  6  1  0
  6  7  1  6
  8  6  1  0
  9  8  2  0
 11 10  1  0
 11 12  1  0
 12 14  1  0
 12 13  1  1
 14 15  1  6
 15  8  1  0
 16 17  2  0
 16 14  1  0
 18 16  1  0
 19 18  1  0
 19 20  1  1
 21 20  1  0
 22 19  1  0
 23 22  1  0
 24 22  2  0
M  END
$$$$
