QIC.pdb
     RDKit          3D

 24 23  0  0  1  0  0  0  0  0999 V2000
    9.1319  -16.3187   14.0221 N   0  0  0  0  0  0  0  0  0  0  0  0
   10.0855  -17.4018   14.0212 C   0  0  0  0  0  0  0  0  0  0  0  0
   10.1771  -18.0775   12.9716 O   0  0  0  0  0  0  0  0  0  0  0  0
   10.8827  -17.6511   15.2206 C   0  0  0  0  0  0  0  0  0  0  0  0
   10.5417  -16.7426   16.3540 C   0  0  0  0  0  0  0  0  0  0  0  0
   10.3498  -17.4538   17.6506 C   0  0  2  0  0  0  0  0  0  0  0  0
    9.0213  -18.0833   17.6998 N   0  0  0  0  0  0  0  0  0  0  0  0
   10.4806  -16.5237   18.8195 C   0  0  0  0  0  0  0  0  0  0  0  0
   11.6134  -16.0234   19.0408 O   0  0  0  0  0  0  0  0  0  0  0  0
    6.7133  -12.9744   19.6969 C   0  0  0  0  0  0  0  0  0  0  0  0
    8.0953  -13.5837   19.7682 C   0  0  0  0  0  0  0  0  0  0  0  0
    8.2613  -14.5569   20.8815 C   0  0  2  0  0  0  0  0  0  0  0  0
    7.9967  -13.9359   22.2412 C   0  0  0  0  0  0  0  0  0  0  0  0
    9.5385  -15.3289   20.8544 C   0  0  2  0  0  0  0  0  0  0  0  0
    9.4079  -16.1978   19.6581 N   0  0  0  0  0  0  0  0  0  0  0  0
    9.7771  -16.2289   21.9828 C   0  0  0  0  0  0  0  0  0  0  0  0
    9.0647  -17.2893   22.1414 O   0  0  0  0  0  0  0  0  0  0  0  0
   10.7692  -16.0652   22.9916 N   0  0  0  0  0  0  0  0  0  0  0  0
   10.9566  -17.0284   24.0619 C   0  0  1  0  0  0  0  0  0  0  0  0
   12.4686  -17.1370   24.2966 C   0  0  0  0  0  0  0  0  0  0  0  0
   13.3282  -17.6026   22.7687 S   0  0  0  0  0  0  0  0  0  0  0  0
   10.3713  -16.5583   25.3343 C   0  0  0  0  0  0  0  0  0  0  0  0
   10.3211  -17.3607   26.4519 O   0  0  0  0  0  0  0  0  0  0  0  0
    9.9103  -15.3999   25.3935 O   0  0  0  0  0  0  0  0  0  0  0  0
  1  2  1  0
  2  3  2  0
  4  5  1  0
  4  2  1  0
  5  6  1  0
  6  7  1  6
  8  6  1  0
  9  8  2  0
 11 10  1  0
 11 12  1  0
 12 14  1  0
 12 13  1  1
 14 15  1  6
 15  8  1  0
 16 17  2  0
 16 14  1  0
 18 16  1  0
 19 18  1  0
 19 20  1  1
 21 20  1  0
 22 19  1  0
 23 22  1  0
 24 22  2  0
M  END
$$$$
