QIC.pdb
     RDKit          3D

 24 23  0  0  1  0  0  0  0  0999 V2000
    5.7787  -19.3153   24.4136 N   0  0  0  0  0  0  0  0  0  0  0  0
    5.3752  -19.4237   23.0323 C   0  0  0  0  0  0  0  0  0  0  0  0
    4.3629  -20.1184   22.7888 O   0  0  0  0  0  0  0  0  0  0  0  0
    6.1511  -18.7300   22.0061 C   0  0  0  0  0  0  0  0  0  0  0  0
    7.2599  -17.9025   22.5647 C   0  0  0  0  0  0  0  0  0  0  0  0
    7.0837  -16.4392   22.3380 C   0  0  2  0  0  0  0  0  0  0  0  0
    7.4347  -16.0877   20.9535 N   0  0  0  0  0  0  0  0  0  0  0  0
    7.9348  -15.6262   23.2671 C   0  0  0  0  0  0  0  0  0  0  0  0
    9.1025  -15.3467   22.8916 O   0  0  0  0  0  0  0  0  0  0  0  0
    5.5451  -11.9016   26.1733 C   0  0  0  0  0  0  0  0  0  0  0  0
    6.6648  -12.5922   25.4281 C   0  0  0  0  0  0  0  0  0  0  0  0
    7.3958  -13.5967   26.2472 C   0  0  2  0  0  0  0  0  0  0  0  0
    8.0375  -12.9860   27.4800 C   0  0  0  0  0  0  0  0  0  0  0  0
    8.3486  -14.4551   25.4836 C   0  0  2  0  0  0  0  0  0  0  0  0
    7.4858  -15.1753   24.5141 N   0  0  0  0  0  0  0  0  0  0  0  0
    9.0468  -15.4888   26.2479 C   0  0  0  0  0  0  0  0  0  0  0  0
    8.3939  -16.4411   26.8170 O   0  0  0  0  0  0  0  0  0  0  0  0
   10.4541  -15.5771   26.4494 N   0  0  0  0  0  0  0  0  0  0  0  0
   11.0651  -16.6521   27.2103 C   0  0  1  0  0  0  0  0  0  0  0  0
   12.5542  -16.6609   26.8423 C   0  0  0  0  0  0  0  0  0  0  0  0
   13.4534  -17.8994   27.8158 S   0  0  0  0  0  0  0  0  0  0  0  0
   10.9982  -16.4040   28.6651 C   0  0  0  0  0  0  0  0  0  0  0  0
   10.9839  -17.4339   29.5786 O   0  0  0  0  0  0  0  0  0  0  0  0
   10.9535  -15.2254   29.0736 O   0  0  0  0  0  0  0  0  0  0  0  0
  1  2  1  0
  2  3  2  0
  4  5  1  0
  4  2  1  0
  5  6  1  0
  6  7  1  6
  8  6  1  0
  9  8  2  0
 11 10  1  0
 11 12  1  0
 12 14  1  0
 12 13  1  1
 14 15  1  6
 15  8  1  0
 16 17  2  0
 16 14  1  0
 18 16  1  0
 19 18  1  0
 19 20  1  6
 21 20  1  0
 22 19  1  0
 23 22  1  0
 24 22  2  0
M  END
$$$$
