QIC.pdb
     RDKit          3D

 24 23  0  0  1  0  0  0  0  0999 V2000
    7.7777  -19.4265   20.7188 N   0  0  0  0  0  0  0  0  0  0  0  0
    6.9681  -18.6614   19.8014 C   0  0  0  0  0  0  0  0  0  0  0  0
    6.4150  -19.2901   18.8712 O   0  0  0  0  0  0  0  0  0  0  0  0
    6.8350  -17.2194   19.9998 C   0  0  0  0  0  0  0  0  0  0  0  0
    7.5352  -16.7256   21.2213 C   0  0  0  0  0  0  0  0  0  0  0  0
    7.4036  -15.2549   21.4299 C   0  0  2  0  0  0  0  0  0  0  0  0
    7.9287  -14.5219   20.2678 N   0  0  0  0  0  0  0  0  0  0  0  0
    8.1399  -14.7990   22.6541 C   0  0  0  0  0  0  0  0  0  0  0  0
    9.3406  -14.4506   22.5146 O   0  0  0  0  0  0  0  0  0  0  0  0
    5.7746  -11.5700   25.9379 C   0  0  0  0  0  0  0  0  0  0  0  0
    6.8527  -12.3300   25.1988 C   0  0  0  0  0  0  0  0  0  0  0  0
    7.3327  -13.5388   25.9218 C   0  0  2  0  0  0  0  0  0  0  0  0
    7.8370  -13.2197   27.3176 C   0  0  0  0  0  0  0  0  0  0  0  0
    8.2933  -14.3870   25.1566 C   0  0  2  0  0  0  0  0  0  0  0  0
    7.5507  -14.7477   23.9231 N   0  0  0  0  0  0  0  0  0  0  0  0
    8.6804  -15.6529   25.7794 C   0  0  0  0  0  0  0  0  0  0  0  0
    7.8023  -16.5616   26.0250 O   0  0  0  0  0  0  0  0  0  0  0  0
    9.9979  -16.0280   26.1697 N   0  0  0  0  0  0  0  0  0  0  0  0
   10.3087  -17.3464   26.6924 C   0  0  1  0  0  0  0  0  0  0  0  0
   11.7292  -17.6831   26.2214 C   0  0  0  0  0  0  0  0  0  0  0  0
   11.9016  -17.4050   24.4372 S   0  0  0  0  0  0  0  0  0  0  0  0
   10.3469  -17.3583   28.1692 C   0  0  0  0  0  0  0  0  0  0  0  0
   10.6226  -18.5044   28.8803 O   0  0  0  0  0  0  0  0  0  0  0  0
   10.1222  -16.2966   28.7859 O   0  0  0  0  0  0  0  0  0  0  0  0
  1  2  1  0
  2  3  2  0
  4  5  1  0
  4  2  1  0
  5  6  1  0
  6  7  1  6
  8  6  1  0
  9  8  2  0
 11 10  1  0
 11 12  1  0
 12 14  1  0
 12 13  1  1
 14 15  1  6
 15  8  1  0
 16 17  2  0
 16 14  1  0
 18 16  1  0
 19 18  1  0
 19 20  1  6
 21 20  1  0
 22 19  1  0
 23 22  1  0
 24 22  2  0
M  END
$$$$
