QIC.pdb
     RDKit          3D

 24 23  0  0  1  0  0  0  0  0999 V2000
    6.3125  -21.0642   17.6603 N   0  0  0  0  0  0  0  0  0  0  0  0
    7.7039  -21.1341   17.2841 C   0  0  0  0  0  0  0  0  0  0  0  0
    8.0710  -22.1494   16.6507 O   0  0  0  0  0  0  0  0  0  0  0  0
    8.5981  -20.0381   17.6520 C   0  0  0  0  0  0  0  0  0  0  0  0
    7.9493  -18.6967   17.5736 C   0  0  0  0  0  0  0  0  0  0  0  0
    8.8876  -17.6025   17.1914 C   0  0  2  0  0  0  0  0  0  0  0  0
   10.0017  -18.1362   16.3931 N   0  0  0  0  0  0  0  0  0  0  0  0
    9.4523  -16.9088   18.3949 C   0  0  0  0  0  0  0  0  0  0  0  0
   10.6911  -17.0031   18.5926 O   0  0  0  0  0  0  0  0  0  0  0  0
    6.7419  -12.4930   19.8129 C   0  0  0  0  0  0  0  0  0  0  0  0
    7.9135  -13.4164   19.5663 C   0  0  0  0  0  0  0  0  0  0  0  0
    8.1801  -14.3549   20.6899 C   0  0  2  0  0  0  0  0  0  0  0  0
    8.4179  -13.6349   22.0050 C   0  0  0  0  0  0  0  0  0  0  0  0
    9.2267  -15.3826   20.4137 C   0  0  2  0  0  0  0  0  0  0  0  0
    8.6658  -16.1737   19.2900 N   0  0  0  0  0  0  0  0  0  0  0  0
    9.4955  -16.3400   21.4867 C   0  0  0  0  0  0  0  0  0  0  0  0
    8.6009  -17.1920   21.8485 O   0  0  0  0  0  0  0  0  0  0  0  0
   10.7077  -16.4535   22.2261 N   0  0  0  0  0  0  0  0  0  0  0  0
   10.9050  -17.4685   23.2453 C   0  0  1  0  0  0  0  0  0  0  0  0
   12.3880  -17.8579   23.1975 C   0  0  0  0  0  0  0  0  0  0  0  0
   12.8750  -18.3437   21.5192 S   0  0  0  0  0  0  0  0  0  0  0  0
   10.6575  -16.9410   24.6029 C   0  0  0  0  0  0  0  0  0  0  0  0
   10.7635  -17.7354   25.7222 O   0  0  0  0  0  0  0  0  0  0  0  0
   10.3435  -15.7401   24.7343 O   0  0  0  0  0  0  0  0  0  0  0  0
  1  2  1  0
  2  3  2  0
  4  5  1  0
  4  2  1  0
  5  6  1  0
  6  7  1  1
  8  6  1  0
  9  8  2  0
 11 10  1  0
 11 12  1  0
 12 14  1  0
 12 13  1  1
 14 15  1  6
 15  8  1  0
 16 17  2  0
 16 14  1  0
 18 16  1  0
 19 18  1  0
 19 20  1  1
 21 20  1  0
 22 19  1  0
 23 22  1  0
 24 22  2  0
M  END
$$$$
