QIC.pdb
     RDKit          3D

 24 23  0  0  1  0  0  0  0  0999 V2000
    5.7028  -18.4924   19.8215 N   0  0  0  0  0  0  0  0  0  0  0  0
    7.1076  -18.6836   20.0908 C   0  0  0  0  0  0  0  0  0  0  0  0
    7.6690  -19.6474   19.5229 O   0  0  0  0  0  0  0  0  0  0  0  0
    7.7927  -17.7606   20.9935 C   0  0  0  0  0  0  0  0  0  0  0  0
    6.8918  -16.7174   21.5647 C   0  0  0  0  0  0  0  0  0  0  0  0
    7.5024  -15.3574   21.6003 C   0  0  2  0  0  0  0  0  0  0  0  0
    8.4176  -15.1750   20.4633 N   0  0  0  0  0  0  0  0  0  0  0  0
    8.2660  -15.1239   22.8696 C   0  0  0  0  0  0  0  0  0  0  0  0
    9.5181  -15.2368   22.8243 O   0  0  0  0  0  0  0  0  0  0  0  0
    5.9697  -11.6128   26.0994 C   0  0  0  0  0  0  0  0  0  0  0  0
    7.0645  -12.3792   25.3923 C   0  0  0  0  0  0  0  0  0  0  0  0
    7.4821  -13.6169   26.1051 C   0  0  2  0  0  0  0  0  0  0  0  0
    8.0052  -13.3352   27.5020 C   0  0  0  0  0  0  0  0  0  0  0  0
    8.3956  -14.5083   25.3313 C   0  0  2  0  0  0  0  0  0  0  0  0
    7.6477  -14.7910   24.0808 N   0  0  0  0  0  0  0  0  0  0  0  0
    8.6909  -15.8108   25.9282 C   0  0  0  0  0  0  0  0  0  0  0  0
    7.7421  -16.6245   26.2360 O   0  0  0  0  0  0  0  0  0  0  0  0
    9.9860  -16.3230   26.2268 N   0  0  0  0  0  0  0  0  0  0  0  0
   10.1922  -17.6646   26.7424 C   0  0  1  0  0  0  0  0  0  0  0  0
   11.3163  -18.2896   25.9064 C   0  0  0  0  0  0  0  0  0  0  0  0
   12.7723  -17.2085   25.8698 S   0  0  0  0  0  0  0  0  0  0  0  0
   10.6723  -17.6499   28.1394 C   0  0  0  0  0  0  0  0  0  0  0  0
   10.9126  -16.4738   28.8134 O   0  0  0  0  0  0  0  0  0  0  0  0
   10.8644  -18.7371   28.7216 O   0  0  0  0  0  0  0  0  0  0  0  0
  1  2  1  0
  2  3  2  0
  4  5  1  0
  4  2  1  0
  5  6  1  0
  6  7  1  6
  8  6  1  0
  9  8  2  0
 11 10  1  0
 11 12  1  0
 12 14  1  0
 12 13  1  1
 14 15  1  6
 15  8  1  0
 16 17  2  0
 16 14  1  0
 18 16  1  0
 19 18  1  0
 19 20  1  6
 21 20  1  0
 22 19  1  0
 23 22  1  0
 24 22  2  0
M  END
$$$$
