QIC.pdb
     RDKit          3D

 24 23  0  0  1  0  0  0  0  0999 V2000
    5.5344  -16.3860   20.3799 N   0  0  0  0  0  0  0  0  0  0  0  0
    6.5186  -16.7850   19.4029 C   0  0  0  0  0  0  0  0  0  0  0  0
    6.0984  -17.3690   18.3787 O   0  0  0  0  0  0  0  0  0  0  0  0
    7.9290  -16.4924   19.6509 C   0  0  0  0  0  0  0  0  0  0  0  0
    8.1525  -15.6573   20.8670 C   0  0  0  0  0  0  0  0  0  0  0  0
    8.3413  -16.4562   22.1119 C   0  0  2  0  0  0  0  0  0  0  0  0
    7.0584  -17.0182   22.5614 N   0  0  0  0  0  0  0  0  0  0  0  0
    8.9146  -15.6278   23.2225 C   0  0  0  0  0  0  0  0  0  0  0  0
   10.0440  -15.1062   23.0356 O   0  0  0  0  0  0  0  0  0  0  0  0
    6.0001  -12.1556   25.4821 C   0  0  0  0  0  0  0  0  0  0  0  0
    7.3009  -12.8202   25.0922 C   0  0  0  0  0  0  0  0  0  0  0  0
    7.7835  -13.8162   26.0868 C   0  0  2  0  0  0  0  0  0  0  0  0
    8.1298  -13.1835   27.4225 C   0  0  0  0  0  0  0  0  0  0  0  0
    8.8646  -14.7202   25.5952 C   0  0  2  0  0  0  0  0  0  0  0  0
    8.2512  -15.4176   24.4374 N   0  0  0  0  0  0  0  0  0  0  0  0
    9.3001  -15.7713   26.5149 C   0  0  0  0  0  0  0  0  0  0  0  0
    8.4740  -16.6671   26.9298 O   0  0  0  0  0  0  0  0  0  0  0  0
   10.6143  -15.9367   27.0388 N   0  0  0  0  0  0  0  0  0  0  0  0
   10.9621  -17.0213   27.9391 C   0  0  1  0  0  0  0  0  0  0  0  0
   12.3844  -17.4612   27.5697 C   0  0  0  0  0  0  0  0  0  0  0  0
   12.4966  -17.8720   25.8066 S   0  0  0  0  0  0  0  0  0  0  0  0
   11.0179  -16.5729   29.3456 C   0  0  0  0  0  0  0  0  0  0  0  0
   11.2834  -17.4453   30.3770 O   0  0  0  0  0  0  0  0  0  0  0  0
   10.8181  -15.3677   29.6019 O   0  0  0  0  0  0  0  0  0  0  0  0
  1  2  1  0
  2  3  2  0
  4  5  1  0
  4  2  1  0
  5  6  1  0
  6  7  1  1
  8  6  1  0
  9  8  2  0
 11 10  1  0
 11 12  1  0
 12 14  1  0
 12 13  1  1
 14 15  1  6
 15  8  1  0
 16 17  2  0
 16 14  1  0
 18 16  1  0
 19 18  1  0
 19 20  1  6
 21 20  1  0
 22 19  1  0
 23 22  1  0
 24 22  2  0
M  END
$$$$
