QIC.pdb
     RDKit          3D

 24 23  0  0  1  0  0  0  0  0999 V2000
   12.2892  -17.7451   20.1689 N   0  0  0  0  0  0  0  0  0  0  0  0
   11.1214  -17.9021   19.3359 C   0  0  0  0  0  0  0  0  0  0  0  0
   11.1710  -18.7828   18.4478 O   0  0  0  0  0  0  0  0  0  0  0  0
    9.9608  -17.0440   19.5659 C   0  0  0  0  0  0  0  0  0  0  0  0
   10.1297  -16.1234   20.7279 C   0  0  0  0  0  0  0  0  0  0  0  0
    9.3578  -16.5389   21.9343 C   0  0  2  0  0  0  0  0  0  0  0  0
    7.9168  -16.5615   21.6398 N   0  0  0  0  0  0  0  0  0  0  0  0
    9.5939  -15.6143   23.0910 C   0  0  0  0  0  0  0  0  0  0  0  0
   10.7870  -15.3538   23.3931 O   0  0  0  0  0  0  0  0  0  0  0  0
    6.2439  -11.6470   26.4045 C   0  0  0  0  0  0  0  0  0  0  0  0
    7.5295  -12.4346   26.2914 C   0  0  0  0  0  0  0  0  0  0  0  0
    7.5043  -13.4670   25.2201 C   0  0  2  0  0  0  0  0  0  0  0  0
    6.2904  -14.3736   25.3145 C   0  0  0  0  0  0  0  0  0  0  0  0
    8.7721  -14.2388   25.0629 C   0  0  2  0  0  0  0  0  0  0  0  0
    8.5544  -15.0411   23.8332 N   0  0  0  0  0  0  0  0  0  0  0  0
    9.0829  -15.1994   26.1217 C   0  0  0  0  0  0  0  0  0  0  0  0
    8.3715  -16.2609   26.2773 O   0  0  0  0  0  0  0  0  0  0  0  0
   10.1490  -15.0976   27.0608 N   0  0  0  0  0  0  0  0  0  0  0  0
   10.4185  -16.1290   28.0465 C   0  0  1  0  0  0  0  0  0  0  0  0
   11.8634  -16.5901   27.8175 C   0  0  0  0  0  0  0  0  0  0  0  0
   12.1697  -16.9068   26.0579 S   0  0  0  0  0  0  0  0  0  0  0  0
   10.3646  -15.6007   29.4251 C   0  0  0  0  0  0  0  0  0  0  0  0
   10.5284  -16.4151   30.5229 O   0  0  0  0  0  0  0  0  0  0  0  0
   10.1645  -14.3804   29.5949 O   0  0  0  0  0  0  0  0  0  0  0  0
  1  2  1  0
  2  3  2  0
  4  5  1  0
  4  2  1  0
  5  6  1  0
  6  7  1  6
  8  6  1  0
  9  8  2  0
 11 10  1  0
 11 12  1  0
 12 14  1  0
 12 13  1  1
 14 15  1  6
 15  8  1  0
 16 17  2  0
 16 14  1  0
 18 16  1  0
 19 18  1  0
 19 20  1  6
 21 20  1  0
 22 19  1  0
 23 22  1  0
 24 22  2  0
M  END
$$$$
