QIC.pdb
     RDKit          3D

 24 23  0  0  1  0  0  0  0  0999 V2000
    8.8661  -14.9372   13.1397 N   0  0  0  0  0  0  0  0  0  0  0  0
    9.7976  -16.0026   13.4222 C   0  0  0  0  0  0  0  0  0  0  0  0
   10.7624  -16.1372   12.6363 O   0  0  0  0  0  0  0  0  0  0  0  0
    9.5746  -16.8542   14.5890 C   0  0  0  0  0  0  0  0  0  0  0  0
   10.1499  -16.2935   15.8463 C   0  0  0  0  0  0  0  0  0  0  0  0
    9.9350  -17.1623   17.0391 C   0  0  2  0  0  0  0  0  0  0  0  0
    8.5584  -17.6800   17.0567 N   0  0  0  0  0  0  0  0  0  0  0  0
   10.1824  -16.4208   18.3187 C   0  0  0  0  0  0  0  0  0  0  0  0
   11.3773  -16.1787   18.6290 O   0  0  0  0  0  0  0  0  0  0  0  0
    6.7977  -12.5423   19.3534 C   0  0  0  0  0  0  0  0  0  0  0  0
    8.1098  -13.2930   19.3837 C   0  0  0  0  0  0  0  0  0  0  0  0
    8.1953  -14.3008   20.4751 C   0  0  2  0  0  0  0  0  0  0  0  0
    8.0330  -13.6823   21.8519 C   0  0  0  0  0  0  0  0  0  0  0  0
    9.3794  -15.2064   20.4011 C   0  0  2  0  0  0  0  0  0  0  0  0
    9.1513  -15.9961   19.1652 N   0  0  0  0  0  0  0  0  0  0  0  0
    9.5197  -16.1813   21.4828 C   0  0  0  0  0  0  0  0  0  0  0  0
    8.8934  -17.3053   21.4416 O   0  0  0  0  0  0  0  0  0  0  0  0
   10.3201  -16.0294   22.6512 N   0  0  0  0  0  0  0  0  0  0  0  0
   10.7277  -17.1589   23.4673 C   0  0  1  0  0  0  0  0  0  0  0  0
   11.7451  -17.9552   22.6402 C   0  0  0  0  0  0  0  0  0  0  0  0
   12.4546  -19.3088   23.6172 S   0  0  0  0  0  0  0  0  0  0  0  0
   11.4338  -16.7276   24.6911 C   0  0  0  0  0  0  0  0  0  0  0  0
   11.4721  -17.5106   25.8228 O   0  0  0  0  0  0  0  0  0  0  0  0
   12.0108  -15.6208   24.6951 O   0  0  0  0  0  0  0  0  0  0  0  0
  1  2  1  0
  2  3  2  0
  4  5  1  0
  4  2  1  0
  5  6  1  0
  6  7  1  1
  8  6  1  0
  9  8  2  0
 11 10  1  0
 11 12  1  0
 12 14  1  0
 12 13  1  1
 14 15  1  6
 15  8  1  0
 16 17  2  0
 16 14  1  0
 18 16  1  0
 19 18  1  0
 19 20  1  6
 21 20  1  0
 22 19  1  0
 23 22  1  0
 24 22  2  0
M  END
$$$$
