QIC.pdb
     RDKit          3D

 24 23  0  0  1  0  0  0  0  0999 V2000
    5.3416  -17.6677   22.0445 N   0  0  0  0  0  0  0  0  0  0  0  0
    5.7144  -17.9565   20.6806 C   0  0  0  0  0  0  0  0  0  0  0  0
    4.8146  -18.3868   19.9245 O   0  0  0  0  0  0  0  0  0  0  0  0
    7.0958  -17.7357   20.2569 C   0  0  0  0  0  0  0  0  0  0  0  0
    7.9508  -17.1376   21.3234 C   0  0  0  0  0  0  0  0  0  0  0  0
    7.7250  -15.6764   21.5184 C   0  0  2  0  0  0  0  0  0  0  0  0
    8.2316  -14.9195   20.3634 N   0  0  0  0  0  0  0  0  0  0  0  0
    8.4033  -15.1694   22.7559 C   0  0  0  0  0  0  0  0  0  0  0  0
    9.6203  -14.8628   22.6680 O   0  0  0  0  0  0  0  0  0  0  0  0
    5.7697  -11.8146   25.7465 C   0  0  0  0  0  0  0  0  0  0  0  0
    6.9197  -12.5595   25.1072 C   0  0  0  0  0  0  0  0  0  0  0  0
    7.3904  -13.7259   25.9023 C   0  0  2  0  0  0  0  0  0  0  0  0
    7.8051  -13.3403   27.3108 C   0  0  0  0  0  0  0  0  0  0  0  0
    8.4162  -14.5731   25.2258 C   0  0  2  0  0  0  0  0  0  0  0  0
    7.7440  -15.0275   23.9828 N   0  0  0  0  0  0  0  0  0  0  0  0
    8.8229  -15.7881   25.9318 C   0  0  0  0  0  0  0  0  0  0  0  0
    7.9535  -16.6747   26.2714 O   0  0  0  0  0  0  0  0  0  0  0  0
   10.1517  -16.1334   26.3112 N   0  0  0  0  0  0  0  0  0  0  0  0
   10.4735  -17.3925   26.9587 C   0  0  1  0  0  0  0  0  0  0  0  0
   11.9252  -17.7202   26.5870 C   0  0  0  0  0  0  0  0  0  0  0  0
   12.1957  -17.5258   24.8040 S   0  0  0  0  0  0  0  0  0  0  0  0
   10.4370  -17.2795   28.4312 C   0  0  0  0  0  0  0  0  0  0  0  0
   10.6424  -18.3675   29.2494 O   0  0  0  0  0  0  0  0  0  0  0  0
   10.2132  -16.1638   28.9442 O   0  0  0  0  0  0  0  0  0  0  0  0
  1  2  1  0
  2  3  2  0
  4  5  1  0
  4  2  1  0
  5  6  1  0
  6  7  1  6
  8  6  1  0
  9  8  2  0
 11 10  1  0
 11 12  1  0
 12 14  1  0
 12 13  1  1
 14 15  1  6
 15  8  1  0
 16 17  2  0
 16 14  1  0
 18 16  1  0
 19 18  1  0
 19 20  1  1
 21 20  1  0
 22 19  1  0
 23 22  1  0
 24 22  2  0
M  END
$$$$
