QIC.pdb
     RDKit          3D

 24 23  0  0  1  0  0  0  0  0999 V2000
    9.5742  -15.5535   17.8888 N   0  0  0  0  0  0  0  0  0  0  0  0
    8.1442  -15.7254   17.9794 C   0  0  0  0  0  0  0  0  0  0  0  0
    7.5132  -15.8152   16.9022 O   0  0  0  0  0  0  0  0  0  0  0  0
    7.5154  -15.7864   19.2975 C   0  0  0  0  0  0  0  0  0  0  0  0
    8.4956  -15.7305   20.4210 C   0  0  0  0  0  0  0  0  0  0  0  0
    7.9864  -16.3334   21.6863 C   0  0  2  0  0  0  0  0  0  0  0  0
    6.5375  -16.1142   21.8135 N   0  0  0  0  0  0  0  0  0  0  0  0
    8.6644  -15.7526   22.8911 C   0  0  0  0  0  0  0  0  0  0  0  0
    9.9029  -15.5448   22.8179 O   0  0  0  0  0  0  0  0  0  0  0  0
    6.2475  -12.0526   25.6707 C   0  0  0  0  0  0  0  0  0  0  0  0
    7.3478  -12.9129   25.0917 C   0  0  0  0  0  0  0  0  0  0  0  0
    7.7218  -14.0648   25.9563 C   0  0  2  0  0  0  0  0  0  0  0  0
    8.1823  -13.6309   27.3362 C   0  0  0  0  0  0  0  0  0  0  0  0
    8.6625  -15.0397   25.3299 C   0  0  2  0  0  0  0  0  0  0  0  0
    7.9819  -15.4387   24.0726 N   0  0  0  0  0  0  0  0  0  0  0  0
    8.9014  -16.2787   26.0702 C   0  0  0  0  0  0  0  0  0  0  0  0
    7.9547  -17.1327   26.2479 O   0  0  0  0  0  0  0  0  0  0  0  0
   10.1363  -16.6828   26.6539 N   0  0  0  0  0  0  0  0  0  0  0  0
   10.2621  -17.8905   27.4500 C   0  0  1  0  0  0  0  0  0  0  0  0
   11.2773  -18.7879   26.7310 C   0  0  0  0  0  0  0  0  0  0  0  0
   11.3918  -18.3551   24.9733 S   0  0  0  0  0  0  0  0  0  0  0  0
   10.8266  -17.6125   28.7866 C   0  0  0  0  0  0  0  0  0  0  0  0
   10.9963  -18.6052   29.7252 O   0  0  0  0  0  0  0  0  0  0  0  0
   11.1580  -16.4427   29.0689 O   0  0  0  0  0  0  0  0  0  0  0  0
  1  2  1  0
  2  3  2  0
  4  5  1  0
  4  2  1  0
  5  6  1  0
  6  7  1  1
  8  6  1  0
  9  8  2  0
 11 10  1  0
 11 12  1  0
 12 14  1  0
 12 13  1  1
 14 15  1  6
 15  8  1  0
 16 17  2  0
 16 14  1  0
 18 16  1  0
 19 18  1  0
 19 20  1  6
 21 20  1  0
 22 19  1  0
 23 22  1  0
 24 22  2  0
M  END
$$$$
