ADP.pdb
     RDKit          3D

 21 21  0  0  1  0  0  0  0  0999 V2000
   17.8965  -13.4565  -17.7445 C   0  0  0  0  0  0  0  0  0  0  0  0
   19.0805  -13.6390  -18.6926 C   0  0  2  0  0  0  0  0  0  0  0  0
   19.5407  -15.0194  -18.4228 N   0  0  0  0  0  0  0  0  0  0  0  0
   20.1903  -12.7492  -18.2609 C   0  0  0  0  0  0  0  0  0  0  0  0
   20.8832  -13.0290  -17.2238 O   0  0  0  0  0  0  0  0  0  0  0  0
   20.5731  -11.5566  -18.9369 N   0  0  0  0  0  0  0  0  0  0  0  0
   21.6443  -10.7186  -18.4000 C   0  0  1  0  0  0  0  0  0  0  0  0
   22.1533   -9.8290  -19.5235 C   0  0  0  0  0  0  0  0  0  0  0  0
   23.2676   -8.9967  -19.1087 C   0  0  0  0  0  0  0  0  0  0  0  0
   23.1784   -7.8065  -18.7437 O   0  0  0  0  0  0  0  0  0  0  0  0
   21.2293   -9.9552  -17.2020 C   0  0  0  0  0  0  0  0  0  0  0  0
   19.9859   -9.5786  -17.1121 O   0  0  0  0  0  0  0  0  0  0  0  0
   24.5980   -9.4993  -19.0879 O   0  0  0  0  0  0  0  0  0  0  0  0
   22.0351   -9.5710  -16.1066 N   0  0  0  0  0  0  0  0  0  0  0  0
   23.4796   -9.9323  -16.0366 C   0  0  0  0  0  0  0  0  0  0  0  0
   23.4922  -10.5244  -14.6185 C   0  0  0  0  0  0  0  0  0  0  0  0
   22.7953   -9.3939  -13.8778 C   0  0  0  0  0  0  0  0  0  0  0  0
   21.7894   -8.8375  -14.9076 C   0  0  1  0  0  0  0  0  0  0  0  0
   22.1789   -7.3979  -15.0847 C   0  0  0  0  0  0  0  0  0  0  0  0
   21.9023   -6.5048  -14.2512 O   0  0  0  0  0  0  0  0  0  0  0  0
   22.8778   -7.0292  -16.2213 O   0  0  0  0  0  0  0  0  0  0  0  0
  2  1  1  1
  2  3  1  0
  4  2  1  0
  5  4  2  0
  6  4  1  0
  7 11  1  0
  7  6  1  0
  7  8  1  6
  9 10  2  0
  9  8  1  0
 11 14  1  0
 12 11  2  0
 13  9  1  0
 14 15  1  0
 14 18  1  0
 15 16  1  0
 16 17  1  0
 18 17  1  0
 18 19  1  6
 19 21  1  0
 20 19  2  0
M  END
$$$$
