ADP.pdb
     RDKit          3D

 21 21  0  0  1  0  0  0  0  0999 V2000
   15.0293   -8.2538  -16.4986 C   0  0  0  0  0  0  0  0  0  0  0  0
   16.0532   -9.1225  -17.2272 C   0  0  2  0  0  0  0  0  0  0  0  0
   15.5422  -10.4995  -17.0461 N   0  0  0  0  0  0  0  0  0  0  0  0
   17.3452   -9.0691  -16.4940 C   0  0  0  0  0  0  0  0  0  0  0  0
   17.4182   -9.4470  -15.2750 O   0  0  0  0  0  0  0  0  0  0  0  0
   18.5712   -8.6174  -17.0587 N   0  0  0  0  0  0  0  0  0  0  0  0
   19.7883   -8.5918  -16.2488 C   0  0  1  0  0  0  0  0  0  0  0  0
   20.9754   -8.7940  -17.1775 C   0  0  0  0  0  0  0  0  0  0  0  0
   20.9839  -10.1117  -17.7859 C   0  0  0  0  0  0  0  0  0  0  0  0
   20.8587  -10.3402  -19.0066 O   0  0  0  0  0  0  0  0  0  0  0  0
   19.9025   -7.3685  -15.4239 C   0  0  0  0  0  0  0  0  0  0  0  0
   19.3147   -6.2851  -15.8445 O   0  0  0  0  0  0  0  0  0  0  0  0
   21.1419  -11.2872  -17.0011 O   0  0  0  0  0  0  0  0  0  0  0  0
   20.5889   -7.2203  -14.1976 N   0  0  0  0  0  0  0  0  0  0  0  0
   21.2969   -8.3651  -13.5571 C   0  0  0  0  0  0  0  0  0  0  0  0
   20.6978   -8.2367  -12.1477 C   0  0  0  0  0  0  0  0  0  0  0  0
   20.9513   -6.7562  -11.9106 C   0  0  0  0  0  0  0  0  0  0  0  0
   20.8027   -6.1234  -13.3104 C   0  0  1  0  0  0  0  0  0  0  0  0
   22.1321   -5.4801  -13.5833 C   0  0  0  0  0  0  0  0  0  0  0  0
   23.0312   -6.0251  -14.2640 O   0  0  0  0  0  0  0  0  0  0  0  0
   22.3864   -4.2233  -13.0616 O   0  0  0  0  0  0  0  0  0  0  0  0
  2  1  1  1
  2  3  1  0
  4  2  1  0
  5  4  2  0
  6  4  1  0
  7 11  1  0
  7  6  1  0
  7  8  1  6
  9 10  2  0
  9  8  1  0
 11 14  1  0
 12 11  2  0
 13  9  1  0
 14 15  1  0
 14 18  1  0
 15 16  1  0
 16 17  1  0
 18 17  1  0
 18 19  1  6
 19 21  1  0
 20 19  2  0
M  END
$$$$
