ADP.pdb
     RDKit          3D

 21 21  0  0  1  0  0  0  0  0999 V2000
   24.2882  -12.0287  -14.8884 C   0  0  0  0  0  0  0  0  0  0  0  0
   22.9184  -12.1903  -15.5451 C   0  0  2  0  0  0  0  0  0  0  0  0
   23.2198  -12.8482  -16.8361 N   0  0  0  0  0  0  0  0  0  0  0  0
   22.3830  -10.8469  -15.8892 C   0  0  0  0  0  0  0  0  0  0  0  0
   22.8987  -10.1642  -16.8389 O   0  0  0  0  0  0  0  0  0  0  0  0
   21.2883  -10.2244  -15.2258 N   0  0  0  0  0  0  0  0  0  0  0  0
   20.8353   -8.8975  -15.6410 C   0  0  1  0  0  0  0  0  0  0  0  0
   19.3157   -8.9151  -15.6952 C   0  0  0  0  0  0  0  0  0  0  0  0
   18.7601   -7.6260  -16.0638 C   0  0  0  0  0  0  0  0  0  0  0  0
   18.8782   -7.0863  -17.1831 O   0  0  0  0  0  0  0  0  0  0  0  0
   21.3701   -7.8152  -14.7849 C   0  0  0  0  0  0  0  0  0  0  0  0
   21.5046   -8.0477  -13.5106 O   0  0  0  0  0  0  0  0  0  0  0  0
   18.0093   -6.8521  -15.1363 O   0  0  0  0  0  0  0  0  0  0  0  0
   21.7677   -6.5199  -15.1860 N   0  0  0  0  0  0  0  0  0  0  0  0
   21.5837   -6.0468  -16.5876 C   0  0  0  0  0  0  0  0  0  0  0  0
   23.0095   -5.5302  -16.8369 C   0  0  0  0  0  0  0  0  0  0  0  0
   23.1756   -4.6685  -15.5950 C   0  0  0  0  0  0  0  0  0  0  0  0
   22.3723   -5.4178  -14.5109 C   0  0  1  0  0  0  0  0  0  0  0  0
   21.3251   -4.4384  -14.0641 C   0  0  0  0  0  0  0  0  0  0  0  0
   21.5507   -3.5194  -13.2436 O   0  0  0  0  0  0  0  0  0  0  0  0
   20.0444   -4.5479  -14.5781 O   0  0  0  0  0  0  0  0  0  0  0  0
  2  1  1  1
  2  3  1  0
  4  2  1  0
  5  4  2  0
  6  4  1  0
  7 11  1  0
  7  6  1  0
  7  8  1  1
  9 10  2  0
  9  8  1  0
 11 14  1  0
 12 11  2  0
 13  9  1  0
 14 15  1  0
 14 18  1  0
 15 16  1  0
 16 17  1  0
 18 17  1  0
 18 19  1  6
 19 21  1  0
 20 19  2  0
M  END
$$$$
