ADP.pdb
     RDKit          3D

 21 21  0  0  1  0  0  0  0  0999 V2000
   19.2356  -19.5840  -15.8597 C   0  0  0  0  0  0  0  0  0  0  0  0
   20.3667  -18.7814  -15.2193 C   0  0  2  0  0  0  0  0  0  0  0  0
   20.8906  -17.9579  -16.3318 N   0  0  0  0  0  0  0  0  0  0  0  0
   21.4682  -19.7070  -14.8456 C   0  0  0  0  0  0  0  0  0  0  0  0
   21.3138  -20.5553  -13.9019 O   0  0  0  0  0  0  0  0  0  0  0  0
   22.7416  -19.7383  -15.4808 N   0  0  0  0  0  0  0  0  0  0  0  0
   23.7955  -20.6150  -14.9724 C   0  0  1  0  0  0  0  0  0  0  0  0
   24.5653  -21.1645  -16.1632 C   0  0  0  0  0  0  0  0  0  0  0  0
   25.6959  -21.9813  -15.7622 C   0  0  0  0  0  0  0  0  0  0  0  0
   25.6220  -23.0293  -15.0884 O   0  0  0  0  0  0  0  0  0  0  0  0
   24.6670  -19.9479  -13.9796 C   0  0  0  0  0  0  0  0  0  0  0  0
   24.9715  -18.6961  -14.1702 O   0  0  0  0  0  0  0  0  0  0  0  0
   27.0261  -21.6308  -16.1236 O   0  0  0  0  0  0  0  0  0  0  0  0
   25.2286  -20.5129  -12.8124 N   0  0  0  0  0  0  0  0  0  0  0  0
   24.9646  -21.9284  -12.4266 C   0  0  0  0  0  0  0  0  0  0  0  0
   24.5511  -21.6874  -10.9662 C   0  0  0  0  0  0  0  0  0  0  0  0
   25.7199  -20.8214  -10.5232 C   0  0  0  0  0  0  0  0  0  0  0  0
   26.0865  -20.0147  -11.7869 C   0  0  1  0  0  0  0  0  0  0  0  0
   27.5144  -20.3805  -12.0744 C   0  0  0  0  0  0  0  0  0  0  0  0
   27.8460  -21.2204  -12.9425 O   0  0  0  0  0  0  0  0  0  0  0  0
   28.5212  -19.7655  -11.3502 O   0  0  0  0  0  0  0  0  0  0  0  0
  2  1  1  6
  2  3  1  0
  4  2  1  0
  5  4  2  0
  6  4  1  0
  7 11  1  0
  7  6  1  0
  7  8  1  6
  9 10  2  0
  9  8  1  0
 11 14  1  0
 12 11  2  0
 13  9  1  0
 14 15  1  0
 14 18  1  0
 15 16  1  0
 16 17  1  0
 18 17  1  0
 18 19  1  6
 19 21  1  0
 20 19  2  0
M  END
$$$$
