ADP.pdb
     RDKit          3D

 21 21  0  0  1  0  0  0  0  0999 V2000
   17.9200  -12.1921  -14.4729 C   0  0  0  0  0  0  0  0  0  0  0  0
   16.9355  -11.8038  -13.3712 C   0  0  2  0  0  0  0  0  0  0  0  0
   15.6098  -11.9548  -14.0114 N   0  0  0  0  0  0  0  0  0  0  0  0
   17.0818  -10.3539  -13.0776 C   0  0  0  0  0  0  0  0  0  0  0  0
   16.7675   -9.4774  -13.9533 O   0  0  0  0  0  0  0  0  0  0  0  0
   17.5594   -9.8283  -11.8440 N   0  0  0  0  0  0  0  0  0  0  0  0
   17.7819   -8.3909  -11.6943 C   0  0  1  0  0  0  0  0  0  0  0  0
   17.3619   -7.9941  -10.2877 C   0  0  0  0  0  0  0  0  0  0  0  0
   17.4741   -6.5653  -10.0590 C   0  0  0  0  0  0  0  0  0  0  0  0
   17.7439   -5.7167  -10.9336 O   0  0  0  0  0  0  0  0  0  0  0  0
   19.1688   -7.9887  -12.0179 C   0  0  0  0  0  0  0  0  0  0  0  0
   20.1439   -8.5768  -11.3858 O   0  0  0  0  0  0  0  0  0  0  0  0
   17.2765   -6.0058   -8.7664 O   0  0  0  0  0  0  0  0  0  0  0  0
   19.5849   -7.0175  -12.9564 N   0  0  0  0  0  0  0  0  0  0  0  0
   18.6002   -6.2073  -13.7284 C   0  0  0  0  0  0  0  0  0  0  0  0
   19.1769   -6.4370  -15.1343 C   0  0  0  0  0  0  0  0  0  0  0  0
   20.6315   -6.0898  -14.8592 C   0  0  0  0  0  0  0  0  0  0  0  0
   20.8590   -6.5599  -13.4069 C   0  0  1  0  0  0  0  0  0  0  0  0
   21.2643   -5.3205  -12.6618 C   0  0  0  0  0  0  0  0  0  0  0  0
   22.4320   -4.8676  -12.6674 O   0  0  0  0  0  0  0  0  0  0  0  0
   20.3081   -4.6376  -11.9298 O   0  0  0  0  0  0  0  0  0  0  0  0
  2  1  1  6
  2  3  1  0
  4  2  1  0
  5  4  2  0
  6  4  1  0
  7 11  1  0
  7  6  1  0
  7  8  1  1
  9 10  2  0
  9  8  1  0
 11 14  1  0
 12 11  2  0
 13  9  1  0
 14 15  1  0
 14 18  1  0
 15 16  1  0
 16 17  1  0
 18 17  1  0
 18 19  1  1
 19 21  1  0
 20 19  2  0
M  END
$$$$
