ADP.pdb
     RDKit          3D

 21 21  0  0  1  0  0  0  0  0999 V2000
   15.3639   -9.9774  -14.4314 C   0  0  0  0  0  0  0  0  0  0  0  0
   15.7696  -10.1402  -15.8952 C   0  0  2  0  0  0  0  0  0  0  0  0
   15.6883  -11.5999  -16.1250 N   0  0  0  0  0  0  0  0  0  0  0  0
   17.2053   -9.7850  -16.0439 C   0  0  0  0  0  0  0  0  0  0  0  0
   18.1172  -10.5528  -15.5823 O   0  0  0  0  0  0  0  0  0  0  0  0
   17.6791   -8.6098  -16.6923 N   0  0  0  0  0  0  0  0  0  0  0  0
   19.1043   -8.2834  -16.6733 C   0  0  1  0  0  0  0  0  0  0  0  0
   19.4173   -7.4709  -17.9201 C   0  0  0  0  0  0  0  0  0  0  0  0
   20.8130   -7.0790  -17.9893 C   0  0  0  0  0  0  0  0  0  0  0  0
   21.7590   -7.8392  -18.2810 O   0  0  0  0  0  0  0  0  0  0  0  0
   19.5212   -7.6080  -15.4242 C   0  0  0  0  0  0  0  0  0  0  0  0
   18.6483   -6.8665  -14.8043 O   0  0  0  0  0  0  0  0  0  0  0  0
   21.2201   -5.7436  -17.7179 O   0  0  0  0  0  0  0  0  0  0  0  0
   20.7858   -7.6673  -14.7965 N   0  0  0  0  0  0  0  0  0  0  0  0
   21.9024   -8.4737  -15.3668 C   0  0  0  0  0  0  0  0  0  0  0  0
   22.2918   -9.2445  -14.0956 C   0  0  0  0  0  0  0  0  0  0  0  0
   22.4081   -8.0759  -13.1297 C   0  0  0  0  0  0  0  0  0  0  0  0
   21.3318   -7.0820  -13.6153 C   0  0  1  0  0  0  0  0  0  0  0  0
   22.0902   -5.8304  -13.9528 C   0  0  0  0  0  0  0  0  0  0  0  0
   22.5335   -5.0422  -13.0863 O   0  0  0  0  0  0  0  0  0  0  0  0
   22.3156   -5.5235  -15.2837 O   0  0  0  0  0  0  0  0  0  0  0  0
  2  1  1  1
  2  3  1  0
  4  2  1  0
  5  4  2  0
  6  4  1  0
  7 11  1  0
  7  6  1  0
  7  8  1  6
  9 10  2  0
  9  8  1  0
 11 14  1  0
 12 11  2  0
 13  9  1  0
 14 15  1  0
 14 18  1  0
 15 16  1  0
 16 17  1  0
 18 17  1  0
 18 19  1  6
 19 21  1  0
 20 19  2  0
M  END
$$$$
