ADP.pdb
     RDKit          3D

 21 21  0  0  1  0  0  0  0  0999 V2000
   24.5537  -11.7637  -14.6661 C   0  0  0  0  0  0  0  0  0  0  0  0
   23.3386  -11.9815  -15.5662 C   0  0  2  0  0  0  0  0  0  0  0  0
   23.9265  -12.3800  -16.8645 N   0  0  0  0  0  0  0  0  0  0  0  0
   22.6715  -10.6750  -15.8064 C   0  0  0  0  0  0  0  0  0  0  0  0
   23.1189   -9.8685  -16.6914 O   0  0  0  0  0  0  0  0  0  0  0  0
   21.5172  -10.2220  -15.1076 N   0  0  0  0  0  0  0  0  0  0  0  0
   20.9235   -8.9255  -15.4312 C   0  0  1  0  0  0  0  0  0  0  0  0
   19.4501   -8.9769  -15.0585 C   0  0  0  0  0  0  0  0  0  0  0  0
   18.7536  -10.0738  -15.7051 C   0  0  0  0  0  0  0  0  0  0  0  0
   18.0665  -10.9344  -15.1177 O   0  0  0  0  0  0  0  0  0  0  0  0
   21.6393   -7.7939  -14.8010 C   0  0  0  0  0  0  0  0  0  0  0  0
   22.2532   -8.0056  -13.6721 O   0  0  0  0  0  0  0  0  0  0  0  0
   18.8067  -10.2545  -17.1149 O   0  0  0  0  0  0  0  0  0  0  0  0
   21.7470   -6.4700  -15.2833 N   0  0  0  0  0  0  0  0  0  0  0  0
   20.9887   -6.0130  -16.4825 C   0  0  0  0  0  0  0  0  0  0  0  0
   22.1563   -5.3805  -17.2562 C   0  0  0  0  0  0  0  0  0  0  0  0
   22.7342   -4.5087  -16.1525 C   0  0  0  0  0  0  0  0  0  0  0  0
   22.4841   -5.3221  -14.8649 C   0  0  1  0  0  0  0  0  0  0  0  0
   21.6280   -4.4326  -14.0097 C   0  0  0  0  0  0  0  0  0  0  0  0
   22.0943   -3.5313  -13.2756 O   0  0  0  0  0  0  0  0  0  0  0  0
   20.2551   -4.6091  -14.0261 O   0  0  0  0  0  0  0  0  0  0  0  0
  2  1  1  1
  2  3  1  0
  4  2  1  0
  5  4  2  0
  6  4  1  0
  7 11  1  0
  7  6  1  0
  7  8  1  1
  9 10  2  0
  9  8  1  0
 11 14  1  0
 12 11  2  0
 13  9  1  0
 14 15  1  0
 14 18  1  0
 15 16  1  0
 16 17  1  0
 18 17  1  0
 18 19  1  1
 19 21  1  0
 20 19  2  0
M  END
$$$$
