ADP.pdb
     RDKit          3D

 21 21  0  0  1  0  0  0  0  0999 V2000
   21.3318  -12.4424  -19.0706 C   0  0  0  0  0  0  0  0  0  0  0  0
   22.0623  -11.8520  -17.8658 C   0  0  2  0  0  0  0  0  0  0  0  0
   21.7263  -12.7763  -16.7599 N   0  0  0  0  0  0  0  0  0  0  0  0
   21.4395  -10.5499  -17.5101 C   0  0  0  0  0  0  0  0  0  0  0  0
   21.5874   -9.5295  -18.2657 O   0  0  0  0  0  0  0  0  0  0  0  0
   20.6484  -10.3288  -16.3477 N   0  0  0  0  0  0  0  0  0  0  0  0
   20.1674   -8.9849  -16.0305 C   0  0  1  0  0  0  0  0  0  0  0  0
   18.9209   -9.1224  -15.1703 C   0  0  0  0  0  0  0  0  0  0  0  0
   17.8188   -9.7368  -15.8873 C   0  0  0  0  0  0  0  0  0  0  0  0
   17.2552  -10.8021  -15.5624 O   0  0  0  0  0  0  0  0  0  0  0  0
   21.2075   -8.1357  -15.4082 C   0  0  0  0  0  0  0  0  0  0  0  0
   22.0735   -8.7026  -14.6178 O   0  0  0  0  0  0  0  0  0  0  0  0
   17.2791   -9.1439  -17.0621 O   0  0  0  0  0  0  0  0  0  0  0  0
   21.3885   -6.7434  -15.5677 N   0  0  0  0  0  0  0  0  0  0  0  0
   20.5804   -5.9589  -16.5443 C   0  0  0  0  0  0  0  0  0  0  0  0
   21.7333   -5.2303  -17.2525 C   0  0  0  0  0  0  0  0  0  0  0  0
   22.4668   -4.6945  -16.0330 C   0  0  0  0  0  0  0  0  0  0  0  0
   22.2500   -5.7822  -14.9596 C   0  0  1  0  0  0  0  0  0  0  0  0
   21.5411   -5.0782  -13.8383 C   0  0  0  0  0  0  0  0  0  0  0  0
   20.2967   -5.0932  -13.6967 O   0  0  0  0  0  0  0  0  0  0  0  0
   22.2903   -4.3753  -12.9103 O   0  0  0  0  0  0  0  0  0  0  0  0
  2  1  1  6
  2  3  1  0
  4  2  1  0
  5  4  2  0
  6  4  1  0
  7 11  1  0
  7  6  1  0
  7  8  1  1
  9 10  2  0
  9  8  1  0
 11 14  1  0
 12 11  2  0
 13  9  1  0
 14 15  1  0
 14 18  1  0
 15 16  1  0
 16 17  1  0
 18 17  1  0
 18 19  1  1
 19 21  1  0
 20 19  2  0
M  END
$$$$
