ADP.pdb
     RDKit          3D

 21 21  0  0  1  0  0  0  0  0999 V2000
   11.7365  -13.0429  -12.2059 C   0  0  0  0  0  0  0  0  0  0  0  0
   11.6839  -11.5225  -12.3457 C   0  0  2  0  0  0  0  0  0  0  0  0
   11.4928  -11.3067  -13.7973 N   0  0  0  0  0  0  0  0  0  0  0  0
   13.0209  -10.9584  -12.0238 C   0  0  0  0  0  0  0  0  0  0  0  0
   13.4814  -11.0139  -10.8326 O   0  0  0  0  0  0  0  0  0  0  0  0
   13.8798  -10.3358  -12.9729 N   0  0  0  0  0  0  0  0  0  0  0  0
   15.1631   -9.7782  -12.5484 C   0  0  1  0  0  0  0  0  0  0  0  0
   16.1912  -10.0923  -13.6240 C   0  0  0  0  0  0  0  0  0  0  0  0
   17.5029   -9.5569  -13.3091 C   0  0  0  0  0  0  0  0  0  0  0  0
   17.8279   -8.3550  -13.3958 O   0  0  0  0  0  0  0  0  0  0  0  0
   15.0839   -8.3353  -12.2292 C   0  0  0  0  0  0  0  0  0  0  0  0
   14.2873   -7.5902  -12.9407 O   0  0  0  0  0  0  0  0  0  0  0  0
   18.5570  -10.3997  -12.8602 O   0  0  0  0  0  0  0  0  0  0  0  0
   15.7835   -7.6396  -11.2176 N   0  0  0  0  0  0  0  0  0  0  0  0
   16.8395   -8.3041  -10.4018 C   0  0  0  0  0  0  0  0  0  0  0  0
   16.3322   -7.8989   -9.0088 C   0  0  0  0  0  0  0  0  0  0  0  0
   16.1584   -6.4059   -9.2391 C   0  0  0  0  0  0  0  0  0  0  0  0
   15.7309   -6.3039  -10.7186 C   0  0  1  0  0  0  0  0  0  0  0  0
   16.7909   -5.4602  -11.3666 C   0  0  0  0  0  0  0  0  0  0  0  0
   16.8852   -4.2235  -11.1920 O   0  0  0  0  0  0  0  0  0  0  0  0
   17.7138   -6.0691  -12.1995 O   0  0  0  0  0  0  0  0  0  0  0  0
  2  1  1  6
  2  3  1  0
  4  2  1  0
  5  4  2  0
  6  4  1  0
  7 11  1  0
  7  6  1  0
  7  8  1  6
  9 10  2  0
  9  8  1  0
 11 14  1  0
 12 11  2  0
 13  9  1  0
 14 15  1  0
 14 18  1  0
 15 16  1  0
 16 17  1  0
 18 17  1  0
 18 19  1  6
 19 21  1  0
 20 19  2  0
M  END
$$$$
