ADP.pdb
     RDKit          3D

 21 21  0  0  1  0  0  0  0  0999 V2000
   26.2915  -20.2561   -8.4422 C   0  0  0  0  0  0  0  0  0  0  0  0
   24.8161  -20.4843   -8.7660 C   0  0  2  0  0  0  0  0  0  0  0  0
   24.4559  -21.6716   -7.9592 N   0  0  0  0  0  0  0  0  0  0  0  0
   24.6897  -20.9049  -10.1862 C   0  0  0  0  0  0  0  0  0  0  0  0
   25.3220  -21.9272  -10.6212 O   0  0  0  0  0  0  0  0  0  0  0  0
   23.8820  -20.2408  -11.1518 N   0  0  0  0  0  0  0  0  0  0  0  0
   23.8709  -20.6979  -12.5407 C   0  0  1  0  0  0  0  0  0  0  0  0
   22.4729  -20.4774  -13.0971 C   0  0  0  0  0  0  0  0  0  0  0  0
   22.1987  -21.3128  -14.2518 C   0  0  0  0  0  0  0  0  0  0  0  0
   23.0187  -21.5851  -15.1526 O   0  0  0  0  0  0  0  0  0  0  0  0
   24.9259  -20.0632  -13.3617 C   0  0  0  0  0  0  0  0  0  0  0  0
   25.1628  -18.7946  -13.1863 O   0  0  0  0  0  0  0  0  0  0  0  0
   20.9212  -21.9063  -14.4481 O   0  0  0  0  0  0  0  0  0  0  0  0
   25.7367  -20.6771  -14.3428 N   0  0  0  0  0  0  0  0  0  0  0  0
   25.6247  -22.1319  -14.6481 C   0  0  0  0  0  0  0  0  0  0  0  0
   27.1148  -22.4949  -14.5513 C   0  0  0  0  0  0  0  0  0  0  0  0
   27.6869  -21.4125  -15.4531 C   0  0  0  0  0  0  0  0  0  0  0  0
   26.7568  -20.2030  -15.2206 C   0  0  1  0  0  0  0  0  0  0  0  0
   26.1824  -19.8954  -16.5738 C   0  0  0  0  0  0  0  0  0  0  0  0
   25.0250  -20.2267  -16.9193 O   0  0  0  0  0  0  0  0  0  0  0  0
   26.9620  -19.2128  -17.4917 O   0  0  0  0  0  0  0  0  0  0  0  0
  2  1  1  1
  2  3  1  0
  4  2  1  0
  5  4  2  0
  6  4  1  0
  7 11  1  0
  7  6  1  0
  7  8  1  6
  9 10  2  0
  9  8  1  0
 11 14  1  0
 12 11  2  0
 13  9  1  0
 14 15  1  0
 14 18  1  0
 15 16  1  0
 16 17  1  0
 18 17  1  0
 18 19  1  6
 19 21  1  0
 20 19  2  0
M  END
$$$$
