ADP.pdb
     RDKit          3D

 21 21  0  0  1  0  0  0  0  0999 V2000
   20.0743  -12.7093  -17.8362 C   0  0  0  0  0  0  0  0  0  0  0  0
   20.1579  -12.1180  -16.4301 C   0  0  2  0  0  0  0  0  0  0  0  0
   18.8442  -12.4423  -15.8308 N   0  0  0  0  0  0  0  0  0  0  0  0
   20.2046  -10.6355  -16.5284 C   0  0  0  0  0  0  0  0  0  0  0  0
   21.2192  -10.0484  -17.0382 O   0  0  0  0  0  0  0  0  0  0  0  0
   19.1651   -9.7682  -16.0888 N   0  0  0  0  0  0  0  0  0  0  0  0
   19.3323   -8.3181  -16.1740 C   0  0  1  0  0  0  0  0  0  0  0  0
   17.9582   -7.6783  -16.0512 C   0  0  0  0  0  0  0  0  0  0  0  0
   17.0896   -8.0148  -17.1641 C   0  0  0  0  0  0  0  0  0  0  0  0
   16.0521   -8.7040  -17.0829 O   0  0  0  0  0  0  0  0  0  0  0  0
   20.3034   -7.7939  -15.1880 C   0  0  0  0  0  0  0  0  0  0  0  0
   20.3578   -8.3601  -14.0164 O   0  0  0  0  0  0  0  0  0  0  0  0
   17.3705   -7.5642  -18.4836 O   0  0  0  0  0  0  0  0  0  0  0  0
   21.2099   -6.7237  -15.3605 N   0  0  0  0  0  0  0  0  0  0  0  0
   21.2595   -5.9403  -16.6278 C   0  0  0  0  0  0  0  0  0  0  0  0
   22.7742   -6.0150  -16.8763 C   0  0  0  0  0  0  0  0  0  0  0  0
   23.2665   -5.5721  -15.5075 C   0  0  0  0  0  0  0  0  0  0  0  0
   22.2089   -6.1308  -14.5320 C   0  0  1  0  0  0  0  0  0  0  0  0
   21.6584   -4.9225  -13.8303 C   0  0  0  0  0  0  0  0  0  0  0  0
   20.6146   -4.3338  -14.1945 O   0  0  0  0  0  0  0  0  0  0  0  0
   22.3298   -4.4269  -12.7258 O   0  0  0  0  0  0  0  0  0  0  0  0
  2  1  1  6
  2  3  1  0
  4  2  1  0
  5  4  2  0
  6  4  1  0
  7 11  1  0
  7  6  1  0
  7  8  1  1
  9 10  2  0
  9  8  1  0
 11 14  1  0
 12 11  2  0
 13  9  1  0
 14 15  1  0
 14 18  1  0
 15 16  1  0
 16 17  1  0
 18 17  1  0
 18 19  1  6
 19 21  1  0
 20 19  2  0
M  END
$$$$
