ADP.pdb
     RDKit          3D

 21 21  0  0  1  0  0  0  0  0999 V2000
   29.7142  -18.6144  -18.2163 C   0  0  0  0  0  0  0  0  0  0  0  0
   28.3978  -19.3206  -18.5362 C   0  0  2  0  0  0  0  0  0  0  0  0
   27.8588  -18.5609  -19.6863 N   0  0  0  0  0  0  0  0  0  0  0  0
   27.4428  -19.0979  -17.4190 C   0  0  0  0  0  0  0  0  0  0  0  0
   27.3762  -17.9622  -16.8361 O   0  0  0  0  0  0  0  0  0  0  0  0
   26.5469  -20.0845  -16.9193 N   0  0  0  0  0  0  0  0  0  0  0  0
   25.5791  -19.7395  -15.8789 C   0  0  1  0  0  0  0  0  0  0  0  0
   24.4170  -19.0145  -16.5396 C   0  0  0  0  0  0  0  0  0  0  0  0
   23.3296  -18.7536  -15.6144 C   0  0  0  0  0  0  0  0  0  0  0  0
   22.3007  -19.4510  -15.5001 O   0  0  0  0  0  0  0  0  0  0  0  0
   25.1510  -20.9112  -15.0827 C   0  0  0  0  0  0  0  0  0  0  0  0
   24.8187  -21.9987  -15.7174 O   0  0  0  0  0  0  0  0  0  0  0  0
   23.3597  -17.6368  -14.7343 O   0  0  0  0  0  0  0  0  0  0  0  0
   25.0547  -21.0050  -13.6760 N   0  0  0  0  0  0  0  0  0  0  0  0
   25.3883  -19.8513  -12.7929 C   0  0  0  0  0  0  0  0  0  0  0  0
   26.3369  -20.5779  -11.8266 C   0  0  0  0  0  0  0  0  0  0  0  0
   25.4616  -21.7720  -11.4799 C   0  0  0  0  0  0  0  0  0  0  0  0
   24.6737  -22.0466  -12.7783 C   0  0  1  0  0  0  0  0  0  0  0  0
   23.2305  -21.9012  -12.3890 C   0  0  0  0  0  0  0  0  0  0  0  0
   22.5714  -20.8529  -12.5773 O   0  0  0  0  0  0  0  0  0  0  0  0
   22.5877  -22.9721  -11.7921 O   0  0  0  0  0  0  0  0  0  0  0  0
  2  1  1  1
  2  3  1  0
  4  2  1  0
  5  4  2  0
  6  4  1  0
  7 11  1  0
  7  6  1  0
  7  8  1  6
  9 10  2  0
  9  8  1  0
 11 14  1  0
 12 11  2  0
 13  9  1  0
 14 15  1  0
 14 18  1  0
 15 16  1  0
 16 17  1  0
 18 17  1  0
 18 19  1  1
 19 21  1  0
 20 19  2  0
M  END
$$$$
