ADP.pdb
     RDKit          3D

 21 21  0  0  1  0  0  0  0  0999 V2000
   28.7709  -20.6883  -15.4355 C   0  0  0  0  0  0  0  0  0  0  0  0
   27.2599  -20.7545  -15.6506 C   0  0  2  0  0  0  0  0  0  0  0  0
   27.0034  -19.7242  -16.6816 N   0  0  0  0  0  0  0  0  0  0  0  0
   26.5728  -20.2787  -14.4213 C   0  0  0  0  0  0  0  0  0  0  0  0
   27.0143  -19.2652  -13.7795 O   0  0  0  0  0  0  0  0  0  0  0  0
   25.4049  -20.8778  -13.8709 N   0  0  0  0  0  0  0  0  0  0  0  0
   24.8197  -20.3516  -12.6385 C   0  0  1  0  0  0  0  0  0  0  0  0
   23.3106  -20.3011  -12.8187 C   0  0  0  0  0  0  0  0  0  0  0  0
   22.9096  -19.3898  -13.8748 C   0  0  0  0  0  0  0  0  0  0  0  0
   21.9870  -19.5962  -14.6898 O   0  0  0  0  0  0  0  0  0  0  0  0
   25.2327  -21.1115  -11.4376 C   0  0  0  0  0  0  0  0  0  0  0  0
   25.5676  -22.3614  -11.5850 O   0  0  0  0  0  0  0  0  0  0  0  0
   23.5674  -18.1432  -14.0649 O   0  0  0  0  0  0  0  0  0  0  0  0
   25.3141  -20.6394  -10.1082 N   0  0  0  0  0  0  0  0  0  0  0  0
   25.1022  -19.2015   -9.7771 C   0  0  0  0  0  0  0  0  0  0  0  0
   26.3638  -18.9806   -8.9278 C   0  0  0  0  0  0  0  0  0  0  0  0
   26.2312  -20.1656   -7.9842 C   0  0  0  0  0  0  0  0  0  0  0  0
   25.5787  -21.2624   -8.8522 C   0  0  1  0  0  0  0  0  0  0  0  0
   24.2929  -21.5928   -8.1498 C   0  0  0  0  0  0  0  0  0  0  0  0
   23.1813  -21.1365   -8.5032 O   0  0  0  0  0  0  0  0  0  0  0  0
   24.3269  -22.4420   -7.0571 O   0  0  0  0  0  0  0  0  0  0  0  0
  2  1  1  1
  2  3  1  0
  4  2  1  0
  5  4  2  0
  6  4  1  0
  7 11  1  0
  7  6  1  0
  7  8  1  6
  9 10  2  0
  9  8  1  0
 11 14  1  0
 12 11  2  0
 13  9  1  0
 14 15  1  0
 14 18  1  0
 15 16  1  0
 16 17  1  0
 18 17  1  0
 18 19  1  1
 19 21  1  0
 20 19  2  0
M  END
$$$$
