ADP.pdb
     RDKit          3D

 21 21  0  0  1  0  0  0  0  0999 V2000
   14.3021   -7.4574  -14.2519 C   0  0  0  0  0  0  0  0  0  0  0  0
   14.8639   -8.3557  -15.3524 C   0  0  2  0  0  0  0  0  0  0  0  0
   14.3784   -9.7059  -14.9900 N   0  0  0  0  0  0  0  0  0  0  0  0
   16.3442   -8.4094  -15.2274 C   0  0  0  0  0  0  0  0  0  0  0  0
   16.8936   -8.6732  -14.1037 O   0  0  0  0  0  0  0  0  0  0  0  0
   17.2498   -8.1878  -16.3030 N   0  0  0  0  0  0  0  0  0  0  0  0
   18.6919   -8.1875  -16.0616 C   0  0  1  0  0  0  0  0  0  0  0  0
   19.3929   -8.3503  -17.4013 C   0  0  0  0  0  0  0  0  0  0  0  0
   20.8372   -8.4006  -17.2677 C   0  0  0  0  0  0  0  0  0  0  0  0
   21.4699   -9.2674  -16.6302 O   0  0  0  0  0  0  0  0  0  0  0  0
   19.1477   -6.9953  -15.3126 C   0  0  0  0  0  0  0  0  0  0  0  0
   18.4272   -5.9125  -15.3811 O   0  0  0  0  0  0  0  0  0  0  0  0
   21.6706   -7.4240  -17.8796 O   0  0  0  0  0  0  0  0  0  0  0  0
   20.3013   -6.8773  -14.5052 N   0  0  0  0  0  0  0  0  0  0  0  0
   21.1986   -8.0406  -14.2526 C   0  0  0  0  0  0  0  0  0  0  0  0
   21.2741   -7.9348  -12.7213 C   0  0  0  0  0  0  0  0  0  0  0  0
   21.6298   -6.4615  -12.5975 C   0  0  0  0  0  0  0  0  0  0  0  0
   20.8977   -5.8000  -13.7843 C   0  0  1  0  0  0  0  0  0  0  0  0
   21.9865   -5.1630  -14.5994 C   0  0  0  0  0  0  0  0  0  0  0  0
   22.5515   -4.0939  -14.2732 O   0  0  0  0  0  0  0  0  0  0  0  0
   22.3929   -5.7795  -15.7703 O   0  0  0  0  0  0  0  0  0  0  0  0
  2  1  1  1
  2  3  1  0
  4  2  1  0
  5  4  2  0
  6  4  1  0
  7 11  1  0
  7  6  1  0
  7  8  1  6
  9 10  2  0
  9  8  1  0
 11 14  1  0
 12 11  2  0
 13  9  1  0
 14 15  1  0
 14 18  1  0
 15 16  1  0
 16 17  1  0
 18 17  1  0
 18 19  1  6
 19 21  1  0
 20 19  2  0
M  END
$$$$
