ADP.pdb
     RDKit          3D

 21 21  0  0  1  0  0  0  0  0999 V2000
   15.5244   -6.0528   -8.0005 C   0  0  0  0  0  0  0  0  0  0  0  0
   14.9880   -6.9249   -9.1343 C   0  0  2  0  0  0  0  0  0  0  0  0
   14.7693   -8.2417   -8.4953 N   0  0  0  0  0  0  0  0  0  0  0  0
   16.0649   -7.1341  -10.1375 C   0  0  0  0  0  0  0  0  0  0  0  0
   17.0850   -7.8517   -9.8575 O   0  0  0  0  0  0  0  0  0  0  0  0
   16.0580   -6.5837  -11.4500 N   0  0  0  0  0  0  0  0  0  0  0  0
   17.1359   -6.9005  -12.3858 C   0  0  1  0  0  0  0  0  0  0  0  0
   16.5199   -7.1039  -13.7613 C   0  0  0  0  0  0  0  0  0  0  0  0
   17.5100   -7.4448  -14.7661 C   0  0  0  0  0  0  0  0  0  0  0  0
   17.9423   -6.6673  -15.6417 O   0  0  0  0  0  0  0  0  0  0  0  0
   18.2156   -5.8885  -12.3806 C   0  0  0  0  0  0  0  0  0  0  0  0
   17.9172   -4.6715  -12.0256 O   0  0  0  0  0  0  0  0  0  0  0  0
   18.0830   -8.7451  -14.8280 O   0  0  0  0  0  0  0  0  0  0  0  0
   19.5737   -6.0795  -12.7213 N   0  0  0  0  0  0  0  0  0  0  0  0
   20.0917   -7.4120  -13.1434 C   0  0  0  0  0  0  0  0  0  0  0  0
   21.3015   -7.4897  -12.1990 C   0  0  0  0  0  0  0  0  0  0  0  0
   21.9233   -6.1328  -12.4895 C   0  0  0  0  0  0  0  0  0  0  0  0
   20.7112   -5.2195  -12.7703 C   0  0  1  0  0  0  0  0  0  0  0  0
   20.9270   -4.7152  -14.1684 C   0  0  0  0  0  0  0  0  0  0  0  0
   20.4325   -5.2643  -15.1798 O   0  0  0  0  0  0  0  0  0  0  0  0
   21.7091   -3.5892  -14.3598 O   0  0  0  0  0  0  0  0  0  0  0  0
  2  1  1  1
  2  3  1  0
  4  2  1  0
  5  4  2  0
  6  4  1  0
  7 11  1  0
  7  6  1  0
  7  8  1  6
  9 10  2  0
  9  8  1  0
 11 14  1  0
 12 11  2  0
 13  9  1  0
 14 15  1  0
 14 18  1  0
 15 16  1  0
 16 17  1  0
 18 17  1  0
 18 19  1  6
 19 21  1  0
 20 19  2  0
M  END
$$$$
