QFT.pdb
     RDKit          3D

 28 28  0  0  1  0  0  0  0  0999 V2000
   13.0562  -17.8302   18.9011 N   0  0  0  0  0  0  0  0  0  0  0  0
   11.9560  -18.2074   18.0667 C   0  0  0  0  0  0  0  0  0  0  0  0
   12.2607  -18.8469   17.0338 O   0  0  0  0  0  0  0  0  0  0  0  0
   10.6039  -17.8159   18.4863 C   0  0  0  0  0  0  0  0  0  0  0  0
   10.5726  -17.1370   19.8014 C   0  0  0  0  0  0  0  0  0  0  0  0
    9.5034  -17.5663   20.7586 C   0  0  2  0  0  0  0  0  0  0  0  0
    8.1831  -17.5945   20.1994 N   0  0  0  0  0  0  0  0  0  0  0  0
    9.5435  -16.6380   21.9487 C   0  0  0  0  0  0  0  0  0  0  0  0
   10.6463  -16.4130   22.4845 O   0  0  0  0  0  0  0  0  0  0  0  0
    8.3587  -16.0343   22.4485 N   0  0  0  0  0  0  0  0  0  0  0  0
    8.4001  -15.2135   23.6428 C   0  0  1  0  0  0  0  0  0  0  0  0
    7.1961  -14.3007   23.7255 C   0  0  0  0  0  0  0  0  0  0  0  0
    7.2127  -13.4495   24.9354 C   0  0  0  0  0  0  0  0  0  0  0  0
    6.3165  -13.6040   25.9757 C   0  0  0  0  0  0  0  0  0  0  0  0
    6.3471  -12.8010   27.0959 C   0  0  0  0  0  0  0  0  0  0  0  0
    7.2951  -11.8067   27.1990 C   0  0  0  0  0  0  0  0  0  0  0  0
    8.2025  -11.6267   26.1798 C   0  0  0  0  0  0  0  0  0  0  0  0
    8.1481  -12.4499   25.0639 C   0  0  0  0  0  0  0  0  0  0  0  0
    8.3695  -16.0828   24.8445 C   0  0  0  0  0  0  0  0  0  0  0  0
    7.3867  -16.8145   25.1220 O   0  0  0  0  0  0  0  0  0  0  0  0
    9.9479  -18.9793   25.1934 C   0  0  0  0  0  0  0  0  0  0  0  0
   10.4012  -18.2574   26.4202 C   0  0  1  0  0  0  0  0  0  0  0  0
   11.7222  -17.8700   26.2176 O   0  0  0  0  0  0  0  0  0  0  0  0
    9.5275  -17.0773   26.7937 C   0  0  2  0  0  0  0  0  0  0  0  0
    9.4806  -16.1022   25.7241 N   0  0  0  0  0  0  0  0  0  0  0  0
    9.9802  -16.4440   28.0573 C   0  0  0  0  0  0  0  0  0  0  0  0
   10.3681  -15.2503   28.0892 O   0  0  0  0  0  0  0  0  0  0  0  0
    9.9961  -17.1454   29.2700 O   0  0  0  0  0  0  0  0  0  0  0  0
  2  1  1  0
  2  3  2  0
  4  5  1  0
  4  2  1  0
  5  6  1  0
  6  8  1  0
  6  7  1  6
  8  9  2  0
 10 11  1  0
 10  8  1  0
 11 12  1  1
 13 12  1  0
 14 13  2  0
 15 14  1  0
 16 17  1  0
 16 15  2  0
 17 18  2  0
 18 13  1  0
 19 20  2  0
 19 11  1  0
 22 21  1  6
 22 24  1  0
 23 22  1  0
 24 26  1  0
 24 25  1  6
 25 19  1  0
 26 28  1  0
 27 26  2  0
M  END
$$$$
