QFT.pdb
     RDKit          3D

 28 28  0  0  1  0  0  0  0  0999 V2000
    7.6781  -12.7414   18.2566 N   0  0  0  0  0  0  0  0  0  0  0  0
    8.9269  -13.1277   18.8398 C   0  0  0  0  0  0  0  0  0  0  0  0
    9.9448  -12.6290   18.3072 O   0  0  0  0  0  0  0  0  0  0  0  0
    8.9007  -14.0542   19.9793 C   0  0  0  0  0  0  0  0  0  0  0  0
    7.5316  -14.4436   20.3859 C   0  0  0  0  0  0  0  0  0  0  0  0
    7.3802  -15.7677   21.0697 C   0  0  2  0  0  0  0  0  0  0  0  0
    6.0229  -16.2055   21.2205 N   0  0  0  0  0  0  0  0  0  0  0  0
    8.0485  -15.6737   22.4203 C   0  0  0  0  0  0  0  0  0  0  0  0
    9.2653  -15.4055   22.4591 O   0  0  0  0  0  0  0  0  0  0  0  0
    7.3147  -15.8844   23.6183 N   0  0  0  0  0  0  0  0  0  0  0  0
    7.9581  -15.7376   24.9091 C   0  0  1  0  0  0  0  0  0  0  0  0
    6.9713  -15.3001   25.9695 C   0  0  0  0  0  0  0  0  0  0  0  0
    6.8769  -13.8281   26.0827 C   0  0  0  0  0  0  0  0  0  0  0  0
    7.9854  -13.0085   26.1754 C   0  0  0  0  0  0  0  0  0  0  0  0
    7.8781  -11.6380   26.2803 C   0  0  0  0  0  0  0  0  0  0  0  0
    6.6330  -11.0487   26.2946 C   0  0  0  0  0  0  0  0  0  0  0  0
    5.5085  -11.8372   26.2039 C   0  0  0  0  0  0  0  0  0  0  0  0
    5.6467  -13.2141   26.0993 C   0  0  0  0  0  0  0  0  0  0  0  0
    8.5089  -17.0455   25.3414 C   0  0  0  0  0  0  0  0  0  0  0  0
    7.7876  -18.0625   25.4956 O   0  0  0  0  0  0  0  0  0  0  0  0
   11.1088  -19.0912   23.5975 C   0  0  0  0  0  0  0  0  0  0  0  0
   11.5600  -18.8642   25.0034 C   0  0  1  0  0  0  0  0  0  0  0  0
   12.5686  -17.9061   24.9732 O   0  0  0  0  0  0  0  0  0  0  0  0
   10.4438  -18.4660   25.9474 C   0  0  2  0  0  0  0  0  0  0  0  0
    9.8975  -17.1721   25.5948 N   0  0  0  0  0  0  0  0  0  0  0  0
   10.8984  -18.4726   27.3603 C   0  0  0  0  0  0  0  0  0  0  0  0
   10.8407  -17.4396   28.0716 O   0  0  0  0  0  0  0  0  0  0  0  0
   11.4115  -19.6276   27.9650 O   0  0  0  0  0  0  0  0  0  0  0  0
  2  1  1  0
  2  3  2  0
  4  5  1  0
  4  2  1  0
  5  6  1  0
  6  8  1  0
  6  7  1  1
  8  9  2  0
 10 11  1  0
 10  8  1  0
 11 12  1  1
 13 12  1  0
 14 13  2  0
 15 14  1  0
 16 17  1  0
 16 15  2  0
 17 18  2  0
 18 13  1  0
 19 20  2  0
 19 11  1  0
 22 21  1  6
 22 24  1  0
 23 22  1  0
 24 26  1  0
 24 25  1  6
 25 19  1  0
 26 28  1  0
 27 26  2  0
M  END
$$$$
