QFT.pdb
     RDKit          3D

 28 28  0  0  1  0  0  0  0  0999 V2000
    6.7584  -19.2039   18.1684 N   0  0  0  0  0  0  0  0  0  0  0  0
    8.1664  -19.0291   18.3574 C   0  0  0  0  0  0  0  0  0  0  0  0
    8.8961  -19.8145   17.7099 O   0  0  0  0  0  0  0  0  0  0  0  0
    8.6152  -17.9727   19.2740 C   0  0  0  0  0  0  0  0  0  0  0  0
    7.4995  -17.2468   19.9218 C   0  0  0  0  0  0  0  0  0  0  0  0
    7.5356  -15.7509   19.8527 C   0  0  2  0  0  0  0  0  0  0  0  0
    8.3494  -15.2255   18.7951 N   0  0  0  0  0  0  0  0  0  0  0  0
    8.0201  -15.2345   21.1861 C   0  0  0  0  0  0  0  0  0  0  0  0
    9.2475  -15.0964   21.3546 O   0  0  0  0  0  0  0  0  0  0  0  0
    7.1057  -14.9128   22.2247 N   0  0  0  0  0  0  0  0  0  0  0  0
    7.5866  -14.4164   23.4990 C   0  0  1  0  0  0  0  0  0  0  0  0
    6.5458  -13.5575   24.1836 C   0  0  0  0  0  0  0  0  0  0  0  0
    6.9921  -13.0750   25.5089 C   0  0  0  0  0  0  0  0  0  0  0  0
    8.0781  -12.2377   25.6776 C   0  0  0  0  0  0  0  0  0  0  0  0
    8.4796  -11.7980   26.9210 C   0  0  0  0  0  0  0  0  0  0  0  0
    7.7874  -12.1963   28.0436 C   0  0  0  0  0  0  0  0  0  0  0  0
    6.7008  -13.0303   27.9097 C   0  0  0  0  0  0  0  0  0  0  0  0
    6.3192  -13.4572   26.6456 C   0  0  0  0  0  0  0  0  0  0  0  0
    7.8696  -15.5586   24.4024 C   0  0  0  0  0  0  0  0  0  0  0  0
    6.9963  -16.4086   24.7078 O   0  0  0  0  0  0  0  0  0  0  0  0
   10.2621  -18.1879   23.6739 C   0  0  0  0  0  0  0  0  0  0  0  0
   10.6023  -17.6907   25.0409 C   0  0  1  0  0  0  0  0  0  0  0  0
   11.7639  -16.9317   24.9366 O   0  0  0  0  0  0  0  0  0  0  0  0
    9.4860  -16.9093   25.7032 C   0  0  2  0  0  0  0  0  0  0  0  0
    9.1671  -15.7136   24.9511 N   0  0  0  0  0  0  0  0  0  0  0  0
    9.8208  -16.5677   27.1082 C   0  0  0  0  0  0  0  0  0  0  0  0
    9.8693  -15.3754   27.4986 O   0  0  0  0  0  0  0  0  0  0  0  0
   10.0976  -17.5559   28.0621 O   0  0  0  0  0  0  0  0  0  0  0  0
  2  1  1  0
  2  3  2  0
  4  5  1  0
  4  2  1  0
  5  6  1  0
  6  8  1  0
  6  7  1  6
  8  9  2  0
 10 11  1  0
 10  8  1  0
 11 12  1  1
 13 12  1  0
 14 13  2  0
 15 14  1  0
 16 17  1  0
 16 15  2  0
 17 18  2  0
 18 13  1  0
 19 20  2  0
 19 11  1  0
 22 21  1  6
 22 24  1  0
 23 22  1  0
 24 26  1  0
 24 25  1  6
 25 19  1  0
 26 28  1  0
 27 26  2  0
M  END
$$$$
