QFT.pdb
     RDKit          3D

 28 28  0  0  1  0  0  0  0  0999 V2000
    9.8826  -20.4198   18.2077 N   0  0  0  0  0  0  0  0  0  0  0  0
   10.6493  -19.2483   18.5053 C   0  0  0  0  0  0  0  0  0  0  0  0
   10.8204  -18.4613   17.5461 O   0  0  0  0  0  0  0  0  0  0  0  0
   11.1558  -19.0826   19.8740 C   0  0  0  0  0  0  0  0  0  0  0  0
   10.9441  -17.7214   20.4158 C   0  0  0  0  0  0  0  0  0  0  0  0
    9.5343  -17.3360   20.7439 C   0  0  2  0  0  0  0  0  0  0  0  0
    8.8286  -16.6986   19.6704 N   0  0  0  0  0  0  0  0  0  0  0  0
    9.5679  -16.4315   21.9524 C   0  0  0  0  0  0  0  0  0  0  0  0
   10.6714  -15.9908   22.3290 O   0  0  0  0  0  0  0  0  0  0  0  0
    8.3762  -16.0886   22.6456 N   0  0  0  0  0  0  0  0  0  0  0  0
    8.4165  -15.1679   23.7647 C   0  0  1  0  0  0  0  0  0  0  0  0
    7.0882  -14.4668   23.9489 C   0  0  0  0  0  0  0  0  0  0  0  0
    7.1038  -13.5115   25.0784 C   0  0  0  0  0  0  0  0  0  0  0  0
    7.8620  -12.3564   25.0757 C   0  0  0  0  0  0  0  0  0  0  0  0
    7.8640  -11.4774   26.1378 C   0  0  0  0  0  0  0  0  0  0  0  0
    7.0909  -11.7430   27.2467 C   0  0  0  0  0  0  0  0  0  0  0  0
    6.3241  -12.8855   27.2808 C   0  0  0  0  0  0  0  0  0  0  0  0
    6.3416  -13.7523   26.1972 C   0  0  0  0  0  0  0  0  0  0  0  0
    8.6891  -15.9176   25.0154 C   0  0  0  0  0  0  0  0  0  0  0  0
    7.9971  -16.9025   25.3750 O   0  0  0  0  0  0  0  0  0  0  0  0
   12.4690  -15.1333   26.8710 C   0  0  0  0  0  0  0  0  0  0  0  0
   11.8515  -16.4815   26.6897 C   0  0  1  0  0  0  0  0  0  0  0  0
   12.4133  -17.3333   27.6358 O   0  0  0  0  0  0  0  0  0  0  0  0
   10.3388  -16.4781   26.7742 C   0  0  2  0  0  0  0  0  0  0  0  0
    9.7656  -15.5233   25.8486 N   0  0  0  0  0  0  0  0  0  0  0  0
    9.8721  -16.2085   28.1571 C   0  0  0  0  0  0  0  0  0  0  0  0
    9.6934  -17.1390   28.9809 O   0  0  0  0  0  0  0  0  0  0  0  0
    9.6099  -14.9080   28.6072 O   0  0  0  0  0  0  0  0  0  0  0  0
  2  1  1  0
  2  3  2  0
  4  5  1  0
  4  2  1  0
  5  6  1  0
  6  8  1  0
  6  7  1  6
  8  9  2  0
 10 11  1  0
 10  8  1  0
 11 12  1  1
 13 12  1  0
 14 13  2  0
 15 14  1  0
 16 17  1  0
 16 15  2  0
 17 18  2  0
 18 13  1  0
 19 20  2  0
 19 11  1  0
 22 21  1  1
 22 24  1  0
 23 22  1  0
 24 26  1  0
 24 25  1  6
 25 19  1  0
 26 28  1  0
 27 26  2  0
M  END
$$$$
