QFT.pdb
     RDKit          3D

 28 28  0  0  1  0  0  0  0  0999 V2000
    8.4860  -12.2212   17.7839 N   0  0  0  0  0  0  0  0  0  0  0  0
    8.2805  -13.6308   17.9241 C   0  0  0  0  0  0  0  0  0  0  0  0
    8.7171  -14.3327   16.9831 O   0  0  0  0  0  0  0  0  0  0  0  0
    7.5899  -14.1127   19.1275 C   0  0  0  0  0  0  0  0  0  0  0  0
    8.5084  -14.4139   20.2486 C   0  0  0  0  0  0  0  0  0  0  0  0
    8.3323  -15.7360   20.9304 C   0  0  2  0  0  0  0  0  0  0  0  0
    7.0071  -16.2771   20.8419 N   0  0  0  0  0  0  0  0  0  0  0  0
    8.7300  -15.5706   22.3775 C   0  0  0  0  0  0  0  0  0  0  0  0
    9.8653  -15.1218   22.6297 O   0  0  0  0  0  0  0  0  0  0  0  0
    7.8378  -15.9156   23.4277 N   0  0  0  0  0  0  0  0  0  0  0  0
    8.2431  -15.7733   24.8123 C   0  0  1  0  0  0  0  0  0  0  0  0
    7.0874  -15.3270   25.6811 C   0  0  0  0  0  0  0  0  0  0  0  0
    7.1042  -13.8709   25.9421 C   0  0  0  0  0  0  0  0  0  0  0  0
    5.9579  -13.1005   25.9792 C   0  0  0  0  0  0  0  0  0  0  0  0
    5.9928  -11.7442   26.2239 C   0  0  0  0  0  0  0  0  0  0  0  0
    7.2013  -11.1194   26.4409 C   0  0  0  0  0  0  0  0  0  0  0  0
    8.3619  -11.8586   26.4106 C   0  0  0  0  0  0  0  0  0  0  0  0
    8.2965  -13.2223   26.1619 C   0  0  0  0  0  0  0  0  0  0  0  0
    8.6977  -17.0853   25.3344 C   0  0  0  0  0  0  0  0  0  0  0  0
    8.0024  -18.1271   25.2364 O   0  0  0  0  0  0  0  0  0  0  0  0
   11.3011  -19.0686   24.0786 C   0  0  0  0  0  0  0  0  0  0  0  0
   11.6271  -18.9202   25.5289 C   0  0  1  0  0  0  0  0  0  0  0  0
   12.6883  -18.0262   25.6332 O   0  0  0  0  0  0  0  0  0  0  0  0
   10.4505  -18.4871   26.3794 C   0  0  2  0  0  0  0  0  0  0  0  0
    9.9601  -17.1874   25.9705 N   0  0  0  0  0  0  0  0  0  0  0  0
   10.7950  -18.4839   27.8230 C   0  0  0  0  0  0  0  0  0  0  0  0
   10.7463  -17.4313   28.5056 O   0  0  0  0  0  0  0  0  0  0  0  0
   11.1895  -19.6511   28.4902 O   0  0  0  0  0  0  0  0  0  0  0  0
  2  1  1  0
  2  3  2  0
  4  5  1  0
  4  2  1  0
  5  6  1  0
  6  8  1  0
  6  7  1  1
  8  9  2  0
 10 11  1  0
 10  8  1  0
 11 12  1  1
 13 12  1  0
 14 13  2  0
 15 14  1  0
 16 17  1  0
 16 15  2  0
 17 18  2  0
 18 13  1  0
 19 20  2  0
 19 11  1  0
 22 21  1  6
 22 24  1  0
 23 22  1  0
 24 26  1  0
 24 25  1  6
 25 19  1  0
 26 28  1  0
 27 26  2  0
M  END
$$$$
