QFT.pdb
     RDKit          3D

 28 28  0  0  1  0  0  0  0  0999 V2000
   13.5316  -17.0363   19.3466 N   0  0  0  0  0  0  0  0  0  0  0  0
   12.6769  -17.6754   18.3927 C   0  0  0  0  0  0  0  0  0  0  0  0
   13.2638  -18.3281   17.4993 O   0  0  0  0  0  0  0  0  0  0  0  0
   11.2255  -17.5079   18.5433 C   0  0  0  0  0  0  0  0  0  0  0  0
   10.8496  -16.6831   19.7136 C   0  0  0  0  0  0  0  0  0  0  0  0
    9.9488  -17.3187   20.7275 C   0  0  2  0  0  0  0  0  0  0  0  0
    8.6214  -17.5878   20.2556 N   0  0  0  0  0  0  0  0  0  0  0  0
    9.8969  -16.4153   21.9361 C   0  0  0  0  0  0  0  0  0  0  0  0
   10.9722  -15.9881   22.3999 O   0  0  0  0  0  0  0  0  0  0  0  0
    8.6581  -16.0584   22.5328 N   0  0  0  0  0  0  0  0  0  0  0  0
    8.6281  -15.2484   23.7348 C   0  0  1  0  0  0  0  0  0  0  0  0
    7.3332  -14.4733   23.8443 C   0  0  0  0  0  0  0  0  0  0  0  0
    7.2575  -13.6689   25.0835 C   0  0  0  0  0  0  0  0  0  0  0  0
    6.3424  -13.9197   26.0879 C   0  0  0  0  0  0  0  0  0  0  0  0
    6.2865  -13.1591   27.2364 C   0  0  0  0  0  0  0  0  0  0  0  0
    7.1640  -12.1105   27.4056 C   0  0  0  0  0  0  0  0  0  0  0  0
    8.0879  -11.8344   26.4235 C   0  0  0  0  0  0  0  0  0  0  0  0
    8.1213  -12.6168   25.2779 C   0  0  0  0  0  0  0  0  0  0  0  0
    8.7110  -16.1264   24.9277 C   0  0  0  0  0  0  0  0  0  0  0  0
    7.8095  -16.9505   25.2217 O   0  0  0  0  0  0  0  0  0  0  0  0
   11.0690  -18.7767   25.3172 C   0  0  0  0  0  0  0  0  0  0  0  0
   11.2259  -17.9171   26.5288 C   0  0  1  0  0  0  0  0  0  0  0  0
   12.3814  -17.1599   26.3619 O   0  0  0  0  0  0  0  0  0  0  0  0
   10.0243  -17.0404   26.8169 C   0  0  2  0  0  0  0  0  0  0  0  0
    9.8410  -16.0470   25.7794 N   0  0  0  0  0  0  0  0  0  0  0  0
   10.1313  -16.3913   28.1473 C   0  0  0  0  0  0  0  0  0  0  0  0
   10.1158  -15.1418   28.2695 O   0  0  0  0  0  0  0  0  0  0  0  0
   10.2541  -17.1392   29.3257 O   0  0  0  0  0  0  0  0  0  0  0  0
  2  1  1  0
  2  3  2  0
  4  5  1  0
  4  2  1  0
  5  6  1  0
  6  8  1  0
  6  7  1  6
  8  9  2  0
 10 11  1  0
 10  8  1  0
 11 12  1  1
 13 12  1  0
 14 13  2  0
 15 14  1  0
 16 17  1  0
 16 15  2  0
 17 18  2  0
 18 13  1  0
 19 20  2  0
 19 11  1  0
 22 21  1  6
 22 24  1  0
 23 22  1  0
 24 26  1  0
 24 25  1  6
 25 19  1  0
 26 28  1  0
 27 26  2  0
M  END
$$$$
