QFT.pdb
     RDKit          3D

 28 28  0  0  1  0  0  0  0  0999 V2000
    8.5284  -12.7993   17.2854 N   0  0  0  0  0  0  0  0  0  0  0  0
    8.1497  -14.0809   16.7725 C   0  0  0  0  0  0  0  0  0  0  0  0
    7.7653  -14.0895   15.5806 O   0  0  0  0  0  0  0  0  0  0  0  0
    8.2408  -15.2395   17.6708 C   0  0  0  0  0  0  0  0  0  0  0  0
    8.7067  -14.8901   19.0317 C   0  0  0  0  0  0  0  0  0  0  0  0
    8.7776  -16.0052   20.0292 C   0  0  2  0  0  0  0  0  0  0  0  0
    7.6375  -16.8753   20.0281 N   0  0  0  0  0  0  0  0  0  0  0  0
    8.9636  -15.3950   21.3977 C   0  0  0  0  0  0  0  0  0  0  0  0
   10.0066  -14.7492   21.6188 O   0  0  0  0  0  0  0  0  0  0  0  0
    7.9792  -15.5498   22.4101 N   0  0  0  0  0  0  0  0  0  0  0  0
    8.1943  -14.9997   23.7341 C   0  0  1  0  0  0  0  0  0  0  0  0
    6.9739  -14.2515   24.2244 C   0  0  0  0  0  0  0  0  0  0  0  0
    7.1733  -13.6597   25.5655 C   0  0  0  0  0  0  0  0  0  0  0  0
    6.6016  -14.1814   26.7101 C   0  0  0  0  0  0  0  0  0  0  0  0
    6.7986  -13.6161   27.9520 C   0  0  0  0  0  0  0  0  0  0  0  0
    7.5883  -12.4940   28.0752 C   0  0  0  0  0  0  0  0  0  0  0  0
    8.1724  -11.9496   26.9541 C   0  0  0  0  0  0  0  0  0  0  0  0
    7.9566  -12.5398   25.7168 C   0  0  0  0  0  0  0  0  0  0  0  0
    8.4437  -16.1016   24.6955 C   0  0  0  0  0  0  0  0  0  0  0  0
    7.6604  -17.0756   24.8219 O   0  0  0  0  0  0  0  0  0  0  0  0
   10.6120  -18.6447   24.4498 C   0  0  0  0  0  0  0  0  0  0  0  0
   10.9654  -18.0830   25.7882 C   0  0  1  0  0  0  0  0  0  0  0  0
   12.1740  -17.4062   25.6557 O   0  0  0  0  0  0  0  0  0  0  0  0
    9.8924  -17.1925   26.3808 C   0  0  2  0  0  0  0  0  0  0  0  0
    9.6030  -16.0722   25.5102 N   0  0  0  0  0  0  0  0  0  0  0  0
   10.2678  -16.7167   27.7356 C   0  0  0  0  0  0  0  0  0  0  0  0
   10.4511  -15.4978   27.9741 O   0  0  0  0  0  0  0  0  0  0  0  0
   10.4349  -17.6019   28.8087 O   0  0  0  0  0  0  0  0  0  0  0  0
  2  1  1  0
  2  3  2  0
  4  5  1  0
  4  2  1  0
  5  6  1  0
  6  8  1  0
  6  7  1  1
  8  9  2  0
 10 11  1  0
 10  8  1  0
 11 12  1  1
 13 12  1  0
 14 13  2  0
 15 14  1  0
 16 17  1  0
 16 15  2  0
 17 18  2  0
 18 13  1  0
 19 20  2  0
 19 11  1  0
 22 21  1  6
 22 24  1  0
 23 22  1  0
 24 26  1  0
 24 25  1  6
 25 19  1  0
 26 28  1  0
 27 26  2  0
M  END
$$$$
