QFT.pdb
     RDKit          3D

 28 28  0  0  1  0  0  0  0  0999 V2000
    9.7670  -20.3648   22.1332 N   0  0  0  0  0  0  0  0  0  0  0  0
   10.7089  -20.1597   21.0751 C   0  0  0  0  0  0  0  0  0  0  0  0
   11.7267  -20.8885   21.1142 O   0  0  0  0  0  0  0  0  0  0  0  0
   10.4045  -19.1355   20.0673 C   0  0  0  0  0  0  0  0  0  0  0  0
    9.1059  -18.4612   20.2914 C   0  0  0  0  0  0  0  0  0  0  0  0
    9.0446  -16.9950   19.9911 C   0  0  2  0  0  0  0  0  0  0  0  0
   10.0243  -16.5415   19.0470 N   0  0  0  0  0  0  0  0  0  0  0  0
    9.1933  -16.2461   21.2937 C   0  0  0  0  0  0  0  0  0  0  0  0
   10.3394  -15.9186   21.6584 O   0  0  0  0  0  0  0  0  0  0  0  0
    8.0603  -15.9208   22.0865 N   0  0  0  0  0  0  0  0  0  0  0  0
    8.2121  -15.1427   23.3003 C   0  0  1  0  0  0  0  0  0  0  0  0
    6.9583  -14.3537   23.6089 C   0  0  0  0  0  0  0  0  0  0  0  0
    7.0785  -13.5631   24.8535 C   0  0  0  0  0  0  0  0  0  0  0  0
    6.2879  -13.7853   25.9647 C   0  0  0  0  0  0  0  0  0  0  0  0
    6.4142  -13.0382   27.1164 C   0  0  0  0  0  0  0  0  0  0  0  0
    7.3540  -12.0329   27.1799 C   0  0  0  0  0  0  0  0  0  0  0  0
    8.1575  -11.7861   26.0900 C   0  0  0  0  0  0  0  0  0  0  0  0
    8.0082  -12.5540   24.9437 C   0  0  0  0  0  0  0  0  0  0  0  0
    8.4460  -16.0529   24.4481 C   0  0  0  0  0  0  0  0  0  0  0  0
    7.5854  -16.8813   24.8373 O   0  0  0  0  0  0  0  0  0  0  0  0
   11.3508  -18.3557   24.4493 C   0  0  0  0  0  0  0  0  0  0  0  0
   11.3190  -17.6960   25.7892 C   0  0  1  0  0  0  0  0  0  0  0  0
   12.3725  -16.7883   25.8375 O   0  0  0  0  0  0  0  0  0  0  0  0
    9.9970  -17.0300   26.1121 C   0  0  2  0  0  0  0  0  0  0  0  0
    9.6796  -16.0011   25.1439 N   0  0  0  0  0  0  0  0  0  0  0  0
    9.9910  -16.4717   27.4873 C   0  0  0  0  0  0  0  0  0  0  0  0
   10.1477  -17.2066   28.4931 O   0  0  0  0  0  0  0  0  0  0  0  0
    9.8107  -15.1032   27.7274 O   0  0  0  0  0  0  0  0  0  0  0  0
  2  1  1  0
  2  3  2  0
  4  5  1  0
  4  2  1  0
  5  6  1  0
  6  8  1  0
  6  7  1  6
  8  9  2  0
 10 11  1  0
 10  8  1  0
 11 12  1  1
 13 12  1  0
 14 13  2  0
 15 14  1  0
 16 17  1  0
 16 15  2  0
 17 18  2  0
 18 13  1  0
 19 20  2  0
 19 11  1  0
 22 21  1  6
 22 24  1  0
 23 22  1  0
 24 26  1  0
 24 25  1  6
 25 19  1  0
 26 28  1  0
 27 26  2  0
M  END
$$$$
