QFT.pdb
     RDKit          3D

 28 28  0  0  1  0  0  0  0  0999 V2000
   11.1559  -15.8160   14.3030 N   0  0  0  0  0  0  0  0  0  0  0  0
    9.8485  -16.1097   14.8064 C   0  0  0  0  0  0  0  0  0  0  0  0
    8.9002  -15.6010   14.1657 O   0  0  0  0  0  0  0  0  0  0  0  0
    9.7420  -16.9569   16.0016 C   0  0  0  0  0  0  0  0  0  0  0  0
   10.1947  -16.2828   17.2393 C   0  0  0  0  0  0  0  0  0  0  0  0
   10.4143  -17.1507   18.4402 C   0  0  2  0  0  0  0  0  0  0  0  0
    9.3662  -18.0980   18.6871 N   0  0  0  0  0  0  0  0  0  0  0  0
   10.5935  -16.2505   19.6391 C   0  0  0  0  0  0  0  0  0  0  0  0
   11.4832  -15.3785   19.5943 O   0  0  0  0  0  0  0  0  0  0  0  0
    9.7726  -16.3893   20.7901 N   0  0  0  0  0  0  0  0  0  0  0  0
    9.9907  -15.5519   21.9532 C   0  0  1  0  0  0  0  0  0  0  0  0
    8.6994  -14.9222   22.4283 C   0  0  0  0  0  0  0  0  0  0  0  0
    8.0612  -14.0853   21.3886 C   0  0  0  0  0  0  0  0  0  0  0  0
    7.0385  -14.5415   20.5793 C   0  0  0  0  0  0  0  0  0  0  0  0
    6.4555  -13.7470   19.6152 C   0  0  0  0  0  0  0  0  0  0  0  0
    6.8941  -12.4530   19.4386 C   0  0  0  0  0  0  0  0  0  0  0  0
    7.9114  -11.9681   20.2287 C   0  0  0  0  0  0  0  0  0  0  0  0
    8.4797  -12.7904   21.1913 C   0  0  0  0  0  0  0  0  0  0  0  0
   10.5077  -16.3789   23.0711 C   0  0  0  0  0  0  0  0  0  0  0  0
   10.4674  -15.9962   24.2670 O   0  0  0  0  0  0  0  0  0  0  0  0
   10.2630  -20.5035   23.3200 C   0  0  0  0  0  0  0  0  0  0  0  0
   11.6200  -19.9168   23.5347 C   0  0  1  0  0  0  0  0  0  0  0  0
   12.3688  -20.1550   22.3863 O   0  0  0  0  0  0  0  0  0  0  0  0
   11.6007  -18.4440   23.8895 C   0  0  2  0  0  0  0  0  0  0  0  0
   11.0716  -17.6505   22.7998 N   0  0  0  0  0  0  0  0  0  0  0  0
   12.9488  -17.9610   24.2796 C   0  0  0  0  0  0  0  0  0  0  0  0
   13.5734  -17.1265   23.5797 O   0  0  0  0  0  0  0  0  0  0  0  0
   13.5861  -18.4117   25.4431 O   0  0  0  0  0  0  0  0  0  0  0  0
  2  1  1  0
  2  3  2  0
  4  5  1  0
  4  2  1  0
  5  6  1  0
  6  8  1  0
  6  7  1  1
  8  9  2  0
 10 11  1  0
 10  8  1  0
 11 12  1  1
 13 12  1  0
 14 13  2  0
 15 14  1  0
 16 17  1  0
 16 15  2  0
 17 18  2  0
 18 13  1  0
 19 20  2  0
 19 11  1  0
 22 21  1  6
 22 24  1  0
 23 22  1  0
 24 26  1  0
 24 25  1  6
 25 19  1  0
 26 28  1  0
 27 26  2  0
M  END
$$$$
