QFT.pdb
     RDKit          3D

 28 28  0  0  1  0  0  0  0  0999 V2000
    9.9638  -18.5923   17.5063 N   0  0  0  0  0  0  0  0  0  0  0  0
    8.6545  -18.9950   17.9214 C   0  0  0  0  0  0  0  0  0  0  0  0
    7.9533  -19.5352   17.0353 O   0  0  0  0  0  0  0  0  0  0  0  0
    8.2616  -18.7402   19.3136 C   0  0  0  0  0  0  0  0  0  0  0  0
    9.3166  -18.0695   20.1063 C   0  0  0  0  0  0  0  0  0  0  0  0
    9.3681  -16.5742   20.0353 C   0  0  2  0  0  0  0  0  0  0  0  0
   10.4850  -16.0534   19.3017 N   0  0  0  0  0  0  0  0  0  0  0  0
    9.3804  -16.0409   21.4478 C   0  0  0  0  0  0  0  0  0  0  0  0
   10.4008  -16.2262   22.1394 O   0  0  0  0  0  0  0  0  0  0  0  0
    8.2615  -15.3456   21.9794 N   0  0  0  0  0  0  0  0  0  0  0  0
    8.3216  -14.7617   23.3050 C   0  0  1  0  0  0  0  0  0  0  0  0
    7.1211  -13.8806   23.5735 C   0  0  0  0  0  0  0  0  0  0  0  0
    7.1439  -13.2900   24.9297 C   0  0  0  0  0  0  0  0  0  0  0  0
    6.2042  -13.5911   25.8967 C   0  0  0  0  0  0  0  0  0  0  0  0
    6.2413  -13.0307   27.1558 C   0  0  0  0  0  0  0  0  0  0  0  0
    7.2408  -12.1391   27.4783 C   0  0  0  0  0  0  0  0  0  0  0  0
    8.1926  -11.8180   26.5372 C   0  0  0  0  0  0  0  0  0  0  0  0
    8.1303  -12.3976   25.2778 C   0  0  0  0  0  0  0  0  0  0  0  0
    8.3057  -15.8398   24.3240 C   0  0  0  0  0  0  0  0  0  0  0  0
    7.3334  -16.6234   24.4607 O   0  0  0  0  0  0  0  0  0  0  0  0
   10.0299  -18.8576   24.4088 C   0  0  0  0  0  0  0  0  0  0  0  0
   10.4076  -18.1862   25.6887 C   0  0  1  0  0  0  0  0  0  0  0  0
   11.6948  -17.6803   25.5357 O   0  0  0  0  0  0  0  0  0  0  0  0
    9.4356  -17.1088   26.1246 C   0  0  2  0  0  0  0  0  0  0  0  0
    9.4194  -16.0077   25.1843 N   0  0  0  0  0  0  0  0  0  0  0  0
    9.7415  -16.6217   27.4928 C   0  0  0  0  0  0  0  0  0  0  0  0
   10.0145  -15.4162   27.7129 O   0  0  0  0  0  0  0  0  0  0  0  0
    9.7403  -17.4809   28.5995 O   0  0  0  0  0  0  0  0  0  0  0  0
  2  1  1  0
  2  3  2  0
  4  5  1  0
  4  2  1  0
  5  6  1  0
  6  8  1  0
  6  7  1  1
  8  9  2  0
 10 11  1  0
 10  8  1  0
 11 12  1  1
 13 12  1  0
 14 13  2  0
 15 14  1  0
 16 17  1  0
 16 15  2  0
 17 18  2  0
 18 13  1  0
 19 20  2  0
 19 11  1  0
 22 21  1  6
 22 24  1  0
 23 22  1  0
 24 26  1  0
 24 25  1  6
 25 19  1  0
 26 28  1  0
 27 26  2  0
M  END
$$$$
