QFT.pdb
     RDKit          3D

 28 28  0  0  1  0  0  0  0  0999 V2000
    8.9445  -12.7387   18.9349 N   0  0  0  0  0  0  0  0  0  0  0  0
    8.4540  -13.7729   18.0754 C   0  0  0  0  0  0  0  0  0  0  0  0
    7.7519  -13.3836   17.1142 O   0  0  0  0  0  0  0  0  0  0  0  0
    8.8076  -15.1625   18.3941 C   0  0  0  0  0  0  0  0  0  0  0  0
    9.6201  -15.2924   19.6247 C   0  0  0  0  0  0  0  0  0  0  0  0
    9.2359  -16.3832   20.5766 C   0  0  2  0  0  0  0  0  0  0  0  0
    7.9865  -17.0200   20.2760 N   0  0  0  0  0  0  0  0  0  0  0  0
    9.1981  -15.7962   21.9671 C   0  0  0  0  0  0  0  0  0  0  0  0
   10.2246  -15.2364   22.3993 O   0  0  0  0  0  0  0  0  0  0  0  0
    8.0262  -15.8768   22.7660 N   0  0  0  0  0  0  0  0  0  0  0  0
    8.0206  -15.3510   24.1170 C   0  0  1  0  0  0  0  0  0  0  0  0
    6.7351  -14.6103   24.4143 C   0  0  0  0  0  0  0  0  0  0  0  0
    6.8790  -13.6519   25.5320 C   0  0  0  0  0  0  0  0  0  0  0  0
    5.8146  -12.9457   26.0586 C   0  0  0  0  0  0  0  0  0  0  0  0
    5.9677  -12.0563   27.1008 C   0  0  0  0  0  0  0  0  0  0  0  0
    7.2155  -11.8520   27.6477 C   0  0  0  0  0  0  0  0  0  0  0  0
    8.2967  -12.5400   27.1458 C   0  0  0  0  0  0  0  0  0  0  0  0
    8.1129  -13.4291   26.0963 C   0  0  0  0  0  0  0  0  0  0  0  0
    8.1110  -16.4705   25.0863 C   0  0  0  0  0  0  0  0  0  0  0  0
    7.1359  -17.2199   25.3429 O   0  0  0  0  0  0  0  0  0  0  0  0
    9.6254  -19.4710   24.6454 C   0  0  0  0  0  0  0  0  0  0  0  0
   10.2516  -18.9804   25.9099 C   0  0  1  0  0  0  0  0  0  0  0  0
   11.5423  -18.5590   25.6053 O   0  0  0  0  0  0  0  0  0  0  0  0
    9.4600  -17.8894   26.6016 C   0  0  2  0  0  0  0  0  0  0  0  0
    9.3341  -16.7195   25.7576 N   0  0  0  0  0  0  0  0  0  0  0  0
   10.0615  -17.5269   27.9091 C   0  0  0  0  0  0  0  0  0  0  0  0
   10.1883  -18.3724   28.8285 O   0  0  0  0  0  0  0  0  0  0  0  0
   10.5147  -16.2288   28.1784 O   0  0  0  0  0  0  0  0  0  0  0  0
  2  1  1  0
  2  3  2  0
  4  5  1  0
  4  2  1  0
  5  6  1  0
  6  8  1  0
  6  7  1  6
  8  9  2  0
 10 11  1  0
 10  8  1  0
 11 12  1  1
 13 12  1  0
 14 13  2  0
 15 14  1  0
 16 17  1  0
 16 15  2  0
 17 18  2  0
 18 13  1  0
 19 20  2  0
 19 11  1  0
 22 21  1  6
 22 24  1  0
 23 22  1  0
 24 26  1  0
 24 25  1  6
 25 19  1  0
 26 28  1  0
 27 26  2  0
M  END
$$$$
