MTN.pdb
     RDKit          3D

 24 23  0  0  1  0  0  0  0  0999 V2000
    3.4717  -25.5949   36.0781 C   0  0  0  0  0  0  0  0  0  0  0  0
    2.1687  -26.2095   37.1542 S   0  0  0  0  0  0  0  0  0  0  0  0
    0.6015  -25.3699   36.8978 C   0  0  0  0  0  0  0  0  0  0  0  0
    0.2149  -25.3402   35.4333 C   0  0  0  0  0  0  0  0  0  0  0  0
   -0.9880  -24.4872   35.1790 C   0  0  2  0  0  0  0  0  0  0  0  0
   -1.9374  -24.6920   36.2507 N   0  0  0  0  0  0  0  0  0  0  0  0
   -1.6071  -24.7582   33.8488 C   0  0  0  0  0  0  0  0  0  0  0  0
   -0.9393  -24.5335   32.8296 O   0  0  0  0  0  0  0  0  0  0  0  0
   -2.5799  -27.9512   32.2989 C   0  0  0  0  0  0  0  0  0  0  0  0
   -3.7938  -27.1013   32.4645 C   0  0  1  0  0  0  0  0  0  0  0  0
   -4.5166  -27.4068   33.6187 O   0  0  0  0  0  0  0  0  0  0  0  0
   -3.5154  -25.6313   32.4586 C   0  0  2  0  0  0  0  0  0  0  0  0
   -2.9363  -25.2641   33.7479 N   0  0  0  0  0  0  0  0  0  0  0  0
   -4.8249  -24.9194   32.3506 C   0  0  0  0  0  0  0  0  0  0  0  0
   -5.3120  -24.2534   33.3106 O   0  0  0  0  0  0  0  0  0  0  0  0
   -7.9167  -20.9390   29.8194 N   0  0  0  0  0  0  0  0  0  0  0  0
   -7.8962  -22.0290   30.7615 C   0  0  0  0  0  0  0  0  0  0  0  0
   -8.9740  -22.2860   31.3316 O   0  0  0  0  0  0  0  0  0  0  0  0
   -6.6144  -22.7375   30.9663 C   0  0  0  0  0  0  0  0  0  0  0  0
   -6.8618  -24.2042   31.0240 C   0  0  2  0  0  0  0  0  0  0  0  0
   -5.5984  -24.9518   31.1574 N   0  0  0  0  0  0  0  0  0  0  0  0
   -7.4538  -24.6693   29.7467 C   0  0  0  0  0  0  0  0  0  0  0  0
   -6.7610  -25.1586   28.8083 O   0  0  0  0  0  0  0  0  0  0  0  0
   -8.8369  -24.6005   29.4830 O   0  0  0  0  0  0  0  0  0  0  0  0
  1  2  1  0
  2  3  1  0
  4  5  1  0
  4  3  1  0
  5  6  1  1
  7  5  1  0
  8  7  2  0
 10  9  1  1
 10 11  1  0
 10 12  1  0
 12 14  1  0
 12 13  1  1
 13  7  1  0
 14 15  2  0
 16 17  1  0
 17 19  1  0
 18 17  2  0
 20 19  1  6
 21 20  1  0
 21 14  1  0
 22 20  1  0
 23 22  2  0
 24 22  1  0
M  END
$$$$
