MTN.pdb
     RDKit          3D

 24 23  0  0  1  0  0  0  0  0999 V2000
    8.3304  -12.3398   20.5497 C   0  0  0  0  0  0  0  0  0  0  0  0
    7.3837  -12.2077   19.0266 S   0  0  0  0  0  0  0  0  0  0  0  0
    7.6042  -13.6254   17.9458 C   0  0  0  0  0  0  0  0  0  0  0  0
    8.6585  -14.5754   18.4758 C   0  0  0  0  0  0  0  0  0  0  0  0
    8.8801  -15.7442   17.5681 C   0  0  2  0  0  0  0  0  0  0  0  0
    7.6227  -16.4349   17.3850 N   0  0  0  0  0  0  0  0  0  0  0  0
    9.9357  -16.6679   18.0767 C   0  0  0  0  0  0  0  0  0  0  0  0
    9.5955  -17.6066   18.8105 O   0  0  0  0  0  0  0  0  0  0  0  0
   14.7512  -17.9575   18.0018 C   0  0  0  0  0  0  0  0  0  0  0  0
   13.5767  -17.2083   17.4705 C   0  0  1  0  0  0  0  0  0  0  0  0
   13.2138  -17.6098   16.1840 O   0  0  0  0  0  0  0  0  0  0  0  0
   12.3640  -17.2749   18.3441 C   0  0  2  0  0  0  0  0  0  0  0  0
   11.3053  -16.4789   17.7290 N   0  0  0  0  0  0  0  0  0  0  0  0
   12.7017  -16.6201   19.6443 C   0  0  0  0  0  0  0  0  0  0  0  0
   12.3454  -15.4362   19.9161 O   0  0  0  0  0  0  0  0  0  0  0  0
   10.7068  -15.9822   24.3894 N   0  0  0  0  0  0  0  0  0  0  0  0
   11.8245  -16.7964   23.9843 C   0  0  0  0  0  0  0  0  0  0  0  0
   12.6260  -17.1195   24.8820 O   0  0  0  0  0  0  0  0  0  0  0  0
   11.9207  -17.1719   22.5572 C   0  0  0  0  0  0  0  0  0  0  0  0
   13.3140  -16.9562   22.0800 C   0  0  2  0  0  0  0  0  0  0  0  0
   13.4454  -17.2952   20.6514 N   0  0  0  0  0  0  0  0  0  0  0  0
   14.2392  -17.8771   22.7830 C   0  0  0  0  0  0  0  0  0  0  0  0
   14.2485  -19.1256   22.5805 O   0  0  0  0  0  0  0  0  0  0  0  0
   15.1798  -17.4277   23.7320 O   0  0  0  0  0  0  0  0  0  0  0  0
  1  2  1  0
  2  3  1  0
  4  5  1  0
  4  3  1  0
  5  6  1  1
  7  5  1  0
  8  7  2  0
 10  9  1  1
 10 11  1  0
 10 12  1  0
 12 14  1  0
 12 13  1  6
 13  7  1  0
 14 15  2  0
 16 17  1  0
 17 19  1  0
 18 17  2  0
 20 19  1  1
 21 20  1  0
 21 14  1  0
 22 20  1  0
 23 22  2  0
 24 22  1  0
M  END
$$$$
