MTN.pdb
     RDKit          3D

 24 23  0  0  1  0  0  0  0  0999 V2000
    7.6397  -11.5066   26.3320 C   0  0  0  0  0  0  0  0  0  0  0  0
    6.2300  -12.6097   26.1608 S   0  0  0  0  0  0  0  0  0  0  0  0
    6.2371  -13.5109   24.6069 C   0  0  0  0  0  0  0  0  0  0  0  0
    7.5059  -13.2584   23.8186 C   0  0  0  0  0  0  0  0  0  0  0  0
    7.6726  -14.2201   22.6844 C   0  0  2  0  0  0  0  0  0  0  0  0
    6.3703  -14.5099   22.1260 N   0  0  0  0  0  0  0  0  0  0  0  0
    8.3748  -15.4703   23.0966 C   0  0  0  0  0  0  0  0  0  0  0  0
    7.6961  -16.4176   23.5177 O   0  0  0  0  0  0  0  0  0  0  0  0
   10.6696  -17.5416   21.0493 C   0  0  0  0  0  0  0  0  0  0  0  0
   11.3875  -17.2328   22.3191 C   0  0  1  0  0  0  0  0  0  0  0  0
   12.3939  -16.2797   22.1553 O   0  0  0  0  0  0  0  0  0  0  0  0
   10.4938  -16.7870   23.4330 C   0  0  2  0  0  0  0  0  0  0  0  0
    9.7939  -15.5771   23.0098 N   0  0  0  0  0  0  0  0  0  0  0  0
   11.3607  -16.4067   24.5893 C   0  0  0  0  0  0  0  0  0  0  0  0
   11.7562  -15.2185   24.7741 O   0  0  0  0  0  0  0  0  0  0  0  0
   11.6323  -14.8953   28.4599 N   0  0  0  0  0  0  0  0  0  0  0  0
   10.3545  -15.5134   28.2117 C   0  0  0  0  0  0  0  0  0  0  0  0
    9.3600  -14.9367   28.6923 O   0  0  0  0  0  0  0  0  0  0  0  0
   10.3363  -16.7615   27.4188 C   0  0  0  0  0  0  0  0  0  0  0  0
   11.7228  -17.1029   26.9986 C   0  0  2  0  0  0  0  0  0  0  0  0
   11.7904  -17.3642   25.5495 N   0  0  0  0  0  0  0  0  0  0  0  0
   12.1500  -18.3692   27.6406 C   0  0  0  0  0  0  0  0  0  0  0  0
   13.1229  -18.4349   28.4463 O   0  0  0  0  0  0  0  0  0  0  0  0
   11.5013  -19.5974   27.3998 O   0  0  0  0  0  0  0  0  0  0  0  0
  1  2  1  0
  2  3  1  0
  4  5  1  0
  4  3  1  0
  5  6  1  1
  7  5  1  0
  8  7  2  0
 10  9  1  6
 10 11  1  0
 10 12  1  0
 12 14  1  0
 12 13  1  6
 13  7  1  0
 14 15  2  0
 16 17  1  0
 17 19  1  0
 18 17  2  0
 20 19  1  1
 21 20  1  0
 21 14  1  0
 22 20  1  0
 23 22  2  0
 24 22  1  0
M  END
$$$$
