MTN.pdb
     RDKit          3D

 24 23  0  0  1  0  0  0  0  0999 V2000
    7.9633  -11.6233   20.8194 C   0  0  0  0  0  0  0  0  0  0  0  0
    7.0293  -13.0337   20.2097 S   0  0  0  0  0  0  0  0  0  0  0  0
    7.9735  -14.0534   19.0716 C   0  0  0  0  0  0  0  0  0  0  0  0
    8.8685  -13.2169   18.1803 C   0  0  0  0  0  0  0  0  0  0  0  0
    9.5825  -14.0411   17.1556 C   0  0  2  0  0  0  0  0  0  0  0  0
    8.6033  -14.6304   16.2692 N   0  0  0  0  0  0  0  0  0  0  0  0
   10.4530  -15.0852   17.7707 C   0  0  0  0  0  0  0  0  0  0  0  0
   10.0579  -16.2596   17.7690 O   0  0  0  0  0  0  0  0  0  0  0  0
   14.2507  -15.4303   16.9757 C   0  0  0  0  0  0  0  0  0  0  0  0
   14.0157  -15.4048   18.4479 C   0  0  1  0  0  0  0  0  0  0  0  0
   14.3322  -14.1748   19.0266 O   0  0  0  0  0  0  0  0  0  0  0  0
   12.6216  -15.7696   18.8500 C   0  0  2  0  0  0  0  0  0  0  0  0
   11.7111  -14.7441   18.3481 N   0  0  0  0  0  0  0  0  0  0  0  0
   12.5502  -15.7231   20.3420 C   0  0  0  0  0  0  0  0  0  0  0  0
   12.2999  -14.6543   20.9725 O   0  0  0  0  0  0  0  0  0  0  0  0
   11.4454  -18.0491   25.4591 N   0  0  0  0  0  0  0  0  0  0  0  0
   12.6428  -18.1213   24.6608 C   0  0  0  0  0  0  0  0  0  0  0  0
   13.7219  -18.1287   25.2840 O   0  0  0  0  0  0  0  0  0  0  0  0
   12.4876  -18.1796   23.1913 C   0  0  0  0  0  0  0  0  0  0  0  0
   12.7460  -16.8334   22.6112 C   0  0  2  0  0  0  0  0  0  0  0  0
   12.7605  -16.8830   21.1380 N   0  0  0  0  0  0  0  0  0  0  0  0
   14.0995  -16.3665   22.9962 C   0  0  0  0  0  0  0  0  0  0  0  0
   14.3296  -15.7463   24.0742 O   0  0  0  0  0  0  0  0  0  0  0  0
   15.2336  -16.5802   22.1866 O   0  0  0  0  0  0  0  0  0  0  0  0
  1  2  1  0
  2  3  1  0
  4  5  1  0
  4  3  1  0
  5  6  1  6
  7  5  1  0
  8  7  2  0
 10  9  1  6
 10 11  1  0
 10 12  1  0
 12 14  1  0
 12 13  1  6
 13  7  1  0
 14 15  2  0
 16 17  1  0
 17 19  1  0
 18 17  2  0
 20 19  1  1
 21 20  1  0
 21 14  1  0
 22 20  1  0
 23 22  2  0
 24 22  1  0
M  END
$$$$
