MTN.pdb
     RDKit          3D

 24 23  0  0  1  0  0  0  0  0999 V2000
    5.0264  -11.2641   27.3442 C   0  0  0  0  0  0  0  0  0  0  0  0
    6.4573  -12.2213   26.8247 S   0  0  0  0  0  0  0  0  0  0  0  0
    6.0085  -13.7109   25.9267 C   0  0  0  0  0  0  0  0  0  0  0  0
    7.2308  -14.4989   25.5022 C   0  0  0  0  0  0  0  0  0  0  0  0
    6.8728  -15.7851   24.8265 C   0  0  2  0  0  0  0  0  0  0  0  0
    6.1322  -16.6081   25.7571 N   0  0  0  0  0  0  0  0  0  0  0  0
    8.0698  -16.5049   24.3019 C   0  0  0  0  0  0  0  0  0  0  0  0
    8.4208  -17.5534   24.8613 O   0  0  0  0  0  0  0  0  0  0  0  0
    8.4771  -16.6439   20.3592 C   0  0  0  0  0  0  0  0  0  0  0  0
    9.7868  -16.4391   21.0416 C   0  0  1  0  0  0  0  0  0  0  0  0
   10.2571  -15.1296   20.9313 O   0  0  0  0  0  0  0  0  0  0  0  0
    9.7874  -16.8191   22.4887 C   0  0  2  0  0  0  0  0  0  0  0  0
    8.7961  -16.0018   23.1829 N   0  0  0  0  0  0  0  0  0  0  0  0
   11.1227  -16.4586   23.0546 C   0  0  0  0  0  0  0  0  0  0  0  0
   11.3436  -15.3387   23.6017 O   0  0  0  0  0  0  0  0  0  0  0  0
   12.5019  -17.8233   25.8867 N   0  0  0  0  0  0  0  0  0  0  0  0
   13.6371  -18.5835   25.4288 C   0  0  0  0  0  0  0  0  0  0  0  0
   14.0368  -19.4887   26.1861 O   0  0  0  0  0  0  0  0  0  0  0  0
   14.2203  -18.2270   24.1174 C   0  0  0  0  0  0  0  0  0  0  0  0
   13.5371  -17.0175   23.5827 C   0  0  2  0  0  0  0  0  0  0  0  0
   12.2229  -17.3590   23.0088 N   0  0  0  0  0  0  0  0  0  0  0  0
   14.3164  -16.4515   22.4555 C   0  0  0  0  0  0  0  0  0  0  0  0
   14.0142  -16.6532   21.2439 O   0  0  0  0  0  0  0  0  0  0  0  0
   15.4553  -15.6441   22.6514 O   0  0  0  0  0  0  0  0  0  0  0  0
  1  2  1  0
  2  3  1  0
  4  5  1  0
  4  3  1  0
  5  6  1  1
  7  5  1  0
  8  7  2  0
 10  9  1  1
 10 11  1  0
 10 12  1  0
 12 14  1  0
 12 13  1  1
 13  7  1  0
 14 15  2  0
 16 17  1  0
 17 19  1  0
 18 17  2  0
 20 19  1  6
 21 20  1  0
 21 14  1  0
 22 20  1  0
 23 22  2  0
 24 22  1  0
M  END
$$$$
