MTN.pdb
     RDKit          3D

 24 23  0  0  1  0  0  0  0  0999 V2000
    6.0806  -10.3428   25.3014 C   0  0  0  0  0  0  0  0  0  0  0  0
    6.6304  -11.2876   26.7291 S   0  0  0  0  0  0  0  0  0  0  0  0
    5.6246  -12.7458   27.0271 C   0  0  0  0  0  0  0  0  0  0  0  0
    5.7916  -13.7757   25.9286 C   0  0  0  0  0  0  0  0  0  0  0  0
    6.9027  -14.7367   26.2132 C   0  0  2  0  0  0  0  0  0  0  0  0
    8.1081  -13.9855   26.4860 N   0  0  0  0  0  0  0  0  0  0  0  0
    7.1119  -15.7103   25.1021 C   0  0  0  0  0  0  0  0  0  0  0  0
    6.1933  -16.4931   24.8218 O   0  0  0  0  0  0  0  0  0  0  0  0
    7.6147  -15.3470   21.5694 C   0  0  0  0  0  0  0  0  0  0  0  0
    8.8026  -16.1087   22.0510 C   0  0  1  0  0  0  0  0  0  0  0  0
    9.9571  -15.3273   22.1187 O   0  0  0  0  0  0  0  0  0  0  0  0
    8.6054  -16.7732   23.3769 C   0  0  2  0  0  0  0  0  0  0  0  0
    8.3389  -15.7427   24.3767 N   0  0  0  0  0  0  0  0  0  0  0  0
    9.8952  -17.4255   23.7567 C   0  0  0  0  0  0  0  0  0  0  0  0
   10.8688  -16.7700   24.2309 O   0  0  0  0  0  0  0  0  0  0  0  0
    9.4036  -20.1648   26.8118 N   0  0  0  0  0  0  0  0  0  0  0  0
   10.7326  -19.9237   26.3101 C   0  0  0  0  0  0  0  0  0  0  0  0
   11.4659  -19.2030   27.0141 O   0  0  0  0  0  0  0  0  0  0  0  0
   11.1046  -20.5448   25.0206 C   0  0  0  0  0  0  0  0  0  0  0  0
   11.3559  -19.4802   24.0111 C   0  0  2  0  0  0  0  0  0  0  0  0
   10.0994  -18.8249   23.6051 N   0  0  0  0  0  0  0  0  0  0  0  0
   11.8997  -20.0782   22.7681 C   0  0  0  0  0  0  0  0  0  0  0  0
   11.2423  -20.1319   21.6889 O   0  0  0  0  0  0  0  0  0  0  0  0
   13.1939  -20.6327   22.6971 O   0  0  0  0  0  0  0  0  0  0  0  0
  1  2  1  0
  2  3  1  0
  4  5  1  0
  4  3  1  0
  5  6  1  6
  7  5  1  0
  8  7  2  0
 10  9  1  1
 10 11  1  0
 10 12  1  0
 12 14  1  0
 12 13  1  1
 13  7  1  0
 14 15  2  0
 16 17  1  0
 17 19  1  0
 18 17  2  0
 20 19  1  1
 21 20  1  0
 21 14  1  0
 22 20  1  0
 23 22  2  0
 24 22  1  0
M  END
$$$$
