MTN.pdb
     RDKit          3D

 24 23  0  0  1  0  0  0  0  0999 V2000
    7.7948  -16.4909   13.1246 C   0  0  0  0  0  0  0  0  0  0  0  0
    6.5018  -17.6865   13.4880 S   0  0  0  0  0  0  0  0  0  0  0  0
    6.4738  -18.1766   15.2159 C   0  0  0  0  0  0  0  0  0  0  0  0
    7.6383  -17.5864   15.9846 C   0  0  0  0  0  0  0  0  0  0  0  0
    7.5864  -17.9205   17.4423 C   0  0  2  0  0  0  0  0  0  0  0  0
    6.2031  -17.9451   17.8641 N   0  0  0  0  0  0  0  0  0  0  0  0
    8.3882  -16.9747   18.2721 C   0  0  0  0  0  0  0  0  0  0  0  0
    9.2541  -16.2866   17.7132 O   0  0  0  0  0  0  0  0  0  0  0  0
    7.2862  -14.0611   20.4804 C   0  0  0  0  0  0  0  0  0  0  0  0
    7.9989  -15.0922   21.2879 C   0  0  1  0  0  0  0  0  0  0  0  0
    7.1290  -15.9351   21.9812 O   0  0  0  0  0  0  0  0  0  0  0  0
    8.9456  -15.9394   20.4978 C   0  0  2  0  0  0  0  0  0  0  0  0
    8.1668  -16.8617   19.6759 N   0  0  0  0  0  0  0  0  0  0  0  0
    9.7282  -16.7703   21.4625 C   0  0  0  0  0  0  0  0  0  0  0  0
    9.4665  -17.9916   21.6681 O   0  0  0  0  0  0  0  0  0  0  0  0
   12.6235  -18.1927   20.1745 N   0  0  0  0  0  0  0  0  0  0  0  0
   12.7363  -18.5276   21.5714 C   0  0  0  0  0  0  0  0  0  0  0  0
   12.6644  -19.7386   21.8561 O   0  0  0  0  0  0  0  0  0  0  0  0
   12.9252  -17.4190   22.5317 C   0  0  0  0  0  0  0  0  0  0  0  0
   11.6131  -17.0535   23.1321 C   0  0  2  0  0  0  0  0  0  0  0  0
   10.8147  -16.2309   22.2053 N   0  0  0  0  0  0  0  0  0  0  0  0
   11.8219  -16.1994   24.3259 C   0  0  0  0  0  0  0  0  0  0  0  0
   12.0398  -14.9558   24.2491 O   0  0  0  0  0  0  0  0  0  0  0  0
   11.7928  -16.7118   25.6389 O   0  0  0  0  0  0  0  0  0  0  0  0
  1  2  1  0
  2  3  1  0
  4  5  1  0
  4  3  1  0
  5  6  1  1
  7  5  1  0
  8  7  2  0
 10  9  1  6
 10 11  1  0
 10 12  1  0
 12 14  1  0
 12 13  1  6
 13  7  1  0
 14 15  2  0
 16 17  1  0
 17 19  1  0
 18 17  2  0
 20 19  1  6
 21 20  1  0
 21 14  1  0
 22 20  1  0
 23 22  2  0
 24 22  1  0
M  END
$$$$
