MTN.pdb
     RDKit          3D

 24 23  0  0  1  0  0  0  0  0999 V2000
    7.7320  -11.2253   26.6310 C   0  0  0  0  0  0  0  0  0  0  0  0
    6.5884  -12.1041   27.7050 S   0  0  0  0  0  0  0  0  0  0  0  0
    6.1467  -13.7260   27.0717 C   0  0  0  0  0  0  0  0  0  0  0  0
    6.8821  -14.0447   25.7861 C   0  0  0  0  0  0  0  0  0  0  0  0
    6.4122  -15.3213   25.1627 C   0  0  2  0  0  0  0  0  0  0  0  0
    5.9356  -16.2004   26.2075 N   0  0  0  0  0  0  0  0  0  0  0  0
    7.4722  -15.9790   24.3442 C   0  0  0  0  0  0  0  0  0  0  0  0
    7.9856  -17.0229   24.7710 O   0  0  0  0  0  0  0  0  0  0  0  0
    7.4832  -15.4232   20.2442 C   0  0  0  0  0  0  0  0  0  0  0  0
    8.8262  -15.4599   20.8907 C   0  0  1  0  0  0  0  0  0  0  0  0
    9.4035  -14.1952   21.0145 O   0  0  0  0  0  0  0  0  0  0  0  0
    8.8390  -16.1168   22.2348 C   0  0  2  0  0  0  0  0  0  0  0  0
    7.8880  -15.4229   23.0990 N   0  0  0  0  0  0  0  0  0  0  0  0
   10.1954  -15.9143   22.8287 C   0  0  0  0  0  0  0  0  0  0  0  0
   10.4519  -14.9547   23.6134 O   0  0  0  0  0  0  0  0  0  0  0  0
   12.3215  -19.5086   25.6096 N   0  0  0  0  0  0  0  0  0  0  0  0
   12.6962  -18.1958   25.1488 C   0  0  0  0  0  0  0  0  0  0  0  0
   12.7136  -17.2935   26.0079 O   0  0  0  0  0  0  0  0  0  0  0  0
   13.0231  -18.0371   23.7153 C   0  0  0  0  0  0  0  0  0  0  0  0
   12.5679  -16.6994   23.2476 C   0  0  2  0  0  0  0  0  0  0  0  0
   11.2765  -16.7934   22.5430 N   0  0  0  0  0  0  0  0  0  0  0  0
   13.5182  -16.1625   22.2441 C   0  0  0  0  0  0  0  0  0  0  0  0
   13.3719  -16.3368   20.9999 O   0  0  0  0  0  0  0  0  0  0  0  0
   14.6585  -15.4157   22.6038 O   0  0  0  0  0  0  0  0  0  0  0  0
  1  2  1  0
  2  3  1  0
  4  5  1  0
  4  3  1  0
  5  6  1  1
  7  5  1  0
  8  7  2  0
 10  9  1  1
 10 11  1  0
 10 12  1  0
 12 14  1  0
 12 13  1  1
 13  7  1  0
 14 15  2  0
 16 17  1  0
 17 19  1  0
 18 17  2  0
 20 19  1  6
 21 20  1  0
 21 14  1  0
 22 20  1  0
 23 22  2  0
 24 22  1  0
M  END
$$$$
