MTN.pdb
     RDKit          3D

 24 23  0  0  1  0  0  0  0  0999 V2000
    7.5539  -11.6740   26.6045 C   0  0  0  0  0  0  0  0  0  0  0  0
    6.2169  -11.8942   25.4224 S   0  0  0  0  0  0  0  0  0  0  0  0
    6.4831  -13.2903   24.3238 C   0  0  0  0  0  0  0  0  0  0  0  0
    7.4792  -12.9611   23.2308 C   0  0  0  0  0  0  0  0  0  0  0  0
    7.6821  -14.1011   22.2830 C   0  0  2  0  0  0  0  0  0  0  0  0
    6.4449  -14.3408   21.5733 N   0  0  0  0  0  0  0  0  0  0  0  0
    8.1587  -15.3360   22.9715 C   0  0  0  0  0  0  0  0  0  0  0  0
    7.3188  -16.0831   23.4930 O   0  0  0  0  0  0  0  0  0  0  0  0
   10.4680  -17.8945   21.3586 C   0  0  0  0  0  0  0  0  0  0  0  0
   11.0214  -17.5159   22.6903 C   0  0  1  0  0  0  0  0  0  0  0  0
   12.1157  -16.6545   22.5981 O   0  0  0  0  0  0  0  0  0  0  0  0
   10.0182  -16.9050   23.6171 C   0  0  2  0  0  0  0  0  0  0  0  0
    9.5474  -15.6532   23.0306 N   0  0  0  0  0  0  0  0  0  0  0  0
   10.7246  -16.5530   24.8862 C   0  0  0  0  0  0  0  0  0  0  0  0
   10.9505  -15.3536   25.2222 O   0  0  0  0  0  0  0  0  0  0  0  0
   11.1313  -15.3672   29.8258 N   0  0  0  0  0  0  0  0  0  0  0  0
   10.6675  -16.6565   29.3801 C   0  0  0  0  0  0  0  0  0  0  0  0
   10.5976  -17.5481   30.2478 O   0  0  0  0  0  0  0  0  0  0  0  0
   10.3197  -16.8062   27.9506 C   0  0  0  0  0  0  0  0  0  0  0  0
   11.5227  -17.2423   27.1901 C   0  0  2  0  0  0  0  0  0  0  0  0
   11.1833  -17.5515   25.7894 N   0  0  0  0  0  0  0  0  0  0  0  0
   12.0447  -18.5116   27.7511 C   0  0  0  0  0  0  0  0  0  0  0  0
   12.7430  -18.5592   28.8047 O   0  0  0  0  0  0  0  0  0  0  0  0
   11.8005  -19.7630   27.1498 O   0  0  0  0  0  0  0  0  0  0  0  0
  1  2  1  0
  2  3  1  0
  4  5  1  0
  4  3  1  0
  5  6  1  1
  7  5  1  0
  8  7  2  0
 10  9  1  6
 10 11  1  0
 10 12  1  0
 12 14  1  0
 12 13  1  6
 13  7  1  0
 14 15  2  0
 16 17  1  0
 17 19  1  0
 18 17  2  0
 20 19  1  1
 21 20  1  0
 21 14  1  0
 22 20  1  0
 23 22  2  0
 24 22  1  0
M  END
$$$$
