MTN.pdb
     RDKit          3D

 24 23  0  0  1  0  0  0  0  0999 V2000
    8.2485  -12.3810   21.3775 C   0  0  0  0  0  0  0  0  0  0  0  0
    7.1452  -12.5748   19.9709 S   0  0  0  0  0  0  0  0  0  0  0  0
    7.2499  -14.2055   19.2248 C   0  0  0  0  0  0  0  0  0  0  0  0
    8.6780  -14.7088   19.1764 C   0  0  0  0  0  0  0  0  0  0  0  0
    8.7646  -16.1346   18.7307 C   0  0  2  0  0  0  0  0  0  0  0  0
    7.5074  -16.5076   18.1205 N   0  0  0  0  0  0  0  0  0  0  0  0
    9.1196  -17.0593   19.8466 C   0  0  0  0  0  0  0  0  0  0  0  0
    8.2299  -17.7770   20.3248 O   0  0  0  0  0  0  0  0  0  0  0  0
   12.6498  -19.0247   20.0236 C   0  0  0  0  0  0  0  0  0  0  0  0
   12.2749  -18.3562   21.3026 C   0  0  1  0  0  0  0  0  0  0  0  0
   12.9961  -17.1838   21.5336 O   0  0  0  0  0  0  0  0  0  0  0  0
   10.8168  -18.0437   21.4236 C   0  0  2  0  0  0  0  0  0  0  0  0
   10.4506  -17.1192   20.3541 N   0  0  0  0  0  0  0  0  0  0  0  0
   10.6110  -17.3196   22.7147 C   0  0  0  0  0  0  0  0  0  0  0  0
   10.4140  -16.0702   22.7635 O   0  0  0  0  0  0  0  0  0  0  0  0
    6.5786  -18.1939   26.4415 N   0  0  0  0  0  0  0  0  0  0  0  0
    7.4765  -17.2447   25.8341 C   0  0  0  0  0  0  0  0  0  0  0  0
    7.4700  -16.0944   26.3131 O   0  0  0  0  0  0  0  0  0  0  0  0
    8.3161  -17.7133   24.7105 C   0  0  0  0  0  0  0  0  0  0  0  0
    9.7527  -17.5976   25.0824 C   0  0  2  0  0  0  0  0  0  0  0  0
   10.6255  -17.9988   23.9643 N   0  0  0  0  0  0  0  0  0  0  0  0
   10.0702  -18.5429   26.1797 C   0  0  0  0  0  0  0  0  0  0  0  0
    9.4684  -18.5285   27.2922 O   0  0  0  0  0  0  0  0  0  0  0  0
   11.0693  -19.5306   26.0638 O   0  0  0  0  0  0  0  0  0  0  0  0
  1  2  1  0
  2  3  1  0
  4  5  1  0
  4  3  1  0
  5  6  1  1
  7  5  1  0
  8  7  2  0
 10  9  1  6
 10 11  1  0
 10 12  1  0
 12 14  1  0
 12 13  1  6
 13  7  1  0
 14 15  2  0
 16 17  1  0
 17 19  1  0
 18 17  2  0
 20 19  1  6
 21 20  1  0
 21 14  1  0
 22 20  1  0
 23 22  2  0
 24 22  1  0
M  END
$$$$
