MTN.pdb
     RDKit          3D

 24 23  0  0  1  0  0  0  0  0999 V2000
    7.1711  -11.1747   26.1483 C   0  0  0  0  0  0  0  0  0  0  0  0
    5.8127  -12.2809   26.5534 S   0  0  0  0  0  0  0  0  0  0  0  0
    6.3576  -13.7730   27.3922 C   0  0  0  0  0  0  0  0  0  0  0  0
    7.2860  -14.5968   26.5234 C   0  0  0  0  0  0  0  0  0  0  0  0
    6.5485  -15.3722   25.4775 C   0  0  2  0  0  0  0  0  0  0  0  0
    5.6703  -16.3166   26.1324 N   0  0  0  0  0  0  0  0  0  0  0  0
    7.4679  -16.0597   24.5245 C   0  0  0  0  0  0  0  0  0  0  0  0
    7.8348  -17.2139   24.7863 O   0  0  0  0  0  0  0  0  0  0  0  0
    7.2800  -15.0458   20.5965 C   0  0  0  0  0  0  0  0  0  0  0  0
    8.6654  -15.3446   21.0598 C   0  0  1  0  0  0  0  0  0  0  0  0
    9.4531  -14.1997   21.1887 O   0  0  0  0  0  0  0  0  0  0  0  0
    8.7281  -16.1065   22.3459 C   0  0  2  0  0  0  0  0  0  0  0  0
    7.9165  -15.4076   23.3387 N   0  0  0  0  0  0  0  0  0  0  0  0
   10.1408  -16.0663   22.8317 C   0  0  0  0  0  0  0  0  0  0  0  0
   10.5686  -15.1447   23.5867 O   0  0  0  0  0  0  0  0  0  0  0  0
   11.3804  -20.3697   23.8835 N   0  0  0  0  0  0  0  0  0  0  0  0
   12.1656  -19.2186   24.2501 C   0  0  0  0  0  0  0  0  0  0  0  0
   12.1486  -18.8998   25.4546 O   0  0  0  0  0  0  0  0  0  0  0  0
   12.9130  -18.5258   23.1785 C   0  0  0  0  0  0  0  0  0  0  0  0
   12.4325  -17.1215   23.0663 C   0  0  2  0  0  0  0  0  0  0  0  0
   11.0855  -17.0663   22.4701 N   0  0  0  0  0  0  0  0  0  0  0  0
   13.2998  -16.3616   22.1342 C   0  0  0  0  0  0  0  0  0  0  0  0
   12.9731  -16.1213   20.9361 O   0  0  0  0  0  0  0  0  0  0  0  0
   14.5564  -15.8492   22.5157 O   0  0  0  0  0  0  0  0  0  0  0  0
  1  2  1  0
  2  3  1  0
  4  5  1  0
  4  3  1  0
  5  6  1  1
  7  5  1  0
  8  7  2  0
 10  9  1  1
 10 11  1  0
 10 12  1  0
 12 14  1  0
 12 13  1  1
 13  7  1  0
 14 15  2  0
 16 17  1  0
 17 19  1  0
 18 17  2  0
 20 19  1  6
 21 20  1  0
 21 14  1  0
 22 20  1  0
 23 22  2  0
 24 22  1  0
M  END
$$$$
