MCH.pdb
     RDKit          3D

 25 25  0  0  1  0  0  0  0  0999 V2000
   26.3904  -19.5957   -7.4158 C   0  0  0  0  0  0  0  0  0  0  0  0
   26.5172  -20.8540   -8.7270 S   0  0  0  0  0  0  0  0  0  0  0  0
   26.5042  -19.9116  -10.3081 C   0  0  0  0  0  0  0  0  0  0  0  0
   26.6191  -20.9143  -11.4473 C   0  0  0  0  0  0  0  0  0  0  0  0
   25.4368  -21.8820  -11.4198 C   0  0  2  0  0  0  0  0  0  0  0  0
   25.6616  -22.9048  -12.4499 N   0  0  0  0  0  0  0  0  0  0  0  0
   24.2683  -21.0925  -11.9052 C   0  0  0  0  0  0  0  0  0  0  0  0
   24.2964  -20.5537  -12.9955 O   0  0  0  0  0  0  0  0  0  0  0  0
   23.1142  -20.9811  -11.0752 N   0  0  0  0  0  0  0  0  0  0  0  0
   21.7819  -20.8880  -11.5684 C   0  0  1  0  0  0  0  0  0  0  0  0
   20.7742  -20.5025  -10.4939 C   0  0  0  0  0  0  0  0  0  0  0  0
   21.2401  -18.9178   -9.7847 S   0  0  0  0  0  0  0  0  0  0  0  0
   21.6046  -19.9547  -12.6811 C   0  0  0  0  0  0  0  0  0  0  0  0
   22.4276  -19.0619  -12.9325 O   0  0  0  0  0  0  0  0  0  0  0  0
   20.4579  -20.0478  -13.5314 N   0  0  0  0  0  0  0  0  0  0  0  0
   20.5604  -19.5939  -14.9282 C   0  0  1  0  0  0  0  0  0  0  0  0
   21.5900  -20.5447  -15.5510 C   0  0  0  0  0  0  0  0  0  0  0  0
   21.7426  -20.3428  -16.9896 C   0  0  0  0  0  0  0  0  0  0  0  0
   21.0389  -19.4339  -17.7789 C   0  0  0  0  0  0  0  0  0  0  0  0
   21.4704  -19.5866  -19.0557 N   0  0  0  0  0  0  0  0  0  0  0  0
   22.3968  -20.5441  -19.0541 C   0  0  0  0  0  0  0  0  0  0  0  0
   22.5585  -20.9998  -17.8013 N   0  0  0  0  0  0  0  0  0  0  0  0
   19.2609  -19.6738  -15.5920 C   0  0  0  0  0  0  0  0  0  0  0  0
   18.9145  -18.8538  -16.6392 O   0  0  0  0  0  0  0  0  0  0  0  0
   18.4236  -20.5351  -15.1814 O   0  0  0  0  0  0  0  0  0  0  0  0
  1  2  1  0
  2  3  1  0
  3  4  1  0
  4  5  1  0
  5  7  1  0
  5  6  1  6
  7  9  1  0
  7  8  2  0
  9 10  1  0
 10 11  1  1
 11 12  1  0
 13 10  1  0
 13 14  2  0
 15 13  1  0
 16 15  1  0
 16 17  1  6
 18 17  1  0
 18 19  2  0
 20 19  1  0
 21 20  1  0
 22 21  2  0
 22 18  1  0
 23 16  1  0
 24 23  1  0
 25 23  2  0
M  END
$$$$
