MCH.pdb
     RDKit          3D

 25 25  0  0  1  0  0  0  0  0999 V2000
   13.7745   -7.7112  -14.6324 C   0  0  0  0  0  0  0  0  0  0  0  0
   13.0525   -8.2006  -13.0331 S   0  0  0  0  0  0  0  0  0  0  0  0
   14.2035   -9.4619  -12.3457 C   0  0  0  0  0  0  0  0  0  0  0  0
   15.6010   -8.8591  -12.3367 C   0  0  0  0  0  0  0  0  0  0  0  0
   16.6247   -9.9066  -11.9009 C   0  0  2  0  0  0  0  0  0  0  0  0
   16.3939  -10.2056  -10.4813 N   0  0  0  0  0  0  0  0  0  0  0  0
   17.9436   -9.2115  -11.9419 C   0  0  0  0  0  0  0  0  0  0  0  0
   18.2964   -8.5005  -11.0199 O   0  0  0  0  0  0  0  0  0  0  0  0
   18.7890   -9.3952  -13.0754 N   0  0  0  0  0  0  0  0  0  0  0  0
   20.0960   -8.8437  -13.1944 C   0  0  1  0  0  0  0  0  0  0  0  0
   21.1078   -9.8266  -13.7677 C   0  0  0  0  0  0  0  0  0  0  0  0
   22.7410   -9.0757  -13.7485 S   0  0  0  0  0  0  0  0  0  0  0  0
   20.1753   -7.6243  -13.9991 C   0  0  0  0  0  0  0  0  0  0  0  0
   19.7543   -7.5728  -15.1643 O   0  0  0  0  0  0  0  0  0  0  0  0
   20.7472   -6.4311  -13.4551 N   0  0  0  0  0  0  0  0  0  0  0  0
   20.7780   -5.2099  -14.2769 C   0  0  1  0  0  0  0  0  0  0  0  0
   19.9620   -4.1971  -13.4643 C   0  0  0  0  0  0  0  0  0  0  0  0
   19.8690   -2.8954  -14.1205 C   0  0  0  0  0  0  0  0  0  0  0  0
   20.4015   -2.5528  -15.3628 C   0  0  0  0  0  0  0  0  0  0  0  0
   20.1068   -1.2475  -15.5843 N   0  0  0  0  0  0  0  0  0  0  0  0
   19.4243   -0.8058  -14.5287 C   0  0  0  0  0  0  0  0  0  0  0  0
   19.2827   -1.8065  -13.6444 N   0  0  0  0  0  0  0  0  0  0  0  0
   22.1544   -4.7677  -14.4901 C   0  0  0  0  0  0  0  0  0  0  0  0
   22.5766   -4.2104  -15.6735 O   0  0  0  0  0  0  0  0  0  0  0  0
   22.9882   -4.9063  -13.5429 O   0  0  0  0  0  0  0  0  0  0  0  0
  1  2  1  0
  2  3  1  0
  3  4  1  0
  4  5  1  0
  5  7  1  0
  5  6  1  1
  7  9  1  0
  7  8  2  0
  9 10  1  0
 10 11  1  6
 11 12  1  0
 13 10  1  0
 13 14  2  0
 15 13  1  0
 16 15  1  0
 16 17  1  1
 18 17  1  0
 18 19  2  0
 20 19  1  0
 21 20  1  0
 22 21  2  0
 22 18  1  0
 23 16  1  0
 24 23  1  0
 25 23  2  0
M  END
$$$$
