MCH.pdb
     RDKit          3D

 25 25  0  0  1  0  0  0  0  0999 V2000
   23.7251  -18.2289  -22.0540 C   0  0  0  0  0  0  0  0  0  0  0  0
   23.8664  -17.1745  -20.5752 S   0  0  0  0  0  0  0  0  0  0  0  0
   22.1729  -17.1157  -19.8563 C   0  0  0  0  0  0  0  0  0  0  0  0
   22.1989  -16.1432  -18.6858 C   0  0  0  0  0  0  0  0  0  0  0  0
   23.3908  -16.4425  -17.7776 C   0  0  2  0  0  0  0  0  0  0  0  0
   23.1172  -17.6983  -17.0663 N   0  0  0  0  0  0  0  0  0  0  0  0
   23.3612  -15.3859  -16.7253 C   0  0  0  0  0  0  0  0  0  0  0  0
   22.4420  -15.3310  -15.9304 O   0  0  0  0  0  0  0  0  0  0  0  0
   24.4283  -14.4424  -16.6602 N   0  0  0  0  0  0  0  0  0  0  0  0
   24.4794  -13.3568  -15.7406 C   0  0  1  0  0  0  0  0  0  0  0  0
   25.8977  -12.8787  -15.4610 C   0  0  0  0  0  0  0  0  0  0  0  0
   26.8479  -14.2265  -14.7455 S   0  0  0  0  0  0  0  0  0  0  0  0
   23.6982  -12.1839  -16.1338 C   0  0  0  0  0  0  0  0  0  0  0  0
   23.7310  -11.7233  -17.2846 O   0  0  0  0  0  0  0  0  0  0  0  0
   22.8538  -11.5229  -15.1867 N   0  0  0  0  0  0  0  0  0  0  0  0
   22.1189  -10.3156  -15.5992 C   0  0  1  0  0  0  0  0  0  0  0  0
   20.6482  -10.6785  -15.3600 C   0  0  0  0  0  0  0  0  0  0  0  0
   20.1391  -11.6340  -16.3404 C   0  0  0  0  0  0  0  0  0  0  0  0
   19.9076  -11.3901  -17.6936 C   0  0  0  0  0  0  0  0  0  0  0  0
   19.4175  -12.5337  -18.2337 N   0  0  0  0  0  0  0  0  0  0  0  0
   19.3501  -13.4404  -17.2598 C   0  0  0  0  0  0  0  0  0  0  0  0
   19.7875  -12.8917  -16.1148 N   0  0  0  0  0  0  0  0  0  0  0  0
   22.5399   -9.1615  -14.8077 C   0  0  0  0  0  0  0  0  0  0  0  0
   22.1307   -7.8808  -15.0933 O   0  0  0  0  0  0  0  0  0  0  0  0
   23.3136   -9.3548  -13.8199 O   0  0  0  0  0  0  0  0  0  0  0  0
  1  2  1  0
  2  3  1  0
  3  4  1  0
  4  5  1  0
  5  7  1  0
  5  6  1  1
  7  9  1  0
  7  8  2  0
  9 10  1  0
 10 11  1  6
 11 12  1  0
 13 10  1  0
 13 14  2  0
 15 13  1  0
 16 15  1  0
 16 17  1  1
 18 17  1  0
 18 19  2  0
 20 19  1  0
 21 20  1  0
 22 21  2  0
 22 18  1  0
 23 16  1  0
 24 23  1  0
 25 23  2  0
M  END
$$$$
