MCH.pdb
     RDKit          3D

 25 25  0  0  1  0  0  0  0  0999 V2000
   21.2629  -20.0203  -19.4662 C   0  0  0  0  0  0  0  0  0  0  0  0
   20.3584  -20.8737  -18.1349 S   0  0  0  0  0  0  0  0  0  0  0  0
   21.3041  -20.5149  -16.5970 C   0  0  0  0  0  0  0  0  0  0  0  0
   21.8325  -19.0912  -16.6984 C   0  0  0  0  0  0  0  0  0  0  0  0
   23.0814  -18.9289  -15.8329 C   0  0  2  0  0  0  0  0  0  0  0  0
   22.8432  -19.6161  -14.5566 N   0  0  0  0  0  0  0  0  0  0  0  0
   23.1380  -17.4789  -15.4884 C   0  0  0  0  0  0  0  0  0  0  0  0
   22.2897  -16.9800  -14.7734 O   0  0  0  0  0  0  0  0  0  0  0  0
   24.2037  -16.6849  -16.0052 N   0  0  0  0  0  0  0  0  0  0  0  0
   24.3022  -15.2745  -15.8383 C   0  0  1  0  0  0  0  0  0  0  0  0
   25.7026  -14.7391  -16.1043 C   0  0  0  0  0  0  0  0  0  0  0  0
   26.8278  -15.3742  -14.8546 S   0  0  0  0  0  0  0  0  0  0  0  0
   23.3782  -14.4944  -16.6619 C   0  0  0  0  0  0  0  0  0  0  0  0
   23.1580  -14.7705  -17.8505 O   0  0  0  0  0  0  0  0  0  0  0  0
   22.6845  -13.3714  -16.1102 N   0  0  0  0  0  0  0  0  0  0  0  0
   21.7921  -12.5823  -16.9754 C   0  0  1  0  0  0  0  0  0  0  0  0
   20.4127  -12.7381  -16.3236 C   0  0  0  0  0  0  0  0  0  0  0  0
   19.3889  -11.9250  -16.9749 C   0  0  0  0  0  0  0  0  0  0  0  0
   19.2039  -10.5507  -16.8287 C   0  0  0  0  0  0  0  0  0  0  0  0
   18.1351  -10.2024  -17.5877 N   0  0  0  0  0  0  0  0  0  0  0  0
   17.6823  -11.3095  -18.1748 C   0  0  0  0  0  0  0  0  0  0  0  0
   18.4440  -12.3504  -17.8010 N   0  0  0  0  0  0  0  0  0  0  0  0
   22.2257  -11.1876  -17.0262 C   0  0  0  0  0  0  0  0  0  0  0  0
   22.9652  -10.6067  -16.0238 O   0  0  0  0  0  0  0  0  0  0  0  0
   21.9041  -10.4903  -18.0371 O   0  0  0  0  0  0  0  0  0  0  0  0
  1  2  1  0
  2  3  1  0
  3  4  1  0
  4  5  1  0
  5  7  1  0
  5  6  1  1
  7  9  1  0
  7  8  2  0
  9 10  1  0
 10 11  1  6
 11 12  1  0
 13 10  1  0
 13 14  2  0
 15 13  1  0
 16 15  1  0
 16 17  1  1
 18 17  1  0
 18 19  2  0
 20 19  1  0
 21 20  1  0
 22 21  2  0
 22 18  1  0
 23 16  1  0
 24 23  1  0
 25 23  2  0
M  END
$$$$
