MCH.pdb
     RDKit          3D

 25 25  0  0  1  0  0  0  0  0999 V2000
   25.9059  -20.2573   -7.7219 C   0  0  0  0  0  0  0  0  0  0  0  0
   26.0671  -20.1793   -9.5348 S   0  0  0  0  0  0  0  0  0  0  0  0
   25.4292  -21.7929  -10.1495 C   0  0  0  0  0  0  0  0  0  0  0  0
   25.5968  -21.8125  -11.6621 C   0  0  0  0  0  0  0  0  0  0  0  0
   25.2271  -20.4522  -12.2517 C   0  0  2  0  0  0  0  0  0  0  0  0
   23.7623  -20.3411  -12.2566 N   0  0  0  0  0  0  0  0  0  0  0  0
   25.6156  -20.5257  -13.6898 C   0  0  0  0  0  0  0  0  0  0  0  0
   24.9105  -21.1089  -14.4914 O   0  0  0  0  0  0  0  0  0  0  0  0
   26.8239  -19.8986  -14.1142 N   0  0  0  0  0  0  0  0  0  0  0  0
   27.3670  -20.0165  -15.4249 C   0  0  1  0  0  0  0  0  0  0  0  0
   28.6055  -19.1563  -15.6365 C   0  0  0  0  0  0  0  0  0  0  0  0
   28.1672  -17.4249  -15.4324 S   0  0  0  0  0  0  0  0  0  0  0  0
   27.7158  -21.3805  -15.8229 C   0  0  0  0  0  0  0  0  0  0  0  0
   28.0067  -22.2567  -14.9950 O   0  0  0  0  0  0  0  0  0  0  0  0
   27.7280  -21.7535  -17.2040 N   0  0  0  0  0  0  0  0  0  0  0  0
   26.9960  -22.9580  -17.6294 C   0  0  1  0  0  0  0  0  0  0  0  0
   25.5547  -22.6936  -17.1771 C   0  0  0  0  0  0  0  0  0  0  0  0
   25.1691  -23.5070  -16.0268 C   0  0  0  0  0  0  0  0  0  0  0  0
   25.9590  -24.4569  -15.3804 C   0  0  0  0  0  0  0  0  0  0  0  0
   25.2134  -24.9928  -14.3821 N   0  0  0  0  0  0  0  0  0  0  0  0
   24.0200  -24.4010  -14.4109 C   0  0  0  0  0  0  0  0  0  0  0  0
   23.9970  -23.5023  -15.4084 N   0  0  0  0  0  0  0  0  0  0  0  0
   27.0978  -23.1379  -19.0761 C   0  0  0  0  0  0  0  0  0  0  0  0
   27.3074  -24.3668  -19.6549 O   0  0  0  0  0  0  0  0  0  0  0  0
   26.9881  -22.1166  -19.8221 O   0  0  0  0  0  0  0  0  0  0  0  0
  1  2  1  0
  2  3  1  0
  3  4  1  0
  4  5  1  0
  5  7  1  0
  5  6  1  6
  7  9  1  0
  7  8  2  0
  9 10  1  0
 10 11  1  1
 11 12  1  0
 13 10  1  0
 13 14  2  0
 15 13  1  0
 16 15  1  0
 16 17  1  6
 18 17  1  0
 18 19  2  0
 20 19  1  0
 21 20  1  0
 22 21  2  0
 22 18  1  0
 23 16  1  0
 24 23  1  0
 25 23  2  0
M  END
$$$$
