MCH.pdb
     RDKit          3D

 25 25  0  0  1  0  0  0  0  0999 V2000
   19.8077  -29.9179    4.7937 C   0  0  0  0  0  0  0  0  0  0  0  0
   21.3387  -30.0324    3.8131 S   0  0  0  0  0  0  0  0  0  0  0  0
   22.6701  -30.3957    5.0311 C   0  0  0  0  0  0  0  0  0  0  0  0
   23.9846  -30.4849    4.2691 C   0  0  0  0  0  0  0  0  0  0  0  0
   25.1314  -30.7956    5.2300 C   0  0  2  0  0  0  0  0  0  0  0  0
   25.5043  -29.5492    5.9121 N   0  0  0  0  0  0  0  0  0  0  0  0
   26.2973  -31.1261    4.3605 C   0  0  0  0  0  0  0  0  0  0  0  0
   26.9056  -30.2459    3.7815 O   0  0  0  0  0  0  0  0  0  0  0  0
   26.6931  -32.4888    4.2202 N   0  0  0  0  0  0  0  0  0  0  0  0
   27.8179  -32.9194    3.4611 C   0  0  1  0  0  0  0  0  0  0  0  0
   28.8810  -33.6059    4.3080 C   0  0  0  0  0  0  0  0  0  0  0  0
   29.9662  -32.3624    5.0203 S   0  0  0  0  0  0  0  0  0  0  0  0
   27.5003  -33.8207    2.3533 C   0  0  0  0  0  0  0  0  0  0  0  0
   26.6770  -34.7412    2.4652 O   0  0  0  0  0  0  0  0  0  0  0  0
   28.1380  -33.6624    1.0824 N   0  0  0  0  0  0  0  0  0  0  0  0
   27.8560  -34.6322    0.0112 C   0  0  1  0  0  0  0  0  0  0  0  0
   28.1469  -33.8540   -1.2778 C   0  0  0  0  0  0  0  0  0  0  0  0
   26.9803  -33.1249   -1.7687 C   0  0  0  0  0  0  0  0  0  0  0  0
   25.6951  -33.1559   -1.2290 C   0  0  0  0  0  0  0  0  0  0  0  0
   24.9132  -32.3568   -1.9970 N   0  0  0  0  0  0  0  0  0  0  0  0
   25.6801  -31.8560   -2.9647 C   0  0  0  0  0  0  0  0  0  0  0  0
   26.9309  -32.3237   -2.8233 N   0  0  0  0  0  0  0  0  0  0  0  0
   28.7065  -35.8126    0.1489 C   0  0  0  0  0  0  0  0  0  0  0  0
   29.9812  -35.7495    0.6591 O   0  0  0  0  0  0  0  0  0  0  0  0
   28.2456  -36.9369   -0.2187 O   0  0  0  0  0  0  0  0  0  0  0  0
  1  2  1  0
  2  3  1  0
  3  4  1  0
  4  5  1  0
  5  7  1  0
  5  6  1  6
  7  9  1  0
  7  8  2  0
  9 10  1  0
 10 11  1  1
 11 12  1  0
 13 10  1  0
 13 14  2  0
 15 13  1  0
 16 15  1  0
 16 17  1  6
 18 17  1  0
 18 19  2  0
 20 19  1  0
 21 20  1  0
 22 21  2  0
 22 18  1  0
 23 16  1  0
 24 23  1  0
 25 23  2  0
M  END
$$$$
