MCH.pdb
     RDKit          3D

 25 25  0  0  1  0  0  0  0  0999 V2000
   22.0960  -17.6263    0.9802 C   0  0  0  0  0  0  0  0  0  0  0  0
   20.7118  -17.1260   -0.0933 S   0  0  0  0  0  0  0  0  0  0  0  0
   19.2594  -18.0836    0.5082 C   0  0  0  0  0  0  0  0  0  0  0  0
   19.2042  -17.9412    2.0225 C   0  0  0  0  0  0  0  0  0  0  0  0
   18.0846  -18.8102    2.5937 C   0  0  2  0  0  0  0  0  0  0  0  0
   16.8008  -18.2330    2.1734 N   0  0  0  0  0  0  0  0  0  0  0  0
   18.1381  -18.6041    4.0699 C   0  0  0  0  0  0  0  0  0  0  0  0
   17.3458  -17.8625    4.6195 O   0  0  0  0  0  0  0  0  0  0  0  0
   19.1288  -19.2923    4.8303 N   0  0  0  0  0  0  0  0  0  0  0  0
   19.2781  -19.1731    6.2411 C   0  0  1  0  0  0  0  0  0  0  0  0
   20.3423  -20.1026    6.8086 C   0  0  0  0  0  0  0  0  0  0  0  0
   20.2404  -20.0954    8.6033 S   0  0  0  0  0  0  0  0  0  0  0  0
   19.5884  -17.8231    6.7122 C   0  0  0  0  0  0  0  0  0  0  0  0
   20.5055  -17.1469    6.2230 O   0  0  0  0  0  0  0  0  0  0  0  0
   18.8269  -17.2293    7.7677 N   0  0  0  0  0  0  0  0  0  0  0  0
   19.2040  -15.8949    8.2628 C   0  0  1  0  0  0  0  0  0  0  0  0
   18.0993  -14.9762    7.7265 C   0  0  0  0  0  0  0  0  0  0  0  0
   18.5721  -14.0893    6.6666 C   0  0  0  0  0  0  0  0  0  0  0  0
   19.8447  -14.0825    6.0968 C   0  0  0  0  0  0  0  0  0  0  0  0
   19.8684  -13.0930    5.1693 N   0  0  0  0  0  0  0  0  0  0  0  0
   18.6670  -12.5168    5.1668 C   0  0  0  0  0  0  0  0  0  0  0  0
   17.8851  -13.1227    6.0750 N   0  0  0  0  0  0  0  0  0  0  0  0
   19.2698  -15.8874    9.7226 C   0  0  0  0  0  0  0  0  0  0  0  0
   18.7934  -16.9241   10.4891 O   0  0  0  0  0  0  0  0  0  0  0  0
   19.7874  -14.8822   10.2999 O   0  0  0  0  0  0  0  0  0  0  0  0
  1  2  1  0
  2  3  1  0
  3  4  1  0
  4  5  1  0
  5  7  1  0
  5  6  1  6
  7  9  1  0
  7  8  2  0
  9 10  1  0
 10 11  1  6
 11 12  1  0
 13 10  1  0
 13 14  2  0
 15 13  1  0
 16 15  1  0
 16 17  1  1
 18 17  1  0
 18 19  2  0
 20 19  1  0
 21 20  1  0
 22 21  2  0
 22 18  1  0
 23 16  1  0
 24 23  1  0
 25 23  2  0
M  END
$$$$
