LQS.pdb
     RDKit          3D

 24 23  0  0  1  0  0  0  0  0999 V2000
   18.8657  -13.9172  -16.4545 C   0  0  0  0  0  0  0  0  0  0  0  0
   18.0546  -12.8145  -15.8075 C   0  0  2  0  0  0  0  0  0  0  0  0
   16.9982  -12.3886  -16.7784 C   0  0  0  0  0  0  0  0  0  0  0  0
   18.9179  -11.6936  -15.3070 C   0  0  0  0  0  0  0  0  0  0  0  0
   18.9214  -10.5686  -16.2914 C   0  0  2  0  0  0  0  0  0  0  0  0
   19.8595  -10.8137  -17.3456 N   0  0  0  0  0  0  0  0  0  0  0  0
   19.1242   -9.2443  -15.6460 C   0  0  0  0  0  0  0  0  0  0  0  0
   18.3352   -8.8774  -14.7381 O   0  0  0  0  0  0  0  0  0  0  0  0
   21.9481   -5.3351  -12.6412 N   0  0  0  0  0  0  0  0  0  0  0  0
   22.0716   -6.7453  -12.5268 C   0  0  0  0  0  0  0  0  0  0  0  0
   22.1818   -7.2095  -11.3668 O   0  0  0  0  0  0  0  0  0  0  0  0
   22.0758   -7.6507  -13.6827 C   0  0  0  0  0  0  0  0  0  0  0  0
   21.8004   -7.0004  -14.9956 C   0  0  0  0  0  0  0  0  0  0  0  0
   20.3956   -7.0652  -15.4903 C   0  0  2  0  0  0  0  0  0  0  0  0
   20.1938   -8.4010  -16.0466 N   0  0  0  0  0  0  0  0  0  0  0  0
   20.1858   -6.0284  -16.5256 C   0  0  0  0  0  0  0  0  0  0  0  0
   20.5062   -6.1037  -17.7197 O   0  0  0  0  0  0  0  0  0  0  0  0
   17.2957   -2.6396  -17.9608 O   0  0  0  0  0  0  0  0  0  0  0  0
   17.7053   -3.6529  -17.1271 C   0  0  0  0  0  0  0  0  0  0  0  0
   19.2336   -3.7578  -17.0545 C   0  0  2  0  0  0  0  0  0  0  0  0
   19.5447   -4.7975  -16.1236 N   0  0  0  0  0  0  0  0  0  0  0  0
   19.7306   -2.4359  -16.6483 C   0  0  0  0  0  0  0  0  0  0  0  0
   19.6564   -1.3467  -17.4906 O   0  0  0  0  0  0  0  0  0  0  0  0
   20.2337   -2.2879  -15.5137 O   0  0  0  0  0  0  0  0  0  0  0  0
  2  1  1  6
  3  2  1  0
  4  2  1  0
  4  5  1  0
  5  6  1  6
  7  5  1  0
  7  8  2  0
  9 10  1  0
 10 12  1  0
 11 10  2  0
 12 13  1  0
 14 13  1  6
 14 15  1  0
 15  7  1  0
 16 14  1  0
 17 16  2  0
 18 19  1  0
 20 19  1  1
 20 21  1  0
 21 16  1  0
 22 23  1  0
 22 20  1  0
 24 22  2  0
M  END
$$$$
