LQS.pdb
     RDKit          3D

 24 23  0  0  1  0  0  0  0  0999 V2000
   29.8168  -23.8034  -16.6846 C   0  0  0  0  0  0  0  0  0  0  0  0
   29.1876  -23.7747  -18.0614 C   0  0  2  0  0  0  0  0  0  0  0  0
   27.8063  -23.2143  -17.9258 C   0  0  0  0  0  0  0  0  0  0  0  0
   29.2449  -25.1122  -18.7398 C   0  0  0  0  0  0  0  0  0  0  0  0
   30.6618  -25.5783  -18.8382 C   0  0  2  0  0  0  0  0  0  0  0  0
   31.4343  -24.6980  -19.6625 N   0  0  0  0  0  0  0  0  0  0  0  0
   30.7684  -26.9984  -19.2665 C   0  0  0  0  0  0  0  0  0  0  0  0
   30.7858  -27.2688  -20.4945 O   0  0  0  0  0  0  0  0  0  0  0  0
   34.7518  -31.0293  -17.2403 N   0  0  0  0  0  0  0  0  0  0  0  0
   33.8016  -31.8853  -17.8578 C   0  0  0  0  0  0  0  0  0  0  0  0
   34.1224  -33.0921  -17.9756 O   0  0  0  0  0  0  0  0  0  0  0  0
   32.4979  -31.4215  -18.3488 C   0  0  0  0  0  0  0  0  0  0  0  0
   32.2072  -29.9798  -18.1049 C   0  0  0  0  0  0  0  0  0  0  0  0
   30.9357  -29.4502  -18.6749 C   0  0  2  0  0  0  0  0  0  0  0  0
   30.8498  -28.0395  -18.3046 N   0  0  0  0  0  0  0  0  0  0  0  0
   29.7905  -30.2083  -18.1227 C   0  0  0  0  0  0  0  0  0  0  0  0
   29.3527  -30.1433  -16.9660 O   0  0  0  0  0  0  0  0  0  0  0  0
   26.2603  -33.2981  -19.5372 O   0  0  0  0  0  0  0  0  0  0  0  0
   27.3872  -32.5663  -19.8271 C   0  0  0  0  0  0  0  0  0  0  0  0
   27.9690  -31.8854  -18.5821 C   0  0  2  0  0  0  0  0  0  0  0  0
   29.1009  -31.1212  -19.0052 N   0  0  0  0  0  0  0  0  0  0  0  0
   28.3028  -32.9547  -17.6311 C   0  0  0  0  0  0  0  0  0  0  0  0
   27.4334  -33.3252  -16.6269 O   0  0  0  0  0  0  0  0  0  0  0  0
   29.3992  -33.5471  -17.7286 O   0  0  0  0  0  0  0  0  0  0  0  0
  2  1  1  1
  3  2  1  0
  4  2  1  0
  4  5  1  0
  5  6  1  6
  7  5  1  0
  7  8  2  0
  9 10  1  0
 10 12  1  0
 11 10  2  0
 12 13  1  0
 14 13  1  1
 14 15  1  0
 15  7  1  0
 16 14  1  0
 17 16  2  0
 18 19  1  0
 20 19  1  6
 20 21  1  0
 21 16  1  0
 22 23  1  0
 22 20  1  0
 24 22  2  0
M  END
$$$$
