LQS.pdb
     RDKit          3D

 24 23  0  0  1  0  0  0  0  0999 V2000
   19.6493  -11.7442  -15.0877 C   0  0  0  0  0  0  0  0  0  0  0  0
   18.7210  -11.2699  -16.1857 C   0  0  2  0  0  0  0  0  0  0  0  0
   18.7612  -12.2781  -17.2913 C   0  0  0  0  0  0  0  0  0  0  0  0
   19.0271   -9.8668  -16.6214 C   0  0  0  0  0  0  0  0  0  0  0  0
   18.8075   -8.9173  -15.4879 C   0  0  2  0  0  0  0  0  0  0  0  0
   17.4863   -9.0559  -14.9525 N   0  0  0  0  0  0  0  0  0  0  0  0
   19.1304   -7.5112  -15.8487 C   0  0  0  0  0  0  0  0  0  0  0  0
   20.2767   -7.2387  -16.2881 O   0  0  0  0  0  0  0  0  0  0  0  0
   17.5017   -2.4345  -20.3575 N   0  0  0  0  0  0  0  0  0  0  0  0
   17.5739   -3.6348  -19.6018 C   0  0  0  0  0  0  0  0  0  0  0  0
   17.2205   -4.6889  -20.1826 O   0  0  0  0  0  0  0  0  0  0  0  0
   18.0323   -3.6836  -18.2078 C   0  0  0  0  0  0  0  0  0  0  0  0
   17.8588   -5.0007  -17.5314 C   0  0  0  0  0  0  0  0  0  0  0  0
   18.3899   -5.1124  -16.1430 C   0  0  2  0  0  0  0  0  0  0  0  0
   18.1598   -6.4857  -15.7007 N   0  0  0  0  0  0  0  0  0  0  0  0
   17.6854   -4.1527  -15.2634 C   0  0  0  0  0  0  0  0  0  0  0  0
   16.6083   -4.3402  -14.6815 O   0  0  0  0  0  0  0  0  0  0  0  0
   18.2770    0.2724  -13.2458 O   0  0  0  0  0  0  0  0  0  0  0  0
   18.7032   -0.7017  -14.1171 C   0  0  0  0  0  0  0  0  0  0  0  0
   17.7046   -1.8612  -14.2194 C   0  0  2  0  0  0  0  0  0  0  0  0
   18.2990   -2.8622  -15.0493 N   0  0  0  0  0  0  0  0  0  0  0  0
   16.4614   -1.3029  -14.7690 C   0  0  0  0  0  0  0  0  0  0  0  0
   15.4393   -0.8723  -13.9496 O   0  0  0  0  0  0  0  0  0  0  0  0
   16.3201   -1.2131  -16.0077 O   0  0  0  0  0  0  0  0  0  0  0  0
  2  1  1  1
  3  2  1  0
  4  2  1  0
  4  5  1  0
  5  6  1  6
  7  5  1  0
  7  8  2  0
  9 10  1  0
 10 12  1  0
 11 10  2  0
 12 13  1  0
 14 13  1  6
 14 15  1  0
 15  7  1  0
 16 14  1  0
 17 16  2  0
 18 19  1  0
 20 19  1  6
 20 21  1  0
 21 16  1  0
 22 23  1  0
 22 20  1  0
 24 22  2  0
M  END
$$$$
