LQS.pdb
     RDKit          3D

 24 23  0  0  1  0  0  0  0  0999 V2000
   22.1800  -10.8669  -13.7777 C   0  0  0  0  0  0  0  0  0  0  0  0
   21.9261   -9.5906  -14.5517 C   0  0  2  0  0  0  0  0  0  0  0  0
   23.1917   -8.7915  -14.5516 C   0  0  0  0  0  0  0  0  0  0  0  0
   20.7281   -8.8453  -14.0405 C   0  0  0  0  0  0  0  0  0  0  0  0
   19.5040   -9.6948  -14.1615 C   0  0  2  0  0  0  0  0  0  0  0  0
   19.3418  -10.1707  -15.5026 N   0  0  0  0  0  0  0  0  0  0  0  0
   18.2843   -9.0174  -13.6468 C   0  0  0  0  0  0  0  0  0  0  0  0
   17.7177   -8.1500  -14.3596 O   0  0  0  0  0  0  0  0  0  0  0  0
   13.9681  -11.6915  -10.0450 N   0  0  0  0  0  0  0  0  0  0  0  0
   13.5792  -10.3261  -10.0801 C   0  0  0  0  0  0  0  0  0  0  0  0
   12.4594  -10.0458   -9.5894 O   0  0  0  0  0  0  0  0  0  0  0  0
   14.4153   -9.2642  -10.6537 C   0  0  0  0  0  0  0  0  0  0  0  0
   15.7233   -9.7186  -11.2059 C   0  0  0  0  0  0  0  0  0  0  0  0
   16.6003   -8.6667  -11.7948 C   0  0  2  0  0  0  0  0  0  0  0  0
   17.7622   -9.3425  -12.3672 N   0  0  0  0  0  0  0  0  0  0  0  0
   17.0137   -7.7165  -10.7378 C   0  0  0  0  0  0  0  0  0  0  0  0
   17.8093   -7.9407   -9.8154 O   0  0  0  0  0  0  0  0  0  0  0  0
   17.0260   -2.9779   -9.7147 O   0  0  0  0  0  0  0  0  0  0  0  0
   16.6161   -4.0219  -10.5094 C   0  0  0  0  0  0  0  0  0  0  0  0
   16.8075   -5.3796   -9.8224 C   0  0  2  0  0  0  0  0  0  0  0  0
   16.4435   -6.3892  -10.7671 N   0  0  0  0  0  0  0  0  0  0  0  0
   15.9646   -5.3683   -8.6188 C   0  0  0  0  0  0  0  0  0  0  0  0
   16.3698   -4.7410   -7.4595 O   0  0  0  0  0  0  0  0  0  0  0  0
   14.8526   -5.9388   -8.6389 O   0  0  0  0  0  0  0  0  0  0  0  0
  2  1  1  1
  3  2  1  0
  4  2  1  0
  4  5  1  0
  5  6  1  6
  7  5  1  0
  7  8  2  0
  9 10  1  0
 10 12  1  0
 11 10  2  0
 12 13  1  0
 14 13  1  1
 14 15  1  0
 15  7  1  0
 16 14  1  0
 17 16  2  0
 18 19  1  0
 20 19  1  6
 20 21  1  0
 21 16  1  0
 22 23  1  0
 22 20  1  0
 24 22  2  0
M  END
$$$$
