LQS.pdb
     RDKit          3D

 24 23  0  0  1  0  0  0  0  0999 V2000
   24.1452  -12.3392  -15.5026 C   0  0  0  0  0  0  0  0  0  0  0  0
   23.3482  -12.4819  -16.7819 C   0  0  2  0  0  0  0  0  0  0  0  0
   23.9810  -13.5627  -17.6015 C   0  0  0  0  0  0  0  0  0  0  0  0
   23.1925  -11.1748  -17.5027 C   0  0  0  0  0  0  0  0  0  0  0  0
   22.6434  -10.1388  -16.5754 C   0  0  2  0  0  0  0  0  0  0  0  0
   21.3310  -10.4968  -16.1272 N   0  0  0  0  0  0  0  0  0  0  0  0
   22.6933   -8.7695  -17.1534 C   0  0  0  0  0  0  0  0  0  0  0  0
   23.7980   -8.3045  -17.5339 O   0  0  0  0  0  0  0  0  0  0  0  0
   18.1701   -8.2390  -19.9002 N   0  0  0  0  0  0  0  0  0  0  0  0
   19.4264   -8.2990  -20.5597 C   0  0  0  0  0  0  0  0  0  0  0  0
   19.5035   -9.0532  -21.5590 O   0  0  0  0  0  0  0  0  0  0  0  0
   20.6020   -7.5338  -20.1258 C   0  0  0  0  0  0  0  0  0  0  0  0
   20.3937   -6.6868  -18.9168 C   0  0  0  0  0  0  0  0  0  0  0  0
   21.4942   -6.6775  -17.9113 C   0  0  2  0  0  0  0  0  0  0  0  0
   21.5111   -7.9930  -17.2759 N   0  0  0  0  0  0  0  0  0  0  0  0
   21.2440   -5.6150  -16.9116 C   0  0  0  0  0  0  0  0  0  0  0  0
   21.0921   -4.4075  -17.1417 O   0  0  0  0  0  0  0  0  0  0  0  0
   20.6909   -6.8607  -12.8903 O   0  0  0  0  0  0  0  0  0  0  0  0
   20.0848   -5.7416  -13.4097 C   0  0  0  0  0  0  0  0  0  0  0  0
   20.9520   -5.0569  -14.4733 C   0  0  2  0  0  0  0  0  0  0  0  0
   21.1655   -6.0046  -15.5224 N   0  0  0  0  0  0  0  0  0  0  0  0
   22.1887   -4.6323  -13.8029 C   0  0  0  0  0  0  0  0  0  0  0  0
   22.1829   -3.6585  -12.8266 O   0  0  0  0  0  0  0  0  0  0  0  0
   23.2756   -5.1619  -14.1201 O   0  0  0  0  0  0  0  0  0  0  0  0
  2  1  1  1
  3  2  1  0
  4  2  1  0
  4  5  1  0
  5  6  1  6
  7  5  1  0
  7  8  2  0
  9 10  1  0
 10 12  1  0
 11 10  2  0
 12 13  1  0
 14 13  1  6
 14 15  1  0
 15  7  1  0
 16 14  1  0
 17 16  2  0
 18 19  1  0
 20 19  1  1
 20 21  1  0
 21 16  1  0
 22 23  1  0
 22 20  1  0
 24 22  2  0
M  END
$$$$
