LQS.pdb
     RDKit          3D

 24 23  0  0  1  0  0  0  0  0999 V2000
   29.7148  -13.0422  -19.9482 C   0  0  0  0  0  0  0  0  0  0  0  0
   28.7072  -12.0424  -20.4749 C   0  0  2  0  0  0  0  0  0  0  0  0
   28.6403  -12.1948  -21.9624 C   0  0  0  0  0  0  0  0  0  0  0  0
   28.9991  -10.6448  -20.0124 C   0  0  0  0  0  0  0  0  0  0  0  0
   29.0467  -10.5970  -18.5190 C   0  0  2  0  0  0  0  0  0  0  0  0
   27.8172  -11.0647  -17.9524 N   0  0  0  0  0  0  0  0  0  0  0  0
   29.4389   -9.2592  -18.0016 C   0  0  0  0  0  0  0  0  0  0  0  0
   28.5421   -8.4497  -17.6523 O   0  0  0  0  0  0  0  0  0  0  0  0
   34.7831   -8.1674  -14.9070 N   0  0  0  0  0  0  0  0  0  0  0  0
   34.2337   -6.8717  -15.0969 C   0  0  0  0  0  0  0  0  0  0  0  0
   34.7945   -5.9270  -14.4917 O   0  0  0  0  0  0  0  0  0  0  0  0
   33.0679   -6.6073  -15.9494 C   0  0  0  0  0  0  0  0  0  0  0  0
   32.4636   -7.8128  -16.5851 C   0  0  0  0  0  0  0  0  0  0  0  0
   31.2429   -7.5900  -17.4113 C   0  0  2  0  0  0  0  0  0  0  0  0
   30.8077   -8.8956  -17.9015 N   0  0  0  0  0  0  0  0  0  0  0  0
   31.5649   -6.6867  -18.5389 C   0  0  0  0  0  0  0  0  0  0  0  0
   32.1767   -6.9878  -19.5728 O   0  0  0  0  0  0  0  0  0  0  0  0
   30.5293   -2.1919  -20.1702 O   0  0  0  0  0  0  0  0  0  0  0  0
   30.5159   -3.1168  -19.1533 C   0  0  0  0  0  0  0  0  0  0  0  0
   31.3169   -4.3756  -19.5079 C   0  0  2  0  0  0  0  0  0  0  0  0
   31.1309   -5.3118  -18.4434 N   0  0  0  0  0  0  0  0  0  0  0  0
   32.7136   -3.9540  -19.6837 C   0  0  0  0  0  0  0  0  0  0  0  0
   33.2180   -3.6261  -20.9245 O   0  0  0  0  0  0  0  0  0  0  0  0
   33.4682   -3.8887  -18.6893 O   0  0  0  0  0  0  0  0  0  0  0  0
  2  1  1  6
  3  2  1  0
  4  2  1  0
  4  5  1  0
  5  6  1  1
  7  5  1  0
  7  8  2  0
  9 10  1  0
 10 12  1  0
 11 10  2  0
 12 13  1  0
 14 13  1  1
 14 15  1  0
 15  7  1  0
 16 14  1  0
 17 16  2  0
 18 19  1  0
 20 19  1  1
 20 21  1  0
 21 16  1  0
 22 23  1  0
 22 20  1  0
 24 22  2  0
M  END
$$$$
