LQS.pdb
     RDKit          3D

 24 23  0  0  1  0  0  0  0  0999 V2000
   18.9678  -12.0142    4.1470 C   0  0  0  0  0  0  0  0  0  0  0  0
   19.0599  -12.1331    5.6536 C   0  0  2  0  0  0  0  0  0  0  0  0
   20.4678  -11.8227    6.0556 C   0  0  0  0  0  0  0  0  0  0  0  0
   18.5558  -13.4564    6.1506 C   0  0  0  0  0  0  0  0  0  0  0  0
   17.1450  -13.6694    5.7046 C   0  0  2  0  0  0  0  0  0  0  0  0
   16.2856  -12.6452    6.2180 N   0  0  0  0  0  0  0  0  0  0  0  0
   16.6478  -15.0366    6.0128 C   0  0  0  0  0  0  0  0  0  0  0  0
   16.2253  -15.2890    7.1702 O   0  0  0  0  0  0  0  0  0  0  0  0
   16.4611  -19.7039    1.5637 N   0  0  0  0  0  0  0  0  0  0  0  0
   16.0425  -20.3251    2.7702 C   0  0  0  0  0  0  0  0  0  0  0  0
   15.7040  -21.5307    2.6959 O   0  0  0  0  0  0  0  0  0  0  0  0
   15.9926  -19.6275    4.0612 C   0  0  0  0  0  0  0  0  0  0  0  0
   16.3384  -18.1783    4.0100 C   0  0  0  0  0  0  0  0  0  0  0  0
   16.3017  -17.4378    5.3033 C   0  0  2  0  0  0  0  0  0  0  0  0
   16.6481  -16.0478    5.0163 N   0  0  0  0  0  0  0  0  0  0  0  0
   17.2731  -18.0369    6.2459 C   0  0  0  0  0  0  0  0  0  0  0  0
   18.4861  -17.7943    6.3073 O   0  0  0  0  0  0  0  0  0  0  0  0
   18.1073  -19.5273   10.5217 O   0  0  0  0  0  0  0  0  0  0  0  0
   17.3227  -19.0030    9.5221 C   0  0  0  0  0  0  0  0  0  0  0  0
   17.6258  -19.6364    8.1587 C   0  0  2  0  0  0  0  0  0  0  0  0
   16.7768  -19.0040    7.1978 N   0  0  0  0  0  0  0  0  0  0  0  0
   17.3845  -21.0792    8.2984 C   0  0  0  0  0  0  0  0  0  0  0  0
   18.2405  -21.8883    9.0153 O   0  0  0  0  0  0  0  0  0  0  0  0
   16.3813  -21.5922    7.7571 O   0  0  0  0  0  0  0  0  0  0  0  0
  2  1  1  6
  3  2  1  0
  4  2  1  0
  4  5  1  0
  5  6  1  1
  7  5  1  0
  7  8  2  0
  9 10  1  0
 10 12  1  0
 11 10  2  0
 12 13  1  0
 14 13  1  6
 14 15  1  0
 15  7  1  0
 16 14  1  0
 17 16  2  0
 18 19  1  0
 20 19  1  1
 20 21  1  0
 21 16  1  0
 22 23  1  0
 22 20  1  0
 24 22  2  0
M  END
$$$$
