LQS.pdb
     RDKit          3D

 24 23  0  0  1  0  0  0  0  0999 V2000
   21.5670  -12.9061  -19.0877 C   0  0  0  0  0  0  0  0  0  0  0  0
   20.1901  -13.0766  -18.4816 C   0  0  2  0  0  0  0  0  0  0  0  0
   19.3104  -13.7187  -19.5083 C   0  0  0  0  0  0  0  0  0  0  0  0
   19.6506  -11.7906  -17.9271 C   0  0  0  0  0  0  0  0  0  0  0  0
   20.6192  -11.2057  -16.9501 C   0  0  2  0  0  0  0  0  0  0  0  0
   20.9067  -12.1327  -15.8968 N   0  0  0  0  0  0  0  0  0  0  0  0
   20.1841   -9.8793  -16.4375 C   0  0  0  0  0  0  0  0  0  0  0  0
   19.8764   -8.9762  -17.2568 O   0  0  0  0  0  0  0  0  0  0  0  0
   17.2410   -9.3429  -10.9862 N   0  0  0  0  0  0  0  0  0  0  0  0
   16.7240   -9.5093  -12.2984 C   0  0  0  0  0  0  0  0  0  0  0  0
   15.5732   -9.9992  -12.3933 O   0  0  0  0  0  0  0  0  0  0  0  0
   17.4665   -9.1406  -13.5103 C   0  0  0  0  0  0  0  0  0  0  0  0
   18.8570   -8.6566  -13.2766 C   0  0  0  0  0  0  0  0  0  0  0  0
   19.6702   -8.3537  -14.4888 C   0  0  2  0  0  0  0  0  0  0  0  0
   20.1156   -9.6307  -15.0414 N   0  0  0  0  0  0  0  0  0  0  0  0
   20.8284   -7.5125  -14.1119 C   0  0  0  0  0  0  0  0  0  0  0  0
   21.7746   -7.8442  -13.3847 O   0  0  0  0  0  0  0  0  0  0  0  0
   23.6350   -3.9761  -15.4712 O   0  0  0  0  0  0  0  0  0  0  0  0
   22.5701   -4.8257  -15.6557 C   0  0  0  0  0  0  0  0  0  0  0  0
   21.9465   -5.2663  -14.3257 C   0  0  2  0  0  0  0  0  0  0  0  0
   20.8792   -6.1662  -14.6340 N   0  0  0  0  0  0  0  0  0  0  0  0
   21.5062   -4.0443  -13.6385 C   0  0  0  0  0  0  0  0  0  0  0  0
   22.3667   -3.3089  -12.8510 O   0  0  0  0  0  0  0  0  0  0  0  0
   20.3249   -3.6562  -13.7662 O   0  0  0  0  0  0  0  0  0  0  0  0
  2  1  1  6
  3  2  1  0
  4  2  1  0
  4  5  1  0
  5  6  1  1
  7  5  1  0
  7  8  2  0
  9 10  1  0
 10 12  1  0
 11 10  2  0
 12 13  1  0
 14 13  1  1
 14 15  1  0
 15  7  1  0
 16 14  1  0
 17 16  2  0
 18 19  1  0
 20 19  1  6
 20 21  1  0
 21 16  1  0
 22 23  1  0
 22 20  1  0
 24 22  2  0
M  END
$$$$
