LQS.pdb
     RDKit          3D

 24 23  0  0  1  0  0  0  0  0999 V2000
   15.8973  -12.0764  -15.3270 C   0  0  0  0  0  0  0  0  0  0  0  0
   17.2567  -12.7422  -15.2920 C   0  0  2  0  0  0  0  0  0  0  0  0
   17.1218  -14.0268  -14.5357 C   0  0  0  0  0  0  0  0  0  0  0  0
   18.3235  -11.8275  -14.7651 C   0  0  0  0  0  0  0  0  0  0  0  0
   18.4016  -10.5924  -15.6036 C   0  0  2  0  0  0  0  0  0  0  0  0
   18.6262  -10.9211  -16.9795 N   0  0  0  0  0  0  0  0  0  0  0  0
   19.3903   -9.6103  -15.0847 C   0  0  0  0  0  0  0  0  0  0  0  0
   19.3017   -9.2231  -13.8915 O   0  0  0  0  0  0  0  0  0  0  0  0
   25.0566   -8.7051  -17.8382 N   0  0  0  0  0  0  0  0  0  0  0  0
   25.0129   -7.7421  -16.7953 C   0  0  0  0  0  0  0  0  0  0  0  0
   26.0568   -7.0749  -16.5996 O   0  0  0  0  0  0  0  0  0  0  0  0
   23.8259   -7.5080  -15.9634 C   0  0  0  0  0  0  0  0  0  0  0  0
   22.6509   -8.3681  -16.2826 C   0  0  0  0  0  0  0  0  0  0  0  0
   21.4290   -8.1624  -15.4538 C   0  0  2  0  0  0  0  0  0  0  0  0
   20.4232   -9.1128  -15.9222 N   0  0  0  0  0  0  0  0  0  0  0  0
   20.9502   -6.7707  -15.6125 C   0  0  0  0  0  0  0  0  0  0  0  0
   20.4514   -6.2748  -16.6320 O   0  0  0  0  0  0  0  0  0  0  0  0
   18.4047   -4.7995  -14.7114 O   0  0  0  0  0  0  0  0  0  0  0  0
   19.4092   -4.2514  -13.9496 C   0  0  0  0  0  0  0  0  0  0  0  0
   20.7938   -4.4856  -14.5659 C   0  0  2  0  0  0  0  0  0  0  0  0
   21.0677   -5.8860  -14.4762 N   0  0  0  0  0  0  0  0  0  0  0  0
   21.7400   -3.6513  -13.8123 C   0  0  0  0  0  0  0  0  0  0  0  0
   22.7406   -4.2084  -13.0441 O   0  0  0  0  0  0  0  0  0  0  0  0
   21.6416   -2.4063  -13.8640 O   0  0  0  0  0  0  0  0  0  0  0  0
  2  1  1  1
  3  2  1  0
  4  2  1  0
  4  5  1  0
  5  6  1  6
  7  5  1  0
  7  8  2  0
  9 10  1  0
 10 12  1  0
 11 10  2  0
 12 13  1  0
 14 13  1  6
 14 15  1  0
 15  7  1  0
 16 14  1  0
 17 16  2  0
 18 19  1  0
 20 19  1  1
 20 21  1  0
 21 16  1  0
 22 23  1  0
 22 20  1  0
 24 22  2  0
M  END
$$$$
