LQS.pdb
     RDKit          3D

 24 23  0  0  1  0  0  0  0  0999 V2000
   26.7359  -32.2130   -8.7186 C   0  0  0  0  0  0  0  0  0  0  0  0
   25.3835  -32.8563   -8.4967 C   0  0  2  0  0  0  0  0  0  0  0  0
   24.3854  -32.1382   -9.3502 C   0  0  0  0  0  0  0  0  0  0  0  0
   25.0167  -32.9199   -7.0428 C   0  0  0  0  0  0  0  0  0  0  0  0
   26.1197  -33.5589   -6.2620 C   0  0  2  0  0  0  0  0  0  0  0  0
   26.3737  -34.8888   -6.7289 N   0  0  0  0  0  0  0  0  0  0  0  0
   25.8866  -33.5062   -4.7942 C   0  0  0  0  0  0  0  0  0  0  0  0
   25.7575  -32.3879   -4.2336 O   0  0  0  0  0  0  0  0  0  0  0  0
   20.7715  -34.9189   -1.7268 N   0  0  0  0  0  0  0  0  0  0  0  0
   21.9980  -35.3713   -1.1720 C   0  0  0  0  0  0  0  0  0  0  0  0
   21.9737  -36.4730   -0.5730 O   0  0  0  0  0  0  0  0  0  0  0  0
   23.2543  -34.6177   -1.2711 C   0  0  0  0  0  0  0  0  0  0  0  0
   23.9041  -34.6462   -2.6125 C   0  0  0  0  0  0  0  0  0  0  0  0
   25.3931  -34.7166   -2.6308 C   0  0  2  0  0  0  0  0  0  0  0  0
   25.8100  -34.7008   -4.0309 N   0  0  0  0  0  0  0  0  0  0  0  0
   25.8393  -35.9607   -1.9644 C   0  0  0  0  0  0  0  0  0  0  0  0
   25.6824  -37.1167   -2.3804 O   0  0  0  0  0  0  0  0  0  0  0  0
   28.7692  -35.6370    0.9458 O   0  0  0  0  0  0  0  0  0  0  0  0
   27.7112  -36.4481    1.2811 C   0  0  0  0  0  0  0  0  0  0  0  0
   26.9720  -36.9730    0.0441 C   0  0  2  0  0  0  0  0  0  0  0  0
   26.5289  -35.8359   -0.7008 N   0  0  0  0  0  0  0  0  0  0  0  0
   25.8755  -37.8201    0.5332 C   0  0  0  0  0  0  0  0  0  0  0  0
   26.1167  -38.9507    1.2849 O   0  0  0  0  0  0  0  0  0  0  0  0
   24.6933  -37.5149    0.2652 O   0  0  0  0  0  0  0  0  0  0  0  0
  2  1  1  1
  3  2  1  0
  4  2  1  0
  4  5  1  0
  5  6  1  6
  7  5  1  0
  7  8  2  0
  9 10  1  0
 10 12  1  0
 11 10  2  0
 12 13  1  0
 14 13  1  6
 14 15  1  0
 15  7  1  0
 16 14  1  0
 17 16  2  0
 18 19  1  0
 20 19  1  1
 20 21  1  0
 21 16  1  0
 22 23  1  0
 22 20  1  0
 24 22  2  0
M  END
$$$$
