LQS.pdb
     RDKit          3D

 24 23  0  0  1  0  0  0  0  0999 V2000
   25.7182  -19.6990   -9.9714 C   0  0  0  0  0  0  0  0  0  0  0  0
   25.3223  -21.1283  -10.2757 C   0  0  2  0  0  0  0  0  0  0  0  0
   26.3682  -22.0297   -9.6978 C   0  0  0  0  0  0  0  0  0  0  0  0
   25.0619  -21.3464  -11.7375 C   0  0  0  0  0  0  0  0  0  0  0  0
   24.1843  -20.2601  -12.2709 C   0  0  2  0  0  0  0  0  0  0  0  0
   22.8584  -20.3659  -11.7397 N   0  0  0  0  0  0  0  0  0  0  0  0
   24.1982  -20.1910  -13.7563 C   0  0  0  0  0  0  0  0  0  0  0  0
   25.2968  -20.2682  -14.3635 O   0  0  0  0  0  0  0  0  0  0  0  0
   20.4664  -23.4351  -17.1515 N   0  0  0  0  0  0  0  0  0  0  0  0
   21.0216  -23.3727  -15.8459 C   0  0  0  0  0  0  0  0  0  0  0  0
   20.7869  -24.3427  -15.0862 O   0  0  0  0  0  0  0  0  0  0  0  0
   21.8347  -22.2471  -15.3686 C   0  0  0  0  0  0  0  0  0  0  0  0
   22.0394  -21.1511  -16.3581 C   0  0  0  0  0  0  0  0  0  0  0  0
   22.9423  -20.0393  -15.9446 C   0  0  2  0  0  0  0  0  0  0  0  0
   22.9888  -20.0398  -14.4844 N   0  0  0  0  0  0  0  0  0  0  0  0
   22.4117  -18.7541  -16.4524 C   0  0  0  0  0  0  0  0  0  0  0  0
   21.2524  -18.3356  -16.3299 O   0  0  0  0  0  0  0  0  0  0  0  0
   23.8400  -14.7819  -18.9495 O   0  0  0  0  0  0  0  0  0  0  0  0
   24.1380  -15.9862  -18.3575 C   0  0  0  0  0  0  0  0  0  0  0  0
   22.8917  -16.6703  -17.7824 C   0  0  2  0  0  0  0  0  0  0  0  0
   23.3210  -17.8865  -17.1651 N   0  0  0  0  0  0  0  0  0  0  0  0
   21.9646  -16.8747  -18.9039 C   0  0  0  0  0  0  0  0  0  0  0  0
   20.9783  -15.9581  -19.2016 O   0  0  0  0  0  0  0  0  0  0  0  0
   22.0664  -17.9016  -19.6093 O   0  0  0  0  0  0  0  0  0  0  0  0
  2  1  1  6
  3  2  1  0
  4  2  1  0
  4  5  1  0
  5  6  1  6
  7  5  1  0
  7  8  2  0
  9 10  1  0
 10 12  1  0
 11 10  2  0
 12 13  1  0
 14 13  1  1
 14 15  1  0
 15  7  1  0
 16 14  1  0
 17 16  2  0
 18 19  1  0
 20 19  1  6
 20 21  1  0
 21 16  1  0
 22 23  1  0
 22 20  1  0
 24 22  2  0
M  END
$$$$
