LQS.pdb
     RDKit          3D

 24 23  0  0  1  0  0  0  0  0999 V2000
   19.0075  -12.2387  -19.5475 C   0  0  0  0  0  0  0  0  0  0  0  0
   18.3565  -12.9856  -18.4026 C   0  0  2  0  0  0  0  0  0  0  0  0
   17.0979  -13.6117  -18.9167 C   0  0  0  0  0  0  0  0  0  0  0  0
   18.1620  -12.1160  -17.1950 C   0  0  0  0  0  0  0  0  0  0  0  0
   19.4746  -11.5592  -16.7459 C   0  0  2  0  0  0  0  0  0  0  0  0
   20.3296  -12.5974  -16.2537 N   0  0  0  0  0  0  0  0  0  0  0  0
   19.3205  -10.4419  -15.7766 C   0  0  0  0  0  0  0  0  0  0  0  0
   18.6071  -10.6105  -14.7548 O   0  0  0  0  0  0  0  0  0  0  0  0
   23.6687   -6.0409  -14.7173 N   0  0  0  0  0  0  0  0  0  0  0  0
   22.5214   -5.5405  -14.0464 C   0  0  0  0  0  0  0  0  0  0  0  0
   22.6825   -4.5154  -13.3416 O   0  0  0  0  0  0  0  0  0  0  0  0
   21.1949   -6.1621  -14.1447 C   0  0  0  0  0  0  0  0  0  0  0  0
   21.1244   -7.3656  -15.0216 C   0  0  0  0  0  0  0  0  0  0  0  0
   19.8046   -8.0537  -15.1049 C   0  0  2  0  0  0  0  0  0  0  0  0
   19.9688   -9.1983  -15.9978 N   0  0  0  0  0  0  0  0  0  0  0  0
   18.7888   -7.1164  -15.6347 C   0  0  0  0  0  0  0  0  0  0  0  0
   18.6633   -6.7542  -16.8125 O   0  0  0  0  0  0  0  0  0  0  0  0
   15.0197   -7.2164  -14.8315 O   0  0  0  0  0  0  0  0  0  0  0  0
   15.5344   -6.0280  -14.3706 C   0  0  0  0  0  0  0  0  0  0  0  0
   16.8231   -5.6348  -15.1033 C   0  0  2  0  0  0  0  0  0  0  0  0
   17.8393   -6.5565  -14.7006 N   0  0  0  0  0  0  0  0  0  0  0  0
   17.1121   -4.2420  -14.7348 C   0  0  0  0  0  0  0  0  0  0  0  0
   16.2179   -3.2255  -14.9966 O   0  0  0  0  0  0  0  0  0  0  0  0
   18.1924   -3.9645  -14.1704 O   0  0  0  0  0  0  0  0  0  0  0  0
  2  1  1  6
  3  2  1  0
  4  2  1  0
  4  5  1  0
  5  6  1  1
  7  5  1  0
  7  8  2  0
  9 10  1  0
 10 12  1  0
 11 10  2  0
 12 13  1  0
 14 13  1  6
 14 15  1  0
 15  7  1  0
 16 14  1  0
 17 16  2  0
 18 19  1  0
 20 19  1  1
 20 21  1  0
 21 16  1  0
 22 23  1  0
 22 20  1  0
 24 22  2  0
M  END
$$$$
