LQS.pdb
     RDKit          3D

 24 23  0  0  1  0  0  0  0  0999 V2000
   23.7115  -13.9691  -15.3643 C   0  0  0  0  0  0  0  0  0  0  0  0
   23.3126  -13.7539  -16.8089 C   0  0  2  0  0  0  0  0  0  0  0  0
   24.1101  -14.6981  -17.6532 C   0  0  0  0  0  0  0  0  0  0  0  0
   23.4256  -12.3152  -17.2208 C   0  0  0  0  0  0  0  0  0  0  0  0
   22.6202  -11.4530  -16.3030 C   0  0  2  0  0  0  0  0  0  0  0  0
   21.2460  -11.8568  -16.2958 N   0  0  0  0  0  0  0  0  0  0  0  0
   22.7855  -10.0030  -16.5883 C   0  0  0  0  0  0  0  0  0  0  0  0
   23.9398   -9.5040  -16.5795 O   0  0  0  0  0  0  0  0  0  0  0  0
   21.2624   -5.8629  -20.8724 N   0  0  0  0  0  0  0  0  0  0  0  0
   22.0588   -7.0377  -20.8242 C   0  0  0  0  0  0  0  0  0  0  0  0
   22.7293   -7.3071  -21.8495 O   0  0  0  0  0  0  0  0  0  0  0  0
   22.1221   -7.9213  -19.6533 C   0  0  0  0  0  0  0  0  0  0  0  0
   21.2331   -7.5344  -18.5209 C   0  0  0  0  0  0  0  0  0  0  0  0
   21.7671   -7.7581  -17.1472 C   0  0  2  0  0  0  0  0  0  0  0  0
   21.6571   -9.1878  -16.8675 N   0  0  0  0  0  0  0  0  0  0  0  0
   20.9777   -6.9707  -16.1736 C   0  0  0  0  0  0  0  0  0  0  0  0
   19.8090   -7.1875  -15.8253 O   0  0  0  0  0  0  0  0  0  0  0  0
   21.8410   -6.0483  -12.6139 O   0  0  0  0  0  0  0  0  0  0  0  0
   20.6969   -5.8634  -13.3531 C   0  0  0  0  0  0  0  0  0  0  0  0
   20.9476   -5.0054  -14.5993 C   0  0  2  0  0  0  0  0  0  0  0  0
   21.6161   -5.8308  -15.5564 N   0  0  0  0  0  0  0  0  0  0  0  0
   21.7411   -3.8476  -14.1643 C   0  0  0  0  0  0  0  0  0  0  0  0
   21.2110   -2.8780  -13.3393 O   0  0  0  0  0  0  0  0  0  0  0  0
   22.9254   -3.7322  -14.5472 O   0  0  0  0  0  0  0  0  0  0  0  0
  2  1  1  1
  3  2  1  0
  4  2  1  0
  4  5  1  0
  5  6  1  6
  7  5  1  0
  7  8  2  0
  9 10  1  0
 10 12  1  0
 11 10  2  0
 12 13  1  0
 14 13  1  6
 14 15  1  0
 15  7  1  0
 16 14  1  0
 17 16  2  0
 18 19  1  0
 20 19  1  1
 20 21  1  0
 21 16  1  0
 22 23  1  0
 22 20  1  0
 24 22  2  0
M  END
$$$$
