LRV.pdb
     RDKit          3D

 27 26  0  0  1  0  0  0  0  0999 V2000
   27.0095  -15.4611  -15.5488 C   0  0  0  0  0  0  0  0  0  0  0  0
   27.3099  -16.4035  -16.7095 C   0  0  1  0  0  0  0  0  0  0  0  0
   28.7906  -16.7442  -16.7162 C   0  0  0  0  0  0  0  0  0  0  0  0
   26.4640  -17.6363  -16.4749 C   0  0  0  0  0  0  0  0  0  0  0  0
   27.3258  -18.7447  -15.8550 C   0  0  2  0  0  0  0  0  0  0  0  0
   27.9132  -19.5754  -16.8554 N   0  0  0  0  0  0  0  0  0  0  0  0
   26.3202  -19.5820  -15.0852 C   0  0  0  0  0  0  0  0  0  0  0  0
   25.7113  -20.4439  -15.7423 O   0  0  0  0  0  0  0  0  0  0  0  0
   21.8673  -20.1047   -9.1971 N   0  0  0  0  0  0  0  0  0  0  0  0
   22.3956  -21.1393   -8.3863 C   0  0  0  0  0  0  0  0  0  0  0  0
   21.6647  -21.9164   -7.6654 N   0  0  0  0  0  0  0  0  0  0  0  0
   23.8072  -21.3479   -8.3523 N   0  0  0  0  0  0  0  0  0  0  0  0
   24.7038  -20.5368   -9.1199 C   0  0  0  0  0  0  0  0  0  0  0  0
   24.4163  -20.6693  -10.6143 C   0  0  0  0  0  0  0  0  0  0  0  0
   25.3924  -19.8768  -11.4284 C   0  0  0  0  0  0  0  0  0  0  0  0
   25.1420  -20.0444  -12.9329 C   0  0  2  0  0  0  0  0  0  0  0  0
   26.1217  -19.3625  -13.7153 N   0  0  0  0  0  0  0  0  0  0  0  0
   23.7763  -19.6046  -13.2570 C   0  0  0  0  0  0  0  0  0  0  0  0
   23.3887  -18.4144  -13.0804 O   0  0  0  0  0  0  0  0  0  0  0  0
   22.1651  -22.6557   -7.1240 C   0  0  0  0  0  0  0  0  0  0  0  0
   22.1319  -19.7400  -16.5069 C   0  0  2  0  0  0  0  0  0  0  0  0
   21.1699  -20.4680  -15.6029 C   0  0  0  0  0  0  0  0  0  0  0  0
   21.2899  -21.9448  -15.9008 C   0  0  2  0  0  0  0  0  0  0  0  0
   21.4697  -20.1410  -14.1533 N   0  0  0  0  0  0  0  0  0  0  0  0
   22.8156  -20.5160  -13.7934 C   0  0  0  0  0  0  0  0  0  0  0  0
   20.5257  -20.7824  -13.2289 O   0  0  0  0  0  0  0  0  0  0  0  0
   20.9807  -21.7370  -12.3441 O   0  0  0  0  0  0  0  0  0  0  0  0
  2  3  1  1
  2  1  1  0
  4  2  1  0
  4  5  1  0
  5  7  1  0
  5  6  1  6
  7  8  2  0
 10 12  1  0
 10  9  1  0
 11 10  2  0
 13 14  1  0
 13 12  1  0
 14 15  1  0
 16 15  1  1
 17 16  1  0
 17  7  1  0
 18 19  2  0
 18 16  1  0
 21 20  1  6
 21 23  1  0
 22 21  1  0
 23 25  1  0
 23 24  1  1
 24 18  1  0
 25 26  1  0
 27 25  2  0
M  END
$$$$
