LRV.pdb
     RDKit          3D

 27 26  0  0  1  0  0  0  0  0999 V2000
   20.9354  -16.5394  -20.9988 C   0  0  0  0  0  0  0  0  0  0  0  0
   22.0365  -16.5550  -19.9438 C   0  0  1  0  0  0  0  0  0  0  0  0
   22.1125  -15.1955  -19.2696 C   0  0  0  0  0  0  0  0  0  0  0  0
   21.6529  -17.6365  -18.9571 C   0  0  0  0  0  0  0  0  0  0  0  0
   22.6885  -17.6956  -17.8259 C   0  0  2  0  0  0  0  0  0  0  0  0
   23.9061  -18.3006  -18.2590 N   0  0  0  0  0  0  0  0  0  0  0  0
   22.0445  -18.6203  -16.8085 C   0  0  0  0  0  0  0  0  0  0  0  0
   22.1940  -19.8383  -17.0070 O   0  0  0  0  0  0  0  0  0  0  0  0
   22.3720  -21.4610  -10.4837 N   0  0  0  0  0  0  0  0  0  0  0  0
   21.4275  -20.9298   -9.5712 C   0  0  0  0  0  0  0  0  0  0  0  0
   20.9562  -21.5939   -8.5739 N   0  0  0  0  0  0  0  0  0  0  0  0
   20.9616  -19.5923   -9.7482 N   0  0  0  0  0  0  0  0  0  0  0  0
   21.4351  -18.7689  -10.8200 C   0  0  0  0  0  0  0  0  0  0  0  0
   20.8816  -19.2469  -12.1612 C   0  0  0  0  0  0  0  0  0  0  0  0
   21.4089  -18.4197  -13.2931 C   0  0  0  0  0  0  0  0  0  0  0  0
   20.8308  -18.8710  -14.6410 C   0  0  2  0  0  0  0  0  0  0  0  0
   21.3325  -18.0892  -15.7245 N   0  0  0  0  0  0  0  0  0  0  0  0
   19.3613  -18.8465  -14.5797 C   0  0  0  0  0  0  0  0  0  0  0  0
   18.7048  -17.7687  -14.5073 O   0  0  0  0  0  0  0  0  0  0  0  0
   20.2398  -21.1093   -7.9892 C   0  0  0  0  0  0  0  0  0  0  0  0
   15.1234  -21.1424  -15.5383 C   0  0  2  0  0  0  0  0  0  0  0  0
   16.6283  -21.2066  -15.4761 C   0  0  0  0  0  0  0  0  0  0  0  0
   17.1493  -21.1175  -16.8919 C   0  0  1  0  0  0  0  0  0  0  0  0
   17.1599  -20.0974  -14.5899 N   0  0  0  0  0  0  0  0  0  0  0  0
   18.6020  -20.0566  -14.6002 C   0  0  0  0  0  0  0  0  0  0  0  0
   16.6895  -20.2158  -13.2036 O   0  0  0  0  0  0  0  0  0  0  0  0
   15.4605  -19.6973  -12.8544 O   0  0  0  0  0  0  0  0  0  0  0  0
  2  3  1  1
  2  1  1  0
  4  2  1  0
  4  5  1  0
  5  7  1  0
  5  6  1  6
  7  8  2  0
 10 12  1  0
 10  9  1  0
 11 10  2  0
 13 14  1  0
 13 12  1  0
 14 15  1  0
 16 15  1  1
 17 16  1  0
 17  7  1  0
 18 19  2  0
 18 16  1  0
 21 20  1  6
 21 23  1  0
 22 21  1  0
 23 25  1  0
 23 24  1  1
 24 18  1  0
 25 26  1  0
 27 25  2  0
M  END
$$$$
