LRV.pdb
     RDKit          3D

 27 26  0  0  1  0  0  0  0  0999 V2000
   24.2258  -16.6693  -19.6097 C   0  0  0  0  0  0  0  0  0  0  0  0
   25.2855  -17.6952  -19.2223 C   0  0  1  0  0  0  0  0  0  0  0  0
   26.4853  -16.9828  -18.6209 C   0  0  0  0  0  0  0  0  0  0  0  0
   24.6288  -18.6119  -18.2131 C   0  0  0  0  0  0  0  0  0  0  0  0
   25.6610  -19.6113  -17.6734 C   0  0  2  0  0  0  0  0  0  0  0  0
   25.9766  -20.6138  -18.6384 N   0  0  0  0  0  0  0  0  0  0  0  0
   24.9312  -20.2836  -16.5243 C   0  0  0  0  0  0  0  0  0  0  0  0
   24.1329  -21.1836  -16.8372 O   0  0  0  0  0  0  0  0  0  0  0  0
   27.8385  -20.4430   -8.4466 N   0  0  0  0  0  0  0  0  0  0  0  0
   28.1562  -20.9530   -9.7296 C   0  0  0  0  0  0  0  0  0  0  0  0
   29.3471  -21.2942  -10.0803 N   0  0  0  0  0  0  0  0  0  0  0  0
   27.1181  -21.1042  -10.6974 N   0  0  0  0  0  0  0  0  0  0  0  0
   25.7492  -20.8304  -10.3779 C   0  0  0  0  0  0  0  0  0  0  0  0
   24.8594  -20.9864  -11.6098 C   0  0  0  0  0  0  0  0  0  0  0  0
   25.4973  -20.3805  -12.8219 C   0  0  0  0  0  0  0  0  0  0  0  0
   24.6014  -20.5155  -14.0603 C   0  0  2  0  0  0  0  0  0  0  0  0
   25.1737  -19.8817  -15.2038 N   0  0  0  0  0  0  0  0  0  0  0  0
   23.2598  -19.9943  -13.7568 C   0  0  0  0  0  0  0  0  0  0  0  0
   23.0683  -18.8113  -13.3547 O   0  0  0  0  0  0  0  0  0  0  0  0
   29.4694  -21.6064  -11.0691 C   0  0  0  0  0  0  0  0  0  0  0  0
   20.2229  -20.9065  -16.0841 C   0  0  2  0  0  0  0  0  0  0  0  0
   19.7803  -21.0493  -14.6501 C   0  0  0  0  0  0  0  0  0  0  0  0
   19.6806  -22.5264  -14.3466 C   0  0  2  0  0  0  0  0  0  0  0  0
   20.7504  -20.3313  -13.7326 N   0  0  0  0  0  0  0  0  0  0  0  0
   22.0989  -20.8138  -13.9060 C   0  0  0  0  0  0  0  0  0  0  0  0
   20.3730  -20.4491  -12.3181 O   0  0  0  0  0  0  0  0  0  0  0  0
   19.2867  -19.7459  -11.8419 O   0  0  0  0  0  0  0  0  0  0  0  0
  2  3  1  1
  2  1  1  0
  4  2  1  0
  4  5  1  0
  5  7  1  0
  5  6  1  6
  7  8  2  0
 10 12  1  0
 10  9  1  0
 11 10  2  0
 13 14  1  0
 13 12  1  0
 14 15  1  0
 16 15  1  1
 17 16  1  0
 17  7  1  0
 18 19  2  0
 18 16  1  0
 21 20  1  6
 21 23  1  0
 22 21  1  0
 23 25  1  0
 23 24  1  1
 24 18  1  0
 25 26  1  0
 27 25  2  0
M  END
$$$$
