LRV.pdb
     RDKit          3D

 27 26  0  0  1  0  0  0  0  0999 V2000
   27.1792  -18.7484   -7.6937 C   0  0  0  0  0  0  0  0  0  0  0  0
   27.2123  -20.0510   -8.4859 C   0  0  1  0  0  0  0  0  0  0  0  0
   26.4745  -21.1326   -7.7148 C   0  0  0  0  0  0  0  0  0  0  0  0
   26.5306  -19.7545   -9.8040 C   0  0  0  0  0  0  0  0  0  0  0  0
   25.9497  -21.0491  -10.3888 C   0  0  2  0  0  0  0  0  0  0  0  0
   26.8517  -21.6611  -11.3096 N   0  0  0  0  0  0  0  0  0  0  0  0
   24.7398  -20.5693  -11.1704 C   0  0  0  0  0  0  0  0  0  0  0  0
   23.9153  -19.8890  -10.5360 O   0  0  0  0  0  0  0  0  0  0  0  0
   26.1604  -17.8527  -18.7255 N   0  0  0  0  0  0  0  0  0  0  0  0
   26.8911  -18.8280  -18.0032 C   0  0  0  0  0  0  0  0  0  0  0  0
   28.1674  -18.9693  -18.0974 N   0  0  0  0  0  0  0  0  0  0  0  0
   26.1966  -19.7089  -17.1206 N   0  0  0  0  0  0  0  0  0  0  0  0
   24.7773  -19.6306  -16.9466 C   0  0  0  0  0  0  0  0  0  0  0  0
   24.4194  -19.3892  -15.4813 C   0  0  0  0  0  0  0  0  0  0  0  0
   23.8548  -20.6239  -14.8487 C   0  0  0  0  0  0  0  0  0  0  0  0
   23.5509  -20.4089  -13.3601 C   0  0  2  0  0  0  0  0  0  0  0  0
   24.6008  -20.8974  -12.5259 N   0  0  0  0  0  0  0  0  0  0  0  0
   22.2552  -21.0212  -13.0285 C   0  0  0  0  0  0  0  0  0  0  0  0
   22.1251  -22.2622  -12.8262 O   0  0  0  0  0  0  0  0  0  0  0  0
   28.5935  -19.7366  -17.5320 C   0  0  0  0  0  0  0  0  0  0  0  0
   19.5031  -19.2574  -10.6929 C   0  0  2  0  0  0  0  0  0  0  0  0
   18.8684  -19.7499  -11.9686 C   0  0  0  0  0  0  0  0  0  0  0  0
   18.6111  -18.5467  -12.8462 C   0  0  2  0  0  0  0  0  0  0  0  0
   19.7662  -20.7740  -12.6344 N   0  0  0  0  0  0  0  0  0  0  0  0
   21.0714  -20.2288  -12.9185 C   0  0  0  0  0  0  0  0  0  0  0  0
   19.1843  -21.3057  -13.8738 O   0  0  0  0  0  0  0  0  0  0  0  0
   19.7495  -20.9769  -15.0877 O   0  0  0  0  0  0  0  0  0  0  0  0
  2  3  1  1
  2  1  1  0
  4  2  1  0
  4  5  1  0
  5  7  1  0
  5  6  1  6
  7  8  2  0
 10 12  1  0
 10  9  1  0
 11 10  2  0
 13 14  1  0
 13 12  1  0
 14 15  1  0
 16 15  1  6
 17 16  1  0
 17  7  1  0
 18 19  2  0
 18 16  1  0
 21 20  1  1
 21 23  1  0
 22 21  1  0
 23 25  1  0
 23 24  1  6
 24 18  1  0
 25 26  1  0
 27 25  2  0
M  END
$$$$
