LRV.pdb
     RDKit          3D

 27 26  0  0  1  0  0  0  0  0999 V2000
   16.1964  -29.6059   -4.3798 C   0  0  0  0  0  0  0  0  0  0  0  0
   16.3870  -28.2276   -5.0040 C   0  0  1  0  0  0  0  0  0  0  0  0
   15.2869  -27.9749   -6.0212 C   0  0  0  0  0  0  0  0  0  0  0  0
   16.3151  -27.2388   -3.8606 C   0  0  0  0  0  0  0  0  0  0  0  0
   16.4130  -25.8080   -4.4071 C   0  0  2  0  0  0  0  0  0  0  0  0
   17.7253  -25.5166   -4.8854 N   0  0  0  0  0  0  0  0  0  0  0  0
   16.1611  -24.9465   -3.1826 C   0  0  0  0  0  0  0  0  0  0  0  0
   17.1297  -24.7858   -2.4202 O   0  0  0  0  0  0  0  0  0  0  0  0
    9.7691  -18.7885   -1.8421 N   0  0  0  0  0  0  0  0  0  0  0  0
   10.7461  -18.5941   -0.8347 C   0  0  0  0  0  0  0  0  0  0  0  0
   10.7136  -17.6169    0.0031 N   0  0  0  0  0  0  0  0  0  0  0  0
   11.8297  -19.5166   -0.7256 N   0  0  0  0  0  0  0  0  0  0  0  0
   12.0893  -20.4920   -1.7415 C   0  0  0  0  0  0  0  0  0  0  0  0
   13.2332  -21.4173   -1.3304 C   0  0  0  0  0  0  0  0  0  0  0  0
   13.5039  -22.4483   -2.3826 C   0  0  0  0  0  0  0  0  0  0  0  0
   14.6192  -23.4122   -1.9569 C   0  0  2  0  0  0  0  0  0  0  0  0
   14.8957  -24.3852   -2.9637 N   0  0  0  0  0  0  0  0  0  0  0  0
   14.2674  -24.0356   -0.6718 C   0  0  0  0  0  0  0  0  0  0  0  0
   13.4127  -24.9624   -0.5807 O   0  0  0  0  0  0  0  0  0  0  0  0
   11.4941  -17.5715    0.6952 C   0  0  0  0  0  0  0  0  0  0  0  0
   16.2359  -26.0425    1.4701 C   0  0  2  0  0  0  0  0  0  0  0  0
   15.8260  -24.9200    2.3892 C   0  0  0  0  0  0  0  0  0  0  0  0
   17.0142  -23.9992    2.5455 C   0  0  2  0  0  0  0  0  0  0  0  0
   14.6089  -24.2091    1.8311 N   0  0  0  0  0  0  0  0  0  0  0  0
   14.8856  -23.6152    0.5457 C   0  0  0  0  0  0  0  0  0  0  0  0
   14.0992  -23.1753    2.7415 O   0  0  0  0  0  0  0  0  0  0  0  0
   13.4486  -23.5473    3.8988 O   0  0  0  0  0  0  0  0  0  0  0  0
  2  3  1  6
  2  1  1  0
  4  2  1  0
  4  5  1  0
  5  7  1  0
  5  6  1  1
  7  8  2  0
 10 12  1  0
 10  9  1  0
 11 10  2  0
 13 14  1  0
 13 12  1  0
 14 15  1  0
 16 15  1  6
 17 16  1  0
 17  7  1  0
 18 19  2  0
 18 16  1  0
 21 20  1  1
 21 23  1  0
 22 21  1  0
 23 25  1  0
 23 24  1  1
 24 18  1  0
 25 26  1  0
 27 25  2  0
M  END
$$$$
