LRV.pdb
     RDKit          3D

 27 26  0  0  1  0  0  0  0  0999 V2000
   28.8807  -18.6903  -15.2413 C   0  0  0  0  0  0  0  0  0  0  0  0
   27.8605  -19.7776  -14.9212 C   0  0  1  0  0  0  0  0  0  0  0  0
   28.5826  -21.0869  -14.6506 C   0  0  0  0  0  0  0  0  0  0  0  0
   27.1128  -19.2996  -13.6954 C   0  0  0  0  0  0  0  0  0  0  0  0
   26.1198  -20.3784  -13.2417 C   0  0  2  0  0  0  0  0  0  0  0  0
   24.9504  -20.3936  -14.0591 N   0  0  0  0  0  0  0  0  0  0  0  0
   25.7123  -19.9188  -11.8533 C   0  0  0  0  0  0  0  0  0  0  0  0
   25.3488  -18.7340  -11.7557 O   0  0  0  0  0  0  0  0  0  0  0  0
   20.1315  -22.8509   -9.3296 N   0  0  0  0  0  0  0  0  0  0  0  0
   20.0403  -21.4470   -9.1634 C   0  0  0  0  0  0  0  0  0  0  0  0
   19.2087  -20.7101   -9.8140 N   0  0  0  0  0  0  0  0  0  0  0  0
   20.9049  -20.7965   -8.2325 N   0  0  0  0  0  0  0  0  0  0  0  0
   22.0006  -21.4851   -7.6192 C   0  0  0  0  0  0  0  0  0  0  0  0
   23.3201  -20.7666   -7.8952 C   0  0  0  0  0  0  0  0  0  0  0  0
   23.8831  -21.1557   -9.2275 C   0  0  0  0  0  0  0  0  0  0  0  0
   25.2548  -20.5131   -9.4718 C   0  0  2  0  0  0  0  0  0  0  0  0
   25.7586  -20.8110  -10.7735 N   0  0  0  0  0  0  0  0  0  0  0  0
   26.1883  -20.9272   -8.4131 C   0  0  0  0  0  0  0  0  0  0  0  0
   26.6402  -22.1050   -8.3319 O   0  0  0  0  0  0  0  0  0  0  0  0
   19.2517  -19.6838   -9.6270 C   0  0  0  0  0  0  0  0  0  0  0  0
   29.4813  -19.1821   -7.3353 C   0  0  2  0  0  0  0  0  0  0  0  0
   28.5806  -19.2767   -6.1301 C   0  0  0  0  0  0  0  0  0  0  0  0
   27.9725  -17.9117   -5.9047 C   0  0  2  0  0  0  0  0  0  0  0  0
   27.5334  -20.3512   -6.3467 N   0  0  0  0  0  0  0  0  0  0  0  0
   26.6313  -20.0033   -7.4174 C   0  0  0  0  0  0  0  0  0  0  0  0
   26.7569  -20.6278   -5.1311 O   0  0  0  0  0  0  0  0  0  0  0  0
   27.4025  -21.0711   -3.9962 O   0  0  0  0  0  0  0  0  0  0  0  0
  2  3  1  1
  2  1  1  0
  4  2  1  0
  4  5  1  0
  5  7  1  0
  5  6  1  6
  7  8  2  0
 10 12  1  0
 10  9  1  0
 11 10  2  0
 13 14  1  0
 13 12  1  0
 14 15  1  0
 16 15  1  1
 17 16  1  0
 17  7  1  0
 18 19  2  0
 18 16  1  0
 21 20  1  1
 21 23  1  0
 22 21  1  0
 23 25  1  0
 23 24  1  1
 24 18  1  0
 25 26  1  0
 27 25  2  0
M  END
$$$$
