LRV.pdb
     RDKit          3D

 27 26  0  0  1  0  0  0  0  0999 V2000
   28.2987  -18.4642   -5.1605 C   0  0  0  0  0  0  0  0  0  0  0  0
   28.2840  -19.7561   -5.9705 C   0  0  1  0  0  0  0  0  0  0  0  0
   27.6704  -20.8696   -5.1384 C   0  0  0  0  0  0  0  0  0  0  0  0
   27.4512  -19.4673   -7.2006 C   0  0  0  0  0  0  0  0  0  0  0  0
   27.3255  -20.7390   -8.0506 C   0  0  2  0  0  0  0  0  0  0  0  0
   28.5814  -21.1262   -8.6061 N   0  0  0  0  0  0  0  0  0  0  0  0
   26.4227  -20.3096   -9.1933 C   0  0  0  0  0  0  0  0  0  0  0  0
   26.7062  -19.2275   -9.7353 O   0  0  0  0  0  0  0  0  0  0  0  0
   22.4933  -24.2096  -14.8176 N   0  0  0  0  0  0  0  0  0  0  0  0
   23.1622  -23.3952  -15.7644 C   0  0  0  0  0  0  0  0  0  0  0  0
   22.6803  -23.1190  -16.9260 N   0  0  0  0  0  0  0  0  0  0  0  0
   24.4361  -22.8428  -15.4339 N   0  0  0  0  0  0  0  0  0  0  0  0
   25.0184  -23.0232  -14.1380 C   0  0  0  0  0  0  0  0  0  0  0  0
   24.4827  -21.9885  -13.1500 C   0  0  0  0  0  0  0  0  0  0  0  0
   25.1435  -22.1206  -11.8124 C   0  0  0  0  0  0  0  0  0  0  0  0
   24.6905  -21.0182  -10.8460 C   0  0  2  0  0  0  0  0  0  0  0  0
   25.3445  -21.1165   -9.5812 N   0  0  0  0  0  0  0  0  0  0  0  0
   23.2261  -21.0521  -10.7117 C   0  0  0  0  0  0  0  0  0  0  0  0
   22.6386  -21.8216   -9.8989 O   0  0  0  0  0  0  0  0  0  0  0  0
   23.3058  -22.5935  -17.5761 C   0  0  0  0  0  0  0  0  0  0  0  0
   21.5263  -17.8925  -12.1954 C   0  0  2  0  0  0  0  0  0  0  0  0
   20.3997  -18.8218  -11.8212 C   0  0  0  0  0  0  0  0  0  0  0  0
   19.4769  -18.9259  -13.0135 C   0  0  2  0  0  0  0  0  0  0  0  0
   20.9547  -20.1670  -11.3963 N   0  0  0  0  0  0  0  0  0  0  0  0
   22.3929  -20.2046  -11.5047 C   0  0  0  0  0  0  0  0  0  0  0  0
   20.3825  -21.2771  -12.1694 O   0  0  0  0  0  0  0  0  0  0  0  0
   19.1636  -21.8064  -11.8016 O   0  0  0  0  0  0  0  0  0  0  0  0
  2  3  1  1
  2  1  1  0
  4  2  1  0
  4  5  1  0
  5  7  1  0
  5  6  1  6
  7  8  2  0
 10 12  1  0
 10  9  1  0
 11 10  2  0
 13 14  1  0
 13 12  1  0
 14 15  1  0
 16 15  1  6
 17 16  1  0
 17  7  1  0
 18 19  2  0
 18 16  1  0
 21 20  1  1
 21 23  1  0
 22 21  1  0
 23 25  1  0
 23 24  1  1
 24 18  1  0
 25 26  1  0
 27 25  2  0
M  END
$$$$
