LRV.pdb
     RDKit          3D

 27 26  0  0  1  0  0  0  0  0999 V2000
   26.2954  -21.4526  -11.0775 C   0  0  0  0  0  0  0  0  0  0  0  0
   25.6672  -21.2205  -12.4475 C   0  0  1  0  0  0  0  0  0  0  0  0
   26.2350  -22.2193  -13.4418 C   0  0  0  0  0  0  0  0  0  0  0  0
   24.1782  -21.4167  -12.2618 C   0  0  0  0  0  0  0  0  0  0  0  0
   23.4599  -21.2279  -13.6049 C   0  0  2  0  0  0  0  0  0  0  0  0
   23.5695  -19.8853  -14.0755 N   0  0  0  0  0  0  0  0  0  0  0  0
   22.0032  -21.4847  -13.2632 C   0  0  0  0  0  0  0  0  0  0  0  0
   21.4397  -20.6093  -12.5839 O   0  0  0  0  0  0  0  0  0  0  0  0
   15.4173  -25.9923  -14.3323 N   0  0  0  0  0  0  0  0  0  0  0  0
   14.8453  -24.8434  -14.9322 C   0  0  0  0  0  0  0  0  0  0  0  0
   13.5870  -24.5740  -14.8872 N   0  0  0  0  0  0  0  0  0  0  0  0
   15.6889  -23.9250  -15.6265 N   0  0  0  0  0  0  0  0  0  0  0  0
   17.1012  -24.1371  -15.7326 C   0  0  0  0  0  0  0  0  0  0  0  0
   17.8186  -23.6813  -14.4633 C   0  0  0  0  0  0  0  0  0  0  0  0
   19.2572  -23.3650  -14.7353 C   0  0  0  0  0  0  0  0  0  0  0  0
   20.0003  -22.9633  -13.4543 C   0  0  2  0  0  0  0  0  0  0  0  0
   21.3702  -22.6534  -13.7079 N   0  0  0  0  0  0  0  0  0  0  0  0
   19.8543  -24.0249  -12.4467 C   0  0  0  0  0  0  0  0  0  0  0  0
   20.4837  -25.1187  -12.5198 O   0  0  0  0  0  0  0  0  0  0  0  0
   13.2842  -23.6881  -15.3494 C   0  0  0  0  0  0  0  0  0  0  0  0
   19.4831  -23.0763   -8.5903 C   0  0  2  0  0  0  0  0  0  0  0  0
   18.4820  -24.1453   -8.9479 C   0  0  0  0  0  0  0  0  0  0  0  0
   17.1218  -23.4911   -9.0260 C   0  0  2  0  0  0  0  0  0  0  0  0
   18.8799  -24.8164  -10.2477 N   0  0  0  0  0  0  0  0  0  0  0  0
   18.9831  -23.8632  -11.3259 C   0  0  0  0  0  0  0  0  0  0  0  0
   17.9477  -25.8837  -10.6338 O   0  0  0  0  0  0  0  0  0  0  0  0
   18.0347  -27.1176  -10.0246 O   0  0  0  0  0  0  0  0  0  0  0  0
  2  3  1  6
  2  1  1  0
  4  2  1  0
  4  5  1  0
  5  7  1  0
  5  6  1  1
  7  8  2  0
 10 12  1  0
 10  9  1  0
 11 10  2  0
 13 14  1  0
 13 12  1  0
 14 15  1  0
 16 15  1  6
 17 16  1  0
 17  7  1  0
 18 19  2  0
 18 16  1  0
 21 20  1  1
 21 23  1  0
 22 21  1  0
 23 25  1  0
 23 24  1  1
 24 18  1  0
 25 26  1  0
 27 25  2  0
M  END
$$$$
