LRV.pdb
     RDKit          3D

 27 26  0  0  1  0  0  0  0  0999 V2000
   25.5948  -11.6772  -18.2066 C   0  0  0  0  0  0  0  0  0  0  0  0
   26.6933  -12.7183  -18.0192 C   0  0  1  0  0  0  0  0  0  0  0  0
   27.5732  -12.3218  -16.8456 C   0  0  0  0  0  0  0  0  0  0  0  0
   25.9844  -14.0291  -17.7555 C   0  0  0  0  0  0  0  0  0  0  0  0
   27.0158  -15.1200  -17.4366 C   0  0  2  0  0  0  0  0  0  0  0  0
   27.8412  -15.4088  -18.5641 N   0  0  0  0  0  0  0  0  0  0  0  0
   26.1593  -16.3428  -17.1604 C   0  0  0  0  0  0  0  0  0  0  0  0
   25.6629  -16.8972  -18.1561 O   0  0  0  0  0  0  0  0  0  0  0  0
   24.4516  -23.2984  -13.9521 N   0  0  0  0  0  0  0  0  0  0  0  0
   25.7390  -23.0152  -14.4710 C   0  0  0  0  0  0  0  0  0  0  0  0
   26.2820  -23.6901  -15.4236 N   0  0  0  0  0  0  0  0  0  0  0  0
   26.4892  -21.9311  -13.9241 N   0  0  0  0  0  0  0  0  0  0  0  0
   25.8694  -20.9193  -13.1222 C   0  0  0  0  0  0  0  0  0  0  0  0
   25.0732  -19.9464  -13.9901 C   0  0  0  0  0  0  0  0  0  0  0  0
   25.9215  -18.7949  -14.4349 C   0  0  0  0  0  0  0  0  0  0  0  0
   25.2113  -17.9460  -15.4976 C   0  0  2  0  0  0  0  0  0  0  0  0
   25.9664  -16.7858  -15.8448 N   0  0  0  0  0  0  0  0  0  0  0  0
   23.8593  -17.6026  -15.0308 C   0  0  0  0  0  0  0  0  0  0  0  0
   23.6578  -16.8734  -14.0181 O   0  0  0  0  0  0  0  0  0  0  0  0
   27.2202  -23.3658  -15.7473 C   0  0  0  0  0  0  0  0  0  0  0  0
   21.2363  -15.9322  -17.0506 C   0  0  2  0  0  0  0  0  0  0  0  0
   20.5775  -17.1856  -16.5331 C   0  0  0  0  0  0  0  0  0  0  0  0
   20.5058  -18.1709  -17.6767 C   0  0  2  0  0  0  0  0  0  0  0  0
   21.3501  -17.7271  -15.3465 N   0  0  0  0  0  0  0  0  0  0  0  0
   22.6993  -18.0845  -15.7117 C   0  0  0  0  0  0  0  0  0  0  0  0
   20.6916  -18.8882  -14.7337 O   0  0  0  0  0  0  0  0  0  0  0  0
   19.4958  -18.7205  -14.0680 O   0  0  0  0  0  0  0  0  0  0  0  0
  2  3  1  1
  2  1  1  0
  4  2  1  0
  4  5  1  0
  5  7  1  0
  5  6  1  6
  7  8  2  0
 10 12  1  0
 10  9  1  0
 11 10  2  0
 13 14  1  0
 13 12  1  0
 14 15  1  0
 16 15  1  1
 17 16  1  0
 17  7  1  0
 18 19  2  0
 18 16  1  0
 21 20  1  6
 21 23  1  0
 22 21  1  0
 23 25  1  0
 23 24  1  1
 24 18  1  0
 25 26  1  0
 27 25  2  0
M  END
$$$$
