LRV.pdb
     RDKit          3D

 27 26  0  0  1  0  0  0  0  0999 V2000
   28.5947  -20.0359   -6.2495 C   0  0  0  0  0  0  0  0  0  0  0  0
   27.1426  -19.7714   -6.6328 C   0  0  1  0  0  0  0  0  0  0  0  0
   26.9084  -18.2732   -6.7301 C   0  0  0  0  0  0  0  0  0  0  0  0
   26.9350  -20.4474   -7.9708 C   0  0  0  0  0  0  0  0  0  0  0  0
   25.4583  -20.3484   -8.3769 C   0  0  2  0  0  0  0  0  0  0  0  0
   24.6182  -21.0830   -7.4879 N   0  0  0  0  0  0  0  0  0  0  0  0
   25.4195  -21.0358   -9.7300 C   0  0  0  0  0  0  0  0  0  0  0  0
   25.9792  -22.1438   -9.7951 O   0  0  0  0  0  0  0  0  0  0  0  0
   19.7223  -21.9796  -11.4379 N   0  0  0  0  0  0  0  0  0  0  0  0
   19.6663  -20.6122  -11.0719 C   0  0  0  0  0  0  0  0  0  0  0  0
   19.1950  -20.1996   -9.9470 N   0  0  0  0  0  0  0  0  0  0  0  0
   20.1516  -19.6254  -11.9818 N   0  0  0  0  0  0  0  0  0  0  0  0
   21.0903  -19.9529  -13.0126 C   0  0  0  0  0  0  0  0  0  0  0  0
   22.5255  -19.8179  -12.5071 C   0  0  0  0  0  0  0  0  0  0  0  0
   23.2659  -21.1150  -12.6189 C   0  0  0  0  0  0  0  0  0  0  0  0
   24.7125  -20.9855  -12.1241 C   0  0  2  0  0  0  0  0  0  0  0  0
   24.7794  -20.4214  -10.8148 N   0  0  0  0  0  0  0  0  0  0  0  0
   25.4984  -20.2111  -13.0970 C   0  0  0  0  0  0  0  0  0  0  0  0
   25.7320  -18.9776  -12.9497 O   0  0  0  0  0  0  0  0  0  0  0  0
   19.1545  -19.1652   -9.8109 C   0  0  0  0  0  0  0  0  0  0  0  0
   28.7847  -20.3363  -16.7952 C   0  0  2  0  0  0  0  0  0  0  0  0
   27.9398  -21.0736  -15.7877 C   0  0  0  0  0  0  0  0  0  0  0  0
   28.8666  -21.6257  -14.7293 C   0  0  1  0  0  0  0  0  0  0  0  0
   26.8879  -20.1456  -15.2127 N   0  0  0  0  0  0  0  0  0  0  0  0
   26.0396  -20.8284  -14.2663 C   0  0  0  0  0  0  0  0  0  0  0  0
   26.0539  -19.5324  -16.2547 O   0  0  0  0  0  0  0  0  0  0  0  0
   26.5450  -18.4692  -16.9825 O   0  0  0  0  0  0  0  0  0  0  0  0
  2  3  1  6
  2  1  1  0
  4  2  1  0
  4  5  1  0
  5  7  1  0
  5  6  1  1
  7  8  2  0
 10 12  1  0
 10  9  1  0
 11 10  2  0
 13 14  1  0
 13 12  1  0
 14 15  1  0
 16 15  1  6
 17 16  1  0
 17  7  1  0
 18 19  2  0
 18 16  1  0
 21 20  1  6
 21 23  1  0
 22 21  1  0
 23 25  1  0
 23 24  1  6
 24 18  1  0
 25 26  1  0
 27 25  2  0
M  END
$$$$
