LRV.pdb
     RDKit          3D

 27 26  0  0  1  0  0  0  0  0999 V2000
   38.0228  -10.3410  -17.4885 C   0  0  0  0  0  0  0  0  0  0  0  0
   37.1844  -11.6108  -17.5903 C   0  0  1  0  0  0  0  0  0  0  0  0
   36.9221  -12.1584  -16.1975 C   0  0  0  0  0  0  0  0  0  0  0  0
   35.8958  -11.2057  -18.2726 C   0  0  0  0  0  0  0  0  0  0  0  0
   34.9622  -12.4193  -18.3774 C   0  0  2  0  0  0  0  0  0  0  0  0
   35.5149  -13.4373  -19.2106 N   0  0  0  0  0  0  0  0  0  0  0  0
   33.7360  -11.8597  -19.0761 C   0  0  0  0  0  0  0  0  0  0  0  0
   33.9182  -11.4097  -20.2205 O   0  0  0  0  0  0  0  0  0  0  0  0
   25.2220  -12.3757  -18.1917 N   0  0  0  0  0  0  0  0  0  0  0  0
   25.4043  -12.2757  -19.5931 C   0  0  0  0  0  0  0  0  0  0  0  0
   24.5078  -11.8108  -20.3918 N   0  0  0  0  0  0  0  0  0  0  0  0
   26.6370  -12.7066  -20.1692 N   0  0  0  0  0  0  0  0  0  0  0  0
   27.7698  -13.0357  -19.3572 C   0  0  0  0  0  0  0  0  0  0  0  0
   28.8870  -12.0094  -19.5369 C   0  0  0  0  0  0  0  0  0  0  0  0
   30.1347  -12.4332  -18.8250 C   0  0  0  0  0  0  0  0  0  0  0  0
   31.2766  -11.4309  -19.0389 C   0  0  2  0  0  0  0  0  0  0  0  0
   32.4915  -11.8696  -18.4318 N   0  0  0  0  0  0  0  0  0  0  0  0
   30.8661  -10.1051  -18.5515 C   0  0  0  0  0  0  0  0  0  0  0  0
   30.7570   -9.8407  -17.3202 O   0  0  0  0  0  0  0  0  0  0  0  0
   24.7751  -11.7365  -21.3983 C   0  0  0  0  0  0  0  0  0  0  0  0
   32.2844   -6.7152  -19.7649 C   0  0  2  0  0  0  0  0  0  0  0  0
   30.7835   -6.6448  -19.8881 C   0  0  0  0  0  0  0  0  0  0  0  0
   30.4382   -6.7672  -21.3543 C   0  0  2  0  0  0  0  0  0  0  0  0
   30.1413   -7.7302  -19.0468 N   0  0  0  0  0  0  0  0  0  0  0  0
   30.5693   -9.0442  -19.4612 C   0  0  0  0  0  0  0  0  0  0  0  0
   28.6742   -7.6673  -19.0787 O   0  0  0  0  0  0  0  0  0  0  0  0
   28.0196   -6.6716  -18.3851 O   0  0  0  0  0  0  0  0  0  0  0  0
  2  3  1  1
  2  1  1  0
  4  2  1  0
  4  5  1  0
  5  7  1  0
  5  6  1  6
  7  8  2  0
 10 12  1  0
 10  9  1  0
 11 10  2  0
 13 14  1  0
 13 12  1  0
 14 15  1  0
 16 15  1  1
 17 16  1  0
 17  7  1  0
 18 19  2  0
 18 16  1  0
 21 20  1  6
 21 23  1  0
 22 21  1  0
 23 25  1  0
 23 24  1  1
 24 18  1  0
 25 26  1  0
 27 25  2  0
M  END
$$$$
