LRV.pdb
     RDKit          3D

 27 26  0  0  1  0  0  0  0  0999 V2000
   14.4884  -23.4821   -5.2268 C   0  0  0  0  0  0  0  0  0  0  0  0
   15.4490  -24.6488   -5.4309 C   0  0  1  0  0  0  0  0  0  0  0  0
   14.7636  -25.7340   -6.2440 C   0  0  0  0  0  0  0  0  0  0  0  0
   16.6427  -24.0816   -6.1682 C   0  0  0  0  0  0  0  0  0  0  0  0
   17.6230  -25.2114   -6.5121 C   0  0  2  0  0  0  0  0  0  0  0  0
   18.4788  -25.5176   -5.4123 N   0  0  0  0  0  0  0  0  0  0  0  0
   18.4771  -24.6114   -7.6146 C   0  0  0  0  0  0  0  0  0  0  0  0
   19.4195  -23.8907   -7.2435 O   0  0  0  0  0  0  0  0  0  0  0  0
   22.2196  -26.1969  -14.4791 N   0  0  0  0  0  0  0  0  0  0  0  0
   21.5029  -27.2355  -13.8352 C   0  0  0  0  0  0  0  0  0  0  0  0
   22.0221  -28.3764  -13.5408 N   0  0  0  0  0  0  0  0  0  0  0  0
   20.1346  -27.0274  -13.4866 N   0  0  0  0  0  0  0  0  0  0  0  0
   19.5046  -25.7518  -13.6504 C   0  0  0  0  0  0  0  0  0  0  0  0
   19.7060  -24.8804  -12.4119 C   0  0  0  0  0  0  0  0  0  0  0  0
   18.8704  -25.3621  -11.2660 C   0  0  0  0  0  0  0  0  0  0  0  0
   18.9810  -24.4287  -10.0532 C   0  0  2  0  0  0  0  0  0  0  0  0
   18.1846  -24.8807   -8.9585 N   0  0  0  0  0  0  0  0  0  0  0  0
   18.6354  -23.0564  -10.4547 C   0  0  0  0  0  0  0  0  0  0  0  0
   17.4390  -22.6575  -10.5408 O   0  0  0  0  0  0  0  0  0  0  0  0
   21.3968  -29.0627  -13.0632 C   0  0  0  0  0  0  0  0  0  0  0  0
   21.2356  -20.0827   -9.4823 C   0  0  2  0  0  0  0  0  0  0  0  0
   20.6418  -19.8664  -10.8510 C   0  0  0  0  0  0  0  0  0  0  0  0
   21.7036  -20.2095  -11.8702 C   0  0  2  0  0  0  0  0  0  0  0  0
   19.3887  -20.7042  -11.0123 N   0  0  0  0  0  0  0  0  0  0  0  0
   19.6510  -22.1018  -10.7685 C   0  0  0  0  0  0  0  0  0  0  0  0
   18.7813  -20.5511  -12.3408 O   0  0  0  0  0  0  0  0  0  0  0  0
   18.0187  -19.4360  -12.6169 O   0  0  0  0  0  0  0  0  0  0  0  0
  2  3  1  6
  2  1  1  0
  4  2  1  0
  4  5  1  0
  5  7  1  0
  5  6  1  1
  7  8  2  0
 10 12  1  0
 10  9  1  0
 11 10  2  0
 13 14  1  0
 13 12  1  0
 14 15  1  0
 16 15  1  6
 17 16  1  0
 17  7  1  0
 18 19  2  0
 18 16  1  0
 21 20  1  1
 21 23  1  0
 22 21  1  0
 23 25  1  0
 23 24  1  6
 24 18  1  0
 25 26  1  0
 27 25  2  0
M  END
$$$$
