LRV.pdb
     RDKit          3D

 27 26  0  0  1  0  0  0  0  0999 V2000
   19.3183  -20.4524   -9.6460 C   0  0  0  0  0  0  0  0  0  0  0  0
   20.6253  -20.7601   -8.9231 C   0  0  1  0  0  0  0  0  0  0  0  0
   20.9584  -22.2340   -9.0827 C   0  0  0  0  0  0  0  0  0  0  0  0
   21.6765  -19.8864   -9.5726 C   0  0  0  0  0  0  0  0  0  0  0  0
   22.9871  -20.6723   -9.7142 C   0  0  2  0  0  0  0  0  0  0  0  0
   23.9807  -20.2063   -8.8024 N   0  0  0  0  0  0  0  0  0  0  0  0
   23.4492  -20.3337  -11.1202 C   0  0  0  0  0  0  0  0  0  0  0  0
   23.7481  -19.1446  -11.3246 O   0  0  0  0  0  0  0  0  0  0  0  0
   25.4655  -24.5968  -18.1301 N   0  0  0  0  0  0  0  0  0  0  0  0
   26.3609  -23.5116  -18.2961 C   0  0  0  0  0  0  0  0  0  0  0  0
   26.8405  -23.1583  -19.4376 N   0  0  0  0  0  0  0  0  0  0  0  0
   26.7645  -22.7584  -17.1529 N   0  0  0  0  0  0  0  0  0  0  0  0
   26.2648  -23.0558  -15.8442 C   0  0  0  0  0  0  0  0  0  0  0  0
   25.3465  -21.9421  -15.3443 C   0  0  0  0  0  0  0  0  0  0  0  0
   24.8690  -22.2149  -13.9511 C   0  0  0  0  0  0  0  0  0  0  0  0
   23.9392  -21.1048  -13.4439 C   0  0  2  0  0  0  0  0  0  0  0  0
   23.5195  -21.3342  -12.0992 N   0  0  0  0  0  0  0  0  0  0  0  0
   22.7968  -20.9625  -14.3596 C   0  0  0  0  0  0  0  0  0  0  0  0
   21.8464  -21.7955  -14.3906 O   0  0  0  0  0  0  0  0  0  0  0  0
   27.5343  -22.3781  -19.4293 C   0  0  0  0  0  0  0  0  0  0  0  0
   20.8410  -17.5743  -14.9864 C   0  0  2  0  0  0  0  0  0  0  0  0
   21.2972  -18.1537  -16.3013 C   0  0  0  0  0  0  0  0  0  0  0  0
   22.5074  -17.3688  -16.7522 C   0  0  2  0  0  0  0  0  0  0  0  0
   21.5890  -19.6330  -16.1443 N   0  0  0  0  0  0  0  0  0  0  0  0
   22.7104  -19.8612  -15.2657 C   0  0  0  0  0  0  0  0  0  0  0  0
   21.8420  -20.2925  -17.4320 O   0  0  0  0  0  0  0  0  0  0  0  0
   23.1007  -20.7808  -17.7118 O   0  0  0  0  0  0  0  0  0  0  0  0
  2  3  1  6
  2  1  1  0
  4  2  1  0
  4  5  1  0
  5  7  1  0
  5  6  1  1
  7  8  2  0
 10 12  1  0
 10  9  1  0
 11 10  2  0
 13 14  1  0
 13 12  1  0
 14 15  1  0
 16 15  1  6
 17 16  1  0
 17  7  1  0
 18 19  2  0
 18 16  1  0
 21 20  1  6
 21 23  1  0
 22 21  1  0
 23 25  1  0
 23 24  1  6
 24 18  1  0
 25 26  1  0
 27 25  2  0
M  END
$$$$
