LRV.pdb
     RDKit          3D

 27 26  0  0  1  0  0  0  0  0999 V2000
   30.1503  -20.7825  -10.0864 C   0  0  0  0  0  0  0  0  0  0  0  0
   28.7312  -21.2969   -9.8692 C   0  0  1  0  0  0  0  0  0  0  0  0
   28.2747  -20.9477   -8.4626 C   0  0  0  0  0  0  0  0  0  0  0  0
   27.8750  -20.6098  -10.9107 C   0  0  0  0  0  0  0  0  0  0  0  0
   26.4167  -21.0652  -10.7640 C   0  0  2  0  0  0  0  0  0  0  0  0
   26.2804  -22.4693  -10.9784 N   0  0  0  0  0  0  0  0  0  0  0  0
   25.7093  -20.3492  -11.9006 C   0  0  0  0  0  0  0  0  0  0  0  0
   25.6554  -19.1103  -11.8152 O   0  0  0  0  0  0  0  0  0  0  0  0
   28.5977  -23.1922  -16.6156 N   0  0  0  0  0  0  0  0  0  0  0  0
   27.2637  -23.5597  -16.9196 C   0  0  0  0  0  0  0  0  0  0  0  0
   26.8464  -24.7777  -16.9129 N   0  0  0  0  0  0  0  0  0  0  0  0
   26.3184  -22.5436  -17.2529 N   0  0  0  0  0  0  0  0  0  0  0  0
   26.6477  -21.1530  -17.1594 C   0  0  0  0  0  0  0  0  0  0  0  0
   26.2315  -20.5833  -15.8044 C   0  0  0  0  0  0  0  0  0  0  0  0
   24.8748  -21.0736  -15.4017 C   0  0  0  0  0  0  0  0  0  0  0  0
   24.4430  -20.4955  -14.0476 C   0  0  2  0  0  0  0  0  0  0  0  0
   25.1637  -21.0814  -12.9639 N   0  0  0  0  0  0  0  0  0  0  0  0
   22.9889  -20.6492  -13.8875 C   0  0  0  0  0  0  0  0  0  0  0  0
   22.4659  -21.7077  -13.4359 O   0  0  0  0  0  0  0  0  0  0  0  0
   25.8586  -24.9325  -17.2136 C   0  0  0  0  0  0  0  0  0  0  0  0
   20.2976  -17.4302  -15.0573 C   0  0  2  0  0  0  0  0  0  0  0  0
   20.1285  -18.2100  -13.7782 C   0  0  0  0  0  0  0  0  0  0  0  0
   18.6582  -18.2035  -13.4289 C   0  0  1  0  0  0  0  0  0  0  0  0
   20.6798  -19.6121  -13.9473 N   0  0  0  0  0  0  0  0  0  0  0  0
   22.0925  -19.5939  -14.2397 C   0  0  0  0  0  0  0  0  0  0  0  0
   19.9789  -20.3655  -14.9954 O   0  0  0  0  0  0  0  0  0  0  0  0
   18.8134  -21.0356  -14.6891 O   0  0  0  0  0  0  0  0  0  0  0  0
  2  3  1  1
  2  1  1  0
  4  2  1  0
  4  5  1  0
  5  7  1  0
  5  6  1  6
  7  8  2  0
 10 12  1  0
 10  9  1  0
 11 10  2  0
 13 14  1  0
 13 12  1  0
 14 15  1  0
 16 15  1  6
 17 16  1  0
 17  7  1  0
 18 19  2  0
 18 16  1  0
 21 20  1  1
 21 23  1  0
 22 21  1  0
 23 25  1  0
 23 24  1  1
 24 18  1  0
 25 26  1  0
 27 25  2  0
M  END
$$$$
