LRV.pdb
     RDKit          3D

 27 26  0  0  1  0  0  0  0  0999 V2000
   33.4326  -25.7096  -14.3045 C   0  0  0  0  0  0  0  0  0  0  0  0
   32.5520  -25.1941  -15.4378 C   0  0  1  0  0  0  0  0  0  0  0  0
   33.4051  -24.9461  -16.6705 C   0  0  0  0  0  0  0  0  0  0  0  0
   31.5231  -26.2747  -15.6906 C   0  0  0  0  0  0  0  0  0  0  0  0
   30.5744  -25.8333  -16.8133 C   0  0  2  0  0  0  0  0  0  0  0  0
   29.6386  -24.8573  -16.3575 N   0  0  0  0  0  0  0  0  0  0  0  0
   29.8045  -27.1002  -17.1407 C   0  0  0  0  0  0  0  0  0  0  0  0
   28.7350  -27.2621  -16.5283 O   0  0  0  0  0  0  0  0  0  0  0  0
   30.5051  -31.6613  -24.5095 N   0  0  0  0  0  0  0  0  0  0  0  0
   29.6361  -30.6056  -24.1392 C   0  0  0  0  0  0  0  0  0  0  0  0
   29.0916  -29.8063  -24.9891 N   0  0  0  0  0  0  0  0  0  0  0  0
   29.3358  -30.4000  -22.7591 N   0  0  0  0  0  0  0  0  0  0  0  0
   29.8022  -31.3006  -21.7479 C   0  0  0  0  0  0  0  0  0  0  0  0
   29.3376  -30.8542  -20.3628 C   0  0  0  0  0  0  0  0  0  0  0  0
   30.0717  -29.6292  -19.9114 C   0  0  0  0  0  0  0  0  0  0  0  0
   29.6063  -29.1698  -18.5233 C   0  0  2  0  0  0  0  0  0  0  0  0
   30.3069  -28.0065  -18.0844 N   0  0  0  0  0  0  0  0  0  0  0  0
   29.7338  -30.2813  -17.5683 C   0  0  0  0  0  0  0  0  0  0  0  0
   30.8412  -30.6078  -17.0536 O   0  0  0  0  0  0  0  0  0  0  0  0
   28.5047  -29.0379  -24.5952 C   0  0  0  0  0  0  0  0  0  0  0  0
   26.1919  -32.4093  -16.3237 C   0  0  2  0  0  0  0  0  0  0  0  0
   27.3840  -32.2431  -15.4160 C   0  0  0  0  0  0  0  0  0  0  0  0
   27.3997  -33.4147  -14.4616 C   0  0  1  0  0  0  0  0  0  0  0  0
   28.6539  -32.1458  -16.2382 N   0  0  0  0  0  0  0  0  0  0  0  0
   28.5955  -31.0502  -17.1751 C   0  0  0  0  0  0  0  0  0  0  0  0
   28.9456  -33.3883  -16.9651 O   0  0  0  0  0  0  0  0  0  0  0  0
   28.8746  -33.4049  -18.3420 O   0  0  0  0  0  0  0  0  0  0  0  0
  2  3  1  6
  2  1  1  0
  4  2  1  0
  4  5  1  0
  5  7  1  0
  5  6  1  1
  7  8  2  0
 10 12  1  0
 10  9  1  0
 11 10  2  0
 13 14  1  0
 13 12  1  0
 14 15  1  0
 16 15  1  6
 17 16  1  0
 17  7  1  0
 18 19  2  0
 18 16  1  0
 21 20  1  1
 21 23  1  0
 22 21  1  0
 23 25  1  0
 23 24  1  1
 24 18  1  0
 25 26  1  0
 27 25  2  0
M  END
$$$$
