LRV.pdb
     RDKit          3D

 27 26  0  0  1  0  0  0  0  0999 V2000
   19.7701  -30.9561  -10.4046 C   0  0  0  0  0  0  0  0  0  0  0  0
   19.5998  -29.5199  -10.8883 C   0  0  1  0  0  0  0  0  0  0  0  0
   18.3592  -29.4220  -11.7601 C   0  0  0  0  0  0  0  0  0  0  0  0
   19.4626  -28.6738   -9.6412 C   0  0  0  0  0  0  0  0  0  0  0  0
   19.4220  -27.1885  -10.0257 C   0  0  2  0  0  0  0  0  0  0  0  0
   20.7007  -26.7209  -10.4526 N   0  0  0  0  0  0  0  0  0  0  0  0
   19.0856  -26.4962   -8.7170 C   0  0  0  0  0  0  0  0  0  0  0  0
   20.0239  -26.3653   -7.9122 O   0  0  0  0  0  0  0  0  0  0  0  0
   12.9293  -24.2699   -4.5769 N   0  0  0  0  0  0  0  0  0  0  0  0
   13.2916  -22.9191   -4.3511 C   0  0  0  0  0  0  0  0  0  0  0  0
   12.9412  -22.2583   -3.3031 N   0  0  0  0  0  0  0  0  0  0  0  0
   14.0852  -22.2375   -5.3221 N   0  0  0  0  0  0  0  0  0  0  0  0
   14.5069  -22.8797   -6.5307 C   0  0  0  0  0  0  0  0  0  0  0  0
   15.7565  -23.7254   -6.2922 C   0  0  0  0  0  0  0  0  0  0  0  0
   16.1732  -24.4436   -7.5388 C   0  0  0  0  0  0  0  0  0  0  0  0
   17.3868  -25.3493   -7.2912 C   0  0  2  0  0  0  0  0  0  0  0  0
   17.7808  -26.0470   -8.4723 N   0  0  0  0  0  0  0  0  0  0  0  0
   17.0967  -26.2689   -6.1805 C   0  0  0  0  0  0  0  0  0  0  0  0
   16.2605  -27.2114   -6.2829 O   0  0  0  0  0  0  0  0  0  0  0  0
   13.3303  -21.2939   -3.2096 C   0  0  0  0  0  0  0  0  0  0  0  0
   18.3595  -27.7228   -1.5704 C   0  0  1  0  0  0  0  0  0  0  0  0
   18.7135  -26.9785   -2.8327 C   0  0  0  0  0  0  0  0  0  0  0  0
   19.9768  -27.5944   -3.3883 C   0  0  1  0  0  0  0  0  0  0  0  0
   17.5582  -27.0376   -3.8125 N   0  0  0  0  0  0  0  0  0  0  0  0
   17.7570  -26.1353   -4.9205 C   0  0  0  0  0  0  0  0  0  0  0  0
   16.2687  -26.7425   -3.1743 O   0  0  0  0  0  0  0  0  0  0  0  0
   15.4475  -27.7798   -2.7859 O   0  0  0  0  0  0  0  0  0  0  0  0
  2  3  1  6
  2  1  1  0
  4  2  1  0
  4  5  1  0
  5  7  1  0
  5  6  1  1
  7  8  2  0
 10 12  1  0
 10  9  1  0
 11 10  2  0
 13 14  1  0
 13 12  1  0
 14 15  1  0
 16 15  1  6
 17 16  1  0
 17  7  1  0
 18 19  2  0
 18 16  1  0
 21 20  1  1
 21 23  1  0
 22 21  1  0
 23 25  1  0
 23 24  1  1
 24 18  1  0
 25 26  1  0
 27 25  2  0
M  END
$$$$
