YWE.pdb
     RDKit          3D

 36 38  0  0  1  0  0  0  0  0999 V2000
   17.2335   -7.5187  -21.7232 O   0  0  0  0  0  0  0  0  0  0  0  0
   18.5970   -7.7690  -21.8463 C   0  0  0  0  0  0  0  0  0  0  0  0
   19.2353   -8.5045  -20.8325 C   0  0  0  0  0  0  0  0  0  0  0  0
   20.5858   -8.7531  -20.9526 C   0  0  0  0  0  0  0  0  0  0  0  0
   21.3360   -8.3019  -22.0404 C   0  0  0  0  0  0  0  0  0  0  0  0
   22.7675   -8.5925  -22.0905 C   0  0  0  0  0  0  0  0  0  0  0  0
   23.5247   -7.5849  -21.2316 C   0  0  2  0  0  0  0  0  0  0  0  0
   24.8826   -7.6092  -21.7134 N   0  0  0  0  0  0  0  0  0  0  0  0
   23.4960   -7.9709  -19.8137 C   0  0  0  0  0  0  0  0  0  0  0  0
   23.6705   -9.1791  -19.4955 O   0  0  0  0  0  0  0  0  0  0  0  0
   20.6841   -7.5848  -23.0167 C   0  0  0  0  0  0  0  0  0  0  0  0
   19.3143   -7.3137  -22.9271 C   0  0  0  0  0  0  0  0  0  0  0  0
   23.2836   -7.0714  -18.7213 N   0  0  0  0  0  0  0  0  0  0  0  0
   23.1646   -7.5327  -17.3615 C   0  0  1  0  0  0  0  0  0  0  0  0
   24.2955   -7.0897  -16.4927 C   0  0  0  0  0  0  0  0  0  0  0  0
   25.5938   -7.7142  -16.7325 C   0  0  0  0  0  0  0  0  0  0  0  0
   26.6834   -7.2901  -17.4576 C   0  0  0  0  0  0  0  0  0  0  0  0
   27.6278   -8.2421  -17.3687 N   0  0  0  0  0  0  0  0  0  0  0  0
   27.1794   -9.2644  -16.6094 C   0  0  0  0  0  0  0  0  0  0  0  0
   27.7453  -10.4740  -16.2097 C   0  0  0  0  0  0  0  0  0  0  0  0
   27.0576  -11.3680  -15.4128 C   0  0  0  0  0  0  0  0  0  0  0  0
   25.7687  -11.0158  -15.0193 C   0  0  0  0  0  0  0  0  0  0  0  0
   25.1931   -9.8382  -15.3965 C   0  0  0  0  0  0  0  0  0  0  0  0
   25.9044   -8.9689  -16.1903 C   0  0  0  0  0  0  0  0  0  0  0  0
   21.8222   -7.2912  -16.7966 C   0  0  0  0  0  0  0  0  0  0  0  0
   21.4185   -6.0848  -16.6687 O   0  0  0  0  0  0  0  0  0  0  0  0
   20.9519   -8.3213  -16.3891 N   0  0  0  0  0  0  0  0  0  0  0  0
   19.6364   -7.9950  -15.8226 C   0  0  1  0  0  0  0  0  0  0  0  0
   18.7200   -9.1652  -15.9157 C   0  0  0  0  0  0  0  0  0  0  0  0
   19.1546  -10.2779  -15.0109 C   0  0  0  0  0  0  0  0  0  0  0  0
   18.1988  -11.4468  -15.1807 C   0  0  0  0  0  0  0  0  0  0  0  0
   17.2291  -11.2774  -15.9519 O   0  0  0  0  0  0  0  0  0  0  0  0
   19.7788   -7.4605  -14.4706 C   0  0  0  0  0  0  0  0  0  0  0  0
   18.8338   -7.0033  -13.8021 O   0  0  0  0  0  0  0  0  0  0  0  0
   18.4364  -12.6192  -14.4911 O   0  0  0  0  0  0  0  0  0  0  0  0
   21.0328   -7.4255  -13.8154 O   0  0  0  0  0  0  0  0  0  0  0  0
  2 12  2  0
  2  1  1  0
  3  2  1  0
  4  5  1  0
  4  3  2  0
  5 11  2  0
  6  7  1  0
  6  5  1  0
  7  8  1  6
  9  7  1  0
  9 13  1  0
 10  9  2  0
 11 12  1  0
 14 13  1  0
 14 15  1  1
 15 16  1  0
 16 17  2  0
 18 17  1  0
 19 18  1  0
 20 19  2  0
 21 20  1  0
 22 21  2  0
 22 23  1  0
 23 24  2  0
 24 19  1  0
 24 16  1  0
 25 14  1  0
 25 26  2  0
 27 25  1  0
 28 27  1  0
 28 33  1  0
 28 29  1  1
 30 29  1  0
 30 31  1  0
 31 32  2  0
 31 35  1  0
 33 34  2  0
 33 36  1  0
M  END
$$$$
