YWE.pdb
     RDKit          3D

 36 38  0  0  1  0  0  0  0  0999 V2000
   22.4479  -17.2378  -18.6179 O   0  0  0  0  0  0  0  0  0  0  0  0
   22.5581  -17.9530  -17.4290 C   0  0  0  0  0  0  0  0  0  0  0  0
   22.7461  -17.2370  -16.2339 C   0  0  0  0  0  0  0  0  0  0  0  0
   22.8556  -17.9437  -15.0555 C   0  0  0  0  0  0  0  0  0  0  0  0
   22.7864  -19.3375  -15.0094 C   0  0  0  0  0  0  0  0  0  0  0  0
   22.9259  -20.0175  -13.7232 C   0  0  0  0  0  0  0  0  0  0  0  0
   24.3978  -20.0643  -13.3260 C   0  0  2  0  0  0  0  0  0  0  0  0
   25.0136  -20.9994  -14.2332 N   0  0  0  0  0  0  0  0  0  0  0  0
   24.5581  -20.5375  -11.9437 C   0  0  0  0  0  0  0  0  0  0  0  0
   24.3456  -21.7516  -11.6746 O   0  0  0  0  0  0  0  0  0  0  0  0
   22.6020  -20.0108  -16.1948 C   0  0  0  0  0  0  0  0  0  0  0  0
   22.4870  -19.3258  -17.4095 C   0  0  0  0  0  0  0  0  0  0  0  0
   24.9493  -19.7209  -10.8357 N   0  0  0  0  0  0  0  0  0  0  0  0
   24.9723  -20.2225   -9.4852 C   0  0  1  0  0  0  0  0  0  0  0  0
   25.8734  -19.4412   -8.5866 C   0  0  0  0  0  0  0  0  0  0  0  0
   26.9463  -20.1799   -7.9260 C   0  0  0  0  0  0  0  0  0  0  0  0
   27.4816  -21.4215   -8.1801 C   0  0  0  0  0  0  0  0  0  0  0  0
   28.4480  -21.6422   -7.2727 N   0  0  0  0  0  0  0  0  0  0  0  0
   28.5506  -20.5817   -6.4437 C   0  0  0  0  0  0  0  0  0  0  0  0
   29.3726  -20.3005   -5.3536 C   0  0  0  0  0  0  0  0  0  0  0  0
   29.2726  -19.1117   -4.6577 C   0  0  0  0  0  0  0  0  0  0  0  0
   28.3142  -18.1965   -5.0867 C   0  0  0  0  0  0  0  0  0  0  0  0
   27.4987  -18.4478   -6.1507 C   0  0  0  0  0  0  0  0  0  0  0  0
   27.6233  -19.6411   -6.8232 C   0  0  0  0  0  0  0  0  0  0  0  0
   23.6188  -20.4599   -8.9458 C   0  0  0  0  0  0  0  0  0  0  0  0
   22.8004  -19.4791   -8.8888 O   0  0  0  0  0  0  0  0  0  0  0  0
   23.1717  -21.7150   -8.4884 N   0  0  0  0  0  0  0  0  0  0  0  0
   21.8277  -21.8546   -7.9119 C   0  0  1  0  0  0  0  0  0  0  0  0
   20.8924  -22.4581   -8.9012 C   0  0  0  0  0  0  0  0  0  0  0  0
   19.7269  -21.5575   -9.1772 C   0  0  0  0  0  0  0  0  0  0  0  0
   19.7131  -21.2168  -10.6579 C   0  0  0  0  0  0  0  0  0  0  0  0
   20.5954  -21.7461  -11.3686 O   0  0  0  0  0  0  0  0  0  0  0  0
   21.8874  -22.5706   -6.6401 C   0  0  0  0  0  0  0  0  0  0  0  0
   22.8857  -23.1995   -6.2440 O   0  0  0  0  0  0  0  0  0  0  0  0
   18.7489  -20.3562  -11.1439 O   0  0  0  0  0  0  0  0  0  0  0  0
   20.7858  -22.5978   -5.7521 O   0  0  0  0  0  0  0  0  0  0  0  0
  2 12  2  0
  2  1  1  0
  3  2  1  0
  4  5  1  0
  4  3  2  0
  5 11  2  0
  6  7  1  0
  6  5  1  0
  7  8  1  6
  9  7  1  0
  9 13  1  0
 10  9  2  0
 11 12  1  0
 14 13  1  0
 14 15  1  1
 15 16  1  0
 16 17  2  0
 18 17  1  0
 19 18  1  0
 20 19  2  0
 21 20  1  0
 22 21  2  0
 22 23  1  0
 23 24  2  0
 24 19  1  0
 24 16  1  0
 25 14  1  0
 25 26  2  0
 27 25  1  0
 28 27  1  0
 28 33  1  0
 28 29  1  6
 30 29  1  0
 30 31  1  0
 31 32  2  0
 31 35  1  0
 33 34  2  0
 33 36  1  0
M  END
$$$$
