YWE.pdb
     RDKit          3D

 36 38  0  0  1  0  0  0  0  0999 V2000
   23.8061  -19.4524  -24.2048 O   0  0  0  0  0  0  0  0  0  0  0  0
   23.3698  -19.8223  -22.9361 C   0  0  0  0  0  0  0  0  0  0  0  0
   23.7710  -21.0707  -22.4295 C   0  0  0  0  0  0  0  0  0  0  0  0
   23.3396  -21.4390  -21.1731 C   0  0  0  0  0  0  0  0  0  0  0  0
   22.5230  -20.6189  -20.3921 C   0  0  0  0  0  0  0  0  0  0  0  0
   22.0939  -21.0847  -19.0748 C   0  0  0  0  0  0  0  0  0  0  0  0
   23.1307  -20.6876  -18.0288 C   0  0  2  0  0  0  0  0  0  0  0  0
   24.2680  -21.5395  -18.2688 N   0  0  0  0  0  0  0  0  0  0  0  0
   22.6226  -20.9126  -16.6681 C   0  0  0  0  0  0  0  0  0  0  0  0
   22.6259  -22.0797  -16.1892 O   0  0  0  0  0  0  0  0  0  0  0  0
   22.1464  -19.4032  -20.9143 C   0  0  0  0  0  0  0  0  0  0  0  0
   22.5655  -18.9973  -22.1861 C   0  0  0  0  0  0  0  0  0  0  0  0
   22.1087  -19.8943  -15.8041 N   0  0  0  0  0  0  0  0  0  0  0  0
   21.6221  -20.1874  -14.4799 C   0  0  1  0  0  0  0  0  0  0  0  0
   21.9609  -19.1269  -13.4846 C   0  0  0  0  0  0  0  0  0  0  0  0
   21.5972  -19.3883  -12.0944 C   0  0  0  0  0  0  0  0  0  0  0  0
   20.4675  -19.0679  -11.3776 C   0  0  0  0  0  0  0  0  0  0  0  0
   20.6336  -19.5305  -10.1268 N   0  0  0  0  0  0  0  0  0  0  0  0
   21.8342  -20.1379  -10.0173 C   0  0  0  0  0  0  0  0  0  0  0  0
   22.4882  -20.7726   -8.9626 C   0  0  0  0  0  0  0  0  0  0  0  0
   23.7447  -21.3250   -9.1159 C   0  0  0  0  0  0  0  0  0  0  0  0
   24.3401  -21.2249  -10.3711 C   0  0  0  0  0  0  0  0  0  0  0  0
   23.7207  -20.6096  -11.4190 C   0  0  0  0  0  0  0  0  0  0  0  0
   22.4693  -20.0696  -11.2341 C   0  0  0  0  0  0  0  0  0  0  0  0
   20.2067  -20.6067  -14.4761 C   0  0  0  0  0  0  0  0  0  0  0  0
   19.3557  -19.8994  -15.1167 O   0  0  0  0  0  0  0  0  0  0  0  0
   19.7354  -21.7516  -13.8041 N   0  0  0  0  0  0  0  0  0  0  0  0
   18.3036  -22.0802  -13.8210 C   0  0  1  0  0  0  0  0  0  0  0  0
   18.0847  -23.4937  -13.4068 C   0  0  0  0  0  0  0  0  0  0  0  0
   18.6002  -23.7479  -12.0229 C   0  0  0  0  0  0  0  0  0  0  0  0
   18.3032  -25.1902  -11.6485 C   0  0  0  0  0  0  0  0  0  0  0  0
   17.1054  -25.5480  -11.6804 O   0  0  0  0  0  0  0  0  0  0  0  0
   17.5456  -21.1089  -13.0362 C   0  0  0  0  0  0  0  0  0  0  0  0
   16.4486  -20.6375  -13.3877 O   0  0  0  0  0  0  0  0  0  0  0  0
   19.3453  -26.0248  -11.2962 O   0  0  0  0  0  0  0  0  0  0  0  0
   18.0208  -20.6271  -11.7933 O   0  0  0  0  0  0  0  0  0  0  0  0
  2 12  2  0
  2  1  1  0
  3  2  1  0
  4  5  1  0
  4  3  2  0
  5 11  2  0
  6  7  1  0
  6  5  1  0
  7  8  1  6
  9  7  1  0
  9 13  1  0
 10  9  2  0
 11 12  1  0
 14 13  1  0
 14 15  1  1
 15 16  1  0
 16 17  2  0
 18 17  1  0
 19 18  1  0
 20 19  2  0
 21 20  1  0
 22 21  2  0
 22 23  1  0
 23 24  2  0
 24 19  1  0
 24 16  1  0
 25 14  1  0
 25 26  2  0
 27 25  1  0
 28 27  1  0
 28 33  1  0
 28 29  1  1
 30 29  1  0
 30 31  1  0
 31 32  2  0
 31 35  1  0
 33 34  2  0
 33 36  1  0
M  END
$$$$
