YWE.pdb
     RDKit          3D

 36 38  0  0  1  0  0  0  0  0999 V2000
   16.7689  -26.5936  -20.4004 O   0  0  0  0  0  0  0  0  0  0  0  0
   16.5517  -25.3405  -19.8351 C   0  0  0  0  0  0  0  0  0  0  0  0
   15.7676  -25.2598  -18.6711 C   0  0  0  0  0  0  0  0  0  0  0  0
   15.5511  -24.0194  -18.1100 C   0  0  0  0  0  0  0  0  0  0  0  0
   16.0812  -22.8485  -18.6554 C   0  0  0  0  0  0  0  0  0  0  0  0
   15.7956  -21.5677  -18.0116 C   0  0  0  0  0  0  0  0  0  0  0  0
   17.0773  -21.0000  -17.4104 C   0  0  2  0  0  0  0  0  0  0  0  0
   17.1911  -21.6002  -16.1052 N   0  0  0  0  0  0  0  0  0  0  0  0
   16.9972  -19.5384  -17.2773 C   0  0  0  0  0  0  0  0  0  0  0  0
   16.5214  -19.0362  -16.2224 O   0  0  0  0  0  0  0  0  0  0  0  0
   16.8443  -22.9588  -19.7946 C   0  0  0  0  0  0  0  0  0  0  0  0
   17.0842  -24.2016  -20.3911 C   0  0  0  0  0  0  0  0  0  0  0  0
   17.4264  -18.5985  -18.2672 N   0  0  0  0  0  0  0  0  0  0  0  0
   17.3103  -17.1754  -18.0733 C   0  0  1  0  0  0  0  0  0  0  0  0
   18.2998  -16.3937  -18.8731 C   0  0  0  0  0  0  0  0  0  0  0  0
   18.2419  -14.9393  -18.7526 C   0  0  0  0  0  0  0  0  0  0  0  0
   18.6905  -14.0932  -17.7648 C   0  0  0  0  0  0  0  0  0  0  0  0
   18.3820  -12.8379  -18.1324 N   0  0  0  0  0  0  0  0  0  0  0  0
   17.7496  -12.8507  -19.3250 C   0  0  0  0  0  0  0  0  0  0  0  0
   17.2266  -11.8456  -20.1370 C   0  0  0  0  0  0  0  0  0  0  0  0
   16.6120  -12.1318  -21.3402 C   0  0  0  0  0  0  0  0  0  0  0  0
   16.5325  -13.4705  -21.7168 C   0  0  0  0  0  0  0  0  0  0  0  0
   17.0370  -14.4720  -20.9404 C   0  0  0  0  0  0  0  0  0  0  0  0
   17.6435  -14.1541  -19.7476 C   0  0  0  0  0  0  0  0  0  0  0  0
   15.9168  -16.7006  -18.1824 C   0  0  0  0  0  0  0  0  0  0  0  0
   15.2012  -17.1172  -19.1566 O   0  0  0  0  0  0  0  0  0  0  0  0
   15.3237  -15.8093  -17.2668 N   0  0  0  0  0  0  0  0  0  0  0  0
   13.9352  -15.3696  -17.4586 C   0  0  1  0  0  0  0  0  0  0  0  0
   13.0910  -15.7772  -16.3014 C   0  0  0  0  0  0  0  0  0  0  0  0
   13.8157  -15.5994  -15.0018 C   0  0  0  0  0  0  0  0  0  0  0  0
   12.9201  -16.0825  -13.8735 C   0  0  0  0  0  0  0  0  0  0  0  0
   11.8527  -15.4573  -13.6910 O   0  0  0  0  0  0  0  0  0  0  0  0
   13.8864  -13.9395  -17.7526 C   0  0  0  0  0  0  0  0  0  0  0  0
   14.8809  -13.1916  -17.7271 O   0  0  0  0  0  0  0  0  0  0  0  0
   13.3151  -17.1664  -13.1147 O   0  0  0  0  0  0  0  0  0  0  0  0
   12.6743  -13.2936  -18.0938 O   0  0  0  0  0  0  0  0  0  0  0  0
  2 12  2  0
  2  1  1  0
  3  2  1  0
  4  5  1  0
  4  3  2  0
  5 11  2  0
  6  7  1  0
  6  5  1  0
  7  8  1  1
  9  7  1  0
  9 13  1  0
 10  9  2  0
 11 12  1  0
 14 13  1  0
 14 15  1  6
 15 16  1  0
 16 17  2  0
 18 17  1  0
 19 18  1  0
 20 19  2  0
 21 20  1  0
 22 21  2  0
 22 23  1  0
 23 24  2  0
 24 19  1  0
 24 16  1  0
 25 14  1  0
 25 26  2  0
 27 25  1  0
 28 27  1  0
 28 33  1  0
 28 29  1  1
 30 29  1  0
 30 31  1  0
 31 32  2  0
 31 35  1  0
 33 34  2  0
 33 36  1  0
M  END
$$$$
