YWE.pdb
     RDKit          3D

 36 38  0  0  1  0  0  0  0  0999 V2000
   22.5779  -19.6614  -16.0742 O   0  0  0  0  0  0  0  0  0  0  0  0
   22.3694  -18.2983  -16.2623 C   0  0  0  0  0  0  0  0  0  0  0  0
   22.7979  -17.7173  -17.4686 C   0  0  0  0  0  0  0  0  0  0  0  0
   22.5925  -16.3672  -17.6566 C   0  0  0  0  0  0  0  0  0  0  0  0
   21.9771  -15.5629  -16.6954 C   0  0  0  0  0  0  0  0  0  0  0  0
   21.8074  -14.1357  -16.9608 C   0  0  0  0  0  0  0  0  0  0  0  0
   20.3277  -13.8250  -17.1623 C   0  0  2  0  0  0  0  0  0  0  0  0
   19.9534  -14.4991  -18.3798 N   0  0  0  0  0  0  0  0  0  0  0  0
   20.1057  -12.3795  -17.3091 C   0  0  0  0  0  0  0  0  0  0  0  0
   20.3381  -11.8250  -18.4182 O   0  0  0  0  0  0  0  0  0  0  0  0
   21.5686  -16.1594  -15.5250 C   0  0  0  0  0  0  0  0  0  0  0  0
   21.7613  -17.5269  -15.3004 C   0  0  0  0  0  0  0  0  0  0  0  0
   19.6311  -11.5119  -16.2749 N   0  0  0  0  0  0  0  0  0  0  0  0
   19.3285  -10.1243  -16.5182 C   0  0  1  0  0  0  0  0  0  0  0  0
   17.8735   -9.8125  -16.3926 C   0  0  0  0  0  0  0  0  0  0  0  0
   16.9866  -10.3930  -17.3972 C   0  0  0  0  0  0  0  0  0  0  0  0
   16.7074  -11.7031  -17.7113 C   0  0  0  0  0  0  0  0  0  0  0  0
   15.8256  -11.7001  -18.7254 N   0  0  0  0  0  0  0  0  0  0  0  0
   15.5294  -10.4297  -19.0729 C   0  0  0  0  0  0  0  0  0  0  0  0
   14.6918   -9.8772  -20.0405 C   0  0  0  0  0  0  0  0  0  0  0  0
   14.5651   -8.5106  -20.1950 C   0  0  0  0  0  0  0  0  0  0  0  0
   15.3094   -7.6976  -19.3435 C   0  0  0  0  0  0  0  0  0  0  0  0
   16.1353   -8.2137  -18.3886 C   0  0  0  0  0  0  0  0  0  0  0  0
   16.2392   -9.5791  -18.2597 C   0  0  0  0  0  0  0  0  0  0  0  0
   20.2208   -9.2113  -15.7770 C   0  0  0  0  0  0  0  0  0  0  0  0
   20.7096   -9.6023  -14.6621 O   0  0  0  0  0  0  0  0  0  0  0  0
   20.5700   -7.9244  -16.2313 N   0  0  0  0  0  0  0  0  0  0  0  0
   21.2886   -6.9987  -15.3455 C   0  0  1  0  0  0  0  0  0  0  0  0
   21.7841   -5.8200  -16.1089 C   0  0  0  0  0  0  0  0  0  0  0  0
   22.5524   -4.8791  -15.2313 C   0  0  0  0  0  0  0  0  0  0  0  0
   22.7500   -3.5691  -15.9751 C   0  0  0  0  0  0  0  0  0  0  0  0
   22.3925   -3.5389  -17.1730 O   0  0  0  0  0  0  0  0  0  0  0  0
   20.4652   -6.6522  -14.1897 C   0  0  0  0  0  0  0  0  0  0  0  0
   19.2416   -6.4327  -14.2503 O   0  0  0  0  0  0  0  0  0  0  0  0
   23.3042   -2.4925  -15.3114 O   0  0  0  0  0  0  0  0  0  0  0  0
   21.0186   -6.5395  -12.8920 O   0  0  0  0  0  0  0  0  0  0  0  0
  2 12  2  0
  2  1  1  0
  3  2  1  0
  4  5  1  0
  4  3  2  0
  5 11  2  0
  6  7  1  0
  6  5  1  0
  7  8  1  6
  9  7  1  0
  9 13  1  0
 10  9  2  0
 11 12  1  0
 14 13  1  0
 14 15  1  1
 15 16  1  0
 16 17  2  0
 18 17  1  0
 19 18  1  0
 20 19  2  0
 21 20  1  0
 22 21  2  0
 22 23  1  0
 23 24  2  0
 24 19  1  0
 24 16  1  0
 25 14  1  0
 25 26  2  0
 27 25  1  0
 28 27  1  0
 28 33  1  0
 28 29  1  6
 30 29  1  0
 30 31  1  0
 31 32  2  0
 31 35  1  0
 33 34  2  0
 33 36  1  0
M  END
$$$$
