YWE.pdb
     RDKit          3D

 36 38  0  0  1  0  0  0  0  0999 V2000
   22.4905  -15.5579  -18.5798 O   0  0  0  0  0  0  0  0  0  0  0  0
   22.4487  -16.5038  -17.5597 C   0  0  0  0  0  0  0  0  0  0  0  0
   22.5641  -16.0589  -16.2312 C   0  0  0  0  0  0  0  0  0  0  0  0
   22.5232  -16.9944  -15.2196 C   0  0  0  0  0  0  0  0  0  0  0  0
   22.3718  -18.3599  -15.4687 C   0  0  0  0  0  0  0  0  0  0  0  0
   22.3520  -19.2932  -14.3440 C   0  0  0  0  0  0  0  0  0  0  0  0
   23.7783  -19.7097  -13.9994 C   0  0  2  0  0  0  0  0  0  0  0  0
   24.2136  -20.5405  -15.0936 N   0  0  0  0  0  0  0  0  0  0  0  0
   23.8171  -20.4796  -12.7480 C   0  0  0  0  0  0  0  0  0  0  0  0
   23.4291  -21.6800  -12.7453 O   0  0  0  0  0  0  0  0  0  0  0  0
   22.2615  -18.7654  -16.7786 C   0  0  0  0  0  0  0  0  0  0  0  0
   22.2992  -17.8434  -17.8304 C   0  0  0  0  0  0  0  0  0  0  0  0
   24.2727  -19.9772  -11.4880 N   0  0  0  0  0  0  0  0  0  0  0  0
   24.0116  -20.6657  -10.2495 C   0  0  1  0  0  0  0  0  0  0  0  0
   24.9242  -20.2469   -9.1442 C   0  0  0  0  0  0  0  0  0  0  0  0
   26.3510  -20.4892   -9.3409 C   0  0  0  0  0  0  0  0  0  0  0  0
   27.0367  -21.0676  -10.3840 C   0  0  0  0  0  0  0  0  0  0  0  0
   28.3429  -21.0584  -10.0681 N   0  0  0  0  0  0  0  0  0  0  0  0
   28.5181  -20.4924   -8.8551 C   0  0  0  0  0  0  0  0  0  0  0  0
   29.6456  -20.2407   -8.0750 C   0  0  0  0  0  0  0  0  0  0  0  0
   29.5507  -19.6346   -6.8377 C   0  0  0  0  0  0  0  0  0  0  0  0
   28.2790  -19.2808   -6.3932 C   0  0  0  0  0  0  0  0  0  0  0  0
   27.1606  -19.5157   -7.1378 C   0  0  0  0  0  0  0  0  0  0  0  0
   27.2887  -20.1209   -8.3662 C   0  0  0  0  0  0  0  0  0  0  0  0
   22.5783  -20.6725   -9.8962 C   0  0  0  0  0  0  0  0  0  0  0  0
   21.8505  -19.6885  -10.2663 O   0  0  0  0  0  0  0  0  0  0  0  0
   21.9599  -21.7098   -9.1708 N   0  0  0  0  0  0  0  0  0  0  0  0
   20.5202  -21.9597   -9.3223 C   0  0  1  0  0  0  0  0  0  0  0  0
   20.1711  -22.1646  -10.7554 C   0  0  0  0  0  0  0  0  0  0  0  0
   18.7156  -22.4766  -10.9282 C   0  0  0  0  0  0  0  0  0  0  0  0
   18.4266  -22.6531  -12.4094 C   0  0  0  0  0  0  0  0  0  0  0  0
   18.0801  -21.6327  -13.0438 O   0  0  0  0  0  0  0  0  0  0  0  0
   20.0943  -23.0492   -8.4474 C   0  0  0  0  0  0  0  0  0  0  0  0
   20.7034  -24.1290   -8.3370 O   0  0  0  0  0  0  0  0  0  0  0  0
   18.5552  -23.9047  -12.9782 O   0  0  0  0  0  0  0  0  0  0  0  0
   18.9311  -22.9466   -7.6478 O   0  0  0  0  0  0  0  0  0  0  0  0
  2 12  2  0
  2  1  1  0
  3  2  1  0
  4  5  1  0
  4  3  2  0
  5 11  2  0
  6  7  1  0
  6  5  1  0
  7  8  1  6
  9  7  1  0
  9 13  1  0
 10  9  2  0
 11 12  1  0
 14 13  1  0
 14 15  1  1
 15 16  1  0
 16 17  2  0
 18 17  1  0
 19 18  1  0
 20 19  2  0
 21 20  1  0
 22 21  2  0
 22 23  1  0
 23 24  2  0
 24 19  1  0
 24 16  1  0
 25 14  1  0
 25 26  2  0
 27 25  1  0
 28 27  1  0
 28 33  1  0
 28 29  1  6
 30 29  1  0
 30 31  1  0
 31 32  2  0
 31 35  1  0
 33 34  2  0
 33 36  1  0
M  END
$$$$
