YWE.pdb
     RDKit          3D

 36 38  0  0  1  0  0  0  0  0999 V2000
   29.1569  -28.6943  -17.8236 O   0  0  0  0  0  0  0  0  0  0  0  0
   28.3327  -27.6238  -17.4894 C   0  0  0  0  0  0  0  0  0  0  0  0
   28.1763  -27.3003  -16.1303 C   0  0  0  0  0  0  0  0  0  0  0  0
   27.3601  -26.2404  -15.7974 C   0  0  0  0  0  0  0  0  0  0  0  0
   26.6882  -25.4825  -16.7586 C   0  0  0  0  0  0  0  0  0  0  0  0
   25.8282  -24.3822  -16.3273 C   0  0  0  0  0  0  0  0  0  0  0  0
   26.3884  -23.0614  -16.8453 C   0  0  2  0  0  0  0  0  0  0  0  0
   27.6358  -22.8709  -16.1492 N   0  0  0  0  0  0  0  0  0  0  0  0
   25.4790  -21.9466  -16.5446 C   0  0  0  0  0  0  0  0  0  0  0  0
   25.4962  -21.4236  -15.3967 O   0  0  0  0  0  0  0  0  0  0  0  0
   26.8606  -25.8228  -18.0802 C   0  0  0  0  0  0  0  0  0  0  0  0
   27.6812  -26.8926  -18.4543 C   0  0  0  0  0  0  0  0  0  0  0  0
   24.5441  -21.3773  -17.4663 N   0  0  0  0  0  0  0  0  0  0  0  0
   23.6739  -20.2888  -17.1001 C   0  0  1  0  0  0  0  0  0  0  0  0
   24.0533  -18.9954  -17.7428 C   0  0  0  0  0  0  0  0  0  0  0  0
   25.0451  -18.1801  -17.0465 C   0  0  0  0  0  0  0  0  0  0  0  0
   25.0637  -17.6707  -15.7686 C   0  0  0  0  0  0  0  0  0  0  0  0
   26.2056  -16.9771  -15.6230 N   0  0  0  0  0  0  0  0  0  0  0  0
   26.9212  -17.0249  -16.7668 C   0  0  0  0  0  0  0  0  0  0  0  0
   28.1500  -16.4864  -17.1451 C   0  0  0  0  0  0  0  0  0  0  0  0
   28.6718  -16.6874  -18.4079 C   0  0  0  0  0  0  0  0  0  0  0  0
   27.9213  -17.4531  -19.2971 C   0  0  0  0  0  0  0  0  0  0  0  0
   26.7168  -17.9913  -18.9508 C   0  0  0  0  0  0  0  0  0  0  0  0
   26.2246  -17.7730  -17.6852 C   0  0  0  0  0  0  0  0  0  0  0  0
   22.2453  -20.6407  -17.2197 C   0  0  0  0  0  0  0  0  0  0  0  0
   21.8524  -21.2642  -18.2646 O   0  0  0  0  0  0  0  0  0  0  0  0
   21.2818  -20.3291  -16.2404 N   0  0  0  0  0  0  0  0  0  0  0  0
   19.8955  -20.7895  -16.3961 C   0  0  1  0  0  0  0  0  0  0  0  0
   19.1550  -20.6692  -15.1096 C   0  0  0  0  0  0  0  0  0  0  0  0
   17.7719  -21.2363  -15.2156 C   0  0  0  0  0  0  0  0  0  0  0  0
   17.1330  -21.2258  -13.8371 C   0  0  0  0  0  0  0  0  0  0  0  0
   17.7976  -20.7148  -12.9092 O   0  0  0  0  0  0  0  0  0  0  0  0
   19.2516  -20.1076  -17.5160 C   0  0  0  0  0  0  0  0  0  0  0  0
   18.4966  -20.6705  -18.3297 O   0  0  0  0  0  0  0  0  0  0  0  0
   15.8746  -21.7695  -13.6718 O   0  0  0  0  0  0  0  0  0  0  0  0
   19.4495  -18.7270  -17.7563 O   0  0  0  0  0  0  0  0  0  0  0  0
  2 12  2  0
  2  1  1  0
  3  2  1  0
  4  5  1  0
  4  3  2  0
  5 11  2  0
  6  7  1  0
  6  5  1  0
  7  8  1  1
  9  7  1  0
  9 13  1  0
 10  9  2  0
 11 12  1  0
 14 13  1  0
 14 15  1  6
 15 16  1  0
 16 17  2  0
 18 17  1  0
 19 18  1  0
 20 19  2  0
 21 20  1  0
 22 21  2  0
 22 23  1  0
 23 24  2  0
 24 19  1  0
 24 16  1  0
 25 14  1  0
 25 26  2  0
 27 25  1  0
 28 27  1  0
 28 33  1  0
 28 29  1  1
 30 29  1  0
 30 31  1  0
 31 32  2  0
 31 35  1  0
 33 34  2  0
 33 36  1  0
M  END
$$$$
