YWE.pdb
     RDKit          3D

 36 38  0  0  1  0  0  0  0  0999 V2000
   27.9452  -25.8834  -18.0807 O   0  0  0  0  0  0  0  0  0  0  0  0
   26.9095  -25.1933  -17.4577 C   0  0  0  0  0  0  0  0  0  0  0  0
   26.2532  -25.8072  -16.3767 C   0  0  0  0  0  0  0  0  0  0  0  0
   25.2269  -25.1252  -15.7586 C   0  0  0  0  0  0  0  0  0  0  0  0
   24.8204  -23.8536  -16.1675 C   0  0  0  0  0  0  0  0  0  0  0  0
   23.7140  -23.1994  -15.4718 C   0  0  0  0  0  0  0  0  0  0  0  0
   24.2276  -21.9613  -14.7439 C   0  0  2  0  0  0  0  0  0  0  0  0
   25.0505  -22.4576  -13.6700 N   0  0  0  0  0  0  0  0  0  0  0  0
   23.1168  -21.1729  -14.1920 C   0  0  0  0  0  0  0  0  0  0  0  0
   22.5370  -21.5667  -13.1430 O   0  0  0  0  0  0  0  0  0  0  0  0
   25.4812  -23.2783  -17.2281 C   0  0  0  0  0  0  0  0  0  0  0  0
   26.5271  -23.9418  -17.8791 C   0  0  0  0  0  0  0  0  0  0  0  0
   22.6152  -19.9554  -14.7522 N   0  0  0  0  0  0  0  0  0  0  0  0
   21.5264  -19.2275  -14.1516 C   0  0  1  0  0  0  0  0  0  0  0  0
   21.7100  -17.7467  -14.2109 C   0  0  0  0  0  0  0  0  0  0  0  0
   20.6148  -16.9265  -13.7003 C   0  0  0  0  0  0  0  0  0  0  0  0
   20.0182  -16.8807  -12.4614 C   0  0  0  0  0  0  0  0  0  0  0  0
   19.0451  -15.9551  -12.5116 N   0  0  0  0  0  0  0  0  0  0  0  0
   18.9977  -15.4048  -13.7434 C   0  0  0  0  0  0  0  0  0  0  0  0
   18.1930  -14.4219  -14.3175 C   0  0  0  0  0  0  0  0  0  0  0  0
   18.3524  -14.0312  -15.6326 C   0  0  0  0  0  0  0  0  0  0  0  0
   19.3532  -14.6587  -16.3708 C   0  0  0  0  0  0  0  0  0  0  0  0
   20.1538  -15.6225  -15.8319 C   0  0  0  0  0  0  0  0  0  0  0  0
   19.9700  -15.9891  -14.5191 C   0  0  0  0  0  0  0  0  0  0  0  0
   20.2060  -19.7037  -14.6088 C   0  0  0  0  0  0  0  0  0  0  0  0
   20.0608  -20.0223  -15.8385 O   0  0  0  0  0  0  0  0  0  0  0  0
   19.0878  -19.8309  -13.7615 N   0  0  0  0  0  0  0  0  0  0  0  0
   17.7717  -20.1662  -14.3216 C   0  0  1  0  0  0  0  0  0  0  0  0
   17.3906  -21.5615  -13.9673 C   0  0  0  0  0  0  0  0  0  0  0  0
   17.2845  -21.7433  -12.4836 C   0  0  0  0  0  0  0  0  0  0  0  0
   16.8195  -23.1612  -12.1975 C   0  0  0  0  0  0  0  0  0  0  0  0
   16.6062  -23.8971  -13.1857 O   0  0  0  0  0  0  0  0  0  0  0  0
   16.7803  -19.1653  -13.9355 C   0  0  0  0  0  0  0  0  0  0  0  0
   15.5971  -19.1758  -14.3215 O   0  0  0  0  0  0  0  0  0  0  0  0
   16.6555  -23.5668  -10.8878 O   0  0  0  0  0  0  0  0  0  0  0  0
   17.1082  -18.0899  -13.0759 O   0  0  0  0  0  0  0  0  0  0  0  0
  2 12  2  0
  2  1  1  0
  3  2  1  0
  4  5  1  0
  4  3  2  0
  5 11  2  0
  6  7  1  0
  6  5  1  0
  7  8  1  1
  9  7  1  0
  9 13  1  0
 10  9  2  0
 11 12  1  0
 14 13  1  0
 14 15  1  6
 15 16  1  0
 16 17  2  0
 18 17  1  0
 19 18  1  0
 20 19  2  0
 21 20  1  0
 22 21  2  0
 22 23  1  0
 23 24  2  0
 24 19  1  0
 24 16  1  0
 25 14  1  0
 25 26  2  0
 27 25  1  0
 28 27  1  0
 28 33  1  0
 28 29  1  1
 30 29  1  0
 30 31  1  0
 31 32  2  0
 31 35  1  0
 33 34  2  0
 33 36  1  0
M  END
$$$$
