YWE.pdb
     RDKit          3D

 36 38  0  0  1  0  0  0  0  0999 V2000
    8.4283  -13.8890    9.2680 O   0  0  0  0  0  0  0  0  0  0  0  0
    9.5168  -14.6968    8.9525 C   0  0  0  0  0  0  0  0  0  0  0  0
   10.7687  -14.3768    9.5061 C   0  0  0  0  0  0  0  0  0  0  0  0
   11.8480  -15.1756    9.1945 C   0  0  0  0  0  0  0  0  0  0  0  0
   11.7401  -16.2847    8.3531 C   0  0  0  0  0  0  0  0  0  0  0  0
   12.9331  -17.0756    8.0574 C   0  0  0  0  0  0  0  0  0  0  0  0
   13.8080  -16.3276    7.0567 C   0  0  2  0  0  0  0  0  0  0  0  0
   13.1282  -16.4375    5.7907 N   0  0  0  0  0  0  0  0  0  0  0  0
   15.1405  -16.9399    6.9573 C   0  0  0  0  0  0  0  0  0  0  0  0
   15.3168  -17.9210    6.1841 O   0  0  0  0  0  0  0  0  0  0  0  0
   10.5025  -16.5729    7.8262 C   0  0  0  0  0  0  0  0  0  0  0  0
    9.3853  -15.7836    8.1209 C   0  0  0  0  0  0  0  0  0  0  0  0
   16.2984  -16.5099    7.6798 N   0  0  0  0  0  0  0  0  0  0  0  0
   17.5853  -17.1342    7.5055 C   0  0  1  0  0  0  0  0  0  0  0  0
   18.7067  -16.1509    7.4306 C   0  0  0  0  0  0  0  0  0  0  0  0
   18.5416  -15.0332    6.5050 C   0  0  0  0  0  0  0  0  0  0  0  0
   17.5431  -14.7421    5.6045 C   0  0  0  0  0  0  0  0  0  0  0  0
   17.8733  -13.5955    4.9863 N   0  0  0  0  0  0  0  0  0  0  0  0
   19.0524  -13.1407    5.4611 C   0  0  0  0  0  0  0  0  0  0  0  0
   19.8293  -12.0210    5.1683 C   0  0  0  0  0  0  0  0  0  0  0  0
   21.0270  -11.7808    5.8126 C   0  0  0  0  0  0  0  0  0  0  0  0
   21.4346  -12.7039    6.7728 C   0  0  0  0  0  0  0  0  0  0  0  0
   20.6921  -13.8067    7.0777 C   0  0  0  0  0  0  0  0  0  0  0  0
   19.5036  -14.0174    6.4184 C   0  0  0  0  0  0  0  0  0  0  0  0
   17.8058  -18.2501    8.4464 C   0  0  0  0  0  0  0  0  0  0  0  0
   17.6537  -18.0366    9.6978 O   0  0  0  0  0  0  0  0  0  0  0  0
   18.1749  -19.5482    8.0423 N   0  0  0  0  0  0  0  0  0  0  0  0
   18.3172  -20.6187    9.0381 C   0  0  1  0  0  0  0  0  0  0  0  0
   18.3709  -21.9502    8.3733 C   0  0  0  0  0  0  0  0  0  0  0  0
   19.7112  -22.2016    7.7521 C   0  0  0  0  0  0  0  0  0  0  0  0
   19.6916  -23.5663    7.0845 C   0  0  0  0  0  0  0  0  0  0  0  0
   19.3322  -24.5355    7.7882 O   0  0  0  0  0  0  0  0  0  0  0  0
   19.4506  -20.3511    9.9200 C   0  0  0  0  0  0  0  0  0  0  0  0
   20.3915  -19.5900    9.6292 O   0  0  0  0  0  0  0  0  0  0  0  0
   20.0640  -23.6753    5.7593 O   0  0  0  0  0  0  0  0  0  0  0  0
   19.5567  -20.9554   11.1953 O   0  0  0  0  0  0  0  0  0  0  0  0
  2 12  2  0
  2  1  1  0
  3  2  1  0
  4  5  1  0
  4  3  2  0
  5 11  2  0
  6  7  1  0
  6  5  1  0
  7  8  1  6
  9  7  1  0
  9 13  1  0
 10  9  2  0
 11 12  1  0
 14 13  1  0
 14 15  1  1
 15 16  1  0
 16 17  2  0
 18 17  1  0
 19 18  1  0
 20 19  2  0
 21 20  1  0
 22 21  2  0
 22 23  1  0
 23 24  2  0
 24 19  1  0
 24 16  1  0
 25 14  1  0
 25 26  2  0
 27 25  1  0
 28 27  1  0
 28 33  1  0
 28 29  1  6
 30 29  1  0
 30 31  1  0
 31 32  2  0
 31 35  1  0
 33 34  2  0
 33 36  1  0
M  END
$$$$
