YWE.pdb
     RDKit          3D

 36 38  0  0  1  0  0  0  0  0999 V2000
   29.5786  -30.5731  -17.5564 O   0  0  0  0  0  0  0  0  0  0  0  0
   28.7313  -29.4737  -17.6589 C   0  0  0  0  0  0  0  0  0  0  0  0
   27.7557  -29.2874  -16.6641 C   0  0  0  0  0  0  0  0  0  0  0  0
   26.9155  -28.1992  -16.7641 C   0  0  0  0  0  0  0  0  0  0  0  0
   27.0006  -27.2818  -17.8133 C   0  0  0  0  0  0  0  0  0  0  0  0
   26.0645  -26.1603  -17.8591 C   0  0  0  0  0  0  0  0  0  0  0  0
   26.8131  -24.8577  -17.5956 C   0  0  2  0  0  0  0  0  0  0  0  0
   27.2037  -24.9097  -16.2095 N   0  0  0  0  0  0  0  0  0  0  0  0
   25.9450  -23.6934  -17.8215 C   0  0  0  0  0  0  0  0  0  0  0  0
   25.3449  -23.1675  -16.8443 O   0  0  0  0  0  0  0  0  0  0  0  0
   27.9650  -27.4903  -18.7718 C   0  0  0  0  0  0  0  0  0  0  0  0
   28.8346  -28.5843  -18.7021 C   0  0  0  0  0  0  0  0  0  0  0  0
   25.7106  -23.0772  -19.0914 N   0  0  0  0  0  0  0  0  0  0  0  0
   24.9228  -21.8784  -19.2272 C   0  0  1  0  0  0  0  0  0  0  0  0
   25.3375  -21.0345  -20.3874 C   0  0  0  0  0  0  0  0  0  0  0  0
   24.6571  -19.7518  -20.5451 C   0  0  0  0  0  0  0  0  0  0  0  0
   24.7387  -18.5872  -19.8173 C   0  0  0  0  0  0  0  0  0  0  0  0
   23.8965  -17.6995  -20.3730 N   0  0  0  0  0  0  0  0  0  0  0  0
   23.2765  -18.2569  -21.4347 C   0  0  0  0  0  0  0  0  0  0  0  0
   22.3292  -17.7839  -22.3414 C   0  0  0  0  0  0  0  0  0  0  0  0
   21.8439  -18.5767  -23.3628 C   0  0  0  0  0  0  0  0  0  0  0  0
   22.3380  -19.8757  -23.4559 C   0  0  0  0  0  0  0  0  0  0  0  0
   23.2653  -20.3617  -22.5817 C   0  0  0  0  0  0  0  0  0  0  0  0
   23.7291  -19.5468  -21.5755 C   0  0  0  0  0  0  0  0  0  0  0  0
   23.4725  -22.1410  -19.1432 C   0  0  0  0  0  0  0  0  0  0  0  0
   23.0165  -23.2293  -19.6356 O   0  0  0  0  0  0  0  0  0  0  0  0
   22.5541  -21.2559  -18.5450 N   0  0  0  0  0  0  0  0  0  0  0  0
   21.1354  -21.6228  -18.4420 C   0  0  1  0  0  0  0  0  0  0  0  0
   20.5299  -21.0378  -17.2136 C   0  0  0  0  0  0  0  0  0  0  0  0
   19.0878  -21.4206  -17.0749 C   0  0  0  0  0  0  0  0  0  0  0  0
   18.9217  -22.2487  -15.8119 C   0  0  0  0  0  0  0  0  0  0  0  0
   19.1468  -21.6736  -14.7245 O   0  0  0  0  0  0  0  0  0  0  0  0
   20.4267  -21.2802  -19.6725 C   0  0  0  0  0  0  0  0  0  0  0  0
   20.8379  -20.4476  -20.5012 O   0  0  0  0  0  0  0  0  0  0  0  0
   18.5387  -23.5711  -15.9168 O   0  0  0  0  0  0  0  0  0  0  0  0
   19.1940  -21.8871  -20.0118 O   0  0  0  0  0  0  0  0  0  0  0  0
  2 12  2  0
  2  1  1  0
  3  2  1  0
  4  5  1  0
  4  3  2  0
  5 11  2  0
  6  7  1  0
  6  5  1  0
  7  8  1  1
  9  7  1  0
  9 13  1  0
 10  9  2  0
 11 12  1  0
 14 13  1  0
 14 15  1  6
 15 16  1  0
 16 17  2  0
 18 17  1  0
 19 18  1  0
 20 19  2  0
 21 20  1  0
 22 21  2  0
 22 23  1  0
 23 24  2  0
 24 19  1  0
 24 16  1  0
 25 14  1  0
 25 26  2  0
 27 25  1  0
 28 27  1  0
 28 33  1  0
 28 29  1  1
 30 29  1  0
 30 31  1  0
 31 32  2  0
 31 35  1  0
 33 34  2  0
 33 36  1  0
M  END
$$$$
