YWE.pdb
     RDKit          3D

 36 38  0  0  1  0  0  0  0  0999 V2000
   31.3009  -16.8991  -18.5007 O   0  0  0  0  0  0  0  0  0  0  0  0
   30.3132  -17.5041  -17.7291 C   0  0  0  0  0  0  0  0  0  0  0  0
   29.5384  -18.5210  -18.3136 C   0  0  0  0  0  0  0  0  0  0  0  0
   28.5595  -19.1212  -17.5508 C   0  0  0  0  0  0  0  0  0  0  0  0
   28.3136  -18.7553  -16.2260 C   0  0  0  0  0  0  0  0  0  0  0  0
   27.2479  -19.4278  -15.4854 C   0  0  0  0  0  0  0  0  0  0  0  0
   27.8581  -20.3717  -14.4543 C   0  0  2  0  0  0  0  0  0  0  0  0
   28.4196  -21.4613  -15.2121 N   0  0  0  0  0  0  0  0  0  0  0  0
   26.8329  -20.8854  -13.5349 C   0  0  0  0  0  0  0  0  0  0  0  0
   26.0648  -21.8108  -13.9159 O   0  0  0  0  0  0  0  0  0  0  0  0
   29.0876  -17.7571  -15.6813 C   0  0  0  0  0  0  0  0  0  0  0  0
   30.0897  -17.1259  -16.4264 C   0  0  0  0  0  0  0  0  0  0  0  0
   26.6188  -20.4186  -12.1993 N   0  0  0  0  0  0  0  0  0  0  0  0
   25.5158  -20.8793  -11.3947 C   0  0  1  0  0  0  0  0  0  0  0  0
   25.7313  -20.6690   -9.9320 C   0  0  0  0  0  0  0  0  0  0  0  0
   27.0890  -20.8665   -9.4314 C   0  0  0  0  0  0  0  0  0  0  0  0
   28.2087  -21.3938  -10.0323 C   0  0  0  0  0  0  0  0  0  0  0  0
   29.2079  -21.3590   -9.1341 N   0  0  0  0  0  0  0  0  0  0  0  0
   28.7655  -20.8261   -7.9754 C   0  0  0  0  0  0  0  0  0  0  0  0
   29.3782  -20.5681   -6.7501 C   0  0  0  0  0  0  0  0  0  0  0  0
   28.6851  -20.0031   -5.6976 C   0  0  0  0  0  0  0  0  0  0  0  0
   27.3421  -19.6977   -5.9050 C   0  0  0  0  0  0  0  0  0  0  0  0
   26.7200  -19.9397   -7.0944 C   0  0  0  0  0  0  0  0  0  0  0  0
   27.4380  -20.5031   -8.1234 C   0  0  0  0  0  0  0  0  0  0  0  0
   24.2108  -20.4087  -11.8994 C   0  0  0  0  0  0  0  0  0  0  0  0
   24.1883  -19.4343  -12.7270 O   0  0  0  0  0  0  0  0  0  0  0  0
   22.9785  -20.9768  -11.5210 N   0  0  0  0  0  0  0  0  0  0  0  0
   21.7331  -20.5314  -12.1602 C   0  0  1  0  0  0  0  0  0  0  0  0
   21.8293  -20.6567  -13.6410 C   0  0  0  0  0  0  0  0  0  0  0  0
   21.9029  -22.0911  -14.0684 C   0  0  0  0  0  0  0  0  0  0  0  0
   20.6879  -22.4087  -14.9237 C   0  0  0  0  0  0  0  0  0  0  0  0
   19.8335  -21.5045  -15.0509 O   0  0  0  0  0  0  0  0  0  0  0  0
   20.5840  -21.2225  -11.5808 C   0  0  0  0  0  0  0  0  0  0  0  0
   20.6760  -22.1719  -10.7813 O   0  0  0  0  0  0  0  0  0  0  0  0
   20.5815  -23.6543  -15.5098 O   0  0  0  0  0  0  0  0  0  0  0  0
   19.2564  -20.8493  -11.8991 O   0  0  0  0  0  0  0  0  0  0  0  0
  2 12  2  0
  2  1  1  0
  3  2  1  0
  4  5  1  0
  4  3  2  0
  5 11  2  0
  6  7  1  0
  6  5  1  0
  7  8  1  6
  9  7  1  0
  9 13  1  0
 10  9  2  0
 11 12  1  0
 14 13  1  0
 14 15  1  1
 15 16  1  0
 16 17  2  0
 18 17  1  0
 19 18  1  0
 20 19  2  0
 21 20  1  0
 22 21  2  0
 22 23  1  0
 23 24  2  0
 24 19  1  0
 24 16  1  0
 25 14  1  0
 25 26  2  0
 27 25  1  0
 28 27  1  0
 28 33  1  0
 28 29  1  6
 30 29  1  0
 30 31  1  0
 31 32  2  0
 31 35  1  0
 33 34  2  0
 33 36  1  0
M  END
$$$$
