YWE.pdb
     RDKit          3D

 36 38  0  0  1  0  0  0  0  0999 V2000
   17.2934  -13.2701  -21.6223 O   0  0  0  0  0  0  0  0  0  0  0  0
   17.8090  -12.4607  -20.6143 C   0  0  0  0  0  0  0  0  0  0  0  0
   18.9625  -11.7054  -20.8887 C   0  0  0  0  0  0  0  0  0  0  0  0
   19.4748  -10.9034  -19.8915 C   0  0  0  0  0  0  0  0  0  0  0  0
   18.8902  -10.8166  -18.6264 C   0  0  0  0  0  0  0  0  0  0  0  0
   19.4999   -9.9550  -17.6155 C   0  0  0  0  0  0  0  0  0  0  0  0
   20.7342  -10.6392  -17.0368 C   0  0  2  0  0  0  0  0  0  0  0  0
   20.2379  -11.7751  -16.3018 N   0  0  0  0  0  0  0  0  0  0  0  0
   21.4601   -9.7408  -16.1279 C   0  0  0  0  0  0  0  0  0  0  0  0
   21.0424   -9.5811  -14.9482 O   0  0  0  0  0  0  0  0  0  0  0  0
   17.7625  -11.5672  -18.3873 C   0  0  0  0  0  0  0  0  0  0  0  0
   17.2155  -12.3923  -19.3762 C   0  0  0  0  0  0  0  0  0  0  0  0
   22.6401   -9.0061  -16.4676 N   0  0  0  0  0  0  0  0  0  0  0  0
   23.3159   -8.1603  -15.5168 C   0  0  1  0  0  0  0  0  0  0  0  0
   24.7905   -8.3923  -15.4726 C   0  0  0  0  0  0  0  0  0  0  0  0
   25.2350   -9.7732  -15.3037 C   0  0  0  0  0  0  0  0  0  0  0  0
   24.8079  -10.7649  -14.4511 C   0  0  0  0  0  0  0  0  0  0  0  0
   25.5537  -11.8570  -14.6901 N   0  0  0  0  0  0  0  0  0  0  0  0
   26.4464  -11.5984  -15.6692 C   0  0  0  0  0  0  0  0  0  0  0  0
   27.4340  -12.3655  -16.2851 C   0  0  0  0  0  0  0  0  0  0  0  0
   28.2336  -11.8499  -17.2862 C   0  0  0  0  0  0  0  0  0  0  0  0
   28.0167  -10.5263  -17.6619 C   0  0  0  0  0  0  0  0  0  0  0  0
   27.0565   -9.7554  -17.0752 C   0  0  0  0  0  0  0  0  0  0  0  0
   26.2764  -10.2984  -16.0812 C   0  0  0  0  0  0  0  0  0  0  0  0
   22.9181   -6.7437  -15.6355 C   0  0  0  0  0  0  0  0  0  0  0  0
   22.8169   -6.2306  -16.8022 O   0  0  0  0  0  0  0  0  0  0  0  0
   22.6389   -5.9178  -14.5289 N   0  0  0  0  0  0  0  0  0  0  0  0
   22.0964   -4.5680  -14.7336 C   0  0  1  0  0  0  0  0  0  0  0  0
   20.9111   -4.6098  -15.6342 C   0  0  0  0  0  0  0  0  0  0  0  0
   20.3158   -3.2477  -15.8241 C   0  0  0  0  0  0  0  0  0  0  0  0
   19.0954   -3.3690  -16.7210 C   0  0  0  0  0  0  0  0  0  0  0  0
   18.8455   -4.5024  -17.1864 O   0  0  0  0  0  0  0  0  0  0  0  0
   21.8426   -3.9176  -13.4505 C   0  0  0  0  0  0  0  0  0  0  0  0
   21.8664   -4.5094  -12.3559 O   0  0  0  0  0  0  0  0  0  0  0  0
   18.3322   -2.2474  -16.9783 O   0  0  0  0  0  0  0  0  0  0  0  0
   21.5445   -2.5367  -13.3653 O   0  0  0  0  0  0  0  0  0  0  0  0
  2 12  2  0
  2  1  1  0
  3  2  1  0
  4  5  1  0
  4  3  2  0
  5 11  2  0
  6  7  1  0
  6  5  1  0
  7  8  1  1
  9  7  1  0
  9 13  1  0
 10  9  2  0
 11 12  1  0
 14 13  1  0
 14 15  1  6
 15 16  1  0
 16 17  2  0
 18 17  1  0
 19 18  1  0
 20 19  2  0
 21 20  1  0
 22 21  2  0
 22 23  1  0
 23 24  2  0
 24 19  1  0
 24 16  1  0
 25 14  1  0
 25 26  2  0
 27 25  1  0
 28 27  1  0
 28 33  1  0
 28 29  1  1
 30 29  1  0
 30 31  1  0
 31 32  2  0
 31 35  1  0
 33 34  2  0
 33 36  1  0
M  END
$$$$
