YRD.pdb
     RDKit          3D

 32 32  0  0  1  0  0  0  0  0999 V2000
   14.7114  -13.1887  -25.5359 O   0  0  0  0  0  0  0  0  0  0  0  0
   15.3273  -12.8533  -24.3353 C   0  0  0  0  0  0  0  0  0  0  0  0
   14.5713  -12.4119  -23.2826 C   0  0  0  0  0  0  0  0  0  0  0  0
   15.1803  -12.0751  -22.0806 C   0  0  0  0  0  0  0  0  0  0  0  0
   16.5460  -12.1753  -21.9169 C   0  0  0  0  0  0  0  0  0  0  0  0
   17.1954  -11.8172  -20.6356 C   0  0  0  0  0  0  0  0  0  0  0  0
   17.5333  -13.0635  -19.8360 C   0  0  2  0  0  0  0  0  0  0  0  0
   16.3414  -13.6573  -19.2832 N   0  0  0  0  0  0  0  0  0  0  0  0
   18.3742  -12.5883  -18.6763 C   0  0  0  0  0  0  0  0  0  0  0  0
   17.8782  -12.5033  -17.5432 O   0  0  0  0  0  0  0  0  0  0  0  0
   17.2888  -12.6201  -22.9841 C   0  0  0  0  0  0  0  0  0  0  0  0
   16.7016  -12.9636  -24.1991 C   0  0  0  0  0  0  0  0  0  0  0  0
   27.2143  -13.0427  -16.8820 N   0  0  0  0  0  0  0  0  0  0  0  0
   26.5490  -12.4455  -15.7803 C   0  0  0  0  0  0  0  0  0  0  0  0
   27.1829  -12.1250  -14.7150 N   0  0  0  0  0  0  0  0  0  0  0  0
   25.1555  -12.2003  -15.8584 N   0  0  0  0  0  0  0  0  0  0  0  0
   24.3731  -12.6161  -17.0227 C   0  0  0  0  0  0  0  0  0  0  0  0
   22.9480  -12.0804  -16.7678 C   0  0  0  0  0  0  0  0  0  0  0  0
   22.0409  -12.4420  -17.9059 C   0  0  0  0  0  0  0  0  0  0  0  0
   20.6432  -11.9325  -17.8354 C   0  0  2  0  0  0  0  0  0  0  0  0
   19.7215  -12.2321  -18.8363 N   0  0  0  0  0  0  0  0  0  0  0  0
   20.6563  -10.4886  -17.5593 C   0  0  0  0  0  0  0  0  0  0  0  0
   20.9627   -9.7276  -18.5471 O   0  0  0  0  0  0  0  0  0  0  0  0
   26.8113  -11.5896  -13.9175 N   0  0  0  0  0  0  0  0  0  0  0  0
   20.3616   -9.9205  -16.3163 C   0  0  2  0  0  0  0  0  0  0  0  0
   20.4542   -8.4390  -16.2227 C   0  0  0  0  0  0  0  0  0  0  0  0
   19.1194   -7.9194  -15.7063 C   0  0  0  0  0  0  0  0  0  0  0  0
   19.2035   -6.4782  -15.4858 O   0  0  0  0  0  0  0  0  0  0  0  0
   20.2134   -5.8169  -15.7388 C   0  0  0  0  0  0  0  0  0  0  0  0
   21.5336   -8.1819  -15.2612 O   0  0  0  0  0  0  0  0  0  0  0  0
   22.0734   -9.1648  -14.6493 O   0  0  0  0  0  0  0  0  0  0  0  0
   18.1006   -5.7895  -14.9637 O   0  0  0  0  0  0  0  0  0  0  0  0
  2  1  1  0
  2 12  2  0
  3  2  1  0
  4  3  2  0
  4  5  1  0
  5 11  2  0
  6  5  1  0
  7  9  1  0
  7  6  1  0
  7  8  1  1
  9 10  2  0
 11 12  1  0
 14 15  2  0
 14 13  1  0
 16 14  1  0
 17 16  1  0
 18 17  1  0
 19 18  1  0
 20 19  1  6
 21 20  1  0
 21  9  1  0
 22 20  1  0
 23 22  2  0
 24 22  1  0
 25 26  1  1
 25 24  1  0
 26 27  1  0
 27 28  2  0
 27 31  1  0
 29 32  1  0
 29 25  1  0
 30 29  2  0
M  END
$$$$
