YRD.pdb
     RDKit          3D

 32 32  0  0  1  0  0  0  0  0999 V2000
   27.7536  -14.9918  -18.1007 O   0  0  0  0  0  0  0  0  0  0  0  0
   26.8094  -14.1703  -17.4951 C   0  0  0  0  0  0  0  0  0  0  0  0
   25.6186  -13.9233  -18.1242 C   0  0  0  0  0  0  0  0  0  0  0  0
   24.6710  -13.1035  -17.5249 C   0  0  0  0  0  0  0  0  0  0  0  0
   24.9011  -12.5235  -16.2949 C   0  0  0  0  0  0  0  0  0  0  0  0
   23.8911  -11.6503  -15.6555 C   0  0  0  0  0  0  0  0  0  0  0  0
   23.5198  -10.4962  -16.5705 C   0  0  2  0  0  0  0  0  0  0  0  0
   24.6275   -9.5862  -16.7239 N   0  0  0  0  0  0  0  0  0  0  0  0
   22.4220   -9.7464  -15.8560 C   0  0  0  0  0  0  0  0  0  0  0  0
   22.7065   -8.8659  -15.0308 O   0  0  0  0  0  0  0  0  0  0  0  0
   26.1016  -12.7825  -15.6783 C   0  0  0  0  0  0  0  0  0  0  0  0
   27.0673  -13.6007  -16.2589 C   0  0  0  0  0  0  0  0  0  0  0  0
   17.7502   -3.3632  -16.7989 N   0  0  0  0  0  0  0  0  0  0  0  0
   17.3216   -4.5856  -17.3778 C   0  0  0  0  0  0  0  0  0  0  0  0
   16.6284   -4.6046  -18.4542 N   0  0  0  0  0  0  0  0  0  0  0  0
   17.6651   -5.8099  -16.7525 N   0  0  0  0  0  0  0  0  0  0  0  0
   18.3726   -5.8390  -15.4722 C   0  0  0  0  0  0  0  0  0  0  0  0
   18.5035   -7.3347  -15.1133 C   0  0  0  0  0  0  0  0  0  0  0  0
   19.7044   -7.9315  -15.7845 C   0  0  0  0  0  0  0  0  0  0  0  0
   19.9637   -9.3760  -15.5309 C   0  0  2  0  0  0  0  0  0  0  0  0
   21.0660  -10.0145  -16.0954 N   0  0  0  0  0  0  0  0  0  0  0  0
   18.7372  -10.1491  -15.7742 C   0  0  0  0  0  0  0  0  0  0  0  0
   18.4737  -10.4185  -17.0016 O   0  0  0  0  0  0  0  0  0  0  0  0
   16.2604   -5.4392  -18.9324 N   0  0  0  0  0  0  0  0  0  0  0  0
   17.8714  -10.5915  -14.7695 C   0  0  1  0  0  0  0  0  0  0  0  0
   16.7077  -11.4087  -15.2059 C   0  0  0  0  0  0  0  0  0  0  0  0
   16.7007  -12.6887  -14.3815 C   0  0  0  0  0  0  0  0  0  0  0  0
   15.5740  -13.5269  -14.7823 O   0  0  0  0  0  0  0  0  0  0  0  0
   14.8031  -13.2253  -15.6967 C   0  0  0  0  0  0  0  0  0  0  0  0
   15.5288  -10.5827  -14.9169 O   0  0  0  0  0  0  0  0  0  0  0  0
   15.6637   -9.5239  -14.2150 O   0  0  0  0  0  0  0  0  0  0  0  0
   15.3343  -14.7350  -14.1142 O   0  0  0  0  0  0  0  0  0  0  0  0
  2  1  1  0
  2 12  2  0
  3  2  1  0
  4  3  2  0
  4  5  1  0
  5 11  2  0
  6  5  1  0
  7  9  1  0
  7  6  1  0
  7  8  1  1
  9 10  2  0
 11 12  1  0
 14 15  2  0
 14 13  1  0
 16 14  1  0
 17 16  1  0
 18 17  1  0
 19 18  1  0
 20 19  1  6
 21 20  1  0
 21  9  1  0
 22 20  1  0
 23 22  2  0
 24 22  1  0
 25 26  1  1
 25 24  1  0
 26 27  1  0
 27 28  2  0
 27 31  1  0
 29 32  1  0
 29 25  1  0
 30 29  2  0
M  END
$$$$
