YRD.pdb
     RDKit          3D

 32 32  0  0  1  0  0  0  0  0999 V2000
   29.1762  -20.6290   -3.8152 O   0  0  0  0  0  0  0  0  0  0  0  0
   28.5460  -20.4220   -5.0372 C   0  0  0  0  0  0  0  0  0  0  0  0
   28.9328  -21.1452   -6.1335 C   0  0  0  0  0  0  0  0  0  0  0  0
   28.3075  -20.9433   -7.3572 C   0  0  0  0  0  0  0  0  0  0  0  0
   27.2924  -20.0206   -7.4991 C   0  0  0  0  0  0  0  0  0  0  0  0
   26.6252  -19.8057   -8.8030 C   0  0  0  0  0  0  0  0  0  0  0  0
   27.1137  -20.8119   -9.8306 C   0  0  2  0  0  0  0  0  0  0  0  0
   28.5450  -20.7336   -9.9852 N   0  0  0  0  0  0  0  0  0  0  0  0
   26.4993  -20.3865  -11.1419 C   0  0  0  0  0  0  0  0  0  0  0  0
   26.9527  -19.4066  -11.7513 O   0  0  0  0  0  0  0  0  0  0  0  0
   26.9174  -19.3039   -6.3882 C   0  0  0  0  0  0  0  0  0  0  0  0
   27.5290  -19.4882   -5.1508 C   0  0  0  0  0  0  0  0  0  0  0  0
   26.1558  -26.1942  -15.4815 N   0  0  0  0  0  0  0  0  0  0  0  0
   26.1598  -25.0628  -16.3375 C   0  0  0  0  0  0  0  0  0  0  0  0
   26.0045  -25.1855  -17.6025 N   0  0  0  0  0  0  0  0  0  0  0  0
   26.3407  -23.7713  -15.7831 N   0  0  0  0  0  0  0  0  0  0  0  0
   26.3757  -23.5619  -14.3355 C   0  0  0  0  0  0  0  0  0  0  0  0
   26.5986  -22.0459  -14.1488 C   0  0  0  0  0  0  0  0  0  0  0  0
   25.2909  -21.3137  -14.2000 C   0  0  0  0  0  0  0  0  0  0  0  0
   24.7664  -20.7898  -12.9083 C   0  0  2  0  0  0  0  0  0  0  0  0
   25.4133  -21.0715  -11.7069 N   0  0  0  0  0  0  0  0  0  0  0  0
   23.3293  -21.0816  -12.8030 C   0  0  0  0  0  0  0  0  0  0  0  0
   23.0205  -22.2393  -12.3416 O   0  0  0  0  0  0  0  0  0  0  0  0
   25.9680  -24.4223  -18.2931 N   0  0  0  0  0  0  0  0  0  0  0  0
   22.3150  -20.1913  -13.1677 C   0  0  1  0  0  0  0  0  0  0  0  0
   20.9373  -20.7468  -13.2436 C   0  0  0  0  0  0  0  0  0  0  0  0
   20.0371  -19.8835  -12.3703 C   0  0  0  0  0  0  0  0  0  0  0  0
   19.3460  -20.7219  -11.3946 O   0  0  0  0  0  0  0  0  0  0  0  0
   19.4688  -21.9485  -11.3549 C   0  0  0  0  0  0  0  0  0  0  0  0
   20.5606  -20.6468  -14.6591 O   0  0  0  0  0  0  0  0  0  0  0  0
   19.4304  -21.1048  -15.0395 O   0  0  0  0  0  0  0  0  0  0  0  0
   18.4979  -20.1318  -10.4480 O   0  0  0  0  0  0  0  0  0  0  0  0
  2  1  1  0
  2 12  2  0
  3  2  1  0
  4  3  2  0
  4  5  1  0
  5 11  2  0
  6  5  1  0
  7  9  1  0
  7  6  1  0
  7  8  1  6
  9 10  2  0
 11 12  1  0
 14 15  2  0
 14 13  1  0
 16 14  1  0
 17 16  1  0
 18 17  1  0
 19 18  1  0
 20 19  1  6
 21 20  1  0
 21  9  1  0
 22 20  1  0
 23 22  2  0
 24 22  1  0
 25 26  1  6
 25 24  1  0
 26 27  1  0
 27 28  2  0
 27 31  1  0
 29 32  1  0
 29 25  1  0
 30 29  2  0
M  END
$$$$
