YRD.pdb
     RDKit          3D

 32 32  0  0  1  0  0  0  0  0999 V2000
   31.7419  -22.2158   -8.8303 O   0  0  0  0  0  0  0  0  0  0  0  0
   30.4112  -21.9310   -9.1156 C   0  0  0  0  0  0  0  0  0  0  0  0
   29.7846  -22.5726  -10.1502 C   0  0  0  0  0  0  0  0  0  0  0  0
   28.4555  -22.2927  -10.4407 C   0  0  0  0  0  0  0  0  0  0  0  0
   27.7398  -21.3726   -9.7037 C   0  0  0  0  0  0  0  0  0  0  0  0
   26.3230  -21.0746  -10.0124 C   0  0  0  0  0  0  0  0  0  0  0  0
   26.1276  -20.8738  -11.5053 C   0  0  2  0  0  0  0  0  0  0  0  0
   27.1140  -19.9650  -12.0342 N   0  0  0  0  0  0  0  0  0  0  0  0
   24.7816  -20.2076  -11.6543 C   0  0  0  0  0  0  0  0  0  0  0  0
   24.6666  -18.9889  -11.4574 O   0  0  0  0  0  0  0  0  0  0  0  0
   28.3849  -20.7384   -8.6691 C   0  0  0  0  0  0  0  0  0  0  0  0
   29.7165  -21.0017   -8.3586 C   0  0  0  0  0  0  0  0  0  0  0  0
   22.1005  -15.4232  -16.3034 N   0  0  0  0  0  0  0  0  0  0  0  0
   22.0648  -16.4967  -17.2305 C   0  0  0  0  0  0  0  0  0  0  0  0
   22.0291  -16.2843  -18.4926 N   0  0  0  0  0  0  0  0  0  0  0  0
   22.0668  -17.8303  -16.7515 N   0  0  0  0  0  0  0  0  0  0  0  0
   21.8818  -18.1298  -15.3314 C   0  0  0  0  0  0  0  0  0  0  0  0
   21.9617  -19.6677  -15.2259 C   0  0  0  0  0  0  0  0  0  0  0  0
   23.0715  -20.0727  -14.3023 C   0  0  0  0  0  0  0  0  0  0  0  0
   22.6732  -20.5784  -12.9592 C   0  0  2  0  0  0  0  0  0  0  0  0
   23.6341  -20.9301  -12.0136 N   0  0  0  0  0  0  0  0  0  0  0  0
   21.6782  -21.6503  -13.1092 C   0  0  0  0  0  0  0  0  0  0  0  0
   22.1116  -22.7601  -13.5877 O   0  0  0  0  0  0  0  0  0  0  0  0
   21.9679  -16.9973  -19.2333 N   0  0  0  0  0  0  0  0  0  0  0  0
   20.3280  -21.5264  -12.7681 C   0  0  2  0  0  0  0  0  0  0  0  0
   19.4903  -22.7469  -12.9129 C   0  0  0  0  0  0  0  0  0  0  0  0
   18.1193  -22.4447  -12.3236 C   0  0  0  0  0  0  0  0  0  0  0  0
   18.1381  -22.6850  -10.8832 O   0  0  0  0  0  0  0  0  0  0  0  0
   19.1253  -23.1224  -10.2871 C   0  0  0  0  0  0  0  0  0  0  0  0
   19.4073  -22.9861  -14.3591 O   0  0  0  0  0  0  0  0  0  0  0  0
   19.3209  -21.9898  -15.1539 O   0  0  0  0  0  0  0  0  0  0  0  0
   16.9954  -22.4147  -10.1185 O   0  0  0  0  0  0  0  0  0  0  0  0
  2  1  1  0
  2 12  2  0
  3  2  1  0
  4  3  2  0
  4  5  1  0
  5 11  2  0
  6  5  1  0
  7  9  1  0
  7  6  1  0
  7  8  1  1
  9 10  2  0
 11 12  1  0
 14 15  2  0
 14 13  1  0
 16 14  1  0
 17 16  1  0
 18 17  1  0
 19 18  1  0
 20 19  1  6
 21 20  1  0
 21  9  1  0
 22 20  1  0
 23 22  2  0
 24 22  1  0
 25 26  1  1
 25 24  1  0
 26 27  1  0
 27 28  2  0
 27 31  1  0
 29 32  1  0
 29 25  1  0
 30 29  2  0
M  END
$$$$
