YRD.pdb
     RDKit          3D

 32 32  0  0  1  0  0  0  0  0999 V2000
   25.5700   -1.0110  -17.1752 O   0  0  0  0  0  0  0  0  0  0  0  0
   25.0138   -2.2853  -17.1622 C   0  0  0  0  0  0  0  0  0  0  0  0
   24.9279   -2.9783  -15.9845 C   0  0  0  0  0  0  0  0  0  0  0  0
   24.3735   -4.2517  -15.9645 C   0  0  0  0  0  0  0  0  0  0  0  0
   23.9002   -4.8448  -17.1160 C   0  0  0  0  0  0  0  0  0  0  0  0
   23.3085   -6.2017  -17.0949 C   0  0  0  0  0  0  0  0  0  0  0  0
   24.3464   -7.2478  -17.4627 C   0  0  2  0  0  0  0  0  0  0  0  0
   24.7629   -7.0973  -18.8348 N   0  0  0  0  0  0  0  0  0  0  0  0
   23.6411   -8.5777  -17.3538 C   0  0  0  0  0  0  0  0  0  0  0  0
   23.0504   -9.0498  -18.3364 O   0  0  0  0  0  0  0  0  0  0  0  0
   23.9946   -4.1346  -18.2887 C   0  0  0  0  0  0  0  0  0  0  0  0
   24.5463   -2.8568  -18.3344 C   0  0  0  0  0  0  0  0  0  0  0  0
   25.1963  -12.7869  -19.2134 N   0  0  0  0  0  0  0  0  0  0  0  0
   26.0406  -13.6210  -18.4360 C   0  0  0  0  0  0  0  0  0  0  0  0
   27.0796  -14.1720  -18.9422 N   0  0  0  0  0  0  0  0  0  0  0  0
   25.7280  -13.8510  -17.0732 N   0  0  0  0  0  0  0  0  0  0  0  0
   24.4683  -13.3867  -16.4918 C   0  0  0  0  0  0  0  0  0  0  0  0
   24.8610  -12.2496  -15.5246 C   0  0  0  0  0  0  0  0  0  0  0  0
   23.6372  -11.5463  -15.0182 C   0  0  0  0  0  0  0  0  0  0  0  0
   23.0172  -10.5434  -15.9281 C   0  0  2  0  0  0  0  0  0  0  0  0
   23.6288   -9.3130  -16.1592 N   0  0  0  0  0  0  0  0  0  0  0  0
   21.6029  -10.3593  -15.5714 C   0  0  0  0  0  0  0  0  0  0  0  0
   21.3706   -9.6243  -14.5445 O   0  0  0  0  0  0  0  0  0  0  0  0
   27.7150  -14.8321  -18.4716 N   0  0  0  0  0  0  0  0  0  0  0  0
   20.5329  -10.9254  -16.2709 C   0  0  2  0  0  0  0  0  0  0  0  0
   19.1681  -10.5985  -15.7783 C   0  0  0  0  0  0  0  0  0  0  0  0
   18.4460   -9.8321  -16.8780 C   0  0  0  0  0  0  0  0  0  0  0  0
   17.0763   -9.5447  -16.4607 O   0  0  0  0  0  0  0  0  0  0  0  0
   16.6316   -9.8550  -15.3529 C   0  0  0  0  0  0  0  0  0  0  0  0
   18.5298  -11.8965  -15.5265 O   0  0  0  0  0  0  0  0  0  0  0  0
   19.1449  -12.9688  -15.8482 O   0  0  0  0  0  0  0  0  0  0  0  0
   16.2055   -8.8870  -17.3396 O   0  0  0  0  0  0  0  0  0  0  0  0
  2  1  1  0
  2 12  2  0
  3  2  1  0
  4  3  2  0
  4  5  1  0
  5 11  2  0
  6  5  1  0
  7  9  1  0
  7  6  1  0
  7  8  1  6
  9 10  2  0
 11 12  1  0
 14 15  2  0
 14 13  1  0
 16 14  1  0
 17 16  1  0
 18 17  1  0
 19 18  1  0
 20 19  1  1
 21 20  1  0
 21  9  1  0
 22 20  1  0
 23 22  2  0
 24 22  1  0
 25 26  1  6
 25 24  1  0
 26 27  1  0
 27 28  2  0
 27 31  1  0
 29 32  1  0
 29 25  1  0
 30 29  2  0
M  END
$$$$
