YRD.pdb
     RDKit          3D

 32 32  0  0  1  0  0  0  0  0999 V2000
   19.0462   -8.6740  -19.7491 O   0  0  0  0  0  0  0  0  0  0  0  0
   19.5625   -9.8997  -19.3437 C   0  0  0  0  0  0  0  0  0  0  0  0
   19.2579  -11.0331  -20.0489 C   0  0  0  0  0  0  0  0  0  0  0  0
   19.7702  -12.2608  -19.6493 C   0  0  0  0  0  0  0  0  0  0  0  0
   20.5897  -12.3697  -18.5455 C   0  0  0  0  0  0  0  0  0  0  0  0
   21.1366  -13.6779  -18.1198 C   0  0  0  0  0  0  0  0  0  0  0  0
   22.5730  -13.8390  -18.5866 C   0  0  2  0  0  0  0  0  0  0  0  0
   22.6308  -14.0196  -20.0159 N   0  0  0  0  0  0  0  0  0  0  0  0
   23.0658  -15.1181  -17.9550 C   0  0  0  0  0  0  0  0  0  0  0  0
   22.9724  -16.1907  -18.5699 O   0  0  0  0  0  0  0  0  0  0  0  0
   20.8847  -11.2218  -17.8500 C   0  0  0  0  0  0  0  0  0  0  0  0
   20.3833   -9.9797  -18.2306 C   0  0  0  0  0  0  0  0  0  0  0  0
   27.9376  -20.0782  -14.0726 N   0  0  0  0  0  0  0  0  0  0  0  0
   27.3020  -20.0327  -15.3403 C   0  0  0  0  0  0  0  0  0  0  0  0
   27.0069  -21.1049  -15.9750 N   0  0  0  0  0  0  0  0  0  0  0  0
   26.9889  -18.7769  -15.9173 N   0  0  0  0  0  0  0  0  0  0  0  0
   27.1694  -17.5305  -15.1727 C   0  0  0  0  0  0  0  0  0  0  0  0
   25.8399  -17.3100  -14.4198 C   0  0  0  0  0  0  0  0  0  0  0  0
   25.1594  -16.0673  -14.9110 C   0  0  0  0  0  0  0  0  0  0  0  0
   24.1501  -16.2401  -15.9925 C   0  0  2  0  0  0  0  0  0  0  0  0
   23.6360  -15.1386  -16.6734 N   0  0  0  0  0  0  0  0  0  0  0  0
   23.0632  -17.1103  -15.5206 C   0  0  0  0  0  0  0  0  0  0  0  0
   21.9791  -16.5192  -15.1685 O   0  0  0  0  0  0  0  0  0  0  0  0
   26.5289  -21.1674  -16.8851 N   0  0  0  0  0  0  0  0  0  0  0  0
   23.1474  -18.5034  -15.4385 C   0  0  1  0  0  0  0  0  0  0  0  0
   21.9484  -19.2132  -14.9179 C   0  0  0  0  0  0  0  0  0  0  0  0
   21.2530  -18.2899  -13.9269 C   0  0  0  0  0  0  0  0  0  0  0  0
   20.0642  -18.9475  -13.3912 O   0  0  0  0  0  0  0  0  0  0  0  0
   19.1010  -18.3275  -12.9338 C   0  0  0  0  0  0  0  0  0  0  0  0
   21.1074  -19.4604  -16.0957 O   0  0  0  0  0  0  0  0  0  0  0  0
   21.5199  -19.0924  -17.2473 O   0  0  0  0  0  0  0  0  0  0  0  0
   19.9875  -20.3466  -13.3844 O   0  0  0  0  0  0  0  0  0  0  0  0
  2  1  1  0
  2 12  2  0
  3  2  1  0
  4  3  2  0
  4  5  1  0
  5 11  2  0
  6  5  1  0
  7  9  1  0
  7  6  1  0
  7  8  1  6
  9 10  2  0
 11 12  1  0
 14 15  2  0
 14 13  1  0
 16 14  1  0
 17 16  1  0
 18 17  1  0
 19 18  1  0
 20 19  1  1
 21 20  1  0
 21  9  1  0
 22 20  1  0
 23 22  2  0
 24 22  1  0
 25 26  1  6
 25 24  1  0
 26 27  1  0
 27 28  2  0
 27 31  1  0
 29 32  1  0
 29 25  1  0
 30 29  2  0
M  END
$$$$
