YRD.pdb
     RDKit          3D

 32 32  0  0  1  0  0  0  0  0999 V2000
   21.7291   -9.8867    6.2223 O   0  0  0  0  0  0  0  0  0  0  0  0
   21.1006  -11.1211    6.3429 C   0  0  0  0  0  0  0  0  0  0  0  0
   20.1715  -11.5054    5.4134 C   0  0  0  0  0  0  0  0  0  0  0  0
   19.5399  -12.7371    5.5280 C   0  0  0  0  0  0  0  0  0  0  0  0
   19.8281  -13.5957    6.5681 C   0  0  0  0  0  0  0  0  0  0  0  0
   19.1557  -14.9089    6.6901 C   0  0  0  0  0  0  0  0  0  0  0  0
   17.6716  -14.7313    6.9605 C   0  0  2  0  0  0  0  0  0  0  0  0
   17.4512  -14.1963    8.2811 N   0  0  0  0  0  0  0  0  0  0  0  0
   17.0839  -16.1212    6.9383 C   0  0  0  0  0  0  0  0  0  0  0  0
   17.0207  -16.7856    7.9831 O   0  0  0  0  0  0  0  0  0  0  0  0
   20.7630  -13.1934    7.4914 C   0  0  0  0  0  0  0  0  0  0  0  0
   21.4096  -11.9637    7.3983 C   0  0  0  0  0  0  0  0  0  0  0  0
   16.3000  -22.6395    2.4896 N   0  0  0  0  0  0  0  0  0  0  0  0
   14.8892  -22.5561    2.6148 C   0  0  0  0  0  0  0  0  0  0  0  0
   14.1733  -23.6045    2.7814 N   0  0  0  0  0  0  0  0  0  0  0  0
   14.2586  -21.2886    2.5528 N   0  0  0  0  0  0  0  0  0  0  0  0
   15.0385  -20.0524    2.4877 C   0  0  0  0  0  0  0  0  0  0  0  0
   15.5717  -19.8316    3.9194 C   0  0  0  0  0  0  0  0  0  0  0  0
   15.4379  -18.3906    4.3121 C   0  0  0  0  0  0  0  0  0  0  0  0
   16.0809  -17.9835    5.5924 C   0  0  2  0  0  0  0  0  0  0  0  0
   16.5978  -16.7002    5.7566 N   0  0  0  0  0  0  0  0  0  0  0  0
   17.0697  -18.9949    5.9929 C   0  0  0  0  0  0  0  0  0  0  0  0
   18.1499  -19.0341    5.2998 O   0  0  0  0  0  0  0  0  0  0  0  0
   13.1529  -23.6356    2.9173 N   0  0  0  0  0  0  0  0  0  0  0  0
   16.8993  -19.8871    7.0558 C   0  0  1  0  0  0  0  0  0  0  0  0
   18.0257  -20.8189    7.3298 C   0  0  0  0  0  0  0  0  0  0  0  0
   18.3573  -20.7271    8.8130 C   0  0  0  0  0  0  0  0  0  0  0  0
   19.3772  -19.7041    9.0276 O   0  0  0  0  0  0  0  0  0  0  0  0
   19.9461  -19.1174    8.1039 C   0  0  0  0  0  0  0  0  0  0  0  0
   17.5161  -22.1506    6.9796 O   0  0  0  0  0  0  0  0  0  0  0  0
   18.2677  -23.1706    7.1422 O   0  0  0  0  0  0  0  0  0  0  0  0
   19.7458  -19.3532   10.3332 O   0  0  0  0  0  0  0  0  0  0  0  0
  2  1  1  0
  2 12  2  0
  3  2  1  0
  4  3  2  0
  4  5  1  0
  5 11  2  0
  6  5  1  0
  7  9  1  0
  7  6  1  0
  7  8  1  1
  9 10  2  0
 11 12  1  0
 14 15  2  0
 14 13  1  0
 16 14  1  0
 17 16  1  0
 18 17  1  0
 19 18  1  0
 20 19  1  6
 21 20  1  0
 21  9  1  0
 22 20  1  0
 23 22  2  0
 24 22  1  0
 25 26  1  1
 25 24  1  0
 26 27  1  0
 27 28  2  0
 27 31  1  0
 29 32  1  0
 29 25  1  0
 30 29  2  0
M  END
$$$$
