YRD.pdb
     RDKit          3D

 32 32  0  0  1  0  0  0  0  0999 V2000
   18.2029  -25.2764   -7.4200 O   0  0  0  0  0  0  0  0  0  0  0  0
   18.6321  -24.5722   -8.5395 C   0  0  0  0  0  0  0  0  0  0  0  0
   17.7264  -24.1935   -9.4938 C   0  0  0  0  0  0  0  0  0  0  0  0
   18.1485  -23.4899  -10.6146 C   0  0  0  0  0  0  0  0  0  0  0  0
   19.4749  -23.1576  -10.7939 C   0  0  0  0  0  0  0  0  0  0  0  0
   19.9251  -22.4071  -11.9878 C   0  0  0  0  0  0  0  0  0  0  0  0
   20.3204  -20.9887  -11.6152 C   0  0  2  0  0  0  0  0  0  0  0  0
   19.1880  -20.2583  -11.1023 N   0  0  0  0  0  0  0  0  0  0  0  0
   20.7300  -20.3266  -12.9082 C   0  0  0  0  0  0  0  0  0  0  0  0
   19.9847  -19.4917  -13.4417 O   0  0  0  0  0  0  0  0  0  0  0  0
   20.3698  -23.5459   -9.8259 C   0  0  0  0  0  0  0  0  0  0  0  0
   19.9711  -24.2519   -8.6938 C   0  0  0  0  0  0  0  0  0  0  0  0
   28.5120  -21.0234  -16.4190 N   0  0  0  0  0  0  0  0  0  0  0  0
   27.3934  -21.6958  -15.8625 C   0  0  0  0  0  0  0  0  0  0  0  0
   27.4849  -22.9007  -15.4393 N   0  0  0  0  0  0  0  0  0  0  0  0
   26.1497  -21.0224  -15.7745 N   0  0  0  0  0  0  0  0  0  0  0  0
   25.9477  -19.7120  -16.3930 C   0  0  0  0  0  0  0  0  0  0  0  0
   24.4714  -19.3551  -16.1175 C   0  0  0  0  0  0  0  0  0  0  0  0
   23.8992  -20.2635  -15.0704 C   0  0  0  0  0  0  0  0  0  0  0  0
   22.4857  -20.0173  -14.6710 C   0  0  2  0  0  0  0  0  0  0  0  0
   21.9455  -20.6270  -13.5406 N   0  0  0  0  0  0  0  0  0  0  0  0
   21.6035  -20.2053  -15.8319 C   0  0  0  0  0  0  0  0  0  0  0  0
   20.9061  -21.2833  -15.8423 O   0  0  0  0  0  0  0  0  0  0  0  0
   26.7164  -23.4850  -15.0805 N   0  0  0  0  0  0  0  0  0  0  0  0
   21.4892  -19.2994  -16.8905 C   0  0  2  0  0  0  0  0  0  0  0  0
   20.5305  -19.6553  -17.9706 C   0  0  0  0  0  0  0  0  0  0  0  0
   20.3460  -21.1665  -17.9517 C   0  0  0  0  0  0  0  0  0  0  0  0
   20.6124  -21.7122  -19.2799 O   0  0  0  0  0  0  0  0  0  0  0  0
   21.0010  -21.0218  -20.2252 C   0  0  0  0  0  0  0  0  0  0  0  0
   19.2842  -18.9623  -17.6212 O   0  0  0  0  0  0  0  0  0  0  0  0
   18.6028  -18.3979  -18.5426 O   0  0  0  0  0  0  0  0  0  0  0  0
   20.4265  -23.0802  -19.5193 O   0  0  0  0  0  0  0  0  0  0  0  0
  2  1  1  0
  2 12  2  0
  3  2  1  0
  4  3  2  0
  4  5  1  0
  5 11  2  0
  6  5  1  0
  7  9  1  0
  7  6  1  0
  7  8  1  6
  9 10  2  0
 11 12  1  0
 14 15  2  0
 14 13  1  0
 16 14  1  0
 17 16  1  0
 18 17  1  0
 19 18  1  0
 20 19  1  6
 21 20  1  0
 21  9  1  0
 22 20  1  0
 23 22  2  0
 24 22  1  0
 25 26  1  6
 25 24  1  0
 26 27  1  0
 27 28  2  0
 27 31  1  0
 29 32  1  0
 29 25  1  0
 30 29  2  0
M  END
$$$$
