YRD.pdb
     RDKit          3D

 32 32  0  0  1  0  0  0  0  0999 V2000
   26.7307  -14.5943  -21.2810 O   0  0  0  0  0  0  0  0  0  0  0  0
   26.5282  -15.5206  -20.2641 C   0  0  0  0  0  0  0  0  0  0  0  0
   27.4035  -15.5793  -19.2128 C   0  0  0  0  0  0  0  0  0  0  0  0
   27.2072  -16.5024  -18.1937 C   0  0  0  0  0  0  0  0  0  0  0  0
   26.1383  -17.3737  -18.2127 C   0  0  0  0  0  0  0  0  0  0  0  0
   25.9282  -18.3571  -17.1263 C   0  0  0  0  0  0  0  0  0  0  0  0
   27.0246  -19.4083  -17.1317 C   0  0  2  0  0  0  0  0  0  0  0  0
   26.8503  -20.3258  -18.2302 N   0  0  0  0  0  0  0  0  0  0  0  0
   26.8396  -20.1968  -15.8582 C   0  0  0  0  0  0  0  0  0  0  0  0
   25.9743  -21.0825  -15.7962 O   0  0  0  0  0  0  0  0  0  0  0  0
   25.2702  -17.3005  -19.2756 C   0  0  0  0  0  0  0  0  0  0  0  0
   25.4458  -16.3840  -20.3092 C   0  0  0  0  0  0  0  0  0  0  0  0
   32.5445  -21.8019   -9.4551 N   0  0  0  0  0  0  0  0  0  0  0  0
   32.1845  -22.2402  -10.7557 C   0  0  0  0  0  0  0  0  0  0  0  0
   32.9866  -22.9398  -11.4674 N   0  0  0  0  0  0  0  0  0  0  0  0
   30.9133  -21.8961  -11.2790 N   0  0  0  0  0  0  0  0  0  0  0  0
   29.8997  -21.2435  -10.4500 C   0  0  0  0  0  0  0  0  0  0  0  0
   28.5936  -21.3190  -11.2693 C   0  0  0  0  0  0  0  0  0  0  0  0
   28.7758  -20.6665  -12.6071 C   0  0  0  0  0  0  0  0  0  0  0  0
   27.5905  -20.6465  -13.5087 C   0  0  2  0  0  0  0  0  0  0  0  0
   27.6252  -19.9596  -14.7204 N   0  0  0  0  0  0  0  0  0  0  0  0
   26.3910  -20.2813  -12.7411 C   0  0  0  0  0  0  0  0  0  0  0  0
   26.2121  -19.0265  -12.5361 O   0  0  0  0  0  0  0  0  0  0  0  0
   32.8260  -23.2670  -12.4306 N   0  0  0  0  0  0  0  0  0  0  0  0
   25.4653  -21.2012  -12.2395 C   0  0  2  0  0  0  0  0  0  0  0  0
   24.2765  -20.6379  -11.5452 C   0  0  0  0  0  0  0  0  0  0  0  0
   23.0331  -21.1440  -12.2636 C   0  0  0  0  0  0  0  0  0  0  0  0
   21.8383  -20.7187  -11.5396 O   0  0  0  0  0  0  0  0  0  0  0  0
   21.4715  -21.2384  -10.4828 C   0  0  0  0  0  0  0  0  0  0  0  0
   24.3494  -21.1599  -10.1749 O   0  0  0  0  0  0  0  0  0  0  0  0
   25.0680  -22.1884   -9.9347 O   0  0  0  0  0  0  0  0  0  0  0  0
   21.0537  -19.6741  -12.0462 O   0  0  0  0  0  0  0  0  0  0  0  0
  2  1  1  0
  2 12  2  0
  3  2  1  0
  4  3  2  0
  4  5  1  0
  5 11  2  0
  6  5  1  0
  7  9  1  0
  7  6  1  0
  7  8  1  6
  9 10  2  0
 11 12  1  0
 14 15  2  0
 14 13  1  0
 16 14  1  0
 17 16  1  0
 18 17  1  0
 19 18  1  0
 20 19  1  1
 21 20  1  0
 21  9  1  0
 22 20  1  0
 23 22  2  0
 24 22  1  0
 25 26  1  6
 25 24  1  0
 26 27  1  0
 27 28  2  0
 27 31  1  0
 29 32  1  0
 29 25  1  0
 30 29  2  0
M  END
$$$$
