YRD.pdb
     RDKit          3D

 32 32  0  0  1  0  0  0  0  0999 V2000
   21.4521   -7.0874  -13.3877 O   0  0  0  0  0  0  0  0  0  0  0  0
   21.6639   -8.3981  -13.8004 C   0  0  0  0  0  0  0  0  0  0  0  0
   20.9042   -8.9248  -14.8104 C   0  0  0  0  0  0  0  0  0  0  0  0
   21.1105  -10.2335  -15.2275 C   0  0  0  0  0  0  0  0  0  0  0  0
   22.0746  -11.0278  -14.6430 C   0  0  0  0  0  0  0  0  0  0  0  0
   22.2953  -12.4224  -15.0878 C   0  0  0  0  0  0  0  0  0  0  0  0
   23.5731  -12.5326  -15.9015 C   0  0  2  0  0  0  0  0  0  0  0  0
   23.4197  -11.8966  -17.1863 N   0  0  0  0  0  0  0  0  0  0  0  0
   23.7696  -14.0075  -16.1543 C   0  0  0  0  0  0  0  0  0  0  0  0
   23.2988  -14.5308  -17.1749 O   0  0  0  0  0  0  0  0  0  0  0  0
   22.8275  -10.4826  -13.6309 C   0  0  0  0  0  0  0  0  0  0  0  0
   22.6395   -9.1735  -13.1952 C   0  0  0  0  0  0  0  0  0  0  0  0
   26.9115  -21.4410  -15.3571 N   0  0  0  0  0  0  0  0  0  0  0  0
   27.7780  -20.4749  -15.9308 C   0  0  0  0  0  0  0  0  0  0  0  0
   28.3557  -20.6837  -17.0542 N   0  0  0  0  0  0  0  0  0  0  0  0
   28.0108  -19.2557  -15.2473 N   0  0  0  0  0  0  0  0  0  0  0  0
   27.2001  -18.8619  -14.0947 C   0  0  0  0  0  0  0  0  0  0  0  0
   25.8715  -18.3470  -14.6884 C   0  0  0  0  0  0  0  0  0  0  0  0
   25.8501  -16.8476  -14.7027 C   0  0  0  0  0  0  0  0  0  0  0  0
   24.6690  -16.2014  -15.3396 C   0  0  2  0  0  0  0  0  0  0  0  0
   24.4782  -14.8235  -15.2600 N   0  0  0  0  0  0  0  0  0  0  0  0
   23.4445  -16.9166  -14.9516 C   0  0  0  0  0  0  0  0  0  0  0  0
   22.8466  -16.4838  -13.9011 O   0  0  0  0  0  0  0  0  0  0  0  0
   29.0268  -20.0598  -17.5243 N   0  0  0  0  0  0  0  0  0  0  0  0
   22.9154  -18.0085  -15.6461 C   0  0  1  0  0  0  0  0  0  0  0  0
   21.6084  -18.5323  -15.1668 C   0  0  0  0  0  0  0  0  0  0  0  0
   20.5836  -17.4129  -15.2893 C   0  0  0  0  0  0  0  0  0  0  0  0
   19.3695  -17.7745  -14.5626 O   0  0  0  0  0  0  0  0  0  0  0  0
   19.3531  -18.6064  -13.6522 C   0  0  0  0  0  0  0  0  0  0  0  0
   21.2887  -19.6477  -16.0663 O   0  0  0  0  0  0  0  0  0  0  0  0
   20.9464  -20.7737  -15.5695 O   0  0  0  0  0  0  0  0  0  0  0  0
   18.1530  -17.1634  -14.8943 O   0  0  0  0  0  0  0  0  0  0  0  0
  2  1  1  0
  2 12  2  0
  3  2  1  0
  4  3  2  0
  4  5  1  0
  5 11  2  0
  6  5  1  0
  7  9  1  0
  7  6  1  0
  7  8  1  6
  9 10  2  0
 11 12  1  0
 14 15  2  0
 14 13  1  0
 16 14  1  0
 17 16  1  0
 18 17  1  0
 19 18  1  0
 20 19  1  1
 21 20  1  0
 21  9  1  0
 22 20  1  0
 23 22  2  0
 24 22  1  0
 25 26  1  6
 25 24  1  0
 26 27  1  0
 27 28  2  0
 27 31  1  0
 29 32  1  0
 29 25  1  0
 30 29  2  0
M  END
$$$$
