YRD.pdb
     RDKit          3D

 32 32  0  0  1  0  0  0  0  0999 V2000
   26.1273  -19.8879   -7.9148 O   0  0  0  0  0  0  0  0  0  0  0  0
   25.7271  -20.4348   -9.1289 C   0  0  0  0  0  0  0  0  0  0  0  0
   24.3997  -20.4496   -9.4641 C   0  0  0  0  0  0  0  0  0  0  0  0
   23.9932  -20.9946  -10.6753 C   0  0  0  0  0  0  0  0  0  0  0  0
   24.9044  -21.5285  -11.5622 C   0  0  0  0  0  0  0  0  0  0  0  0
   24.4716  -22.1087  -12.8535 C   0  0  0  0  0  0  0  0  0  0  0  0
   25.5840  -22.0200  -13.8839 C   0  0  2  0  0  0  0  0  0  0  0  0
   25.8997  -20.6449  -14.1810 N   0  0  0  0  0  0  0  0  0  0  0  0
   25.0220  -22.6311  -15.1443 C   0  0  0  0  0  0  0  0  0  0  0  0
   24.3221  -21.9487  -15.9068 O   0  0  0  0  0  0  0  0  0  0  0  0
   26.2323  -21.5051  -11.2091 C   0  0  0  0  0  0  0  0  0  0  0  0
   26.6645  -20.9645  -10.0007 C   0  0  0  0  0  0  0  0  0  0  0  0
   29.2685  -28.1983  -15.8652 N   0  0  0  0  0  0  0  0  0  0  0  0
   28.2459  -28.8531  -16.5991 C   0  0  0  0  0  0  0  0  0  0  0  0
   27.9413  -30.0753  -16.3695 N   0  0  0  0  0  0  0  0  0  0  0  0
   27.5486  -28.1422  -17.6072 N   0  0  0  0  0  0  0  0  0  0  0  0
   27.7767  -26.7140  -17.8284 C   0  0  0  0  0  0  0  0  0  0  0  0
   26.9018  -25.9948  -16.7795 C   0  0  0  0  0  0  0  0  0  0  0  0
   25.5932  -25.5808  -17.3837 C   0  0  0  0  0  0  0  0  0  0  0  0
   24.7371  -24.6744  -16.5690 C   0  0  2  0  0  0  0  0  0  0  0  0
   25.2667  -23.9682  -15.4910 N   0  0  0  0  0  0  0  0  0  0  0  0
   23.5081  -25.3775  -16.1735 C   0  0  0  0  0  0  0  0  0  0  0  0
   23.3271  -25.5320  -14.9118 O   0  0  0  0  0  0  0  0  0  0  0  0
   27.2037  -30.6219  -16.8363 N   0  0  0  0  0  0  0  0  0  0  0  0
   22.5574  -25.8703  -17.0723 C   0  0  2  0  0  0  0  0  0  0  0  0
   21.1975  -26.1283  -16.5278 C   0  0  0  0  0  0  0  0  0  0  0  0
   20.6444  -24.8082  -16.0085 C   0  0  0  0  0  0  0  0  0  0  0  0
   19.2704  -24.9956  -15.5505 O   0  0  0  0  0  0  0  0  0  0  0  0
   18.5781  -25.9624  -15.8781 C   0  0  0  0  0  0  0  0  0  0  0  0
   20.4149  -26.6218  -17.6678 O   0  0  0  0  0  0  0  0  0  0  0  0
   19.5918  -27.5828  -17.4922 O   0  0  0  0  0  0  0  0  0  0  0  0
   18.6865  -24.0486  -14.6986 O   0  0  0  0  0  0  0  0  0  0  0  0
  2  1  1  0
  2 12  2  0
  3  2  1  0
  4  3  2  0
  4  5  1  0
  5 11  2  0
  6  5  1  0
  7  9  1  0
  7  6  1  0
  7  8  1  6
  9 10  2  0
 11 12  1  0
 14 15  2  0
 14 13  1  0
 16 14  1  0
 17 16  1  0
 18 17  1  0
 19 18  1  0
 20 19  1  1
 21 20  1  0
 21  9  1  0
 22 20  1  0
 23 22  2  0
 24 22  1  0
 25 26  1  6
 25 24  1  0
 26 27  1  0
 27 28  2  0
 27 31  1  0
 29 32  1  0
 29 25  1  0
 30 29  2  0
M  END
$$$$
