YRD.pdb
     RDKit          3D

 32 32  0  0  1  0  0  0  0  0999 V2000
   29.1259  -20.0981   -3.7224 O   0  0  0  0  0  0  0  0  0  0  0  0
   28.5512  -19.9520   -4.9800 C   0  0  0  0  0  0  0  0  0  0  0  0
   27.3569  -20.5615   -5.2574 C   0  0  0  0  0  0  0  0  0  0  0  0
   26.7774  -20.4198   -6.5117 C   0  0  0  0  0  0  0  0  0  0  0  0
   27.3816  -19.6702   -7.4992 C   0  0  0  0  0  0  0  0  0  0  0  0
   26.7639  -19.5183   -8.8359 C   0  0  0  0  0  0  0  0  0  0  0  0
   27.0377  -20.7385   -9.6979 C   0  0  2  0  0  0  0  0  0  0  0  0
   28.4531  -20.9061   -9.9152 N   0  0  0  0  0  0  0  0  0  0  0  0
   26.4128  -20.4391  -11.0387 C   0  0  0  0  0  0  0  0  0  0  0  0
   26.7026  -19.3940  -11.6396 O   0  0  0  0  0  0  0  0  0  0  0  0
   28.5797  -19.0658   -7.2030 C   0  0  0  0  0  0  0  0  0  0  0  0
   29.1806  -19.1931   -5.9533 C   0  0  0  0  0  0  0  0  0  0  0  0
   28.8094  -24.6458  -15.7583 N   0  0  0  0  0  0  0  0  0  0  0  0
   28.7092  -23.4793  -16.5597 C   0  0  0  0  0  0  0  0  0  0  0  0
   29.6675  -23.1153  -17.3269 N   0  0  0  0  0  0  0  0  0  0  0  0
   27.5268  -22.7000  -16.5096 N   0  0  0  0  0  0  0  0  0  0  0  0
   26.3667  -23.1257  -15.7263 C   0  0  0  0  0  0  0  0  0  0  0  0
   26.3562  -22.2099  -14.4837 C   0  0  0  0  0  0  0  0  0  0  0  0
   24.9545  -22.0164  -13.9871 C   0  0  0  0  0  0  0  0  0  0  0  0
   24.7783  -21.1127  -12.8165 C   0  0  2  0  0  0  0  0  0  0  0  0
   25.4985  -21.3160  -11.6413 N   0  0  0  0  0  0  0  0  0  0  0  0
   23.3461  -20.9544  -12.5248 C   0  0  0  0  0  0  0  0  0  0  0  0
   23.0480  -20.6291  -11.3190 O   0  0  0  0  0  0  0  0  0  0  0  0
   29.6720  -22.3029  -17.9599 N   0  0  0  0  0  0  0  0  0  0  0  0
   22.3255  -21.1342  -13.4633 C   0  0  2  0  0  0  0  0  0  0  0  0
   20.9485  -20.7821  -13.0248 C   0  0  0  0  0  0  0  0  0  0  0  0
   20.9355  -19.3013  -12.6711 C   0  0  0  0  0  0  0  0  0  0  0  0
   19.5737  -18.8834  -12.3490 O   0  0  0  0  0  0  0  0  0  0  0  0
   18.7470  -19.6325  -11.8230 C   0  0  0  0  0  0  0  0  0  0  0  0
   20.0934  -21.0598  -14.1856 O   0  0  0  0  0  0  0  0  0  0  0  0
   18.8329  -20.8743  -14.0926 O   0  0  0  0  0  0  0  0  0  0  0  0
   19.1605  -17.5765  -12.6401 O   0  0  0  0  0  0  0  0  0  0  0  0
  2  1  1  0
  2 12  2  0
  3  2  1  0
  4  3  2  0
  4  5  1  0
  5 11  2  0
  6  5  1  0
  7  9  1  0
  7  6  1  0
  7  8  1  6
  9 10  2  0
 11 12  1  0
 14 15  2  0
 14 13  1  0
 16 14  1  0
 17 16  1  0
 18 17  1  0
 19 18  1  0
 20 19  1  6
 21 20  1  0
 21  9  1  0
 22 20  1  0
 23 22  2  0
 24 22  1  0
 25 26  1  1
 25 24  1  0
 26 27  1  0
 27 28  2  0
 27 31  1  0
 29 32  1  0
 29 25  1  0
 30 29  2  0
M  END
$$$$
