YRD.pdb
     RDKit          3D

 32 32  0  0  1  0  0  0  0  0999 V2000
   23.1980   -9.8610  -20.1697 O   0  0  0  0  0  0  0  0  0  0  0  0
   23.1029  -11.1114  -19.5693 C   0  0  0  0  0  0  0  0  0  0  0  0
   24.1817  -11.6317  -18.9059 C   0  0  0  0  0  0  0  0  0  0  0  0
   24.0935  -12.8803  -18.3039 C   0  0  0  0  0  0  0  0  0  0  0  0
   22.9310  -13.6204  -18.3572 C   0  0  0  0  0  0  0  0  0  0  0  0
   22.8363  -14.9509  -17.7150 C   0  0  0  0  0  0  0  0  0  0  0  0
   23.7510  -15.9483  -18.4046 C   0  0  2  0  0  0  0  0  0  0  0  0
   23.3699  -16.1256  -19.7838 N   0  0  0  0  0  0  0  0  0  0  0  0
   23.5193  -17.2654  -17.7049 C   0  0  0  0  0  0  0  0  0  0  0  0
   22.5980  -18.0098  -18.0713 O   0  0  0  0  0  0  0  0  0  0  0  0
   21.8585  -13.0825  -19.0272 C   0  0  0  0  0  0  0  0  0  0  0  0
   21.9224  -11.8332  -19.6387 C   0  0  0  0  0  0  0  0  0  0  0  0
   26.2952  -21.6772  -13.1294 N   0  0  0  0  0  0  0  0  0  0  0  0
   26.5043  -20.7902  -12.0419 C   0  0  0  0  0  0  0  0  0  0  0  0
   26.2455  -21.1415  -10.8382 N   0  0  0  0  0  0  0  0  0  0  0  0
   27.0075  -19.4893  -12.2918 N   0  0  0  0  0  0  0  0  0  0  0  0
   27.3489  -19.0518  -13.6455 C   0  0  0  0  0  0  0  0  0  0  0  0
   26.0559  -18.4241  -14.2086 C   0  0  0  0  0  0  0  0  0  0  0  0
   25.3545  -19.3924  -15.1138 C   0  0  0  0  0  0  0  0  0  0  0  0
   24.2044  -18.8625  -15.8978 C   0  0  2  0  0  0  0  0  0  0  0  0
   24.3228  -17.6860  -16.6347 N   0  0  0  0  0  0  0  0  0  0  0  0
   23.0038  -18.8237  -15.0503 C   0  0  0  0  0  0  0  0  0  0  0  0
   22.5154  -17.6596  -14.8159 O   0  0  0  0  0  0  0  0  0  0  0  0
   26.3179  -20.5508   -9.9976 N   0  0  0  0  0  0  0  0  0  0  0  0
   22.3869  -19.9533  -14.5044 C   0  0  1  0  0  0  0  0  0  0  0  0
   20.9544  -19.8134  -14.1290 C   0  0  0  0  0  0  0  0  0  0  0  0
   20.2718  -18.9707  -15.1977 C   0  0  0  0  0  0  0  0  0  0  0  0
   18.8434  -18.8727  -14.9102 O   0  0  0  0  0  0  0  0  0  0  0  0
   18.3834  -18.9093  -13.7664 C   0  0  0  0  0  0  0  0  0  0  0  0
   20.4263  -21.1832  -14.1131 O   0  0  0  0  0  0  0  0  0  0  0  0
   20.7934  -22.0056  -15.0191 O   0  0  0  0  0  0  0  0  0  0  0  0
   17.9307  -18.7296  -15.9637 O   0  0  0  0  0  0  0  0  0  0  0  0
  2  1  1  0
  2 12  2  0
  3  2  1  0
  4  3  2  0
  4  5  1  0
  5 11  2  0
  6  5  1  0
  7  9  1  0
  7  6  1  0
  7  8  1  6
  9 10  2  0
 11 12  1  0
 14 15  2  0
 14 13  1  0
 16 14  1  0
 17 16  1  0
 18 17  1  0
 19 18  1  0
 20 19  1  1
 21 20  1  0
 21  9  1  0
 22 20  1  0
 23 22  2  0
 24 22  1  0
 25 26  1  1
 25 24  1  0
 26 27  1  0
 27 28  2  0
 27 31  1  0
 29 32  1  0
 29 25  1  0
 30 29  2  0
M  END
$$$$
