YRD.pdb
     RDKit          3D

 32 32  0  0  1  0  0  0  0  0999 V2000
   14.4821  -26.9900   -2.5481 O   0  0  0  0  0  0  0  0  0  0  0  0
   14.9235  -26.2900   -3.6655 C   0  0  0  0  0  0  0  0  0  0  0  0
   15.6988  -25.1727   -3.5061 C   0  0  0  0  0  0  0  0  0  0  0  0
   16.1430  -24.4688   -4.6180 C   0  0  0  0  0  0  0  0  0  0  0  0
   15.8196  -24.8715   -5.8967 C   0  0  0  0  0  0  0  0  0  0  0  0
   16.2935  -24.1219   -7.0821 C   0  0  0  0  0  0  0  0  0  0  0  0
   17.4401  -24.8530   -7.7588 C   0  0  2  0  0  0  0  0  0  0  0  0
   18.6278  -24.8120   -6.9424 N   0  0  0  0  0  0  0  0  0  0  0  0
   17.7358  -24.0723   -9.0162 C   0  0  0  0  0  0  0  0  0  0  0  0
   18.4491  -23.0596   -8.9652 O   0  0  0  0  0  0  0  0  0  0  0  0
   15.0407  -25.9949   -6.0375 C   0  0  0  0  0  0  0  0  0  0  0  0
   14.5831  -26.7173   -4.9385 C   0  0  0  0  0  0  0  0  0  0  0  0
   22.8319  -23.9799  -14.4880 N   0  0  0  0  0  0  0  0  0  0  0  0
   21.5916  -24.3451  -15.0721 C   0  0  0  0  0  0  0  0  0  0  0  0
   21.5392  -24.9330  -16.2084 N   0  0  0  0  0  0  0  0  0  0  0  0
   20.3864  -24.0526  -14.3865 N   0  0  0  0  0  0  0  0  0  0  0  0
   20.3024  -24.1281  -12.9278 C   0  0  0  0  0  0  0  0  0  0  0  0
   19.2429  -25.2123  -12.6367 C   0  0  0  0  0  0  0  0  0  0  0  0
   17.8644  -24.6236  -12.6827 C   0  0  0  0  0  0  0  0  0  0  0  0
   17.4327  -23.8372  -11.4938 C   0  0  2  0  0  0  0  0  0  0  0  0
   17.2231  -24.4574  -10.2639 N   0  0  0  0  0  0  0  0  0  0  0  0
   16.2833  -22.9927  -11.8500 C   0  0  0  0  0  0  0  0  0  0  0  0
   15.1328  -23.5617  -11.8171 O   0  0  0  0  0  0  0  0  0  0  0  0
   20.6884  -25.2314  -16.7063 N   0  0  0  0  0  0  0  0  0  0  0  0
   16.3765  -21.6452  -12.2108 C   0  0  2  0  0  0  0  0  0  0  0  0
   15.0991  -20.9495  -12.5219 C   0  0  0  0  0  0  0  0  0  0  0  0
   15.2972  -19.4650  -12.2481 C   0  0  0  0  0  0  0  0  0  0  0  0
   16.5100  -18.9984  -12.9147 O   0  0  0  0  0  0  0  0  0  0  0  0
   16.7105  -17.8141  -13.1945 C   0  0  0  0  0  0  0  0  0  0  0  0
   14.8630  -21.2009  -13.9491 O   0  0  0  0  0  0  0  0  0  0  0  0
   15.7649  -21.7863  -14.6387 O   0  0  0  0  0  0  0  0  0  0  0  0
   17.5085  -19.9174  -13.2639 O   0  0  0  0  0  0  0  0  0  0  0  0
  2  1  1  0
  2 12  2  0
  3  2  1  0
  4  3  2  0
  4  5  1  0
  5 11  2  0
  6  5  1  0
  7  9  1  0
  7  6  1  0
  7  8  1  1
  9 10  2  0
 11 12  1  0
 14 15  2  0
 14 13  1  0
 16 14  1  0
 17 16  1  0
 18 17  1  0
 19 18  1  0
 20 19  1  6
 21 20  1  0
 21  9  1  0
 22 20  1  0
 23 22  2  0
 24 22  1  0
 25 26  1  1
 25 24  1  0
 26 27  1  0
 27 28  2  0
 27 31  1  0
 29 32  1  0
 29 25  1  0
 30 29  2  0
M  END
$$$$
