YRD.pdb
     RDKit          3D

 32 32  0  0  1  0  0  0  0  0999 V2000
   29.8340  -11.8285  -17.0721 O   0  0  0  0  0  0  0  0  0  0  0  0
   28.7704  -12.7156  -16.9498 C   0  0  0  0  0  0  0  0  0  0  0  0
   29.0009  -14.0646  -16.9933 C   0  0  0  0  0  0  0  0  0  0  0  0
   27.9428  -14.9563  -16.8719 C   0  0  0  0  0  0  0  0  0  0  0  0
   26.6477  -14.5124  -16.7059 C   0  0  0  0  0  0  0  0  0  0  0  0
   25.5199  -15.4625  -16.5756 C   0  0  0  0  0  0  0  0  0  0  0  0
   25.3409  -16.2647  -17.8529 C   0  0  2  0  0  0  0  0  0  0  0  0
   25.0041  -15.4018  -18.9578 N   0  0  0  0  0  0  0  0  0  0  0  0
   24.1515  -17.1610  -17.6080 C   0  0  0  0  0  0  0  0  0  0  0  0
   23.0095  -16.7680  -17.8883 O   0  0  0  0  0  0  0  0  0  0  0  0
   26.4353  -13.1553  -16.6645 C   0  0  0  0  0  0  0  0  0  0  0  0
   27.4792  -12.2416  -16.7841 C   0  0  0  0  0  0  0  0  0  0  0  0
   26.3991  -24.5058  -16.1493 N   0  0  0  0  0  0  0  0  0  0  0  0
   24.9814  -24.5445  -16.1104 C   0  0  0  0  0  0  0  0  0  0  0  0
   24.3591  -25.2703  -15.2587 N   0  0  0  0  0  0  0  0  0  0  0  0
   24.2383  -23.7664  -17.0327 N   0  0  0  0  0  0  0  0  0  0  0  0
   24.8944  -22.8105  -17.9250 C   0  0  0  0  0  0  0  0  0  0  0  0
   24.8113  -21.4514  -17.1977 C   0  0  0  0  0  0  0  0  0  0  0  0
   23.4953  -20.7881  -17.4754 C   0  0  0  0  0  0  0  0  0  0  0  0
   23.3060  -19.4190  -16.9206 C   0  0  2  0  0  0  0  0  0  0  0  0
   24.2933  -18.4464  -17.0644 N   0  0  0  0  0  0  0  0  0  0  0  0
   22.8680  -19.5087  -15.5201 C   0  0  0  0  0  0  0  0  0  0  0  0
   23.7856  -19.7544  -14.6562 O   0  0  0  0  0  0  0  0  0  0  0  0
   23.3396  -25.3156  -15.1197 N   0  0  0  0  0  0  0  0  0  0  0  0
   21.5462  -19.3454  -15.0952 C   0  0  2  0  0  0  0  0  0  0  0  0
   21.2898  -19.5105  -13.6393 C   0  0  0  0  0  0  0  0  0  0  0  0
   20.2646  -18.4642  -13.2242 C   0  0  0  0  0  0  0  0  0  0  0  0
   19.1212  -18.5073  -14.1318 O   0  0  0  0  0  0  0  0  0  0  0  0
   19.0659  -19.2582  -15.1087 C   0  0  0  0  0  0  0  0  0  0  0  0
   20.7520  -20.8691  -13.4961 O   0  0  0  0  0  0  0  0  0  0  0  0
   20.4063  -21.2863  -12.3392 O   0  0  0  0  0  0  0  0  0  0  0  0
   18.0225  -17.6676  -13.9058 O   0  0  0  0  0  0  0  0  0  0  0  0
  2  1  1  0
  2 12  2  0
  3  2  1  0
  4  3  2  0
  4  5  1  0
  5 11  2  0
  6  5  1  0
  7  9  1  0
  7  6  1  0
  7  8  1  6
  9 10  2  0
 11 12  1  0
 14 15  2  0
 14 13  1  0
 16 14  1  0
 17 16  1  0
 18 17  1  0
 19 18  1  0
 20 19  1  1
 21 20  1  0
 21  9  1  0
 22 20  1  0
 23 22  2  0
 24 22  1  0
 25 26  1  6
 25 24  1  0
 26 27  1  0
 27 28  2  0
 27 31  1  0
 29 32  1  0
 29 25  1  0
 30 29  2  0
M  END
$$$$
