YRD.pdb
     RDKit          3D

 32 32  0  0  1  0  0  0  0  0999 V2000
   16.4029  -14.7754  -21.9206 O   0  0  0  0  0  0  0  0  0  0  0  0
   16.9714  -13.9895  -20.9243 C   0  0  0  0  0  0  0  0  0  0  0  0
   18.3332  -13.9400  -20.7906 C   0  0  0  0  0  0  0  0  0  0  0  0
   18.9075  -13.1571  -19.7975 C   0  0  0  0  0  0  0  0  0  0  0  0
   18.1313  -12.4174  -18.9302 C   0  0  0  0  0  0  0  0  0  0  0  0
   18.7431  -11.5822  -17.8720 C   0  0  0  0  0  0  0  0  0  0  0  0
   19.3974  -12.4504  -16.8113 C   0  0  2  0  0  0  0  0  0  0  0  0
   18.4050  -13.1786  -16.0605 N   0  0  0  0  0  0  0  0  0  0  0  0
   20.0658  -11.4924  -15.8556 C   0  0  0  0  0  0  0  0  0  0  0  0
   19.4625  -11.1002  -14.8460 O   0  0  0  0  0  0  0  0  0  0  0  0
   16.7666  -12.4792  -19.0792 C   0  0  0  0  0  0  0  0  0  0  0  0
   16.1672  -13.2567  -20.0668 C   0  0  0  0  0  0  0  0  0  0  0  0
   27.2445  -12.0340  -16.9216 N   0  0  0  0  0  0  0  0  0  0  0  0
   27.6033  -10.6826  -16.6805 C   0  0  0  0  0  0  0  0  0  0  0  0
   28.4444  -10.0742  -17.4300 N   0  0  0  0  0  0  0  0  0  0  0  0
   27.0216   -9.9923  -15.5882 N   0  0  0  0  0  0  0  0  0  0  0  0
   25.9342  -10.5818  -14.8067 C   0  0  0  0  0  0  0  0  0  0  0  0
   24.6364  -10.1329  -15.5118 C   0  0  0  0  0  0  0  0  0  0  0  0
   23.4357  -10.5675  -14.7256 C   0  0  0  0  0  0  0  0  0  0  0  0
   22.1050  -10.1621  -15.2577 C   0  0  2  0  0  0  0  0  0  0  0  0
   21.3688  -11.0201  -16.0720 N   0  0  0  0  0  0  0  0  0  0  0  0
   22.2012   -8.8271  -15.8658 C   0  0  0  0  0  0  0  0  0  0  0  0
   22.6480   -8.7855  -17.0688 O   0  0  0  0  0  0  0  0  0  0  0  0
   28.8291   -9.1306  -17.2805 N   0  0  0  0  0  0  0  0  0  0  0  0
   21.8423   -7.6392  -15.2217 C   0  0  2  0  0  0  0  0  0  0  0  0
   22.0201   -6.3820  -15.9964 C   0  0  0  0  0  0  0  0  0  0  0  0
   20.9128   -5.4207  -15.5867 C   0  0  0  0  0  0  0  0  0  0  0  0
   21.0584   -4.1625  -16.3138 O   0  0  0  0  0  0  0  0  0  0  0  0
   21.9635   -3.9557  -17.1257 C   0  0  0  0  0  0  0  0  0  0  0  0
   23.3398   -5.8726  -15.6036 O   0  0  0  0  0  0  0  0  0  0  0  0
   23.7197   -5.9901  -14.3896 O   0  0  0  0  0  0  0  0  0  0  0  0
   20.1413   -3.1252  -16.0984 O   0  0  0  0  0  0  0  0  0  0  0  0
  2  1  1  0
  2 12  2  0
  3  2  1  0
  4  3  2  0
  4  5  1  0
  5 11  2  0
  6  5  1  0
  7  9  1  0
  7  6  1  0
  7  8  1  1
  9 10  2  0
 11 12  1  0
 14 15  2  0
 14 13  1  0
 16 14  1  0
 17 16  1  0
 18 17  1  0
 19 18  1  0
 20 19  1  6
 21 20  1  0
 21  9  1  0
 22 20  1  0
 23 22  2  0
 24 22  1  0
 25 26  1  1
 25 24  1  0
 26 27  1  0
 27 28  2  0
 27 31  1  0
 29 32  1  0
 29 25  1  0
 30 29  2  0
M  END
$$$$
