YRD.pdb
     RDKit          3D

 32 32  0  0  1  0  0  0  0  0999 V2000
   17.7107  -31.9037   -2.1625 O   0  0  0  0  0  0  0  0  0  0  0  0
   17.5040  -30.7420   -2.8980 C   0  0  0  0  0  0  0  0  0  0  0  0
   18.0398  -30.6266   -4.1527 C   0  0  0  0  0  0  0  0  0  0  0  0
   17.8373  -29.4688   -4.8927 C   0  0  0  0  0  0  0  0  0  0  0  0
   17.0998  -28.4174   -4.3900 C   0  0  0  0  0  0  0  0  0  0  0  0
   16.8830  -27.1835   -5.1788 C   0  0  0  0  0  0  0  0  0  0  0  0
   18.1378  -26.3279   -5.1964 C   0  0  2  0  0  0  0  0  0  0  0  0
   18.3489  -25.7004   -3.9156 N   0  0  0  0  0  0  0  0  0  0  0  0
   17.8668  -25.2274   -6.1931 C   0  0  0  0  0  0  0  0  0  0  0  0
   17.0962  -24.3011   -5.9014 O   0  0  0  0  0  0  0  0  0  0  0  0
   16.5697  -28.5509   -3.1292 C   0  0  0  0  0  0  0  0  0  0  0  0
   16.7589  -29.7014   -2.3679 C   0  0  0  0  0  0  0  0  0  0  0  0
   21.2400  -28.0256  -11.4651 N   0  0  0  0  0  0  0  0  0  0  0  0
   19.9009  -28.4237  -11.2178 C   0  0  0  0  0  0  0  0  0  0  0  0
   19.6073  -29.6419  -10.9547 N   0  0  0  0  0  0  0  0  0  0  0  0
   18.8671  -27.4557  -11.2642 N   0  0  0  0  0  0  0  0  0  0  0  0
   19.1629  -26.0331  -11.4354 C   0  0  0  0  0  0  0  0  0  0  0  0
   19.7598  -25.5764  -10.0871 C   0  0  0  0  0  0  0  0  0  0  0  0
   19.1706  -24.2614   -9.6718 C   0  0  0  0  0  0  0  0  0  0  0  0
   18.2865  -24.2731   -8.4733 C   0  0  2  0  0  0  0  0  0  0  0  0
   18.4658  -25.2142   -7.4616 N   0  0  0  0  0  0  0  0  0  0  0  0
   16.8792  -24.2298   -8.8962 C   0  0  0  0  0  0  0  0  0  0  0  0
   16.2674  -25.3579   -8.9389 O   0  0  0  0  0  0  0  0  0  0  0  0
   18.6660  -30.0227  -10.7819 N   0  0  0  0  0  0  0  0  0  0  0  0
   16.1954  -23.0607   -9.2427 C   0  0  1  0  0  0  0  0  0  0  0  0
   14.8190  -23.2292   -9.7808 C   0  0  0  0  0  0  0  0  0  0  0  0
   13.8410  -22.7281   -8.7269 C   0  0  0  0  0  0  0  0  0  0  0  0
   12.4905  -22.6994   -9.2818 O   0  0  0  0  0  0  0  0  0  0  0  0
   12.0010  -23.6416   -9.9094 C   0  0  0  0  0  0  0  0  0  0  0  0
   14.7742  -22.3951  -10.9883 O   0  0  0  0  0  0  0  0  0  0  0  0
   13.8565  -22.5963  -11.8538 O   0  0  0  0  0  0  0  0  0  0  0  0
   11.6917  -21.5613   -9.1080 O   0  0  0  0  0  0  0  0  0  0  0  0
  2  1  1  0
  2 12  2  0
  3  2  1  0
  4  3  2  0
  4  5  1  0
  5 11  2  0
  6  5  1  0
  7  9  1  0
  7  6  1  0
  7  8  1  1
  9 10  2  0
 11 12  1  0
 14 15  2  0
 14 13  1  0
 16 14  1  0
 17 16  1  0
 18 17  1  0
 19 18  1  0
 20 19  1  6
 21 20  1  0
 21  9  1  0
 22 20  1  0
 23 22  2  0
 24 22  1  0
 25 26  1  6
 25 24  1  0
 26 27  1  0
 27 28  2  0
 27 31  1  0
 29 32  1  0
 29 25  1  0
 30 29  2  0
M  END
$$$$
