YRD.pdb
     RDKit          3D

 32 32  0  0  1  0  0  0  0  0999 V2000
   32.6201  -22.7807   -9.4643 O   0  0  0  0  0  0  0  0  0  0  0  0
   31.3849  -22.4475  -10.0089 C   0  0  0  0  0  0  0  0  0  0  0  0
   31.3077  -22.0115  -11.3046 C   0  0  0  0  0  0  0  0  0  0  0  0
   30.0770  -21.6769  -11.8547 C   0  0  0  0  0  0  0  0  0  0  0  0
   28.9140  -21.7740  -11.1200 C   0  0  0  0  0  0  0  0  0  0  0  0
   27.6020  -21.4182  -11.7063 C   0  0  0  0  0  0  0  0  0  0  0  0
   27.0226  -20.1905  -11.0252 C   0  0  2  0  0  0  0  0  0  0  0  0
   26.4544  -20.5339   -9.7453 N   0  0  0  0  0  0  0  0  0  0  0  0
   25.8881  -19.7316  -11.9084 C   0  0  0  0  0  0  0  0  0  0  0  0
   24.7144  -19.9613  -11.5815 O   0  0  0  0  0  0  0  0  0  0  0  0
   29.0106  -22.2133   -9.8215 C   0  0  0  0  0  0  0  0  0  0  0  0
   30.2325  -22.5545   -9.2475 C   0  0  0  0  0  0  0  0  0  0  0  0
   22.2909  -15.1591  -17.2189 N   0  0  0  0  0  0  0  0  0  0  0  0
   23.5463  -14.6092  -17.5858 C   0  0  0  0  0  0  0  0  0  0  0  0
   23.7705  -14.2014  -18.7787 N   0  0  0  0  0  0  0  0  0  0  0  0
   24.5734  -14.5103  -16.6146 N   0  0  0  0  0  0  0  0  0  0  0  0
   24.4803  -15.2110  -15.3336 C   0  0  0  0  0  0  0  0  0  0  0  0
   24.4981  -16.7130  -15.6890 C   0  0  0  0  0  0  0  0  0  0  0  0
   25.5939  -17.4149  -14.9437 C   0  0  0  0  0  0  0  0  0  0  0  0
   25.1744  -18.4030  -13.9113 C   0  0  2  0  0  0  0  0  0  0  0  0
   26.1169  -19.0421  -13.1084 N   0  0  0  0  0  0  0  0  0  0  0  0
   24.2542  -19.3818  -14.5082 C   0  0  0  0  0  0  0  0  0  0  0  0
   24.7367  -20.5520  -14.7239 O   0  0  0  0  0  0  0  0  0  0  0  0
   24.6519  -13.8072  -19.1368 N   0  0  0  0  0  0  0  0  0  0  0  0
   22.9236  -19.1119  -14.8419 C   0  0  2  0  0  0  0  0  0  0  0  0
   21.9969  -20.2749  -14.8760 C   0  0  0  0  0  0  0  0  0  0  0  0
   21.9114  -20.8452  -13.4669 C   0  0  0  0  0  0  0  0  0  0  0  0
   20.9311  -21.9271  -13.4317 O   0  0  0  0  0  0  0  0  0  0  0  0
   20.2751  -22.2726  -14.4173 C   0  0  0  0  0  0  0  0  0  0  0  0
   20.7058  -19.7242  -15.3068 O   0  0  0  0  0  0  0  0  0  0  0  0
   20.5625  -18.4576  -15.3898 O   0  0  0  0  0  0  0  0  0  0  0  0
   20.7054  -22.6218  -12.2360 O   0  0  0  0  0  0  0  0  0  0  0  0
  2  1  1  0
  2 12  2  0
  3  2  1  0
  4  3  2  0
  4  5  1  0
  5 11  2  0
  6  5  1  0
  7  9  1  0
  7  6  1  0
  7  8  1  1
  9 10  2  0
 11 12  1  0
 14 15  2  0
 14 13  1  0
 16 14  1  0
 17 16  1  0
 18 17  1  0
 19 18  1  0
 20 19  1  6
 21 20  1  0
 21  9  1  0
 22 20  1  0
 23 22  2  0
 24 22  1  0
 25 26  1  1
 25 24  1  0
 26 27  1  0
 27 28  2  0
 27 31  1  0
 29 32  1  0
 29 25  1  0
 30 29  2  0
M  END
$$$$
