QRQ.pdb
     RDKit          3D

 30 29  0  0  1  0  0  0  0  0999 V2000
   28.1368  -17.1002  -17.0019 N   0  0  0  0  0  0  0  0  0  0  0  0
   27.1476  -17.9693  -17.5675 C   0  0  0  0  0  0  0  0  0  0  0  0
   26.3898  -17.5504  -18.4777 O   0  0  0  0  0  0  0  0  0  0  0  0
   26.9890  -19.3642  -17.1065 C   0  0  0  0  0  0  0  0  0  0  0  0
   27.9854  -19.6996  -16.0422 C   0  0  0  0  0  0  0  0  0  0  0  0
   27.8368  -21.1749  -15.6649 C   0  0  2  0  0  0  0  0  0  0  0  0
   27.8317  -22.0102  -16.8249 N   0  0  0  0  0  0  0  0  0  0  0  0
   26.6476  -21.3804  -14.7991 C   0  0  0  0  0  0  0  0  0  0  0  0
   25.5903  -21.8546  -15.2882 O   0  0  0  0  0  0  0  0  0  0  0  0
   21.9219  -20.1421   -8.6926 N   0  0  0  0  0  0  0  0  0  0  0  0
   22.6235  -20.9788   -7.7998 C   0  0  0  0  0  0  0  0  0  0  0  0
   21.9656  -21.6205   -6.8984 N   0  0  0  0  0  0  0  0  0  0  0  0
   24.0554  -21.1114   -7.8972 N   0  0  0  0  0  0  0  0  0  0  0  0
   24.8126  -20.3998   -8.8705 C   0  0  0  0  0  0  0  0  0  0  0  0
   24.5477  -20.8613  -10.2760 C   0  0  0  0  0  0  0  0  0  0  0  0
   25.7820  -20.8257  -11.1292 C   0  0  0  0  0  0  0  0  0  0  0  0
   25.4780  -21.1927  -12.5586 C   0  0  2  0  0  0  0  0  0  0  0  0
   26.6347  -21.0650  -13.4160 N   0  0  0  0  0  0  0  0  0  0  0  0
   24.4433  -20.2319  -13.0875 C   0  0  0  0  0  0  0  0  0  0  0  0
   24.6942  -19.0051  -13.1678 O   0  0  0  0  0  0  0  0  0  0  0  0
   22.4654  -22.2254   -6.2223 N   0  0  0  0  0  0  0  0  0  0  0  0
   22.3588  -20.0714  -18.2978 C   0  0  0  0  0  0  0  0  0  0  0  0
   21.3375  -19.2150  -17.7466 O   0  0  0  0  0  0  0  0  0  0  0  0
   20.6521  -18.5942  -18.5697 C   0  0  0  0  0  0  0  0  0  0  0  0
   21.2330  -19.1811  -16.2908 C   0  0  0  0  0  0  0  0  0  0  0  0
   22.2517  -19.9900  -15.5598 C   0  0  1  0  0  0  0  0  0  0  0  0
   22.1488  -19.9174  -14.0701 N   0  0  0  0  0  0  0  0  0  0  0  0
   23.1738  -20.7608  -13.4923 C   0  0  0  0  0  0  0  0  0  0  0  0
   20.8445  -20.3356  -13.5453 O   0  0  0  0  0  0  0  0  0  0  0  0
   19.8295  -19.4189  -13.4023 O   0  0  0  0  0  0  0  0  0  0  0  0
  1  2  1  0
  2  3  2  0
  4  2  1  0
  4  5  1  0
  6  5  1  0
  6  8  1  0
  6  7  1  6
  8  9  2  0
 10 11  1  0
 11 12  2  0
 11 13  1  0
 13 14  1  0
 14 15  1  0
 16 15  1  0
 17 19  1  0
 17 16  1  1
 18  8  1  0
 18 17  1  0
 19 20  2  0
 21 22  1  0
 22 23  2  0
 24 22  1  0
 24 25  1  0
 26 25  1  1
 27 26  1  0
 27 19  1  0
 28 26  1  0
 29 28  1  0
 30 28  2  0
M  END
$$$$
