QRQ.pdb
     RDKit          3D

 30 29  0  0  1  0  0  0  0  0999 V2000
   26.5806  -17.3270  -19.1355 N   0  0  0  0  0  0  0  0  0  0  0  0
   25.8891  -18.5484  -18.8458 C   0  0  0  0  0  0  0  0  0  0  0  0
   24.9304  -18.9146  -19.5701 O   0  0  0  0  0  0  0  0  0  0  0  0
   26.2750  -19.4034  -17.7041 C   0  0  0  0  0  0  0  0  0  0  0  0
   27.4705  -18.8520  -16.9940 C   0  0  0  0  0  0  0  0  0  0  0  0
   28.4127  -20.0023  -16.6330 C   0  0  2  0  0  0  0  0  0  0  0  0
   28.6082  -20.8818  -17.7428 N   0  0  0  0  0  0  0  0  0  0  0  0
   27.9416  -20.7065  -15.4131 C   0  0  0  0  0  0  0  0  0  0  0  0
   27.1064  -21.6417  -15.5120 O   0  0  0  0  0  0  0  0  0  0  0  0
   32.2321  -23.1556   -9.2682 N   0  0  0  0  0  0  0  0  0  0  0  0
   31.3123  -22.1781   -8.8347 C   0  0  0  0  0  0  0  0  0  0  0  0
   31.1652  -21.9761   -7.5719 N   0  0  0  0  0  0  0  0  0  0  0  0
   30.5495  -21.4184   -9.7931 N   0  0  0  0  0  0  0  0  0  0  0  0
   30.9318  -21.3338  -11.1620 C   0  0  0  0  0  0  0  0  0  0  0  0
   30.1010  -20.3578  -11.9466 C   0  0  0  0  0  0  0  0  0  0  0  0
   28.6333  -20.5091  -11.6717 C   0  0  0  0  0  0  0  0  0  0  0  0
   27.8861  -20.9765  -12.8938 C   0  0  2  0  0  0  0  0  0  0  0  0
   28.3910  -20.3773  -14.1084 N   0  0  0  0  0  0  0  0  0  0  0  0
   26.4474  -20.5433  -12.7672 C   0  0  0  0  0  0  0  0  0  0  0  0
   26.1346  -19.3324  -12.8686 O   0  0  0  0  0  0  0  0  0  0  0  0
   30.4884  -21.2685   -7.2343 N   0  0  0  0  0  0  0  0  0  0  0  0
   21.7231  -24.3021  -14.1785 C   0  0  0  0  0  0  0  0  0  0  0  0
   20.9868  -23.2031  -13.6038 O   0  0  0  0  0  0  0  0  0  0  0  0
   19.7543  -23.2713  -13.6989 C   0  0  0  0  0  0  0  0  0  0  0  0
   21.7773  -22.1453  -12.9814 C   0  0  0  0  0  0  0  0  0  0  0  0
   23.2563  -22.3295  -13.0519 C   0  0  1  0  0  0  0  0  0  0  0  0
   24.0493  -21.2250  -12.4304 N   0  0  0  0  0  0  0  0  0  0  0  0
   25.4563  -21.5514  -12.5291 C   0  0  0  0  0  0  0  0  0  0  0  0
   23.7209  -20.9799  -11.0220 O   0  0  0  0  0  0  0  0  0  0  0  0
   22.6060  -20.2473  -10.6884 O   0  0  0  0  0  0  0  0  0  0  0  0
  1  2  1  0
  2  3  2  0
  4  2  1  0
  4  5  1  0
  6  5  1  0
  6  8  1  0
  6  7  1  6
  8  9  2  0
 10 11  1  0
 11 12  2  0
 11 13  1  0
 13 14  1  0
 14 15  1  0
 16 15  1  0
 17 19  1  0
 17 16  1  1
 18  8  1  0
 18 17  1  0
 19 20  2  0
 21 22  1  0
 22 23  2  0
 24 22  1  0
 24 25  1  0
 26 25  1  6
 27 26  1  0
 27 19  1  0
 28 26  1  0
 29 28  1  0
 30 28  2  0
M  END
$$$$
