QRQ.pdb
     RDKit          3D

 30 29  0  0  1  0  0  0  0  0999 V2000
   29.1215  -17.9200  -18.4042 N   0  0  0  0  0  0  0  0  0  0  0  0
   27.7383  -17.7531  -18.0685 C   0  0  0  0  0  0  0  0  0  0  0  0
   26.9410  -17.2714  -18.9113 O   0  0  0  0  0  0  0  0  0  0  0  0
   27.2129  -18.1359  -16.7415 C   0  0  0  0  0  0  0  0  0  0  0  0
   28.2987  -18.6710  -15.8627 C   0  0  0  0  0  0  0  0  0  0  0  0
   28.2418  -20.2000  -15.8717 C   0  0  2  0  0  0  0  0  0  0  0  0
   28.2476  -20.7125  -17.2061 N   0  0  0  0  0  0  0  0  0  0  0  0
   27.0917  -20.6894  -15.0692 C   0  0  0  0  0  0  0  0  0  0  0  0
   26.2062  -21.3996  -15.6109 O   0  0  0  0  0  0  0  0  0  0  0  0
   22.0162  -20.2603   -9.6266 N   0  0  0  0  0  0  0  0  0  0  0  0
   22.5277  -21.0781   -8.5974 C   0  0  0  0  0  0  0  0  0  0  0  0
   21.7098  -21.7792   -7.8928 N   0  0  0  0  0  0  0  0  0  0  0  0
   23.9452  -21.1258   -8.3405 N   0  0  0  0  0  0  0  0  0  0  0  0
   24.8859  -20.4740   -9.1873 C   0  0  0  0  0  0  0  0  0  0  0  0
   24.7933  -20.9155  -10.6208 C   0  0  0  0  0  0  0  0  0  0  0  0
   25.9393  -20.4100  -11.4476 C   0  0  0  0  0  0  0  0  0  0  0  0
   25.7966  -20.8074  -12.8940 C   0  0  2  0  0  0  0  0  0  0  0  0
   26.9297  -20.3949  -13.6910 N   0  0  0  0  0  0  0  0  0  0  0  0
   24.5913  -20.1037  -13.4647 C   0  0  0  0  0  0  0  0  0  0  0  0
   24.5521  -18.8509  -13.5223 O   0  0  0  0  0  0  0  0  0  0  0  0
   22.0668  -22.3853   -7.1324 N   0  0  0  0  0  0  0  0  0  0  0  0
   22.5769  -18.4035  -17.5495 C   0  0  0  0  0  0  0  0  0  0  0  0
   21.2400  -18.9401  -17.4788 O   0  0  0  0  0  0  0  0  0  0  0  0
   20.3712  -18.3062  -18.0921 C   0  0  0  0  0  0  0  0  0  0  0  0
   21.0696  -20.1608  -16.6965 C   0  0  0  0  0  0  0  0  0  0  0  0
   22.2900  -20.6342  -15.9801 C   0  0  1  0  0  0  0  0  0  0  0  0
   22.3173  -20.3106  -14.5208 N   0  0  0  0  0  0  0  0  0  0  0  0
   23.5003  -20.9057  -13.9356 C   0  0  0  0  0  0  0  0  0  0  0  0
   21.1396  -20.7852  -13.7866 O   0  0  0  0  0  0  0  0  0  0  0  0
   19.9774  -20.0504  -13.7927 O   0  0  0  0  0  0  0  0  0  0  0  0
  1  2  1  0
  2  3  2  0
  4  2  1  0
  4  5  1  0
  6  5  1  0
  6  8  1  0
  6  7  1  6
  8  9  2  0
 10 11  1  0
 11 12  2  0
 11 13  1  0
 13 14  1  0
 14 15  1  0
 16 15  1  0
 17 19  1  0
 17 16  1  1
 18  8  1  0
 18 17  1  0
 19 20  2  0
 21 22  1  0
 22 23  2  0
 24 22  1  0
 24 25  1  0
 26 25  1  6
 27 26  1  0
 27 19  1  0
 28 26  1  0
 29 28  1  0
 30 28  2  0
M  END
$$$$
