QRQ.pdb
     RDKit          3D

 30 29  0  0  1  0  0  0  0  0999 V2000
   24.1606  -25.1371  -15.9125 N   0  0  0  0  0  0  0  0  0  0  0  0
   25.5842  -25.0958  -15.7537 C   0  0  0  0  0  0  0  0  0  0  0  0
   26.1757  -26.0221  -15.1454 O   0  0  0  0  0  0  0  0  0  0  0  0
   26.3903  -23.9803  -16.2916 C   0  0  0  0  0  0  0  0  0  0  0  0
   25.5318  -22.9901  -17.0129 C   0  0  0  0  0  0  0  0  0  0  0  0
   25.8166  -21.5895  -16.4667 C   0  0  2  0  0  0  0  0  0  0  0  0
   27.0312  -21.5623  -15.7135 N   0  0  0  0  0  0  0  0  0  0  0  0
   24.6511  -21.0744  -15.7034 C   0  0  0  0  0  0  0  0  0  0  0  0
   24.6923  -21.0352  -14.4469 O   0  0  0  0  0  0  0  0  0  0  0  0
   20.8400  -17.3680  -19.4395 N   0  0  0  0  0  0  0  0  0  0  0  0
   19.8710  -17.1702  -18.4338 C   0  0  0  0  0  0  0  0  0  0  0  0
   18.6243  -17.2587  -18.7423 N   0  0  0  0  0  0  0  0  0  0  0  0
   20.2732  -16.8734  -17.0819 N   0  0  0  0  0  0  0  0  0  0  0  0
   21.6282  -16.5975  -16.7433 C   0  0  0  0  0  0  0  0  0  0  0  0
   22.3232  -17.7628  -16.0970 C   0  0  0  0  0  0  0  0  0  0  0  0
   21.5734  -19.0492  -16.2857 C   0  0  0  0  0  0  0  0  0  0  0  0
   22.2733  -20.2020  -15.6141 C   0  0  2  0  0  0  0  0  0  0  0  0
   23.4632  -20.6115  -16.3254 N   0  0  0  0  0  0  0  0  0  0  0  0
   21.3435  -21.3891  -15.6137 C   0  0  0  0  0  0  0  0  0  0  0  0
   21.4750  -22.3025  -16.4638 O   0  0  0  0  0  0  0  0  0  0  0  0
   17.8982  -17.1107  -18.0185 N   0  0  0  0  0  0  0  0  0  0  0  0
   20.8253  -26.0976  -11.7117 C   0  0  0  0  0  0  0  0  0  0  0  0
   20.5511  -26.0834  -13.1276 O   0  0  0  0  0  0  0  0  0  0  0  0
   21.0710  -26.9934  -13.7869 C   0  0  0  0  0  0  0  0  0  0  0  0
   19.6978  -25.0034  -13.6141 C   0  0  0  0  0  0  0  0  0  0  0  0
   20.4068  -23.7357  -13.9558 C   0  0  1  0  0  0  0  0  0  0  0  0
   19.5123  -22.6290  -14.4143 N   0  0  0  0  0  0  0  0  0  0  0  0
   20.3126  -21.4400  -14.6188 C   0  0  0  0  0  0  0  0  0  0  0  0
   18.4316  -22.3128  -13.4743 O   0  0  0  0  0  0  0  0  0  0  0  0
   17.5184  -23.2776  -13.1193 O   0  0  0  0  0  0  0  0  0  0  0  0
  1  2  1  0
  2  3  2  0
  4  2  1  0
  4  5  1  0
  6  5  1  0
  6  8  1  0
  6  7  1  1
  8  9  2  0
 10 11  1  0
 11 12  2  0
 11 13  1  0
 13 14  1  0
 14 15  1  0
 16 15  1  0
 17 19  1  0
 17 16  1  6
 18  8  1  0
 18 17  1  0
 19 20  2  0
 21 22  1  0
 22 23  2  0
 24 22  1  0
 24 25  1  0
 26 25  1  6
 27 26  1  0
 27 19  1  0
 28 26  1  0
 29 28  1  0
 30 28  2  0
M  END
$$$$
