QRQ.pdb
     RDKit          3D

 30 29  0  0  1  0  0  0  0  0999 V2000
    8.4649  -22.8911   -9.4524 N   0  0  0  0  0  0  0  0  0  0  0  0
    8.5558  -23.3481  -10.8076 C   0  0  0  0  0  0  0  0  0  0  0  0
    7.6193  -23.1176  -11.6125 O   0  0  0  0  0  0  0  0  0  0  0  0
    9.7351  -24.0933  -11.2949 C   0  0  0  0  0  0  0  0  0  0  0  0
   10.7511  -24.2686  -10.2111 C   0  0  0  0  0  0  0  0  0  0  0  0
   12.0586  -23.5982  -10.6379 C   0  0  2  0  0  0  0  0  0  0  0  0
   13.0187  -24.5627  -11.0752 N   0  0  0  0  0  0  0  0  0  0  0  0
   12.5748  -22.7158   -9.5603 C   0  0  0  0  0  0  0  0  0  0  0  0
   13.4203  -23.1567   -8.7401 O   0  0  0  0  0  0  0  0  0  0  0  0
   11.7551  -14.5300  -11.2896 N   0  0  0  0  0  0  0  0  0  0  0  0
   10.5564  -15.2528  -11.1152 C   0  0  0  0  0  0  0  0  0  0  0  0
    9.4478  -14.7253  -11.5021 N   0  0  0  0  0  0  0  0  0  0  0  0
   10.5754  -16.5620  -10.5125 N   0  0  0  0  0  0  0  0  0  0  0  0
   11.7780  -17.1500  -10.0279 C   0  0  0  0  0  0  0  0  0  0  0  0
   11.5696  -18.5158   -9.4366 C   0  0  0  0  0  0  0  0  0  0  0  0
   12.8279  -19.0767   -8.8411 C   0  0  0  0  0  0  0  0  0  0  0  0
   12.6285  -20.4881   -8.3531 C   0  0  2  0  0  0  0  0  0  0  0  0
   12.1590  -21.3692   -9.3983 N   0  0  0  0  0  0  0  0  0  0  0  0
   11.5608  -20.4779   -7.2884 C   0  0  0  0  0  0  0  0  0  0  0  0
   10.3626  -20.2578   -7.5890 O   0  0  0  0  0  0  0  0  0  0  0  0
    8.5550  -15.2317  -11.3629 N   0  0  0  0  0  0  0  0  0  0  0  0
    8.2681  -17.5752   -5.1647 C   0  0  0  0  0  0  0  0  0  0  0  0
    8.0092  -18.5178   -4.1042 O   0  0  0  0  0  0  0  0  0  0  0  0
    7.0123  -18.2856   -3.4077 C   0  0  0  0  0  0  0  0  0  0  0  0
    8.9481  -19.6284   -3.9775 C   0  0  0  0  0  0  0  0  0  0  0  0
   10.0963  -19.6042   -4.9303 C   0  0  1  0  0  0  0  0  0  0  0  0
   10.9849  -20.8045   -4.8613 N   0  0  0  0  0  0  0  0  0  0  0  0
   11.9555  -20.7255   -5.9327 C   0  0  0  0  0  0  0  0  0  0  0  0
   10.2677  -22.0794   -4.9693 O   0  0  0  0  0  0  0  0  0  0  0  0
   10.3456  -22.8220   -6.1241 O   0  0  0  0  0  0  0  0  0  0  0  0
  1  2  1  0
  2  3  2  0
  4  2  1  0
  4  5  1  0
  6  5  1  0
  6  8  1  0
  6  7  1  1
  8  9  2  0
 10 11  1  0
 11 12  2  0
 11 13  1  0
 13 14  1  0
 14 15  1  0
 16 15  1  0
 17 19  1  0
 17 16  1  6
 18  8  1  0
 18 17  1  0
 19 20  2  0
 21 22  1  0
 22 23  2  0
 24 22  1  0
 24 25  1  0
 26 25  1  1
 27 26  1  0
 27 19  1  0
 28 26  1  0
 29 28  1  0
 30 28  2  0
M  END
$$$$
