QRQ.pdb
     RDKit          3D

 30 29  0  0  1  0  0  0  0  0999 V2000
   19.9805   -3.5705  -14.6794 N   0  0  0  0  0  0  0  0  0  0  0  0
   21.3259   -4.0573  -14.5970 C   0  0  0  0  0  0  0  0  0  0  0  0
   22.2710   -3.2584  -14.3815 O   0  0  0  0  0  0  0  0  0  0  0  0
   21.6406   -5.4918  -14.7601 C   0  0  0  0  0  0  0  0  0  0  0  0
   20.3965   -6.3021  -14.9428 C   0  0  0  0  0  0  0  0  0  0  0  0
   20.1504   -7.1324  -13.6814 C   0  0  2  0  0  0  0  0  0  0  0  0
   21.0618   -8.2303  -13.5958 N   0  0  0  0  0  0  0  0  0  0  0  0
   18.7285   -7.5531  -13.5963 C   0  0  0  0  0  0  0  0  0  0  0  0
   17.8265   -6.6886  -13.4508 O   0  0  0  0  0  0  0  0  0  0  0  0
   17.1571   -8.5061  -17.8475 N   0  0  0  0  0  0  0  0  0  0  0  0
   17.1271   -9.5394  -18.8072 C   0  0  0  0  0  0  0  0  0  0  0  0
   17.3357   -9.2487  -20.0438 N   0  0  0  0  0  0  0  0  0  0  0  0
   16.8663  -10.8993  -18.4068 N   0  0  0  0  0  0  0  0  0  0  0  0
   16.7382  -11.2693  -17.0380 C   0  0  0  0  0  0  0  0  0  0  0  0
   16.8440  -10.1005  -16.0992 C   0  0  0  0  0  0  0  0  0  0  0  0
   16.7509  -10.5159  -14.6600 C   0  0  0  0  0  0  0  0  0  0  0  0
   16.9406   -9.3441  -13.7319 C   0  0  2  0  0  0  0  0  0  0  0  0
   18.3176   -8.9088  -13.6719 N   0  0  0  0  0  0  0  0  0  0  0  0
   16.5656   -9.7758  -12.3367 C   0  0  0  0  0  0  0  0  0  0  0  0
   17.3990  -10.3627  -11.6050 O   0  0  0  0  0  0  0  0  0  0  0  0
   17.3353   -9.9966  -20.7605 N   0  0  0  0  0  0  0  0  0  0  0  0
   10.9155   -9.4534  -10.2288 C   0  0  0  0  0  0  0  0  0  0  0  0
   11.5263   -9.8369   -8.9798 O   0  0  0  0  0  0  0  0  0  0  0  0
   10.7549  -10.2657   -8.1114 C   0  0  0  0  0  0  0  0  0  0  0  0
   12.9742   -9.6750   -8.8869 C   0  0  0  0  0  0  0  0  0  0  0  0
   13.6403   -9.1760  -10.1254 C   0  0  1  0  0  0  0  0  0  0  0  0
   14.7231  -10.0645  -10.6483 N   0  0  0  0  0  0  0  0  0  0  0  0
   15.2368   -9.4963  -11.8768 C   0  0  0  0  0  0  0  0  0  0  0  0
   14.2851  -11.4392  -10.9129 O   0  0  0  0  0  0  0  0  0  0  0  0
   14.4506  -12.4144   -9.9577 O   0  0  0  0  0  0  0  0  0  0  0  0
  1  2  1  0
  2  3  2  0
  4  2  1  0
  4  5  1  0
  6  5  1  0
  6  8  1  0
  6  7  1  6
  8  9  2  0
 10 11  1  0
 11 12  2  0
 11 13  1  0
 13 14  1  0
 14 15  1  0
 16 15  1  0
 17 19  1  0
 17 16  1  6
 18  8  1  0
 18 17  1  0
 19 20  2  0
 21 22  1  0
 22 23  2  0
 24 22  1  0
 24 25  1  0
 26 25  1  1
 27 26  1  0
 27 19  1  0
 28 26  1  0
 29 28  1  0
 30 28  2  0
M  END
$$$$
