QRQ.pdb
     RDKit          3D

 30 29  0  0  1  0  0  0  0  0999 V2000
   20.8867  -11.9748  -15.2153 N   0  0  0  0  0  0  0  0  0  0  0  0
   21.0379  -11.9315  -16.6397 C   0  0  0  0  0  0  0  0  0  0  0  0
   20.2929  -11.1908  -17.3284 O   0  0  0  0  0  0  0  0  0  0  0  0
   22.0587  -12.7435  -17.3341 C   0  0  0  0  0  0  0  0  0  0  0  0
   22.8709  -13.5396  -16.3622 C   0  0  0  0  0  0  0  0  0  0  0  0
   23.9516  -14.3084  -17.1250 C   0  0  2  0  0  0  0  0  0  0  0  0
   24.0129  -13.8991  -18.4933 N   0  0  0  0  0  0  0  0  0  0  0  0
   23.7667  -15.7737  -16.9674 C   0  0  0  0  0  0  0  0  0  0  0  0
   22.7803  -16.3423  -17.5020 O   0  0  0  0  0  0  0  0  0  0  0  0
   25.6098  -22.1611  -12.5942 N   0  0  0  0  0  0  0  0  0  0  0  0
   25.9084  -22.8742  -13.7740 C   0  0  0  0  0  0  0  0  0  0  0  0
   25.4848  -24.0836  -13.8962 N   0  0  0  0  0  0  0  0  0  0  0  0
   26.6766  -22.2558  -14.8252 N   0  0  0  0  0  0  0  0  0  0  0  0
   26.8194  -20.8426  -14.9213 C   0  0  0  0  0  0  0  0  0  0  0  0
   25.5468  -20.1471  -15.3155 C   0  0  0  0  0  0  0  0  0  0  0  0
   25.7399  -18.6710  -15.5061 C   0  0  0  0  0  0  0  0  0  0  0  0
   24.4852  -18.0092  -16.0138 C   0  0  2  0  0  0  0  0  0  0  0  0
   24.6615  -16.5909  -16.2299 N   0  0  0  0  0  0  0  0  0  0  0  0
   23.4123  -18.1534  -14.9642 C   0  0  0  0  0  0  0  0  0  0  0  0
   23.5848  -17.6956  -13.8087 O   0  0  0  0  0  0  0  0  0  0  0  0
   25.7759  -24.6564  -14.7087 N   0  0  0  0  0  0  0  0  0  0  0  0
   17.5126  -17.5841  -16.1715 C   0  0  0  0  0  0  0  0  0  0  0  0
   17.3816  -18.1778  -14.8636 O   0  0  0  0  0  0  0  0  0  0  0  0
   16.2295  -18.2471  -14.4156 C   0  0  0  0  0  0  0  0  0  0  0  0
   18.6163  -18.6245  -14.2254 C   0  0  0  0  0  0  0  0  0  0  0  0
   19.8541  -18.4501  -15.0402 C   0  0  1  0  0  0  0  0  0  0  0  0
   21.1001  -18.9638  -14.3931 N   0  0  0  0  0  0  0  0  0  0  0  0
   22.1985  -18.8251  -15.3259 C   0  0  0  0  0  0  0  0  0  0  0  0
   21.0142  -20.3664  -13.9727 O   0  0  0  0  0  0  0  0  0  0  0  0
   20.3668  -20.7013  -12.8067 O   0  0  0  0  0  0  0  0  0  0  0  0
  1  2  1  0
  2  3  2  0
  4  2  1  0
  4  5  1  0
  6  5  1  0
  6  8  1  0
  6  7  1  6
  8  9  2  0
 10 11  1  0
 11 12  2  0
 11 13  1  0
 13 14  1  0
 14 15  1  0
 16 15  1  0
 17 19  1  0
 17 16  1  1
 18  8  1  0
 18 17  1  0
 19 20  2  0
 21 22  1  0
 22 23  2  0
 24 22  1  0
 24 25  1  0
 26 25  1  1
 27 26  1  0
 27 19  1  0
 28 26  1  0
 29 28  1  0
 30 28  2  0
M  END
$$$$
