QRQ.pdb
     RDKit          3D

 30 29  0  0  1  0  0  0  0  0999 V2000
   24.3657  -23.2153  -14.2153 N   0  0  0  0  0  0  0  0  0  0  0  0
   25.3041  -23.6484  -15.2081 C   0  0  0  0  0  0  0  0  0  0  0  0
   25.4782  -24.8751  -15.4153 O   0  0  0  0  0  0  0  0  0  0  0  0
   26.0851  -22.6820  -16.0078 C   0  0  0  0  0  0  0  0  0  0  0  0
   25.8155  -21.2761  -15.5733 C   0  0  0  0  0  0  0  0  0  0  0  0
   25.0927  -20.5343  -16.6995 C   0  0  2  0  0  0  0  0  0  0  0  0
   25.9891  -19.6888  -17.4241 N   0  0  0  0  0  0  0  0  0  0  0  0
   23.9077  -19.8075  -16.1763 C   0  0  0  0  0  0  0  0  0  0  0  0
   23.2784  -20.2639  -15.1876 O   0  0  0  0  0  0  0  0  0  0  0  0
   24.2624  -15.5589  -20.7335 N   0  0  0  0  0  0  0  0  0  0  0  0
   24.4056  -14.5616  -19.7463 C   0  0  0  0  0  0  0  0  0  0  0  0
   25.4895  -13.8679  -19.7127 N   0  0  0  0  0  0  0  0  0  0  0  0
   23.3528  -14.3248  -18.7907 N   0  0  0  0  0  0  0  0  0  0  0  0
   22.1200  -15.0354  -18.8379 C   0  0  0  0  0  0  0  0  0  0  0  0
   22.2226  -16.4308  -18.2894 C   0  0  0  0  0  0  0  0  0  0  0  0
   22.2416  -16.4530  -16.7888 C   0  0  0  0  0  0  0  0  0  0  0  0
   22.2858  -17.8617  -16.2562 C   0  0  2  0  0  0  0  0  0  0  0  0
   23.4322  -18.5964  -16.7416 N   0  0  0  0  0  0  0  0  0  0  0  0
   21.0648  -18.5962  -16.7495 C   0  0  0  0  0  0  0  0  0  0  0  0
   20.9195  -18.8434  -17.9711 O   0  0  0  0  0  0  0  0  0  0  0  0
   25.6343  -13.1663  -18.9646 N   0  0  0  0  0  0  0  0  0  0  0  0
   18.6356  -23.1701  -13.6098 C   0  0  0  0  0  0  0  0  0  0  0  0
   18.4238  -21.8860  -12.9882 O   0  0  0  0  0  0  0  0  0  0  0  0
   18.1255  -21.9108  -11.7868 C   0  0  0  0  0  0  0  0  0  0  0  0
   18.5849  -20.7144  -13.8442 C   0  0  0  0  0  0  0  0  0  0  0  0
   18.8892  -21.0078  -15.2753 C   0  0  1  0  0  0  0  0  0  0  0  0
   18.9378  -19.8027  -16.1587 N   0  0  0  0  0  0  0  0  0  0  0  0
   20.0833  -18.9997  -15.7857 C   0  0  0  0  0  0  0  0  0  0  0  0
   17.7343  -18.9671  -16.0875 O   0  0  0  0  0  0  0  0  0  0  0  0
   17.8205  -17.6643  -15.6561 O   0  0  0  0  0  0  0  0  0  0  0  0
  1  2  1  0
  2  3  2  0
  4  2  1  0
  4  5  1  0
  6  5  1  0
  6  8  1  0
  6  7  1  1
  8  9  2  0
 10 11  1  0
 11 12  2  0
 11 13  1  0
 13 14  1  0
 14 15  1  0
 16 15  1  0
 17 19  1  0
 17 16  1  6
 18  8  1  0
 18 17  1  0
 19 20  2  0
 21 22  1  0
 22 23  2  0
 24 22  1  0
 24 25  1  0
 26 25  1  6
 27 26  1  0
 27 19  1  0
 28 26  1  0
 29 28  1  0
 30 28  2  0
M  END
$$$$
