QRQ.pdb
     RDKit          3D

 30 29  0  0  1  0  0  0  0  0999 V2000
   24.0671  -19.8616   -9.7262 N   0  0  0  0  0  0  0  0  0  0  0  0
   25.4337  -19.9833   -9.3125 C   0  0  0  0  0  0  0  0  0  0  0  0
   25.8417  -19.3605   -8.3007 O   0  0  0  0  0  0  0  0  0  0  0  0
   26.3925  -20.8318  -10.0502 C   0  0  0  0  0  0  0  0  0  0  0  0
   25.7260  -21.5400  -11.1869 C   0  0  0  0  0  0  0  0  0  0  0  0
   26.5498  -21.3300  -12.4591 C   0  0  2  0  0  0  0  0  0  0  0  0
   27.3306  -20.1352  -12.3814 N   0  0  0  0  0  0  0  0  0  0  0  0
   25.6812  -21.3759  -13.6631 C   0  0  0  0  0  0  0  0  0  0  0  0
   25.1124  -20.3291  -14.0662 O   0  0  0  0  0  0  0  0  0  0  0  0
   27.7969  -27.0958  -19.2582 N   0  0  0  0  0  0  0  0  0  0  0  0
   27.5813  -27.1488  -17.8653 C   0  0  0  0  0  0  0  0  0  0  0  0
   27.7785  -28.2594  -17.2451 N   0  0  0  0  0  0  0  0  0  0  0  0
   27.1465  -25.9757  -17.1495 N   0  0  0  0  0  0  0  0  0  0  0  0
   26.9889  -24.7161  -17.7942 C   0  0  0  0  0  0  0  0  0  0  0  0
   26.5346  -23.6292  -16.8610 C   0  0  0  0  0  0  0  0  0  0  0  0
   25.0768  -23.7418  -16.5224 C   0  0  0  0  0  0  0  0  0  0  0  0
   24.6362  -22.6375  -15.5968 C   0  0  2  0  0  0  0  0  0  0  0  0
   25.4500  -22.5631  -14.4046 N   0  0  0  0  0  0  0  0  0  0  0  0
   23.2300  -22.9320  -15.1392 C   0  0  0  0  0  0  0  0  0  0  0  0
   23.0189  -23.7561  -14.2168 O   0  0  0  0  0  0  0  0  0  0  0  0
   27.6224  -28.3185  -16.2229 N   0  0  0  0  0  0  0  0  0  0  0  0
   21.5631  -19.9366  -11.4767 C   0  0  0  0  0  0  0  0  0  0  0  0
   20.1835  -20.1445  -11.8420 O   0  0  0  0  0  0  0  0  0  0  0  0
   19.3431  -19.7431  -11.0263 C   0  0  0  0  0  0  0  0  0  0  0  0
   19.9417  -20.8005  -13.1236 C   0  0  0  0  0  0  0  0  0  0  0  0
   21.1630  -21.2793  -13.8349 C   0  0  1  0  0  0  0  0  0  0  0  0
   20.8916  -22.0045  -15.1138 N   0  0  0  0  0  0  0  0  0  0  0  0
   22.1506  -22.2458  -15.7866 C   0  0  0  0  0  0  0  0  0  0  0  0
   20.0010  -21.2810  -16.0275 O   0  0  0  0  0  0  0  0  0  0  0  0
   20.4736  -20.8182  -17.2330 O   0  0  0  0  0  0  0  0  0  0  0  0
  1  2  1  0
  2  3  2  0
  4  2  1  0
  4  5  1  0
  6  5  1  0
  6  8  1  0
  6  7  1  1
  8  9  2  0
 10 11  1  0
 11 12  2  0
 11 13  1  0
 13 14  1  0
 14 15  1  0
 16 15  1  0
 17 19  1  0
 17 16  1  6
 18  8  1  0
 18 17  1  0
 19 20  2  0
 21 22  1  0
 22 23  2  0
 24 22  1  0
 24 25  1  0
 26 25  1  1
 27 26  1  0
 27 19  1  0
 28 26  1  0
 29 28  1  0
 30 28  2  0
M  END
$$$$
