QRQ.pdb
     RDKit          3D

 30 29  0  0  1  0  0  0  0  0999 V2000
   21.6186  -19.6630  -19.7034 N   0  0  0  0  0  0  0  0  0  0  0  0
   22.3788  -18.4515  -19.7946 C   0  0  0  0  0  0  0  0  0  0  0  0
   22.3194  -17.7493  -20.8345 O   0  0  0  0  0  0  0  0  0  0  0  0
   23.2433  -17.9957  -18.6863 C   0  0  0  0  0  0  0  0  0  0  0  0
   23.0286  -18.8209  -17.4571 C   0  0  0  0  0  0  0  0  0  0  0  0
   24.3865  -19.2643  -16.9088 C   0  0  2  0  0  0  0  0  0  0  0  0
   25.1878  -19.8653  -17.9287 N   0  0  0  0  0  0  0  0  0  0  0  0
   24.2151  -20.1366  -15.7189 C   0  0  0  0  0  0  0  0  0  0  0  0
   23.6166  -21.2373  -15.8294 O   0  0  0  0  0  0  0  0  0  0  0  0
   28.9891  -21.5224   -8.9705 N   0  0  0  0  0  0  0  0  0  0  0  0
   28.7495  -21.4044  -10.3555 C   0  0  0  0  0  0  0  0  0  0  0  0
   29.7102  -21.6454  -11.1778 N   0  0  0  0  0  0  0  0  0  0  0  0
   27.4479  -21.0193  -10.8402 N   0  0  0  0  0  0  0  0  0  0  0  0
   26.2620  -21.2714  -10.0938 C   0  0  0  0  0  0  0  0  0  0  0  0
   25.0095  -20.8860  -10.8294 C   0  0  0  0  0  0  0  0  0  0  0  0
   25.2991  -20.0972  -12.0729 C   0  0  0  0  0  0  0  0  0  0  0  0
   24.4541  -20.5594  -13.2315 C   0  0  2  0  0  0  0  0  0  0  0  0
   24.7002  -19.7916  -14.4312 N   0  0  0  0  0  0  0  0  0  0  0  0
   23.0036  -20.3490  -12.8771 C   0  0  0  0  0  0  0  0  0  0  0  0
   22.6040  -19.2349  -12.4608 O   0  0  0  0  0  0  0  0  0  0  0  0
   29.5791  -21.4820  -12.1922 N   0  0  0  0  0  0  0  0  0  0  0  0
   19.8950  -21.4224  -16.8399 C   0  0  0  0  0  0  0  0  0  0  0  0
   19.4227  -22.5641  -16.0959 O   0  0  0  0  0  0  0  0  0  0  0  0
   19.0863  -23.5461  -16.7708 C   0  0  0  0  0  0  0  0  0  0  0  0
   19.3967  -22.4281  -14.6426 C   0  0  0  0  0  0  0  0  0  0  0  0
   19.9891  -21.1664  -14.1099 C   0  0  1  0  0  0  0  0  0  0  0  0
   20.6818  -21.3140  -12.7933 N   0  0  0  0  0  0  0  0  0  0  0  0
   22.1032  -21.4541  -13.0299 C   0  0  0  0  0  0  0  0  0  0  0  0
   20.2204  -22.4628  -12.0067 O   0  0  0  0  0  0  0  0  0  0  0  0
   18.9744  -22.4481  -11.4250 O   0  0  0  0  0  0  0  0  0  0  0  0
  1  2  1  0
  2  3  2  0
  4  2  1  0
  4  5  1  0
  6  5  1  0
  6  8  1  0
  6  7  1  6
  8  9  2  0
 10 11  1  0
 11 12  2  0
 11 13  1  0
 13 14  1  0
 14 15  1  0
 16 15  1  0
 17 19  1  0
 17 16  1  1
 18  8  1  0
 18 17  1  0
 19 20  2  0
 21 22  1  0
 22 23  2  0
 24 22  1  0
 24 25  1  0
 26 25  1  1
 27 26  1  0
 27 19  1  0
 28 26  1  0
 29 28  1  0
 30 28  2  0
M  END
$$$$
