QRQ.pdb
     RDKit          3D

 30 29  0  0  1  0  0  0  0  0999 V2000
   29.6468  -22.3814  -11.3010 N   0  0  0  0  0  0  0  0  0  0  0  0
   29.6642  -21.2561  -10.4138 C   0  0  0  0  0  0  0  0  0  0  0  0
   30.7534  -20.7018  -10.1234 O   0  0  0  0  0  0  0  0  0  0  0  0
   28.4216  -20.7193   -9.8211 C   0  0  0  0  0  0  0  0  0  0  0  0
   27.2212  -21.4650  -10.3117 C   0  0  0  0  0  0  0  0  0  0  0  0
   26.0604  -20.4839  -10.4882 C   0  0  2  0  0  0  0  0  0  0  0  0
   24.9785  -20.7950   -9.6073 N   0  0  0  0  0  0  0  0  0  0  0  0
   25.6442  -20.4105  -11.9121 C   0  0  0  0  0  0  0  0  0  0  0  0
   26.1426  -19.5364  -12.6667 O   0  0  0  0  0  0  0  0  0  0  0  0
   26.8089  -23.8597  -16.9424 N   0  0  0  0  0  0  0  0  0  0  0  0
   26.0353  -24.8123  -16.2469 C   0  0  0  0  0  0  0  0  0  0  0  0
   26.6167  -25.8518  -15.7586 N   0  0  0  0  0  0  0  0  0  0  0  0
   24.6155  -24.6224  -16.0869 N   0  0  0  0  0  0  0  0  0  0  0  0
   23.9090  -23.6034  -16.7866 C   0  0  0  0  0  0  0  0  0  0  0  0
   23.7863  -22.3269  -16.0030 C   0  0  0  0  0  0  0  0  0  0  0  0
   24.2612  -22.4798  -14.5874 C   0  0  0  0  0  0  0  0  0  0  0  0
   24.1792  -21.1786  -13.8321 C   0  0  2  0  0  0  0  0  0  0  0  0
   24.6924  -21.2922  -12.4856 N   0  0  0  0  0  0  0  0  0  0  0  0
   22.7274  -20.7910  -13.7070 C   0  0  0  0  0  0  0  0  0  0  0  0
   22.1400  -20.8671  -12.6008 O   0  0  0  0  0  0  0  0  0  0  0  0
   26.0745  -26.5372  -15.2026 N   0  0  0  0  0  0  0  0  0  0  0  0
   20.8336  -15.6596  -15.7966 C   0  0  0  0  0  0  0  0  0  0  0  0
   19.5408  -16.1805  -15.4259 O   0  0  0  0  0  0  0  0  0  0  0  0
   18.6030  -15.3730  -15.4635 C   0  0  0  0  0  0  0  0  0  0  0  0
   19.4905  -17.5907  -15.0519 C   0  0  0  0  0  0  0  0  0  0  0  0
   20.8018  -18.3025  -15.0720 C   0  0  1  0  0  0  0  0  0  0  0  0
   20.7131  -19.7733  -14.8186 N   0  0  0  0  0  0  0  0  0  0  0  0
   22.0452  -20.3365  -14.8831 C   0  0  0  0  0  0  0  0  0  0  0  0
   19.8539  -20.4873  -15.7692 O   0  0  0  0  0  0  0  0  0  0  0  0
   18.5084  -20.6224  -15.5199 O   0  0  0  0  0  0  0  0  0  0  0  0
  1  2  1  0
  2  3  2  0
  4  2  1  0
  4  5  1  0
  6  5  1  0
  6  8  1  0
  6  7  1  1
  8  9  2  0
 10 11  1  0
 11 12  2  0
 11 13  1  0
 13 14  1  0
 14 15  1  0
 16 15  1  0
 17 19  1  0
 17 16  1  1
 18  8  1  0
 18 17  1  0
 19 20  2  0
 21 22  1  0
 22 23  2  0
 24 22  1  0
 24 25  1  0
 26 25  1  1
 27 26  1  0
 27 19  1  0
 28 26  1  0
 29 28  1  0
 30 28  2  0
M  END
$$$$
