QRQ.pdb
     RDKit          3D

 30 29  0  0  1  0  0  0  0  0999 V2000
   19.7996  -22.5748  -16.0580 N   0  0  0  0  0  0  0  0  0  0  0  0
   18.8066  -22.5437  -15.0252 C   0  0  0  0  0  0  0  0  0  0  0  0
   17.9918  -23.4926  -14.9083 O   0  0  0  0  0  0  0  0  0  0  0  0
   18.7102  -21.4129  -14.0789 C   0  0  0  0  0  0  0  0  0  0  0  0
   19.7130  -20.3505  -14.4003 C   0  0  0  0  0  0  0  0  0  0  0  0
   21.1015  -20.8257  -13.9676 C   0  0  2  0  0  0  0  0  0  0  0  0
   21.1687  -21.0146  -12.5523 N   0  0  0  0  0  0  0  0  0  0  0  0
   22.1547  -19.9121  -14.4798 C   0  0  0  0  0  0  0  0  0  0  0  0
   21.9316  -18.6765  -14.5525 O   0  0  0  0  0  0  0  0  0  0  0  0
   26.2984  -22.5433  -12.0505 N   0  0  0  0  0  0  0  0  0  0  0  0
   27.5423  -21.9141  -11.8350 C   0  0  0  0  0  0  0  0  0  0  0  0
   28.0043  -21.8394  -10.6358 N   0  0  0  0  0  0  0  0  0  0  0  0
   28.2828  -21.3638  -12.9424 N   0  0  0  0  0  0  0  0  0  0  0  0
   27.6916  -21.1761  -14.2239 C   0  0  0  0  0  0  0  0  0  0  0  0
   26.3533  -20.4951  -14.1615 C   0  0  0  0  0  0  0  0  0  0  0  0
   25.7978  -20.2049  -15.5252 C   0  0  0  0  0  0  0  0  0  0  0  0
   24.4638  -19.5092  -15.4434 C   0  0  2  0  0  0  0  0  0  0  0  0
   23.4312  -20.3640  -14.9026 N   0  0  0  0  0  0  0  0  0  0  0  0
   24.0305  -19.1437  -16.8407 C   0  0  0  0  0  0  0  0  0  0  0  0
   23.5514  -20.0134  -17.6078 O   0  0  0  0  0  0  0  0  0  0  0  0
   28.9199  -21.3884  -10.4589 N   0  0  0  0  0  0  0  0  0  0  0  0
   21.0787  -14.1153  -18.3328 C   0  0  0  0  0  0  0  0  0  0  0  0
   21.4530  -14.5212  -19.6652 O   0  0  0  0  0  0  0  0  0  0  0  0
   20.9192  -13.8947  -20.5900 C   0  0  0  0  0  0  0  0  0  0  0  0
   22.4121  -15.6173  -19.7659 C   0  0  0  0  0  0  0  0  0  0  0  0
   22.8615  -16.1924  -18.4645 C   0  0  1  0  0  0  0  0  0  0  0  0
   23.8002  -17.3494  -18.5889 N   0  0  0  0  0  0  0  0  0  0  0  0
   24.1825  -17.7817  -17.2611 C   0  0  0  0  0  0  0  0  0  0  0  0
   25.0151  -17.0470  -19.3531 O   0  0  0  0  0  0  0  0  0  0  0  0
   24.9470  -16.8502  -20.7123 O   0  0  0  0  0  0  0  0  0  0  0  0
  1  2  1  0
  2  3  2  0
  4  2  1  0
  4  5  1  0
  6  5  1  0
  6  8  1  0
  6  7  1  1
  8  9  2  0
 10 11  1  0
 11 12  2  0
 11 13  1  0
 13 14  1  0
 14 15  1  0
 16 15  1  0
 17 19  1  0
 17 16  1  6
 18  8  1  0
 18 17  1  0
 19 20  2  0
 21 22  1  0
 22 23  2  0
 24 22  1  0
 24 25  1  0
 26 25  1  1
 27 26  1  0
 27 19  1  0
 28 26  1  0
 29 28  1  0
 30 28  2  0
M  END
$$$$
