DYI.pdb
     RDKit          3D

 29 29  0  0  1  0  0  0  0  0999 V2000
    9.5780  -18.2361   19.6906 N   0  0  0  0  0  0  0  0  0  0  0  0
    8.9439  -17.0856   20.2782 C   0  0  1  0  0  0  0  0  0  0  0  0
    7.5507  -16.8221   19.7483 C   0  0  0  0  0  0  0  0  0  0  0  0
    7.5871  -16.8664   18.2676 C   0  0  0  0  0  0  0  0  0  0  0  0
    7.2733  -17.8942   17.6341 O   0  0  0  0  0  0  0  0  0  0  0  0
    8.9515  -17.2487   21.7501 C   0  0  0  0  0  0  0  0  0  0  0  0
    7.9551  -17.7645   22.3099 O   0  0  0  0  0  0  0  0  0  0  0  0
    7.9749  -15.7631   17.4835 O   0  0  0  0  0  0  0  0  0  0  0  0
   11.6019  -23.1956   22.3169 O   0  0  0  0  0  0  0  0  0  0  0  0
   11.5937  -21.8847   22.7803 C   0  0  0  0  0  0  0  0  0  0  0  0
   11.0484  -21.5497   24.0009 C   0  0  0  0  0  0  0  0  0  0  0  0
   11.0591  -20.2442   24.4233 C   0  0  0  0  0  0  0  0  0  0  0  0
   11.6092  -19.2542   23.6440 C   0  0  0  0  0  0  0  0  0  0  0  0
   11.5358  -17.8742   24.1218 C   0  0  0  0  0  0  0  0  0  0  0  0
   10.1957  -17.2130   23.9660 C   0  0  2  0  0  0  0  0  0  0  0  0
   10.0632  -16.8305   22.5187 N   0  0  0  0  0  0  0  0  0  0  0  0
   10.1363  -15.9444   24.6821 C   0  0  0  0  0  0  0  0  0  0  0  0
   11.0444  -15.0916   24.4926 O   0  0  0  0  0  0  0  0  0  0  0  0
   12.1477  -19.6118   22.4316 C   0  0  0  0  0  0  0  0  0  0  0  0
   12.1494  -20.9034   21.9874 C   0  0  0  0  0  0  0  0  0  0  0  0
    5.9709  -12.7432   25.3541 C   0  0  0  0  0  0  0  0  0  0  0  0
    7.3540  -13.3664   25.1495 C   0  0  0  0  0  0  0  0  0  0  0  0
    7.8536  -13.7538   26.5060 C   0  0  2  0  0  0  0  0  0  0  0  0
    8.0025  -12.5447   27.4133 C   0  0  0  0  0  0  0  0  0  0  0  0
    9.2379  -14.3810   26.3712 C   0  0  2  0  0  0  0  0  0  0  0  0
    9.0888  -15.6238   25.5804 N   0  0  0  0  0  0  0  0  0  0  0  0
    9.7507  -14.7627   27.6905 C   0  0  0  0  0  0  0  0  0  0  0  0
   10.5419  -13.9179   28.4769 O   0  0  0  0  0  0  0  0  0  0  0  0
    9.5061  -15.8895   28.1935 O   0  0  0  0  0  0  0  0  0  0  0  0
  2  1  1  6
  2  3  1  0
  4  8  1  0
  4  3  1  0
  5  4  2  0
  6  2  1  0
  7  6  2  0
  9 10  1  0
 10 11  2  0
 10 20  1  0
 11 12  1  0
 12 13  2  0
 13 14  1  0
 15 14  1  6
 15 16  1  0
 16  6  1  0
 17 15  1  0
 17 18  2  0
 19 13  1  0
 20 19  2  0
 21 22  1  0
 23 25  1  0
 23 22  1  0
 23 24  1  1
 25 26  1  6
 26 17  1  0
 27 25  1  0
 28 27  1  0
 29 27  2  0
M  END
$$$$
