DYI.pdb
     RDKit          3D

 29 29  0  0  1  0  0  0  0  0999 V2000
   10.9050  -18.2049   20.3653 N   0  0  0  0  0  0  0  0  0  0  0  0
   11.9543  -17.2797   20.7028 C   0  0  1  0  0  0  0  0  0  0  0  0
   12.4756  -16.4932   19.5193 C   0  0  0  0  0  0  0  0  0  0  0  0
   13.1510  -17.4259   18.5867 C   0  0  0  0  0  0  0  0  0  0  0  0
   12.8185  -17.5097   17.3872 O   0  0  0  0  0  0  0  0  0  0  0  0
   11.4647  -16.3913   21.7819 C   0  0  0  0  0  0  0  0  0  0  0  0
   12.1889  -15.4410   22.1626 O   0  0  0  0  0  0  0  0  0  0  0  0
   14.2024  -18.2724   18.9871 O   0  0  0  0  0  0  0  0  0  0  0  0
    7.1450  -13.1302   18.0499 O   0  0  0  0  0  0  0  0  0  0  0  0
    7.3844  -13.7039   19.2937 C   0  0  0  0  0  0  0  0  0  0  0  0
    7.8383  -12.9597   20.3611 C   0  0  0  0  0  0  0  0  0  0  0  0
    8.0632  -13.5625   21.5730 C   0  0  0  0  0  0  0  0  0  0  0  0
    7.8416  -14.9085   21.7443 C   0  0  0  0  0  0  0  0  0  0  0  0
    8.1575  -15.5038   23.0419 C   0  0  0  0  0  0  0  0  0  0  0  0
    9.6227  -15.6197   23.3538 C   0  0  2  0  0  0  0  0  0  0  0  0
   10.2000  -16.6063   22.3782 N   0  0  0  0  0  0  0  0  0  0  0  0
    9.8474  -16.2285   24.6594 C   0  0  0  0  0  0  0  0  0  0  0  0
   10.3475  -17.3835   24.7181 O   0  0  0  0  0  0  0  0  0  0  0  0
    7.3883  -15.6300   20.6665 C   0  0  0  0  0  0  0  0  0  0  0  0
    7.1571  -15.0547   19.4495 C   0  0  0  0  0  0  0  0  0  0  0  0
    9.5975  -12.9093   29.0144 C   0  0  0  0  0  0  0  0  0  0  0  0
   10.1972  -13.8329   27.9510 C   0  0  0  0  0  0  0  0  0  0  0  0
    9.7169  -15.2151   28.2650 C   0  0  2  0  0  0  0  0  0  0  0  0
   10.3795  -15.7667   29.5157 C   0  0  0  0  0  0  0  0  0  0  0  0
   10.0888  -16.1488   27.1170 C   0  0  2  0  0  0  0  0  0  0  0  0
    9.5342  -15.5681   25.8730 N   0  0  0  0  0  0  0  0  0  0  0  0
    9.4577  -17.4585   27.3058 C   0  0  0  0  0  0  0  0  0  0  0  0
   10.0970  -18.5313   27.9371 O   0  0  0  0  0  0  0  0  0  0  0  0
    8.2902  -17.6936   26.9009 O   0  0  0  0  0  0  0  0  0  0  0  0
  2  1  1  6
  2  3  1  0
  4  8  1  0
  4  3  1  0
  5  4  2  0
  6  2  1  0
  7  6  2  0
  9 10  1  0
 10 11  2  0
 10 20  1  0
 11 12  1  0
 12 13  2  0
 13 14  1  0
 15 14  1  6
 15 16  1  0
 16  6  1  0
 17 15  1  0
 17 18  2  0
 19 13  1  0
 20 19  2  0
 21 22  1  0
 23 25  1  0
 23 22  1  0
 23 24  1  1
 25 26  1  6
 26 17  1  0
 27 25  1  0
 28 27  1  0
 29 27  2  0
M  END
$$$$
