DYI.pdb
     RDKit          3D

 29 29  0  0  1  0  0  0  0  0999 V2000
    9.1950  -19.0837   21.5759 N   0  0  0  0  0  0  0  0  0  0  0  0
   10.4516  -18.6374   21.0349 C   0  0  1  0  0  0  0  0  0  0  0  0
   10.4886  -18.6146   19.5218 C   0  0  0  0  0  0  0  0  0  0  0  0
   10.7025  -19.9957   19.0290 C   0  0  0  0  0  0  0  0  0  0  0  0
   10.2864  -20.9888   19.6588 O   0  0  0  0  0  0  0  0  0  0  0  0
   10.7645  -17.3105   21.6134 C   0  0  0  0  0  0  0  0  0  0  0  0
   11.8383  -16.7463   21.2953 O   0  0  0  0  0  0  0  0  0  0  0  0
   11.3833  -20.2775   17.8292 O   0  0  0  0  0  0  0  0  0  0  0  0
    6.4240  -13.0813   18.2071 O   0  0  0  0  0  0  0  0  0  0  0  0
    7.0098  -13.4760   19.4048 C   0  0  0  0  0  0  0  0  0  0  0  0
    6.5647  -14.5783   20.1019 C   0  0  0  0  0  0  0  0  0  0  0  0
    7.1688  -14.9359   21.2809 C   0  0  0  0  0  0  0  0  0  0  0  0
    8.2205  -14.2078   21.7847 C   0  0  0  0  0  0  0  0  0  0  0  0
    8.7824  -14.6032   23.0754 C   0  0  0  0  0  0  0  0  0  0  0  0
   10.1183  -15.2876   23.0097 C   0  0  2  0  0  0  0  0  0  0  0  0
    9.8696  -16.6837   22.5121 N   0  0  0  0  0  0  0  0  0  0  0  0
   10.6922  -15.4738   24.3370 C   0  0  0  0  0  0  0  0  0  0  0  0
   11.7254  -14.8256   24.6534 O   0  0  0  0  0  0  0  0  0  0  0  0
    8.6477  -13.1135   21.0722 C   0  0  0  0  0  0  0  0  0  0  0  0
    8.0636  -12.7358   19.8967 C   0  0  0  0  0  0  0  0  0  0  0  0
    9.8065  -13.5054   29.2105 C   0  0  0  0  0  0  0  0  0  0  0  0
   10.5453  -14.7211   28.6451 C   0  0  0  0  0  0  0  0  0  0  0  0
   10.0347  -14.9224   27.2528 C   0  0  2  0  0  0  0  0  0  0  0  0
    8.5220  -15.0583   27.2261 C   0  0  0  0  0  0  0  0  0  0  0  0
   10.6070  -16.2203   26.6907 C   0  0  2  0  0  0  0  0  0  0  0  0
   10.1281  -16.3510   25.2958 N   0  0  0  0  0  0  0  0  0  0  0  0
   10.0869  -17.3683   27.4395 C   0  0  0  0  0  0  0  0  0  0  0  0
   10.5732  -17.7451   28.6964 O   0  0  0  0  0  0  0  0  0  0  0  0
    9.1630  -18.0903   26.9840 O   0  0  0  0  0  0  0  0  0  0  0  0
  2  1  1  6
  2  3  1  0
  4  8  1  0
  4  3  1  0
  5  4  2  0
  6  2  1  0
  7  6  2  0
  9 10  1  0
 10 11  2  0
 10 20  1  0
 11 12  1  0
 12 13  2  0
 13 14  1  0
 15 14  1  1
 15 16  1  0
 16  6  1  0
 17 15  1  0
 17 18  2  0
 19 13  1  0
 20 19  2  0
 21 22  1  0
 23 25  1  0
 23 22  1  0
 23 24  1  1
 25 26  1  6
 26 17  1  0
 27 25  1  0
 28 27  1  0
 29 27  2  0
M  END
$$$$
