DYI.pdb
     RDKit          3D

 29 29  0  0  1  0  0  0  0  0999 V2000
    8.9318  -17.5987   19.7158 N   0  0  0  0  0  0  0  0  0  0  0  0
    7.6062  -17.0528   19.8409 C   0  0  1  0  0  0  0  0  0  0  0  0
    6.5715  -17.7693   19.0000 C   0  0  0  0  0  0  0  0  0  0  0  0
    7.0974  -17.9205   17.6229 C   0  0  0  0  0  0  0  0  0  0  0  0
    7.7008  -18.9504   17.2604 O   0  0  0  0  0  0  0  0  0  0  0  0
    7.2386  -17.0424   21.2756 C   0  0  0  0  0  0  0  0  0  0  0  0
    6.0844  -16.6797   21.6050 O   0  0  0  0  0  0  0  0  0  0  0  0
    6.9535  -16.9221   16.6406 O   0  0  0  0  0  0  0  0  0  0  0  0
    8.3192  -19.1481   29.9052 O   0  0  0  0  0  0  0  0  0  0  0  0
    8.3132  -19.0281   28.5199 C   0  0  0  0  0  0  0  0  0  0  0  0
    7.1588  -19.1817   27.7830 C   0  0  0  0  0  0  0  0  0  0  0  0
    7.1936  -19.0561   26.4171 C   0  0  0  0  0  0  0  0  0  0  0  0
    8.3704  -18.7768   25.7633 C   0  0  0  0  0  0  0  0  0  0  0  0
    8.3544  -18.7153   24.3025 C   0  0  0  0  0  0  0  0  0  0  0  0
    7.8020  -17.4449   23.7210 C   0  0  2  0  0  0  0  0  0  0  0  0
    8.1714  -17.4346   22.2643 N   0  0  0  0  0  0  0  0  0  0  0  0
    8.4664  -16.2692   24.2707 C   0  0  0  0  0  0  0  0  0  0  0  0
    9.6419  -16.0029   23.9034 O   0  0  0  0  0  0  0  0  0  0  0  0
    9.5082  -18.6270   26.5186 C   0  0  0  0  0  0  0  0  0  0  0  0
    9.5010  -18.7476   27.8791 C   0  0  0  0  0  0  0  0  0  0  0  0
    5.8733  -11.9541   26.7907 C   0  0  0  0  0  0  0  0  0  0  0  0
    6.5464  -13.3087   26.5558 C   0  0  0  0  0  0  0  0  0  0  0  0
    7.7753  -13.0408   25.7449 C   0  0  2  0  0  0  0  0  0  0  0  0
    7.4336  -12.7306   24.2976 C   0  0  0  0  0  0  0  0  0  0  0  0
    8.6532  -14.2887   25.7360 C   0  0  2  0  0  0  0  0  0  0  0  0
    7.8386  -15.4025   25.1989 N   0  0  0  0  0  0  0  0  0  0  0  0
    9.0345  -14.6484   27.1051 C   0  0  0  0  0  0  0  0  0  0  0  0
    9.9926  -13.9434   27.8421 O   0  0  0  0  0  0  0  0  0  0  0  0
    8.5153  -15.6278   27.6997 O   0  0  0  0  0  0  0  0  0  0  0  0
  2  1  1  1
  2  3  1  0
  4  8  1  0
  4  3  1  0
  5  4  2  0
  6  2  1  0
  7  6  2  0
  9 10  1  0
 10 11  2  0
 10 20  1  0
 11 12  1  0
 12 13  2  0
 13 14  1  0
 15 14  1  1
 15 16  1  0
 16  6  1  0
 17 15  1  0
 17 18  2  0
 19 13  1  0
 20 19  2  0
 21 22  1  0
 23 25  1  0
 23 22  1  0
 23 24  1  6
 25 26  1  1
 26 17  1  0
 27 25  1  0
 28 27  1  0
 29 27  2  0
M  END
$$$$
