DYI.pdb
     RDKit          3D

 29 29  0  0  1  0  0  0  0  0999 V2000
   11.3587  -18.0994   20.3506 N   0  0  0  0  0  0  0  0  0  0  0  0
   12.3891  -17.2992   20.9580 C   0  0  1  0  0  0  0  0  0  0  0  0
   13.2320  -16.5338   19.9607 C   0  0  0  0  0  0  0  0  0  0  0  0
   14.0596  -17.4969   19.1968 C   0  0  0  0  0  0  0  0  0  0  0  0
   14.0479  -17.5273   17.9497 O   0  0  0  0  0  0  0  0  0  0  0  0
   11.7578  -16.3995   21.9507 C   0  0  0  0  0  0  0  0  0  0  0  0
   12.4268  -15.4497   22.4224 O   0  0  0  0  0  0  0  0  0  0  0  0
   14.9059  -18.4336   19.8204 O   0  0  0  0  0  0  0  0  0  0  0  0
    6.8442  -13.2146   18.0504 O   0  0  0  0  0  0  0  0  0  0  0  0
    7.2108  -13.8258   19.2443 C   0  0  0  0  0  0  0  0  0  0  0  0
    7.1297  -15.1909   19.4157 C   0  0  0  0  0  0  0  0  0  0  0  0
    7.5007  -15.7568   20.6094 C   0  0  0  0  0  0  0  0  0  0  0  0
    7.9565  -14.9798   21.6480 C   0  0  0  0  0  0  0  0  0  0  0  0
    8.2787  -15.6351   22.9148 C   0  0  0  0  0  0  0  0  0  0  0  0
    9.7349  -15.6330   23.2847 C   0  0  2  0  0  0  0  0  0  0  0  0
   10.4205  -16.6035   22.3647 N   0  0  0  0  0  0  0  0  0  0  0  0
    9.9513  -16.1835   24.6173 C   0  0  0  0  0  0  0  0  0  0  0  0
   10.3448  -17.3751   24.7306 O   0  0  0  0  0  0  0  0  0  0  0  0
    8.0296  -13.6217   21.4539 C   0  0  0  0  0  0  0  0  0  0  0  0
    7.6662  -13.0332   20.2761 C   0  0  0  0  0  0  0  0  0  0  0  0
   10.3786  -12.6657   28.7872 C   0  0  0  0  0  0  0  0  0  0  0  0
   10.6801  -13.7158   27.7149 C   0  0  0  0  0  0  0  0  0  0  0  0
   10.0291  -14.9859   28.1650 C   0  0  2  0  0  0  0  0  0  0  0  0
   10.6930  -15.5429   29.4126 C   0  0  0  0  0  0  0  0  0  0  0  0
   10.1792  -16.0414   27.0734 C   0  0  2  0  0  0  0  0  0  0  0  0
    9.7460  -15.4273   25.7976 N   0  0  0  0  0  0  0  0  0  0  0  0
    9.2856  -17.1730   27.3381 C   0  0  0  0  0  0  0  0  0  0  0  0
    9.6939  -18.3275   28.0153 O   0  0  0  0  0  0  0  0  0  0  0  0
    8.0853  -17.1689   26.9617 O   0  0  0  0  0  0  0  0  0  0  0  0
  2  1  1  6
  2  3  1  0
  4  8  1  0
  4  3  1  0
  5  4  2  0
  6  2  1  0
  7  6  2  0
  9 10  1  0
 10 11  2  0
 10 20  1  0
 11 12  1  0
 12 13  2  0
 13 14  1  0
 15 14  1  6
 15 16  1  0
 16  6  1  0
 17 15  1  0
 17 18  2  0
 19 13  1  0
 20 19  2  0
 21 22  1  0
 23 25  1  0
 23 22  1  0
 23 24  1  1
 25 26  1  6
 26 17  1  0
 27 25  1  0
 28 27  1  0
 29 27  2  0
M  END
$$$$
