DYI.pdb
     RDKit          3D

 29 29  0  0  1  0  0  0  0  0999 V2000
    5.9387  -18.3975   19.4106 N   0  0  0  0  0  0  0  0  0  0  0  0
    7.1007  -17.8324   20.0442 C   0  0  1  0  0  0  0  0  0  0  0  0
    7.5525  -16.5245   19.4306 C   0  0  0  0  0  0  0  0  0  0  0  0
    8.3162  -16.8161   18.1946 C   0  0  0  0  0  0  0  0  0  0  0  0
    8.4113  -15.9836   17.2704 O   0  0  0  0  0  0  0  0  0  0  0  0
    6.8225  -17.6941   21.4923 C   0  0  0  0  0  0  0  0  0  0  0  0
    5.6453  -17.4803   21.8676 O   0  0  0  0  0  0  0  0  0  0  0  0
    8.9790  -18.0399   17.9817 O   0  0  0  0  0  0  0  0  0  0  0  0
    7.9628  -19.8287   30.0207 O   0  0  0  0  0  0  0  0  0  0  0  0
    8.0042  -19.6347   28.6445 C   0  0  0  0  0  0  0  0  0  0  0  0
    6.8779  -19.7574   27.8599 C   0  0  0  0  0  0  0  0  0  0  0  0
    6.9594  -19.5584   26.5047 C   0  0  0  0  0  0  0  0  0  0  0  0
    8.1556  -19.2354   25.9089 C   0  0  0  0  0  0  0  0  0  0  0  0
    8.1903  -19.0958   24.4538 C   0  0  0  0  0  0  0  0  0  0  0  0
    7.5726  -17.8360   23.9164 C   0  0  2  0  0  0  0  0  0  0  0  0
    7.8649  -17.8006   22.4427 N   0  0  0  0  0  0  0  0  0  0  0  0
    8.2313  -16.6473   24.4443 C   0  0  0  0  0  0  0  0  0  0  0  0
    9.3873  -16.3561   24.0362 O   0  0  0  0  0  0  0  0  0  0  0  0
    9.2648  -19.1176   26.7111 C   0  0  0  0  0  0  0  0  0  0  0  0
    9.2111  -19.3109   28.0621 C   0  0  0  0  0  0  0  0  0  0  0  0
    5.3572  -12.3231   26.0747 C   0  0  0  0  0  0  0  0  0  0  0  0
    6.4558  -13.1154   25.3615 C   0  0  0  0  0  0  0  0  0  0  0  0
    7.3842  -13.6119   26.4250 C   0  0  2  0  0  0  0  0  0  0  0  0
    8.1976  -12.4805   27.0299 C   0  0  0  0  0  0  0  0  0  0  0  0
    8.3775  -14.5917   25.8073 C   0  0  2  0  0  0  0  0  0  0  0  0
    7.6189  -15.7948   25.3957 N   0  0  0  0  0  0  0  0  0  0  0  0
    9.3584  -15.0169   26.8103 C   0  0  0  0  0  0  0  0  0  0  0  0
    9.2300  -16.1955   27.5536 O   0  0  0  0  0  0  0  0  0  0  0  0
   10.3832  -14.3327   27.0636 O   0  0  0  0  0  0  0  0  0  0  0  0
  2  1  1  6
  2  3  1  0
  4  8  1  0
  4  3  1  0
  5  4  2  0
  6  2  1  0
  7  6  2  0
  9 10  1  0
 10 11  2  0
 10 20  1  0
 11 12  1  0
 12 13  2  0
 13 14  1  0
 15 14  1  1
 15 16  1  0
 16  6  1  0
 17 15  1  0
 17 18  2  0
 19 13  1  0
 20 19  2  0
 21 22  1  0
 23 25  1  0
 23 22  1  0
 23 24  1  6
 25 26  1  1
 26 17  1  0
 27 25  1  0
 28 27  1  0
 29 27  2  0
M  END
$$$$
