DYI.pdb
     RDKit          3D

 29 29  0  0  1  0  0  0  0  0999 V2000
   11.9222  -16.5603   19.4914 N   0  0  0  0  0  0  0  0  0  0  0  0
   11.3243  -17.3392   20.5434 C   0  0  1  0  0  0  0  0  0  0  0  0
   12.2029  -18.4675   21.0393 C   0  0  0  0  0  0  0  0  0  0  0  0
   12.5228  -19.3593   19.8999 C   0  0  0  0  0  0  0  0  0  0  0  0
   13.2078  -20.3915   20.0468 O   0  0  0  0  0  0  0  0  0  0  0  0
   10.9340  -16.4226   21.6393 C   0  0  0  0  0  0  0  0  0  0  0  0
   11.6686  -15.4409   21.9016 O   0  0  0  0  0  0  0  0  0  0  0  0
   12.0802  -19.1044   18.5878 O   0  0  0  0  0  0  0  0  0  0  0  0
    5.3239  -12.2619   27.1511 O   0  0  0  0  0  0  0  0  0  0  0  0
    5.9597  -13.0715   26.2164 C   0  0  0  0  0  0  0  0  0  0  0  0
    6.8093  -12.5514   25.2641 C   0  0  0  0  0  0  0  0  0  0  0  0
    7.4179  -13.3832   24.3583 C   0  0  0  0  0  0  0  0  0  0  0  0
    7.1939  -14.7395   24.3833 C   0  0  0  0  0  0  0  0  0  0  0  0
    7.8236  -15.5655   23.3542 C   0  0  0  0  0  0  0  0  0  0  0  0
    9.3171  -15.6906   23.4585 C   0  0  2  0  0  0  0  0  0  0  0  0
    9.7514  -16.6462   22.3830 N   0  0  0  0  0  0  0  0  0  0  0  0
    9.7162  -16.3397   24.7015 C   0  0  0  0  0  0  0  0  0  0  0  0
    9.9955  -17.5682   24.6880 O   0  0  0  0  0  0  0  0  0  0  0  0
    6.3439  -15.2354   25.3420 C   0  0  0  0  0  0  0  0  0  0  0  0
    5.7251  -14.4294   26.2548 C   0  0  0  0  0  0  0  0  0  0  0  0
   10.8895  -13.1631   28.9855 C   0  0  0  0  0  0  0  0  0  0  0  0
   11.1550  -14.2008   27.8919 C   0  0  0  0  0  0  0  0  0  0  0  0
   10.3930  -15.4305   28.2750 C   0  0  2  0  0  0  0  0  0  0  0  0
   11.0648  -16.1710   29.4187 C   0  0  0  0  0  0  0  0  0  0  0  0
   10.3551  -16.3881   27.0877 C   0  0  2  0  0  0  0  0  0  0  0  0
    9.8134  -15.6407   25.9299 N   0  0  0  0  0  0  0  0  0  0  0  0
    9.4345  -17.4958   27.3608 C   0  0  0  0  0  0  0  0  0  0  0  0
    9.8368  -18.6937   27.9619 O   0  0  0  0  0  0  0  0  0  0  0  0
    8.2144  -17.4298   27.0617 O   0  0  0  0  0  0  0  0  0  0  0  0
  2  1  1  6
  2  3  1  0
  4  8  1  0
  4  3  1  0
  5  4  2  0
  6  2  1  0
  7  6  2  0
  9 10  1  0
 10 11  2  0
 10 20  1  0
 11 12  1  0
 12 13  2  0
 13 14  1  0
 15 14  1  1
 15 16  1  0
 16  6  1  0
 17 15  1  0
 17 18  2  0
 19 13  1  0
 20 19  2  0
 21 22  1  0
 23 25  1  0
 23 22  1  0
 23 24  1  1
 25 26  1  6
 26 17  1  0
 27 25  1  0
 28 27  1  0
 29 27  2  0
M  END
$$$$
