DYI.pdb
     RDKit          3D

 29 29  0  0  1  0  0  0  0  0999 V2000
    9.7943  -19.0030   20.2370 N   0  0  0  0  0  0  0  0  0  0  0  0
   10.2264  -17.7175   20.7185 C   0  0  1  0  0  0  0  0  0  0  0  0
    9.8024  -16.5634   19.8356 C   0  0  0  0  0  0  0  0  0  0  0  0
   10.5834  -16.6134   18.5772 C   0  0  0  0  0  0  0  0  0  0  0  0
   11.7816  -16.9606   18.5621 O   0  0  0  0  0  0  0  0  0  0  0  0
    9.7441  -17.5531   22.1090 C   0  0  0  0  0  0  0  0  0  0  0  0
    8.5240  -17.7102   22.3521 O   0  0  0  0  0  0  0  0  0  0  0  0
   10.0321  -16.2753   17.3266 O   0  0  0  0  0  0  0  0  0  0  0  0
   10.5368  -17.3477   30.9945 O   0  0  0  0  0  0  0  0  0  0  0  0
   10.7234  -17.3806   29.6170 C   0  0  0  0  0  0  0  0  0  0  0  0
   10.0380  -18.2652   28.8126 C   0  0  0  0  0  0  0  0  0  0  0  0
   10.2499  -18.2673   27.4569 C   0  0  0  0  0  0  0  0  0  0  0  0
   11.1421  -17.3946   26.8802 C   0  0  0  0  0  0  0  0  0  0  0  0
   11.3690  -17.4866   25.4387 C   0  0  0  0  0  0  0  0  0  0  0  0
   10.1810  -17.1548   24.5808 C   0  0  2  0  0  0  0  0  0  0  0  0
   10.6414  -17.2236   23.1519 N   0  0  0  0  0  0  0  0  0  0  0  0
    9.7601  -15.7703   24.7588 C   0  0  0  0  0  0  0  0  0  0  0  0
   10.4627  -14.8487   24.2644 O   0  0  0  0  0  0  0  0  0  0  0  0
   11.8132  -16.5214   27.7017 C   0  0  0  0  0  0  0  0  0  0  0  0
   11.6212  -16.4990   29.0538 C   0  0  0  0  0  0  0  0  0  0  0  0
    6.8814  -11.4664   24.6564 C   0  0  0  0  0  0  0  0  0  0  0  0
    6.5961  -12.2711   25.9270 C   0  0  0  0  0  0  0  0  0  0  0  0
    6.8684  -13.7049   25.5954 C   0  0  2  0  0  0  0  0  0  0  0  0
    6.1643  -14.6450   26.5588 C   0  0  0  0  0  0  0  0  0  0  0  0
    8.3644  -13.9750   25.7251 C   0  0  2  0  0  0  0  0  0  0  0  0
    8.5814  -15.4156   25.4603 N   0  0  0  0  0  0  0  0  0  0  0  0
    8.8086  -13.7124   27.0973 C   0  0  0  0  0  0  0  0  0  0  0  0
    8.9350  -14.7151   28.0651 O   0  0  0  0  0  0  0  0  0  0  0  0
    9.1014  -12.5524   27.4861 O   0  0  0  0  0  0  0  0  0  0  0  0
  2  1  1  6
  2  3  1  0
  4  8  1  0
  4  3  1  0
  5  4  2  0
  6  2  1  0
  7  6  2  0
  9 10  1  0
 10 11  2  0
 10 20  1  0
 11 12  1  0
 12 13  2  0
 13 14  1  0
 15 14  1  1
 15 16  1  0
 16  6  1  0
 17 15  1  0
 17 18  2  0
 19 13  1  0
 20 19  2  0
 21 22  1  0
 23 25  1  0
 23 22  1  0
 23 24  1  1
 25 26  1  1
 26 17  1  0
 27 25  1  0
 28 27  1  0
 29 27  2  0
M  END
$$$$
