DYI.pdb
     RDKit          3D

 29 29  0  0  1  0  0  0  0  0999 V2000
    8.3688  -18.4087   18.8244 N   0  0  0  0  0  0  0  0  0  0  0  0
    9.2501  -17.6895   19.7059 C   0  0  1  0  0  0  0  0  0  0  0  0
    9.6606  -16.3308   19.1800 C   0  0  0  0  0  0  0  0  0  0  0  0
   10.5586  -16.5209   18.0167 C   0  0  0  0  0  0  0  0  0  0  0  0
   10.1982  -16.2376   16.8565 O   0  0  0  0  0  0  0  0  0  0  0  0
    8.6047  -17.5934   21.0355 C   0  0  0  0  0  0  0  0  0  0  0  0
    7.3559  -17.5003   21.0999 O   0  0  0  0  0  0  0  0  0  0  0  0
   11.8657  -17.0293   18.1407 O   0  0  0  0  0  0  0  0  0  0  0  0
    7.9363  -19.2330   29.7178 O   0  0  0  0  0  0  0  0  0  0  0  0
    8.3157  -19.1407   28.3833 C   0  0  0  0  0  0  0  0  0  0  0  0
    9.6180  -18.8800   28.0152 C   0  0  0  0  0  0  0  0  0  0  0  0
    9.9532  -18.7960   26.6873 C   0  0  0  0  0  0  0  0  0  0  0  0
    9.0047  -18.9692   25.7072 C   0  0  0  0  0  0  0  0  0  0  0  0
    9.4117  -18.8076   24.3121 C   0  0  0  0  0  0  0  0  0  0  0  0
    8.7320  -17.6907   23.5719 C   0  0  2  0  0  0  0  0  0  0  0  0
    9.3801  -17.6056   22.2187 N   0  0  0  0  0  0  0  0  0  0  0  0
    9.0042  -16.3962   24.1851 C   0  0  0  0  0  0  0  0  0  0  0  0
   10.1421  -15.8759   24.0366 O   0  0  0  0  0  0  0  0  0  0  0  0
    7.7134  -19.2290   26.0977 C   0  0  0  0  0  0  0  0  0  0  0  0
    7.3532  -19.3171   27.4122 C   0  0  0  0  0  0  0  0  0  0  0  0
    6.2830  -11.3244   26.1252 C   0  0  0  0  0  0  0  0  0  0  0  0
    7.5724  -12.1481   26.0768 C   0  0  0  0  0  0  0  0  0  0  0  0
    7.2063  -13.4826   25.5068 C   0  0  2  0  0  0  0  0  0  0  0  0
    6.1566  -14.1829   26.3525 C   0  0  0  0  0  0  0  0  0  0  0  0
    8.4401  -14.3802   25.4974 C   0  0  2  0  0  0  0  0  0  0  0  0
    8.0340  -15.6895   24.9377 N   0  0  0  0  0  0  0  0  0  0  0  0
    8.9035  -14.6169   26.8679 C   0  0  0  0  0  0  0  0  0  0  0  0
    8.8011  -15.8582   27.5059 O   0  0  0  0  0  0  0  0  0  0  0  0
    9.4234  -13.7017   27.5567 O   0  0  0  0  0  0  0  0  0  0  0  0
  2  1  1  6
  2  3  1  0
  4  8  1  0
  4  3  1  0
  5  4  2  0
  6  2  1  0
  7  6  2  0
  9 10  1  0
 10 11  2  0
 10 20  1  0
 11 12  1  0
 12 13  2  0
 13 14  1  0
 15 14  1  1
 15 16  1  0
 16  6  1  0
 17 15  1  0
 17 18  2  0
 19 13  1  0
 20 19  2  0
 21 22  1  0
 23 25  1  0
 23 22  1  0
 23 24  1  1
 25 26  1  1
 26 17  1  0
 27 25  1  0
 28 27  1  0
 29 27  2  0
M  END
$$$$
