DYI.pdb
     RDKit          3D

 29 29  0  0  1  0  0  0  0  0999 V2000
    5.8548  -20.0076   21.3996 N   0  0  0  0  0  0  0  0  0  0  0  0
    6.5993  -18.7809   21.5096 C   0  0  1  0  0  0  0  0  0  0  0  0
    6.2430  -17.7565   20.4539 C   0  0  0  0  0  0  0  0  0  0  0  0
    7.1968  -17.8813   19.3268 C   0  0  0  0  0  0  0  0  0  0  0  0
    8.0752  -18.7669   19.3056 O   0  0  0  0  0  0  0  0  0  0  0  0
    6.4190  -18.2461   22.8789 C   0  0  0  0  0  0  0  0  0  0  0  0
    5.2603  -17.9902   23.2842 O   0  0  0  0  0  0  0  0  0  0  0  0
    7.1770  -17.0174   18.2151 O   0  0  0  0  0  0  0  0  0  0  0  0
    6.0500  -23.2925   27.7861 O   0  0  0  0  0  0  0  0  0  0  0  0
    6.5852  -22.0948   27.3253 C   0  0  0  0  0  0  0  0  0  0  0  0
    7.5789  -22.0634   26.3709 C   0  0  0  0  0  0  0  0  0  0  0  0
    8.0819  -20.8610   25.9419 C   0  0  0  0  0  0  0  0  0  0  0  0
    7.6082  -19.6751   26.4512 C   0  0  0  0  0  0  0  0  0  0  0  0
    8.2265  -18.4298   25.9986 C   0  0  0  0  0  0  0  0  0  0  0  0
    7.3557  -17.5578   25.1391 C   0  0  2  0  0  0  0  0  0  0  0  0
    7.5335  -18.0249   23.7218 N   0  0  0  0  0  0  0  0  0  0  0  0
    7.8241  -16.1772   25.1262 C   0  0  0  0  0  0  0  0  0  0  0  0
    8.9296  -15.9111   24.5834 O   0  0  0  0  0  0  0  0  0  0  0  0
    6.6170  -19.7309   27.4009 C   0  0  0  0  0  0  0  0  0  0  0  0
    6.0995  -20.9142   27.8456 C   0  0  0  0  0  0  0  0  0  0  0  0
    7.3088  -10.7892   24.7202 C   0  0  0  0  0  0  0  0  0  0  0  0
    7.2630  -11.3959   26.1249 C   0  0  0  0  0  0  0  0  0  0  0  0
    6.6365  -12.7479   25.9868 C   0  0  2  0  0  0  0  0  0  0  0  0
    5.9234  -13.1666   27.2610 C   0  0  0  0  0  0  0  0  0  0  0  0
    7.7274  -13.7828   25.7280 C   0  0  2  0  0  0  0  0  0  0  0  0
    7.0795  -15.1138   25.6933 N   0  0  0  0  0  0  0  0  0  0  0  0
    8.6869  -13.7939   26.8363 C   0  0  0  0  0  0  0  0  0  0  0  0
    9.8596  -13.0304   26.8399 O   0  0  0  0  0  0  0  0  0  0  0  0
    8.5070  -14.5044   27.8587 O   0  0  0  0  0  0  0  0  0  0  0  0
  2  1  1  1
  2  3  1  0
  4  8  1  0
  4  3  1  0
  5  4  2  0
  6  2  1  0
  7  6  2  0
  9 10  1  0
 10 11  2  0
 10 20  1  0
 11 12  1  0
 12 13  2  0
 13 14  1  0
 15 14  1  1
 15 16  1  0
 16  6  1  0
 17 15  1  0
 17 18  2  0
 19 13  1  0
 20 19  2  0
 21 22  1  0
 23 25  1  0
 23 22  1  0
 23 24  1  1
 25 26  1  1
 26 17  1  0
 27 25  1  0
 28 27  1  0
 29 27  2  0
M  END
$$$$
