DYI.pdb
     RDKit          3D

 29 29  0  0  1  0  0  0  0  0999 V2000
   11.5141  -17.1155   19.2638 N   0  0  0  0  0  0  0  0  0  0  0  0
   11.6734  -17.6814   20.5774 C   0  0  1  0  0  0  0  0  0  0  0  0
   13.0644  -18.2149   20.8452 C   0  0  0  0  0  0  0  0  0  0  0  0
   13.3470  -19.3115   19.8895 C   0  0  0  0  0  0  0  0  0  0  0  0
   14.5018  -19.5408   19.4770 O   0  0  0  0  0  0  0  0  0  0  0  0
   11.2719  -16.6642   21.5762 C   0  0  0  0  0  0  0  0  0  0  0  0
   11.9284  -15.5989   21.6568 O   0  0  0  0  0  0  0  0  0  0  0  0
   12.3418  -20.1597   19.3871 O   0  0  0  0  0  0  0  0  0  0  0  0
    6.8540  -13.0879   18.2287 O   0  0  0  0  0  0  0  0  0  0  0  0
    7.1991  -13.7279   19.4138 C   0  0  0  0  0  0  0  0  0  0  0  0
    6.9913  -15.0780   19.5969 C   0  0  0  0  0  0  0  0  0  0  0  0
    7.3451  -15.6734   20.7814 C   0  0  0  0  0  0  0  0  0  0  0  0
    7.9089  -14.9411   21.7992 C   0  0  0  0  0  0  0  0  0  0  0  0
    8.2080  -15.6204   23.0590 C   0  0  0  0  0  0  0  0  0  0  0  0
    9.6692  -15.8092   23.3536 C   0  0  2  0  0  0  0  0  0  0  0  0
   10.1654  -16.8853   22.4295 N   0  0  0  0  0  0  0  0  0  0  0  0
    9.8818  -16.3534   24.6894 C   0  0  0  0  0  0  0  0  0  0  0  0
   10.0119  -17.5988   24.8292 O   0  0  0  0  0  0  0  0  0  0  0  0
    8.1074  -13.5972   21.5938 C   0  0  0  0  0  0  0  0  0  0  0  0
    7.7639  -12.9800   20.4248 C   0  0  0  0  0  0  0  0  0  0  0  0
    9.6101  -13.2342   29.3769 C   0  0  0  0  0  0  0  0  0  0  0  0
    9.3286  -14.2515   28.2682 C   0  0  0  0  0  0  0  0  0  0  0  0
   10.5486  -15.1111   28.1566 C   0  0  2  0  0  0  0  0  0  0  0  0
   11.7519  -14.3150   27.6813 C   0  0  0  0  0  0  0  0  0  0  0  0
   10.3008  -16.2026   27.1197 C   0  0  2  0  0  0  0  0  0  0  0  0
    9.9585  -15.5349   25.8432 N   0  0  0  0  0  0  0  0  0  0  0  0
    9.1457  -17.0170   27.5091 C   0  0  0  0  0  0  0  0  0  0  0  0
    9.1775  -17.9325   28.5669 O   0  0  0  0  0  0  0  0  0  0  0  0
    8.0470  -16.9382   26.9016 O   0  0  0  0  0  0  0  0  0  0  0  0
  2  1  1  6
  2  3  1  0
  4  8  1  0
  4  3  1  0
  5  4  2  0
  6  2  1  0
  7  6  2  0
  9 10  1  0
 10 11  2  0
 10 20  1  0
 11 12  1  0
 12 13  2  0
 13 14  1  0
 15 14  1  6
 15 16  1  0
 16  6  1  0
 17 15  1  0
 17 18  2  0
 19 13  1  0
 20 19  2  0
 21 22  1  0
 23 25  1  0
 23 22  1  0
 23 24  1  6
 25 26  1  6
 26 17  1  0
 27 25  1  0
 28 27  1  0
 29 27  2  0
M  END
$$$$
