DYI.pdb
     RDKit          3D

 29 29  0  0  1  0  0  0  0  0999 V2000
    9.8760  -18.6299   20.5549 N   0  0  0  0  0  0  0  0  0  0  0  0
   10.9789  -17.7054   20.5480 C   0  0  1  0  0  0  0  0  0  0  0  0
   11.2850  -17.1341   19.1802 C   0  0  0  0  0  0  0  0  0  0  0  0
   11.8185  -18.2161   18.3196 C   0  0  0  0  0  0  0  0  0  0  0  0
   12.4750  -19.1662   18.7915 O   0  0  0  0  0  0  0  0  0  0  0  0
   10.7027  -16.6411   21.5402 C   0  0  0  0  0  0  0  0  0  0  0  0
   11.5076  -15.6856   21.6469 O   0  0  0  0  0  0  0  0  0  0  0  0
   11.6230  -18.2446   16.9256 O   0  0  0  0  0  0  0  0  0  0  0  0
    5.6522  -11.4349   26.6261 O   0  0  0  0  0  0  0  0  0  0  0  0
    6.1533  -12.4955   25.8794 C   0  0  0  0  0  0  0  0  0  0  0  0
    5.9293  -13.8067   26.2398 C   0  0  0  0  0  0  0  0  0  0  0  0
    6.4410  -14.8261   25.4771 C   0  0  0  0  0  0  0  0  0  0  0  0
    7.1802  -14.5613   24.3486 C   0  0  0  0  0  0  0  0  0  0  0  0
    7.7494  -15.6888   23.6119 C   0  0  0  0  0  0  0  0  0  0  0  0
    9.2168  -15.5802   23.3082 C   0  0  2  0  0  0  0  0  0  0  0  0
    9.5499  -16.6961   22.3583 N   0  0  0  0  0  0  0  0  0  0  0  0
   10.0308  -15.8535   24.4866 C   0  0  0  0  0  0  0  0  0  0  0  0
   11.2856  -15.8678   24.3736 O   0  0  0  0  0  0  0  0  0  0  0  0
    7.3899  -13.2468   24.0083 C   0  0  0  0  0  0  0  0  0  0  0  0
    6.8923  -12.2136   24.7504 C   0  0  0  0  0  0  0  0  0  0  0  0
    9.6998  -12.8950   28.5955 C   0  0  0  0  0  0  0  0  0  0  0  0
   10.2192  -13.8323   27.5022 C   0  0  0  0  0  0  0  0  0  0  0  0
    9.9557  -15.2277   27.9744 C   0  0  2  0  0  0  0  0  0  0  0  0
   10.7443  -15.5508   29.2319 C   0  0  0  0  0  0  0  0  0  0  0  0
   10.4068  -16.2145   26.9017 C   0  0  2  0  0  0  0  0  0  0  0  0
    9.4671  -16.0956   25.7636 N   0  0  0  0  0  0  0  0  0  0  0  0
   10.3098  -17.5879   27.4052 C   0  0  0  0  0  0  0  0  0  0  0  0
    9.1841  -18.3959   27.2104 O   0  0  0  0  0  0  0  0  0  0  0  0
   11.2468  -18.1217   28.0530 O   0  0  0  0  0  0  0  0  0  0  0  0
  2  1  1  6
  2  3  1  0
  4  8  1  0
  4  3  1  0
  5  4  2  0
  6  2  1  0
  7  6  2  0
  9 10  1  0
 10 11  2  0
 10 20  1  0
 11 12  1  0
 12 13  2  0
 13 14  1  0
 15 14  1  1
 15 16  1  0
 16  6  1  0
 17 15  1  0
 17 18  2  0
 19 13  1  0
 20 19  2  0
 21 22  1  0
 23 25  1  0
 23 22  1  0
 23 24  1  1
 25 26  1  6
 26 17  1  0
 27 25  1  0
 28 27  1  0
 29 27  2  0
M  END
$$$$
