SQY.pdb
     RDKit          3D

 28 28  0  0  1  0  0  0  0  0999 V2000
   32.9048  -29.4964  -21.1668 O   0  0  0  0  0  0  0  0  0  0  0  0
   31.8922  -29.5839  -20.2345 C   0  0  0  0  0  0  0  0  0  0  0  0
   32.2486  -28.8982  -18.9237 C   0  0  2  0  0  0  0  0  0  0  0  0
   33.4366  -29.4529  -18.3526 N   0  0  0  0  0  0  0  0  0  0  0  0
   31.0732  -28.9955  -18.0263 C   0  0  0  0  0  0  0  0  0  0  0  0
   31.0761  -29.9012  -17.1546 O   0  0  0  0  0  0  0  0  0  0  0  0
   27.1580  -24.2962  -16.9035 N   0  0  0  0  0  0  0  0  0  0  0  0
   26.5254  -25.3712  -16.2381 C   0  0  0  0  0  0  0  0  0  0  0  0
   25.4872  -25.1181  -15.5816 O   0  0  0  0  0  0  0  0  0  0  0  0
   27.0176  -26.7663  -16.2741 C   0  0  0  0  0  0  0  0  0  0  0  0
   28.2908  -26.8365  -17.0426 C   0  0  0  0  0  0  0  0  0  0  0  0
   28.8652  -28.2219  -17.1634 C   0  0  2  0  0  0  0  0  0  0  0  0
   29.9739  -28.1301  -18.1096 N   0  0  0  0  0  0  0  0  0  0  0  0
   27.9196  -29.2227  -17.6683 C   0  0  0  0  0  0  0  0  0  0  0  0
   27.5629  -29.2748  -18.8890 O   0  0  0  0  0  0  0  0  0  0  0  0
   25.5905  -33.1172  -11.2842 O   0  0  0  0  0  0  0  0  0  0  0  0
   25.9364  -32.9783  -12.6389 C   0  0  0  0  0  0  0  0  0  0  0  0
   25.0343  -33.3713  -13.6000 C   0  0  0  0  0  0  0  0  0  0  0  0
   25.3477  -33.2460  -14.9190 C   0  0  0  0  0  0  0  0  0  0  0  0
   26.5614  -32.7288  -15.3158 C   0  0  0  0  0  0  0  0  0  0  0  0
   26.8901  -32.5986  -16.7439 C   0  0  0  0  0  0  0  0  0  0  0  0
   26.4942  -31.2787  -17.3015 C   0  0  2  0  0  0  0  0  0  0  0  0
   27.3419  -30.1994  -16.8210 N   0  0  0  0  0  0  0  0  0  0  0  0
   25.0608  -30.9493  -17.1147 C   0  0  0  0  0  0  0  0  0  0  0  0
   24.0171  -31.6468  -17.6791 O   0  0  0  0  0  0  0  0  0  0  0  0
   27.4528  -32.3402  -14.3378 C   0  0  0  0  0  0  0  0  0  0  0  0
   27.1610  -32.4562  -13.0091 C   0  0  0  0  0  0  0  0  0  0  0  0
   24.7376  -29.9562  -16.3880 O   0  0  0  0  0  0  0  0  0  0  0  0
  1  2  1  0
  3  4  1  1
  3  2  1  0
  5  3  1  0
  6  5  2  0
  8 10  1  0
  8  7  1  0
  9  8  2  0
 11 10  1  0
 12 11  1  6
 12 13  1  0
 13  5  1  0
 14 12  1  0
 14 15  2  0
 16 17  1  0
 17 18  2  0
 18 19  1  0
 20 19  2  0
 20 21  1  0
 22 21  1  1
 22 23  1  0
 23 14  1  0
 24 22  1  0
 25 24  1  0
 26 20  1  0
 27 17  1  0
 27 26  2  0
 28 24  2  0
M  END
$$$$
