SQY.pdb
     RDKit          3D

 28 28  0  0  1  0  0  0  0  0999 V2000
   22.1477   -8.6428  -22.6812 O   0  0  0  0  0  0  0  0  0  0  0  0
   21.2230   -8.4858  -21.6701 C   0  0  0  0  0  0  0  0  0  0  0  0
   20.8048   -9.8130  -21.0544 C   0  0  2  0  0  0  0  0  0  0  0  0
   19.9410  -10.5433  -21.9293 N   0  0  0  0  0  0  0  0  0  0  0  0
   20.1897   -9.5280  -19.7364 C   0  0  0  0  0  0  0  0  0  0  0  0
   19.0504   -8.9970  -19.7252 O   0  0  0  0  0  0  0  0  0  0  0  0
   18.3352  -13.0522  -15.7605 N   0  0  0  0  0  0  0  0  0  0  0  0
   18.2936  -11.8711  -14.9849 C   0  0  0  0  0  0  0  0  0  0  0  0
   17.6220  -11.8947  -13.9258 O   0  0  0  0  0  0  0  0  0  0  0  0
   18.9933  -10.6197  -15.3515 C   0  0  0  0  0  0  0  0  0  0  0  0
   19.5888  -10.7495  -16.7099 C   0  0  0  0  0  0  0  0  0  0  0  0
   20.1961   -9.4805  -17.2432 C   0  0  2  0  0  0  0  0  0  0  0  0
   20.8186   -9.8230  -18.5193 N   0  0  0  0  0  0  0  0  0  0  0  0
   21.2265   -8.8973  -16.3779 C   0  0  0  0  0  0  0  0  0  0  0  0
   22.4571   -9.2090  -16.4708 O   0  0  0  0  0  0  0  0  0  0  0  0
   21.0484   -1.9096  -17.9213 O   0  0  0  0  0  0  0  0  0  0  0  0
   21.5163   -3.0907  -17.3211 C   0  0  0  0  0  0  0  0  0  0  0  0
   22.0044   -3.0365  -16.0363 C   0  0  0  0  0  0  0  0  0  0  0  0
   22.4631   -4.1684  -15.4345 C   0  0  0  0  0  0  0  0  0  0  0  0
   22.4488   -5.3793  -16.0915 C   0  0  0  0  0  0  0  0  0  0  0  0
   22.9477   -6.5961  -15.4320 C   0  0  0  0  0  0  0  0  0  0  0  0
   21.9145   -7.2504  -14.5869 C   0  0  2  0  0  0  0  0  0  0  0  0
   20.9116   -7.9443  -15.3787 N   0  0  0  0  0  0  0  0  0  0  0  0
   21.2772   -6.3441  -13.6017 C   0  0  0  0  0  0  0  0  0  0  0  0
   19.9199   -6.1518  -13.4783 O   0  0  0  0  0  0  0  0  0  0  0  0
   21.9556   -5.4138  -17.3790 C   0  0  0  0  0  0  0  0  0  0  0  0
   21.4903   -4.2923  -18.0032 C   0  0  0  0  0  0  0  0  0  0  0  0
   22.0082   -5.6804  -12.7992 O   0  0  0  0  0  0  0  0  0  0  0  0
  1  2  1  0
  3  4  1  6
  3  2  1  0
  5  3  1  0
  6  5  2  0
  8 10  1  0
  8  7  1  0
  9  8  2  0
 11 10  1  0
 12 11  1  1
 12 13  1  0
 13  5  1  0
 14 12  1  0
 14 15  2  0
 16 17  1  0
 17 18  2  0
 18 19  1  0
 20 19  2  0
 20 21  1  0
 22 21  1  6
 22 23  1  0
 23 14  1  0
 24 22  1  0
 25 24  1  0
 26 20  1  0
 27 17  1  0
 27 26  2  0
 28 24  2  0
M  END
$$$$
