SQY.pdb
     RDKit          3D

 28 28  0  0  1  0  0  0  0  0999 V2000
   14.3431   -6.1713  -14.9087 O   0  0  0  0  0  0  0  0  0  0  0  0
   15.0893   -5.9953  -16.0551 C   0  0  0  0  0  0  0  0  0  0  0  0
   15.1914   -7.2681  -16.8828 C   0  0  2  0  0  0  0  0  0  0  0  0
   14.2248   -8.2372  -16.4685 N   0  0  0  0  0  0  0  0  0  0  0  0
   16.5857   -7.7614  -16.7866 C   0  0  0  0  0  0  0  0  0  0  0  0
   16.7875   -8.9867  -16.9819 O   0  0  0  0  0  0  0  0  0  0  0  0
   19.4240  -10.2151  -19.5738 N   0  0  0  0  0  0  0  0  0  0  0  0
   20.6016   -9.5421  -19.1752 C   0  0  0  0  0  0  0  0  0  0  0  0
   21.6988  -10.0156  -19.5563 O   0  0  0  0  0  0  0  0  0  0  0  0
   20.6097   -8.3204  -18.3402 C   0  0  0  0  0  0  0  0  0  0  0  0
   19.2148   -7.9322  -17.9938 C   0  0  0  0  0  0  0  0  0  0  0  0
   19.0471   -7.4122  -16.5919 C   0  0  2  0  0  0  0  0  0  0  0  0
   17.6729   -6.9280  -16.4907 N   0  0  0  0  0  0  0  0  0  0  0  0
   19.9448   -6.3039  -16.2505 C   0  0  0  0  0  0  0  0  0  0  0  0
   19.8996   -5.1777  -16.8417 O   0  0  0  0  0  0  0  0  0  0  0  0
   25.9791   -9.9790  -16.0935 O   0  0  0  0  0  0  0  0  0  0  0  0
   25.2229   -8.9190  -15.5654 C   0  0  0  0  0  0  0  0  0  0  0  0
   24.1791   -9.2042  -14.7162 C   0  0  0  0  0  0  0  0  0  0  0  0
   23.4326   -8.1932  -14.1924 C   0  0  0  0  0  0  0  0  0  0  0  0
   23.7029   -6.8773  -14.4979 C   0  0  0  0  0  0  0  0  0  0  0  0
   22.8892   -5.7926  -13.9269 C   0  0  0  0  0  0  0  0  0  0  0  0
   21.8161   -5.3391  -14.8502 C   0  0  2  0  0  0  0  0  0  0  0  0
   20.9240   -6.4213  -15.2340 N   0  0  0  0  0  0  0  0  0  0  0  0
   22.3129   -4.6139  -16.0440 C   0  0  0  0  0  0  0  0  0  0  0  0
   22.7979   -3.3259  -16.0321 O   0  0  0  0  0  0  0  0  0  0  0  0
   24.7533   -6.6111  -15.3510 C   0  0  0  0  0  0  0  0  0  0  0  0
   25.5160   -7.6078  -15.8885 C   0  0  0  0  0  0  0  0  0  0  0  0
   22.3025   -5.1939  -17.1765 O   0  0  0  0  0  0  0  0  0  0  0  0
  1  2  1  0
  3  4  1  1
  3  2  1  0
  5  3  1  0
  6  5  2  0
  8 10  1  0
  8  7  1  0
  9  8  2  0
 11 10  1  0
 12 11  1  6
 12 13  1  0
 13  5  1  0
 14 12  1  0
 14 15  2  0
 16 17  1  0
 17 18  2  0
 18 19  1  0
 20 19  2  0
 20 21  1  0
 22 21  1  6
 22 23  1  0
 23 14  1  0
 24 22  1  0
 25 24  1  0
 26 20  1  0
 27 17  1  0
 27 26  2  0
 28 24  2  0
M  END
$$$$
