SQY.pdb
     RDKit          3D

 28 28  0  0  1  0  0  0  0  0999 V2000
   17.8330  -16.4932  -13.7122 O   0  0  0  0  0  0  0  0  0  0  0  0
   18.6621  -15.7937  -14.5639 C   0  0  0  0  0  0  0  0  0  0  0  0
   18.2612  -15.9506  -16.0234 C   0  0  2  0  0  0  0  0  0  0  0  0
   18.5462  -17.2675  -16.5027 N   0  0  0  0  0  0  0  0  0  0  0  0
   18.9467  -14.8898  -16.7989 C   0  0  0  0  0  0  0  0  0  0  0  0
   19.4657  -15.2113  -17.8978 O   0  0  0  0  0  0  0  0  0  0  0  0
   17.0849  -12.2108  -20.6939 N   0  0  0  0  0  0  0  0  0  0  0  0
   16.5727  -11.8216  -19.4352 C   0  0  0  0  0  0  0  0  0  0  0  0
   15.4061  -11.3622  -19.3993 O   0  0  0  0  0  0  0  0  0  0  0  0
   17.3315  -11.9259  -18.1690 C   0  0  0  0  0  0  0  0  0  0  0  0
   18.6972  -12.4549  -18.4369 C   0  0  0  0  0  0  0  0  0  0  0  0
   19.5856  -12.5172  -17.2243 C   0  0  2  0  0  0  0  0  0  0  0  0
   19.0381  -13.5613  -16.3622 N   0  0  0  0  0  0  0  0  0  0  0  0
   19.6366  -11.2717  -16.4519 C   0  0  0  0  0  0  0  0  0  0  0  0
   18.7674  -10.9751  -15.5706 O   0  0  0  0  0  0  0  0  0  0  0  0
   22.3400   -3.3785  -13.5558 O   0  0  0  0  0  0  0  0  0  0  0  0
   22.2868   -4.6664  -14.1151 C   0  0  0  0  0  0  0  0  0  0  0  0
   22.1865   -4.7956  -15.4808 C   0  0  0  0  0  0  0  0  0  0  0  0
   22.1334   -6.0335  -16.0450 C   0  0  0  0  0  0  0  0  0  0  0  0
   22.1786   -7.1713  -15.2695 C   0  0  0  0  0  0  0  0  0  0  0  0
   22.1197   -8.5042  -15.8896 C   0  0  0  0  0  0  0  0  0  0  0  0
   20.7429   -9.0646  -15.9056 C   0  0  2  0  0  0  0  0  0  0  0  0
   20.6646  -10.3162  -16.6417 N   0  0  0  0  0  0  0  0  0  0  0  0
   19.7078   -8.1108  -16.3715 C   0  0  0  0  0  0  0  0  0  0  0  0
   18.9653   -7.2967  -15.5466 O   0  0  0  0  0  0  0  0  0  0  0  0
   22.2793   -7.0218  -13.9021 C   0  0  0  0  0  0  0  0  0  0  0  0
   22.3340   -5.7911  -13.3136 C   0  0  0  0  0  0  0  0  0  0  0  0
   19.4623   -8.0141  -17.6161 O   0  0  0  0  0  0  0  0  0  0  0  0
  1  2  1  0
  3  4  1  6
  3  2  1  0
  5  3  1  0
  6  5  2  0
  8 10  1  0
  8  7  1  0
  9  8  2  0
 11 10  1  0
 12 11  1  6
 12 13  1  0
 13  5  1  0
 14 12  1  0
 14 15  2  0
 16 17  1  0
 17 18  2  0
 18 19  1  0
 20 19  2  0
 20 21  1  0
 22 21  1  6
 22 23  1  0
 23 14  1  0
 24 22  1  0
 25 24  1  0
 26 20  1  0
 27 17  1  0
 27 26  2  0
 28 24  2  0
M  END
$$$$
