SQY.pdb
     RDKit          3D

 28 28  0  0  1  0  0  0  0  0999 V2000
   20.3330  -12.1581    6.6405 O   0  0  0  0  0  0  0  0  0  0  0  0
   20.2342  -12.6693    5.3634 C   0  0  0  0  0  0  0  0  0  0  0  0
   18.7970  -12.7150    4.8657 C   0  0  2  0  0  0  0  0  0  0  0  0
   18.1380  -11.4611    5.0626 N   0  0  0  0  0  0  0  0  0  0  0  0
   18.1163  -13.8415    5.5470 C   0  0  0  0  0  0  0  0  0  0  0  0
   17.5707  -13.6109    6.6558 O   0  0  0  0  0  0  0  0  0  0  0  0
   16.6776  -19.0045    2.5693 N   0  0  0  0  0  0  0  0  0  0  0  0
   15.6874  -18.0479    2.8898 C   0  0  0  0  0  0  0  0  0  0  0  0
   14.6487  -18.0288    2.1871 O   0  0  0  0  0  0  0  0  0  0  0  0
   15.8090  -17.0766    3.9997 C   0  0  0  0  0  0  0  0  0  0  0  0
   17.0939  -17.2877    4.7214 C   0  0  0  0  0  0  0  0  0  0  0  0
   17.4137  -16.2265    5.7389 C   0  0  2  0  0  0  0  0  0  0  0  0
   18.0575  -15.1355    5.0120 N   0  0  0  0  0  0  0  0  0  0  0  0
   18.3266  -16.6659    6.7992 C   0  0  0  0  0  0  0  0  0  0  0  0
   19.5907  -16.5493    6.7078 O   0  0  0  0  0  0  0  0  0  0  0  0
   16.7958  -13.0431   13.0218 O   0  0  0  0  0  0  0  0  0  0  0  0
   17.4817  -13.9344   12.1796 C   0  0  0  0  0  0  0  0  0  0  0  0
   18.1036  -13.4430   11.0554 C   0  0  0  0  0  0  0  0  0  0  0  0
   18.7742  -14.2880   10.2247 C   0  0  0  0  0  0  0  0  0  0  0  0
   18.8439  -15.6383   10.4885 C   0  0  0  0  0  0  0  0  0  0  0  0
   19.5705  -16.5426    9.5835 C   0  0  0  0  0  0  0  0  0  0  0  0
   18.7212  -17.6588    9.0909 C   0  0  2  0  0  0  0  0  0  0  0  0
   17.8524  -17.2512    7.9985 N   0  0  0  0  0  0  0  0  0  0  0  0
   17.9486  -18.3447   10.1542 C   0  0  0  0  0  0  0  0  0  0  0  0
   16.5807  -18.4974   10.1534 O   0  0  0  0  0  0  0  0  0  0  0  0
   18.2142  -16.1124   11.6202 C   0  0  0  0  0  0  0  0  0  0  0  0
   17.5359  -15.2847   12.4680 C   0  0  0  0  0  0  0  0  0  0  0  0
   18.5627  -18.8373   11.1537 O   0  0  0  0  0  0  0  0  0  0  0  0
  1  2  1  0
  3  4  1  1
  3  2  1  0
  5  3  1  0
  6  5  2  0
  8 10  1  0
  8  7  1  0
  9  8  2  0
 11 10  1  0
 12 11  1  6
 12 13  1  0
 13  5  1  0
 14 12  1  0
 14 15  2  0
 16 17  1  0
 17 18  2  0
 18 19  1  0
 20 19  2  0
 20 21  1  0
 22 21  1  1
 22 23  1  0
 23 14  1  0
 24 22  1  0
 25 24  1  0
 26 20  1  0
 27 17  1  0
 27 26  2  0
 28 24  2  0
M  END
$$$$
