SQY.pdb
     RDKit          3D

 28 28  0  0  1  0  0  0  0  0999 V2000
   18.5613  -13.6349  -14.9941 O   0  0  0  0  0  0  0  0  0  0  0  0
   19.2545  -12.5790  -15.5478 C   0  0  0  0  0  0  0  0  0  0  0  0
   18.5068  -11.9378  -16.7077 C   0  0  2  0  0  0  0  0  0  0  0  0
   18.6483  -12.7054  -17.9059 N   0  0  0  0  0  0  0  0  0  0  0  0
   18.9959  -10.5459  -16.8490 C   0  0  0  0  0  0  0  0  0  0  0  0
   20.0658  -10.3634  -17.4831 O   0  0  0  0  0  0  0  0  0  0  0  0
   15.7515   -5.5808  -15.5414 N   0  0  0  0  0  0  0  0  0  0  0  0
   16.8183   -4.9998  -16.2645 C   0  0  0  0  0  0  0  0  0  0  0  0
   16.8664   -3.7479  -16.3238 O   0  0  0  0  0  0  0  0  0  0  0  0
   17.8716   -5.7818  -16.9492 C   0  0  0  0  0  0  0  0  0  0  0  0
   17.5901   -7.2379  -16.8180 C   0  0  0  0  0  0  0  0  0  0  0  0
   18.8042   -8.0797  -16.5333 C   0  0  2  0  0  0  0  0  0  0  0  0
   18.3225   -9.4406  -16.3115 N   0  0  0  0  0  0  0  0  0  0  0  0
   19.5574   -7.6659  -15.3450 C   0  0  0  0  0  0  0  0  0  0  0  0
   19.2423   -8.0378  -14.1693 O   0  0  0  0  0  0  0  0  0  0  0  0
   25.8785   -6.8145  -18.8721 O   0  0  0  0  0  0  0  0  0  0  0  0
   25.1089   -6.8876  -17.6988 C   0  0  0  0  0  0  0  0  0  0  0  0
   24.3608   -8.0174  -17.4625 C   0  0  0  0  0  0  0  0  0  0  0  0
   23.6074   -8.1104  -16.3323 C   0  0  0  0  0  0  0  0  0  0  0  0
   23.5778   -7.0867  -15.4108 C   0  0  0  0  0  0  0  0  0  0  0  0
   22.7594   -7.1974  -14.1932 C   0  0  0  0  0  0  0  0  0  0  0  0
   21.4914   -6.4272  -14.2873 C   0  0  2  0  0  0  0  0  0  0  0  0
   20.6901   -6.8206  -15.4352 N   0  0  0  0  0  0  0  0  0  0  0  0
   21.6736   -4.9564  -14.2479 C   0  0  0  0  0  0  0  0  0  0  0  0
   22.3028   -4.2723  -13.2328 O   0  0  0  0  0  0  0  0  0  0  0  0
   24.3344   -5.9619  -15.6650 C   0  0  0  0  0  0  0  0  0  0  0  0
   25.0976   -5.8458  -16.7911 C   0  0  0  0  0  0  0  0  0  0  0  0
   21.2269   -4.2457  -15.2041 O   0  0  0  0  0  0  0  0  0  0  0  0
  1  2  1  0
  3  4  1  6
  3  2  1  0
  5  3  1  0
  6  5  2  0
  8 10  1  0
  8  7  1  0
  9  8  2  0
 11 10  1  0
 12 11  1  1
 12 13  1  0
 13  5  1  0
 14 12  1  0
 14 15  2  0
 16 17  1  0
 17 18  2  0
 18 19  1  0
 20 19  2  0
 20 21  1  0
 22 21  1  6
 22 23  1  0
 23 14  1  0
 24 22  1  0
 25 24  1  0
 26 20  1  0
 27 17  1  0
 27 26  2  0
 28 24  2  0
M  END
$$$$
