SQY.pdb
     RDKit          3D

 28 28  0  0  1  0  0  0  0  0999 V2000
   10.7239   -9.2887  -12.9299 O   0  0  0  0  0  0  0  0  0  0  0  0
   11.0445  -10.6295  -12.9689 C   0  0  0  0  0  0  0  0  0  0  0  0
   12.3188  -10.8992  -13.7557 C   0  0  2  0  0  0  0  0  0  0  0  0
   12.6072  -12.2986  -13.8152 N   0  0  0  0  0  0  0  0  0  0  0  0
   13.4093  -10.1077  -13.1386 C   0  0  0  0  0  0  0  0  0  0  0  0
   13.6672  -10.3133  -11.9256 O   0  0  0  0  0  0  0  0  0  0  0  0
   18.5557   -8.4735  -15.9209 N   0  0  0  0  0  0  0  0  0  0  0  0
   18.6513   -7.7197  -14.7288 C   0  0  0  0  0  0  0  0  0  0  0  0
   19.7318   -7.1244  -14.5027 O   0  0  0  0  0  0  0  0  0  0  0  0
   17.5552   -7.5963  -13.7422 C   0  0  0  0  0  0  0  0  0  0  0  0
   16.3846   -8.4060  -14.1788 C   0  0  0  0  0  0  0  0  0  0  0  0
   15.2400   -8.4156  -13.2024 C   0  0  2  0  0  0  0  0  0  0  0  0
   14.1541   -9.1525  -13.8436 N   0  0  0  0  0  0  0  0  0  0  0  0
   14.7383   -7.0831  -12.8512 C   0  0  0  0  0  0  0  0  0  0  0  0
   14.0133   -6.3938  -13.6381 O   0  0  0  0  0  0  0  0  0  0  0  0
   10.5776   -7.9710   -7.0997 O   0  0  0  0  0  0  0  0  0  0  0  0
   11.1920   -7.2728   -8.1529 C   0  0  0  0  0  0  0  0  0  0  0  0
   11.6115   -5.9803   -7.9396 C   0  0  0  0  0  0  0  0  0  0  0  0
   12.2093   -5.2843   -8.9455 C   0  0  0  0  0  0  0  0  0  0  0  0
   12.4050   -5.8525  -10.1852 C   0  0  0  0  0  0  0  0  0  0  0  0
   13.0514   -5.0909  -11.2654 C   0  0  0  0  0  0  0  0  0  0  0  0
   14.5347   -5.1706  -11.2097 C   0  0  2  0  0  0  0  0  0  0  0  0
   15.0328   -6.4783  -11.6049 N   0  0  0  0  0  0  0  0  0  0  0  0
   15.1137   -4.7541   -9.9100 C   0  0  0  0  0  0  0  0  0  0  0  0
   14.8849   -3.5397   -9.3040 O   0  0  0  0  0  0  0  0  0  0  0  0
   11.9778   -7.1492  -10.3801 C   0  0  0  0  0  0  0  0  0  0  0  0
   11.3759   -7.8670   -9.3869 C   0  0  0  0  0  0  0  0  0  0  0  0
   15.8826   -5.5518   -9.2843 O   0  0  0  0  0  0  0  0  0  0  0  0
  1  2  1  0
  3  4  1  1
  3  2  1  0
  5  3  1  0
  6  5  2  0
  8 10  1  0
  8  7  1  0
  9  8  2  0
 11 10  1  0
 12 11  1  6
 12 13  1  0
 13  5  1  0
 14 12  1  0
 14 15  2  0
 16 17  1  0
 17 18  2  0
 18 19  1  0
 20 19  2  0
 20 21  1  0
 22 21  1  1
 22 23  1  0
 23 14  1  0
 24 22  1  0
 25 24  1  0
 26 20  1  0
 27 17  1  0
 27 26  2  0
 28 24  2  0
M  END
$$$$
