SQY.pdb
     RDKit          3D

 28 28  0  0  1  0  0  0  0  0999 V2000
   30.5205  -23.0606  -17.0065 O   0  0  0  0  0  0  0  0  0  0  0  0
   29.4306  -22.5834  -16.3090 C   0  0  0  0  0  0  0  0  0  0  0  0
   28.3506  -22.0298  -17.2271 C   0  0  2  0  0  0  0  0  0  0  0  0
   28.7353  -20.7691  -17.7819 N   0  0  0  0  0  0  0  0  0  0  0  0
   27.0882  -21.9625  -16.4537 C   0  0  0  0  0  0  0  0  0  0  0  0
   26.6990  -20.8317  -16.0664 O   0  0  0  0  0  0  0  0  0  0  0  0
   23.0183  -26.7142  -15.7866 N   0  0  0  0  0  0  0  0  0  0  0  0
   22.5090  -25.7361  -14.9022 C   0  0  0  0  0  0  0  0  0  0  0  0
   21.4692  -26.0182  -14.2601 O   0  0  0  0  0  0  0  0  0  0  0  0
   23.1307  -24.4093  -14.6949 C   0  0  0  0  0  0  0  0  0  0  0  0
   24.3824  -24.3039  -15.4941 C   0  0  0  0  0  0  0  0  0  0  0  0
   25.0887  -22.9816  -15.3663 C   0  0  2  0  0  0  0  0  0  0  0  0
   26.3217  -23.0935  -16.1413 N   0  0  0  0  0  0  0  0  0  0  0  0
   25.4486  -22.6228  -13.9907 C   0  0  0  0  0  0  0  0  0  0  0  0
   26.5495  -22.9728  -13.4563 O   0  0  0  0  0  0  0  0  0  0  0  0
   27.4459  -19.1649   -6.4488 O   0  0  0  0  0  0  0  0  0  0  0  0
   27.1239  -19.5493   -7.7613 C   0  0  0  0  0  0  0  0  0  0  0  0
   27.7639  -20.6345   -8.3133 C   0  0  0  0  0  0  0  0  0  0  0  0
   27.4680  -21.0253   -9.5835 C   0  0  0  0  0  0  0  0  0  0  0  0
   26.5317  -20.3502  -10.3356 C   0  0  0  0  0  0  0  0  0  0  0  0
   26.2202  -20.7806  -11.7076 C   0  0  0  0  0  0  0  0  0  0  0  0
   24.9096  -21.4756  -11.8028 C   0  0  2  0  0  0  0  0  0  0  0  0
   24.5857  -21.8590  -13.1675 N   0  0  0  0  0  0  0  0  0  0  0  0
   23.7863  -20.7350  -11.1801 C   0  0  0  0  0  0  0  0  0  0  0  0
   22.7606  -20.1377  -11.8769 O   0  0  0  0  0  0  0  0  0  0  0  0
   25.9004  -19.2648   -9.7652 C   0  0  0  0  0  0  0  0  0  0  0  0
   26.1804  -18.8542   -8.4936 C   0  0  0  0  0  0  0  0  0  0  0  0
   23.7375  -20.6232   -9.9137 O   0  0  0  0  0  0  0  0  0  0  0  0
  1  2  1  0
  3  4  1  1
  3  2  1  0
  5  3  1  0
  6  5  2  0
  8 10  1  0
  8  7  1  0
  9  8  2  0
 11 10  1  0
 12 11  1  1
 12 13  1  0
 13  5  1  0
 14 12  1  0
 14 15  2  0
 16 17  1  0
 17 18  2  0
 18 19  1  0
 20 19  2  0
 20 21  1  0
 22 21  1  6
 22 23  1  0
 23 14  1  0
 24 22  1  0
 25 24  1  0
 26 20  1  0
 27 17  1  0
 27 26  2  0
 28 24  2  0
M  END
$$$$
