SQY.pdb
     RDKit          3D

 28 28  0  0  1  0  0  0  0  0999 V2000
   40.9935    3.9026   -6.4532 O   0  0  0  0  0  0  0  0  0  0  0  0
   40.1543    2.8408   -6.7186 C   0  0  0  0  0  0  0  0  0  0  0  0
   40.8807    1.6771   -7.3771 C   0  0  2  0  0  0  0  0  0  0  0  0
   40.8677    1.7951   -8.8023 N   0  0  0  0  0  0  0  0  0  0  0  0
   40.2591    0.4217   -6.8932 C   0  0  0  0  0  0  0  0  0  0  0  0
   39.2873   -0.0388   -7.5443 O   0  0  0  0  0  0  0  0  0  0  0  0
   42.7478   -3.7318   -3.4172 N   0  0  0  0  0  0  0  0  0  0  0  0
   41.6004   -4.4259   -3.8645 C   0  0  0  0  0  0  0  0  0  0  0  0
   41.3652   -5.5482   -3.3562 O   0  0  0  0  0  0  0  0  0  0  0  0
   40.6702   -3.9047   -4.8906 C   0  0  0  0  0  0  0  0  0  0  0  0
   41.1272   -2.5672   -5.3586 C   0  0  0  0  0  0  0  0  0  0  0  0
   40.0661   -1.5013   -5.3173 C   0  0  2  0  0  0  0  0  0  0  0  0
   40.7051   -0.2629   -5.7545 N   0  0  0  0  0  0  0  0  0  0  0  0
   39.4960   -1.2720   -3.9858 C   0  0  0  0  0  0  0  0  0  0  0  0
   40.1176   -0.6388   -3.0733 O   0  0  0  0  0  0  0  0  0  0  0  0
   34.0496   -1.4521    2.9334 O   0  0  0  0  0  0  0  0  0  0  0  0
   34.5911   -1.5838    1.6435 C   0  0  0  0  0  0  0  0  0  0  0  0
   35.0961   -2.8027    1.2547 C   0  0  0  0  0  0  0  0  0  0  0  0
   35.6257   -2.9537    0.0095 C   0  0  0  0  0  0  0  0  0  0  0  0
   35.6672   -1.9012   -0.8784 C   0  0  0  0  0  0  0  0  0  0  0  0
   36.2426   -2.0753   -2.2212 C   0  0  0  0  0  0  0  0  0  0  0  0
   37.6782   -1.6938   -2.2796 C   0  0  2  0  0  0  0  0  0  0  0  0
   38.2087   -1.7452   -3.6324 N   0  0  0  0  0  0  0  0  0  0  0  0
   38.5429   -2.4505   -1.3427 C   0  0  0  0  0  0  0  0  0  0  0  0
   39.0700   -3.6963   -1.5964 O   0  0  0  0  0  0  0  0  0  0  0  0
   35.1561   -0.6868   -0.4706 C   0  0  0  0  0  0  0  0  0  0  0  0
   34.6200   -0.5112    0.7727 C   0  0  0  0  0  0  0  0  0  0  0  0
   38.8369   -1.9414   -0.2143 O   0  0  0  0  0  0  0  0  0  0  0  0
  1  2  1  0
  3  4  1  6
  3  2  1  0
  5  3  1  0
  6  5  2  0
  8 10  1  0
  8  7  1  0
  9  8  2  0
 11 10  1  0
 12 11  1  1
 12 13  1  0
 13  5  1  0
 14 12  1  0
 14 15  2  0
 16 17  1  0
 17 18  2  0
 18 19  1  0
 20 19  2  0
 20 21  1  0
 22 21  1  6
 22 23  1  0
 23 14  1  0
 24 22  1  0
 25 24  1  0
 26 20  1  0
 27 17  1  0
 27 26  2  0
 28 24  2  0
M  END
$$$$
