SQY.pdb
     RDKit          3D

 28 28  0  0  1  0  0  0  0  0999 V2000
   17.2294  -11.3554  -14.8322 O   0  0  0  0  0  0  0  0  0  0  0  0
   18.0696  -10.4478  -15.4424 C   0  0  0  0  0  0  0  0  0  0  0  0
   17.7204  -10.2267  -16.9069 C   0  0  2  0  0  0  0  0  0  0  0  0
   17.9203  -11.4164  -17.6749 N   0  0  0  0  0  0  0  0  0  0  0  0
   18.5204   -9.0790  -17.3960 C   0  0  0  0  0  0  0  0  0  0  0  0
   19.5742   -9.3300  -18.0338 O   0  0  0  0  0  0  0  0  0  0  0  0
   17.5718   -5.5987  -21.3507 N   0  0  0  0  0  0  0  0  0  0  0  0
   18.3277   -4.6106  -20.6794 C   0  0  0  0  0  0  0  0  0  0  0  0
   18.7554   -3.6459  -21.3572 O   0  0  0  0  0  0  0  0  0  0  0  0
   18.6388   -4.6526  -19.2332 C   0  0  0  0  0  0  0  0  0  0  0  0
   18.0170   -5.8555  -18.6143 C   0  0  0  0  0  0  0  0  0  0  0  0
   18.9426   -6.6438  -17.7280 C   0  0  2  0  0  0  0  0  0  0  0  0
   18.1542   -7.7438  -17.1788 N   0  0  0  0  0  0  0  0  0  0  0  0
   19.4971   -5.8790  -16.6062 C   0  0  0  0  0  0  0  0  0  0  0  0
   18.8271   -5.6189  -15.5558 O   0  0  0  0  0  0  0  0  0  0  0  0
   21.6942  -10.7558  -13.6806 O   0  0  0  0  0  0  0  0  0  0  0  0
   21.9187   -9.4034  -13.9882 C   0  0  0  0  0  0  0  0  0  0  0  0
   22.6031   -9.0870  -15.1387 C   0  0  0  0  0  0  0  0  0  0  0  0
   22.8324   -7.7833  -15.4572 C   0  0  0  0  0  0  0  0  0  0  0  0
   22.3892   -6.7637  -14.6436 C   0  0  0  0  0  0  0  0  0  0  0  0
   22.6433   -5.3583  -14.9969 C   0  0  0  0  0  0  0  0  0  0  0  0
   21.4286   -4.6712  -15.5090 C   0  0  2  0  0  0  0  0  0  0  0  0
   20.8223   -5.3798  -16.6247 N   0  0  0  0  0  0  0  0  0  0  0  0
   21.6378   -3.2414  -15.8408 C   0  0  0  0  0  0  0  0  0  0  0  0
   22.1133   -2.2951  -14.9617 O   0  0  0  0  0  0  0  0  0  0  0  0
   21.7050   -7.1004  -13.4944 C   0  0  0  0  0  0  0  0  0  0  0  0
   21.4630   -8.4003  -13.1542 C   0  0  0  0  0  0  0  0  0  0  0  0
   21.3670   -2.8259  -17.0125 O   0  0  0  0  0  0  0  0  0  0  0  0
  1  2  1  0
  3  4  1  6
  3  2  1  0
  5  3  1  0
  6  5  2  0
  8 10  1  0
  8  7  1  0
  9  8  2  0
 11 10  1  0
 12 11  1  1
 12 13  1  0
 13  5  1  0
 14 12  1  0
 14 15  2  0
 16 17  1  0
 17 18  2  0
 18 19  1  0
 20 19  2  0
 20 21  1  0
 22 21  1  6
 22 23  1  0
 23 14  1  0
 24 22  1  0
 25 24  1  0
 26 20  1  0
 27 17  1  0
 27 26  2  0
 28 24  2  0
M  END
$$$$
