SQY.pdb
     RDKit          3D

 28 28  0  0  1  0  0  0  0  0999 V2000
   27.3366  -15.7259  -17.8734 O   0  0  0  0  0  0  0  0  0  0  0  0
   28.3706  -16.2566  -17.1310 C   0  0  0  0  0  0  0  0  0  0  0  0
   29.0599  -17.4137  -17.8393 C   0  0  2  0  0  0  0  0  0  0  0  0
   29.6004  -17.0051  -19.0987 N   0  0  0  0  0  0  0  0  0  0  0  0
   28.0813  -18.5201  -17.9593 C   0  0  0  0  0  0  0  0  0  0  0  0
   27.9680  -19.0821  -19.0781 O   0  0  0  0  0  0  0  0  0  0  0  0
   28.9065  -23.4112  -17.9794 N   0  0  0  0  0  0  0  0  0  0  0  0
   28.8102  -22.9716  -16.6393 C   0  0  0  0  0  0  0  0  0  0  0  0
   29.4837  -23.5845  -15.7768 O   0  0  0  0  0  0  0  0  0  0  0  0
   27.9653  -21.8377  -16.2030 C   0  0  0  0  0  0  0  0  0  0  0  0
   27.2158  -21.2856  -17.3650 C   0  0  0  0  0  0  0  0  0  0  0  0
   26.3697  -20.0843  -17.0414 C   0  0  2  0  0  0  0  0  0  0  0  0
   27.2881  -18.9587  -16.8904 N   0  0  0  0  0  0  0  0  0  0  0  0
   25.5976  -20.2094  -15.8009 C   0  0  0  0  0  0  0  0  0  0  0  0
   26.0507  -19.8385  -14.6708 O   0  0  0  0  0  0  0  0  0  0  0  0
   19.5377  -19.1935   -9.8358 O   0  0  0  0  0  0  0  0  0  0  0  0
   20.5073  -19.2557  -10.8509 C   0  0  0  0  0  0  0  0  0  0  0  0
   20.1641  -18.8652  -12.1243 C   0  0  0  0  0  0  0  0  0  0  0  0
   21.0871  -18.9169  -13.1238 C   0  0  0  0  0  0  0  0  0  0  0  0
   22.3708  -19.3564  -12.8847 C   0  0  0  0  0  0  0  0  0  0  0  0
   23.3601  -19.4091  -13.9723 C   0  0  0  0  0  0  0  0  0  0  0  0
   23.4320  -20.7488  -14.6125 C   0  0  2  0  0  0  0  0  0  0  0  0
   24.2907  -20.7548  -15.7859 N   0  0  0  0  0  0  0  0  0  0  0  0
   22.1091  -21.3425  -14.9216 C   0  0  0  0  0  0  0  0  0  0  0  0
   21.6457  -21.6044  -16.1908 O   0  0  0  0  0  0  0  0  0  0  0  0
   22.6962  -19.7437  -11.6016 C   0  0  0  0  0  0  0  0  0  0  0  0
   21.7879  -19.7007  -10.5833 C   0  0  0  0  0  0  0  0  0  0  0  0
   21.3206  -21.6417  -13.9689 O   0  0  0  0  0  0  0  0  0  0  0  0
  1  2  1  0
  3  4  1  6
  3  2  1  0
  5  3  1  0
  6  5  2  0
  8 10  1  0
  8  7  1  0
  9  8  2  0
 11 10  1  0
 12 11  1  1
 12 13  1  0
 13  5  1  0
 14 12  1  0
 14 15  2  0
 16 17  1  0
 17 18  2  0
 18 19  1  0
 20 19  2  0
 20 21  1  0
 22 21  1  6
 22 23  1  0
 23 14  1  0
 24 22  1  0
 25 24  1  0
 26 20  1  0
 27 17  1  0
 27 26  2  0
 28 24  2  0
M  END
$$$$
