SQY.pdb
     RDKit          3D

 28 28  0  0  1  0  0  0  0  0999 V2000
   25.8555  -19.4467   -8.7353 O   0  0  0  0  0  0  0  0  0  0  0  0
   24.6068  -19.9100   -9.0932 C   0  0  0  0  0  0  0  0  0  0  0  0
   24.6043  -21.4024   -9.3906 C   0  0  2  0  0  0  0  0  0  0  0  0
   25.7000  -21.7667  -10.2343 N   0  0  0  0  0  0  0  0  0  0  0  0
   23.2851  -21.7472   -9.9714 C   0  0  0  0  0  0  0  0  0  0  0  0
   23.2594  -22.1690  -11.1553 O   0  0  0  0  0  0  0  0  0  0  0  0
   19.2607  -24.9245   -6.9777 N   0  0  0  0  0  0  0  0  0  0  0  0
   18.4569  -24.5352   -8.0734 C   0  0  0  0  0  0  0  0  0  0  0  0
   17.3207  -25.0567   -8.1749 O   0  0  0  0  0  0  0  0  0  0  0  0
   18.8797  -23.5547   -9.0980 C   0  0  0  0  0  0  0  0  0  0  0  0
   20.2024  -22.9768   -8.7333 C   0  0  0  0  0  0  0  0  0  0  0  0
   20.8265  -22.1313   -9.8100 C   0  0  2  0  0  0  0  0  0  0  0  0
   22.0821  -21.6236   -9.2632 N   0  0  0  0  0  0  0  0  0  0  0  0
   20.0125  -20.9821  -10.2193 C   0  0  0  0  0  0  0  0  0  0  0  0
   19.9801  -19.8946   -9.5588 O   0  0  0  0  0  0  0  0  0  0  0  0
   22.3491  -18.2692  -17.9494 O   0  0  0  0  0  0  0  0  0  0  0  0
   22.0091  -18.7752  -16.6834 C   0  0  0  0  0  0  0  0  0  0  0  0
   22.2496  -20.1016  -16.4100 C   0  0  0  0  0  0  0  0  0  0  0  0
   21.9282  -20.6138  -15.1901 C   0  0  0  0  0  0  0  0  0  0  0  0
   21.3616  -19.8241  -14.2138 C   0  0  0  0  0  0  0  0  0  0  0  0
   21.0176  -20.3883  -12.8993 C   0  0  0  0  0  0  0  0  0  0  0  0
   19.5582  -20.3358  -12.6213 C   0  0  2  0  0  0  0  0  0  0  0  0
   19.2070  -21.0137  -11.3837 N   0  0  0  0  0  0  0  0  0  0  0  0
   18.7121  -20.8095  -13.7428 C   0  0  0  0  0  0  0  0  0  0  0  0
   18.0958  -22.0391  -13.7936 O   0  0  0  0  0  0  0  0  0  0  0  0
   21.1281  -18.4968  -14.5064 C   0  0  0  0  0  0  0  0  0  0  0  0
   21.4417  -17.9605  -15.7222 C   0  0  0  0  0  0  0  0  0  0  0  0
   18.5231  -20.0506  -14.7465 O   0  0  0  0  0  0  0  0  0  0  0  0
  1  2  1  0
  3  4  1  6
  3  2  1  0
  5  3  1  0
  6  5  2  0
  8 10  1  0
  8  7  1  0
  9  8  2  0
 11 10  1  0
 12 11  1  1
 12 13  1  0
 13  5  1  0
 14 12  1  0
 14 15  2  0
 16 17  1  0
 17 18  2  0
 18 19  1  0
 20 19  2  0
 20 21  1  0
 22 21  1  6
 22 23  1  0
 23 14  1  0
 24 22  1  0
 25 24  1  0
 26 20  1  0
 27 17  1  0
 27 26  2  0
 28 24  2  0
M  END
$$$$
