VQC.pdb
     RDKit          3D

 23 22  0  0  1  0  0  0  0  0999 V2000
    8.2099  -13.9937   20.6099 C   0  0  0  0  0  0  0  0  0  0  0  0
    8.6008  -12.9851   19.5210 C   0  0  2  0  0  0  0  0  0  0  0  0
    7.3112  -12.3077   19.1083 C   0  0  0  0  0  0  0  0  0  0  0  0
    9.2018  -13.7835   18.3967 C   0  0  2  0  0  0  0  0  0  0  0  0
    8.2337  -14.6408   17.7546 N   0  0  0  0  0  0  0  0  0  0  0  0
   10.3760  -14.5755   18.7961 C   0  0  0  0  0  0  0  0  0  0  0  0
   10.1774  -15.8361   18.9070 O   0  0  0  0  0  0  0  0  0  0  0  0
   15.1653  -16.7185   17.9088 N   0  0  0  0  0  0  0  0  0  0  0  0
   14.8348  -15.6162   17.0728 C   0  0  0  0  0  0  0  0  0  0  0  0
   14.9936  -15.7712   15.8396 O   0  0  0  0  0  0  0  0  0  0  0  0
   14.3227  -14.3301   17.6192 C   0  0  0  0  0  0  0  0  0  0  0  0
   14.0863  -14.4784   19.0825 C   0  0  0  0  0  0  0  0  0  0  0  0
   12.7035  -14.8833   19.4771 C   0  0  2  0  0  0  0  0  0  0  0  0
   11.6593  -14.0210   19.0508 N   0  0  0  0  0  0  0  0  0  0  0  0
   12.6465  -15.0906   20.9575 C   0  0  0  0  0  0  0  0  0  0  0  0
   12.5495  -14.0691   21.6773 O   0  0  0  0  0  0  0  0  0  0  0  0
   12.6945  -16.3475   21.5868 N   0  0  0  0  0  0  0  0  0  0  0  0
   12.5613  -16.5608   23.0063 C   0  0  1  0  0  0  0  0  0  0  0  0
   11.1664  -17.0034   23.3889 C   0  0  0  0  0  0  0  0  0  0  0  0
   11.1244  -17.2533   25.1728 S   0  0  0  0  0  0  0  0  0  0  0  0
   13.4834  -17.6613   23.3836 C   0  0  0  0  0  0  0  0  0  0  0  0
   13.7113  -18.6269   22.6132 O   0  0  0  0  0  0  0  0  0  0  0  0
   14.1377  -17.6634   24.6215 O   0  0  0  0  0  0  0  0  0  0  0  0
  2  1  1  1
  2  3  1  0
  4  6  1  0
  4  2  1  0
  4  5  1  1
  6 14  1  0
  6  7  2  0
  9  8  1  0
 10  9  2  0
 11  9  1  0
 12 11  1  0
 13 12  1  1
 14 13  1  0
 15 17  1  0
 15 13  1  0
 16 15  2  0
 18 21  1  0
 18 17  1  0
 18 19  1  6
 20 19  1  0
 21 23  1  0
 22 21  2  0
M  END
$$$$
