VQC.pdb
     RDKit          3D

 23 22  0  0  1  0  0  0  0  0999 V2000
   11.6707  -18.9436   22.3843 C   0  0  0  0  0  0  0  0  0  0  0  0
   10.3591  -18.5578   21.6868 C   0  0  2  0  0  0  0  0  0  0  0  0
   10.3302  -19.3541   20.3994 C   0  0  0  0  0  0  0  0  0  0  0  0
   10.4321  -17.0772   21.4310 C   0  0  2  0  0  0  0  0  0  0  0  0
   11.6213  -16.7050   20.7016 N   0  0  0  0  0  0  0  0  0  0  0  0
   10.3238  -16.2607   22.6504 C   0  0  0  0  0  0  0  0  0  0  0  0
   11.4059  -15.6876   23.0267 O   0  0  0  0  0  0  0  0  0  0  0  0
    5.3112  -13.6756   25.5598 N   0  0  0  0  0  0  0  0  0  0  0  0
    6.4446  -13.1382   26.2307 C   0  0  0  0  0  0  0  0  0  0  0  0
    6.2380  -12.1912   27.0247 O   0  0  0  0  0  0  0  0  0  0  0  0
    7.8198  -13.6633   26.0126 C   0  0  0  0  0  0  0  0  0  0  0  0
    7.8015  -14.6309   24.8800 C   0  0  0  0  0  0  0  0  0  0  0  0
    9.1245  -15.2155   24.5066 C   0  0  2  0  0  0  0  0  0  0  0  0
    9.1222  -16.0925   23.3901 N   0  0  0  0  0  0  0  0  0  0  0  0
    9.7319  -15.8815   25.7005 C   0  0  0  0  0  0  0  0  0  0  0  0
    9.7557  -17.1346   25.7093 O   0  0  0  0  0  0  0  0  0  0  0  0
   10.2728  -15.1966   26.8035 N   0  0  0  0  0  0  0  0  0  0  0  0
   11.0506  -15.8108   27.8504 C   0  0  1  0  0  0  0  0  0  0  0  0
   11.2291  -14.8953   29.0412 C   0  0  0  0  0  0  0  0  0  0  0  0
   10.7109  -13.2380   28.5601 S   0  0  0  0  0  0  0  0  0  0  0  0
   10.3017  -17.0004   28.3275 C   0  0  0  0  0  0  0  0  0  0  0  0
    9.1450  -17.2636   27.9143 O   0  0  0  0  0  0  0  0  0  0  0  0
   10.8614  -17.8795   29.2626 O   0  0  0  0  0  0  0  0  0  0  0  0
  2  1  1  1
  2  3  1  0
  4  6  1  0
  4  2  1  0
  4  5  1  1
  6 14  1  0
  6  7  2  0
  9  8  1  0
 10  9  2  0
 11  9  1  0
 12 11  1  0
 13 12  1  1
 14 13  1  0
 15 17  1  0
 15 13  1  0
 16 15  2  0
 18 21  1  0
 18 17  1  0
 18 19  1  1
 20 19  1  0
 21 23  1  0
 22 21  2  0
M  END
$$$$
