VQC.pdb
     RDKit          3D

 23 22  0  0  1  0  0  0  0  0999 V2000
    7.0264  -12.9256   20.4084 C   0  0  0  0  0  0  0  0  0  0  0  0
    8.4440  -13.2392   19.9106 C   0  0  2  0  0  0  0  0  0  0  0  0
    8.5154  -12.6859   18.5030 C   0  0  0  0  0  0  0  0  0  0  0  0
    8.5823  -14.7369   19.9342 C   0  0  2  0  0  0  0  0  0  0  0  0
    7.7300  -15.3814   18.9632 N   0  0  0  0  0  0  0  0  0  0  0  0
    8.3569  -15.3304   21.2617 C   0  0  0  0  0  0  0  0  0  0  0  0
    7.2100  -15.8746   21.4334 O   0  0  0  0  0  0  0  0  0  0  0  0
   11.2020  -19.3578   24.6481 N   0  0  0  0  0  0  0  0  0  0  0  0
   10.6167  -19.3449   23.3518 C   0  0  0  0  0  0  0  0  0  0  0  0
   10.8506  -20.3297   22.6133 O   0  0  0  0  0  0  0  0  0  0  0  0
    9.7629  -18.2223   22.8767 C   0  0  0  0  0  0  0  0  0  0  0  0
    9.7373  -17.1529   23.9135 C   0  0  0  0  0  0  0  0  0  0  0  0
    8.9770  -15.9188   23.5519 C   0  0  2  0  0  0  0  0  0  0  0  0
    9.3171  -15.3226   22.3091 N   0  0  0  0  0  0  0  0  0  0  0  0
    9.0834  -14.9225   24.6628 C   0  0  0  0  0  0  0  0  0  0  0  0
   10.1909  -14.3583   24.8243 O   0  0  0  0  0  0  0  0  0  0  0  0
    8.0291  -14.5821   25.5292 N   0  0  0  0  0  0  0  0  0  0  0  0
    8.1149  -13.5994   26.5804 C   0  0  1  0  0  0  0  0  0  0  0  0
    6.7508  -13.1396   27.0449 C   0  0  0  0  0  0  0  0  0  0  0  0
    5.8932  -12.4100   25.6383 S   0  0  0  0  0  0  0  0  0  0  0  0
    8.7742  -14.2431   27.7444 C   0  0  0  0  0  0  0  0  0  0  0  0
    9.0169  -15.4753   27.7693 O   0  0  0  0  0  0  0  0  0  0  0  0
    9.1525  -13.4946   28.8656 O   0  0  0  0  0  0  0  0  0  0  0  0
  2  1  1  6
  2  3  1  0
  4  6  1  0
  4  2  1  0
  4  5  1  6
  6 14  1  0
  6  7  2  0
  9  8  1  0
 10  9  2  0
 11  9  1  0
 12 11  1  0
 13 12  1  1
 14 13  1  0
 15 17  1  0
 15 13  1  0
 16 15  2  0
 18 21  1  0
 18 17  1  0
 18 19  1  1
 20 19  1  0
 21 23  1  0
 22 21  2  0
M  END
$$$$
