VQC.pdb
     RDKit          3D

 23 22  0  0  1  0  0  0  0  0999 V2000
    7.1831  -12.7496   20.5830 C   0  0  0  0  0  0  0  0  0  0  0  0
    8.3182  -13.6359   20.0520 C   0  0  2  0  0  0  0  0  0  0  0  0
    8.4803  -13.2638   18.5935 C   0  0  0  0  0  0  0  0  0  0  0  0
    7.8623  -15.0593   20.2223 C   0  0  2  0  0  0  0  0  0  0  0  0
    6.8579  -15.4327   19.2546 N   0  0  0  0  0  0  0  0  0  0  0  0
    7.3817  -15.3678   21.5784 C   0  0  0  0  0  0  0  0  0  0  0  0
    6.1844  -14.9921   21.8365 O   0  0  0  0  0  0  0  0  0  0  0  0
    7.7375  -20.8351   25.1659 N   0  0  0  0  0  0  0  0  0  0  0  0
    7.1071  -19.8805   24.3205 C   0  0  0  0  0  0  0  0  0  0  0  0
    5.9197  -20.1095   23.9923 O   0  0  0  0  0  0  0  0  0  0  0  0
    7.8090  -18.6602   23.8381 C   0  0  0  0  0  0  0  0  0  0  0  0
    7.0310  -17.4553   24.2408 C   0  0  0  0  0  0  0  0  0  0  0  0
    7.6427  -16.1403   23.8830 C   0  0  2  0  0  0  0  0  0  0  0  0
    8.1582  -16.0343   22.5644 N   0  0  0  0  0  0  0  0  0  0  0  0
    8.6905  -15.7857   24.8902 C   0  0  0  0  0  0  0  0  0  0  0  0
    9.8858  -15.9851   24.5701 O   0  0  0  0  0  0  0  0  0  0  0  0
    8.4215  -15.2479   26.1616 N   0  0  0  0  0  0  0  0  0  0  0  0
    9.4263  -14.8947   27.1331 C   0  0  1  0  0  0  0  0  0  0  0  0
    8.9347  -13.8485   28.1086 C   0  0  0  0  0  0  0  0  0  0  0  0
   10.2499  -13.5239   29.2966 S   0  0  0  0  0  0  0  0  0  0  0  0
    9.7345  -16.1128   27.9237 C   0  0  0  0  0  0  0  0  0  0  0  0
    8.8706  -16.9995   28.1366 O   0  0  0  0  0  0  0  0  0  0  0  0
   11.0091  -16.3195   28.4651 O   0  0  0  0  0  0  0  0  0  0  0  0
  2  1  1  6
  2  3  1  0
  4  6  1  0
  4  2  1  0
  4  5  1  6
  6 14  1  0
  6  7  2  0
  9  8  1  0
 10  9  2  0
 11  9  1  0
 12 11  1  0
 13 12  1  1
 14 13  1  0
 15 17  1  0
 15 13  1  0
 16 15  2  0
 18 21  1  0
 18 17  1  0
 18 19  1  1
 20 19  1  0
 21 23  1  0
 22 21  2  0
M  END
$$$$
