VQC.pdb
     RDKit          3D

 23 22  0  0  1  0  0  0  0  0999 V2000
    1.0557  -21.2521   21.5995 C   0  0  0  0  0  0  0  0  0  0  0  0
    1.3834  -19.8927   20.9667 C   0  0  2  0  0  0  0  0  0  0  0  0
    0.6713  -19.8805   19.6307 C   0  0  0  0  0  0  0  0  0  0  0  0
    2.8786  -19.8462   20.8078 C   0  0  2  0  0  0  0  0  0  0  0  0
    3.3800  -20.9442   20.0157 N   0  0  0  0  0  0  0  0  0  0  0  0
    3.6070  -19.7843   22.0849 C   0  0  0  0  0  0  0  0  0  0  0  0
    3.0670  -19.0581   22.9916 O   0  0  0  0  0  0  0  0  0  0  0  0
    6.5413  -24.1498   25.3494 N   0  0  0  0  0  0  0  0  0  0  0  0
    5.1527  -23.9563   25.1096 C   0  0  0  0  0  0  0  0  0  0  0  0
    4.3817  -24.8790   25.4618 O   0  0  0  0  0  0  0  0  0  0  0  0
    4.6213  -22.7216   24.4709 C   0  0  0  0  0  0  0  0  0  0  0  0
    5.7452  -21.7766   24.2196 C   0  0  0  0  0  0  0  0  0  0  0  0
    5.3604  -20.4489   23.6533 C   0  0  2  0  0  0  0  0  0  0  0  0
    4.8276  -20.4668   22.3375 N   0  0  0  0  0  0  0  0  0  0  0  0
    6.5236  -19.5123   23.7399 C   0  0  0  0  0  0  0  0  0  0  0  0
    7.2629  -19.4198   22.7320 O   0  0  0  0  0  0  0  0  0  0  0  0
    6.8371  -18.7362   24.8702 N   0  0  0  0  0  0  0  0  0  0  0  0
    7.9809  -17.8653   24.9768 C   0  0  1  0  0  0  0  0  0  0  0  0
    7.5839  -16.4330   25.2577 C   0  0  0  0  0  0  0  0  0  0  0  0
    6.2306  -16.4466   26.4472 S   0  0  0  0  0  0  0  0  0  0  0  0
    8.7894  -18.3252   26.1338 C   0  0  0  0  0  0  0  0  0  0  0  0
    8.3755  -19.2146   26.9184 O   0  0  0  0  0  0  0  0  0  0  0  0
   10.0525  -17.7804   26.3949 O   0  0  0  0  0  0  0  0  0  0  0  0
  2  1  1  6
  2  3  1  0
  4  6  1  0
  4  2  1  0
  4  5  1  1
  6 14  1  0
  6  7  2  0
  9  8  1  0
 10  9  2  0
 11  9  1  0
 12 11  1  0
 13 12  1  6
 14 13  1  0
 15 17  1  0
 15 13  1  0
 16 15  2  0
 18 21  1  0
 18 17  1  0
 18 19  1  1
 20 19  1  0
 21 23  1  0
 22 21  2  0
M  END
$$$$
