VQC.pdb
     RDKit          3D

 23 22  0  0  1  0  0  0  0  0999 V2000
    7.3298  -13.0217   21.4579 C   0  0  0  0  0  0  0  0  0  0  0  0
    8.3882  -13.3863   20.4078 C   0  0  2  0  0  0  0  0  0  0  0  0
    7.9239  -12.7434   19.1181 C   0  0  0  0  0  0  0  0  0  0  0  0
    8.3981  -14.8878   20.3164 C   0  0  2  0  0  0  0  0  0  0  0  0
    7.1825  -15.4097   19.7379 N   0  0  0  0  0  0  0  0  0  0  0  0
    8.6617  -15.5563   21.6005 C   0  0  0  0  0  0  0  0  0  0  0  0
    7.6276  -16.0020   22.2112 O   0  0  0  0  0  0  0  0  0  0  0  0
   13.1201  -19.3123   22.8377 N   0  0  0  0  0  0  0  0  0  0  0  0
   11.9177  -19.5001   22.1014 C   0  0  0  0  0  0  0  0  0  0  0  0
   11.9096  -20.4221   21.2530 O   0  0  0  0  0  0  0  0  0  0  0  0
   10.7144  -18.6507   22.3147 C   0  0  0  0  0  0  0  0  0  0  0  0
   11.0228  -17.6112   23.3363 C   0  0  0  0  0  0  0  0  0  0  0  0
   10.0913  -16.4440   23.3737 C   0  0  2  0  0  0  0  0  0  0  0  0
    9.9575  -15.7181   22.1610 N   0  0  0  0  0  0  0  0  0  0  0  0
   10.4768  -15.5324   24.4955 C   0  0  0  0  0  0  0  0  0  0  0  0
   11.3608  -14.6753   24.2614 O   0  0  0  0  0  0  0  0  0  0  0  0
    9.9151  -15.5760   25.7842 N   0  0  0  0  0  0  0  0  0  0  0  0
   10.3024  -14.7207   26.8781 C   0  0  1  0  0  0  0  0  0  0  0  0
    9.3865  -13.5254   27.0204 C   0  0  0  0  0  0  0  0  0  0  0  0
    7.6835  -14.1123   26.9767 S   0  0  0  0  0  0  0  0  0  0  0  0
   10.1818  -15.5098   28.1298 C   0  0  0  0  0  0  0  0  0  0  0  0
    9.6642  -16.6543   28.1431 O   0  0  0  0  0  0  0  0  0  0  0  0
   10.6441  -15.0035   29.3506 O   0  0  0  0  0  0  0  0  0  0  0  0
  2  1  1  1
  2  3  1  0
  4  6  1  0
  4  2  1  0
  4  5  1  1
  6 14  1  0
  6  7  2  0
  9  8  1  0
 10  9  2  0
 11  9  1  0
 12 11  1  0
 13 12  1  6
 14 13  1  0
 15 17  1  0
 15 13  1  0
 16 15  2  0
 18 21  1  0
 18 17  1  0
 18 19  1  1
 20 19  1  0
 21 23  1  0
 22 21  2  0
M  END
$$$$
