VQC.pdb
     RDKit          3D

 23 22  0  0  1  0  0  0  0  0999 V2000
    7.1616  -14.8546   19.3766 C   0  0  0  0  0  0  0  0  0  0  0  0
    7.6643  -13.4629   19.7844 C   0  0  2  0  0  0  0  0  0  0  0  0
    7.9677  -12.7411   18.4885 C   0  0  0  0  0  0  0  0  0  0  0  0
    8.9027  -13.6822   20.6097 C   0  0  2  0  0  0  0  0  0  0  0  0
    9.9636  -14.3027   19.8519 N   0  0  0  0  0  0  0  0  0  0  0  0
    8.6629  -14.4475   21.8434 C   0  0  0  0  0  0  0  0  0  0  0  0
    7.6778  -14.0461   22.5571 O   0  0  0  0  0  0  0  0  0  0  0  0
   12.2336  -17.9757   21.1478 N   0  0  0  0  0  0  0  0  0  0  0  0
   11.0653  -18.3944   21.8429 C   0  0  0  0  0  0  0  0  0  0  0  0
   10.2266  -19.0612   21.1933 O   0  0  0  0  0  0  0  0  0  0  0  0
   10.8323  -18.0654   23.2754 C   0  0  0  0  0  0  0  0  0  0  0  0
    9.3989  -17.7095   23.4700 C   0  0  0  0  0  0  0  0  0  0  0  0
    9.0846  -16.2494   23.4408 C   0  0  2  0  0  0  0  0  0  0  0  0
    9.4453  -15.5610   22.2526 N   0  0  0  0  0  0  0  0  0  0  0  0
    9.6843  -15.5848   24.6394 C   0  0  0  0  0  0  0  0  0  0  0  0
   10.8592  -15.1614   24.5338 O   0  0  0  0  0  0  0  0  0  0  0  0
    9.0191  -15.4067   25.8657 N   0  0  0  0  0  0  0  0  0  0  0  0
    9.5488  -14.6739   26.9884 C   0  0  1  0  0  0  0  0  0  0  0  0
    8.5166  -13.7617   27.6133 C   0  0  0  0  0  0  0  0  0  0  0  0
    8.2446  -12.3722   26.4989 S   0  0  0  0  0  0  0  0  0  0  0  0
    9.9385  -15.6615   28.0260 C   0  0  0  0  0  0  0  0  0  0  0  0
    9.6871  -16.8858   27.9016 O   0  0  0  0  0  0  0  0  0  0  0  0
   10.6055  -15.2613   29.1902 O   0  0  0  0  0  0  0  0  0  0  0  0
  2  1  1  6
  2  3  1  0
  4  6  1  0
  4  2  1  0
  4  5  1  6
  6 14  1  0
  6  7  2  0
  9  8  1  0
 10  9  2  0
 11  9  1  0
 12 11  1  0
 13 12  1  6
 14 13  1  0
 15 17  1  0
 15 13  1  0
 16 15  2  0
 18 21  1  0
 18 17  1  0
 18 19  1  1
 20 19  1  0
 21 23  1  0
 22 21  2  0
M  END
$$$$
