VQC.pdb
     RDKit          3D

 23 22  0  0  1  0  0  0  0  0999 V2000
    7.5856  -15.0874   18.9570 C   0  0  0  0  0  0  0  0  0  0  0  0
    7.4194  -13.6155   19.3590 C   0  0  2  0  0  0  0  0  0  0  0  0
    7.6921  -12.8147   18.1034 C   0  0  0  0  0  0  0  0  0  0  0  0
    8.4415  -13.3483   20.4299 C   0  0  2  0  0  0  0  0  0  0  0  0
    9.7937  -13.5019   19.9476 N   0  0  0  0  0  0  0  0  0  0  0  0
    8.2535  -14.1608   21.6423 C   0  0  0  0  0  0  0  0  0  0  0  0
    7.0887  -14.0976   22.1717 O   0  0  0  0  0  0  0  0  0  0  0  0
   10.9936  -19.4279   23.6806 N   0  0  0  0  0  0  0  0  0  0  0  0
   10.1391  -19.0674   24.7591 C   0  0  0  0  0  0  0  0  0  0  0  0
   10.0581  -19.8751   25.7136 O   0  0  0  0  0  0  0  0  0  0  0  0
    9.3689  -17.7942   24.7711 C   0  0  0  0  0  0  0  0  0  0  0  0
    9.7015  -17.0082   23.5501 C   0  0  0  0  0  0  0  0  0  0  0  0
    8.9592  -15.7223   23.3858 C   0  0  2  0  0  0  0  0  0  0  0  0
    9.2664  -14.9734   22.2194 N   0  0  0  0  0  0  0  0  0  0  0  0
    9.1329  -14.8844   24.6129 C   0  0  0  0  0  0  0  0  0  0  0  0
   10.2861  -14.4601   24.8603 O   0  0  0  0  0  0  0  0  0  0  0  0
    8.0937  -14.5458   25.4981 N   0  0  0  0  0  0  0  0  0  0  0  0
    8.2477  -13.7137   26.6652 C   0  0  1  0  0  0  0  0  0  0  0  0
    6.9247  -13.1705   27.1578 C   0  0  0  0  0  0  0  0  0  0  0  0
    6.1250  -12.3105   25.7913 S   0  0  0  0  0  0  0  0  0  0  0  0
    8.7991  -14.5616   27.7518 C   0  0  0  0  0  0  0  0  0  0  0  0
    8.9095  -15.8067   27.6281 O   0  0  0  0  0  0  0  0  0  0  0  0
    9.2194  -14.0002   28.9637 O   0  0  0  0  0  0  0  0  0  0  0  0
  2  1  1  6
  2  3  1  0
  4  6  1  0
  4  2  1  0
  4  5  1  6
  6 14  1  0
  6  7  2  0
  9  8  1  0
 10  9  2  0
 11  9  1  0
 12 11  1  0
 13 12  1  1
 14 13  1  0
 15 17  1  0
 15 13  1  0
 16 15  2  0
 18 21  1  0
 18 17  1  0
 18 19  1  1
 20 19  1  0
 21 23  1  0
 22 21  2  0
M  END
$$$$
