EQQ.pdb
     RDKit          3D

 28 27  0  0  1  0  0  0  0  0999 V2000
   11.5785  -17.7764   18.3363 N   0  0  0  0  0  0  0  0  0  0  0  0
   12.1760  -17.8529   19.6528 C   0  0  1  0  0  0  0  0  0  0  0  0
   13.6510  -17.5191   19.5985 C   0  0  0  0  0  0  0  0  0  0  0  0
   14.5211  -18.7448   19.6228 C   0  0  0  0  0  0  0  0  0  0  0  0
   15.8467  -18.3295   20.1324 C   0  0  0  0  0  0  0  0  0  0  0  0
   16.3219  -18.8489   21.1604 O   0  0  0  0  0  0  0  0  0  0  0  0
   11.5610  -16.8100   20.5031 C   0  0  0  0  0  0  0  0  0  0  0  0
   11.0478  -15.8073   19.9528 O   0  0  0  0  0  0  0  0  0  0  0  0
   16.6115  -17.3469   19.4961 O   0  0  0  0  0  0  0  0  0  0  0  0
    6.4771  -14.4946   21.6622 N   0  0  0  0  0  0  0  0  0  0  0  0
    7.2817  -15.5463   21.1662 C   0  0  0  0  0  0  0  0  0  0  0  0
    6.7333  -16.5447   20.6390 O   0  0  0  0  0  0  0  0  0  0  0  0
    8.7628  -15.4366   21.2857 C   0  0  0  0  0  0  0  0  0  0  0  0
    9.2487  -16.5118   22.2056 C   0  0  0  0  0  0  0  0  0  0  0  0
   10.6144  -16.2894   22.7598 C   0  0  2  0  0  0  0  0  0  0  0  0
   11.5696  -16.9716   21.9014 N   0  0  0  0  0  0  0  0  0  0  0  0
   10.8120  -16.7085   24.1531 C   0  0  0  0  0  0  0  0  0  0  0  0
   10.3540  -17.8023   24.5733 O   0  0  0  0  0  0  0  0  0  0  0  0
    8.4748  -12.3280   27.0386 N   0  0  0  0  0  0  0  0  0  0  0  0
    8.7937  -13.1551   28.1372 C   0  0  0  0  0  0  0  0  0  0  0  0
    8.3113  -12.8639   29.2648 O   0  0  0  0  0  0  0  0  0  0  0  0
    9.6526  -14.3272   28.0006 C   0  0  0  0  0  0  0  0  0  0  0  0
   10.2521  -14.5627   26.6563 C   0  0  0  0  0  0  0  0  0  0  0  0
   11.0949  -15.7848   26.5054 C   0  0  2  0  0  0  0  0  0  0  0  0
   11.5259  -15.9145   25.1047 N   0  0  0  0  0  0  0  0  0  0  0  0
   10.6407  -17.0354   27.0626 C   0  0  0  0  0  0  0  0  0  0  0  0
    9.6940  -17.9119   26.5757 O   0  0  0  0  0  0  0  0  0  0  0  0
   11.1727  -17.3999   28.1736 O   0  0  0  0  0  0  0  0  0  0  0  0
  2  1  1  6
  2  7  1  0
  3  2  1  0
  3  4  1  0
  5  4  1  0
  5  9  1  0
  6  5  2  0
  7  8  2  0
  7 16  1  0
 10 11  1  0
 11 12  2  0
 13 14  1  0
 13 11  1  0
 15 17  1  0
 15 14  1  6
 16 15  1  0
 17 18  2  0
 20 19  1  0
 20 21  2  0
 22 20  1  0
 23 22  1  0
 24 23  1  6
 25 24  1  0
 25 17  1  0
 26 24  1  0
 26 27  1  0
 28 26  2  0
M  END
$$$$
