EQQ.pdb
     RDKit          3D

 28 27  0  0  1  0  0  0  0  0999 V2000
   10.9408  -18.8580   19.3709 N   0  0  0  0  0  0  0  0  0  0  0  0
   12.2009  -18.2179   19.6847 C   0  0  1  0  0  0  0  0  0  0  0  0
   12.8354  -17.6325   18.4418 C   0  0  0  0  0  0  0  0  0  0  0  0
   12.0547  -17.9424   17.1951 C   0  0  0  0  0  0  0  0  0  0  0  0
   12.8343  -17.4210   16.0506 C   0  0  0  0  0  0  0  0  0  0  0  0
   12.2663  -17.1076   14.9868 O   0  0  0  0  0  0  0  0  0  0  0  0
   11.9285  -17.0676   20.5744 C   0  0  0  0  0  0  0  0  0  0  0  0
   12.8919  -16.3721   20.9744 O   0  0  0  0  0  0  0  0  0  0  0  0
   14.2226  -17.2640   16.1086 O   0  0  0  0  0  0  0  0  0  0  0  0
    6.6887  -13.9777   20.8310 N   0  0  0  0  0  0  0  0  0  0  0  0
    7.5610  -14.2332   19.7477 C   0  0  0  0  0  0  0  0  0  0  0  0
    7.1885  -13.9616   18.5803 O   0  0  0  0  0  0  0  0  0  0  0  0
    8.9017  -14.8201   20.0269 C   0  0  0  0  0  0  0  0  0  0  0  0
    9.0044  -15.1005   21.4930 C   0  0  0  0  0  0  0  0  0  0  0  0
   10.2755  -15.7537   21.9163 C   0  0  2  0  0  0  0  0  0  0  0  0
   10.6002  -16.7873   20.9463 N   0  0  0  0  0  0  0  0  0  0  0  0
   10.2780  -16.3248   23.2691 C   0  0  0  0  0  0  0  0  0  0  0  0
    9.9432  -17.5208   23.4695 O   0  0  0  0  0  0  0  0  0  0  0  0
   10.6549  -13.2207   28.7788 N   0  0  0  0  0  0  0  0  0  0  0  0
   10.0152  -14.4529   29.0344 C   0  0  0  0  0  0  0  0  0  0  0  0
   10.0101  -14.8900   30.2168 O   0  0  0  0  0  0  0  0  0  0  0  0
    9.3632  -15.2208   27.9783 C   0  0  0  0  0  0  0  0  0  0  0  0
    9.7706  -14.9107   26.5784 C   0  0  0  0  0  0  0  0  0  0  0  0
   10.3687  -16.0296   25.7932 C   0  0  2  0  0  0  0  0  0  0  0  0
   10.6552  -15.5714   24.4248 N   0  0  0  0  0  0  0  0  0  0  0  0
    9.7470  -17.3310   25.8221 C   0  0  0  0  0  0  0  0  0  0  0  0
   10.2222  -18.5104   26.3555 O   0  0  0  0  0  0  0  0  0  0  0  0
    8.5909  -17.4311   25.2711 O   0  0  0  0  0  0  0  0  0  0  0  0
  2  1  1  6
  2  7  1  0
  3  2  1  0
  3  4  1  0
  5  4  1  0
  5  9  1  0
  6  5  2  0
  7  8  2  0
  7 16  1  0
 10 11  1  0
 11 12  2  0
 13 14  1  0
 13 11  1  0
 15 17  1  0
 15 14  1  6
 16 15  1  0
 17 18  2  0
 20 19  1  0
 20 21  2  0
 22 20  1  0
 23 22  1  0
 24 23  1  6
 25 24  1  0
 25 17  1  0
 26 24  1  0
 26 27  1  0
 28 26  2  0
M  END
$$$$
