EQQ.pdb
     RDKit          3D

 28 27  0  0  1  0  0  0  0  0999 V2000
   10.4530  -18.8881   16.6961 N   0  0  0  0  0  0  0  0  0  0  0  0
   11.7415  -18.2644   16.9126 C   0  0  1  0  0  0  0  0  0  0  0  0
   12.1599  -17.4525   15.7061 C   0  0  0  0  0  0  0  0  0  0  0  0
   11.0402  -17.2646   14.7208 C   0  0  0  0  0  0  0  0  0  0  0  0
   11.6205  -16.6321   13.5155 C   0  0  0  0  0  0  0  0  0  0  0  0
   12.6893  -17.0515   13.0317 O   0  0  0  0  0  0  0  0  0  0  0  0
   11.6070  -17.2936   18.0209 C   0  0  0  0  0  0  0  0  0  0  0  0
   12.6443  -16.7834   18.5060 O   0  0  0  0  0  0  0  0  0  0  0  0
   11.0077  -15.5487   12.8783 O   0  0  0  0  0  0  0  0  0  0  0  0
    7.3426  -13.2596   18.6878 N   0  0  0  0  0  0  0  0  0  0  0  0
    7.7997  -13.1840   20.0237 C   0  0  0  0  0  0  0  0  0  0  0  0
    7.3862  -12.2588   20.7643 O   0  0  0  0  0  0  0  0  0  0  0  0
    8.7631  -14.2098   20.5133 C   0  0  0  0  0  0  0  0  0  0  0  0
    9.0480  -15.1674   19.3997 C   0  0  0  0  0  0  0  0  0  0  0  0
   10.1270  -16.1551   19.6861 C   0  0  2  0  0  0  0  0  0  0  0  0
   10.3227  -16.9712   18.4986 N   0  0  0  0  0  0  0  0  0  0  0  0
    9.9051  -17.0203   20.8516 C   0  0  0  0  0  0  0  0  0  0  0  0
    9.6397  -18.2421   20.7119 O   0  0  0  0  0  0  0  0  0  0  0  0
   14.5336  -18.9394   21.8784 N   0  0  0  0  0  0  0  0  0  0  0  0
   13.5599  -19.7351   22.5200 C   0  0  0  0  0  0  0  0  0  0  0  0
   13.8819  -20.8993   22.8805 O   0  0  0  0  0  0  0  0  0  0  0  0
   12.2086  -19.2475   22.7780 C   0  0  0  0  0  0  0  0  0  0  0  0
   11.9996  -17.7750   22.6780 C   0  0  0  0  0  0  0  0  0  0  0  0
   10.7282  -17.2406   23.2475 C   0  0  2  0  0  0  0  0  0  0  0  0
    9.9759  -16.5381   22.1961 N   0  0  0  0  0  0  0  0  0  0  0  0
   10.7576  -16.5082   24.4900 C   0  0  0  0  0  0  0  0  0  0  0  0
   10.2179  -15.2741   24.7853 O   0  0  0  0  0  0  0  0  0  0  0  0
   11.3762  -17.0601   25.4712 O   0  0  0  0  0  0  0  0  0  0  0  0
  2  1  1  6
  2  7  1  0
  3  2  1  0
  3  4  1  0
  5  4  1  0
  5  9  1  0
  6  5  2  0
  7  8  2  0
  7 16  1  0
 10 11  1  0
 11 12  2  0
 13 14  1  0
 13 11  1  0
 15 17  1  0
 15 14  1  6
 16 15  1  0
 17 18  2  0
 20 19  1  0
 20 21  2  0
 22 20  1  0
 23 22  1  0
 24 23  1  6
 25 24  1  0
 25 17  1  0
 26 24  1  0
 26 27  1  0
 28 26  2  0
M  END
$$$$
