EQQ.pdb
     RDKit          3D

 28 27  0  0  1  0  0  0  0  0999 V2000
   10.0514  -13.6397   19.3679 N   0  0  0  0  0  0  0  0  0  0  0  0
    8.6073  -13.6698   19.4664 C   0  0  1  0  0  0  0  0  0  0  0  0
    7.9839  -14.1020   18.1569 C   0  0  0  0  0  0  0  0  0  0  0  0
    8.8763  -13.8343   16.9771 C   0  0  0  0  0  0  0  0  0  0  0  0
    8.1309  -14.2392   15.7647 C   0  0  0  0  0  0  0  0  0  0  0  0
    6.9215  -14.5308   15.8320 O   0  0  0  0  0  0  0  0  0  0  0  0
    8.2306  -14.7083   20.4505 C   0  0  0  0  0  0  0  0  0  0  0  0
    7.1586  -15.3368   20.2849 O   0  0  0  0  0  0  0  0  0  0  0  0
    8.7422  -14.3169   14.5095 O   0  0  0  0  0  0  0  0  0  0  0  0
    9.3100  -17.6203   18.3783 N   0  0  0  0  0  0  0  0  0  0  0  0
    8.6096  -18.5080   19.2274 C   0  0  0  0  0  0  0  0  0  0  0  0
    7.9187  -19.4263   18.7225 O   0  0  0  0  0  0  0  0  0  0  0  0
    8.7136  -18.3248   20.7024 C   0  0  0  0  0  0  0  0  0  0  0  0
    9.6655  -17.2041   20.9784 C   0  0  0  0  0  0  0  0  0  0  0  0
    9.2570  -16.2969   22.0883 C   0  0  2  0  0  0  0  0  0  0  0  0
    9.0829  -14.9605   21.5421 N   0  0  0  0  0  0  0  0  0  0  0  0
   10.1685  -16.2477   23.2386 C   0  0  0  0  0  0  0  0  0  0  0  0
   11.2995  -15.7043   23.1478 O   0  0  0  0  0  0  0  0  0  0  0  0
    6.7243  -12.7717   24.5493 N   0  0  0  0  0  0  0  0  0  0  0  0
    7.1340  -12.9187   25.8922 C   0  0  0  0  0  0  0  0  0  0  0  0
    6.6764  -12.1147   26.7485 O   0  0  0  0  0  0  0  0  0  0  0  0
    8.0582  -13.9685   26.3093 C   0  0  0  0  0  0  0  0  0  0  0  0
    8.5579  -14.8812   25.2420 C   0  0  0  0  0  0  0  0  0  0  0  0
    9.4864  -15.9671   25.6722 C   0  0  2  0  0  0  0  0  0  0  0  0
    9.8344  -16.8038   24.5131 N   0  0  0  0  0  0  0  0  0  0  0  0
    9.1736  -16.7479   26.8441 C   0  0  0  0  0  0  0  0  0  0  0  0
    9.5829  -16.5622   28.1478 O   0  0  0  0  0  0  0  0  0  0  0  0
    8.4157  -17.7706   26.6714 O   0  0  0  0  0  0  0  0  0  0  0  0
  2  1  1  6
  2  7  1  0
  3  2  1  0
  3  4  1  0
  5  4  1  0
  5  9  1  0
  6  5  2  0
  7  8  2  0
  7 16  1  0
 10 11  1  0
 11 12  2  0
 13 14  1  0
 13 11  1  0
 15 17  1  0
 15 14  1  6
 16 15  1  0
 17 18  2  0
 20 19  1  0
 20 21  2  0
 22 20  1  0
 23 22  1  0
 24 23  1  6
 25 24  1  0
 25 17  1  0
 26 24  1  0
 26 27  1  0
 28 26  2  0
M  END
$$$$
