EQQ.pdb
     RDKit          3D

 28 27  0  0  1  0  0  0  0  0999 V2000
   11.3033  -19.3753   20.2795 N   0  0  0  0  0  0  0  0  0  0  0  0
   12.3601  -18.4163   20.5242 C   0  0  1  0  0  0  0  0  0  0  0  0
   12.6907  -17.6420   19.2668 C   0  0  0  0  0  0  0  0  0  0  0  0
   13.8352  -16.6869   19.4618 C   0  0  0  0  0  0  0  0  0  0  0  0
   14.5215  -16.5554   18.1574 C   0  0  0  0  0  0  0  0  0  0  0  0
   14.1871  -15.6655   17.3521 O   0  0  0  0  0  0  0  0  0  0  0  0
   11.8625  -17.4140   21.4920 C   0  0  0  0  0  0  0  0  0  0  0  0
   12.6175  -16.4707   21.8264 O   0  0  0  0  0  0  0  0  0  0  0  0
   15.5563  -17.4141   17.7738 O   0  0  0  0  0  0  0  0  0  0  0  0
    6.4795  -16.3586   24.5757 N   0  0  0  0  0  0  0  0  0  0  0  0
    6.7923  -17.6967   24.2422 C   0  0  0  0  0  0  0  0  0  0  0  0
    6.1236  -18.6299   24.7496 O   0  0  0  0  0  0  0  0  0  0  0  0
    7.9116  -17.9588   23.2943 C   0  0  0  0  0  0  0  0  0  0  0  0
    8.5538  -16.6545   22.9413 C   0  0  0  0  0  0  0  0  0  0  0  0
   10.0419  -16.6475   23.0274 C   0  0  2  0  0  0  0  0  0  0  0  0
   10.5600  -17.5471   22.0091 N   0  0  0  0  0  0  0  0  0  0  0  0
   10.6056  -17.0024   24.3360 C   0  0  0  0  0  0  0  0  0  0  0  0
   11.0171  -18.1678   24.5712 O   0  0  0  0  0  0  0  0  0  0  0  0
   10.8741  -14.7893   30.2673 N   0  0  0  0  0  0  0  0  0  0  0  0
   10.0416  -14.2334   29.2720 C   0  0  0  0  0  0  0  0  0  0  0  0
    9.0363  -13.5663   29.6373 O   0  0  0  0  0  0  0  0  0  0  0  0
   10.3156  -14.4049   27.8487 C   0  0  0  0  0  0  0  0  0  0  0  0
   11.5523  -15.1570   27.4926 C   0  0  0  0  0  0  0  0  0  0  0  0
   11.3701  -16.3982   26.6848 C   0  0  2  0  0  0  0  0  0  0  0  0
   10.7214  -16.0625   25.4077 N   0  0  0  0  0  0  0  0  0  0  0  0
   10.8023  -17.5719   27.3020 C   0  0  0  0  0  0  0  0  0  0  0  0
    9.6099  -18.2081   27.0284 O   0  0  0  0  0  0  0  0  0  0  0  0
   11.4815  -18.1124   28.2490 O   0  0  0  0  0  0  0  0  0  0  0  0
  2  1  1  6
  2  7  1  0
  3  2  1  0
  3  4  1  0
  5  4  1  0
  5  9  1  0
  6  5  2  0
  7  8  2  0
  7 16  1  0
 10 11  1  0
 11 12  2  0
 13 14  1  0
 13 11  1  0
 15 17  1  0
 15 14  1  1
 16 15  1  0
 17 18  2  0
 20 19  1  0
 20 21  2  0
 22 20  1  0
 23 22  1  0
 24 23  1  1
 25 24  1  0
 25 17  1  0
 26 24  1  0
 26 27  1  0
 28 26  2  0
M  END
$$$$
