EQQ.pdb
     RDKit          3D

 28 27  0  0  1  0  0  0  0  0999 V2000
   11.1819  -24.7372   24.2389 N   0  0  0  0  0  0  0  0  0  0  0  0
   12.4479  -25.2527   24.7157 C   0  0  1  0  0  0  0  0  0  0  0  0
   13.3600  -25.6029   23.5601 C   0  0  0  0  0  0  0  0  0  0  0  0
   12.8827  -25.0303   22.2546 C   0  0  0  0  0  0  0  0  0  0  0  0
   13.8062  -25.5109   21.2031 C   0  0  0  0  0  0  0  0  0  0  0  0
   14.5233  -24.7091   20.5743 O   0  0  0  0  0  0  0  0  0  0  0  0
   13.1383  -24.1750   25.4577 C   0  0  0  0  0  0  0  0  0  0  0  0
   14.2203  -24.4363   26.0347 O   0  0  0  0  0  0  0  0  0  0  0  0
   13.9101  -26.8648   20.8693 O   0  0  0  0  0  0  0  0  0  0  0  0
   13.1026  -18.7107   23.4513 N   0  0  0  0  0  0  0  0  0  0  0  0
   14.3757  -19.2997   23.6295 C   0  0  0  0  0  0  0  0  0  0  0  0
   15.3243  -18.9523   22.8845 O   0  0  0  0  0  0  0  0  0  0  0  0
   14.5526  -20.3196   24.7011 C   0  0  0  0  0  0  0  0  0  0  0  0
   13.2181  -20.6041   25.3147 C   0  0  0  0  0  0  0  0  0  0  0  0
   13.1852  -21.7911   26.2156 C   0  0  2  0  0  0  0  0  0  0  0  0
   12.5631  -22.8908   25.4958 N   0  0  0  0  0  0  0  0  0  0  0  0
   12.5071  -21.5945   27.5032 C   0  0  0  0  0  0  0  0  0  0  0  0
   11.2761  -21.8210   27.6299 O   0  0  0  0  0  0  0  0  0  0  0  0
   10.3689  -24.6952   30.9639 N   0  0  0  0  0  0  0  0  0  0  0  0
   10.3968  -23.6212   31.8796 C   0  0  0  0  0  0  0  0  0  0  0  0
    9.8274  -23.7710   32.9943 O   0  0  0  0  0  0  0  0  0  0  0  0
   11.0648  -22.3601   31.5740 C   0  0  0  0  0  0  0  0  0  0  0  0
   11.7173  -22.2566   30.2379 C   0  0  0  0  0  0  0  0  0  0  0  0
   12.5255  -21.0286   29.9823 C   0  0  2  0  0  0  0  0  0  0  0  0
   13.1908  -21.1415   28.6749 N   0  0  0  0  0  0  0  0  0  0  0  0
   13.4063  -20.5299   31.0100 C   0  0  0  0  0  0  0  0  0  0  0  0
   14.7486  -20.2239   30.9321 O   0  0  0  0  0  0  0  0  0  0  0  0
   12.8916  -20.3459   32.1725 O   0  0  0  0  0  0  0  0  0  0  0  0
  2  1  1  6
  2  7  1  0
  3  2  1  0
  3  4  1  0
  5  4  1  0
  5  9  1  0
  6  5  2  0
  7  8  2  0
  7 16  1  0
 10 11  1  0
 11 12  2  0
 13 14  1  0
 13 11  1  0
 15 17  1  0
 15 14  1  6
 16 15  1  0
 17 18  2  0
 20 19  1  0
 20 21  2  0
 22 20  1  0
 23 22  1  0
 24 23  1  1
 25 24  1  0
 25 17  1  0
 26 24  1  0
 26 27  1  0
 28 26  2  0
M  END
$$$$
