EQQ.pdb
     RDKit          3D

 28 27  0  0  1  0  0  0  0  0999 V2000
    7.6647  -18.8426   21.7967 N   0  0  0  0  0  0  0  0  0  0  0  0
    8.9679  -18.5105   21.2605 C   0  0  1  0  0  0  0  0  0  0  0  0
    8.9110  -18.3544   19.7564 C   0  0  0  0  0  0  0  0  0  0  0  0
   10.2523  -18.0327   19.1587 C   0  0  0  0  0  0  0  0  0  0  0  0
   10.0573  -17.8900   17.6989 C   0  0  0  0  0  0  0  0  0  0  0  0
   10.2997  -16.8086   17.1296 O   0  0  0  0  0  0  0  0  0  0  0  0
    9.3617  -17.1846   21.7855 C   0  0  0  0  0  0  0  0  0  0  0  0
   10.4561  -16.6921   21.4228 O   0  0  0  0  0  0  0  0  0  0  0  0
    9.5942  -18.9445   16.9058 O   0  0  0  0  0  0  0  0  0  0  0  0
    5.6360  -14.0709   25.6036 N   0  0  0  0  0  0  0  0  0  0  0  0
    6.7808  -13.2542   25.7526 C   0  0  0  0  0  0  0  0  0  0  0  0
    6.7437  -12.2811   26.5445 O   0  0  0  0  0  0  0  0  0  0  0  0
    8.0014  -13.5755   24.9609 C   0  0  0  0  0  0  0  0  0  0  0  0
    7.7324  -14.7999   24.1443 C   0  0  0  0  0  0  0  0  0  0  0  0
    8.8981  -15.2947   23.3581 C   0  0  2  0  0  0  0  0  0  0  0  0
    8.5002  -16.5153   22.6751 N   0  0  0  0  0  0  0  0  0  0  0  0
   10.1277  -15.5333   24.1244 C   0  0  0  0  0  0  0  0  0  0  0  0
   11.0014  -14.6362   24.2458 O   0  0  0  0  0  0  0  0  0  0  0  0
   11.5245  -14.3509   30.1097 N   0  0  0  0  0  0  0  0  0  0  0  0
   10.6424  -14.4119   29.0092 C   0  0  0  0  0  0  0  0  0  0  0  0
    9.4420  -14.0696   29.1855 O   0  0  0  0  0  0  0  0  0  0  0  0
   11.0814  -14.8503   27.6882 C   0  0  0  0  0  0  0  0  0  0  0  0
   10.2352  -15.8718   27.0083 C   0  0  0  0  0  0  0  0  0  0  0  0
   10.9442  -16.8547   26.1378 C   0  0  2  0  0  0  0  0  0  0  0  0
   10.4056  -16.7784   24.7708 N   0  0  0  0  0  0  0  0  0  0  0  0
   11.1135  -18.2137   26.5907 C   0  0  0  0  0  0  0  0  0  0  0  0
   12.0678  -18.7356   27.4383 O   0  0  0  0  0  0  0  0  0  0  0  0
   10.2738  -19.0791   26.1477 O   0  0  0  0  0  0  0  0  0  0  0  0
  2  1  1  1
  2  7  1  0
  3  2  1  0
  3  4  1  0
  5  4  1  0
  5  9  1  0
  6  5  2  0
  7  8  2  0
  7 16  1  0
 10 11  1  0
 11 12  2  0
 13 14  1  0
 13 11  1  0
 15 17  1  0
 15 14  1  1
 16 15  1  0
 17 18  2  0
 20 19  1  0
 20 21  2  0
 22 20  1  0
 23 22  1  0
 24 23  1  1
 25 24  1  0
 25 17  1  0
 26 24  1  0
 26 27  1  0
 28 26  2  0
M  END
$$$$
