EQQ.pdb
     RDKit          3D

 28 27  0  0  1  0  0  0  0  0999 V2000
   11.5821  -18.3125   17.9344 N   0  0  0  0  0  0  0  0  0  0  0  0
   10.6576  -18.6238   19.0043 C   0  0  1  0  0  0  0  0  0  0  0  0
   11.2243  -19.6898   19.9168 C   0  0  0  0  0  0  0  0  0  0  0  0
   12.7113  -19.8492   19.7637 C   0  0  0  0  0  0  0  0  0  0  0  0
   13.1568  -20.8076   20.7993 C   0  0  0  0  0  0  0  0  0  0  0  0
   13.6939  -20.4033   21.8483 O   0  0  0  0  0  0  0  0  0  0  0  0
   10.5000  -17.4183   19.8472 C   0  0  0  0  0  0  0  0  0  0  0  0
   11.5184  -16.9146   20.3772 O   0  0  0  0  0  0  0  0  0  0  0  0
   13.0024  -22.1890   20.6471 O   0  0  0  0  0  0  0  0  0  0  0  0
    8.7692  -12.9543   19.2870 N   0  0  0  0  0  0  0  0  0  0  0  0
    7.9835  -12.6811   20.4305 C   0  0  0  0  0  0  0  0  0  0  0  0
    7.8497  -11.4942   20.8160 O   0  0  0  0  0  0  0  0  0  0  0  0
    7.3359  -13.8163   21.1460 C   0  0  0  0  0  0  0  0  0  0  0  0
    7.6862  -15.0880   20.4400 C   0  0  0  0  0  0  0  0  0  0  0  0
    8.9941  -15.6827   20.8369 C   0  0  2  0  0  0  0  0  0  0  0  0
    9.2156  -16.8724   20.0306 N   0  0  0  0  0  0  0  0  0  0  0  0
    9.1369  -16.0144   22.2602 C   0  0  0  0  0  0  0  0  0  0  0  0
    8.7729  -17.1332   22.7057 O   0  0  0  0  0  0  0  0  0  0  0  0
    5.3616  -13.1123   25.9464 N   0  0  0  0  0  0  0  0  0  0  0  0
    6.1563  -14.2613   25.7435 C   0  0  0  0  0  0  0  0  0  0  0  0
    5.6405  -15.3909   25.9602 O   0  0  0  0  0  0  0  0  0  0  0  0
    7.5407  -14.1751   25.2896 C   0  0  0  0  0  0  0  0  0  0  0  0
    8.2780  -15.4627   25.1466 C   0  0  0  0  0  0  0  0  0  0  0  0
    9.6858  -15.3760   24.6597 C   0  0  2  0  0  0  0  0  0  0  0  0
    9.6897  -15.1033   23.2139 N   0  0  0  0  0  0  0  0  0  0  0  0
   10.6317  -16.3994   25.0322 C   0  0  0  0  0  0  0  0  0  0  0  0
   11.9941  -16.4423   24.8233 O   0  0  0  0  0  0  0  0  0  0  0  0
   10.1596  -17.4297   25.6369 O   0  0  0  0  0  0  0  0  0  0  0  0
  2  1  1  6
  2  7  1  0
  3  2  1  0
  3  4  1  0
  5  4  1  0
  5  9  1  0
  6  5  2  0
  7  8  2  0
  7 16  1  0
 10 11  1  0
 11 12  2  0
 13 14  1  0
 13 11  1  0
 15 17  1  0
 15 14  1  1
 16 15  1  0
 17 18  2  0
 20 19  1  0
 20 21  2  0
 22 20  1  0
 23 22  1  0
 24 23  1  6
 25 24  1  0
 25 17  1  0
 26 24  1  0
 26 27  1  0
 28 26  2  0
M  END
$$$$
