EQQ.pdb
     RDKit          3D

 28 27  0  0  1  0  0  0  0  0999 V2000
   10.7101  -13.5862   18.7902 N   0  0  0  0  0  0  0  0  0  0  0  0
    9.3113  -13.3602   19.0874 C   0  0  1  0  0  0  0  0  0  0  0  0
    8.4449  -13.6733   17.8868 C   0  0  0  0  0  0  0  0  0  0  0  0
    8.8932  -14.9098   17.1588 C   0  0  0  0  0  0  0  0  0  0  0  0
    7.9632  -15.1110   16.0256 C   0  0  0  0  0  0  0  0  0  0  0  0
    6.8203  -15.5687   16.2171 O   0  0  0  0  0  0  0  0  0  0  0  0
    8.8994  -14.3168   20.1381 C   0  0  0  0  0  0  0  0  0  0  0  0
    7.7278  -14.2604   20.5806 O   0  0  0  0  0  0  0  0  0  0  0  0
    8.3215  -14.8062   14.7088 O   0  0  0  0  0  0  0  0  0  0  0  0
   11.7418  -19.6279   20.8490 N   0  0  0  0  0  0  0  0  0  0  0  0
   10.9538  -19.7141   22.0199 C   0  0  0  0  0  0  0  0  0  0  0  0
   10.9817  -20.7658   22.7045 O   0  0  0  0  0  0  0  0  0  0  0  0
   10.1105  -18.5482   22.4067 C   0  0  0  0  0  0  0  0  0  0  0  0
   10.3020  -17.4635   21.3942 C   0  0  0  0  0  0  0  0  0  0  0  0
    9.4848  -16.2392   21.6285 C   0  0  2  0  0  0  0  0  0  0  0  0
    9.8312  -15.2601   20.6107 N   0  0  0  0  0  0  0  0  0  0  0  0
    9.6106  -15.6352   22.9610 C   0  0  0  0  0  0  0  0  0  0  0  0
   10.7119  -15.1826   23.3673 O   0  0  0  0  0  0  0  0  0  0  0  0
    5.3864  -11.8894   25.5902 N   0  0  0  0  0  0  0  0  0  0  0  0
    6.3594  -12.0349   26.6026 C   0  0  0  0  0  0  0  0  0  0  0  0
    6.2910  -11.2808   27.6105 O   0  0  0  0  0  0  0  0  0  0  0  0
    7.4255  -13.0278   26.5151 C   0  0  0  0  0  0  0  0  0  0  0  0
    7.4685  -13.8539   25.2751 C   0  0  0  0  0  0  0  0  0  0  0  0
    8.6090  -14.8076   25.1469 C   0  0  2  0  0  0  0  0  0  0  0  0
    8.5087  -15.5241   23.8659 N   0  0  0  0  0  0  0  0  0  0  0  0
    8.9311  -15.6834   26.2470 C   0  0  0  0  0  0  0  0  0  0  0  0
    8.7753  -17.0500   26.3452 O   0  0  0  0  0  0  0  0  0  0  0  0
    9.4256  -15.1335   27.2974 O   0  0  0  0  0  0  0  0  0  0  0  0
  2  1  1  6
  2  7  1  0
  3  2  1  0
  3  4  1  0
  5  4  1  0
  5  9  1  0
  6  5  2  0
  7  8  2  0
  7 16  1  0
 10 11  1  0
 11 12  2  0
 13 14  1  0
 13 11  1  0
 15 17  1  0
 15 14  1  1
 16 15  1  0
 17 18  2  0
 20 19  1  0
 20 21  2  0
 22 20  1  0
 23 22  1  0
 24 23  1  1
 25 24  1  0
 25 17  1  0
 26 24  1  0
 26 27  1  0
 28 26  2  0
M  END
$$$$
