EQQ.pdb
     RDKit          3D

 28 27  0  0  1  0  0  0  0  0999 V2000
   13.5283  -16.6513   13.0974 N   0  0  0  0  0  0  0  0  0  0  0  0
   13.2993  -15.9626   14.3501 C   0  0  1  0  0  0  0  0  0  0  0  0
   12.0786  -16.5126   15.0554 C   0  0  0  0  0  0  0  0  0  0  0  0
   11.7280  -17.9025   14.6023 C   0  0  0  0  0  0  0  0  0  0  0  0
   10.5717  -18.3471   15.4115 C   0  0  0  0  0  0  0  0  0  0  0  0
    9.4083  -18.1920   14.9933 O   0  0  0  0  0  0  0  0  0  0  0  0
   14.4406  -16.2424   15.2490 C   0  0  0  0  0  0  0  0  0  0  0  0
   15.0428  -17.3364   15.1379 O   0  0  0  0  0  0  0  0  0  0  0  0
   10.7299  -18.9470   16.6646 O   0  0  0  0  0  0  0  0  0  0  0  0
   17.0124  -11.4545   17.3835 N   0  0  0  0  0  0  0  0  0  0  0  0
   17.8752  -12.3266   16.6803 C   0  0  0  0  0  0  0  0  0  0  0  0
   19.0331  -11.9417   16.3861 O   0  0  0  0  0  0  0  0  0  0  0  0
   17.3807  -13.6820   16.3083 C   0  0  0  0  0  0  0  0  0  0  0  0
   16.5600  -14.2178   17.4388 C   0  0  0  0  0  0  0  0  0  0  0  0
   15.8843  -15.5166   17.1591 C   0  0  2  0  0  0  0  0  0  0  0  0
   14.8170  -15.2763   16.2011 N   0  0  0  0  0  0  0  0  0  0  0  0
   15.3495  -16.2213   18.3311 C   0  0  0  0  0  0  0  0  0  0  0  0
   14.1279  -16.5107   18.4131 O   0  0  0  0  0  0  0  0  0  0  0  0
   12.1899  -20.5548   20.0576 N   0  0  0  0  0  0  0  0  0  0  0  0
   13.5691  -20.7107   20.3150 C   0  0  0  0  0  0  0  0  0  0  0  0
   14.1082  -21.8155   20.0363 O   0  0  0  0  0  0  0  0  0  0  0  0
   14.3771  -19.6363   20.8833 C   0  0  0  0  0  0  0  0  0  0  0  0
   14.9334  -18.6401   19.9241 C   0  0  0  0  0  0  0  0  0  0  0  0
   15.6727  -17.4858   20.5135 C   0  0  2  0  0  0  0  0  0  0  0  0
   16.1687  -16.6174   19.4344 N   0  0  0  0  0  0  0  0  0  0  0  0
   16.6649  -17.7224   21.5335 C   0  0  0  0  0  0  0  0  0  0  0  0
   16.5772  -17.5234   22.8952 O   0  0  0  0  0  0  0  0  0  0  0  0
   17.8015  -18.1736   21.1401 O   0  0  0  0  0  0  0  0  0  0  0  0
  2  1  1  6
  2  7  1  0
  3  2  1  0
  3  4  1  0
  5  4  1  0
  5  9  1  0
  6  5  2  0
  7  8  2  0
  7 16  1  0
 10 11  1  0
 11 12  2  0
 13 14  1  0
 13 11  1  0
 15 17  1  0
 15 14  1  1
 16 15  1  0
 17 18  2  0
 20 19  1  0
 20 21  2  0
 22 20  1  0
 23 22  1  0
 24 23  1  6
 25 24  1  0
 25 17  1  0
 26 24  1  0
 26 27  1  0
 28 26  2  0
M  END
$$$$
