EQQ.pdb
     RDKit          3D

 28 27  0  0  1  0  0  0  0  0999 V2000
    6.9826  -17.2181   20.1807 N   0  0  0  0  0  0  0  0  0  0  0  0
    7.9798  -17.7316   21.0961 C   0  0  1  0  0  0  0  0  0  0  0  0
    9.3116  -17.0439   20.8878 C   0  0  0  0  0  0  0  0  0  0  0  0
    9.8396  -17.2204   19.4914 C   0  0  0  0  0  0  0  0  0  0  0  0
   11.1665  -16.5675   19.4404 C   0  0  0  0  0  0  0  0  0  0  0  0
   12.1915  -17.2329   19.1972 O   0  0  0  0  0  0  0  0  0  0  0  0
    7.5645  -17.3899   22.4743 C   0  0  0  0  0  0  0  0  0  0  0  0
    7.0101  -16.2847   22.6816 O   0  0  0  0  0  0  0  0  0  0  0  0
   11.3280  -15.1968   19.6646 O   0  0  0  0  0  0  0  0  0  0  0  0
    7.6759  -21.6191   26.9319 N   0  0  0  0  0  0  0  0  0  0  0  0
    7.4721  -20.4949   27.7651 C   0  0  0  0  0  0  0  0  0  0  0  0
    7.3910  -20.6561   29.0072 O   0  0  0  0  0  0  0  0  0  0  0  0
    7.3593  -19.1473   27.1397 C   0  0  0  0  0  0  0  0  0  0  0  0
    7.4581  -19.3001   25.6547 C   0  0  0  0  0  0  0  0  0  0  0  0
    7.4607  -18.0184   24.8938 C   0  0  2  0  0  0  0  0  0  0  0  0
    7.8030  -18.3115   23.5112 N   0  0  0  0  0  0  0  0  0  0  0  0
    8.3494  -16.9713   25.4135 C   0  0  0  0  0  0  0  0  0  0  0  0
    9.5650  -16.9330   25.0918 O   0  0  0  0  0  0  0  0  0  0  0  0
    6.5527  -10.9533   25.1366 N   0  0  0  0  0  0  0  0  0  0  0  0
    6.6933  -11.8967   26.1773 C   0  0  0  0  0  0  0  0  0  0  0  0
    6.1949  -11.6243   27.3027 O   0  0  0  0  0  0  0  0  0  0  0  0
    7.3877  -13.1657   25.9836 C   0  0  0  0  0  0  0  0  0  0  0  0
    8.1527  -13.6931   27.1491 C   0  0  0  0  0  0  0  0  0  0  0  0
    8.8224  -15.0140   26.9664 C   0  0  2  0  0  0  0  0  0  0  0  0
    7.8977  -15.9460   26.3023 N   0  0  0  0  0  0  0  0  0  0  0  0
    9.5158  -15.6197   28.0768 C   0  0  0  0  0  0  0  0  0  0  0  0
   10.6111  -15.1571   28.7752 O   0  0  0  0  0  0  0  0  0  0  0  0
    9.0737  -16.7551   28.4838 O   0  0  0  0  0  0  0  0  0  0  0  0
  2  1  1  6
  2  7  1  0
  3  2  1  0
  3  4  1  0
  5  4  1  0
  5  9  1  0
  6  5  2  0
  7  8  2  0
  7 16  1  0
 10 11  1  0
 11 12  2  0
 13 14  1  0
 13 11  1  0
 15 17  1  0
 15 14  1  1
 16 15  1  0
 17 18  2  0
 20 19  1  0
 20 21  2  0
 22 20  1  0
 23 22  1  0
 24 23  1  1
 25 24  1  0
 25 17  1  0
 26 24  1  0
 26 27  1  0
 28 26  2  0
M  END
$$$$
