EQQ.pdb
     RDKit          3D

 28 27  0  0  1  0  0  0  0  0999 V2000
   12.2504  -17.0580   18.8113 N   0  0  0  0  0  0  0  0  0  0  0  0
   13.2289  -16.7623   19.8365 C   0  0  1  0  0  0  0  0  0  0  0  0
   14.2704  -15.7899   19.3269 C   0  0  0  0  0  0  0  0  0  0  0  0
   13.6857  -14.7381   18.4260 C   0  0  0  0  0  0  0  0  0  0  0  0
   14.8133  -13.9368   17.9007 C   0  0  0  0  0  0  0  0  0  0  0  0
   14.9916  -12.7651   18.2850 O   0  0  0  0  0  0  0  0  0  0  0  0
   12.5421  -16.0670   20.9472 C   0  0  0  0  0  0  0  0  0  0  0  0
   13.2326  -15.5749   21.8706 O   0  0  0  0  0  0  0  0  0  0  0  0
   15.7123  -14.4487   16.9599 O   0  0  0  0  0  0  0  0  0  0  0  0
    6.6689  -14.2951   20.5122 N   0  0  0  0  0  0  0  0  0  0  0  0
    7.7510  -13.8025   19.7465 C   0  0  0  0  0  0  0  0  0  0  0  0
    7.5176  -13.1332   18.7107 O   0  0  0  0  0  0  0  0  0  0  0  0
    9.1414  -14.0950   20.1951 C   0  0  0  0  0  0  0  0  0  0  0  0
    9.0775  -14.8937   21.4586 C   0  0  0  0  0  0  0  0  0  0  0  0
   10.4015  -15.3128   22.0001 C   0  0  2  0  0  0  0  0  0  0  0  0
   11.1373  -15.9779   20.9367 N   0  0  0  0  0  0  0  0  0  0  0  0
   10.3595  -16.1745   23.1883 C   0  0  0  0  0  0  0  0  0  0  0  0
   10.3245  -17.4275   23.0807 O   0  0  0  0  0  0  0  0  0  0  0  0
   11.2290  -14.2984   29.3525 N   0  0  0  0  0  0  0  0  0  0  0  0
   10.0580  -14.0081   28.6195 C   0  0  0  0  0  0  0  0  0  0  0  0
    9.2956  -13.0992   29.0459 O   0  0  0  0  0  0  0  0  0  0  0  0
    9.7153  -14.7212   27.3931 C   0  0  0  0  0  0  0  0  0  0  0  0
   10.6957  -15.7372   26.9151 C   0  0  0  0  0  0  0  0  0  0  0  0
   10.3088  -16.5224   25.7068 C   0  0  2  0  0  0  0  0  0  0  0  0
   10.3564  -15.6537   24.5203 N   0  0  0  0  0  0  0  0  0  0  0  0
    9.1249  -17.3458   25.7425 C   0  0  0  0  0  0  0  0  0  0  0  0
    7.9893  -17.2707   24.9639 O   0  0  0  0  0  0  0  0  0  0  0  0
    9.0986  -18.2818   26.6220 O   0  0  0  0  0  0  0  0  0  0  0  0
  2  1  1  6
  2  7  1  0
  3  2  1  0
  3  4  1  0
  5  4  1  0
  5  9  1  0
  6  5  2  0
  7  8  2  0
  7 16  1  0
 10 11  1  0
 11 12  2  0
 13 14  1  0
 13 11  1  0
 15 17  1  0
 15 14  1  6
 16 15  1  0
 17 18  2  0
 20 19  1  0
 20 21  2  0
 22 20  1  0
 23 22  1  0
 24 23  1  1
 25 24  1  0
 25 17  1  0
 26 24  1  0
 26 27  1  0
 28 26  2  0
M  END
$$$$
