EQQ.pdb
     RDKit          3D

 28 27  0  0  1  0  0  0  0  0999 V2000
   10.4802  -16.6638   18.0794 N   0  0  0  0  0  0  0  0  0  0  0  0
   10.8635  -17.2990   19.3226 C   0  0  1  0  0  0  0  0  0  0  0  0
   12.3527  -17.5656   19.3580 C   0  0  0  0  0  0  0  0  0  0  0  0
   12.7718  -18.6284   18.3809 C   0  0  0  0  0  0  0  0  0  0  0  0
   14.1204  -19.0850   18.7839 C   0  0  0  0  0  0  0  0  0  0  0  0
   14.3952  -20.2998   18.8155 O   0  0  0  0  0  0  0  0  0  0  0  0
   10.6004  -16.3519   20.4283 C   0  0  0  0  0  0  0  0  0  0  0  0
   11.1215  -15.2125   20.3844 O   0  0  0  0  0  0  0  0  0  0  0  0
   15.1297  -18.1878   19.1468 O   0  0  0  0  0  0  0  0  0  0  0  0
    6.6981  -16.9054   24.5391 N   0  0  0  0  0  0  0  0  0  0  0  0
    6.7230  -15.4962   24.6527 C   0  0  0  0  0  0  0  0  0  0  0  0
    6.1291  -14.9455   25.6117 O   0  0  0  0  0  0  0  0  0  0  0  0
    7.4565  -14.7046   23.6254 C   0  0  0  0  0  0  0  0  0  0  0  0
    7.9630  -15.6403   22.5735 C   0  0  0  0  0  0  0  0  0  0  0  0
    9.4377  -15.8562   22.5875 C   0  0  2  0  0  0  0  0  0  0  0  0
    9.7756  -16.7550   21.4954 N   0  0  0  0  0  0  0  0  0  0  0  0
    9.9937  -16.3724   23.8448 C   0  0  0  0  0  0  0  0  0  0  0  0
   10.2094  -17.6017   24.0029 O   0  0  0  0  0  0  0  0  0  0  0  0
   11.1547  -13.1307   29.2812 N   0  0  0  0  0  0  0  0  0  0  0  0
   10.9748  -14.4739   29.6767 C   0  0  0  0  0  0  0  0  0  0  0  0
   11.1946  -14.7773   30.8803 O   0  0  0  0  0  0  0  0  0  0  0  0
   10.5408  -15.5055   28.7399 C   0  0  0  0  0  0  0  0  0  0  0  0
   10.3247  -15.0777   27.3285 C   0  0  0  0  0  0  0  0  0  0  0  0
   10.6972  -16.0594   26.2683 C   0  0  2  0  0  0  0  0  0  0  0  0
   10.3203  -15.5256   24.9501 N   0  0  0  0  0  0  0  0  0  0  0  0
   10.3385  -17.4476   26.4263 C   0  0  0  0  0  0  0  0  0  0  0  0
    9.1134  -18.0551   26.2484 O   0  0  0  0  0  0  0  0  0  0  0  0
   11.2741  -18.2478   26.7929 O   0  0  0  0  0  0  0  0  0  0  0  0
  2  1  1  6
  2  7  1  0
  3  2  1  0
  3  4  1  0
  5  4  1  0
  5  9  1  0
  6  5  2  0
  7  8  2  0
  7 16  1  0
 10 11  1  0
 11 12  2  0
 13 14  1  0
 13 11  1  0
 15 17  1  0
 15 14  1  1
 16 15  1  0
 17 18  2  0
 20 19  1  0
 20 21  2  0
 22 20  1  0
 23 22  1  0
 24 23  1  1
 25 24  1  0
 25 17  1  0
 26 24  1  0
 26 27  1  0
 28 26  2  0
M  END
$$$$
