QLS.pdb
     RDKit          3D

 24 23  0  0  1  0  0  0  0  0999 V2000
    7.1358  -18.9386   20.3294 N   0  0  0  0  0  0  0  0  0  0  0  0
    6.8217  -18.0143   19.2696 C   0  0  0  0  0  0  0  0  0  0  0  0
    6.4310  -18.5364   18.2075 O   0  0  0  0  0  0  0  0  0  0  0  0
    6.9922  -16.5915   19.5551 C   0  0  0  0  0  0  0  0  0  0  0  0
    7.3556  -16.3571   20.9854 C   0  0  0  0  0  0  0  0  0  0  0  0
    7.5305  -14.9032   21.2497 C   0  0  2  0  0  0  0  0  0  0  0  0
    8.3564  -14.2926   20.2254 N   0  0  0  0  0  0  0  0  0  0  0  0
    8.1712  -14.7564   22.6019 C   0  0  0  0  0  0  0  0  0  0  0  0
    9.4208  -14.8210   22.5951 O   0  0  0  0  0  0  0  0  0  0  0  0
    5.8167  -11.7938   26.6675 C   0  0  0  0  0  0  0  0  0  0  0  0
    6.8634  -12.3629   25.7315 C   0  0  1  0  0  0  0  0  0  0  0  0
    8.1862  -11.6199   26.0786 C   0  0  0  0  0  0  0  0  0  0  0  0
    7.1476  -13.7949   25.9992 C   0  0  0  0  0  0  0  0  0  0  0  0
    8.0737  -14.5140   25.0939 C   0  0  2  0  0  0  0  0  0  0  0  0
    7.4555  -14.5649   23.7698 N   0  0  0  0  0  0  0  0  0  0  0  0
    8.3365  -15.8922   25.5067 C   0  0  0  0  0  0  0  0  0  0  0  0
    7.3880  -16.7472   25.6087 O   0  0  0  0  0  0  0  0  0  0  0  0
   11.7776  -17.8750   24.8627 O   0  0  0  0  0  0  0  0  0  0  0  0
   10.6023  -18.5696   25.1368 C   0  0  0  0  0  0  0  0  0  0  0  0
    9.7943  -17.8233   26.2070 C   0  0  2  0  0  0  0  0  0  0  0  0
    9.6189  -16.4365   25.8282 N   0  0  0  0  0  0  0  0  0  0  0  0
   10.4878  -17.8838   27.5162 C   0  0  0  0  0  0  0  0  0  0  0  0
   10.7902  -16.8358   28.1056 O   0  0  0  0  0  0  0  0  0  0  0  0
   10.8136  -19.1103   28.1110 O   0  0  0  0  0  0  0  0  0  0  0  0
  2  1  1  0
  3  2  2  0
  4  2  1  0
  5  4  1  0
  6  5  1  0
  6  7  1  6
  8  9  2  0
  8  6  1  0
 11 10  1  1
 11 12  1  0
 14 13  1  1
 13 11  1  0
 14 15  1  0
 15  8  1  0
 16 14  1  0
 17 16  2  0
 18 19  1  0
 20 19  1  6
 20 21  1  0
 21 16  1  0
 22 20  1  0
 23 22  2  0
 24 22  1  0
M  END
$$$$
