QLS.pdb
     RDKit          3D

 24 23  0  0  1  0  0  0  0  0999 V2000
    9.6015  -13.8522   17.1422 N   0  0  0  0  0  0  0  0  0  0  0  0
    8.1792  -13.6658   17.2784 C   0  0  0  0  0  0  0  0  0  0  0  0
    7.5486  -13.5859   16.2064 O   0  0  0  0  0  0  0  0  0  0  0  0
    7.6444  -13.5943   18.6362 C   0  0  0  0  0  0  0  0  0  0  0  0
    8.7101  -13.8169   19.6597 C   0  0  0  0  0  0  0  0  0  0  0  0
    8.3511  -14.9533   20.5508 C   0  0  2  0  0  0  0  0  0  0  0  0
    6.9373  -15.2600   20.4445 N   0  0  0  0  0  0  0  0  0  0  0  0
    8.7020  -14.5608   21.9591 C   0  0  0  0  0  0  0  0  0  0  0  0
    9.8972  -14.2294   22.1242 O   0  0  0  0  0  0  0  0  0  0  0  0
    8.2618  -12.2028   26.7828 C   0  0  0  0  0  0  0  0  0  0  0  0
    7.2065  -13.2493   26.4886 C   0  0  1  0  0  0  0  0  0  0  0  0
    5.8469  -12.5934   26.8671 C   0  0  0  0  0  0  0  0  0  0  0  0
    7.0945  -13.5527   25.0400 C   0  0  0  0  0  0  0  0  0  0  0  0
    8.1684  -14.3457   24.3978 C   0  0  2  0  0  0  0  0  0  0  0  0
    7.7924  -14.5594   23.0010 N   0  0  0  0  0  0  0  0  0  0  0  0
    8.3608  -15.6622   25.0048 C   0  0  0  0  0  0  0  0  0  0  0  0
    7.3920  -16.4940   25.1079 O   0  0  0  0  0  0  0  0  0  0  0  0
   10.9636  -17.6438   24.0091 O   0  0  0  0  0  0  0  0  0  0  0  0
   10.6856  -18.3304   25.1881 C   0  0  0  0  0  0  0  0  0  0  0  0
    9.7128  -17.5133   26.0491 C   0  0  2  0  0  0  0  0  0  0  0  0
    9.5913  -16.1669   25.5298 N   0  0  0  0  0  0  0  0  0  0  0  0
   10.1892  -17.4504   27.4519 C   0  0  0  0  0  0  0  0  0  0  0  0
   10.4591  -16.3546   27.9653 O   0  0  0  0  0  0  0  0  0  0  0  0
   10.3438  -18.6119   28.2206 O   0  0  0  0  0  0  0  0  0  0  0  0
  2  1  1  0
  3  2  2  0
  4  2  1  0
  5  4  1  0
  6  5  1  0
  6  7  1  1
  8  9  2  0
  8  6  1  0
 11 10  1  6
 11 12  1  0
 14 13  1  1
 13 11  1  0
 14 15  1  0
 15  8  1  0
 16 14  1  0
 17 16  2  0
 18 19  1  0
 20 19  1  6
 20 21  1  0
 21 16  1  0
 22 20  1  0
 23 22  2  0
 24 22  1  0
M  END
$$$$
