QLS.pdb
     RDKit          3D

 24 23  0  0  1  0  0  0  0  0999 V2000
    5.7857  -19.3604   20.4516 N   0  0  0  0  0  0  0  0  0  0  0  0
    7.0136  -18.8670   19.8815 C   0  0  0  0  0  0  0  0  0  0  0  0
    7.7522  -19.7352   19.3776 O   0  0  0  0  0  0  0  0  0  0  0  0
    7.2503  -17.4270   19.9554 C   0  0  0  0  0  0  0  0  0  0  0  0
    7.8684  -17.0374   21.2588 C   0  0  0  0  0  0  0  0  0  0  0  0
    7.9510  -15.5563   21.3770 C   0  0  2  0  0  0  0  0  0  0  0  0
    8.7954  -15.0059   20.3339 N   0  0  0  0  0  0  0  0  0  0  0  0
    8.5113  -15.2349   22.7347 C   0  0  0  0  0  0  0  0  0  0  0  0
    9.7580  -15.1346   22.7725 O   0  0  0  0  0  0  0  0  0  0  0  0
    5.6055  -12.2320   26.3639 C   0  0  0  0  0  0  0  0  0  0  0  0
    6.7517  -12.7560   25.5231 C   0  0  1  0  0  0  0  0  0  0  0  0
    7.9451  -11.7941   25.7930 C   0  0  0  0  0  0  0  0  0  0  0  0
    7.2252  -14.0885   25.9738 C   0  0  0  0  0  0  0  0  0  0  0  0
    8.2787  -14.7693   25.1857 C   0  0  2  0  0  0  0  0  0  0  0  0
    7.7295  -15.0606   23.8622 N   0  0  0  0  0  0  0  0  0  0  0  0
    8.7112  -16.0389   25.7685 C   0  0  0  0  0  0  0  0  0  0  0  0
    7.8615  -16.8975   26.1951 O   0  0  0  0  0  0  0  0  0  0  0  0
   12.6893  -17.4483   25.7617 O   0  0  0  0  0  0  0  0  0  0  0  0
   11.6228  -18.3363   25.6492 C   0  0  0  0  0  0  0  0  0  0  0  0
   10.4069  -17.7882   26.4083 C   0  0  2  0  0  0  0  0  0  0  0  0
   10.0667  -16.4662   25.9249 N   0  0  0  0  0  0  0  0  0  0  0  0
   10.6932  -17.7139   27.8613 C   0  0  0  0  0  0  0  0  0  0  0  0
   10.6600  -16.6197   28.4435 O   0  0  0  0  0  0  0  0  0  0  0  0
   11.0039  -18.8627   28.6015 O   0  0  0  0  0  0  0  0  0  0  0  0
  2  1  1  0
  3  2  2  0
  4  2  1  0
  5  4  1  0
  6  5  1  0
  6  7  1  6
  8  9  2  0
  8  6  1  0
 11 10  1  1
 11 12  1  0
 14 13  1  1
 13 11  1  0
 14 15  1  0
 15  8  1  0
 16 14  1  0
 17 16  2  0
 18 19  1  0
 20 19  1  6
 20 21  1  0
 21 16  1  0
 22 20  1  0
 23 22  2  0
 24 22  1  0
M  END
$$$$
