QLS.pdb
     RDKit          3D

 24 23  0  0  1  0  0  0  0  0999 V2000
   10.9923  -15.6169   14.1044 N   0  0  0  0  0  0  0  0  0  0  0  0
    9.9717  -16.6167   14.2913 C   0  0  0  0  0  0  0  0  0  0  0  0
    9.3202  -16.9086   13.2698 O   0  0  0  0  0  0  0  0  0  0  0  0
    9.8188  -17.1683   15.6356 C   0  0  0  0  0  0  0  0  0  0  0  0
   10.8082  -16.5792   16.5879 C   0  0  0  0  0  0  0  0  0  0  0  0
   10.6794  -17.2064   17.9312 C   0  0  2  0  0  0  0  0  0  0  0  0
    9.4406  -17.9544   18.0301 N   0  0  0  0  0  0  0  0  0  0  0  0
   10.7159  -16.1070   18.9562 C   0  0  0  0  0  0  0  0  0  0  0  0
   11.8155  -15.5169   19.0472 O   0  0  0  0  0  0  0  0  0  0  0  0
    6.4193  -12.9575   20.0142 C   0  0  0  0  0  0  0  0  0  0  0  0
    7.8470  -13.4173   19.8004 C   0  0  1  0  0  0  0  0  0  0  0  0
    8.6976  -12.1174   19.7064 C   0  0  0  0  0  0  0  0  0  0  0  0
    8.3914  -14.1465   20.9729 C   0  0  0  0  0  0  0  0  0  0  0  0
    9.7130  -14.8036   20.8466 C   0  0  2  0  0  0  0  0  0  0  0  0
    9.6333  -15.7609   19.7443 N   0  0  0  0  0  0  0  0  0  0  0  0
   10.1093  -15.5463   22.0425 C   0  0  0  0  0  0  0  0  0  0  0  0
   10.2806  -14.9541   23.1655 O   0  0  0  0  0  0  0  0  0  0  0  0
   10.8265  -19.7031   22.1696 O   0  0  0  0  0  0  0  0  0  0  0  0
   10.3404  -19.0855   23.3189 C   0  0  0  0  0  0  0  0  0  0  0  0
   10.7596  -17.6093   23.3332 C   0  0  2  0  0  0  0  0  0  0  0  0
   10.3399  -16.9557   22.1110 N   0  0  0  0  0  0  0  0  0  0  0  0
   12.2317  -17.4896   23.4656 C   0  0  0  0  0  0  0  0  0  0  0  0
   12.7986  -17.9183   24.4815 O   0  0  0  0  0  0  0  0  0  0  0  0
   13.0070  -16.8973   22.4596 O   0  0  0  0  0  0  0  0  0  0  0  0
  2  1  1  0
  3  2  2  0
  4  2  1  0
  5  4  1  0
  6  5  1  0
  6  7  1  6
  8  9  2  0
  8  6  1  0
 11 10  1  1
 11 12  1  0
 14 13  1  1
 13 11  1  0
 14 15  1  0
 15  8  1  0
 16 14  1  0
 17 16  2  0
 18 19  1  0
 20 19  1  6
 20 21  1  0
 21 16  1  0
 22 20  1  0
 23 22  2  0
 24 22  1  0
M  END
$$$$
