QLS.pdb
     RDKit          3D

 24 23  0  0  1  0  0  0  0  0999 V2000
    9.7774  -19.2104   18.9304 N   0  0  0  0  0  0  0  0  0  0  0  0
    8.8478  -18.2593   19.4847 C   0  0  0  0  0  0  0  0  0  0  0  0
    7.7903  -18.7466   19.9289 O   0  0  0  0  0  0  0  0  0  0  0  0
    9.2438  -16.8530   19.4656 C   0  0  0  0  0  0  0  0  0  0  0  0
    9.6071  -16.3652   20.8304 C   0  0  0  0  0  0  0  0  0  0  0  0
    8.4254  -15.7589   21.5016 C   0  0  2  0  0  0  0  0  0  0  0  0
    8.0216  -14.5410   20.8250 N   0  0  0  0  0  0  0  0  0  0  0  0
    8.8055  -15.4700   22.9273 C   0  0  0  0  0  0  0  0  0  0  0  0
   10.0353  -15.5050   23.1550 O   0  0  0  0  0  0  0  0  0  0  0  0
    5.7331  -12.1639   26.2144 C   0  0  0  0  0  0  0  0  0  0  0  0
    6.8999  -12.8080   25.4941 C   0  0  1  0  0  0  0  0  0  0  0  0
    8.1582  -11.9999   25.9256 C   0  0  0  0  0  0  0  0  0  0  0  0
    7.1588  -14.1944   25.9566 C   0  0  0  0  0  0  0  0  0  0  0  0
    8.2537  -14.9609   25.3178 C   0  0  2  0  0  0  0  0  0  0  0  0
    7.8859  -15.1866   23.9207 N   0  0  0  0  0  0  0  0  0  0  0  0
    8.4785  -16.2710   25.9276 C   0  0  0  0  0  0  0  0  0  0  0  0
    7.5111  -17.0882   26.1211 O   0  0  0  0  0  0  0  0  0  0  0  0
   11.8886  -18.4360   25.7021 O   0  0  0  0  0  0  0  0  0  0  0  0
   10.6703  -19.0255   26.0292 C   0  0  0  0  0  0  0  0  0  0  0  0
    9.8754  -18.0968   26.9570 C   0  0  2  0  0  0  0  0  0  0  0  0
    9.7410  -16.7845   26.3596 N   0  0  0  0  0  0  0  0  0  0  0  0
   10.5573  -17.9652   28.2671 C   0  0  0  0  0  0  0  0  0  0  0  0
   10.7646  -18.9716   28.9609 O   0  0  0  0  0  0  0  0  0  0  0  0
   10.9780  -16.7172   28.7462 O   0  0  0  0  0  0  0  0  0  0  0  0
  2  1  1  0
  3  2  2  0
  4  2  1  0
  5  4  1  0
  6  5  1  0
  6  7  1  6
  8  9  2  0
  8  6  1  0
 11 10  1  1
 11 12  1  0
 14 13  1  1
 13 11  1  0
 14 15  1  0
 15  8  1  0
 16 14  1  0
 17 16  2  0
 18 19  1  0
 20 19  1  6
 20 21  1  0
 21 16  1  0
 22 20  1  0
 23 22  2  0
 24 22  1  0
M  END
$$$$
