QLS.pdb
     RDKit          3D

 24 23  0  0  1  0  0  0  0  0999 V2000
    7.9412  -19.3316   19.0753 N   0  0  0  0  0  0  0  0  0  0  0  0
    8.9783  -18.3785   18.7719 C   0  0  0  0  0  0  0  0  0  0  0  0
   10.0313  -18.8656   18.3168 O   0  0  0  0  0  0  0  0  0  0  0  0
    8.6831  -16.9702   19.0262 C   0  0  0  0  0  0  0  0  0  0  0  0
    8.2777  -16.7408   20.4459 C   0  0  0  0  0  0  0  0  0  0  0  0
    7.9454  -15.3077   20.6705 C   0  0  2  0  0  0  0  0  0  0  0  0
    8.5623  -14.4744   19.6561 N   0  0  0  0  0  0  0  0  0  0  0  0
    8.4426  -14.9303   22.0383 C   0  0  0  0  0  0  0  0  0  0  0  0
    9.6602  -15.1478   22.2274 O   0  0  0  0  0  0  0  0  0  0  0  0
    8.4130  -11.9061   26.6672 C   0  0  0  0  0  0  0  0  0  0  0  0
    7.2679  -12.8752   26.4555 C   0  0  1  0  0  0  0  0  0  0  0  0
    5.9789  -12.0939   26.8431 C   0  0  0  0  0  0  0  0  0  0  0  0
    7.0826  -13.2336   25.0271 C   0  0  0  0  0  0  0  0  0  0  0  0
    8.1071  -14.0785   24.3707 C   0  0  2  0  0  0  0  0  0  0  0  0
    7.6360  -14.3858   23.0211 N   0  0  0  0  0  0  0  0  0  0  0  0
    8.3356  -15.3511   25.0541 C   0  0  0  0  0  0  0  0  0  0  0  0
    7.3697  -16.1561   25.2991 O   0  0  0  0  0  0  0  0  0  0  0  0
   11.8695  -17.3847   25.0373 O   0  0  0  0  0  0  0  0  0  0  0  0
   10.6598  -18.0330   25.2723 C   0  0  0  0  0  0  0  0  0  0  0  0
    9.7482  -17.1405   26.1253 C   0  0  2  0  0  0  0  0  0  0  0  0
    9.6005  -15.8383   25.5091 N   0  0  0  0  0  0  0  0  0  0  0  0
   10.3137  -16.9715   27.4856 C   0  0  0  0  0  0  0  0  0  0  0  0
   10.5872  -15.8375   27.9057 O   0  0  0  0  0  0  0  0  0  0  0  0
   10.5495  -18.0742   28.3178 O   0  0  0  0  0  0  0  0  0  0  0  0
  2  1  1  0
  3  2  2  0
  4  2  1  0
  5  4  1  0
  6  5  1  0
  6  7  1  6
  8  9  2  0
  8  6  1  0
 11 10  1  6
 11 12  1  0
 14 13  1  1
 13 11  1  0
 14 15  1  0
 15  8  1  0
 16 14  1  0
 17 16  2  0
 18 19  1  0
 20 19  1  6
 20 21  1  0
 21 16  1  0
 22 20  1  0
 23 22  2  0
 24 22  1  0
M  END
$$$$
