QLS.pdb
     RDKit          3D

 24 23  0  0  1  0  0  0  0  0999 V2000
    6.5150  -18.9903   20.6621 N   0  0  0  0  0  0  0  0  0  0  0  0
    7.8175  -18.6411   20.1544 C   0  0  0  0  0  0  0  0  0  0  0  0
    8.4332  -19.5658   19.5895 O   0  0  0  0  0  0  0  0  0  0  0  0
    8.2623  -17.2638   20.3542 C   0  0  0  0  0  0  0  0  0  0  0  0
    7.2552  -16.4656   21.1167 C   0  0  0  0  0  0  0  0  0  0  0  0
    7.7211  -15.0629   21.2896 C   0  0  2  0  0  0  0  0  0  0  0  0
    8.7197  -14.7287   20.2920 N   0  0  0  0  0  0  0  0  0  0  0  0
    8.2945  -14.9371   22.6738 C   0  0  0  0  0  0  0  0  0  0  0  0
    9.5327  -15.1040   22.7410 O   0  0  0  0  0  0  0  0  0  0  0  0
    5.3141  -12.1839   26.5199 C   0  0  0  0  0  0  0  0  0  0  0  0
    6.4595  -12.5905   25.6154 C   0  0  1  0  0  0  0  0  0  0  0  0
    7.5897  -11.5527   25.8760 C   0  0  0  0  0  0  0  0  0  0  0  0
    7.0473  -13.8994   25.9951 C   0  0  0  0  0  0  0  0  0  0  0  0
    8.0998  -14.4804   25.1298 C   0  0  2  0  0  0  0  0  0  0  0  0
    7.5324  -14.6600   23.7942 N   0  0  0  0  0  0  0  0  0  0  0  0
    8.5694  -15.7886   25.5846 C   0  0  0  0  0  0  0  0  0  0  0  0
    7.8092  -16.8189   25.5414 O   0  0  0  0  0  0  0  0  0  0  0  0
   12.4161  -16.9459   25.4167 O   0  0  0  0  0  0  0  0  0  0  0  0
   11.3855  -17.8817   25.4487 C   0  0  0  0  0  0  0  0  0  0  0  0
   10.2944  -17.4207   26.4245 C   0  0  2  0  0  0  0  0  0  0  0  0
    9.8705  -16.0735   26.1045 N   0  0  0  0  0  0  0  0  0  0  0  0
   10.7988  -17.4516   27.8185 C   0  0  0  0  0  0  0  0  0  0  0  0
   11.2633  -18.5020   28.2856 O   0  0  0  0  0  0  0  0  0  0  0  0
   10.7631  -16.3100   28.6307 O   0  0  0  0  0  0  0  0  0  0  0  0
  2  1  1  0
  3  2  2  0
  4  2  1  0
  5  4  1  0
  6  5  1  0
  6  7  1  6
  8  9  2  0
  8  6  1  0
 11 10  1  1
 11 12  1  0
 14 13  1  1
 13 11  1  0
 14 15  1  0
 15  8  1  0
 16 14  1  0
 17 16  2  0
 18 19  1  0
 20 19  1  6
 20 21  1  0
 21 16  1  0
 22 20  1  0
 23 22  2  0
 24 22  1  0
M  END
$$$$
