QLS.pdb
     RDKit          3D

 24 23  0  0  1  0  0  0  0  0999 V2000
    7.9197  -19.7053   20.6969 N   0  0  0  0  0  0  0  0  0  0  0  0
    7.5171  -18.8559   19.6049 C   0  0  0  0  0  0  0  0  0  0  0  0
    7.1076  -19.4526   18.5903 O   0  0  0  0  0  0  0  0  0  0  0  0
    7.6309  -17.4133   19.8071 C   0  0  0  0  0  0  0  0  0  0  0  0
    8.0247  -17.0838   21.2103 C   0  0  0  0  0  0  0  0  0  0  0  0
    7.9950  -15.6124   21.4307 C   0  0  2  0  0  0  0  0  0  0  0  0
    8.7812  -14.9279   20.4220 N   0  0  0  0  0  0  0  0  0  0  0  0
    8.5467  -15.3428   22.8032 C   0  0  0  0  0  0  0  0  0  0  0  0
    9.7961  -15.3270   22.8676 O   0  0  0  0  0  0  0  0  0  0  0  0
    5.7454  -12.2399   26.3973 C   0  0  0  0  0  0  0  0  0  0  0  0
    6.8820  -12.8205   25.5811 C   0  0  1  0  0  0  0  0  0  0  0  0
    8.1148  -11.9170   25.8748 C   0  0  0  0  0  0  0  0  0  0  0  0
    7.2809  -14.1735   26.0432 C   0  0  0  0  0  0  0  0  0  0  0  0
    8.2929  -14.9192   25.2597 C   0  0  2  0  0  0  0  0  0  0  0  0
    7.7545  -15.1272   23.9162 N   0  0  0  0  0  0  0  0  0  0  0  0
    8.6028  -16.2362   25.8150 C   0  0  0  0  0  0  0  0  0  0  0  0
    7.6984  -17.1353   25.9364 O   0  0  0  0  0  0  0  0  0  0  0  0
   12.2994  -17.9884   25.7950 O   0  0  0  0  0  0  0  0  0  0  0  0
   11.1362  -18.7456   25.9066 C   0  0  0  0  0  0  0  0  0  0  0  0
   10.1148  -18.0047   26.7800 C   0  0  2  0  0  0  0  0  0  0  0  0
    9.8885  -16.6699   26.2660 N   0  0  0  0  0  0  0  0  0  0  0  0
   10.6000  -17.9097   28.1779 C   0  0  0  0  0  0  0  0  0  0  0  0
   10.7240  -16.7996   28.7160 O   0  0  0  0  0  0  0  0  0  0  0  0
   10.9256  -19.0566   28.9146 O   0  0  0  0  0  0  0  0  0  0  0  0
  2  1  1  0
  3  2  2  0
  4  2  1  0
  5  4  1  0
  6  5  1  0
  6  7  1  6
  8  9  2  0
  8  6  1  0
 11 10  1  1
 11 12  1  0
 14 13  1  1
 13 11  1  0
 14 15  1  0
 15  8  1  0
 16 14  1  0
 17 16  2  0
 18 19  1  0
 20 19  1  6
 20 21  1  0
 21 16  1  0
 22 20  1  0
 23 22  2  0
 24 22  1  0
M  END
$$$$
