QLS.pdb
     RDKit          3D

 24 23  0  0  1  0  0  0  0  0999 V2000
    9.2979  -20.4909   28.6091 N   0  0  0  0  0  0  0  0  0  0  0  0
    9.0474  -19.1206   28.2409 C   0  0  0  0  0  0  0  0  0  0  0  0
    8.9478  -18.3238   29.1940 O   0  0  0  0  0  0  0  0  0  0  0  0
    8.9416  -18.8236   26.8142 C   0  0  0  0  0  0  0  0  0  0  0  0
    7.7140  -19.4297   26.2156 C   0  0  0  0  0  0  0  0  0  0  0  0
    6.6150  -18.4286   26.1487 C   0  0  2  0  0  0  0  0  0  0  0  0
    5.3907  -19.0438   25.6725 N   0  0  0  0  0  0  0  0  0  0  0  0
    7.0506  -17.3304   25.2189 C   0  0  0  0  0  0  0  0  0  0  0  0
    7.0729  -17.6510   24.0096 O   0  0  0  0  0  0  0  0  0  0  0  0
    7.1444  -12.2357   27.3308 C   0  0  0  0  0  0  0  0  0  0  0  0
    6.8441  -13.4434   26.4668 C   0  0  1  0  0  0  0  0  0  0  0  0
    5.6405  -13.0304   25.5707 C   0  0  0  0  0  0  0  0  0  0  0  0
    7.9416  -13.7495   25.5156 C   0  0  0  0  0  0  0  0  0  0  0  0
    7.8790  -15.0135   24.7456 C   0  0  2  0  0  0  0  0  0  0  0  0
    7.4022  -16.0626   25.6456 N   0  0  0  0  0  0  0  0  0  0  0  0
    9.1767  -15.4413   24.2245 C   0  0  0  0  0  0  0  0  0  0  0  0
   10.1207  -15.8051   25.0104 O   0  0  0  0  0  0  0  0  0  0  0  0
    9.6677  -17.1101   20.6363 O   0  0  0  0  0  0  0  0  0  0  0  0
   10.6704  -17.2815   21.5871 C   0  0  0  0  0  0  0  0  0  0  0  0
   10.8329  -15.9960   22.4095 C   0  0  2  0  0  0  0  0  0  0  0  0
    9.5395  -15.5100   22.8432 N   0  0  0  0  0  0  0  0  0  0  0  0
   11.4997  -14.9454   21.6030 C   0  0  0  0  0  0  0  0  0  0  0  0
   10.9028  -13.8892   21.3474 O   0  0  0  0  0  0  0  0  0  0  0  0
   12.8027  -15.1185   21.1170 O   0  0  0  0  0  0  0  0  0  0  0  0
  2  1  1  0
  3  2  2  0
  4  2  1  0
  5  4  1  0
  6  5  1  0
  6  7  1  6
  8  9  2  0
  8  6  1  0
 11 10  1  1
 11 12  1  0
 14 13  1  1
 13 11  1  0
 14 15  1  0
 15  8  1  0
 16 14  1  0
 17 16  2  0
 18 19  1  0
 20 19  1  6
 20 21  1  0
 21 16  1  0
 22 20  1  0
 23 22  2  0
 24 22  1  0
M  END
$$$$
