QLS.pdb
     RDKit          3D

 24 23  0  0  1  0  0  0  0  0999 V2000
    6.1123  -18.7113   22.0624 N   0  0  0  0  0  0  0  0  0  0  0  0
    6.5416  -18.0855   20.8376 C   0  0  0  0  0  0  0  0  0  0  0  0
    5.6359  -17.8526   20.0139 O   0  0  0  0  0  0  0  0  0  0  0  0
    7.9676  -17.7974   20.7017 C   0  0  0  0  0  0  0  0  0  0  0  0
    8.5452  -17.2666   21.9734 C   0  0  0  0  0  0  0  0  0  0  0  0
    8.7098  -15.7896   21.8974 C   0  0  2  0  0  0  0  0  0  0  0  0
    9.7657  -15.4397   20.9664 N   0  0  0  0  0  0  0  0  0  0  0  0
    9.0369  -15.2926   23.2782 C   0  0  0  0  0  0  0  0  0  0  0  0
   10.2592  -15.1473   23.5026 O   0  0  0  0  0  0  0  0  0  0  0  0
    5.5198  -12.0719   26.1988 C   0  0  0  0  0  0  0  0  0  0  0  0
    6.7833  -12.6143   25.5626 C   0  0  1  0  0  0  0  0  0  0  0  0
    7.9100  -11.6106   25.9436 C   0  0  0  0  0  0  0  0  0  0  0  0
    7.2077  -13.9079   26.1538 C   0  0  0  0  0  0  0  0  0  0  0  0
    8.4025  -14.5830   25.5960 C   0  0  2  0  0  0  0  0  0  0  0  0
    8.0794  -15.0131   24.2363 N   0  0  0  0  0  0  0  0  0  0  0  0
    8.8016  -15.7725   26.3473 C   0  0  0  0  0  0  0  0  0  0  0  0
    9.0756  -15.7076   27.5971 O   0  0  0  0  0  0  0  0  0  0  0  0
    9.9789  -19.3548   24.5545 O   0  0  0  0  0  0  0  0  0  0  0  0
    9.3726  -19.5006   25.7995 C   0  0  0  0  0  0  0  0  0  0  0  0
    9.4775  -18.1872   26.5863 C   0  0  2  0  0  0  0  0  0  0  0  0
    8.9264  -17.0932   25.8139 N   0  0  0  0  0  0  0  0  0  0  0  0
   10.8935  -17.8876   26.9086 C   0  0  0  0  0  0  0  0  0  0  0  0
   11.4207  -16.8516   26.4773 O   0  0  0  0  0  0  0  0  0  0  0  0
   11.6597  -18.7562   27.6977 O   0  0  0  0  0  0  0  0  0  0  0  0
  2  1  1  0
  3  2  2  0
  4  2  1  0
  5  4  1  0
  6  5  1  0
  6  7  1  6
  8  9  2  0
  8  6  1  0
 11 10  1  1
 11 12  1  0
 14 13  1  1
 13 11  1  0
 14 15  1  0
 15  8  1  0
 16 14  1  0
 17 16  2  0
 18 19  1  0
 20 19  1  6
 20 21  1  0
 21 16  1  0
 22 20  1  0
 23 22  2  0
 24 22  1  0
M  END
$$$$
