QLS.pdb
     RDKit          3D

 24 23  0  0  1  0  0  0  0  0999 V2000
    8.7244  -12.1941   18.7700 N   0  0  0  0  0  0  0  0  0  0  0  0
    8.0090  -13.3088   18.2028 C   0  0  0  0  0  0  0  0  0  0  0  0
    7.7279  -13.2001   16.9935 O   0  0  0  0  0  0  0  0  0  0  0  0
    7.6998  -14.4242   19.0945 C   0  0  0  0  0  0  0  0  0  0  0  0
    8.1981  -14.1747   20.4809 C   0  0  0  0  0  0  0  0  0  0  0  0
    8.2023  -15.4359   21.2707 C   0  0  2  0  0  0  0  0  0  0  0  0
    6.8723  -16.0127   21.3208 N   0  0  0  0  0  0  0  0  0  0  0  0
    8.6887  -15.1087   22.6552 C   0  0  0  0  0  0  0  0  0  0  0  0
    9.8830  -14.7402   22.7134 O   0  0  0  0  0  0  0  0  0  0  0  0
    5.8133  -12.3966   26.3178 C   0  0  0  0  0  0  0  0  0  0  0  0
    6.9831  -12.9345   25.5192 C   0  0  1  0  0  0  0  0  0  0  0  0
    8.2016  -12.0484   25.9099 C   0  0  0  0  0  0  0  0  0  0  0  0
    7.3648  -14.3100   25.9256 C   0  0  0  0  0  0  0  0  0  0  0  0
    8.4058  -15.0161   25.1432 C   0  0  2  0  0  0  0  0  0  0  0  0
    7.8964  -15.2010   23.7851 N   0  0  0  0  0  0  0  0  0  0  0  0
    8.7318  -16.3401   25.6716 C   0  0  0  0  0  0  0  0  0  0  0  0
    7.8521  -17.2700   25.7224 O   0  0  0  0  0  0  0  0  0  0  0  0
   12.2811  -18.1809   25.4402 O   0  0  0  0  0  0  0  0  0  0  0  0
   11.1156  -18.8869   25.7262 C   0  0  0  0  0  0  0  0  0  0  0  0
   10.2415  -18.0780   26.6941 C   0  0  2  0  0  0  0  0  0  0  0  0
   10.0085  -16.7485   26.1694 N   0  0  0  0  0  0  0  0  0  0  0  0
   10.8996  -17.9677   28.0183 C   0  0  0  0  0  0  0  0  0  0  0  0
   11.1618  -16.8506   28.4881 O   0  0  0  0  0  0  0  0  0  0  0  0
   11.2365  -19.1076   28.7607 O   0  0  0  0  0  0  0  0  0  0  0  0
  2  1  1  0
  3  2  2  0
  4  2  1  0
  5  4  1  0
  6  5  1  0
  6  7  1  1
  8  9  2  0
  8  6  1  0
 11 10  1  1
 11 12  1  0
 14 13  1  1
 13 11  1  0
 14 15  1  0
 15  8  1  0
 16 14  1  0
 17 16  2  0
 18 19  1  0
 20 19  1  6
 20 21  1  0
 21 16  1  0
 22 20  1  0
 23 22  2  0
 24 22  1  0
M  END
$$$$
