QLS.pdb
     RDKit          3D

 24 23  0  0  1  0  0  0  0  0999 V2000
    8.9623  -17.9031   18.9530 N   0  0  0  0  0  0  0  0  0  0  0  0
    7.5973  -17.6128   18.5947 C   0  0  0  0  0  0  0  0  0  0  0  0
    7.2263  -18.0732   17.4976 O   0  0  0  0  0  0  0  0  0  0  0  0
    6.8134  -16.8251   19.5434 C   0  0  0  0  0  0  0  0  0  0  0  0
    7.6067  -16.4838   20.7627 C   0  0  0  0  0  0  0  0  0  0  0  0
    7.3767  -15.0675   21.1574 C   0  0  2  0  0  0  0  0  0  0  0  0
    7.8920  -14.1644   20.1460 N   0  0  0  0  0  0  0  0  0  0  0  0
    8.0699  -14.8391   22.4719 C   0  0  0  0  0  0  0  0  0  0  0  0
    9.3150  -14.7429   22.3936 O   0  0  0  0  0  0  0  0  0  0  0  0
    5.5624  -12.1088   26.5833 C   0  0  0  0  0  0  0  0  0  0  0  0
    6.5866  -12.5860   25.5739 C   0  0  1  0  0  0  0  0  0  0  0  0
    7.8019  -11.6251   25.7219 C   0  0  0  0  0  0  0  0  0  0  0  0
    7.1215  -13.9318   25.8991 C   0  0  0  0  0  0  0  0  0  0  0  0
    8.0832  -14.5567   24.9616 C   0  0  2  0  0  0  0  0  0  0  0  0
    7.4038  -14.7405   23.6800 N   0  0  0  0  0  0  0  0  0  0  0  0
    8.5519  -15.8707   25.4002 C   0  0  0  0  0  0  0  0  0  0  0  0
    7.7677  -16.8836   25.4179 O   0  0  0  0  0  0  0  0  0  0  0  0
   12.4271  -17.1125   25.2741 O   0  0  0  0  0  0  0  0  0  0  0  0
   11.3859  -18.0361   25.3143 C   0  0  0  0  0  0  0  0  0  0  0  0
   10.2669  -17.5193   26.2284 C   0  0  2  0  0  0  0  0  0  0  0  0
    9.8773  -16.1802   25.8382 N   0  0  0  0  0  0  0  0  0  0  0  0
   10.7183  -17.5003   27.6407 C   0  0  0  0  0  0  0  0  0  0  0  0
   10.6683  -16.4468   28.2924 O   0  0  0  0  0  0  0  0  0  0  0  0
   11.2056  -18.6569   28.2645 O   0  0  0  0  0  0  0  0  0  0  0  0
  2  1  1  0
  3  2  2  0
  4  2  1  0
  5  4  1  0
  6  5  1  0
  6  7  1  6
  8  9  2  0
  8  6  1  0
 11 10  1  1
 11 12  1  0
 14 13  1  1
 13 11  1  0
 14 15  1  0
 15  8  1  0
 16 14  1  0
 17 16  2  0
 18 19  1  0
 20 19  1  6
 20 21  1  0
 21 16  1  0
 22 20  1  0
 23 22  2  0
 24 22  1  0
M  END
$$$$
