NFG.pdb
     RDKit          3D

 24 24  0  0  1  0  0  0  0  0999 V2000
   25.4921  -18.8806  -14.7865 N   0  0  0  0  0  0  0  0  0  0  0  0
   24.7403  -19.9807  -14.3448 C   0  0  0  0  0  0  0  0  0  0  0  0
   23.9758  -20.5932  -15.1267 O   0  0  0  0  0  0  0  0  0  0  0  0
   24.8576  -20.4151  -12.9392 C   0  0  0  0  0  0  0  0  0  0  0  0
   26.2976  -20.6272  -12.5225 C   0  0  2  0  0  0  0  0  0  0  0  0
   26.9691  -21.6338  -13.2815 N   0  0  0  0  0  0  0  0  0  0  0  0
   26.2473  -20.9876  -11.0526 C   0  0  0  0  0  0  0  0  0  0  0  0
   26.1339  -22.1972  -10.7296 O   0  0  0  0  0  0  0  0  0  0  0  0
   26.3233  -20.0137  -10.0502 N   0  0  0  0  0  0  0  0  0  0  0  0
   26.3091  -20.3544   -8.6217 C   0  0  1  0  0  0  0  0  0  0  0  0
   27.0009  -19.2813   -7.8474 C   0  0  0  0  0  0  0  0  0  0  0  0
   27.5473  -19.6185   -6.5484 C   0  0  0  0  0  0  0  0  0  0  0  0
   28.8771  -19.2929   -6.3038 C   0  0  0  0  0  0  0  0  0  0  0  0
   29.4064  -19.6081   -5.0742 C   0  0  0  0  0  0  0  0  0  0  0  0
   28.6555  -20.2293   -4.0990 C   0  0  0  0  0  0  0  0  0  0  0  0
   27.3230  -20.5402   -4.3833 C   0  0  0  0  0  0  0  0  0  0  0  0
   26.7713  -20.2358   -5.6034 C   0  0  0  0  0  0  0  0  0  0  0  0
   24.9313  -20.5743   -8.1603 C   0  0  0  0  0  0  0  0  0  0  0  0
   23.9830  -19.7500   -8.3421 O   0  0  0  0  0  0  0  0  0  0  0  0
   24.6037  -21.7891   -7.4622 N   0  0  0  0  0  0  0  0  0  0  0  0
   23.4156  -21.8059   -6.6160 C   0  0  0  0  0  0  0  0  0  0  0  0
   22.2357  -22.0332   -7.4759 C   0  0  0  0  0  0  0  0  0  0  0  0
   22.3339  -22.2018   -8.8494 O   0  0  0  0  0  0  0  0  0  0  0  0
   21.0905  -22.0795   -6.9674 O   0  0  0  0  0  0  0  0  0  0  0  0
  2  1  1  0
  2  3  2  0
  4  5  1  0
  4  2  1  0
  5  6  1  6
  7  5  1  0
  8  7  2  0
  9  7  1  0
 10  9  1  0
 10 11  1  1
 11 12  1  0
 12 13  2  0
 13 14  1  0
 15 14  2  0
 16 15  1  0
 17 12  1  0
 17 16  2  0
 18 20  1  0
 18 10  1  0
 19 18  2  0
 21 20  1  0
 22 23  1  0
 22 21  1  0
 24 22  2  0
M  END
$$$$
