NFG.pdb
     RDKit          3D

 24 24  0  0  1  0  0  0  0  0999 V2000
   20.2095  -21.5586   -9.7315 N   0  0  0  0  0  0  0  0  0  0  0  0
   21.0212  -21.7530  -10.8602 C   0  0  0  0  0  0  0  0  0  0  0  0
   20.6016  -22.3950  -11.8516 O   0  0  0  0  0  0  0  0  0  0  0  0
   22.3856  -21.1906  -10.8712 C   0  0  0  0  0  0  0  0  0  0  0  0
   22.7117  -20.4507   -9.5911 C   0  0  2  0  0  0  0  0  0  0  0  0
   21.9063  -19.2898   -9.3819 N   0  0  0  0  0  0  0  0  0  0  0  0
   24.1795  -20.0921   -9.6906 C   0  0  0  0  0  0  0  0  0  0  0  0
   24.5135  -19.0951  -10.3795 O   0  0  0  0  0  0  0  0  0  0  0  0
   25.1680  -20.8384   -9.0388 N   0  0  0  0  0  0  0  0  0  0  0  0
   26.6002  -20.5574   -9.2030 C   0  0  1  0  0  0  0  0  0  0  0  0
   27.3472  -21.0714   -8.0166 C   0  0  0  0  0  0  0  0  0  0  0  0
   27.4650  -20.2111   -6.8566 C   0  0  0  0  0  0  0  0  0  0  0  0
   27.5286  -18.8391   -7.0751 C   0  0  0  0  0  0  0  0  0  0  0  0
   27.6404  -18.0127   -5.9813 C   0  0  0  0  0  0  0  0  0  0  0  0
   27.6894  -18.5119   -4.6972 C   0  0  0  0  0  0  0  0  0  0  0  0
   27.6227  -19.8963   -4.5191 C   0  0  0  0  0  0  0  0  0  0  0  0
   27.5109  -20.7425   -5.5949 C   0  0  0  0  0  0  0  0  0  0  0  0
   27.0941  -21.1296  -10.4632 C   0  0  0  0  0  0  0  0  0  0  0  0
   27.0734  -22.3697  -10.7346 O   0  0  0  0  0  0  0  0  0  0  0  0
   27.6348  -20.2584  -11.4727 N   0  0  0  0  0  0  0  0  0  0  0  0
   28.2039  -20.8567  -12.6751 C   0  0  0  0  0  0  0  0  0  0  0  0
   27.3197  -20.5390  -13.8155 C   0  0  0  0  0  0  0  0  0  0  0  0
   27.8063  -20.2844  -15.0896 O   0  0  0  0  0  0  0  0  0  0  0  0
   26.0777  -20.4918  -13.6501 O   0  0  0  0  0  0  0  0  0  0  0  0
  2  1  1  0
  2  3  2  0
  4  5  1  0
  4  2  1  0
  5  6  1  6
  7  5  1  0
  8  7  2  0
  9  7  1  0
 10  9  1  0
 10 11  1  1
 11 12  1  0
 12 13  2  0
 13 14  1  0
 15 14  2  0
 16 15  1  0
 17 12  1  0
 17 16  2  0
 18 20  1  0
 18 10  1  0
 19 18  2  0
 21 20  1  0
 22 23  1  0
 22 21  1  0
 24 22  2  0
M  END
$$$$
