NFG.pdb
     RDKit          3D

 24 24  0  0  1  0  0  0  0  0999 V2000
   20.4941  -22.1114  -10.3771 N   0  0  0  0  0  0  0  0  0  0  0  0
   21.1333  -21.5179  -11.4769 C   0  0  0  0  0  0  0  0  0  0  0  0
   20.6207  -21.5621  -12.6199 O   0  0  0  0  0  0  0  0  0  0  0  0
   22.4258  -20.8346  -11.2757 C   0  0  0  0  0  0  0  0  0  0  0  0
   22.8768  -20.8736   -9.8308 C   0  0  2  0  0  0  0  0  0  0  0  0
   22.0411  -20.1194   -8.9516 N   0  0  0  0  0  0  0  0  0  0  0  0
   24.2951  -20.3431   -9.8325 C   0  0  0  0  0  0  0  0  0  0  0  0
   24.4802  -19.1111  -10.0001 O   0  0  0  0  0  0  0  0  0  0  0  0
   25.3988  -21.1848   -9.6531 N   0  0  0  0  0  0  0  0  0  0  0  0
   26.7806  -20.7112   -9.8055 C   0  0  1  0  0  0  0  0  0  0  0  0
   27.6130  -21.2356   -8.6823 C   0  0  0  0  0  0  0  0  0  0  0  0
   27.7238  -20.4339   -7.4803 C   0  0  0  0  0  0  0  0  0  0  0  0
   27.0972  -19.1924   -7.4732 C   0  0  0  0  0  0  0  0  0  0  0  0
   27.1956  -18.4227   -6.3376 C   0  0  0  0  0  0  0  0  0  0  0  0
   27.8915  -18.8530   -5.2279 C   0  0  0  0  0  0  0  0  0  0  0  0
   28.5073  -20.1066   -5.2742 C   0  0  0  0  0  0  0  0  0  0  0  0
   28.4237  -20.8939   -6.3963 C   0  0  0  0  0  0  0  0  0  0  0  0
   27.3127  -21.0958  -11.1202 C   0  0  0  0  0  0  0  0  0  0  0  0
   27.4014  -22.2958  -11.5254 O   0  0  0  0  0  0  0  0  0  0  0  0
   27.7638  -20.0746  -12.0280 N   0  0  0  0  0  0  0  0  0  0  0  0
   28.3142  -20.4828  -13.3157 C   0  0  0  0  0  0  0  0  0  0  0  0
   27.3873  -20.0412  -14.3783 C   0  0  0  0  0  0  0  0  0  0  0  0
   27.7683  -19.1670  -15.3859 O   0  0  0  0  0  0  0  0  0  0  0  0
   26.2052  -20.4593  -14.3910 O   0  0  0  0  0  0  0  0  0  0  0  0
  2  1  1  0
  2  3  2  0
  4  5  1  0
  4  2  1  0
  5  6  1  1
  7  5  1  0
  8  7  2  0
  9  7  1  0
 10  9  1  0
 10 11  1  1
 11 12  1  0
 12 13  2  0
 13 14  1  0
 15 14  2  0
 16 15  1  0
 17 12  1  0
 17 16  2  0
 18 20  1  0
 18 10  1  0
 19 18  2  0
 21 20  1  0
 22 23  1  0
 22 21  1  0
 24 22  2  0
M  END
$$$$
