NFG.pdb
     RDKit          3D

 24 24  0  0  1  0  0  0  0  0999 V2000
   24.2301  -14.6970  -18.9280 N   0  0  0  0  0  0  0  0  0  0  0  0
   23.5851  -13.4811  -19.2037 C   0  0  0  0  0  0  0  0  0  0  0  0
   23.0414  -13.2787  -20.3148 O   0  0  0  0  0  0  0  0  0  0  0  0
   23.5514  -12.4325  -18.1658 C   0  0  0  0  0  0  0  0  0  0  0  0
   22.8999  -11.1578  -18.6588 C   0  0  2  0  0  0  0  0  0  0  0  0
   23.5102  -10.6226  -19.8341 N   0  0  0  0  0  0  0  0  0  0  0  0
   22.9840  -10.1839  -17.5023 C   0  0  0  0  0  0  0  0  0  0  0  0
   22.4587  -10.5005  -16.4051 O   0  0  0  0  0  0  0  0  0  0  0  0
   23.6280   -8.9471  -17.6235 N   0  0  0  0  0  0  0  0  0  0  0  0
   23.8167   -8.0447  -16.4803 C   0  0  1  0  0  0  0  0  0  0  0  0
   25.2710   -7.7499  -16.3138 C   0  0  0  0  0  0  0  0  0  0  0  0
   26.1856   -8.8666  -16.1868 C   0  0  0  0  0  0  0  0  0  0  0  0
   27.2452   -8.9376  -17.0847 C   0  0  0  0  0  0  0  0  0  0  0  0
   28.1198   -9.9933  -16.9736 C   0  0  0  0  0  0  0  0  0  0  0  0
   27.9666  -10.9632  -16.0058 C   0  0  0  0  0  0  0  0  0  0  0  0
   26.8892  -10.8565  -15.1223 C   0  0  0  0  0  0  0  0  0  0  0  0
   26.0022   -9.8120  -15.2127 C   0  0  0  0  0  0  0  0  0  0  0  0
   23.0168   -6.8241  -16.6526 C   0  0  0  0  0  0  0  0  0  0  0  0
   23.3641   -5.8467  -17.3848 O   0  0  0  0  0  0  0  0  0  0  0  0
   21.7571   -6.7003  -15.9683 N   0  0  0  0  0  0  0  0  0  0  0  0
   20.9601   -5.4990  -16.1908 C   0  0  0  0  0  0  0  0  0  0  0  0
   19.7403   -5.5904  -15.3619 C   0  0  0  0  0  0  0  0  0  0  0  0
   18.8819   -4.5167  -15.1755 O   0  0  0  0  0  0  0  0  0  0  0  0
   19.4486   -6.6700  -14.7948 O   0  0  0  0  0  0  0  0  0  0  0  0
  2  1  1  0
  2  3  2  0
  4  5  1  0
  4  2  1  0
  5  6  1  6
  7  5  1  0
  8  7  2  0
  9  7  1  0
 10  9  1  0
 10 11  1  6
 11 12  1  0
 12 13  2  0
 13 14  1  0
 15 14  2  0
 16 15  1  0
 17 12  1  0
 17 16  2  0
 18 20  1  0
 18 10  1  0
 19 18  2  0
 21 20  1  0
 22 23  1  0
 22 21  1  0
 24 22  2  0
M  END
$$$$
