NFG.pdb
     RDKit          3D

 24 24  0  0  1  0  0  0  0  0999 V2000
   24.7166  -21.0532  -18.6226 N   0  0  0  0  0  0  0  0  0  0  0  0
   25.1786  -20.3475  -17.5006 C   0  0  0  0  0  0  0  0  0  0  0  0
   25.9793  -19.3913  -17.6267 O   0  0  0  0  0  0  0  0  0  0  0  0
   24.7103  -20.7432  -16.1582 C   0  0  0  0  0  0  0  0  0  0  0  0
   25.6592  -21.7094  -15.4811 C   0  0  2  0  0  0  0  0  0  0  0  0
   25.6560  -23.0142  -16.0624 N   0  0  0  0  0  0  0  0  0  0  0  0
   25.2298  -21.7521  -14.0296 C   0  0  0  0  0  0  0  0  0  0  0  0
   24.3483  -22.5788  -13.6834 O   0  0  0  0  0  0  0  0  0  0  0  0
   25.7862  -20.8994  -13.0693 N   0  0  0  0  0  0  0  0  0  0  0  0
   25.3630  -20.9180  -11.6631 C   0  0  1  0  0  0  0  0  0  0  0  0
   26.4435  -20.3389  -10.8106 C   0  0  0  0  0  0  0  0  0  0  0  0
   26.2388  -20.3032   -9.3766 C   0  0  0  0  0  0  0  0  0  0  0  0
   26.6615  -19.1683   -8.6929 C   0  0  0  0  0  0  0  0  0  0  0  0
   26.4723  -19.1233   -7.3313 C   0  0  0  0  0  0  0  0  0  0  0  0
   25.8821  -20.1641   -6.6464 C   0  0  0  0  0  0  0  0  0  0  0  0
   25.4709  -21.2872   -7.3692 C   0  0  0  0  0  0  0  0  0  0  0  0
   25.6487  -21.3563   -8.7291 C   0  0  0  0  0  0  0  0  0  0  0  0
   24.0860  -20.2089  -11.5022 C   0  0  0  0  0  0  0  0  0  0  0  0
   23.8055  -19.1141  -12.0807 O   0  0  0  0  0  0  0  0  0  0  0  0
   23.0697  -20.7650  -10.6488 N   0  0  0  0  0  0  0  0  0  0  0  0
   21.8171  -20.0341  -10.4919 C   0  0  0  0  0  0  0  0  0  0  0  0
   20.9303  -20.3838  -11.6209 C   0  0  0  0  0  0  0  0  0  0  0  0
   21.0270  -19.7740  -12.8632 O   0  0  0  0  0  0  0  0  0  0  0  0
   20.0483  -21.2631  -11.4746 O   0  0  0  0  0  0  0  0  0  0  0  0
  2  1  1  0
  2  3  2  0
  4  5  1  0
  4  2  1  0
  5  6  1  6
  7  5  1  0
  8  7  2  0
  9  7  1  0
 10  9  1  0
 10 11  1  1
 11 12  1  0
 12 13  2  0
 13 14  1  0
 15 14  2  0
 16 15  1  0
 17 12  1  0
 17 16  2  0
 18 20  1  0
 18 10  1  0
 19 18  2  0
 21 20  1  0
 22 23  1  0
 22 21  1  0
 24 22  2  0
M  END
$$$$
