NFG.pdb
     RDKit          3D

 24 24  0  0  1  0  0  0  0  0999 V2000
   25.9242  -20.7955  -18.3433 N   0  0  0  0  0  0  0  0  0  0  0  0
   25.9642  -20.0058  -17.1834 C   0  0  0  0  0  0  0  0  0  0  0  0
   26.3491  -18.8138  -17.2295 O   0  0  0  0  0  0  0  0  0  0  0  0
   25.5459  -20.5949  -15.8966 C   0  0  0  0  0  0  0  0  0  0  0  0
   26.6999  -20.7321  -14.9260 C   0  0  2  0  0  0  0  0  0  0  0  0
   27.7491  -21.5761  -15.4025 N   0  0  0  0  0  0  0  0  0  0  0  0
   26.0948  -21.2736  -13.6479 C   0  0  0  0  0  0  0  0  0  0  0  0
   25.7538  -22.4828  -13.6047 O   0  0  0  0  0  0  0  0  0  0  0  0
   25.9068  -20.4667  -12.5199 N   0  0  0  0  0  0  0  0  0  0  0  0
   25.3213  -20.9812  -11.2751 C   0  0  1  0  0  0  0  0  0  0  0  0
   26.0064  -20.3532  -10.1063 C   0  0  0  0  0  0  0  0  0  0  0  0
   27.3744  -20.7399   -9.8262 C   0  0  0  0  0  0  0  0  0  0  0  0
   28.1412  -21.2120  -10.8861 C   0  0  0  0  0  0  0  0  0  0  0  0
   29.4413  -21.5818  -10.6319 C   0  0  0  0  0  0  0  0  0  0  0  0
   29.9864  -21.4941   -9.3687 C   0  0  0  0  0  0  0  0  0  0  0  0
   29.1838  -21.0148   -8.3300 C   0  0  0  0  0  0  0  0  0  0  0  0
   27.8828  -20.6392   -8.5581 C   0  0  0  0  0  0  0  0  0  0  0  0
   23.8696  -20.7534  -11.2585 C   0  0  0  0  0  0  0  0  0  0  0  0
   23.1148  -21.0634  -10.2858 O   0  0  0  0  0  0  0  0  0  0  0  0
   23.2359  -20.1396  -12.3951 N   0  0  0  0  0  0  0  0  0  0  0  0
   21.7976  -19.9017  -12.3449 C   0  0  0  0  0  0  0  0  0  0  0  0
   21.1187  -21.0069  -13.0526 C   0  0  0  0  0  0  0  0  0  0  0  0
   20.0702  -20.7958  -13.9361 O   0  0  0  0  0  0  0  0  0  0  0  0
   21.4869  -22.1906  -12.8635 O   0  0  0  0  0  0  0  0  0  0  0  0
  2  1  1  0
  2  3  2  0
  4  5  1  0
  4  2  1  0
  5  6  1  6
  7  5  1  0
  8  7  2  0
  9  7  1  0
 10  9  1  0
 10 11  1  1
 11 12  1  0
 12 13  2  0
 13 14  1  0
 15 14  2  0
 16 15  1  0
 17 12  1  0
 17 16  2  0
 18 20  1  0
 18 10  1  0
 19 18  2  0
 21 20  1  0
 22 23  1  0
 22 21  1  0
 24 22  2  0
M  END
$$$$
