NFG.pdb
     RDKit          3D

 24 24  0  0  1  0  0  0  0  0999 V2000
   16.0862  -12.0091  -16.2949 N   0  0  0  0  0  0  0  0  0  0  0  0
   16.9859  -12.9254  -15.7278 C   0  0  0  0  0  0  0  0  0  0  0  0
   16.6176  -14.0843  -15.4234 O   0  0  0  0  0  0  0  0  0  0  0  0
   18.3820  -12.5105  -15.4902 C   0  0  0  0  0  0  0  0  0  0  0  0
   18.6417  -11.0873  -15.9368 C   0  0  2  0  0  0  0  0  0  0  0  0
   18.5256  -10.9018  -17.3483 N   0  0  0  0  0  0  0  0  0  0  0  0
   20.0370  -10.7561  -15.4507 C   0  0  0  0  0  0  0  0  0  0  0  0
   20.2767  -10.8085  -14.2178 O   0  0  0  0  0  0  0  0  0  0  0  0
   21.0608  -10.3952  -16.3342 N   0  0  0  0  0  0  0  0  0  0  0  0
   22.4004  -10.0127  -15.8696 C   0  0  1  0  0  0  0  0  0  0  0  0
   23.4267  -10.8286  -16.5842 C   0  0  0  0  0  0  0  0  0  0  0  0
   24.8246  -10.5579  -16.3159 C   0  0  0  0  0  0  0  0  0  0  0  0
   25.5185   -9.7781  -17.2350 C   0  0  0  0  0  0  0  0  0  0  0  0
   26.8460   -9.5145  -16.9905 C   0  0  0  0  0  0  0  0  0  0  0  0
   27.4879  -10.0008  -15.8715 C   0  0  0  0  0  0  0  0  0  0  0  0
   26.7563  -10.7806  -14.9717 C   0  0  0  0  0  0  0  0  0  0  0  0
   25.4297  -11.0579  -15.1933 C   0  0  0  0  0  0  0  0  0  0  0  0
   22.6128   -8.5696  -16.0480 C   0  0  0  0  0  0  0  0  0  0  0  0
   22.3327   -7.9385  -17.1135 O   0  0  0  0  0  0  0  0  0  0  0  0
   23.1647   -7.7960  -14.9676 N   0  0  0  0  0  0  0  0  0  0  0  0
   23.4132   -6.3753  -15.1858 C   0  0  0  0  0  0  0  0  0  0  0  0
   22.1653   -5.6364  -14.9030 C   0  0  0  0  0  0  0  0  0  0  0  0
   21.4692   -5.7746  -13.7109 O   0  0  0  0  0  0  0  0  0  0  0  0
   21.6974   -4.8479  -15.7584 O   0  0  0  0  0  0  0  0  0  0  0  0
  2  1  1  0
  2  3  2  0
  4  5  1  0
  4  2  1  0
  5  6  1  6
  7  5  1  0
  8  7  2  0
  9  7  1  0
 10  9  1  0
 10 11  1  6
 11 12  1  0
 12 13  2  0
 13 14  1  0
 15 14  2  0
 16 15  1  0
 17 12  1  0
 17 16  2  0
 18 20  1  0
 18 10  1  0
 19 18  2  0
 21 20  1  0
 22 23  1  0
 22 21  1  0
 24 22  2  0
M  END
$$$$
