NFG.pdb
     RDKit          3D

 24 24  0  0  1  0  0  0  0  0999 V2000
   28.9932  -18.9314  -15.6298 N   0  0  0  0  0  0  0  0  0  0  0  0
   27.6945  -18.4744  -15.3558 C   0  0  0  0  0  0  0  0  0  0  0  0
   27.1928  -17.5309  -16.0110 O   0  0  0  0  0  0  0  0  0  0  0  0
   26.9165  -19.1191  -14.2802 C   0  0  0  0  0  0  0  0  0  0  0  0
   27.7427  -20.1121  -13.4904 C   0  0  2  0  0  0  0  0  0  0  0  0
   28.3426  -21.1258  -14.2983 N   0  0  0  0  0  0  0  0  0  0  0  0
   26.7962  -20.7092  -12.4703 C   0  0  0  0  0  0  0  0  0  0  0  0
   26.3494  -21.8679  -12.6648 O   0  0  0  0  0  0  0  0  0  0  0  0
   26.4084  -20.0077  -11.3229 N   0  0  0  0  0  0  0  0  0  0  0  0
   25.3281  -20.4747  -10.4446 C   0  0  1  0  0  0  0  0  0  0  0  0
   25.4594  -19.8259   -9.1061 C   0  0  0  0  0  0  0  0  0  0  0  0
   26.7148  -19.9684   -8.3967 C   0  0  0  0  0  0  0  0  0  0  0  0
   27.1596  -18.8836   -7.6486 C   0  0  0  0  0  0  0  0  0  0  0  0
   28.3499  -19.0075   -6.9709 C   0  0  0  0  0  0  0  0  0  0  0  0
   29.0950  -20.1665   -7.0197 C   0  0  0  0  0  0  0  0  0  0  0  0
   28.6143  -21.2342   -7.7824 C   0  0  0  0  0  0  0  0  0  0  0  0
   27.4286  -21.1353   -8.4682 C   0  0  0  0  0  0  0  0  0  0  0  0
   24.0189  -20.2197  -11.0614 C   0  0  0  0  0  0  0  0  0  0  0  0
   23.8301  -19.3953  -12.0084 O   0  0  0  0  0  0  0  0  0  0  0  0
   22.8626  -20.9348  -10.5901 N   0  0  0  0  0  0  0  0  0  0  0  0
   22.4043  -22.0930  -11.3492 C   0  0  0  0  0  0  0  0  0  0  0  0
   21.5387  -21.6160  -12.4476 C   0  0  0  0  0  0  0  0  0  0  0  0
   20.1794  -21.3922  -12.2839 O   0  0  0  0  0  0  0  0  0  0  0  0
   22.0289  -21.3979  -13.5809 O   0  0  0  0  0  0  0  0  0  0  0  0
  2  1  1  0
  2  3  2  0
  4  5  1  0
  4  2  1  0
  5  6  1  6
  7  5  1  0
  8  7  2  0
  9  7  1  0
 10  9  1  0
 10 11  1  1
 11 12  1  0
 12 13  2  0
 13 14  1  0
 15 14  2  0
 16 15  1  0
 17 12  1  0
 17 16  2  0
 18 20  1  0
 18 10  1  0
 19 18  2  0
 21 20  1  0
 22 23  1  0
 22 21  1  0
 24 22  2  0
M  END
$$$$
