NFG.pdb
     RDKit          3D

 24 24  0  0  1  0  0  0  0  0999 V2000
   30.4551  -23.2421  -16.9674 N   0  0  0  0  0  0  0  0  0  0  0  0
   29.0884  -22.9561  -17.1122 C   0  0  0  0  0  0  0  0  0  0  0  0
   28.5912  -22.7469  -18.2436 O   0  0  0  0  0  0  0  0  0  0  0  0
   28.2328  -22.9030  -15.9109 C   0  0  0  0  0  0  0  0  0  0  0  0
   27.2367  -21.7641  -15.9658 C   0  0  2  0  0  0  0  0  0  0  0  0
   27.8461  -20.4782  -16.0896 N   0  0  0  0  0  0  0  0  0  0  0  0
   26.4271  -21.8693  -14.6905 C   0  0  0  0  0  0  0  0  0  0  0  0
   25.9870  -22.9947  -14.3442 O   0  0  0  0  0  0  0  0  0  0  0  0
   26.1580  -20.7518  -13.8920 N   0  0  0  0  0  0  0  0  0  0  0  0
   25.3323  -20.8330  -12.6802 C   0  0  1  0  0  0  0  0  0  0  0  0
   26.0105  -20.1054  -11.5664 C   0  0  0  0  0  0  0  0  0  0  0  0
   27.2680  -20.6290  -11.0725 C   0  0  0  0  0  0  0  0  0  0  0  0
   27.3048  -21.0875   -9.7600 C   0  0  0  0  0  0  0  0  0  0  0  0
   28.4932  -21.5868   -9.2804 C   0  0  0  0  0  0  0  0  0  0  0  0
   29.6265  -21.6393  -10.0637 C   0  0  0  0  0  0  0  0  0  0  0  0
   29.5491  -21.1689  -11.3773 C   0  0  0  0  0  0  0  0  0  0  0  0
   28.3743  -20.6657  -11.8796 C   0  0  0  0  0  0  0  0  0  0  0  0
   23.9824  -20.3153  -12.9435 C   0  0  0  0  0  0  0  0  0  0  0  0
   23.7436  -19.1442  -13.3717 O   0  0  0  0  0  0  0  0  0  0  0  0
   22.8422  -21.1633  -12.7173 N   0  0  0  0  0  0  0  0  0  0  0  0
   21.5113  -20.6190  -12.9629 C   0  0  0  0  0  0  0  0  0  0  0  0
   20.5232  -21.6994  -12.7637 C   0  0  0  0  0  0  0  0  0  0  0  0
   20.5363  -22.8701  -13.5080 O   0  0  0  0  0  0  0  0  0  0  0  0
   19.6285  -21.5764  -11.8939 O   0  0  0  0  0  0  0  0  0  0  0  0
  2  1  1  0
  2  3  2  0
  4  5  1  0
  4  2  1  0
  5  6  1  1
  7  5  1  0
  8  7  2  0
  9  7  1  0
 10  9  1  0
 10 11  1  1
 11 12  1  0
 12 13  2  0
 13 14  1  0
 15 14  2  0
 16 15  1  0
 17 12  1  0
 17 16  2  0
 18 20  1  0
 18 10  1  0
 19 18  2  0
 21 20  1  0
 22 23  1  0
 22 21  1  0
 24 22  2  0
M  END
$$$$
