NFG.pdb
     RDKit          3D

 24 24  0  0  1  0  0  0  0  0999 V2000
   26.8426  -21.3194  -18.6118 N   0  0  0  0  0  0  0  0  0  0  0  0
   25.5874  -20.9170  -18.1289 C   0  0  0  0  0  0  0  0  0  0  0  0
   24.8401  -20.1804  -18.8145 O   0  0  0  0  0  0  0  0  0  0  0  0
   25.1497  -21.3720  -16.7950 C   0  0  0  0  0  0  0  0  0  0  0  0
   26.1761  -22.2625  -16.1270 C   0  0  2  0  0  0  0  0  0  0  0  0
   26.1981  -23.5943  -16.6427 N   0  0  0  0  0  0  0  0  0  0  0  0
   25.8297  -22.2484  -14.6530 C   0  0  0  0  0  0  0  0  0  0  0  0
   25.0641  -23.1379  -14.2027 O   0  0  0  0  0  0  0  0  0  0  0  0
   26.3374  -21.2756  -13.7841 N   0  0  0  0  0  0  0  0  0  0  0  0
   25.9357  -21.1958  -12.3738 C   0  0  1  0  0  0  0  0  0  0  0  0
   27.0371  -20.5778  -11.5770 C   0  0  0  0  0  0  0  0  0  0  0  0
   26.8232  -20.3715  -10.1588 C   0  0  0  0  0  0  0  0  0  0  0  0
   27.5581  -21.1546   -9.2751 C   0  0  0  0  0  0  0  0  0  0  0  0
   27.3633  -20.9673   -7.9266 C   0  0  0  0  0  0  0  0  0  0  0  0
   26.4694  -20.0346   -7.4455 C   0  0  0  0  0  0  0  0  0  0  0  0
   25.7499  -19.2671   -8.3654 C   0  0  0  0  0  0  0  0  0  0  0  0
   25.9263  -19.4351   -9.7169 C   0  0  0  0  0  0  0  0  0  0  0  0
   24.6711  -20.4591  -12.2414 C   0  0  0  0  0  0  0  0  0  0  0  0
   24.4418  -19.3397  -12.7948 O   0  0  0  0  0  0  0  0  0  0  0  0
   23.6072  -21.0153  -11.4482 N   0  0  0  0  0  0  0  0  0  0  0  0
   22.4050  -20.2161  -11.2391 C   0  0  0  0  0  0  0  0  0  0  0  0
   21.3641  -20.6886  -12.1753 C   0  0  0  0  0  0  0  0  0  0  0  0
   20.3297  -21.5252  -11.7818 O   0  0  0  0  0  0  0  0  0  0  0  0
   21.3957  -20.3330  -13.3774 O   0  0  0  0  0  0  0  0  0  0  0  0
  2  1  1  0
  2  3  2  0
  4  5  1  0
  4  2  1  0
  5  6  1  6
  7  5  1  0
  8  7  2  0
  9  7  1  0
 10  9  1  0
 10 11  1  1
 11 12  1  0
 12 13  2  0
 13 14  1  0
 15 14  2  0
 16 15  1  0
 17 12  1  0
 17 16  2  0
 18 20  1  0
 18 10  1  0
 19 18  2  0
 21 20  1  0
 22 23  1  0
 22 21  1  0
 24 22  2  0
M  END
$$$$
