WGL.pdb
     RDKit          3D

 27 28  0  0  1  0  0  0  0  0999 V2000
    7.5084  -17.5740   26.5737 N   0  0  0  0  0  0  0  0  0  0  0  0
    7.0964  -16.7198   25.4866 C   0  0  1  0  0  0  0  0  0  0  0  0
    8.1702  -15.6909   25.2081 C   0  0  0  0  0  0  0  0  0  0  0  0
    8.2923  -14.7801   26.3734 C   0  0  0  0  0  0  0  0  0  0  0  0
    9.2136  -14.7587   27.3781 C   0  0  0  0  0  0  0  0  0  0  0  0
    8.9207  -13.7526   28.2127 N   0  0  0  0  0  0  0  0  0  0  0  0
    7.8215  -13.1065   27.7792 C   0  0  0  0  0  0  0  0  0  0  0  0
    7.1025  -12.0372   28.2318 C   0  0  0  0  0  0  0  0  0  0  0  0
    5.9914  -11.6107   27.5347 C   0  0  0  0  0  0  0  0  0  0  0  0
    5.5737  -12.2314   26.3830 C   0  0  0  0  0  0  0  0  0  0  0  0
    6.2926  -13.3017   25.9293 C   0  0  0  0  0  0  0  0  0  0  0  0
    7.4157  -13.7441   26.6211 C   0  0  0  0  0  0  0  0  0  0  0  0
    6.8620  -17.5335   24.2644 C   0  0  0  0  0  0  0  0  0  0  0  0
    6.2244  -18.6215   24.4191 O   0  0  0  0  0  0  0  0  0  0  0  0
    7.3422  -17.0793   23.0192 N   0  0  0  0  0  0  0  0  0  0  0  0
    6.9013  -17.7179   21.8128 C   0  0  0  0  0  0  0  0  0  0  0  0
    7.5844  -17.0792   20.6588 C   0  0  0  0  0  0  0  0  0  0  0  0
    7.6388  -17.6995   19.5715 O   0  0  0  0  0  0  0  0  0  0  0  0
    7.3751  -13.4714   19.1745 C   0  0  0  0  0  0  0  0  0  0  0  0
    8.3783  -13.2401   20.3148 C   0  0  2  0  0  0  0  0  0  0  0  0
    8.5893  -11.7636   20.4013 C   0  0  0  0  0  0  0  0  0  0  0  0
    9.5866  -14.0372   19.9653 C   0  0  0  0  0  0  0  0  0  0  0  0
    9.4181  -15.5329   20.0918 C   0  0  2  0  0  0  0  0  0  0  0  0
    8.1769  -15.7855   20.7553 N   0  0  0  0  0  0  0  0  0  0  0  0
   10.5637  -16.2134   20.6843 C   0  0  0  0  0  0  0  0  0  0  0  0
   10.4590  -16.7984   21.7819 O   0  0  0  0  0  0  0  0  0  0  0  0
   11.7820  -16.2190   20.0364 O   0  0  0  0  0  0  0  0  0  0  0  0
  2  1  1  1
  3  2  1  0
  3  4  1  0
  4  5  2  0
  5  6  1  0
  7  8  2  0
  7  6  1  0
  9  8  1  0
 10  9  2  0
 11 10  1  0
 11 12  2  0
 12  4  1  0
 12  7  1  0
 13  2  1  0
 13 15  1  0
 14 13  2  0
 16 15  1  0
 17 16  1  0
 18 17  2  0
 20 21  1  6
 20 22  1  0
 20 19  1  0
 23 24  1  0
 23 22  1  1
 24 17  1  0
 25 23  1  0
 26 25  2  0
 27 25  1  0
M  END
$$$$
