WGL.pdb
     RDKit          3D

 27 28  0  0  1  0  0  0  0  0999 V2000
    9.3944  -16.0236   19.6530 N   0  0  0  0  0  0  0  0  0  0  0  0
    9.3422  -15.6680   21.0502 C   0  0  1  0  0  0  0  0  0  0  0  0
    7.9110  -15.7181   21.5386 C   0  0  0  0  0  0  0  0  0  0  0  0
    7.5328  -14.3928   22.0889 C   0  0  0  0  0  0  0  0  0  0  0  0
    7.3292  -13.2040   21.4532 C   0  0  0  0  0  0  0  0  0  0  0  0
    7.0029  -12.2768   22.3634 N   0  0  0  0  0  0  0  0  0  0  0  0
    6.9864  -12.8297   23.5912 C   0  0  0  0  0  0  0  0  0  0  0  0
    6.7257  -12.3587   24.8464 C   0  0  0  0  0  0  0  0  0  0  0  0
    6.7963  -13.2103   25.9290 C   0  0  0  0  0  0  0  0  0  0  0  0
    7.1245  -14.5367   25.7901 C   0  0  0  0  0  0  0  0  0  0  0  0
    7.3855  -15.0089   24.5343 C   0  0  0  0  0  0  0  0  0  0  0  0
    7.3186  -14.1627   23.4320 C   0  0  0  0  0  0  0  0  0  0  0  0
   10.1694  -16.6144   21.8445 C   0  0  0  0  0  0  0  0  0  0  0  0
   10.9969  -17.3285   21.1967 O   0  0  0  0  0  0  0  0  0  0  0  0
   10.0078  -16.6801   23.2434 N   0  0  0  0  0  0  0  0  0  0  0  0
   10.7853  -17.6151   24.0044 C   0  0  0  0  0  0  0  0  0  0  0  0
   10.4281  -17.4748   25.4393 C   0  0  0  0  0  0  0  0  0  0  0  0
    9.2994  -17.8627   25.8206 O   0  0  0  0  0  0  0  0  0  0  0  0
   11.0736  -13.9290   28.9961 C   0  0  0  0  0  0  0  0  0  0  0  0
   10.4307  -14.4104   27.6865 C   0  0  2  0  0  0  0  0  0  0  0  0
    9.3783  -13.4091   27.3374 C   0  0  0  0  0  0  0  0  0  0  0  0
    9.9349  -15.7884   27.9559 C   0  0  0  0  0  0  0  0  0  0  0  0
   10.9627  -16.8797   27.7707 C   0  0  2  0  0  0  0  0  0  0  0  0
   11.3313  -16.9130   26.3895 N   0  0  0  0  0  0  0  0  0  0  0  0
   10.5642  -18.1721   28.3159 C   0  0  0  0  0  0  0  0  0  0  0  0
   10.0640  -19.0470   27.5794 O   0  0  0  0  0  0  0  0  0  0  0  0
   10.7355  -18.4448   29.6577 O   0  0  0  0  0  0  0  0  0  0  0  0
  2  1  1  6
  3  2  1  0
  3  4  1  0
  4  5  2  0
  5  6  1  0
  7  8  2  0
  7  6  1  0
  9  8  1  0
 10  9  2  0
 11 10  1  0
 11 12  2  0
 12  4  1  0
 12  7  1  0
 13  2  1  0
 13 15  1  0
 14 13  2  0
 16 15  1  0
 17 16  1  0
 18 17  2  0
 20 21  1  1
 20 22  1  0
 20 19  1  0
 23 24  1  0
 23 22  1  6
 24 17  1  0
 25 23  1  0
 26 25  2  0
 27 25  1  0
M  END
$$$$
