WGL.pdb
     RDKit          3D

 27 28  0  0  1  0  0  0  0  0999 V2000
    8.3179  -17.5334   23.7869 N   0  0  0  0  0  0  0  0  0  0  0  0
    8.2745  -16.9410   22.4721 C   0  0  1  0  0  0  0  0  0  0  0  0
    7.1739  -15.9044   22.4131 C   0  0  0  0  0  0  0  0  0  0  0  0
    6.7640  -15.5438   23.7930 C   0  0  0  0  0  0  0  0  0  0  0  0
    6.2177  -16.3143   24.7762 C   0  0  0  0  0  0  0  0  0  0  0  0
    6.0127  -15.5530   25.8592 N   0  0  0  0  0  0  0  0  0  0  0  0
    6.4133  -14.2913   25.6116 C   0  0  0  0  0  0  0  0  0  0  0  0
    6.4341  -13.1364   26.3403 C   0  0  0  0  0  0  0  0  0  0  0  0
    6.9244  -11.9767   25.7774 C   0  0  0  0  0  0  0  0  0  0  0  0
    7.4005  -11.9388   24.4897 C   0  0  0  0  0  0  0  0  0  0  0  0
    7.3800  -13.0941   23.7597 C   0  0  0  0  0  0  0  0  0  0  0  0
    6.8887  -14.2722   24.3131 C   0  0  0  0  0  0  0  0  0  0  0  0
    9.5785  -16.2963   22.1644 C   0  0  0  0  0  0  0  0  0  0  0  0
    9.9438  -16.3040   20.9475 O   0  0  0  0  0  0  0  0  0  0  0  0
   10.3356  -15.7188   23.2041 N   0  0  0  0  0  0  0  0  0  0  0  0
   11.7072  -16.1003   23.3794 C   0  0  0  0  0  0  0  0  0  0  0  0
   11.9508  -16.3512   24.8230 C   0  0  0  0  0  0  0  0  0  0  0  0
   13.1117  -16.6369   25.1979 O   0  0  0  0  0  0  0  0  0  0  0  0
   11.4128  -13.6664   27.9742 C   0  0  0  0  0  0  0  0  0  0  0  0
   10.0691  -14.3316   27.6394 C   0  0  2  0  0  0  0  0  0  0  0  0
    9.0233  -13.5805   28.3972 C   0  0  0  0  0  0  0  0  0  0  0  0
   10.2184  -15.7660   28.0106 C   0  0  0  0  0  0  0  0  0  0  0  0
   11.1980  -16.5419   27.1622 C   0  0  2  0  0  0  0  0  0  0  0  0
   10.9038  -16.2761   25.7884 N   0  0  0  0  0  0  0  0  0  0  0  0
   11.2808  -17.9596   27.4939 C   0  0  0  0  0  0  0  0  0  0  0  0
   11.6993  -18.3288   28.6104 O   0  0  0  0  0  0  0  0  0  0  0  0
   10.8963  -18.9137   26.5742 O   0  0  0  0  0  0  0  0  0  0  0  0
  2  1  1  1
  3  2  1  0
  3  4  1  0
  4  5  2  0
  5  6  1  0
  7  8  2  0
  7  6  1  0
  9  8  1  0
 10  9  2  0
 11 10  1  0
 11 12  2  0
 12  4  1  0
 12  7  1  0
 13  2  1  0
 13 15  1  0
 14 13  2  0
 16 15  1  0
 17 16  1  0
 18 17  2  0
 20 21  1  1
 20 22  1  0
 20 19  1  0
 23 24  1  0
 23 22  1  1
 24 17  1  0
 25 23  1  0
 26 25  2  0
 27 25  1  0
M  END
$$$$
