WGL.pdb
     RDKit          3D

 27 28  0  0  1  0  0  0  0  0999 V2000
    9.2599  -15.6210   20.7872 N   0  0  0  0  0  0  0  0  0  0  0  0
    9.3636  -15.6729   22.2253 C   0  0  1  0  0  0  0  0  0  0  0  0
    8.0215  -16.0347   22.8230 C   0  0  0  0  0  0  0  0  0  0  0  0
    7.1621  -14.8257   22.8694 C   0  0  0  0  0  0  0  0  0  0  0  0
    6.3902  -14.2596   21.8986 C   0  0  0  0  0  0  0  0  0  0  0  0
    5.7907  -13.1723   22.4014 N   0  0  0  0  0  0  0  0  0  0  0  0
    6.1513  -13.0074   23.6884 C   0  0  0  0  0  0  0  0  0  0  0  0
    5.8478  -12.0910   24.6545 C   0  0  0  0  0  0  0  0  0  0  0  0
    6.4014  -12.2085   25.9123 C   0  0  0  0  0  0  0  0  0  0  0  0
    7.2611  -13.2297   26.2353 C   0  0  0  0  0  0  0  0  0  0  0  0
    7.5654  -14.1473   25.2690 C   0  0  0  0  0  0  0  0  0  0  0  0
    7.0153  -14.0427   23.9955 C   0  0  0  0  0  0  0  0  0  0  0  0
   10.3728  -16.6895   22.6234 C   0  0  0  0  0  0  0  0  0  0  0  0
   10.8777  -17.3864   21.6887 O   0  0  0  0  0  0  0  0  0  0  0  0
   10.7195  -16.8358   23.9821 N   0  0  0  0  0  0  0  0  0  0  0  0
   11.7644  -17.7456   24.3538 C   0  0  0  0  0  0  0  0  0  0  0  0
   11.9034  -17.7326   25.8325 C   0  0  0  0  0  0  0  0  0  0  0  0
   12.9291  -18.2364   26.3463 O   0  0  0  0  0  0  0  0  0  0  0  0
   11.7365  -14.2625   28.0636 C   0  0  0  0  0  0  0  0  0  0  0  0
   10.3039  -14.8021   27.9340 C   0  0  2  0  0  0  0  0  0  0  0  0
    9.3986  -13.7290   28.4448 C   0  0  0  0  0  0  0  0  0  0  0  0
   10.2759  -16.0781   28.7011 C   0  0  0  0  0  0  0  0  0  0  0  0
   11.0874  -17.1995   28.0964 C   0  0  2  0  0  0  0  0  0  0  0  0
   10.9053  -17.1650   26.6786 N   0  0  0  0  0  0  0  0  0  0  0  0
   10.8432  -18.5042   28.7004 C   0  0  0  0  0  0  0  0  0  0  0  0
   10.1897  -19.3757   28.0909 O   0  0  0  0  0  0  0  0  0  0  0  0
   11.3334  -18.7924   29.9577 O   0  0  0  0  0  0  0  0  0  0  0  0
  2  1  1  6
  3  2  1  0
  3  4  1  0
  4  5  2  0
  5  6  1  0
  7  8  2  0
  7  6  1  0
  9  8  1  0
 10  9  2  0
 11 10  1  0
 11 12  2  0
 12  4  1  0
 12  7  1  0
 13  2  1  0
 13 15  1  0
 14 13  2  0
 16 15  1  0
 17 16  1  0
 18 17  2  0
 20 21  1  1
 20 22  1  0
 20 19  1  0
 23 24  1  0
 23 22  1  1
 24 17  1  0
 25 23  1  0
 26 25  2  0
 27 25  1  0
M  END
$$$$
