WGL.pdb
     RDKit          3D

 27 28  0  0  1  0  0  0  0  0999 V2000
    7.8581  -17.7857   25.8881 N   0  0  0  0  0  0  0  0  0  0  0  0
    7.0765  -17.3519   24.7558 C   0  0  1  0  0  0  0  0  0  0  0  0
    7.3602  -15.8943   24.4655 C   0  0  0  0  0  0  0  0  0  0  0  0
    6.6787  -15.0498   25.4778 C   0  0  0  0  0  0  0  0  0  0  0  0
    5.5201  -15.2643   26.1637 C   0  0  0  0  0  0  0  0  0  0  0  0
    5.2973  -14.2211   26.9740 N   0  0  0  0  0  0  0  0  0  0  0  0
    6.2876  -13.3187   26.8376 C   0  0  0  0  0  0  0  0  0  0  0  0
    6.5585  -12.1062   27.4049 C   0  0  0  0  0  0  0  0  0  0  0  0
    7.6925  -11.4126   27.0369 C   0  0  0  0  0  0  0  0  0  0  0  0
    8.5744  -11.9036   26.1055 C   0  0  0  0  0  0  0  0  0  0  0  0
    8.3040  -13.1169   25.5373 C   0  0  0  0  0  0  0  0  0  0  0  0
    7.1645  -13.8289   25.8978 C   0  0  0  0  0  0  0  0  0  0  0  0
    7.4181  -18.1697   23.5620 C   0  0  0  0  0  0  0  0  0  0  0  0
    8.2862  -19.0826   23.7272 O   0  0  0  0  0  0  0  0  0  0  0  0
    6.7840  -17.9079   22.3303 N   0  0  0  0  0  0  0  0  0  0  0  0
    7.2707  -18.5332   21.1346 C   0  0  0  0  0  0  0  0  0  0  0  0
    8.3752  -17.7084   20.5816 C   0  0  0  0  0  0  0  0  0  0  0  0
    8.9875  -18.1209   19.5692 O   0  0  0  0  0  0  0  0  0  0  0  0
    8.0700  -14.0162   19.0314 C   0  0  0  0  0  0  0  0  0  0  0  0
    8.2671  -13.8434   20.5452 C   0  0  2  0  0  0  0  0  0  0  0  0
    7.9802  -12.4091   20.8494 C   0  0  0  0  0  0  0  0  0  0  0  0
    9.6589  -14.2894   20.8305 C   0  0  0  0  0  0  0  0  0  0  0  0
    9.8973  -15.7713   20.6612 C   0  0  2  0  0  0  0  0  0  0  0  0
    8.7554  -16.4658   21.1695 N   0  0  0  0  0  0  0  0  0  0  0  0
   11.1701  -16.2353   21.2008 C   0  0  0  0  0  0  0  0  0  0  0  0
   11.2019  -17.0459   22.1495 O   0  0  0  0  0  0  0  0  0  0  0  0
   12.3594  -15.7823   20.6674 O   0  0  0  0  0  0  0  0  0  0  0  0
  2  1  1  1
  3  2  1  0
  3  4  1  0
  4  5  2  0
  5  6  1  0
  7  8  2  0
  7  6  1  0
  9  8  1  0
 10  9  2  0
 11 10  1  0
 11 12  2  0
 12  4  1  0
 12  7  1  0
 13  2  1  0
 13 15  1  0
 14 13  2  0
 16 15  1  0
 17 16  1  0
 18 17  2  0
 20 21  1  6
 20 22  1  0
 20 19  1  0
 23 24  1  0
 23 22  1  1
 24 17  1  0
 25 23  1  0
 26 25  2  0
 27 25  1  0
M  END
$$$$
