WGL.pdb
     RDKit          3D

 27 28  0  0  1  0  0  0  0  0999 V2000
    7.7801  -17.0838   23.9857 N   0  0  0  0  0  0  0  0  0  0  0  0
    8.5281  -15.9869   23.4212 C   0  0  1  0  0  0  0  0  0  0  0  0
    8.7417  -14.9184   24.4710 C   0  0  0  0  0  0  0  0  0  0  0  0
    7.4254  -14.4562   24.9769 C   0  0  0  0  0  0  0  0  0  0  0  0
    6.3264  -15.1730   25.3473 C   0  0  0  0  0  0  0  0  0  0  0  0
    5.3673  -14.3236   25.7386 N   0  0  0  0  0  0  0  0  0  0  0  0
    5.8107  -13.0563   25.6341 C   0  0  0  0  0  0  0  0  0  0  0  0
    5.2660  -11.8305   25.8910 C   0  0  0  0  0  0  0  0  0  0  0  0
    6.0077  -10.6886   25.6718 C   0  0  0  0  0  0  0  0  0  0  0  0
    7.2954  -10.7386   25.1967 C   0  0  0  0  0  0  0  0  0  0  0  0
    7.8413  -11.9648   24.9393 C   0  0  0  0  0  0  0  0  0  0  0  0
    7.1062  -13.1261   25.1553 C   0  0  0  0  0  0  0  0  0  0  0  0
    9.8462  -16.4715   22.9330 C   0  0  0  0  0  0  0  0  0  0  0  0
   10.5303  -15.6566   22.2384 O   0  0  0  0  0  0  0  0  0  0  0  0
   10.2726  -17.7771   23.2508 N   0  0  0  0  0  0  0  0  0  0  0  0
   11.6748  -18.0579   23.3642 C   0  0  0  0  0  0  0  0  0  0  0  0
   12.1226  -17.7010   24.7347 C   0  0  0  0  0  0  0  0  0  0  0  0
   13.3502  -17.6943   24.9854 O   0  0  0  0  0  0  0  0  0  0  0  0
   10.0944  -14.3027   28.8354 C   0  0  0  0  0  0  0  0  0  0  0  0
   11.1270  -15.0137   27.9474 C   0  0  2  0  0  0  0  0  0  0  0  0
   11.1110  -14.3087   26.6303 C   0  0  0  0  0  0  0  0  0  0  0  0
   10.7179  -16.4450   27.9091 C   0  0  0  0  0  0  0  0  0  0  0  0
   11.6417  -17.3478   27.1261 C   0  0  2  0  0  0  0  0  0  0  0  0
   11.1971  -17.3676   25.7673 N   0  0  0  0  0  0  0  0  0  0  0  0
   11.8247  -18.6688   27.7161 C   0  0  0  0  0  0  0  0  0  0  0  0
   12.6172  -18.8379   28.6655 O   0  0  0  0  0  0  0  0  0  0  0  0
   11.1215  -19.7522   27.2302 O   0  0  0  0  0  0  0  0  0  0  0  0
  2  1  1  1
  3  2  1  0
  3  4  1  0
  4  5  2  0
  5  6  1  0
  7  8  2  0
  7  6  1  0
  9  8  1  0
 10  9  2  0
 11 10  1  0
 11 12  2  0
 12  4  1  0
 12  7  1  0
 13  2  1  0
 13 15  1  0
 14 13  2  0
 16 15  1  0
 17 16  1  0
 18 17  2  0
 20 21  1  6
 20 22  1  0
 20 19  1  0
 23 24  1  0
 23 22  1  1
 24 17  1  0
 25 23  1  0
 26 25  2  0
 27 25  1  0
M  END
$$$$
