WGL.pdb
     RDKit          3D

 27 28  0  0  1  0  0  0  0  0999 V2000
    6.8936  -17.5146   24.3037 N   0  0  0  0  0  0  0  0  0  0  0  0
    7.8054  -16.3999   24.2172 C   0  0  1  0  0  0  0  0  0  0  0  0
    7.8836  -15.6968   25.5547 C   0  0  0  0  0  0  0  0  0  0  0  0
    6.6745  -14.8565   25.7396 C   0  0  0  0  0  0  0  0  0  0  0  0
    5.4683  -15.1641   26.2958 C   0  0  0  0  0  0  0  0  0  0  0  0
    4.6788  -14.0833   26.2425 N   0  0  0  0  0  0  0  0  0  0  0  0
    5.3399  -13.0644   25.6608 C   0  0  0  0  0  0  0  0  0  0  0  0
    5.0241  -11.7703   25.3593 C   0  0  0  0  0  0  0  0  0  0  0  0
    5.9557  -10.9604   24.7440 C   0  0  0  0  0  0  0  0  0  0  0  0
    7.2102  -11.4140   24.4174 C   0  0  0  0  0  0  0  0  0  0  0  0
    7.5271  -12.7089   24.7186 C   0  0  0  0  0  0  0  0  0  0  0  0
    6.5986  -13.5386   25.3393 C   0  0  0  0  0  0  0  0  0  0  0  0
    9.1582  -16.8815   23.8316 C   0  0  0  0  0  0  0  0  0  0  0  0
    9.3634  -18.1322   23.9199 O   0  0  0  0  0  0  0  0  0  0  0  0
   10.1311  -15.9588   23.3959 N   0  0  0  0  0  0  0  0  0  0  0  0
   11.4816  -16.3960   23.1893 C   0  0  0  0  0  0  0  0  0  0  0  0
   12.1101  -16.6420   24.5124 C   0  0  0  0  0  0  0  0  0  0  0  0
   13.3555  -16.7654   24.5749 O   0  0  0  0  0  0  0  0  0  0  0  0
   11.7657  -14.2731   27.9805 C   0  0  0  0  0  0  0  0  0  0  0  0
   10.5655  -15.2287   27.9001 C   0  0  2  0  0  0  0  0  0  0  0  0
    9.6028  -14.7904   28.9552 C   0  0  0  0  0  0  0  0  0  0  0  0
   11.1209  -16.5994   28.0738 C   0  0  0  0  0  0  0  0  0  0  0  0
   11.9876  -17.0815   26.9346 C   0  0  2  0  0  0  0  0  0  0  0  0
   11.3377  -16.7412   25.7072 N   0  0  0  0  0  0  0  0  0  0  0  0
   12.3804  -18.4822   27.0364 C   0  0  0  0  0  0  0  0  0  0  0  0
   13.1002  -18.8748   27.9776 O   0  0  0  0  0  0  0  0  0  0  0  0
   11.9597  -19.3941   26.0901 O   0  0  0  0  0  0  0  0  0  0  0  0
  2  1  1  1
  3  2  1  0
  3  4  1  0
  4  5  2  0
  5  6  1  0
  7  8  2  0
  7  6  1  0
  9  8  1  0
 10  9  2  0
 11 10  1  0
 11 12  2  0
 12  4  1  0
 12  7  1  0
 13  2  1  0
 13 15  1  0
 14 13  2  0
 16 15  1  0
 17 16  1  0
 18 17  2  0
 20 21  1  1
 20 22  1  0
 20 19  1  0
 23 24  1  0
 23 22  1  1
 24 17  1  0
 25 23  1  0
 26 25  2  0
 27 25  1  0
M  END
$$$$
