WGL.pdb
     RDKit          3D

 27 28  0  0  1  0  0  0  0  0999 V2000
    7.0977  -16.9480   23.9412 N   0  0  0  0  0  0  0  0  0  0  0  0
    7.9193  -16.1514   23.0627 C   0  0  1  0  0  0  0  0  0  0  0  0
    8.1946  -14.8063   23.6984 C   0  0  0  0  0  0  0  0  0  0  0  0
    7.0235  -14.3992   24.5139 C   0  0  0  0  0  0  0  0  0  0  0  0
    6.0012  -15.1479   25.0171 C   0  0  0  0  0  0  0  0  0  0  0  0
    5.1684  -14.3450   25.6925 N   0  0  0  0  0  0  0  0  0  0  0  0
    5.6202  -13.0772   25.6462 C   0  0  0  0  0  0  0  0  0  0  0  0
    5.1772  -11.8873   26.1493 C   0  0  0  0  0  0  0  0  0  0  0  0
    5.8938  -10.7322   25.9156 C   0  0  0  0  0  0  0  0  0  0  0  0
    7.0558  -10.7335   25.1835 C   0  0  0  0  0  0  0  0  0  0  0  0
    7.4998  -11.9239   24.6796 C   0  0  0  0  0  0  0  0  0  0  0  0
    6.7885  -13.0978   24.9065 C   0  0  0  0  0  0  0  0  0  0  0  0
    9.2066  -16.8488   22.8033 C   0  0  0  0  0  0  0  0  0  0  0  0
    9.4033  -17.2570   21.6163 O   0  0  0  0  0  0  0  0  0  0  0  0
   10.1308  -17.0241   23.8533 N   0  0  0  0  0  0  0  0  0  0  0  0
   11.5374  -16.9676   23.5775 C   0  0  0  0  0  0  0  0  0  0  0  0
   12.2799  -17.1334   24.8532 C   0  0  0  0  0  0  0  0  0  0  0  0
   13.5312  -17.0725   24.8350 O   0  0  0  0  0  0  0  0  0  0  0  0
   11.5134  -14.3478   26.9856 C   0  0  0  0  0  0  0  0  0  0  0  0
   10.6415  -15.4427   27.6189 C   0  0  2  0  0  0  0  0  0  0  0  0
    9.6955  -14.7493   28.5444 C   0  0  0  0  0  0  0  0  0  0  0  0
   11.5857  -16.3940   28.2679 C   0  0  0  0  0  0  0  0  0  0  0  0
   12.3497  -17.2801   27.3126 C   0  0  2  0  0  0  0  0  0  0  0  0
   11.6096  -17.3591   26.0917 N   0  0  0  0  0  0  0  0  0  0  0  0
   12.7247  -18.5740   27.8709 C   0  0  0  0  0  0  0  0  0  0  0  0
   13.3253  -18.6463   28.9627 O   0  0  0  0  0  0  0  0  0  0  0  0
   12.4193  -19.7385   27.1965 O   0  0  0  0  0  0  0  0  0  0  0  0
  2  1  1  1
  3  2  1  0
  3  4  1  0
  4  5  2  0
  5  6  1  0
  7  8  2  0
  7  6  1  0
  9  8  1  0
 10  9  2  0
 11 10  1  0
 11 12  2  0
 12  4  1  0
 12  7  1  0
 13  2  1  0
 13 15  1  0
 14 13  2  0
 16 15  1  0
 17 16  1  0
 18 17  2  0
 20 21  1  1
 20 22  1  0
 20 19  1  0
 23 24  1  0
 23 22  1  1
 24 17  1  0
 25 23  1  0
 26 25  2  0
 27 25  1  0
M  END
$$$$
