WGL.pdb
     RDKit          3D

 27 28  0  0  1  0  0  0  0  0999 V2000
    8.0629  -18.4977   21.0497 N   0  0  0  0  0  0  0  0  0  0  0  0
    7.5329  -17.3577   21.7574 C   0  0  1  0  0  0  0  0  0  0  0  0
    6.3666  -16.7749   20.9897 C   0  0  0  0  0  0  0  0  0  0  0  0
    6.8545  -15.6884   20.1045 C   0  0  0  0  0  0  0  0  0  0  0  0
    7.0360  -15.6717   18.7533 C   0  0  0  0  0  0  0  0  0  0  0  0
    7.4977  -14.4668   18.3934 N   0  0  0  0  0  0  0  0  0  0  0  0
    7.6255  -13.6842   19.4819 C   0  0  0  0  0  0  0  0  0  0  0  0
    8.0402  -12.3997   19.6902 C   0  0  0  0  0  0  0  0  0  0  0  0
    8.0526  -11.8795   20.9676 C   0  0  0  0  0  0  0  0  0  0  0  0
    7.6570  -12.6172   22.0564 C   0  0  0  0  0  0  0  0  0  0  0  0
    7.2418  -13.9027   21.8489 C   0  0  0  0  0  0  0  0  0  0  0  0
    7.2235  -14.4421   20.5665 C   0  0  0  0  0  0  0  0  0  0  0  0
    7.0775  -17.7696   23.1115 C   0  0  0  0  0  0  0  0  0  0  0  0
    6.0185  -18.4693   23.1672 O   0  0  0  0  0  0  0  0  0  0  0  0
    7.8170  -17.3794   24.2466 N   0  0  0  0  0  0  0  0  0  0  0  0
    7.3621  -17.7561   25.5539 C   0  0  0  0  0  0  0  0  0  0  0  0
    8.2913  -17.1876   26.5636 C   0  0  0  0  0  0  0  0  0  0  0  0
    9.3164  -17.8380   26.8735 O   0  0  0  0  0  0  0  0  0  0  0  0
    8.3337  -12.7759   25.3144 C   0  0  0  0  0  0  0  0  0  0  0  0
    7.5534  -13.2555   26.5479 C   0  0  2  0  0  0  0  0  0  0  0  0
    6.6526  -12.1313   26.9436 C   0  0  0  0  0  0  0  0  0  0  0  0
    8.5787  -13.6366   27.5583 C   0  0  0  0  0  0  0  0  0  0  0  0
    9.1410  -15.0292   27.3970 C   0  0  2  0  0  0  0  0  0  0  0  0
    8.0488  -15.9277   27.1864 N   0  0  0  0  0  0  0  0  0  0  0  0
   10.0507  -15.4314   28.4634 C   0  0  0  0  0  0  0  0  0  0  0  0
   11.0157  -14.7075   28.7839 O   0  0  0  0  0  0  0  0  0  0  0  0
    9.8554  -16.6217   29.1336 O   0  0  0  0  0  0  0  0  0  0  0  0
  2  1  1  6
  3  2  1  0
  3  4  1  0
  4  5  2  0
  5  6  1  0
  7  8  2  0
  7  6  1  0
  9  8  1  0
 10  9  2  0
 11 10  1  0
 11 12  2  0
 12  4  1  0
 12  7  1  0
 13  2  1  0
 13 15  1  0
 14 13  2  0
 16 15  1  0
 17 16  1  0
 18 17  2  0
 20 21  1  1
 20 22  1  0
 20 19  1  0
 23 24  1  0
 23 22  1  1
 24 17  1  0
 25 23  1  0
 26 25  2  0
 27 25  1  0
M  END
$$$$
