WGL.pdb
     RDKit          3D

 27 28  0  0  1  0  0  0  0  0999 V2000
    7.1124  -17.2095   22.7736 N   0  0  0  0  0  0  0  0  0  0  0  0
    8.1133  -16.4503   22.0643 C   0  0  1  0  0  0  0  0  0  0  0  0
    8.0066  -14.9877   22.4369 C   0  0  0  0  0  0  0  0  0  0  0  0
    7.3332  -14.8638   23.7535 C   0  0  0  0  0  0  0  0  0  0  0  0
    6.9035  -15.8300   24.6141 C   0  0  0  0  0  0  0  0  0  0  0  0
    6.3503  -15.2424   25.6833 N   0  0  0  0  0  0  0  0  0  0  0  0
    6.4054  -13.9038   25.5470 C   0  0  0  0  0  0  0  0  0  0  0  0
    6.0017  -12.8489   26.3148 C   0  0  0  0  0  0  0  0  0  0  0  0
    6.2125  -11.5584   25.8762 C   0  0  0  0  0  0  0  0  0  0  0  0
    6.8235  -11.2895   24.6760 C   0  0  0  0  0  0  0  0  0  0  0  0
    7.2279  -12.3445   23.9069 C   0  0  0  0  0  0  0  0  0  0  0  0
    7.0225  -13.6522   24.3352 C   0  0  0  0  0  0  0  0  0  0  0  0
    9.4692  -16.9517   22.4117 C   0  0  0  0  0  0  0  0  0  0  0  0
    9.9733  -17.8172   21.6299 O   0  0  0  0  0  0  0  0  0  0  0  0
   10.1229  -16.4615   23.5606 N   0  0  0  0  0  0  0  0  0  0  0  0
   11.5129  -16.7516   23.7643 C   0  0  0  0  0  0  0  0  0  0  0  0
   11.8309  -16.5716   25.2039 C   0  0  0  0  0  0  0  0  0  0  0  0
   13.0327  -16.5093   25.5529 O   0  0  0  0  0  0  0  0  0  0  0  0
   10.3080  -13.8883   27.7277 C   0  0  0  0  0  0  0  0  0  0  0  0
    9.3123  -15.0547   27.8187 C   0  0  2  0  0  0  0  0  0  0  0  0
    8.1445  -14.5551   28.6054 C   0  0  0  0  0  0  0  0  0  0  0  0
   10.0603  -16.1846   28.4361 C   0  0  0  0  0  0  0  0  0  0  0  0
   11.1128  -16.8078   27.5499 C   0  0  2  0  0  0  0  0  0  0  0  0
   10.8099  -16.4684   26.1943 N   0  0  0  0  0  0  0  0  0  0  0  0
   11.3169  -18.2333   27.7796 C   0  0  0  0  0  0  0  0  0  0  0  0
   11.0988  -19.0621   26.8720 O   0  0  0  0  0  0  0  0  0  0  0  0
   11.7549  -18.6853   29.0076 O   0  0  0  0  0  0  0  0  0  0  0  0
  2  1  1  1
  3  2  1  0
  3  4  1  0
  4  5  2  0
  5  6  1  0
  7  8  2  0
  7  6  1  0
  9  8  1  0
 10  9  2  0
 11 10  1  0
 11 12  2  0
 12  4  1  0
 12  7  1  0
 13  2  1  0
 13 15  1  0
 14 13  2  0
 16 15  1  0
 17 16  1  0
 18 17  2  0
 20 21  1  1
 20 22  1  0
 20 19  1  0
 23 24  1  0
 23 22  1  1
 24 17  1  0
 25 23  1  0
 26 25  2  0
 27 25  1  0
M  END
$$$$
