WGL.pdb
     RDKit          3D

 27 28  0  0  1  0  0  0  0  0999 V2000
    8.5515  -16.6997   24.5202 N   0  0  0  0  0  0  0  0  0  0  0  0
    8.4217  -16.5027   23.0969 C   0  0  1  0  0  0  0  0  0  0  0  0
    7.5785  -15.2764   22.8241 C   0  0  0  0  0  0  0  0  0  0  0  0
    6.8401  -14.9035   24.0562 C   0  0  0  0  0  0  0  0  0  0  0  0
    6.1368  -15.6814   24.9274 C   0  0  0  0  0  0  0  0  0  0  0  0
    5.6383  -14.9032   25.8971 N   0  0  0  0  0  0  0  0  0  0  0  0
    5.9986  -13.6232   25.6845 C   0  0  0  0  0  0  0  0  0  0  0  0
    5.7738  -12.4469   26.3411 C   0  0  0  0  0  0  0  0  0  0  0  0
    6.3004  -11.2718   25.8469 C   0  0  0  0  0  0  0  0  0  0  0  0
    7.0549  -11.2394   24.6998 C   0  0  0  0  0  0  0  0  0  0  0  0
    7.2803  -12.4161   24.0420 C   0  0  0  0  0  0  0  0  0  0  0  0
    6.7562  -13.6099   24.5276 C   0  0  0  0  0  0  0  0  0  0  0  0
    9.7656  -16.3250   22.4861 C   0  0  0  0  0  0  0  0  0  0  0  0
    9.9443  -16.8482   21.3421 O   0  0  0  0  0  0  0  0  0  0  0  0
   10.7591  -15.6042   23.1796 N   0  0  0  0  0  0  0  0  0  0  0  0
   12.0506  -16.1938   23.3847 C   0  0  0  0  0  0  0  0  0  0  0  0
   12.1923  -16.5419   24.8217 C   0  0  0  0  0  0  0  0  0  0  0  0
   13.3270  -16.8416   25.2606 O   0  0  0  0  0  0  0  0  0  0  0  0
   11.0581  -13.9290   28.0299 C   0  0  0  0  0  0  0  0  0  0  0  0
    9.8920  -14.7720   27.4915 C   0  0  2  0  0  0  0  0  0  0  0  0
    8.6445  -14.1911   28.0733 C   0  0  0  0  0  0  0  0  0  0  0  0
   10.1855  -16.1772   27.8873 C   0  0  0  0  0  0  0  0  0  0  0  0
   11.2842  -16.8434   27.0932 C   0  0  2  0  0  0  0  0  0  0  0  0
   11.0769  -16.5442   25.7104 N   0  0  0  0  0  0  0  0  0  0  0  0
   11.4500  -18.2634   27.3808 C   0  0  0  0  0  0  0  0  0  0  0  0
   11.0023  -19.1277   26.5995 O   0  0  0  0  0  0  0  0  0  0  0  0
   12.1061  -18.6704   28.5244 O   0  0  0  0  0  0  0  0  0  0  0  0
  2  1  1  1
  3  2  1  0
  3  4  1  0
  4  5  2  0
  5  6  1  0
  7  8  2  0
  7  6  1  0
  9  8  1  0
 10  9  2  0
 11 10  1  0
 11 12  2  0
 12  4  1  0
 12  7  1  0
 13  2  1  0
 13 15  1  0
 14 13  2  0
 16 15  1  0
 17 16  1  0
 18 17  2  0
 20 21  1  1
 20 22  1  0
 20 19  1  0
 23 24  1  0
 23 22  1  1
 24 17  1  0
 25 23  1  0
 26 25  2  0
 27 25  1  0
M  END
$$$$
