WGL.pdb
     RDKit          3D

 27 28  0  0  1  0  0  0  0  0999 V2000
    7.8185  -18.0655   25.8072 N   0  0  0  0  0  0  0  0  0  0  0  0
    7.2138  -17.1587   24.8619 C   0  0  1  0  0  0  0  0  0  0  0  0
    8.0115  -15.8745   24.8015 C   0  0  0  0  0  0  0  0  0  0  0  0
    7.8669  -15.1452   26.0858 C   0  0  0  0  0  0  0  0  0  0  0  0
    8.2308  -15.5097   27.3482 C   0  0  0  0  0  0  0  0  0  0  0  0
    7.8989  -14.5265   28.1953 N   0  0  0  0  0  0  0  0  0  0  0  0
    7.3214  -13.5165   27.5172 C   0  0  0  0  0  0  0  0  0  0  0  0
    6.8059  -12.3020   27.8701 C   0  0  0  0  0  0  0  0  0  0  0  0
    6.2710  -11.4750   26.9045 C   0  0  0  0  0  0  0  0  0  0  0  0
    6.2364  -11.8329   25.5790 C   0  0  0  0  0  0  0  0  0  0  0  0
    6.7520  -13.0482   25.2250 C   0  0  0  0  0  0  0  0  0  0  0  0
    7.2953  -13.8938   26.1869 C   0  0  0  0  0  0  0  0  0  0  0  0
    7.1787  -17.7833   23.5131 C   0  0  0  0  0  0  0  0  0  0  0  0
    7.9735  -18.7545   23.3150 O   0  0  0  0  0  0  0  0  0  0  0  0
    6.2911  -17.2880   22.5361 N   0  0  0  0  0  0  0  0  0  0  0  0
    6.2502  -17.8996   21.2392 C   0  0  0  0  0  0  0  0  0  0  0  0
    7.3065  -17.2897   20.3916 C   0  0  0  0  0  0  0  0  0  0  0  0
    7.4023  -17.6496   19.1953 O   0  0  0  0  0  0  0  0  0  0  0  0
    7.4261  -13.8757   18.7917 C   0  0  0  0  0  0  0  0  0  0  0  0
    8.0106  -13.6428   20.1932 C   0  0  2  0  0  0  0  0  0  0  0  0
    8.0571  -12.1629   20.3929 C   0  0  0  0  0  0  0  0  0  0  0  0
    9.3319  -14.3294   20.2053 C   0  0  0  0  0  0  0  0  0  0  0  0
    9.2671  -15.8320   20.0656 C   0  0  2  0  0  0  0  0  0  0  0  0
    8.2099  -16.3106   20.9009 N   0  0  0  0  0  0  0  0  0  0  0  0
   10.5444  -16.5049   20.2707 C   0  0  0  0  0  0  0  0  0  0  0  0
   10.6971  -17.3069   21.2149 O   0  0  0  0  0  0  0  0  0  0  0  0
   11.6039  -16.2624   19.4206 O   0  0  0  0  0  0  0  0  0  0  0  0
  2  1  1  1
  3  2  1  0
  3  4  1  0
  4  5  2  0
  5  6  1  0
  7  8  2  0
  7  6  1  0
  9  8  1  0
 10  9  2  0
 11 10  1  0
 11 12  2  0
 12  4  1  0
 12  7  1  0
 13  2  1  0
 13 15  1  0
 14 13  2  0
 16 15  1  0
 17 16  1  0
 18 17  2  0
 20 21  1  6
 20 22  1  0
 20 19  1  0
 23 24  1  0
 23 22  1  1
 24 17  1  0
 25 23  1  0
 26 25  2  0
 27 25  1  0
M  END
$$$$
