VME.pdb
     RDKit          3D

 25 24  0  0  1  0  0  0  0  0999 V2000
    7.4827  -12.3418   20.2802 C   0  0  0  0  0  0  0  0  0  0  0  0
    8.3294  -13.2229   19.4070 C   0  0  2  0  0  0  0  0  0  0  0  0
    7.7527  -13.2752   18.0238 C   0  0  0  0  0  0  0  0  0  0  0  0
    8.4303  -14.5923   20.0502 C   0  0  2  0  0  0  0  0  0  0  0  0
    7.1949  -15.2968   19.8753 N   0  0  0  0  0  0  0  0  0  0  0  0
    8.8002  -14.3957   21.4763 C   0  0  0  0  0  0  0  0  0  0  0  0
    9.9561  -13.9839   21.7236 O   0  0  0  0  0  0  0  0  0  0  0  0
    7.0537  -11.1128   27.6938 C   0  0  0  0  0  0  0  0  0  0  0  0
    6.3217  -12.6047   26.9636 S   0  0  0  0  0  0  0  0  0  0  0  0
    7.5783  -13.6545   26.1817 C   0  0  0  0  0  0  0  0  0  0  0  0
    7.2059  -13.8205   24.7306 C   0  0  0  0  0  0  0  0  0  0  0  0
    8.2673  -14.5459   23.9419 C   0  0  2  0  0  0  0  0  0  0  0  0
    7.9218  -14.6475   22.5624 N   0  0  0  0  0  0  0  0  0  0  0  0
    8.5604  -15.8582   24.5711 C   0  0  0  0  0  0  0  0  0  0  0  0
    7.7227  -16.7873   24.6753 O   0  0  0  0  0  0  0  0  0  0  0  0
    9.8577  -16.1108   25.0971 N   0  0  0  0  0  0  0  0  0  0  0  0
   10.3732  -17.4082   25.3934 C   0  0  1  0  0  0  0  0  0  0  0  0
   11.5750  -17.7724   24.5529 C   0  0  0  0  0  0  0  0  0  0  0  0
   12.7433  -16.8770   24.7790 C   0  0  0  0  0  0  0  0  0  0  0  0
   13.6294  -16.9371   23.5922 C   0  0  0  0  0  0  0  0  0  0  0  0
   13.4098  -17.7702   22.6795 O   0  0  0  0  0  0  0  0  0  0  0  0
   10.6716  -17.4795   26.8425 C   0  0  0  0  0  0  0  0  0  0  0  0
   11.1277  -18.5086   27.4049 O   0  0  0  0  0  0  0  0  0  0  0  0
   14.7268  -16.0848   23.4410 O   0  0  0  0  0  0  0  0  0  0  0  0
   10.4492  -16.3763   27.6495 O   0  0  0  0  0  0  0  0  0  0  0  0
  2  4  1  0
  2  1  1  1
  3  2  1  0
  4  5  1  1
  6  4  1  0
  6  7  2  0
  9  8  1  0
 10  9  1  0
 11 10  1  0
 12 11  1  1
 12 13  1  0
 13  6  1  0
 14 12  1  0
 14 16  1  0
 15 14  2  0
 17 16  1  0
 17 22  1  0
 17 18  1  6
 19 18  1  0
 20 19  1  0
 20 21  2  0
 22 23  2  0
 22 25  1  0
 24 20  1  0
M  END
$$$$
