VME.pdb
     RDKit          3D

 25 24  0  0  1  0  0  0  0  0999 V2000
    7.2322  -13.2808   18.5361 C   0  0  0  0  0  0  0  0  0  0  0  0
    7.6693  -13.1412   19.9661 C   0  0  2  0  0  0  0  0  0  0  0  0
    8.6210  -11.9899   20.0983 C   0  0  0  0  0  0  0  0  0  0  0  0
    8.2749  -14.4550   20.4201 C   0  0  2  0  0  0  0  0  0  0  0  0
    7.3013  -15.4994   20.2990 N   0  0  0  0  0  0  0  0  0  0  0  0
    8.7700  -14.2686   21.8090 C   0  0  0  0  0  0  0  0  0  0  0  0
    9.9137  -13.7813   21.9559 O   0  0  0  0  0  0  0  0  0  0  0  0
    6.4238  -11.2171   26.6256 C   0  0  0  0  0  0  0  0  0  0  0  0
    6.9144  -12.6856   27.5730 S   0  0  0  0  0  0  0  0  0  0  0  0
    8.0542  -13.7398   26.6337 C   0  0  0  0  0  0  0  0  0  0  0  0
    7.5708  -13.7889   25.2069 C   0  0  0  0  0  0  0  0  0  0  0  0
    8.5082  -14.5538   24.3062 C   0  0  2  0  0  0  0  0  0  0  0  0
    8.0232  -14.6100   22.9667 N   0  0  0  0  0  0  0  0  0  0  0  0
    8.7902  -15.8917   24.8844 C   0  0  0  0  0  0  0  0  0  0  0  0
    7.9140  -16.7698   25.0773 O   0  0  0  0  0  0  0  0  0  0  0  0
   10.1216  -16.2313   25.2526 N   0  0  0  0  0  0  0  0  0  0  0  0
   10.5604  -17.5493   25.5794 C   0  0  1  0  0  0  0  0  0  0  0  0
   11.9157  -17.8816   24.9994 C   0  0  0  0  0  0  0  0  0  0  0  0
   12.4219  -19.2183   25.4173 C   0  0  0  0  0  0  0  0  0  0  0  0
   13.7485  -19.4437   24.7955 C   0  0  0  0  0  0  0  0  0  0  0  0
   13.8343  -19.7646   23.5852 O   0  0  0  0  0  0  0  0  0  0  0  0
   10.5379  -17.7042   27.0524 C   0  0  0  0  0  0  0  0  0  0  0  0
   10.3779  -16.7415   27.8467 O   0  0  0  0  0  0  0  0  0  0  0  0
   14.9386  -19.3110   25.5164 O   0  0  0  0  0  0  0  0  0  0  0  0
   10.6983  -18.9578   27.6184 O   0  0  0  0  0  0  0  0  0  0  0  0
  2  4  1  0
  2  1  1  6
  3  2  1  0
  4  5  1  1
  6  4  1  0
  6  7  2  0
  9  8  1  0
 10  9  1  0
 11 10  1  0
 12 11  1  1
 12 13  1  0
 13  6  1  0
 14 12  1  0
 14 16  1  0
 15 14  2  0
 17 16  1  0
 17 22  1  0
 17 18  1  1
 19 18  1  0
 20 19  1  0
 20 21  2  0
 22 23  2  0
 22 25  1  0
 24 20  1  0
M  END
$$$$
