VME.pdb
     RDKit          3D

 25 24  0  0  1  0  0  0  0  0999 V2000
    7.2619  -13.7539   18.0149 C   0  0  0  0  0  0  0  0  0  0  0  0
    7.4651  -13.5235   19.4850 C   0  0  2  0  0  0  0  0  0  0  0  0
    8.3509  -12.3322   19.6967 C   0  0  0  0  0  0  0  0  0  0  0  0
    8.0294  -14.7883   20.1021 C   0  0  2  0  0  0  0  0  0  0  0  0
    7.0567  -15.8374   20.0204 N   0  0  0  0  0  0  0  0  0  0  0  0
    8.4364  -14.4688   21.4954 C   0  0  0  0  0  0  0  0  0  0  0  0
    9.5513  -13.9249   21.6631 O   0  0  0  0  0  0  0  0  0  0  0  0
    6.5269  -12.0173   28.6495 C   0  0  0  0  0  0  0  0  0  0  0  0
    6.0863  -12.4905   26.9534 S   0  0  0  0  0  0  0  0  0  0  0  0
    7.3692  -13.5224   26.1904 C   0  0  0  0  0  0  0  0  0  0  0  0
    6.9667  -13.7807   24.7611 C   0  0  0  0  0  0  0  0  0  0  0  0
    8.0274  -14.5244   23.9885 C   0  0  2  0  0  0  0  0  0  0  0  0
    7.6367  -14.7447   22.6352 N   0  0  0  0  0  0  0  0  0  0  0  0
    8.3959  -15.7724   24.7030 C   0  0  0  0  0  0  0  0  0  0  0  0
    7.6294  -16.7585   24.8303 O   0  0  0  0  0  0  0  0  0  0  0  0
    9.6862  -15.8910   25.2898 N   0  0  0  0  0  0  0  0  0  0  0  0
   10.2680  -17.1190   25.7259 C   0  0  1  0  0  0  0  0  0  0  0  0
   11.3877  -17.5937   24.8289 C   0  0  0  0  0  0  0  0  0  0  0  0
   12.4772  -16.5912   24.6686 C   0  0  0  0  0  0  0  0  0  0  0  0
   13.5330  -17.1662   23.8014 C   0  0  0  0  0  0  0  0  0  0  0  0
   14.7357  -17.1283   24.1581 O   0  0  0  0  0  0  0  0  0  0  0  0
   10.7156  -16.9590   27.1288 C   0  0  0  0  0  0  0  0  0  0  0  0
   10.6241  -15.8771   27.7649 O   0  0  0  0  0  0  0  0  0  0  0  0
   13.2403  -17.7641   22.5724 O   0  0  0  0  0  0  0  0  0  0  0  0
   11.2675  -18.0338   27.8055 O   0  0  0  0  0  0  0  0  0  0  0  0
  2  4  1  0
  2  1  1  6
  3  2  1  0
  4  5  1  1
  6  4  1  0
  6  7  2  0
  9  8  1  0
 10  9  1  0
 11 10  1  0
 12 11  1  1
 12 13  1  0
 13  6  1  0
 14 12  1  0
 14 16  1  0
 15 14  2  0
 17 16  1  0
 17 22  1  0
 17 18  1  6
 19 18  1  0
 20 19  1  0
 20 21  2  0
 22 23  2  0
 22 25  1  0
 24 20  1  0
M  END
$$$$
