VME.pdb
     RDKit          3D

 25 24  0  0  1  0  0  0  0  0999 V2000
    6.8131  -16.8996   18.5818 C   0  0  0  0  0  0  0  0  0  0  0  0
    7.4245  -16.6822   19.9362 C   0  0  2  0  0  0  0  0  0  0  0  0
    6.4957  -17.1835   21.0013 C   0  0  0  0  0  0  0  0  0  0  0  0
    7.7512  -15.2097   20.0915 C   0  0  2  0  0  0  0  0  0  0  0  0
    8.5858  -14.7862   19.0064 N   0  0  0  0  0  0  0  0  0  0  0  0
    8.3795  -15.0243   21.4256 C   0  0  0  0  0  0  0  0  0  0  0  0
    9.5436  -15.4567   21.5830 O   0  0  0  0  0  0  0  0  0  0  0  0
    5.1967  -12.2003   26.6780 C   0  0  0  0  0  0  0  0  0  0  0  0
    6.9762  -12.0021   26.9764 S   0  0  0  0  0  0  0  0  0  0  0  0
    7.9463  -13.2686   26.1120 C   0  0  0  0  0  0  0  0  0  0  0  0
    7.4188  -13.3757   24.7041 C   0  0  0  0  0  0  0  0  0  0  0  0
    8.2902  -14.2382   23.8256 C   0  0  2  0  0  0  0  0  0  0  0  0
    7.7367  -14.3897   22.5205 N   0  0  0  0  0  0  0  0  0  0  0  0
    8.5681  -15.5320   24.4985 C   0  0  0  0  0  0  0  0  0  0  0  0
    7.7343  -16.4658   24.5917 O   0  0  0  0  0  0  0  0  0  0  0  0
    9.8449  -15.7598   25.0827 N   0  0  0  0  0  0  0  0  0  0  0  0
   10.3060  -17.0257   25.5534 C   0  0  1  0  0  0  0  0  0  0  0  0
   11.5741  -17.4837   24.8710 C   0  0  0  0  0  0  0  0  0  0  0  0
   12.0572  -18.8065   25.3553 C   0  0  0  0  0  0  0  0  0  0  0  0
   13.2879  -19.1680   24.6124 C   0  0  0  0  0  0  0  0  0  0  0  0
   13.6332  -18.5103   23.6008 O   0  0  0  0  0  0  0  0  0  0  0  0
   10.4663  -16.9541   27.0243 C   0  0  0  0  0  0  0  0  0  0  0  0
   10.5327  -15.8707   27.6608 O   0  0  0  0  0  0  0  0  0  0  0  0
   14.1015  -20.2367   24.9990 O   0  0  0  0  0  0  0  0  0  0  0  0
   10.5510  -18.1190   27.7682 O   0  0  0  0  0  0  0  0  0  0  0  0
  2  4  1  0
  2  1  1  6
  3  2  1  0
  4  5  1  6
  6  4  1  0
  6  7  2  0
  9  8  1  0
 10  9  1  0
 11 10  1  0
 12 11  1  1
 12 13  1  0
 13  6  1  0
 14 12  1  0
 14 16  1  0
 15 14  2  0
 17 16  1  0
 17 22  1  0
 17 18  1  6
 19 18  1  0
 20 19  1  0
 20 21  2  0
 22 23  2  0
 22 25  1  0
 24 20  1  0
M  END
$$$$
