VME.pdb
     RDKit          3D

 25 24  0  0  1  0  0  0  0  0999 V2000
    7.2025  -12.6607   20.3577 C   0  0  0  0  0  0  0  0  0  0  0  0
    8.1733  -13.5075   19.5857 C   0  0  2  0  0  0  0  0  0  0  0  0
    7.7019  -13.6619   18.1705 C   0  0  0  0  0  0  0  0  0  0  0  0
    8.3316  -14.8371   20.2972 C   0  0  2  0  0  0  0  0  0  0  0  0
    7.1189  -15.5914   20.1801 N   0  0  0  0  0  0  0  0  0  0  0  0
    8.7161  -14.5537   21.7046 C   0  0  0  0  0  0  0  0  0  0  0  0
    9.8482  -14.0596   21.9077 O   0  0  0  0  0  0  0  0  0  0  0  0
    6.0781  -11.0755   26.9383 C   0  0  0  0  0  0  0  0  0  0  0  0
    5.8089  -12.8689   27.0157 S   0  0  0  0  0  0  0  0  0  0  0  0
    7.2423  -13.7899   26.3913 C   0  0  0  0  0  0  0  0  0  0  0  0
    6.9361  -14.2229   24.9805 C   0  0  0  0  0  0  0  0  0  0  0  0
    8.1834  -14.4851   24.1739 C   0  0  2  0  0  0  0  0  0  0  0  0
    7.8769  -14.8106   22.8201 N   0  0  0  0  0  0  0  0  0  0  0  0
    9.0191  -15.5098   24.8486 C   0  0  0  0  0  0  0  0  0  0  0  0
    9.4303  -15.4105   26.0306 O   0  0  0  0  0  0  0  0  0  0  0  0
    9.3942  -16.6863   24.1425 N   0  0  0  0  0  0  0  0  0  0  0  0
   10.3199  -17.6598   24.6244 C   0  0  1  0  0  0  0  0  0  0  0  0
   11.6763  -17.5625   23.9655 C   0  0  0  0  0  0  0  0  0  0  0  0
   12.7097  -16.9388   24.8378 C   0  0  0  0  0  0  0  0  0  0  0  0
   13.9846  -16.8568   24.0860 C   0  0  0  0  0  0  0  0  0  0  0  0
   14.7089  -15.8359   24.1771 O   0  0  0  0  0  0  0  0  0  0  0  0
   10.4123  -17.5367   26.0976 C   0  0  0  0  0  0  0  0  0  0  0  0
   10.2557  -18.5065   26.8839 O   0  0  0  0  0  0  0  0  0  0  0  0
   14.4268  -17.8931   23.2589 O   0  0  0  0  0  0  0  0  0  0  0  0
   10.6832  -16.3066   26.6731 O   0  0  0  0  0  0  0  0  0  0  0  0
  2  4  1  0
  2  1  1  1
  3  2  1  0
  4  5  1  1
  6  4  1  0
  6  7  2  0
  9  8  1  0
 10  9  1  0
 11 10  1  0
 12 11  1  1
 12 13  1  0
 13  6  1  0
 14 12  1  0
 14 16  1  0
 15 14  2  0
 17 16  1  0
 17 22  1  0
 17 18  1  6
 19 18  1  0
 20 19  1  0
 20 21  2  0
 22 23  2  0
 22 25  1  0
 24 20  1  0
M  END
$$$$
