VME.pdb
     RDKit          3D

 25 24  0  0  1  0  0  0  0  0999 V2000
    8.2265  -18.4393   20.6255 C   0  0  0  0  0  0  0  0  0  0  0  0
    7.0136  -17.6117   20.3102 C   0  0  2  0  0  0  0  0  0  0  0  0
    6.2593  -18.2267   19.1693 C   0  0  0  0  0  0  0  0  0  0  0  0
    7.4564  -16.1909   20.0196 C   0  0  2  0  0  0  0  0  0  0  0  0
    8.3149  -16.1810   18.8724 N   0  0  0  0  0  0  0  0  0  0  0  0
    8.1058  -15.6600   21.2466 C   0  0  0  0  0  0  0  0  0  0  0  0
    9.3404  -15.8279   21.3677 O   0  0  0  0  0  0  0  0  0  0  0  0
    6.9047  -11.6315   28.0556 C   0  0  0  0  0  0  0  0  0  0  0  0
    6.2551  -12.4675   26.5812 S   0  0  0  0  0  0  0  0  0  0  0  0
    7.5709  -13.2953   25.6453 C   0  0  0  0  0  0  0  0  0  0  0  0
    6.9665  -13.8349   24.3744 C   0  0  0  0  0  0  0  0  0  0  0  0
    7.9769  -14.5518   23.5140 C   0  0  2  0  0  0  0  0  0  0  0  0
    7.4082  -14.9794   22.2785 N   0  0  0  0  0  0  0  0  0  0  0  0
    8.6076  -15.6545   24.2821 C   0  0  0  0  0  0  0  0  0  0  0  0
    8.0461  -16.7517   24.5209 O   0  0  0  0  0  0  0  0  0  0  0  0
    9.9255  -15.4912   24.7919 N   0  0  0  0  0  0  0  0  0  0  0  0
   10.7635  -16.5608   25.2283 C   0  0  1  0  0  0  0  0  0  0  0  0
   12.1884  -16.4309   24.7425 C   0  0  0  0  0  0  0  0  0  0  0  0
   13.0963  -17.4718   25.2995 C   0  0  0  0  0  0  0  0  0  0  0  0
   14.4637  -17.2453   24.7740 C   0  0  0  0  0  0  0  0  0  0  0  0
   15.4143  -17.9749   25.1470 O   0  0  0  0  0  0  0  0  0  0  0  0
   10.6901  -16.6473   26.7053 C   0  0  0  0  0  0  0  0  0  0  0  0
   10.2043  -15.7390   27.4280 O   0  0  0  0  0  0  0  0  0  0  0  0
   14.7481  -16.2288   23.8578 O   0  0  0  0  0  0  0  0  0  0  0  0
   11.1714  -17.7703   27.3570 O   0  0  0  0  0  0  0  0  0  0  0  0
  2  4  1  0
  2  1  1  6
  3  2  1  0
  4  5  1  6
  6  4  1  0
  6  7  2  0
  9  8  1  0
 10  9  1  0
 11 10  1  0
 12 11  1  1
 12 13  1  0
 13  6  1  0
 14 12  1  0
 14 16  1  0
 15 14  2  0
 17 16  1  0
 17 22  1  0
 17 18  1  1
 19 18  1  0
 20 19  1  0
 20 21  2  0
 22 23  2  0
 22 25  1  0
 24 20  1  0
M  END
$$$$
