VME.pdb
     RDKit          3D

 25 24  0  0  1  0  0  0  0  0999 V2000
    8.0667  -20.2644   24.1493 C   0  0  0  0  0  0  0  0  0  0  0  0
    6.6984  -20.0304   24.7225 C   0  0  2  0  0  0  0  0  0  0  0  0
    5.9661  -21.3335   24.8420 C   0  0  0  0  0  0  0  0  0  0  0  0
    5.9697  -19.0286   23.8482 C   0  0  2  0  0  0  0  0  0  0  0  0
    5.7656  -19.5882   22.5449 N   0  0  0  0  0  0  0  0  0  0  0  0
    6.7693  -17.7758   23.8333 C   0  0  0  0  0  0  0  0  0  0  0  0
    7.7185  -17.7039   23.0203 O   0  0  0  0  0  0  0  0  0  0  0  0
    5.0212  -11.6339   25.7107 C   0  0  0  0  0  0  0  0  0  0  0  0
    6.5936  -11.9199   26.5712 S   0  0  0  0  0  0  0  0  0  0  0  0
    7.5746  -13.2149   25.7630 C   0  0  0  0  0  0  0  0  0  0  0  0
    6.7072  -14.4407   25.6338 C   0  0  0  0  0  0  0  0  0  0  0  0
    7.3702  -15.5351   24.8351 C   0  0  2  0  0  0  0  0  0  0  0  0
    6.5172  -16.6673   24.6831 N   0  0  0  0  0  0  0  0  0  0  0  0
    8.6890  -15.8700   25.4287 C   0  0  0  0  0  0  0  0  0  0  0  0
    8.8410  -16.3050   26.5965 O   0  0  0  0  0  0  0  0  0  0  0  0
    9.8709  -15.6997   24.6556 N   0  0  0  0  0  0  0  0  0  0  0  0
   11.1154  -16.3437   24.9259 C   0  0  1  0  0  0  0  0  0  0  0  0
   11.0069  -17.8506   24.9550 C   0  0  0  0  0  0  0  0  0  0  0  0
   12.3210  -18.5312   25.1208 C   0  0  0  0  0  0  0  0  0  0  0  0
   12.2374  -19.4593   26.2736 C   0  0  0  0  0  0  0  0  0  0  0  0
   11.1421  -19.6478   26.8567 O   0  0  0  0  0  0  0  0  0  0  0  0
   12.1130  -15.8817   23.9331 C   0  0  0  0  0  0  0  0  0  0  0  0
   13.2862  -15.5436   24.2372 O   0  0  0  0  0  0  0  0  0  0  0  0
   13.3534  -20.1515   26.7520 O   0  0  0  0  0  0  0  0  0  0  0  0
   11.7711  -15.8055   22.5933 O   0  0  0  0  0  0  0  0  0  0  0  0
  2  4  1  0
  2  1  1  6
  3  2  1  0
  4  5  1  6
  6  4  1  0
  6  7  2  0
  9  8  1  0
 10  9  1  0
 11 10  1  0
 12 11  1  1
 12 13  1  0
 13  6  1  0
 14 12  1  0
 14 16  1  0
 15 14  2  0
 17 16  1  0
 17 22  1  0
 17 18  1  6
 19 18  1  0
 20 19  1  0
 20 21  2  0
 22 23  2  0
 22 25  1  0
 24 20  1  0
M  END
$$$$
