VME.pdb
     RDKit          3D

 25 24  0  0  1  0  0  0  0  0999 V2000
    8.8454  -17.9182   20.4343 C   0  0  0  0  0  0  0  0  0  0  0  0
    7.5052  -17.2832   20.1970 C   0  0  2  0  0  0  0  0  0  0  0  0
    6.8940  -17.8358   18.9441 C   0  0  0  0  0  0  0  0  0  0  0  0
    7.6823  -15.7782   20.1462 C   0  0  2  0  0  0  0  0  0  0  0  0
    8.5301  -15.4316   19.0442 N   0  0  0  0  0  0  0  0  0  0  0  0
    8.2177  -15.3414   21.4622 C   0  0  0  0  0  0  0  0  0  0  0  0
    9.4614  -15.2773   21.5893 O   0  0  0  0  0  0  0  0  0  0  0  0
    6.5291  -10.9965   27.1033 C   0  0  0  0  0  0  0  0  0  0  0  0
    5.9705  -12.7081   26.8722 S   0  0  0  0  0  0  0  0  0  0  0  0
    7.2610  -13.7390   26.1208 C   0  0  0  0  0  0  0  0  0  0  0  0
    6.7632  -14.1960   24.7736 C   0  0  0  0  0  0  0  0  0  0  0  0
    7.8811  -14.6540   23.8704 C   0  0  2  0  0  0  0  0  0  0  0  0
    7.4027  -14.9966   22.5718 N   0  0  0  0  0  0  0  0  0  0  0  0
    8.6448  -15.7480   24.5215 C   0  0  0  0  0  0  0  0  0  0  0  0
    8.1640  -16.8776   24.7837 O   0  0  0  0  0  0  0  0  0  0  0  0
   10.0044  -15.5370   24.8826 N   0  0  0  0  0  0  0  0  0  0  0  0
   10.8472  -16.5236   25.4768 C   0  0  1  0  0  0  0  0  0  0  0  0
   12.3093  -16.3258   25.1505 C   0  0  0  0  0  0  0  0  0  0  0  0
   12.6383  -16.6167   23.7275 C   0  0  0  0  0  0  0  0  0  0  0  0
   14.0828  -16.3653   23.5091 C   0  0  0  0  0  0  0  0  0  0  0  0
   14.8123  -15.9957   24.4611 O   0  0  0  0  0  0  0  0  0  0  0  0
   10.6049  -16.5354   26.9381 C   0  0  0  0  0  0  0  0  0  0  0  0
   10.1011  -15.5666   27.5634 O   0  0  0  0  0  0  0  0  0  0  0  0
   14.6833  -16.5260   22.2572 O   0  0  0  0  0  0  0  0  0  0  0  0
   10.9379  -17.6527   27.6853 O   0  0  0  0  0  0  0  0  0  0  0  0
  2  4  1  0
  2  1  1  6
  3  2  1  0
  4  5  1  6
  6  4  1  0
  6  7  2  0
  9  8  1  0
 10  9  1  0
 11 10  1  0
 12 11  1  1
 12 13  1  0
 13  6  1  0
 14 12  1  0
 14 16  1  0
 15 14  2  0
 17 16  1  0
 17 22  1  0
 17 18  1  1
 19 18  1  0
 20 19  1  0
 20 21  2  0
 22 23  2  0
 22 25  1  0
 24 20  1  0
M  END
$$$$
