VME.pdb
     RDKit          3D

 25 24  0  0  1  0  0  0  0  0999 V2000
    7.7772  -12.3648   20.8448 C   0  0  0  0  0  0  0  0  0  0  0  0
    8.4854  -13.2584   19.8673 C   0  0  2  0  0  0  0  0  0  0  0  0
    7.8873  -13.0958   18.5019 C   0  0  0  0  0  0  0  0  0  0  0  0
    8.4108  -14.6865   20.3716 C   0  0  2  0  0  0  0  0  0  0  0  0
    7.0922  -15.2036   20.1550 N   0  0  0  0  0  0  0  0  0  0  0  0
    8.8150  -14.6824   21.8019 C   0  0  0  0  0  0  0  0  0  0  0  0
   10.0139  -14.4359   22.0645 O   0  0  0  0  0  0  0  0  0  0  0  0
    5.8675  -10.7340   26.6287 C   0  0  0  0  0  0  0  0  0  0  0  0
    6.2407  -12.5103   26.6431 S   0  0  0  0  0  0  0  0  0  0  0  0
    6.8807  -13.0742   25.0415 C   0  0  0  0  0  0  0  0  0  0  0  0
    7.1544  -14.5526   25.1463 C   0  0  0  0  0  0  0  0  0  0  0  0
    8.2868  -14.9944   24.2533 C   0  0  2  0  0  0  0  0  0  0  0  0
    7.9235  -14.9406   22.8757 N   0  0  0  0  0  0  0  0  0  0  0  0
    8.7785  -16.3291   24.6783 C   0  0  0  0  0  0  0  0  0  0  0  0
    8.0843  -17.3745   24.6437 O   0  0  0  0  0  0  0  0  0  0  0  0
   10.1104  -16.4668   25.1584 N   0  0  0  0  0  0  0  0  0  0  0  0
   10.6961  -17.6979   25.5805 C   0  0  1  0  0  0  0  0  0  0  0  0
   12.0861  -17.9111   25.0275 C   0  0  0  0  0  0  0  0  0  0  0  0
   12.1722  -17.6978   23.5562 C   0  0  0  0  0  0  0  0  0  0  0  0
   13.5616  -17.9654   23.1141 C   0  0  0  0  0  0  0  0  0  0  0  0
   14.5035  -17.2366   23.5099 O   0  0  0  0  0  0  0  0  0  0  0  0
   10.6779  -17.7478   27.0609 C   0  0  0  0  0  0  0  0  0  0  0  0
   11.0438  -18.7529   27.7235 O   0  0  0  0  0  0  0  0  0  0  0  0
   13.8766  -19.0209   22.2537 O   0  0  0  0  0  0  0  0  0  0  0  0
   10.2417  -16.6506   27.7845 O   0  0  0  0  0  0  0  0  0  0  0  0
  2  4  1  0
  2  1  1  1
  3  2  1  0
  4  5  1  1
  6  4  1  0
  6  7  2  0
  9  8  1  0
 10  9  1  0
 11 10  1  0
 12 11  1  1
 12 13  1  0
 13  6  1  0
 14 12  1  0
 14 16  1  0
 15 14  2  0
 17 16  1  0
 17 22  1  0
 17 18  1  1
 19 18  1  0
 20 19  1  0
 20 21  2  0
 22 23  2  0
 22 25  1  0
 24 20  1  0
M  END
$$$$
