RQN.pdb
     RDKit          3D

 29 28  0  0  1  0  0  0  0  0999 V2000
   22.9824  -19.2726  -16.4054 N   0  0  0  0  0  0  0  0  0  0  0  0
   23.7159  -18.1352  -16.8261 C   0  0  0  0  0  0  0  0  0  0  0  0
   23.3764  -16.9695  -16.3489 N   0  0  0  0  0  0  0  0  0  0  0  0
   24.7666  -18.3172  -17.7277 N   0  0  0  0  0  0  0  0  0  0  0  0
   24.9927  -19.6369  -18.3463 C   0  0  0  0  0  0  0  0  0  0  0  0
   26.4325  -20.0193  -18.1578 C   0  0  0  0  0  0  0  0  0  0  0  0
   27.1396  -19.4393  -16.9868 C   0  0  0  0  0  0  0  0  0  0  0  0
   27.9105  -20.4606  -16.2357 C   0  0  2  0  0  0  0  0  0  0  0  0
   28.5839  -21.3884  -17.0871 N   0  0  0  0  0  0  0  0  0  0  0  0
   27.0439  -21.2325  -15.2938 C   0  0  0  0  0  0  0  0  0  0  0  0
   26.7304  -22.4355  -15.5230 O   0  0  0  0  0  0  0  0  0  0  0  0
   23.8810  -16.1161  -16.6165 N   0  0  0  0  0  0  0  0  0  0  0  0
   23.3985  -19.7693  -10.8923 C   0  0  0  0  0  0  0  0  0  0  0  0
   24.0806  -20.7746  -10.1616 O   0  0  0  0  0  0  0  0  0  0  0  0
   23.5236  -21.1381   -9.0613 C   0  0  0  0  0  0  0  0  0  0  0  0
   25.3453  -21.3893  -10.6129 C   0  0  0  0  0  0  0  0  0  0  0  0
   25.9954  -20.7743  -11.7969 C   0  0  2  0  0  0  0  0  0  0  0  0
   25.7167  -21.3619  -13.1500 N   0  0  0  0  0  0  0  0  0  0  0  0
   26.5689  -20.6053  -14.1287 C   0  0  0  0  0  0  0  0  0  0  0  0
   24.3231  -21.2526  -13.5420 O   0  0  0  0  0  0  0  0  0  0  0  0
   23.7689  -20.1359  -13.8462 N   0  0  0  0  0  0  0  0  0  0  0  0
   18.9067  -22.7567  -12.8845 C   0  0  0  0  0  0  0  0  0  0  0  0
   19.7344  -21.6187  -13.0776 O   0  0  0  0  0  0  0  0  0  0  0  0
   19.1951  -20.5837  -13.5625 C   0  0  0  0  0  0  0  0  0  0  0  0
   21.1951  -21.6354  -12.7221 C   0  0  1  0  0  0  0  0  0  0  0  0
   22.0049  -22.2146  -13.8141 N   0  0  0  0  0  0  0  0  0  0  0  0
   23.3951  -22.3350  -13.6439 C   0  0  0  0  0  0  0  0  0  0  0  0
   21.7379  -21.4425  -15.0584 O   0  0  0  0  0  0  0  0  0  0  0  0
   20.4497  -21.1607  -15.4888 O   0  0  0  0  0  0  0  0  0  0  0  0
  2  1  1  0
  2  3  2  0
  4  5  1  0
  4  2  1  0
  6  5  1  0
  7  6  1  0
  8 10  1  0
  8  7  1  0
  8  9  1  6
 10 11  2  0
 13 14  2  0
 13 12  1  0
 15 13  1  0
 16 15  1  0
 17 16  1  1
 17 19  1  0
 18 10  1  0
 18 17  1  0
 19 20  2  0
 22 21  1  0
 22 24  1  0
 23 22  2  0
 25 24  1  1
 25 27  1  0
 26 19  1  0
 26 25  1  0
 27 28  1  0
 29 27  2  0
M  END
$$$$
