RQN.pdb
     RDKit          3D

 29 28  0  0  1  0  0  0  0  0999 V2000
   25.6636  -21.3627  -21.0994 N   0  0  0  0  0  0  0  0  0  0  0  0
   26.7906  -20.5050  -21.1561 C   0  0  0  0  0  0  0  0  0  0  0  0
   27.0481  -19.8963  -22.2807 N   0  0  0  0  0  0  0  0  0  0  0  0
   27.5681  -20.3511  -20.0065 N   0  0  0  0  0  0  0  0  0  0  0  0
   26.9971  -20.6497  -18.6797 C   0  0  0  0  0  0  0  0  0  0  0  0
   26.2157  -19.4566  -18.2097 C   0  0  0  0  0  0  0  0  0  0  0  0
   25.4451  -19.6059  -16.9482 C   0  0  0  0  0  0  0  0  0  0  0  0
   26.1653  -20.4292  -15.9458 C   0  0  2  0  0  0  0  0  0  0  0  0
   26.9057  -21.5002  -16.5323 N   0  0  0  0  0  0  0  0  0  0  0  0
   25.2369  -21.0048  -14.9256 C   0  0  0  0  0  0  0  0  0  0  0  0
   24.6075  -22.0799  -15.1401 O   0  0  0  0  0  0  0  0  0  0  0  0
   27.8497  -19.2609  -22.3720 N   0  0  0  0  0  0  0  0  0  0  0  0
   25.7178  -21.0294   -8.8958 C   0  0  0  0  0  0  0  0  0  0  0  0
   24.3042  -20.9779   -8.9906 O   0  0  0  0  0  0  0  0  0  0  0  0
   23.6618  -21.3508   -7.9412 C   0  0  0  0  0  0  0  0  0  0  0  0
   23.5878  -20.5227  -10.1991 C   0  0  0  0  0  0  0  0  0  0  0  0
   24.4227  -20.2073  -11.3850 C   0  0  2  0  0  0  0  0  0  0  0  0
   24.0542  -20.8257  -12.7023 N   0  0  0  0  0  0  0  0  0  0  0  0
   25.0618  -20.3346  -13.7022 C   0  0  0  0  0  0  0  0  0  0  0  0
   22.7204  -20.4644  -13.1476 O   0  0  0  0  0  0  0  0  0  0  0  0
   22.4085  -19.2790  -13.5277 N   0  0  0  0  0  0  0  0  0  0  0  0
   18.8717  -19.9848  -15.7885 C   0  0  0  0  0  0  0  0  0  0  0  0
   18.8209  -21.3784  -15.5189 O   0  0  0  0  0  0  0  0  0  0  0  0
   18.2400  -22.1133  -16.3671 C   0  0  0  0  0  0  0  0  0  0  0  0
   19.4312  -21.9650  -14.2764 C   0  0  2  0  0  0  0  0  0  0  0  0
   20.2880  -20.9795  -13.5847 N   0  0  0  0  0  0  0  0  0  0  0  0
   21.5971  -21.3449  -13.2261 C   0  0  0  0  0  0  0  0  0  0  0  0
   19.5715  -20.5038  -12.3697 O   0  0  0  0  0  0  0  0  0  0  0  0
   20.1033  -20.6479  -11.0967 O   0  0  0  0  0  0  0  0  0  0  0  0
  2  1  1  0
  2  3  2  0
  4  5  1  0
  4  2  1  0
  6  5  1  0
  7  6  1  0
  8 10  1  0
  8  7  1  0
  8  9  1  6
 10 11  2  0
 13 14  2  0
 13 12  1  0
 15 13  1  0
 16 15  1  0
 17 16  1  1
 17 19  1  0
 18 10  1  0
 18 17  1  0
 19 20  2  0
 22 21  1  0
 22 24  1  0
 23 22  2  0
 25 24  1  6
 25 27  1  0
 26 19  1  0
 26 25  1  0
 27 28  1  0
 29 27  2  0
M  END
$$$$
