RQN.pdb
     RDKit          3D

 29 28  0  0  1  0  0  0  0  0999 V2000
   28.3836  -34.0930  -16.6835 N   0  0  0  0  0  0  0  0  0  0  0  0
   27.9532  -33.0428  -15.8347 C   0  0  0  0  0  0  0  0  0  0  0  0
   28.0018  -31.8211  -16.2894 N   0  0  0  0  0  0  0  0  0  0  0  0
   27.4959  -33.3662  -14.5555 N   0  0  0  0  0  0  0  0  0  0  0  0
   27.6946  -34.7255  -14.0187 C   0  0  0  0  0  0  0  0  0  0  0  0
   27.1519  -34.7772  -12.6195 C   0  0  0  0  0  0  0  0  0  0  0  0
   25.7330  -34.3805  -12.4284 C   0  0  0  0  0  0  0  0  0  0  0  0
   25.5353  -33.5852  -11.1915 C   0  0  2  0  0  0  0  0  0  0  0  0
   26.3640  -32.4235  -11.1374 N   0  0  0  0  0  0  0  0  0  0  0  0
   25.7844  -34.3962   -9.9609 C   0  0  0  0  0  0  0  0  0  0  0  0
   25.1642  -35.4768   -9.7477 O   0  0  0  0  0  0  0  0  0  0  0  0
   27.7365  -31.0222  -15.7014 N   0  0  0  0  0  0  0  0  0  0  0  0
   29.7660  -37.3360   -7.9130 C   0  0  0  0  0  0  0  0  0  0  0  0
   29.6998  -36.7184   -6.6386 O   0  0  0  0  0  0  0  0  0  0  0  0
   30.2247  -37.3817   -5.6704 C   0  0  0  0  0  0  0  0  0  0  0  0
   29.0822  -35.3968   -6.4081 C   0  0  0  0  0  0  0  0  0  0  0  0
   28.5083  -34.7174   -7.5962 C   0  0  1  0  0  0  0  0  0  0  0  0
   27.0196  -34.7505   -7.7878 N   0  0  0  0  0  0  0  0  0  0  0  0
   26.7292  -33.9457   -9.0224 C   0  0  0  0  0  0  0  0  0  0  0  0
   26.2887  -34.1895   -6.6660 O   0  0  0  0  0  0  0  0  0  0  0  0
   26.0604  -32.9330   -6.5396 N   0  0  0  0  0  0  0  0  0  0  0  0
   22.7577  -32.8864   -2.9319 C   0  0  0  0  0  0  0  0  0  0  0  0
   23.0813  -34.2688   -2.9757 O   0  0  0  0  0  0  0  0  0  0  0  0
   22.8662  -34.9491   -1.9327 C   0  0  0  0  0  0  0  0  0  0  0  0
   23.6571  -34.9061   -4.2097 C   0  0  1  0  0  0  0  0  0  0  0  0
   25.0104  -34.3874   -4.4980 N   0  0  0  0  0  0  0  0  0  0  0  0
   25.7343  -34.9280   -5.5749 C   0  0  0  0  0  0  0  0  0  0  0  0
   25.8312  -34.5011   -3.2613 O   0  0  0  0  0  0  0  0  0  0  0  0
   25.4034  -33.9932   -2.0435 O   0  0  0  0  0  0  0  0  0  0  0  0
  2  1  1  0
  2  3  2  0
  4  5  1  0
  4  2  1  0
  6  5  1  0
  7  6  1  0
  8 10  1  0
  8  7  1  0
  8  9  1  6
 10 11  2  0
 13 14  2  0
 13 12  1  0
 15 13  1  0
 16 15  1  0
 17 16  1  6
 17 19  1  0
 18 10  1  0
 18 17  1  0
 19 20  2  0
 22 21  1  0
 22 24  1  0
 23 22  2  0
 25 24  1  6
 25 27  1  0
 26 19  1  0
 26 25  1  0
 27 28  1  0
 29 27  2  0
M  END
$$$$
