RQN.pdb
     RDKit          3D

 29 28  0  0  1  0  0  0  0  0999 V2000
   29.6664  -23.4172  -15.6364 N   0  0  0  0  0  0  0  0  0  0  0  0
   28.7839  -23.8876  -16.6407 C   0  0  0  0  0  0  0  0  0  0  0  0
   28.6878  -25.1754  -16.8254 N   0  0  0  0  0  0  0  0  0  0  0  0
   28.0590  -22.9516  -17.3811 N   0  0  0  0  0  0  0  0  0  0  0  0
   28.1075  -21.5223  -17.0202 C   0  0  0  0  0  0  0  0  0  0  0  0
   26.8223  -21.1519  -16.3374 C   0  0  0  0  0  0  0  0  0  0  0  0
   25.5771  -21.7778  -16.8523 C   0  0  0  0  0  0  0  0  0  0  0  0
   24.7322  -22.3238  -15.7617 C   0  0  2  0  0  0  0  0  0  0  0  0
   24.6001  -23.7446  -15.8170 N   0  0  0  0  0  0  0  0  0  0  0  0
   23.3626  -21.7254  -15.7640 C   0  0  0  0  0  0  0  0  0  0  0  0
   22.6271  -21.7677  -16.7913 O   0  0  0  0  0  0  0  0  0  0  0  0
   28.0762  -25.5659  -17.5519 N   0  0  0  0  0  0  0  0  0  0  0  0
   19.8201  -21.7204  -10.6053 C   0  0  0  0  0  0  0  0  0  0  0  0
   19.0704  -20.9216  -11.5051 O   0  0  0  0  0  0  0  0  0  0  0  0
   17.9148  -20.5455  -11.0855 C   0  0  0  0  0  0  0  0  0  0  0  0
   19.5611  -20.5241  -12.8400 C   0  0  0  0  0  0  0  0  0  0  0  0
   20.9138  -21.0035  -13.2185 C   0  0  1  0  0  0  0  0  0  0  0  0
   21.4808  -20.5706  -14.5395 N   0  0  0  0  0  0  0  0  0  0  0  0
   22.8842  -21.1031  -14.5977 C   0  0  0  0  0  0  0  0  0  0  0  0
   21.5074  -19.1283  -14.7024 O   0  0  0  0  0  0  0  0  0  0  0  0
   22.1593  -18.3490  -13.9186 N   0  0  0  0  0  0  0  0  0  0  0  0
   18.4902  -17.8007  -17.1090 C   0  0  0  0  0  0  0  0  0  0  0  0
   19.3274  -16.8877  -17.8040 O   0  0  0  0  0  0  0  0  0  0  0  0
   18.9313  -16.4800  -18.9326 C   0  0  0  0  0  0  0  0  0  0  0  0
   20.6346  -16.4193  -17.2275 C   0  0  1  0  0  0  0  0  0  0  0  0
   20.8634  -16.9928  -15.8850 N   0  0  0  0  0  0  0  0  0  0  0  0
   20.8352  -18.3891  -15.7247 C   0  0  0  0  0  0  0  0  0  0  0  0
   19.8904  -16.3803  -14.9395 O   0  0  0  0  0  0  0  0  0  0  0  0
   19.8710  -15.0175  -14.6820 O   0  0  0  0  0  0  0  0  0  0  0  0
  2  1  1  0
  2  3  2  0
  4  5  1  0
  4  2  1  0
  6  5  1  0
  7  6  1  0
  8 10  1  0
  8  7  1  0
  8  9  1  6
 10 11  2  0
 13 14  2  0
 13 12  1  0
 15 13  1  0
 16 15  1  0
 17 16  1  6
 17 19  1  0
 18 10  1  0
 18 17  1  0
 19 20  2  0
 22 21  1  0
 22 24  1  0
 23 22  2  0
 25 24  1  6
 25 27  1  0
 26 19  1  0
 26 25  1  0
 27 28  1  0
 29 27  2  0
M  END
$$$$
