RQN.pdb
     RDKit          3D

 29 28  0  0  1  0  0  0  0  0999 V2000
   28.7829  -22.7487  -16.9265 N   0  0  0  0  0  0  0  0  0  0  0  0
   27.8278  -22.5114  -17.9463 C   0  0  0  0  0  0  0  0  0  0  0  0
   28.0270  -23.0504  -19.1174 N   0  0  0  0  0  0  0  0  0  0  0  0
   26.7199  -21.7154  -17.6482 N   0  0  0  0  0  0  0  0  0  0  0  0
   26.3840  -21.4077  -16.2453 C   0  0  0  0  0  0  0  0  0  0  0  0
   26.3941  -22.6841  -15.4542 C   0  0  0  0  0  0  0  0  0  0  0  0
   25.8664  -22.6250  -14.0667 C   0  0  0  0  0  0  0  0  0  0  0  0
   24.6231  -23.4186  -13.9059 C   0  0  2  0  0  0  0  0  0  0  0  0
   24.3696  -24.2876  -15.0104 N   0  0  0  0  0  0  0  0  0  0  0  0
   23.4253  -22.5458  -13.7119 C   0  0  0  0  0  0  0  0  0  0  0  0
   23.4057  -21.6411  -12.8293 O   0  0  0  0  0  0  0  0  0  0  0  0
   27.4424  -22.8034  -19.9247 N   0  0  0  0  0  0  0  0  0  0  0  0
   20.6987  -19.4761  -18.0739 C   0  0  0  0  0  0  0  0  0  0  0  0
   19.7338  -19.3756  -17.0402 O   0  0  0  0  0  0  0  0  0  0  0  0
   18.7661  -18.5579  -17.2593 C   0  0  0  0  0  0  0  0  0  0  0  0
   19.8038  -20.1522  -15.7861 C   0  0  0  0  0  0  0  0  0  0  0  0
   20.9540  -21.0794  -15.6443 C   0  0  1  0  0  0  0  0  0  0  0  0
   21.0855  -21.8643  -14.3713 N   0  0  0  0  0  0  0  0  0  0  0  0
   22.2980  -22.7367  -14.5299 C   0  0  0  0  0  0  0  0  0  0  0  0
   19.9286  -22.6962  -14.0933 O   0  0  0  0  0  0  0  0  0  0  0  0
   19.7175  -23.8174  -14.6808 N   0  0  0  0  0  0  0  0  0  0  0  0
   19.1319  -24.6179   -9.8014 C   0  0  0  0  0  0  0  0  0  0  0  0
   18.4528  -24.6911  -11.0467 O   0  0  0  0  0  0  0  0  0  0  0  0
   18.6784  -25.7004  -11.7729 C   0  0  0  0  0  0  0  0  0  0  0  0
   17.5014  -23.6153  -11.4916 C   0  0  2  0  0  0  0  0  0  0  0  0
   17.7710  -23.2057  -12.8856 N   0  0  0  0  0  0  0  0  0  0  0  0
   18.8903  -22.3997  -13.1567 C   0  0  0  0  0  0  0  0  0  0  0  0
   16.5548  -22.5363  -13.4229 O   0  0  0  0  0  0  0  0  0  0  0  0
   15.4725  -23.2544  -13.9098 O   0  0  0  0  0  0  0  0  0  0  0  0
  2  1  1  0
  2  3  2  0
  4  5  1  0
  4  2  1  0
  6  5  1  0
  7  6  1  0
  8 10  1  0
  8  7  1  0
  8  9  1  6
 10 11  2  0
 13 14  2  0
 13 12  1  0
 15 13  1  0
 16 15  1  0
 17 16  1  1
 17 19  1  0
 18 10  1  0
 18 17  1  0
 19 20  2  0
 22 21  1  0
 22 24  1  0
 23 22  2  0
 25 24  1  6
 25 27  1  0
 26 19  1  0
 26 25  1  0
 27 28  1  0
 29 27  2  0
M  END
$$$$
