RQN.pdb
     RDKit          3D

 29 28  0  0  1  0  0  0  0  0999 V2000
   29.9847  -17.8105  -19.8657 N   0  0  0  0  0  0  0  0  0  0  0  0
   28.7463  -17.1424  -20.0355 C   0  0  0  0  0  0  0  0  0  0  0  0
   28.3211  -16.9279  -21.2499 N   0  0  0  0  0  0  0  0  0  0  0  0
   28.0410  -16.7489  -18.8963 N   0  0  0  0  0  0  0  0  0  0  0  0
   28.4974  -17.1712  -17.5589 C   0  0  0  0  0  0  0  0  0  0  0  0
   28.2159  -18.6367  -17.3920 C   0  0  0  0  0  0  0  0  0  0  0  0
   27.2355  -19.0231  -16.3446 C   0  0  0  0  0  0  0  0  0  0  0  0
   27.5980  -20.3000  -15.6816 C   0  0  2  0  0  0  0  0  0  0  0  0
   28.0735  -21.2878  -16.5967 N   0  0  0  0  0  0  0  0  0  0  0  0
   26.4490  -20.8797  -14.9215 C   0  0  0  0  0  0  0  0  0  0  0  0
   25.6463  -21.6939  -15.4607 O   0  0  0  0  0  0  0  0  0  0  0  0
   27.4044  -16.5000  -21.4263 N   0  0  0  0  0  0  0  0  0  0  0  0
   25.9906  -20.7996   -8.5217 C   0  0  0  0  0  0  0  0  0  0  0  0
   24.7381  -21.2901   -8.9696 O   0  0  0  0  0  0  0  0  0  0  0  0
   23.9266  -21.6694   -8.0473 C   0  0  0  0  0  0  0  0  0  0  0  0
   24.3581  -21.3649  -10.3947 C   0  0  0  0  0  0  0  0  0  0  0  0
   25.3994  -20.9785  -11.3792 C   0  0  1  0  0  0  0  0  0  0  0  0
   25.0305  -20.9493  -12.8341 N   0  0  0  0  0  0  0  0  0  0  0  0
   26.2594  -20.5105  -13.5783 C   0  0  0  0  0  0  0  0  0  0  0  0
   23.9404  -20.0362  -13.1268 O   0  0  0  0  0  0  0  0  0  0  0  0
   24.1270  -18.8186  -13.4865 N   0  0  0  0  0  0  0  0  0  0  0  0
   21.0267  -18.7700  -17.2519 C   0  0  0  0  0  0  0  0  0  0  0  0
   20.8092  -19.8633  -16.3716 O   0  0  0  0  0  0  0  0  0  0  0  0
   19.6655  -20.4005  -16.3841 C   0  0  0  0  0  0  0  0  0  0  0  0
   21.8910  -20.3684  -15.4578 C   0  0  1  0  0  0  0  0  0  0  0  0
   21.5892  -20.0531  -14.0460 N   0  0  0  0  0  0  0  0  0  0  0  0
   22.5470  -20.3480  -13.0602 C   0  0  0  0  0  0  0  0  0  0  0  0
   20.3049  -20.7113  -13.6809 O   0  0  0  0  0  0  0  0  0  0  0  0
   19.1365  -19.9898  -13.4855 O   0  0  0  0  0  0  0  0  0  0  0  0
  2  1  1  0
  2  3  2  0
  4  5  1  0
  4  2  1  0
  6  5  1  0
  7  6  1  0
  8 10  1  0
  8  7  1  0
  8  9  1  6
 10 11  2  0
 13 14  2  0
 13 12  1  0
 15 13  1  0
 16 15  1  0
 17 16  1  6
 17 19  1  0
 18 10  1  0
 18 17  1  0
 19 20  2  0
 22 21  1  0
 22 24  1  0
 23 22  2  0
 25 24  1  6
 25 27  1  0
 26 19  1  0
 26 25  1  0
 27 28  1  0
 29 27  2  0
M  END
$$$$
