RQN.pdb
     RDKit          3D

 29 28  0  0  1  0  0  0  0  0999 V2000
   27.9158  -26.1030  -16.2368 N   0  0  0  0  0  0  0  0  0  0  0  0
   27.6331  -25.5648  -17.5171 C   0  0  0  0  0  0  0  0  0  0  0  0
   26.8435  -26.2360  -18.3092 N   0  0  0  0  0  0  0  0  0  0  0  0
   28.2105  -24.3425  -17.8673 N   0  0  0  0  0  0  0  0  0  0  0  0
   29.0877  -23.6367  -16.9145 C   0  0  0  0  0  0  0  0  0  0  0  0
   28.2757  -22.6102  -16.1783 C   0  0  0  0  0  0  0  0  0  0  0  0
   27.5765  -21.5859  -16.9964 C   0  0  0  0  0  0  0  0  0  0  0  0
   26.8990  -20.5663  -16.1580 C   0  0  2  0  0  0  0  0  0  0  0  0
   27.7489  -20.0201  -15.1489 N   0  0  0  0  0  0  0  0  0  0  0  0
   25.6756  -21.1123  -15.4953 C   0  0  0  0  0  0  0  0  0  0  0  0
   24.7214  -21.5952  -16.1693 O   0  0  0  0  0  0  0  0  0  0  0  0
   26.6068  -25.8886  -19.2461 N   0  0  0  0  0  0  0  0  0  0  0  0
   26.6723  -21.0693   -9.9068 C   0  0  0  0  0  0  0  0  0  0  0  0
   25.3561  -20.5425   -9.9020 O   0  0  0  0  0  0  0  0  0  0  0  0
   25.0696  -19.7687   -8.9160 C   0  0  0  0  0  0  0  0  0  0  0  0
   24.3596  -20.8382  -10.9510 C   0  0  0  0  0  0  0  0  0  0  0  0
   24.7477  -21.8472  -11.9680 C   0  0  1  0  0  0  0  0  0  0  0  0
   24.3596  -21.6053  -13.3979 N   0  0  0  0  0  0  0  0  0  0  0  0
   25.5867  -21.0875  -14.0925 C   0  0  0  0  0  0  0  0  0  0  0  0
   23.2841  -20.6406  -13.5405 O   0  0  0  0  0  0  0  0  0  0  0  0
   23.4773  -19.3720  -13.5240 N   0  0  0  0  0  0  0  0  0  0  0  0
   21.7911  -17.7983  -15.5786 C   0  0  0  0  0  0  0  0  0  0  0  0
   21.1704  -18.8243  -16.3399 O   0  0  0  0  0  0  0  0  0  0  0  0
   21.0476  -18.6320  -17.5828 C   0  0  0  0  0  0  0  0  0  0  0  0
   20.6760  -20.0922  -15.7009 C   0  0  2  0  0  0  0  0  0  0  0  0
   20.9232  -20.0888  -14.2440 N   0  0  0  0  0  0  0  0  0  0  0  0
   21.8996  -20.9504  -13.7146 C   0  0  0  0  0  0  0  0  0  0  0  0
   19.6319  -20.3393  -13.5470 O   0  0  0  0  0  0  0  0  0  0  0  0
   18.7877  -19.3067  -13.1659 O   0  0  0  0  0  0  0  0  0  0  0  0
  2  1  1  0
  2  3  2  0
  4  5  1  0
  4  2  1  0
  6  5  1  0
  7  6  1  0
  8 10  1  0
  8  7  1  0
  8  9  1  1
 10 11  2  0
 13 14  2  0
 13 12  1  0
 15 13  1  0
 16 15  1  0
 17 16  1  6
 17 19  1  0
 18 10  1  0
 18 17  1  0
 19 20  2  0
 22 21  1  0
 22 24  1  0
 23 22  2  0
 25 24  1  6
 25 27  1  0
 26 19  1  0
 26 25  1  0
 27 28  1  0
 29 27  2  0
M  END
$$$$
