RQN.pdb
     RDKit          3D

 29 28  0  0  1  0  0  0  0  0999 V2000
   13.5290  -16.3689  -15.7212 N   0  0  0  0  0  0  0  0  0  0  0  0
   13.7951  -15.6182  -14.5488 C   0  0  0  0  0  0  0  0  0  0  0  0
   13.6946  -16.2178  -13.3947 N   0  0  0  0  0  0  0  0  0  0  0  0
   14.1539  -14.2756  -14.6856 N   0  0  0  0  0  0  0  0  0  0  0  0
   14.3894  -13.7038  -16.0247 C   0  0  0  0  0  0  0  0  0  0  0  0
   15.8391  -13.3307  -16.1433 C   0  0  0  0  0  0  0  0  0  0  0  0
   16.2382  -11.9934  -15.6336 C   0  0  0  0  0  0  0  0  0  0  0  0
   17.6771  -11.7130  -15.8628 C   0  0  2  0  0  0  0  0  0  0  0  0
   18.4762  -12.8959  -15.9021 N   0  0  0  0  0  0  0  0  0  0  0  0
   18.2406  -10.8011  -14.8212 C   0  0  0  0  0  0  0  0  0  0  0  0
   18.5532  -11.2267  -13.6727 O   0  0  0  0  0  0  0  0  0  0  0  0
   13.9132  -15.7287  -12.5187 N   0  0  0  0  0  0  0  0  0  0  0  0
   21.9536   -8.4147  -13.1720 C   0  0  0  0  0  0  0  0  0  0  0  0
   22.1220   -8.3333  -14.5773 O   0  0  0  0  0  0  0  0  0  0  0  0
   23.2660   -8.7136  -15.0240 C   0  0  0  0  0  0  0  0  0  0  0  0
   21.0682   -7.8551  -15.4949 C   0  0  0  0  0  0  0  0  0  0  0  0
   19.7771   -7.4653  -14.8753 C   0  0  2  0  0  0  0  0  0  0  0  0
   19.0102   -8.5043  -14.1097 N   0  0  0  0  0  0  0  0  0  0  0  0
   18.4264   -9.4417  -15.1279 C   0  0  0  0  0  0  0  0  0  0  0  0
   17.9404   -7.9436  -13.3042 O   0  0  0  0  0  0  0  0  0  0  0  0
   16.7733   -7.6888  -13.7731 N   0  0  0  0  0  0  0  0  0  0  0  0
   14.8145   -6.0402   -9.7228 C   0  0  0  0  0  0  0  0  0  0  0  0
   15.7473   -6.8398   -9.0100 O   0  0  0  0  0  0  0  0  0  0  0  0
   15.5233   -7.0386   -7.7823 C   0  0  0  0  0  0  0  0  0  0  0  0
   16.9559   -7.4306   -9.6812 C   0  0  2  0  0  0  0  0  0  0  0  0
   16.9752   -7.1131  -11.1242 N   0  0  0  0  0  0  0  0  0  0  0  0
   18.0259   -7.6049  -11.9181 C   0  0  0  0  0  0  0  0  0  0  0  0
   16.9050   -5.6345  -11.2817 O   0  0  0  0  0  0  0  0  0  0  0  0
   15.7720   -4.9101  -10.9416 O   0  0  0  0  0  0  0  0  0  0  0  0
  2  1  1  0
  2  3  2  0
  4  5  1  0
  4  2  1  0
  6  5  1  0
  7  6  1  0
  8 10  1  0
  8  7  1  0
  8  9  1  1
 10 11  2  0
 13 14  2  0
 13 12  1  0
 15 13  1  0
 16 15  1  0
 17 16  1  1
 17 19  1  0
 18 10  1  0
 18 17  1  0
 19 20  2  0
 22 21  1  0
 22 24  1  0
 23 22  2  0
 25 24  1  6
 25 27  1  0
 26 19  1  0
 26 25  1  0
 27 28  1  0
 29 27  2  0
M  END
$$$$
