RQN.pdb
     RDKit          3D

 29 28  0  0  1  0  0  0  0  0999 V2000
   31.2288  -21.9063   -8.3863 N   0  0  0  0  0  0  0  0  0  0  0  0
   31.3935  -22.4257   -9.6946 C   0  0  0  0  0  0  0  0  0  0  0  0
   32.1802  -23.4535   -9.8572 N   0  0  0  0  0  0  0  0  0  0  0  0
   30.7048  -21.8148  -10.7446 N   0  0  0  0  0  0  0  0  0  0  0  0
   29.5958  -20.8845  -10.4621 C   0  0  0  0  0  0  0  0  0  0  0  0
   28.4482  -21.2084  -11.3748 C   0  0  0  0  0  0  0  0  0  0  0  0
   27.2217  -20.3806  -11.2407 C   0  0  0  0  0  0  0  0  0  0  0  0
   25.9976  -21.1269  -11.6230 C   0  0  2  0  0  0  0  0  0  0  0  0
   26.2799  -22.3985  -12.2081 N   0  0  0  0  0  0  0  0  0  0  0  0
   25.1461  -20.3512  -12.5756 C   0  0  0  0  0  0  0  0  0  0  0  0
   24.7388  -19.1874  -12.2973 O   0  0  0  0  0  0  0  0  0  0  0  0
   32.4092  -23.8072  -10.7936 N   0  0  0  0  0  0  0  0  0  0  0  0
   23.2320  -18.1177  -17.5557 C   0  0  0  0  0  0  0  0  0  0  0  0
   24.6166  -18.0296  -17.2639 O   0  0  0  0  0  0  0  0  0  0  0  0
   25.1946  -16.9409  -17.6294 C   0  0  0  0  0  0  0  0  0  0  0  0
   25.3713  -19.0982  -16.5788 C   0  0  0  0  0  0  0  0  0  0  0  0
   24.5870  -20.2686  -16.1120 C   0  0  2  0  0  0  0  0  0  0  0  0
   23.9134  -20.1884  -14.7728 N   0  0  0  0  0  0  0  0  0  0  0  0
   24.7923  -20.9304  -13.8068 C   0  0  0  0  0  0  0  0  0  0  0  0
   22.5872  -20.7790  -14.7664 O   0  0  0  0  0  0  0  0  0  0  0  0
   22.3782  -22.0283  -14.9721 N   0  0  0  0  0  0  0  0  0  0  0  0
   20.0804  -22.3965  -12.3689 C   0  0  0  0  0  0  0  0  0  0  0  0
   19.1982  -21.2839  -12.3344 O   0  0  0  0  0  0  0  0  0  0  0  0
   18.4683  -21.1528  -11.3112 C   0  0  0  0  0  0  0  0  0  0  0  0
   19.1287  -20.2961  -13.4657 C   0  0  2  0  0  0  0  0  0  0  0  0
   20.0758  -20.6496  -14.5435 N   0  0  0  0  0  0  0  0  0  0  0  0
   21.3612  -20.0806  -14.5375 C   0  0  0  0  0  0  0  0  0  0  0  0
   19.4282  -20.3609  -15.8524 O   0  0  0  0  0  0  0  0  0  0  0  0
   18.6170  -21.2857  -16.4933 O   0  0  0  0  0  0  0  0  0  0  0  0
  2  1  1  0
  2  3  2  0
  4  5  1  0
  4  2  1  0
  6  5  1  0
  7  6  1  0
  8 10  1  0
  8  7  1  0
  8  9  1  6
 10 11  2  0
 13 14  2  0
 13 12  1  0
 15 13  1  0
 16 15  1  0
 17 16  1  1
 17 19  1  0
 18 10  1  0
 18 17  1  0
 19 20  2  0
 22 21  1  0
 22 24  1  0
 23 22  2  0
 25 24  1  1
 25 27  1  0
 26 19  1  0
 26 25  1  0
 27 28  1  0
 29 27  2  0
M  END
$$$$
