RQN.pdb
     RDKit          3D

 29 28  0  0  1  0  0  0  0  0999 V2000
   26.4535  -22.9154  -16.8379 N   0  0  0  0  0  0  0  0  0  0  0  0
   27.7333  -22.5575  -16.3451 C   0  0  0  0  0  0  0  0  0  0  0  0
   28.7837  -23.0772  -16.9179 N   0  0  0  0  0  0  0  0  0  0  0  0
   27.8080  -21.6652  -15.2736 N   0  0  0  0  0  0  0  0  0  0  0  0
   26.5770  -21.2092  -14.6011 C   0  0  0  0  0  0  0  0  0  0  0  0
   25.9310  -20.1467  -15.4430 C   0  0  0  0  0  0  0  0  0  0  0  0
   24.7224  -19.4845  -14.8879 C   0  0  0  0  0  0  0  0  0  0  0  0
   23.5273  -20.3621  -14.9434 C   0  0  2  0  0  0  0  0  0  0  0  0
   23.2869  -20.8948  -16.2463 N   0  0  0  0  0  0  0  0  0  0  0  0
   22.2920  -19.6517  -14.4923 C   0  0  0  0  0  0  0  0  0  0  0  0
   22.2678  -18.9932  -13.4135 O   0  0  0  0  0  0  0  0  0  0  0  0
   29.7238  -22.9487  -16.5252 N   0  0  0  0  0  0  0  0  0  0  0  0
   19.2330  -15.4220  -15.7286 C   0  0  0  0  0  0  0  0  0  0  0  0
   18.0319  -16.1736  -15.6807 O   0  0  0  0  0  0  0  0  0  0  0  0
   16.9543  -15.4915  -15.5180 C   0  0  0  0  0  0  0  0  0  0  0  0
   17.9883  -17.6437  -15.8143 C   0  0  0  0  0  0  0  0  0  0  0  0
   19.2922  -18.3327  -15.9812 C   0  0  1  0  0  0  0  0  0  0  0  0
   19.8505  -19.0962  -14.8154 N   0  0  0  0  0  0  0  0  0  0  0  0
   21.1340  -19.7184  -15.2866 C   0  0  0  0  0  0  0  0  0  0  0  0
   18.9591  -20.1378  -14.3376 O   0  0  0  0  0  0  0  0  0  0  0  0
   18.8272  -21.2692  -14.9285 N   0  0  0  0  0  0  0  0  0  0  0  0
   16.2003  -23.4123  -11.6142 C   0  0  0  0  0  0  0  0  0  0  0  0
   16.1044  -22.2126  -10.8598 O   0  0  0  0  0  0  0  0  0  0  0  0
   15.5645  -22.2851   -9.7195 C   0  0  0  0  0  0  0  0  0  0  0  0
   16.6220  -20.9039  -11.3887 C   0  0  2  0  0  0  0  0  0  0  0  0
   17.2914  -21.0816  -12.6940 N   0  0  0  0  0  0  0  0  0  0  0  0
   18.1262  -20.0597  -13.1785 C   0  0  0  0  0  0  0  0  0  0  0  0
   16.2535  -21.3809  -13.7183 O   0  0  0  0  0  0  0  0  0  0  0  0
   15.7885  -22.6684  -13.9420 O   0  0  0  0  0  0  0  0  0  0  0  0
  2  1  1  0
  2  3  2  0
  4  5  1  0
  4  2  1  0
  6  5  1  0
  7  6  1  0
  8 10  1  0
  8  7  1  0
  8  9  1  6
 10 11  2  0
 13 14  2  0
 13 12  1  0
 15 13  1  0
 16 15  1  0
 17 16  1  1
 17 19  1  0
 18 10  1  0
 18 17  1  0
 19 20  2  0
 22 21  1  0
 22 24  1  0
 23 22  2  0
 25 24  1  1
 25 27  1  0
 26 19  1  0
 26 25  1  0
 27 28  1  0
 29 27  2  0
M  END
$$$$
