RQN.pdb
     RDKit          3D

 29 28  0  0  1  0  0  0  0  0999 V2000
   26.7932  -25.1100  -16.0978 N   0  0  0  0  0  0  0  0  0  0  0  0
   26.7524  -24.9086  -17.5002 C   0  0  0  0  0  0  0  0  0  0  0  0
   26.5334  -25.9410  -18.2669 N   0  0  0  0  0  0  0  0  0  0  0  0
   26.9456  -23.6163  -17.9926 N   0  0  0  0  0  0  0  0  0  0  0  0
   26.7935  -22.4521  -17.0998 C   0  0  0  0  0  0  0  0  0  0  0  0
   25.3303  -22.1571  -16.9346 C   0  0  0  0  0  0  0  0  0  0  0  0
   24.7695  -21.0410  -17.7390 C   0  0  0  0  0  0  0  0  0  0  0  0
   25.1599  -19.7134  -17.2038 C   0  0  2  0  0  0  0  0  0  0  0  0
   26.4566  -19.7128  -16.6057 N   0  0  0  0  0  0  0  0  0  0  0  0
   24.1787  -19.2076  -16.1961 C   0  0  0  0  0  0  0  0  0  0  0  0
   24.2746  -19.5122  -14.9730 O   0  0  0  0  0  0  0  0  0  0  0  0
   26.5891  -25.8673  -19.2896 N   0  0  0  0  0  0  0  0  0  0  0  0
   20.4647  -14.1217  -17.3928 C   0  0  0  0  0  0  0  0  0  0  0  0
   20.1476  -14.5067  -16.0658 O   0  0  0  0  0  0  0  0  0  0  0  0
   19.3986  -13.6905  -15.4131 C   0  0  0  0  0  0  0  0  0  0  0  0
   20.6243  -15.7607  -15.4483 C   0  0  0  0  0  0  0  0  0  0  0  0
   21.5841  -16.5672  -16.2428 C   0  0  2  0  0  0  0  0  0  0  0  0
   22.1550  -17.8104  -15.6245 N   0  0  0  0  0  0  0  0  0  0  0  0
   23.1280  -18.3752  -16.6199 C   0  0  0  0  0  0  0  0  0  0  0  0
   21.1465  -18.8091  -15.3192 O   0  0  0  0  0  0  0  0  0  0  0  0
   20.7434  -19.6781  -16.1731 N   0  0  0  0  0  0  0  0  0  0  0  0
   20.3454  -22.5266  -13.4947 C   0  0  0  0  0  0  0  0  0  0  0  0
   19.8823  -21.8406  -12.3403 O   0  0  0  0  0  0  0  0  0  0  0  0
   19.9426  -22.4538  -11.2370 C   0  0  0  0  0  0  0  0  0  0  0  0
   19.3404  -20.4404  -12.4183 C   0  0  2  0  0  0  0  0  0  0  0  0
   19.4601  -19.8959  -13.7868 N   0  0  0  0  0  0  0  0  0  0  0  0
   20.4773  -18.9667  -14.0660 C   0  0  0  0  0  0  0  0  0  0  0  0
   18.1497  -19.3054  -14.1745 O   0  0  0  0  0  0  0  0  0  0  0  0
   17.9606  -17.9351  -14.2781 O   0  0  0  0  0  0  0  0  0  0  0  0
  2  1  1  0
  2  3  2  0
  4  5  1  0
  4  2  1  0
  6  5  1  0
  7  6  1  0
  8 10  1  0
  8  7  1  0
  8  9  1  1
 10 11  2  0
 13 14  2  0
 13 12  1  0
 15 13  1  0
 16 15  1  0
 17 16  1  1
 17 19  1  0
 18 10  1  0
 18 17  1  0
 19 20  2  0
 22 21  1  0
 22 24  1  0
 23 22  2  0
 25 24  1  6
 25 27  1  0
 26 19  1  0
 26 25  1  0
 27 28  1  0
 29 27  2  0
M  END
$$$$
