RQN.pdb
     RDKit          3D

 29 28  0  0  1  0  0  0  0  0999 V2000
   18.0763  -23.7022   -8.1783 N   0  0  0  0  0  0  0  0  0  0  0  0
   18.1006  -24.6252   -9.2535 C   0  0  0  0  0  0  0  0  0  0  0  0
   17.5930  -25.8114   -9.0616 N   0  0  0  0  0  0  0  0  0  0  0  0
   18.6635  -24.2200  -10.4655 N   0  0  0  0  0  0  0  0  0  0  0  0
   19.8622  -23.3607  -10.4759 C   0  0  0  0  0  0  0  0  0  0  0  0
   19.5969  -22.1707  -11.3526 C   0  0  0  0  0  0  0  0  0  0  0  0
   20.7025  -21.1924  -11.5194 C   0  0  0  0  0  0  0  0  0  0  0  0
   21.4087  -21.3603  -12.8134 C   0  0  2  0  0  0  0  0  0  0  0  0
   21.7230  -22.7226  -13.1042 N   0  0  0  0  0  0  0  0  0  0  0  0
   22.6738  -20.5661  -12.8657 C   0  0  0  0  0  0  0  0  0  0  0  0
   22.6651  -19.3062  -12.7637 O   0  0  0  0  0  0  0  0  0  0  0  0
   17.5968  -26.5199   -9.8049 N   0  0  0  0  0  0  0  0  0  0  0  0
   28.0861  -22.0521  -10.2807 C   0  0  0  0  0  0  0  0  0  0  0  0
   28.4747  -21.0834  -11.2402 O   0  0  0  0  0  0  0  0  0  0  0  0
   29.6997  -20.6980  -11.1778 C   0  0  0  0  0  0  0  0  0  0  0  0
   27.5577  -20.5398  -12.2622 C   0  0  0  0  0  0  0  0  0  0  0  0
   26.1642  -21.0502  -12.2407 C   0  0  1  0  0  0  0  0  0  0  0  0
   25.1736  -20.4622  -13.2035 N   0  0  0  0  0  0  0  0  0  0  0  0
   23.8982  -21.2368  -13.0314 C   0  0  0  0  0  0  0  0  0  0  0  0
   25.6047  -20.5483  -14.5872 O   0  0  0  0  0  0  0  0  0  0  0  0
   25.4010  -21.5827  -15.3188 N   0  0  0  0  0  0  0  0  0  0  0  0
   26.0116  -18.7564  -19.4244 C   0  0  0  0  0  0  0  0  0  0  0  0
   24.9618  -18.2594  -18.6068 O   0  0  0  0  0  0  0  0  0  0  0  0
   24.0329  -17.6211  -19.1785 C   0  0  0  0  0  0  0  0  0  0  0  0
   24.9478  -18.4791  -17.1196 C   0  0  1  0  0  0  0  0  0  0  0  0
   26.1358  -19.2401  -16.6800 N   0  0  0  0  0  0  0  0  0  0  0  0
   26.2950  -19.5289  -15.3135 C   0  0  0  0  0  0  0  0  0  0  0  0
   27.3529  -18.5354  -17.1677 O   0  0  0  0  0  0  0  0  0  0  0  0
   28.1858  -17.8266  -16.3145 O   0  0  0  0  0  0  0  0  0  0  0  0
  2  1  1  0
  2  3  2  0
  4  5  1  0
  4  2  1  0
  6  5  1  0
  7  6  1  0
  8 10  1  0
  8  7  1  0
  8  9  1  1
 10 11  2  0
 13 14  2  0
 13 12  1  0
 15 13  1  0
 16 15  1  0
 17 16  1  1
 17 19  1  0
 18 10  1  0
 18 17  1  0
 19 20  2  0
 22 21  1  0
 22 24  1  0
 23 22  2  0
 25 24  1  6
 25 27  1  0
 26 19  1  0
 26 25  1  0
 27 28  1  0
 29 27  2  0
M  END
$$$$
