EFV.pdb
     RDKit          3D

 28 28  0  0  1  0  0  0  0  0999 V2000
   36.7236  -28.0269  -17.7667 N   0  0  0  0  0  0  0  0  0  0  0  0
   35.8930  -26.9252  -18.1603 C   0  0  1  0  0  0  0  0  0  0  0  0
   35.1903  -27.1638  -19.4744 C   0  0  0  0  0  0  0  0  0  0  0  0
   36.1561  -26.7555  -20.5672 C   0  0  0  0  0  0  0  0  0  0  0  0
   37.0080  -27.8447  -21.0203 C   0  0  0  0  0  0  0  0  0  0  0  0
   36.5223  -28.9550  -21.3228 O   0  0  0  0  0  0  0  0  0  0  0  0
   34.9589  -26.6113  -17.0582 C   0  0  0  0  0  0  0  0  0  0  0  0
   34.5341  -27.5405  -16.3356 O   0  0  0  0  0  0  0  0  0  0  0  0
   38.3715  -27.6658  -21.1228 O   0  0  0  0  0  0  0  0  0  0  0  0
   34.5032  -25.2998  -16.7598 N   0  0  0  0  0  0  0  0  0  0  0  0
   33.5036  -25.0279  -15.7148 C   0  0  1  0  0  0  0  0  0  0  0  0
   33.9377  -23.7852  -15.0303 C   0  0  0  0  0  0  0  0  0  0  0  0
   33.1390  -23.3328  -13.9000 C   0  0  0  0  0  0  0  0  0  0  0  0
   33.4084  -23.6969  -12.5918 C   0  0  0  0  0  0  0  0  0  0  0  0
   32.6322  -23.2386  -11.5550 C   0  0  0  0  0  0  0  0  0  0  0  0
   31.5555  -22.4011  -11.7584 C   0  0  0  0  0  0  0  0  0  0  0  0
   31.2893  -22.0399  -13.0625 C   0  0  0  0  0  0  0  0  0  0  0  0
   32.0682  -22.4967  -14.1277 C   0  0  0  0  0  0  0  0  0  0  0  0
   32.2157  -24.7863  -16.4070 C   0  0  0  0  0  0  0  0  0  0  0  0
   32.2336  -24.3352  -17.5812 O   0  0  0  0  0  0  0  0  0  0  0  0
   29.5061  -27.3595  -16.7734 C   0  0  0  0  0  0  0  0  0  0  0  0
   28.8006  -26.1078  -16.2995 C   0  0  2  0  0  0  0  0  0  0  0  0
   27.4782  -25.9218  -17.0105 C   0  0  0  0  0  0  0  0  0  0  0  0
   29.7281  -24.9384  -16.5320 C   0  0  2  0  0  0  0  0  0  0  0  0
   30.9538  -25.0385  -15.8114 N   0  0  0  0  0  0  0  0  0  0  0  0
   28.9898  -23.7065  -16.1228 C   0  0  0  0  0  0  0  0  0  0  0  0
   28.0037  -23.3184  -16.8239 O   0  0  0  0  0  0  0  0  0  0  0  0
   29.3055  -22.9516  -15.0256 O   0  0  0  0  0  0  0  0  0  0  0  0
  2  1  1  1
  2  7  1  0
  2  3  1  0
  4  3  1  0
  4  5  1  0
  5  6  2  0
  7  8  2  0
  9  5  1  0
 10  7  1  0
 10 11  1  0
 11 12  1  6
 12 13  1  0
 13 14  2  0
 14 15  1  0
 16 15  2  0
 17 16  1  0
 18 13  1  0
 18 17  2  0
 19 25  1  0
 19 11  1  0
 20 19  2  0
 22 21  1  6
 22 24  1  0
 23 22  1  0
 24 25  1  1
 26 28  1  0
 26 24  1  0
 27 26  2  0
M  END
$$$$
