EFV.pdb
     RDKit          3D

 28 28  0  0  1  0  0  0  0  0999 V2000
   28.7114  -23.1294  -17.4550 N   0  0  0  0  0  0  0  0  0  0  0  0
   28.1774  -21.8671  -17.0303 C   0  0  1  0  0  0  0  0  0  0  0  0
   27.3414  -21.1988  -18.0943 C   0  0  0  0  0  0  0  0  0  0  0  0
   28.2785  -20.8497  -19.2316 C   0  0  0  0  0  0  0  0  0  0  0  0
   27.6665  -20.0012  -20.2431 C   0  0  0  0  0  0  0  0  0  0  0  0
   28.2913  -19.6842  -21.2772 O   0  0  0  0  0  0  0  0  0  0  0  0
   27.4449  -22.0593  -15.7607 C   0  0  0  0  0  0  0  0  0  0  0  0
   26.7000  -23.0565  -15.6313 O   0  0  0  0  0  0  0  0  0  0  0  0
   26.3809  -19.5321  -20.0736 O   0  0  0  0  0  0  0  0  0  0  0  0
   27.5323  -21.1699  -14.6571 N   0  0  0  0  0  0  0  0  0  0  0  0
   26.7082  -21.3253  -13.4481 C   0  0  1  0  0  0  0  0  0  0  0  0
   27.3496  -20.5029  -12.3928 C   0  0  0  0  0  0  0  0  0  0  0  0
   26.6607  -20.4038  -11.1139 C   0  0  0  0  0  0  0  0  0  0  0  0
   26.4243  -21.4966  -10.2975 C   0  0  0  0  0  0  0  0  0  0  0  0
   25.7773  -21.3546   -9.0938 C   0  0  0  0  0  0  0  0  0  0  0  0
   25.3336  -20.1307   -8.6388 C   0  0  0  0  0  0  0  0  0  0  0  0
   25.5705  -19.0438   -9.4538 C   0  0  0  0  0  0  0  0  0  0  0  0
   26.2266  -19.1707  -10.6799 C   0  0  0  0  0  0  0  0  0  0  0  0
   25.3727  -20.7668  -13.7658 C   0  0  0  0  0  0  0  0  0  0  0  0
   25.3005  -19.7489  -14.5014 O   0  0  0  0  0  0  0  0  0  0  0  0
   23.0410  -21.3832  -15.9471 C   0  0  0  0  0  0  0  0  0  0  0  0
   22.1758  -21.4914  -14.7107 C   0  0  2  0  0  0  0  0  0  0  0  0
   20.7957  -20.9225  -14.9562 C   0  0  0  0  0  0  0  0  0  0  0  0
   22.8838  -20.7719  -13.5868 C   0  0  2  0  0  0  0  0  0  0  0  0
   24.1620  -21.3232  -13.2807 N   0  0  0  0  0  0  0  0  0  0  0  0
   21.9923  -20.8444  -12.3910 C   0  0  0  0  0  0  0  0  0  0  0  0
   21.9363  -21.9279  -11.7297 O   0  0  0  0  0  0  0  0  0  0  0  0
   21.2167  -19.8072  -11.9482 O   0  0  0  0  0  0  0  0  0  0  0  0
  2  1  1  6
  2  7  1  0
  2  3  1  0
  4  3  1  0
  4  5  1  0
  5  6  2  0
  7  8  2  0
  9  5  1  0
 10  7  1  0
 10 11  1  0
 11 12  1  1
 12 13  1  0
 13 14  2  0
 14 15  1  0
 16 15  2  0
 17 16  1  0
 18 13  1  0
 18 17  2  0
 19 25  1  0
 19 11  1  0
 20 19  2  0
 22 21  1  6
 22 24  1  0
 23 22  1  0
 24 25  1  1
 26 28  1  0
 26 24  1  0
 27 26  2  0
M  END
$$$$
