EFV.pdb
     RDKit          3D

 28 28  0  0  1  0  0  0  0  0999 V2000
   24.8692  -25.2612  -14.7196 N   0  0  0  0  0  0  0  0  0  0  0  0
   25.1130  -23.8709  -14.9777 C   0  0  1  0  0  0  0  0  0  0  0  0
   24.9394  -23.5077  -16.4322 C   0  0  0  0  0  0  0  0  0  0  0  0
   25.9888  -24.2800  -17.2041 C   0  0  0  0  0  0  0  0  0  0  0  0
   25.8983  -24.0938  -18.6445 C   0  0  0  0  0  0  0  0  0  0  0  0
   24.9794  -23.4125  -19.1462 O   0  0  0  0  0  0  0  0  0  0  0  0
   24.2650  -23.0604  -14.0780 C   0  0  0  0  0  0  0  0  0  0  0  0
   23.2442  -23.5780  -13.5719 O   0  0  0  0  0  0  0  0  0  0  0  0
   26.8309  -24.6701  -19.4810 O   0  0  0  0  0  0  0  0  0  0  0  0
   24.5375  -21.7074  -13.7439 N   0  0  0  0  0  0  0  0  0  0  0  0
   23.6381  -20.9037  -12.9011 C   0  0  1  0  0  0  0  0  0  0  0  0
   24.4932  -19.9211  -12.1907 C   0  0  0  0  0  0  0  0  0  0  0  0
   25.1225  -20.3575  -10.9522 C   0  0  0  0  0  0  0  0  0  0  0  0
   26.4148  -20.8505  -10.8954 C   0  0  0  0  0  0  0  0  0  0  0  0
   26.9713  -21.2429   -9.7021 C   0  0  0  0  0  0  0  0  0  0  0  0
   26.2813  -21.1679   -8.5104 C   0  0  0  0  0  0  0  0  0  0  0  0
   24.9942  -20.6764   -8.5698 C   0  0  0  0  0  0  0  0  0  0  0  0
   24.4137  -20.2732   -9.7741 C   0  0  0  0  0  0  0  0  0  0  0  0
   22.7195  -20.1874  -13.8172 C   0  0  0  0  0  0  0  0  0  0  0  0
   23.2038  -19.5656  -14.7977 O   0  0  0  0  0  0  0  0  0  0  0  0
   19.1953  -19.9151  -16.7200 C   0  0  0  0  0  0  0  0  0  0  0  0
   20.0658  -20.6274  -15.7080 C   0  0  2  0  0  0  0  0  0  0  0  0
   19.3644  -21.8416  -15.1402 C   0  0  0  0  0  0  0  0  0  0  0  0
   20.4250  -19.6347  -14.6275 C   0  0  2  0  0  0  0  0  0  0  0  0
   21.3120  -20.1653  -13.6462 N   0  0  0  0  0  0  0  0  0  0  0  0
   19.1467  -19.2042  -13.9867 C   0  0  0  0  0  0  0  0  0  0  0  0
   18.3269  -18.5032  -14.6584 O   0  0  0  0  0  0  0  0  0  0  0  0
   18.7884  -19.5167  -12.7032 O   0  0  0  0  0  0  0  0  0  0  0  0
  2  1  1  6
  2  7  1  0
  2  3  1  0
  4  3  1  0
  4  5  1  0
  5  6  2  0
  7  8  2  0
  9  5  1  0
 10  7  1  0
 10 11  1  0
 11 12  1  6
 12 13  1  0
 13 14  2  0
 14 15  1  0
 16 15  2  0
 17 16  1  0
 18 13  1  0
 18 17  2  0
 19 25  1  0
 19 11  1  0
 20 19  2  0
 22 21  1  6
 22 24  1  0
 23 22  1  0
 24 25  1  1
 26 28  1  0
 26 24  1  0
 27 26  2  0
M  END
$$$$
