EFV.pdb
     RDKit          3D

 28 28  0  0  1  0  0  0  0  0999 V2000
   17.8044  -14.6488  -18.7084 N   0  0  0  0  0  0  0  0  0  0  0  0
   17.7790  -13.8229  -17.5353 C   0  0  1  0  0  0  0  0  0  0  0  0
   18.2111  -14.5610  -16.2918 C   0  0  0  0  0  0  0  0  0  0  0  0
   17.1045  -15.5392  -15.9571 C   0  0  0  0  0  0  0  0  0  0  0  0
   15.9880  -14.9276  -15.2522 C   0  0  0  0  0  0  0  0  0  0  0  0
   16.0747  -14.6429  -14.0391 O   0  0  0  0  0  0  0  0  0  0  0  0
   18.5794  -12.6060  -17.7883 C   0  0  0  0  0  0  0  0  0  0  0  0
   19.7133  -12.7185  -18.3057 O   0  0  0  0  0  0  0  0  0  0  0  0
   14.8117  -14.6521  -15.9169 O   0  0  0  0  0  0  0  0  0  0  0  0
   18.1380  -11.2926  -17.4769 N   0  0  0  0  0  0  0  0  0  0  0  0
   18.9984  -10.1097  -17.6371 C   0  0  1  0  0  0  0  0  0  0  0  0
   18.1468   -9.0464  -18.2249 C   0  0  0  0  0  0  0  0  0  0  0  0
   18.7538   -7.7372  -18.4188 C   0  0  0  0  0  0  0  0  0  0  0  0
   18.4188   -6.6300  -17.6583 C   0  0  0  0  0  0  0  0  0  0  0  0
   19.0243   -5.4152  -17.8710 C   0  0  0  0  0  0  0  0  0  0  0  0
   19.9871   -5.2348  -18.8418 C   0  0  0  0  0  0  0  0  0  0  0  0
   20.3190   -6.3393  -19.5979 C   0  0  0  0  0  0  0  0  0  0  0  0
   19.7134   -7.5810  -19.3946 C   0  0  0  0  0  0  0  0  0  0  0  0
   19.4263   -9.7044  -16.2774 C   0  0  0  0  0  0  0  0  0  0  0  0
   18.5697   -9.6715  -15.3567 O   0  0  0  0  0  0  0  0  0  0  0  0
   23.5610   -9.1950  -15.1778 C   0  0  0  0  0  0  0  0  0  0  0  0
   22.4890   -9.7400  -14.2596 C   0  0  2  0  0  0  0  0  0  0  0  0
   22.3924  -11.2461  -14.3637 C   0  0  0  0  0  0  0  0  0  0  0  0
   21.1846   -9.0709  -14.6240 C   0  0  2  0  0  0  0  0  0  0  0  0
   20.7608   -9.3488  -15.9562 N   0  0  0  0  0  0  0  0  0  0  0  0
   21.3810   -7.6017  -14.4423 C   0  0  0  0  0  0  0  0  0  0  0  0
   21.5481   -6.8714  -15.4687 O   0  0  0  0  0  0  0  0  0  0  0  0
   21.3940   -6.9739  -13.2261 O   0  0  0  0  0  0  0  0  0  0  0  0
  2  1  1  6
  2  7  1  0
  2  3  1  0
  4  3  1  0
  4  5  1  0
  5  6  2  0
  7  8  2  0
  9  5  1  0
 10  7  1  0
 10 11  1  0
 11 12  1  1
 12 13  1  0
 13 14  2  0
 14 15  1  0
 16 15  2  0
 17 16  1  0
 18 13  1  0
 18 17  2  0
 19 25  1  0
 19 11  1  0
 20 19  2  0
 22 21  1  6
 22 24  1  0
 23 22  1  0
 24 25  1  6
 26 28  1  0
 26 24  1  0
 27 26  2  0
M  END
$$$$
