EFV.pdb
     RDKit          3D

 28 28  0  0  1  0  0  0  0  0999 V2000
   29.0717  -22.8436  -16.3677 N   0  0  0  0  0  0  0  0  0  0  0  0
   28.5714  -21.5690  -15.9388 C   0  0  1  0  0  0  0  0  0  0  0  0
   27.6682  -20.9222  -16.9603 C   0  0  0  0  0  0  0  0  0  0  0  0
   28.5225  -20.6281  -18.1757 C   0  0  0  0  0  0  0  0  0  0  0  0
   27.7869  -19.9894  -19.2566 C   0  0  0  0  0  0  0  0  0  0  0  0
   27.9126  -18.7674  -19.4827 O   0  0  0  0  0  0  0  0  0  0  0  0
   27.9249  -21.7273  -14.6188 C   0  0  0  0  0  0  0  0  0  0  0  0
   26.9932  -22.5529  -14.4911 O   0  0  0  0  0  0  0  0  0  0  0  0
   26.9358  -20.7280  -20.0513 O   0  0  0  0  0  0  0  0  0  0  0  0
   28.2987  -20.9902  -13.4639 N   0  0  0  0  0  0  0  0  0  0  0  0
   27.6375  -21.1702  -12.1618 C   0  0  1  0  0  0  0  0  0  0  0  0
   28.5048  -20.5110  -11.1546 C   0  0  0  0  0  0  0  0  0  0  0  0
   28.0506  -20.5262   -9.7713 C   0  0  0  0  0  0  0  0  0  0  0  0
   28.5371  -21.4140   -8.8271 C   0  0  0  0  0  0  0  0  0  0  0  0
   28.0852  -21.3864   -7.5299 C   0  0  0  0  0  0  0  0  0  0  0  0
   27.1340  -20.4837   -7.1030 C   0  0  0  0  0  0  0  0  0  0  0  0
   26.6510  -19.6004   -8.0455 C   0  0  0  0  0  0  0  0  0  0  0  0
   27.0996  -19.6150   -9.3678 C   0  0  0  0  0  0  0  0  0  0  0  0
   26.3402  -20.4579  -12.2383 C   0  0  0  0  0  0  0  0  0  0  0  0
   26.3298  -19.2549  -12.6061 O   0  0  0  0  0  0  0  0  0  0  0  0
   22.7219  -22.1555  -13.1409 C   0  0  0  0  0  0  0  0  0  0  0  0
   23.0225  -20.6728  -13.1609 C   0  0  2  0  0  0  0  0  0  0  0  0
   23.7181  -20.2721  -14.4432 C   0  0  0  0  0  0  0  0  0  0  0  0
   23.8640  -20.3555  -11.9472 C   0  0  2  0  0  0  0  0  0  0  0  0
   25.0998  -21.0649  -11.9164 N   0  0  0  0  0  0  0  0  0  0  0  0
   23.0450  -20.6961  -10.7459 C   0  0  0  0  0  0  0  0  0  0  0  0
   23.4143  -21.6575  -10.0015 O   0  0  0  0  0  0  0  0  0  0  0  0
   21.9034  -20.0342  -10.3827 O   0  0  0  0  0  0  0  0  0  0  0  0
  2  1  1  6
  2  7  1  0
  2  3  1  0
  4  3  1  0
  4  5  1  0
  5  6  2  0
  7  8  2  0
  9  5  1  0
 10  7  1  0
 10 11  1  0
 11 12  1  1
 12 13  1  0
 13 14  2  0
 14 15  1  0
 16 15  2  0
 17 16  1  0
 18 13  1  0
 18 17  2  0
 19 25  1  0
 19 11  1  0
 20 19  2  0
 22 21  1  6
 22 24  1  0
 23 22  1  0
 24 25  1  6
 26 28  1  0
 26 24  1  0
 27 26  2  0
M  END
$$$$
