EFV.pdb
     RDKit          3D

 28 28  0  0  1  0  0  0  0  0999 V2000
   28.4807  -22.1219  -15.0262 N   0  0  0  0  0  0  0  0  0  0  0  0
   27.4304  -21.1759  -15.2728 C   0  0  1  0  0  0  0  0  0  0  0  0
   26.9359  -21.2106  -16.6983 C   0  0  0  0  0  0  0  0  0  0  0  0
   26.6696  -19.7759  -17.1038 C   0  0  0  0  0  0  0  0  0  0  0  0
   27.7105  -19.2135  -17.9510 C   0  0  0  0  0  0  0  0  0  0  0  0
   27.6390  -18.0343  -18.3567 O   0  0  0  0  0  0  0  0  0  0  0  0
   26.3513  -21.3896  -14.2852 C   0  0  0  0  0  0  0  0  0  0  0  0
   25.8602  -22.5334  -14.1562 O   0  0  0  0  0  0  0  0  0  0  0  0
   28.7968  -19.9785  -18.3202 O   0  0  0  0  0  0  0  0  0  0  0  0
   25.8251  -20.3627  -13.4572 N   0  0  0  0  0  0  0  0  0  0  0  0
   24.8415  -20.6282  -12.3955 C   0  0  1  0  0  0  0  0  0  0  0  0
   25.1255  -19.6607  -11.3072 C   0  0  0  0  0  0  0  0  0  0  0  0
   26.0794  -20.0679  -10.2852 C   0  0  0  0  0  0  0  0  0  0  0  0
   25.7158  -20.3311   -8.9756 C   0  0  0  0  0  0  0  0  0  0  0  0
   26.6493  -20.7214   -8.0462 C   0  0  0  0  0  0  0  0  0  0  0  0
   27.9832  -20.8704   -8.3633 C   0  0  0  0  0  0  0  0  0  0  0  0
   28.3427  -20.6077   -9.6685 C   0  0  0  0  0  0  0  0  0  0  0  0
   27.4066  -20.2103  -10.6255 C   0  0  0  0  0  0  0  0  0  0  0  0
   23.5049  -20.3466  -12.9702 C   0  0  0  0  0  0  0  0  0  0  0  0
   23.3275  -19.2680  -13.5927 O   0  0  0  0  0  0  0  0  0  0  0  0
   20.8450  -23.2714  -14.1341 C   0  0  0  0  0  0  0  0  0  0  0  0
   20.7818  -21.8314  -14.5939 C   0  0  2  0  0  0  0  0  0  0  0  0
   21.7131  -21.5876  -15.7609 C   0  0  0  0  0  0  0  0  0  0  0  0
   21.1254  -20.9538  -13.4134 C   0  0  2  0  0  0  0  0  0  0  0  0
   22.4061  -21.2355  -12.8549 N   0  0  0  0  0  0  0  0  0  0  0  0
   20.0597  -21.1626  -12.3883 C   0  0  0  0  0  0  0  0  0  0  0  0
   20.3149  -21.8827  -11.3730 O   0  0  0  0  0  0  0  0  0  0  0  0
   18.8041  -20.6234  -12.4661 O   0  0  0  0  0  0  0  0  0  0  0  0
  2  1  1  6
  2  7  1  0
  2  3  1  0
  4  3  1  0
  4  5  1  0
  5  6  2  0
  7  8  2  0
  9  5  1  0
 10  7  1  0
 10 11  1  0
 11 12  1  1
 12 13  1  0
 13 14  2  0
 14 15  1  0
 16 15  2  0
 17 16  1  0
 18 13  1  0
 18 17  2  0
 19 25  1  0
 19 11  1  0
 20 19  2  0
 22 21  1  1
 22 24  1  0
 23 22  1  0
 24 25  1  1
 26 28  1  0
 26 24  1  0
 27 26  2  0
M  END
$$$$
