EFV.pdb
     RDKit          3D

 28 28  0  0  1  0  0  0  0  0999 V2000
   15.0435  -22.0602    1.6010 N   0  0  0  0  0  0  0  0  0  0  0  0
   16.4361  -21.7729    1.7934 C   0  0  1  0  0  0  0  0  0  0  0  0
   16.6833  -20.3521    2.2384 C   0  0  0  0  0  0  0  0  0  0  0  0
   15.5963  -20.0108    3.2361 C   0  0  0  0  0  0  0  0  0  0  0  0
   16.1113  -19.5034    4.4989 C   0  0  0  0  0  0  0  0  0  0  0  0
   17.3348  -19.3110    4.6610 O   0  0  0  0  0  0  0  0  0  0  0  0
   17.0082  -22.7727    2.7200 C   0  0  0  0  0  0  0  0  0  0  0  0
   16.2805  -23.6985    3.1434 O   0  0  0  0  0  0  0  0  0  0  0  0
   15.2514  -19.2261    5.5406 O   0  0  0  0  0  0  0  0  0  0  0  0
   18.3550  -22.7514    3.1699 N   0  0  0  0  0  0  0  0  0  0  0  0
   18.9317  -23.8264    3.9927 C   0  0  1  0  0  0  0  0  0  0  0  0
   20.3649  -23.9186    3.6203 C   0  0  0  0  0  0  0  0  0  0  0  0
   20.6945  -24.6721    2.4188 C   0  0  0  0  0  0  0  0  0  0  0  0
   19.9787  -25.7822    2.0042 C   0  0  0  0  0  0  0  0  0  0  0  0
   20.3208  -26.4579    0.8579 C   0  0  0  0  0  0  0  0  0  0  0  0
   21.3828  -26.0717    0.0674 C   0  0  0  0  0  0  0  0  0  0  0  0
   22.0941  -24.9656    0.4825 C   0  0  0  0  0  0  0  0  0  0  0  0
   21.7597  -24.2675    1.6448 C   0  0  0  0  0  0  0  0  0  0  0  0
   18.8153  -23.3936    5.4052 C   0  0  0  0  0  0  0  0  0  0  0  0
   18.9219  -22.1695    5.6751 O   0  0  0  0  0  0  0  0  0  0  0  0
   16.1090  -23.2811    7.4848 C   0  0  0  0  0  0  0  0  0  0  0  0
   17.0620  -24.0407    8.3815 C   0  0  2  0  0  0  0  0  0  0  0  0
   16.9628  -23.5651    9.8142 C   0  0  0  0  0  0  0  0  0  0  0  0
   18.4569  -23.8620    7.8299 C   0  0  2  0  0  0  0  0  0  0  0  0
   18.5884  -24.2930    6.4777 N   0  0  0  0  0  0  0  0  0  0  0  0
   19.3783  -24.6406    8.7101 C   0  0  0  0  0  0  0  0  0  0  0  0
   19.6163  -25.8568    8.4295 O   0  0  0  0  0  0  0  0  0  0  0  0
   19.9964  -24.1278    9.8185 O   0  0  0  0  0  0  0  0  0  0  0  0
  2  1  1  1
  2  7  1  0
  2  3  1  0
  4  3  1  0
  4  5  1  0
  5  6  2  0
  7  8  2  0
  9  5  1  0
 10  7  1  0
 10 11  1  0
 11 12  1  6
 12 13  1  0
 13 14  2  0
 14 15  1  0
 16 15  2  0
 17 16  1  0
 18 13  1  0
 18 17  2  0
 19 25  1  0
 19 11  1  0
 20 19  2  0
 22 21  1  6
 22 24  1  0
 23 22  1  0
 24 25  1  6
 26 28  1  0
 26 24  1  0
 27 26  2  0
M  END
$$$$
