EFV.pdb
     RDKit          3D

 28 28  0  0  1  0  0  0  0  0999 V2000
   20.6899  -12.1704  -15.8479 N   0  0  0  0  0  0  0  0  0  0  0  0
   20.5596  -11.0269  -16.7049 C   0  0  1  0  0  0  0  0  0  0  0  0
   19.3430  -11.0997  -17.5950 C   0  0  0  0  0  0  0  0  0  0  0  0
   19.5643  -12.2589  -18.5442 C   0  0  0  0  0  0  0  0  0  0  0  0
   19.0694  -13.5272  -18.0306 C   0  0  0  0  0  0  0  0  0  0  0  0
   19.8164  -14.5259  -17.9615 O   0  0  0  0  0  0  0  0  0  0  0  0
   20.5939   -9.8019  -15.8781 C   0  0  0  0  0  0  0  0  0  0  0  0
   19.7390   -9.6502  -14.9768 O   0  0  0  0  0  0  0  0  0  0  0  0
   17.7614  -13.6456  -17.6105 O   0  0  0  0  0  0  0  0  0  0  0  0
   21.5513   -8.7660  -16.0422 N   0  0  0  0  0  0  0  0  0  0  0  0
   21.5224   -7.5283  -15.2470 C   0  0  1  0  0  0  0  0  0  0  0  0
   22.7173   -7.5646  -14.3682 C   0  0  0  0  0  0  0  0  0  0  0  0
   23.9175   -8.1940  -14.9006 C   0  0  0  0  0  0  0  0  0  0  0  0
   24.3738   -9.4297  -14.4750 C   0  0  0  0  0  0  0  0  0  0  0  0
   25.5077   -9.9895  -15.0122 C   0  0  0  0  0  0  0  0  0  0  0  0
   26.2440   -9.3586  -15.9928 C   0  0  0  0  0  0  0  0  0  0  0  0
   25.7873   -8.1278  -16.4151 C   0  0  0  0  0  0  0  0  0  0  0  0
   24.6369   -7.5448  -15.8797 C   0  0  0  0  0  0  0  0  0  0  0  0
   21.6465   -6.4025  -16.2028 C   0  0  0  0  0  0  0  0  0  0  0  0
   22.4557   -6.5064  -17.1603 O   0  0  0  0  0  0  0  0  0  0  0  0
   18.4960   -4.0321  -17.1009 C   0  0  0  0  0  0  0  0  0  0  0  0
   19.7196   -4.1666  -17.9808 C   0  0  2  0  0  0  0  0  0  0  0  0
   19.6446   -5.4117  -18.8368 C   0  0  0  0  0  0  0  0  0  0  0  0
   20.9348   -4.1789  -17.0835 C   0  0  2  0  0  0  0  0  0  0  0  0
   20.8956   -5.2046  -16.0946 N   0  0  0  0  0  0  0  0  0  0  0  0
   21.0103   -2.8377  -16.4312 C   0  0  0  0  0  0  0  0  0  0  0  0
   20.6977   -2.7315  -15.2042 O   0  0  0  0  0  0  0  0  0  0  0  0
   21.3998   -1.6932  -17.0729 O   0  0  0  0  0  0  0  0  0  0  0  0
  2  1  1  1
  2  7  1  0
  2  3  1  0
  4  3  1  0
  4  5  1  0
  5  6  2  0
  7  8  2  0
  9  5  1  0
 10  7  1  0
 10 11  1  0
 11 12  1  1
 12 13  1  0
 13 14  2  0
 14 15  1  0
 16 15  2  0
 17 16  1  0
 18 13  1  0
 18 17  2  0
 19 25  1  0
 19 11  1  0
 20 19  2  0
 22 21  1  1
 22 24  1  0
 23 22  1  0
 24 25  1  1
 26 28  1  0
 26 24  1  0
 27 26  2  0
M  END
$$$$
