EFV.pdb
     RDKit          3D

 28 28  0  0  1  0  0  0  0  0999 V2000
   23.9395  -10.3629  -19.6710 N   0  0  0  0  0  0  0  0  0  0  0  0
   23.5871   -8.9759  -19.7752 C   0  0  1  0  0  0  0  0  0  0  0  0
   22.6631   -8.6935  -20.9346 C   0  0  0  0  0  0  0  0  0  0  0  0
   22.9743   -9.7216  -22.0023 C   0  0  0  0  0  0  0  0  0  0  0  0
   22.0147   -9.7254  -23.0961 C   0  0  0  0  0  0  0  0  0  0  0  0
   22.1043  -10.5565  -24.0243 O   0  0  0  0  0  0  0  0  0  0  0  0
   23.0384   -8.5220  -18.4797 C   0  0  0  0  0  0  0  0  0  0  0  0
   22.3434   -9.3114  -17.8016 O   0  0  0  0  0  0  0  0  0  0  0  0
   20.9868   -8.8066  -23.1239 O   0  0  0  0  0  0  0  0  0  0  0  0
   23.2520   -7.2244  -17.9437 N   0  0  0  0  0  0  0  0  0  0  0  0
   22.7547   -6.8239  -16.6180 C   0  0  1  0  0  0  0  0  0  0  0  0
   23.9496   -6.6428  -15.7573 C   0  0  0  0  0  0  0  0  0  0  0  0
   24.7253   -7.8320  -15.4348 C   0  0  0  0  0  0  0  0  0  0  0  0
   25.8978   -8.1687  -16.0894 C   0  0  0  0  0  0  0  0  0  0  0  0
   26.6021   -9.2970  -15.7454 C   0  0  0  0  0  0  0  0  0  0  0  0
   26.1846  -10.1454  -14.7416 C   0  0  0  0  0  0  0  0  0  0  0  0
   25.0164   -9.8078  -14.0910 C   0  0  0  0  0  0  0  0  0  0  0  0
   24.2887   -8.6647  -14.4281 C   0  0  0  0  0  0  0  0  0  0  0  0
   22.0703   -5.5212  -16.7933 C   0  0  0  0  0  0  0  0  0  0  0  0
   22.4574   -4.7513  -17.7097 O   0  0  0  0  0  0  0  0  0  0  0  0
   20.4173   -4.5615  -18.7258 C   0  0  0  0  0  0  0  0  0  0  0  0
   19.3783   -4.3194  -17.6529 C   0  0  2  0  0  0  0  0  0  0  0  0
   18.4578   -3.1793  -18.0290 C   0  0  0  0  0  0  0  0  0  0  0  0
   20.1064   -4.0445  -16.3582 C   0  0  2  0  0  0  0  0  0  0  0  0
   20.9935   -5.0927  -15.9762 N   0  0  0  0  0  0  0  0  0  0  0  0
   19.0663   -3.8416  -15.3061 C   0  0  0  0  0  0  0  0  0  0  0  0
   18.4503   -4.8534  -14.8461 O   0  0  0  0  0  0  0  0  0  0  0  0
   18.7227   -2.6204  -14.7922 O   0  0  0  0  0  0  0  0  0  0  0  0
  2  1  1  1
  2  7  1  0
  2  3  1  0
  4  3  1  0
  4  5  1  0
  5  6  2  0
  7  8  2  0
  9  5  1  0
 10  7  1  0
 10 11  1  0
 11 12  1  1
 12 13  1  0
 13 14  2  0
 14 15  1  0
 16 15  2  0
 17 16  1  0
 18 13  1  0
 18 17  2  0
 19 25  1  0
 19 11  1  0
 20 19  2  0
 22 21  1  6
 22 24  1  0
 23 22  1  0
 24 25  1  1
 26 28  1  0
 26 24  1  0
 27 26  2  0
M  END
$$$$
