EFV.pdb
     RDKit          3D

 28 28  0  0  1  0  0  0  0  0999 V2000
   20.2962  -12.4423  -19.5450 N   0  0  0  0  0  0  0  0  0  0  0  0
   20.3645  -11.0255  -19.7619 C   0  0  1  0  0  0  0  0  0  0  0  0
   19.4146  -10.5525  -20.8350 C   0  0  0  0  0  0  0  0  0  0  0  0
   20.1414  -10.6948  -22.1561 C   0  0  0  0  0  0  0  0  0  0  0  0
   20.1370   -9.4759  -22.9508 C   0  0  0  0  0  0  0  0  0  0  0  0
   21.0111   -8.5992  -22.7844 O   0  0  0  0  0  0  0  0  0  0  0  0
   20.1641  -10.3328  -18.4713 C   0  0  0  0  0  0  0  0  0  0  0  0
   19.1633  -10.6168  -17.7757 O   0  0  0  0  0  0  0  0  0  0  0  0
   19.1624   -9.2698  -23.9043 O   0  0  0  0  0  0  0  0  0  0  0  0
   21.0493   -9.3475  -17.9591 N   0  0  0  0  0  0  0  0  0  0  0  0
   20.7491   -8.5663  -16.7489 C   0  0  1  0  0  0  0  0  0  0  0  0
   21.9356   -8.6853  -15.8661 C   0  0  0  0  0  0  0  0  0  0  0  0
   21.9202   -7.9278  -14.6227 C   0  0  0  0  0  0  0  0  0  0  0  0
   21.4894   -8.4605  -13.4198 C   0  0  0  0  0  0  0  0  0  0  0  0
   21.5004   -7.7106  -12.2686 C   0  0  0  0  0  0  0  0  0  0  0  0
   21.9360   -6.4022  -12.2490 C   0  0  0  0  0  0  0  0  0  0  0  0
   22.3647   -5.8740  -13.4486 C   0  0  0  0  0  0  0  0  0  0  0  0
   22.3601   -6.6224  -14.6275 C   0  0  0  0  0  0  0  0  0  0  0  0
   20.5921   -7.1564  -17.1776 C   0  0  0  0  0  0  0  0  0  0  0  0
   21.4054   -6.6821  -18.0119 O   0  0  0  0  0  0  0  0  0  0  0  0
   17.0315   -5.1261  -17.1672 C   0  0  0  0  0  0  0  0  0  0  0  0
   18.2524   -4.6290  -17.9099 C   0  0  2  0  0  0  0  0  0  0  0  0
   18.3559   -5.2625  -19.2799 C   0  0  0  0  0  0  0  0  0  0  0  0
   19.4648   -4.9332  -17.0618 C   0  0  2  0  0  0  0  0  0  0  0  0
   19.5656   -6.3064  -16.6935 N   0  0  0  0  0  0  0  0  0  0  0  0
   19.3700   -4.0786  -15.8409 C   0  0  0  0  0  0  0  0  0  0  0  0
   18.9389   -4.5924  -14.7617 O   0  0  0  0  0  0  0  0  0  0  0  0
   19.7212   -2.7562  -15.8007 O   0  0  0  0  0  0  0  0  0  0  0  0
  2  1  1  1
  2  7  1  0
  2  3  1  0
  4  3  1  0
  4  5  1  0
  5  6  2  0
  7  8  2  0
  9  5  1  0
 10  7  1  0
 10 11  1  0
 11 12  1  1
 12 13  1  0
 13 14  2  0
 14 15  1  0
 16 15  2  0
 17 16  1  0
 18 13  1  0
 18 17  2  0
 19 25  1  0
 19 11  1  0
 20 19  2  0
 22 21  1  1
 22 24  1  0
 23 22  1  0
 24 25  1  1
 26 28  1  0
 26 24  1  0
 27 26  2  0
M  END
$$$$
