EFV.pdb
     RDKit          3D

 28 28  0  0  1  0  0  0  0  0999 V2000
   21.2721  -12.9542  -19.0232 N   0  0  0  0  0  0  0  0  0  0  0  0
   20.8421  -11.6619  -19.4749 C   0  0  1  0  0  0  0  0  0  0  0  0
   19.6710  -11.7348  -20.4240 C   0  0  0  0  0  0  0  0  0  0  0  0
   19.2447  -13.1869  -20.4819 C   0  0  0  0  0  0  0  0  0  0  0  0
   17.8113  -13.3602  -20.6629 C   0  0  0  0  0  0  0  0  0  0  0  0
   17.3407  -13.6902  -21.7719 O   0  0  0  0  0  0  0  0  0  0  0  0
   20.5757  -10.8072  -18.2985 C   0  0  0  0  0  0  0  0  0  0  0  0
   19.6760  -11.1393  -17.4945 O   0  0  0  0  0  0  0  0  0  0  0  0
   16.9471  -13.1615  -19.6069 O   0  0  0  0  0  0  0  0  0  0  0  0
   21.2870   -9.6112  -18.0151 N   0  0  0  0  0  0  0  0  0  0  0  0
   20.9779   -8.7629  -16.8532 C   0  0  1  0  0  0  0  0  0  0  0  0
   22.2367   -8.6354  -16.0784 C   0  0  0  0  0  0  0  0  0  0  0  0
   22.2232   -7.7451  -14.9263 C   0  0  0  0  0  0  0  0  0  0  0  0
   21.8091   -8.1460  -13.6677 C   0  0  0  0  0  0  0  0  0  0  0  0
   21.8213   -7.2733  -12.6067 C   0  0  0  0  0  0  0  0  0  0  0  0
   22.2419   -5.9663  -12.7361 C   0  0  0  0  0  0  0  0  0  0  0  0
   22.6540   -5.5694  -13.9908 C   0  0  0  0  0  0  0  0  0  0  0  0
   22.6479   -6.4437  -15.0797 C   0  0  0  0  0  0  0  0  0  0  0  0
   20.5883   -7.4353  -17.3841 C   0  0  0  0  0  0  0  0  0  0  0  0
   21.2775   -6.9239  -18.3039 O   0  0  0  0  0  0  0  0  0  0  0  0
   16.8319   -5.6873  -16.6360 C   0  0  0  0  0  0  0  0  0  0  0  0
   17.6957   -5.2698  -17.8059 C   0  0  2  0  0  0  0  0  0  0  0  0
   17.3933   -6.1000  -19.0339 C   0  0  0  0  0  0  0  0  0  0  0  0
   19.1402   -5.4031  -17.3845 C   0  0  2  0  0  0  0  0  0  0  0  0
   19.4707   -6.7046  -16.9067 N   0  0  0  0  0  0  0  0  0  0  0  0
   19.3798   -4.3867  -16.3169 C   0  0  0  0  0  0  0  0  0  0  0  0
   19.3103   -4.7445  -15.0996 O   0  0  0  0  0  0  0  0  0  0  0  0
   19.6745   -3.0726  -16.5608 O   0  0  0  0  0  0  0  0  0  0  0  0
  2  1  1  1
  2  7  1  0
  2  3  1  0
  4  3  1  0
  4  5  1  0
  5  6  2  0
  7  8  2  0
  9  5  1  0
 10  7  1  0
 10 11  1  0
 11 12  1  1
 12 13  1  0
 13 14  2  0
 14 15  1  0
 16 15  2  0
 17 16  1  0
 18 13  1  0
 18 17  2  0
 19 25  1  0
 19 11  1  0
 20 19  2  0
 22 21  1  1
 22 24  1  0
 23 22  1  0
 24 25  1  1
 26 28  1  0
 26 24  1  0
 27 26  2  0
M  END
$$$$
