EFV.pdb
     RDKit          3D

 28 28  0  0  1  0  0  0  0  0999 V2000
   22.1819  -11.9089  -20.0272 N   0  0  0  0  0  0  0  0  0  0  0  0
   22.8270  -10.7811  -19.4182 C   0  0  1  0  0  0  0  0  0  0  0  0
   23.3109   -9.7694  -20.4282 C   0  0  0  0  0  0  0  0  0  0  0  0
   24.3807  -10.4530  -21.2539 C   0  0  0  0  0  0  0  0  0  0  0  0
   25.0235   -9.5666  -22.2124 C   0  0  0  0  0  0  0  0  0  0  0  0
   25.7638  -10.0216  -23.1097 O   0  0  0  0  0  0  0  0  0  0  0  0
   21.9185  -10.1962  -18.4093 C   0  0  0  0  0  0  0  0  0  0  0  0
   20.7020  -10.0794  -18.6788 O   0  0  0  0  0  0  0  0  0  0  0  0
   24.8234   -8.2040  -22.1436 O   0  0  0  0  0  0  0  0  0  0  0  0
   22.3432   -9.7496  -17.1299 N   0  0  0  0  0  0  0  0  0  0  0  0
   21.4283   -9.1113  -16.1705 C   0  0  1  0  0  0  0  0  0  0  0  0
   21.2435  -10.0766  -15.0590 C   0  0  0  0  0  0  0  0  0  0  0  0
   20.4152  -11.2450  -15.3215 C   0  0  0  0  0  0  0  0  0  0  0  0
   20.9374  -12.5127  -15.5125 C   0  0  0  0  0  0  0  0  0  0  0  0
   20.1165  -13.5887  -15.7492 C   0  0  0  0  0  0  0  0  0  0  0  0
   18.7441  -13.4658  -15.8086 C   0  0  0  0  0  0  0  0  0  0  0  0
   18.2264  -12.2020  -15.6179 C   0  0  0  0  0  0  0  0  0  0  0  0
   19.0466  -11.0979  -15.3763 C   0  0  0  0  0  0  0  0  0  0  0  0
   22.1162   -7.9005  -15.6636 C   0  0  0  0  0  0  0  0  0  0  0  0
   23.3447   -7.9662  -15.4010 O   0  0  0  0  0  0  0  0  0  0  0  0
   22.3272   -4.6891  -17.3700 C   0  0  0  0  0  0  0  0  0  0  0  0
   21.8859   -4.3022  -15.9755 C   0  0  2  0  0  0  0  0  0  0  0  0
   22.6011   -3.0567  -15.5002 C   0  0  0  0  0  0  0  0  0  0  0  0
   22.1490   -5.4783  -15.0646 C   0  0  2  0  0  0  0  0  0  0  0  0
   21.4581   -6.6615  -15.4572 N   0  0  0  0  0  0  0  0  0  0  0  0
   21.7303   -5.0697  -13.6907 C   0  0  0  0  0  0  0  0  0  0  0  0
   20.5693   -5.3851  -13.2817 O   0  0  0  0  0  0  0  0  0  0  0  0
   22.5229   -4.3664  -12.8243 O   0  0  0  0  0  0  0  0  0  0  0  0
  2  1  1  6
  2  7  1  0
  2  3  1  0
  4  3  1  0
  4  5  1  0
  5  6  2  0
  7  8  2  0
  9  5  1  0
 10  7  1  0
 10 11  1  0
 11 12  1  1
 12 13  1  0
 13 14  2  0
 14 15  1  0
 16 15  2  0
 17 16  1  0
 18 13  1  0
 18 17  2  0
 19 25  1  0
 19 11  1  0
 20 19  2  0
 22 21  1  6
 22 24  1  0
 23 22  1  0
 24 25  1  6
 26 28  1  0
 26 24  1  0
 27 26  2  0
M  END
$$$$
