EFV.pdb
     RDKit          3D

 28 28  0  0  1  0  0  0  0  0999 V2000
   14.9078  -10.3670  -12.5922 N   0  0  0  0  0  0  0  0  0  0  0  0
   15.8191   -9.2599  -12.5403 C   0  0  1  0  0  0  0  0  0  0  0  0
   16.2198   -8.7685  -13.9098 C   0  0  0  0  0  0  0  0  0  0  0  0
   17.0987   -9.8406  -14.5193 C   0  0  0  0  0  0  0  0  0  0  0  0
   18.4933   -9.7409  -14.1160 C   0  0  0  0  0  0  0  0  0  0  0  0
   19.2008   -8.7808  -14.4873 O   0  0  0  0  0  0  0  0  0  0  0  0
   15.2336   -8.1962  -11.6969 C   0  0  0  0  0  0  0  0  0  0  0  0
   14.0326   -7.8829  -11.8567 O   0  0  0  0  0  0  0  0  0  0  0  0
   19.0571  -10.7104  -13.3136 O   0  0  0  0  0  0  0  0  0  0  0  0
   15.9581   -7.4930  -10.6982 N   0  0  0  0  0  0  0  0  0  0  0  0
   15.3501   -6.4336   -9.8777 C   0  0  1  0  0  0  0  0  0  0  0  0
   15.3362   -6.9377   -8.4823 C   0  0  0  0  0  0  0  0  0  0  0  0
   14.1020   -7.5454   -8.0053 C   0  0  0  0  0  0  0  0  0  0  0  0
   13.0949   -6.8234   -7.3880 C   0  0  0  0  0  0  0  0  0  0  0  0
   11.9425   -7.4378   -6.9612 C   0  0  0  0  0  0  0  0  0  0  0  0
   11.7289   -8.7906   -7.1225 C   0  0  0  0  0  0  0  0  0  0  0  0
   12.7335   -9.5075   -7.7378 C   0  0  0  0  0  0  0  0  0  0  0  0
   13.9108   -8.8986   -8.1775 C   0  0  0  0  0  0  0  0  0  0  0  0
   16.2448   -5.2556   -9.9683 C   0  0  0  0  0  0  0  0  0  0  0  0
   17.4824   -5.4209   -9.8151 O   0  0  0  0  0  0  0  0  0  0  0  0
   15.0145   -1.9194  -12.0440 C   0  0  0  0  0  0  0  0  0  0  0  0
   16.4770   -2.2662  -11.8701 C   0  0  2  0  0  0  0  0  0  0  0  0
   16.9442   -3.2242  -12.9437 C   0  0  0  0  0  0  0  0  0  0  0  0
   16.6524   -2.8492  -10.4876 C   0  0  2  0  0  0  0  0  0  0  0  0
   15.7763   -3.9412  -10.2205 N   0  0  0  0  0  0  0  0  0  0  0  0
   16.4094   -1.7442   -9.5130 C   0  0  0  0  0  0  0  0  0  0  0  0
   15.3198   -1.7283   -8.8594 O   0  0  0  0  0  0  0  0  0  0  0  0
   17.2934   -0.7282   -9.2688 O   0  0  0  0  0  0  0  0  0  0  0  0
  2  1  1  6
  2  7  1  0
  2  3  1  0
  4  3  1  0
  4  5  1  0
  5  6  2  0
  7  8  2  0
  9  5  1  0
 10  7  1  0
 10 11  1  0
 11 12  1  1
 12 13  1  0
 13 14  2  0
 14 15  1  0
 16 15  2  0
 17 16  1  0
 18 13  1  0
 18 17  2  0
 19 25  1  0
 19 11  1  0
 20 19  2  0
 22 21  1  6
 22 24  1  0
 23 22  1  0
 24 25  1  1
 26 28  1  0
 26 24  1  0
 27 26  2  0
M  END
$$$$
