AEP.pdb
     RDKit          3D

 22 22  0  0  1  0  0  0  0  0999 V2000
   20.2514  -16.8262  -14.5195 C   0  0  0  0  0  0  0  0  0  0  0  0
   19.8289  -18.2383  -14.8271 C   0  0  2  0  0  0  0  0  0  0  0  0
   18.6831  -18.6432  -14.0449 N   0  0  0  0  0  0  0  0  0  0  0  0
   20.9752  -19.1485  -14.5786 C   0  0  0  0  0  0  0  0  0  0  0  0
   21.0970  -19.6941  -13.4497 O   0  0  0  0  0  0  0  0  0  0  0  0
   21.9544  -19.4445  -15.5474 N   0  0  0  0  0  0  0  0  0  0  0  0
   23.0381  -20.3526  -15.2532 C   0  0  1  0  0  0  0  0  0  0  0  0
   23.4560  -21.0934  -16.4768 C   0  0  0  0  0  0  0  0  0  0  0  0
   24.7801  -21.7622  -16.3165 C   0  0  0  0  0  0  0  0  0  0  0  0
   25.1144  -22.4978  -17.6087 C   0  0  0  0  0  0  0  0  0  0  0  0
   25.4843  -21.9003  -18.6400 O   0  0  0  0  0  0  0  0  0  0  0  0
   24.1530  -19.7959  -14.5015 C   0  0  0  0  0  0  0  0  0  0  0  0
   24.5193  -18.5643  -14.7567 O   0  0  0  0  0  0  0  0  0  0  0  0
   24.9851  -23.8741  -17.5766 O   0  0  0  0  0  0  0  0  0  0  0  0
   24.9496  -20.3764  -13.4937 N   0  0  0  0  0  0  0  0  0  0  0  0
   24.7769  -21.7370  -13.0046 C   0  0  0  0  0  0  0  0  0  0  0  0
   25.7661  -21.9235  -11.8976 C   0  0  0  0  0  0  0  0  0  0  0  0
   26.0456  -20.5055  -11.4418 C   0  0  0  0  0  0  0  0  0  0  0  0
   26.0182  -19.7817  -12.7897 C   0  0  1  0  0  0  0  0  0  0  0  0
   27.3554  -20.0169  -13.4037 C   0  0  0  0  0  0  0  0  0  0  0  0
   28.4124  -19.4465  -13.0344 O   0  0  0  0  0  0  0  0  0  0  0  0
   27.4663  -20.9191  -14.4507 O   0  0  0  0  0  0  0  0  0  0  0  0
  2  1  1  1
  2  3  1  0
  4  6  1  0
  4  2  1  0
  5  4  2  0
  7  6  1  0
  7 12  1  0
  7  8  1  6
  9  8  1  0
 10  9  1  0
 11 10  2  0
 12 15  1  0
 13 12  2  0
 14 10  1  0
 15 16  1  0
 15 19  1  0
 16 17  1  0
 18 17  1  0
 19 18  1  0
 19 20  1  6
 20 21  2  0
 20 22  1  0
M  END
$$$$
