AEP.pdb
     RDKit          3D

 22 22  0  0  1  0  0  0  0  0999 V2000
   14.9074  -10.9702  -14.8915 C   0  0  0  0  0  0  0  0  0  0  0  0
   15.9871  -11.6962  -15.6493 C   0  0  2  0  0  0  0  0  0  0  0  0
   16.2491  -13.0058  -15.0972 N   0  0  0  0  0  0  0  0  0  0  0  0
   17.2214  -10.8711  -15.6372 C   0  0  0  0  0  0  0  0  0  0  0  0
   17.8725  -10.7498  -14.5656 O   0  0  0  0  0  0  0  0  0  0  0  0
   17.7180  -10.2022  -16.7734 N   0  0  0  0  0  0  0  0  0  0  0  0
   18.9900   -9.5193  -16.7351 C   0  0  1  0  0  0  0  0  0  0  0  0
   19.5558   -9.3754  -18.1061 C   0  0  0  0  0  0  0  0  0  0  0  0
   20.8431   -8.6209  -18.1174 C   0  0  0  0  0  0  0  0  0  0  0  0
   21.9157   -9.4963  -18.7545 C   0  0  0  0  0  0  0  0  0  0  0  0
   21.7142  -10.1411  -19.8038 O   0  0  0  0  0  0  0  0  0  0  0  0
   19.0332   -8.2906  -15.9564 C   0  0  0  0  0  0  0  0  0  0  0  0
   17.9510   -7.5548  -15.8989 O   0  0  0  0  0  0  0  0  0  0  0  0
   23.1341   -9.5378  -18.1021 O   0  0  0  0  0  0  0  0  0  0  0  0
   20.0875   -7.7226  -15.2128 N   0  0  0  0  0  0  0  0  0  0  0  0
   21.4272   -8.2888  -15.1397 C   0  0  0  0  0  0  0  0  0  0  0  0
   22.2057   -7.4277  -14.1957 C   0  0  0  0  0  0  0  0  0  0  0  0
   21.1271   -6.7722  -13.3569 C   0  0  0  0  0  0  0  0  0  0  0  0
   20.0547   -6.5518  -14.4260 C   0  0  1  0  0  0  0  0  0  0  0  0
   20.4584   -5.3175  -15.1569 C   0  0  0  0  0  0  0  0  0  0  0  0
   20.4449   -4.1646  -14.6575 O   0  0  0  0  0  0  0  0  0  0  0  0
   20.8805   -5.4225  -16.4735 O   0  0  0  0  0  0  0  0  0  0  0  0
  2  1  1  1
  2  3  1  0
  4  6  1  0
  4  2  1  0
  5  4  2  0
  7  6  1  0
  7 12  1  0
  7  8  1  6
  9  8  1  0
 10  9  1  0
 11 10  2  0
 12 15  1  0
 13 12  2  0
 14 10  1  0
 15 16  1  0
 15 19  1  0
 16 17  1  0
 18 17  1  0
 19 18  1  0
 19 20  1  6
 20 21  2  0
 20 22  1  0
M  END
$$$$
