AEP.pdb
     RDKit          3D

 22 22  0  0  1  0  0  0  0  0999 V2000
   18.3393  -12.6502  -18.0962 C   0  0  0  0  0  0  0  0  0  0  0  0
   19.5424  -12.2956  -17.2631 C   0  0  2  0  0  0  0  0  0  0  0  0
   19.7489  -13.2338  -16.1834 N   0  0  0  0  0  0  0  0  0  0  0  0
   19.3706  -10.9205  -16.7305 C   0  0  0  0  0  0  0  0  0  0  0  0
   19.3133   -9.9505  -17.5321 O   0  0  0  0  0  0  0  0  0  0  0  0
   19.2662  -10.6288  -15.3560 N   0  0  0  0  0  0  0  0  0  0  0  0
   19.0446   -9.2767  -14.8995 C   0  0  1  0  0  0  0  0  0  0  0  0
   18.0790   -9.2519  -13.7649 C   0  0  0  0  0  0  0  0  0  0  0  0
   17.8384   -7.8729  -13.2484 C   0  0  0  0  0  0  0  0  0  0  0  0
   16.8333   -7.9487  -12.1053 C   0  0  0  0  0  0  0  0  0  0  0  0
   17.1224   -8.4371  -10.9939 O   0  0  0  0  0  0  0  0  0  0  0  0
   20.2378   -8.4772  -14.6649 C   0  0  0  0  0  0  0  0  0  0  0  0
   21.2067   -9.0024  -13.9569 O   0  0  0  0  0  0  0  0  0  0  0  0
   15.5735   -7.4429  -12.3680 O   0  0  0  0  0  0  0  0  0  0  0  0
   20.5533   -7.1700  -15.0878 N   0  0  0  0  0  0  0  0  0  0  0  0
   19.6932   -6.3623  -15.9413 C   0  0  0  0  0  0  0  0  0  0  0  0
   20.4290   -5.0871  -16.2078 C   0  0  0  0  0  0  0  0  0  0  0  0
   21.8766   -5.4679  -15.9710 C   0  0  0  0  0  0  0  0  0  0  0  0
   21.7112   -6.4221  -14.7862 C   0  0  1  0  0  0  0  0  0  0  0  0
   21.5770   -5.5542  -13.5822 C   0  0  0  0  0  0  0  0  0  0  0  0
   20.4962   -5.3525  -12.9739 O   0  0  0  0  0  0  0  0  0  0  0  0
   22.7029   -4.9183  -13.0819 O   0  0  0  0  0  0  0  0  0  0  0  0
  2  1  1  1
  2  3  1  0
  4  6  1  0
  4  2  1  0
  5  4  2  0
  7  6  1  0
  7 12  1  0
  7  8  1  1
  9  8  1  0
 10  9  1  0
 11 10  2  0
 12 15  1  0
 13 12  2  0
 14 10  1  0
 15 16  1  0
 15 19  1  0
 16 17  1  0
 18 17  1  0
 19 18  1  0
 19 20  1  1
 20 21  2  0
 20 22  1  0
M  END
$$$$
