AEP.pdb
     RDKit          3D

 22 22  0  0  1  0  0  0  0  0999 V2000
   30.9799  -24.0397  -17.7399 C   0  0  0  0  0  0  0  0  0  0  0  0
   29.8778  -23.5621  -18.6479 C   0  0  2  0  0  0  0  0  0  0  0  0
   30.3908  -23.0421  -19.8949 N   0  0  0  0  0  0  0  0  0  0  0  0
   29.0861  -22.5250  -17.9394 C   0  0  0  0  0  0  0  0  0  0  0  0
   29.6263  -21.4232  -17.6545 O   0  0  0  0  0  0  0  0  0  0  0  0
   27.7413  -22.7020  -17.5583 N   0  0  0  0  0  0  0  0  0  0  0  0
   27.0397  -21.6801  -16.8173 C   0  0  1  0  0  0  0  0  0  0  0  0
   25.7835  -21.2870  -17.5158 C   0  0  0  0  0  0  0  0  0  0  0  0
   26.0368  -20.4249  -18.7070 C   0  0  0  0  0  0  0  0  0  0  0  0
   24.6967  -19.9938  -19.2909 C   0  0  0  0  0  0  0  0  0  0  0  0
   23.9690  -20.7740  -19.9381 O   0  0  0  0  0  0  0  0  0  0  0  0
   26.8600  -21.9307  -15.3951 C   0  0  0  0  0  0  0  0  0  0  0  0
   26.4749  -23.1252  -15.0199 O   0  0  0  0  0  0  0  0  0  0  0  0
   24.3275  -18.6810  -19.0627 O   0  0  0  0  0  0  0  0  0  0  0  0
   27.0377  -21.0718  -14.2914 N   0  0  0  0  0  0  0  0  0  0  0  0
   27.5342  -19.7069  -14.3959 C   0  0  0  0  0  0  0  0  0  0  0  0
   27.6412  -19.1814  -12.9991 C   0  0  0  0  0  0  0  0  0  0  0  0
   27.7462  -20.4413  -12.1634 C   0  0  0  0  0  0  0  0  0  0  0  0
   26.7859  -21.3519  -12.9316 C   0  0  1  0  0  0  0  0  0  0  0  0
   25.4179  -20.9742  -12.4770 C   0  0  0  0  0  0  0  0  0  0  0  0
   24.9465  -21.2554  -11.3467 O   0  0  0  0  0  0  0  0  0  0  0  0
   24.5939  -20.2661  -13.3383 O   0  0  0  0  0  0  0  0  0  0  0  0
  2  1  1  1
  2  3  1  0
  4  6  1  0
  4  2  1  0
  5  4  2  0
  7  6  1  0
  7 12  1  0
  7  8  1  6
  9  8  1  0
 10  9  1  0
 11 10  2  0
 12 15  1  0
 13 12  2  0
 14 10  1  0
 15 16  1  0
 15 19  1  0
 16 17  1  0
 18 17  1  0
 19 18  1  0
 19 20  1  1
 20 21  2  0
 20 22  1  0
M  END
$$$$
