AEP.pdb
     RDKit          3D

 22 22  0  0  1  0  0  0  0  0999 V2000
   16.9355  -14.0786  -16.9269 C   0  0  0  0  0  0  0  0  0  0  0  0
   16.7354  -12.6370  -16.5409 C   0  0  2  0  0  0  0  0  0  0  0  0
   15.8506  -11.9498  -17.4539 N   0  0  0  0  0  0  0  0  0  0  0  0
   18.0577  -11.9636  -16.4936 C   0  0  0  0  0  0  0  0  0  0  0  0
   18.9997  -12.4972  -15.8495 O   0  0  0  0  0  0  0  0  0  0  0  0
   18.3281  -10.7398  -17.1373 N   0  0  0  0  0  0  0  0  0  0  0  0
   19.6352  -10.1314  -17.0550 C   0  0  1  0  0  0  0  0  0  0  0  0
   19.9244   -9.3290  -18.2769 C   0  0  0  0  0  0  0  0  0  0  0  0
   21.2565   -8.6593  -18.2197 C   0  0  0  0  0  0  0  0  0  0  0  0
   21.4730   -7.8926  -19.5189 C   0  0  0  0  0  0  0  0  0  0  0  0
   20.5347   -7.6115  -20.2920 O   0  0  0  0  0  0  0  0  0  0  0  0
   19.9384   -9.4321  -15.8152 C   0  0  0  0  0  0  0  0  0  0  0  0
   19.0227   -8.6449  -15.3075 O   0  0  0  0  0  0  0  0  0  0  0  0
   22.7758   -7.5218  -19.7969 O   0  0  0  0  0  0  0  0  0  0  0  0
   21.1029   -9.4537  -15.0210 N   0  0  0  0  0  0  0  0  0  0  0  0
   22.2973  -10.2188  -15.3511 C   0  0  0  0  0  0  0  0  0  0  0  0
   23.2570  -10.0247  -14.2197 C   0  0  0  0  0  0  0  0  0  0  0  0
   22.3556   -9.6362  -13.0651 C   0  0  0  0  0  0  0  0  0  0  0  0
   21.3302   -8.7746  -13.8052 C   0  0  1  0  0  0  0  0  0  0  0  0
   21.9659   -7.4365  -13.9667 C   0  0  0  0  0  0  0  0  0  0  0  0
   22.4030   -6.9891  -15.0565 O   0  0  0  0  0  0  0  0  0  0  0  0
   22.0939   -6.6138  -12.8580 O   0  0  0  0  0  0  0  0  0  0  0  0
  2  1  1  6
  2  3  1  0
  4  6  1  0
  4  2  1  0
  5  4  2  0
  7  6  1  0
  7 12  1  0
  7  8  1  6
  9  8  1  0
 10  9  1  0
 11 10  2  0
 12 15  1  0
 13 12  2  0
 14 10  1  0
 15 16  1  0
 15 19  1  0
 16 17  1  0
 18 17  1  0
 19 18  1  0
 19 20  1  6
 20 21  2  0
 20 22  1  0
M  END
$$$$
