AEP.pdb
     RDKit          3D

 22 22  0  0  1  0  0  0  0  0999 V2000
   20.2239  -15.5035  -16.6504 C   0  0  0  0  0  0  0  0  0  0  0  0
   19.9327  -14.1695  -17.2852 C   0  0  2  0  0  0  0  0  0  0  0  0
   20.3243  -14.1347  -18.6759 N   0  0  0  0  0  0  0  0  0  0  0  0
   20.6366  -13.1091  -16.5208 C   0  0  0  0  0  0  0  0  0  0  0  0
   20.3294  -12.9094  -15.3155 O   0  0  0  0  0  0  0  0  0  0  0  0
   21.6466  -12.2963  -17.0725 N   0  0  0  0  0  0  0  0  0  0  0  0
   22.1933  -11.1853  -16.3291 C   0  0  1  0  0  0  0  0  0  0  0  0
   23.6434  -11.0117  -16.6251 C   0  0  0  0  0  0  0  0  0  0  0  0
   24.4946  -12.0180  -15.9257 C   0  0  0  0  0  0  0  0  0  0  0  0
   25.9425  -11.8154  -16.3562 C   0  0  0  0  0  0  0  0  0  0  0  0
   26.2764  -10.9449  -17.1856 O   0  0  0  0  0  0  0  0  0  0  0  0
   21.4359   -9.9439  -16.3846 C   0  0  0  0  0  0  0  0  0  0  0  0
   20.8293   -9.6374  -17.5044 O   0  0  0  0  0  0  0  0  0  0  0  0
   26.8738  -12.6549  -15.7734 O   0  0  0  0  0  0  0  0  0  0  0  0
   21.2269   -8.9618  -15.3951 N   0  0  0  0  0  0  0  0  0  0  0  0
   21.7361   -9.0585  -14.0343 C   0  0  0  0  0  0  0  0  0  0  0  0
   21.2296   -7.8569  -13.3006 C   0  0  0  0  0  0  0  0  0  0  0  0
   20.0122   -7.4486  -14.1055 C   0  0  0  0  0  0  0  0  0  0  0  0
   20.5136   -7.7507  -15.5194 C   0  0  1  0  0  0  0  0  0  0  0  0
   21.3579   -6.5859  -15.9078 C   0  0  0  0  0  0  0  0  0  0  0  0
   22.6129   -6.6108  -15.9642 O   0  0  0  0  0  0  0  0  0  0  0  0
   20.7422   -5.3869  -16.2331 O   0  0  0  0  0  0  0  0  0  0  0  0
  2  1  1  1
  2  3  1  0
  4  6  1  0
  4  2  1  0
  5  4  2  0
  7  6  1  0
  7 12  1  0
  7  8  1  6
  9  8  1  0
 10  9  1  0
 11 10  2  0
 12 15  1  0
 13 12  2  0
 14 10  1  0
 15 16  1  0
 15 19  1  0
 16 17  1  0
 18 17  1  0
 19 18  1  0
 19 20  1  1
 20 21  2  0
 20 22  1  0
M  END
$$$$
