AEP.pdb
     RDKit          3D

 22 22  0  0  1  0  0  0  0  0999 V2000
   18.5114  -15.5807  -17.1958 C   0  0  0  0  0  0  0  0  0  0  0  0
   17.9370  -14.2464  -16.7998 C   0  0  2  0  0  0  0  0  0  0  0  0
   16.8937  -13.8165  -17.7028 N   0  0  0  0  0  0  0  0  0  0  0  0
   19.0320  -13.2447  -16.7569 C   0  0  0  0  0  0  0  0  0  0  0  0
   19.9703  -13.3906  -15.9291 O   0  0  0  0  0  0  0  0  0  0  0  0
   19.0863  -12.1186  -17.6020 N   0  0  0  0  0  0  0  0  0  0  0  0
   20.1581  -11.1573  -17.4888 C   0  0  1  0  0  0  0  0  0  0  0  0
   20.2372  -10.3055  -18.7088 C   0  0  0  0  0  0  0  0  0  0  0  0
   21.3477   -9.3112  -18.6414 C   0  0  0  0  0  0  0  0  0  0  0  0
   21.2986   -8.4400  -19.8909 C   0  0  0  0  0  0  0  0  0  0  0  0
   20.4400   -8.5995  -20.7822 O   0  0  0  0  0  0  0  0  0  0  0  0
   20.2099  -10.4003  -16.2469 C   0  0  0  0  0  0  0  0  0  0  0  0
   19.0836   -9.9652  -15.7388 O   0  0  0  0  0  0  0  0  0  0  0  0
   22.2646   -7.4550  -19.9844 O   0  0  0  0  0  0  0  0  0  0  0  0
   21.3144  -10.0343  -15.4511 N   0  0  0  0  0  0  0  0  0  0  0  0
   22.7004  -10.2856  -15.8202 C   0  0  0  0  0  0  0  0  0  0  0  0
   23.5412   -9.8134  -14.6761 C   0  0  0  0  0  0  0  0  0  0  0  0
   22.5808   -9.8485  -13.5044 C   0  0  0  0  0  0  0  0  0  0  0  0
   21.2971   -9.3868  -14.1975 C   0  0  1  0  0  0  0  0  0  0  0  0
   21.3920   -7.9019  -14.2796 C   0  0  0  0  0  0  0  0  0  0  0  0
   21.2859   -7.1317  -13.2925 O   0  0  0  0  0  0  0  0  0  0  0  0
   21.6121   -7.3086  -15.5133 O   0  0  0  0  0  0  0  0  0  0  0  0
  2  1  1  6
  2  3  1  0
  4  6  1  0
  4  2  1  0
  5  4  2  0
  7  6  1  0
  7 12  1  0
  7  8  1  6
  9  8  1  0
 10  9  1  0
 11 10  2  0
 12 15  1  0
 13 12  2  0
 14 10  1  0
 15 16  1  0
 15 19  1  0
 16 17  1  0
 18 17  1  0
 19 18  1  0
 19 20  1  6
 20 21  2  0
 20 22  1  0
M  END
$$$$
