AEP.pdb
     RDKit          3D

 22 22  0  0  1  0  0  0  0  0999 V2000
   21.1985  -26.4701   -0.6607 C   0  0  0  0  0  0  0  0  0  0  0  0
   19.7164  -26.7026   -0.7887 C   0  0  2  0  0  0  0  0  0  0  0  0
   19.1916  -26.1800   -2.0297 N   0  0  0  0  0  0  0  0  0  0  0  0
   19.0295  -26.0776    0.3697 C   0  0  0  0  0  0  0  0  0  0  0  0
   18.7574  -24.8480    0.3364 O   0  0  0  0  0  0  0  0  0  0  0  0
   18.6566  -26.7900    1.5266 N   0  0  0  0  0  0  0  0  0  0  0  0
   17.9142  -26.1479    2.5860 C   0  0  1  0  0  0  0  0  0  0  0  0
   16.9711  -27.1061    3.2285 C   0  0  0  0  0  0  0  0  0  0  0  0
   16.1035  -26.4549    4.2530 C   0  0  0  0  0  0  0  0  0  0  0  0
   15.2520  -27.5266    4.9232 C   0  0  0  0  0  0  0  0  0  0  0  0
   15.7157  -28.6367    5.2546 O   0  0  0  0  0  0  0  0  0  0  0  0
   18.6974  -25.3757    3.5389 C   0  0  0  0  0  0  0  0  0  0  0  0
   19.9120  -25.7809    3.8157 O   0  0  0  0  0  0  0  0  0  0  0  0
   13.9271  -27.1999    5.1463 O   0  0  0  0  0  0  0  0  0  0  0  0
   18.3645  -24.2070    4.2534 N   0  0  0  0  0  0  0  0  0  0  0  0
   17.0728  -23.5405    4.1641 C   0  0  0  0  0  0  0  0  0  0  0  0
   17.1646  -22.3120    5.0133 C   0  0  0  0  0  0  0  0  0  0  0  0
   18.6554  -22.0472    5.0774 C   0  0  0  0  0  0  0  0  0  0  0  0
   19.1786  -23.4833    5.1504 C   0  0  1  0  0  0  0  0  0  0  0  0
   19.0302  -23.8972    6.5742 C   0  0  0  0  0  0  0  0  0  0  0  0
   18.1481  -24.6889    6.9913 O   0  0  0  0  0  0  0  0  0  0  0  0
   19.9104  -23.3902    7.5180 O   0  0  0  0  0  0  0  0  0  0  0  0
  2  1  1  1
  2  3  1  0
  4  6  1  0
  4  2  1  0
  5  4  2  0
  7  6  1  0
  7 12  1  0
  7  8  1  1
  9  8  1  0
 10  9  1  0
 11 10  2  0
 12 15  1  0
 13 12  2  0
 14 10  1  0
 15 16  1  0
 15 19  1  0
 16 17  1  0
 18 17  1  0
 19 18  1  0
 19 20  1  1
 20 21  2  0
 20 22  1  0
M  END
$$$$
