AEP.pdb
     RDKit          3D

 22 22  0  0  1  0  0  0  0  0999 V2000
   16.7309  -12.5244  -14.4065 C   0  0  0  0  0  0  0  0  0  0  0  0
   15.5143  -11.7909  -13.9073 C   0  0  2  0  0  0  0  0  0  0  0  0
   14.6413  -11.3921  -14.9878 N   0  0  0  0  0  0  0  0  0  0  0  0
   15.9530  -10.6049  -13.1294 C   0  0  0  0  0  0  0  0  0  0  0  0
   16.6459  -10.7697  -12.0903 O   0  0  0  0  0  0  0  0  0  0  0  0
   15.6349   -9.2804  -13.4895 N   0  0  0  0  0  0  0  0  0  0  0  0
   15.9757   -8.1746  -12.6254 C   0  0  1  0  0  0  0  0  0  0  0  0
   16.4858   -7.0203  -13.4178 C   0  0  0  0  0  0  0  0  0  0  0  0
   17.8805   -7.2318  -13.9040 C   0  0  0  0  0  0  0  0  0  0  0  0
   18.3458   -5.9669  -14.6156 C   0  0  0  0  0  0  0  0  0  0  0  0
   18.2722   -5.8326  -15.8540 O   0  0  0  0  0  0  0  0  0  0  0  0
   14.9747   -7.8037  -11.6362 C   0  0  0  0  0  0  0  0  0  0  0  0
   13.7165   -7.7950  -12.0006 O   0  0  0  0  0  0  0  0  0  0  0  0
   18.8580   -4.9679  -13.8084 O   0  0  0  0  0  0  0  0  0  0  0  0
   15.1264   -7.4343  -10.2843 N   0  0  0  0  0  0  0  0  0  0  0  0
   16.3773   -7.5456   -9.5471 C   0  0  0  0  0  0  0  0  0  0  0  0
   16.0857   -7.1237   -8.1415 C   0  0  0  0  0  0  0  0  0  0  0  0
   14.5910   -7.3417   -8.0187 C   0  0  0  0  0  0  0  0  0  0  0  0
   14.1429   -6.9125   -9.4174 C   0  0  1  0  0  0  0  0  0  0  0  0
   14.0885   -5.4237   -9.3869 C   0  0  0  0  0  0  0  0  0  0  0  0
   13.2234   -4.7612   -8.7610 O   0  0  0  0  0  0  0  0  0  0  0  0
   15.0432   -4.7006  -10.0854 O   0  0  0  0  0  0  0  0  0  0  0  0
  2  1  1  6
  2  3  1  0
  4  6  1  0
  4  2  1  0
  5  4  2  0
  7  6  1  0
  7 12  1  0
  7  8  1  6
  9  8  1  0
 10  9  1  0
 11 10  2  0
 12 15  1  0
 13 12  2  0
 14 10  1  0
 15 16  1  0
 15 19  1  0
 16 17  1  0
 18 17  1  0
 19 18  1  0
 19 20  1  1
 20 21  2  0
 20 22  1  0
M  END
$$$$
