AEP.pdb
     RDKit          3D

 22 22  0  0  1  0  0  0  0  0999 V2000
   25.8945  -23.4290  -15.7315 C   0  0  0  0  0  0  0  0  0  0  0  0
   26.0251  -21.9866  -16.1433 C   0  0  2  0  0  0  0  0  0  0  0  0
   27.3814  -21.5059  -16.0093 N   0  0  0  0  0  0  0  0  0  0  0  0
   25.0998  -21.1660  -15.3219 C   0  0  0  0  0  0  0  0  0  0  0  0
   25.4076  -20.8936  -14.1311 O   0  0  0  0  0  0  0  0  0  0  0  0
   23.8742  -20.6640  -15.8025 N   0  0  0  0  0  0  0  0  0  0  0  0
   22.9975  -19.9015  -14.9448 C   0  0  1  0  0  0  0  0  0  0  0  0
   22.3007  -18.8327  -15.7147 C   0  0  0  0  0  0  0  0  0  0  0  0
   21.3393  -18.0582  -14.8767 C   0  0  0  0  0  0  0  0  0  0  0  0
   20.6122  -17.0578  -15.7673 C   0  0  0  0  0  0  0  0  0  0  0  0
   21.0015  -16.7857  -16.9213 O   0  0  0  0  0  0  0  0  0  0  0  0
   22.1098  -20.6739  -14.0885 C   0  0  0  0  0  0  0  0  0  0  0  0
   21.5368  -21.7397  -14.5902 O   0  0  0  0  0  0  0  0  0  0  0  0
   19.4887  -16.4630  -15.2234 O   0  0  0  0  0  0  0  0  0  0  0  0
   21.7387  -20.4690  -12.7440 N   0  0  0  0  0  0  0  0  0  0  0  0
   22.2069  -19.3539  -11.9329 C   0  0  0  0  0  0  0  0  0  0  0  0
   21.6411  -19.5534  -10.5622 C   0  0  0  0  0  0  0  0  0  0  0  0
   21.3615  -21.0422  -10.5175 C   0  0  0  0  0  0  0  0  0  0  0  0
   20.8847  -21.2675  -11.9540 C   0  0  1  0  0  0  0  0  0  0  0  0
   19.4576  -20.8393  -11.9794 C   0  0  0  0  0  0  0  0  0  0  0  0
   18.5294  -21.4390  -11.3813 O   0  0  0  0  0  0  0  0  0  0  0  0
   19.1066  -19.7091  -12.7019 O   0  0  0  0  0  0  0  0  0  0  0  0
  2  1  1  1
  2  3  1  0
  4  6  1  0
  4  2  1  0
  5  4  2  0
  7  6  1  0
  7 12  1  0
  7  8  1  6
  9  8  1  0
 10  9  1  0
 11 10  2  0
 12 15  1  0
 13 12  2  0
 14 10  1  0
 15 16  1  0
 15 19  1  0
 16 17  1  0
 18 17  1  0
 19 18  1  0
 19 20  1  1
 20 21  2  0
 20 22  1  0
M  END
$$$$
