AEP.pdb
     RDKit          3D

 22 22  0  0  1  0  0  0  0  0999 V2000
   28.2077  -23.3588  -17.1714 C   0  0  0  0  0  0  0  0  0  0  0  0
   27.6978  -22.0342  -17.6739 C   0  0  2  0  0  0  0  0  0  0  0  0
   28.7716  -21.1703  -18.1089 N   0  0  0  0  0  0  0  0  0  0  0  0
   26.9104  -21.3820  -16.5973 C   0  0  0  0  0  0  0  0  0  0  0  0
   27.4849  -21.0503  -15.5264 O   0  0  0  0  0  0  0  0  0  0  0  0
   25.5326  -21.1066  -16.7026 N   0  0  0  0  0  0  0  0  0  0  0  0
   24.8213  -20.4587  -15.6256 C   0  0  1  0  0  0  0  0  0  0  0  0
   23.7423  -19.5789  -16.1566 C   0  0  0  0  0  0  0  0  0  0  0  0
   23.5610  -18.3412  -15.3433 C   0  0  0  0  0  0  0  0  0  0  0  0
   22.3479  -17.5843  -15.8708 C   0  0  0  0  0  0  0  0  0  0  0  0
   21.2342  -17.6354  -15.3104 O   0  0  0  0  0  0  0  0  0  0  0  0
   24.3855  -21.3207  -14.5370 C   0  0  0  0  0  0  0  0  0  0  0  0
   23.8019  -22.4539  -14.8393 O   0  0  0  0  0  0  0  0  0  0  0  0
   22.5496  -16.8317  -17.0131 O   0  0  0  0  0  0  0  0  0  0  0  0
   24.4864  -21.1445  -13.1421 N   0  0  0  0  0  0  0  0  0  0  0  0
   25.1860  -20.0334  -12.5121 C   0  0  0  0  0  0  0  0  0  0  0  0
   25.1177  -20.2657  -11.0356 C   0  0  0  0  0  0  0  0  0  0  0  0
   24.8888  -21.7601  -10.9314 C   0  0  0  0  0  0  0  0  0  0  0  0
   23.9589  -21.9718  -12.1280 C   0  0  1  0  0  0  0  0  0  0  0  0
   22.6012  -21.5711  -11.6625 C   0  0  0  0  0  0  0  0  0  0  0  0
   22.0491  -20.4799  -11.9511 O   0  0  0  0  0  0  0  0  0  0  0  0
   21.8810  -22.4415  -10.8587 O   0  0  0  0  0  0  0  0  0  0  0  0
  2  1  1  1
  2  3  1  0
  4  6  1  0
  4  2  1  0
  5  4  2  0
  7  6  1  0
  7 12  1  0
  7  8  1  6
  9  8  1  0
 10  9  1  0
 11 10  2  0
 12 15  1  0
 13 12  2  0
 14 10  1  0
 15 16  1  0
 15 19  1  0
 16 17  1  0
 18 17  1  0
 19 18  1  0
 19 20  1  1
 20 21  2  0
 20 22  1  0
M  END
$$$$
