AEP.pdb
     RDKit          3D

 22 22  0  0  1  0  0  0  0  0999 V2000
   48.9097  -12.0957   -8.2485 C   0  0  0  0  0  0  0  0  0  0  0  0
   47.7263  -11.7961   -7.3670 C   0  0  2  0  0  0  0  0  0  0  0  0
   47.9803  -12.1362   -5.9855 N   0  0  0  0  0  0  0  0  0  0  0  0
   46.5465  -12.5396   -7.8763 C   0  0  0  0  0  0  0  0  0  0  0  0
   46.3986  -13.7513   -7.5651 O   0  0  0  0  0  0  0  0  0  0  0  0
   45.5632  -11.9612   -8.7032 N   0  0  0  0  0  0  0  0  0  0  0  0
   44.4735  -12.7524   -9.2247 C   0  0  1  0  0  0  0  0  0  0  0  0
   43.4287  -11.8807   -9.8321 C   0  0  0  0  0  0  0  0  0  0  0  0
   42.2382  -12.6519  -10.2950 C   0  0  0  0  0  0  0  0  0  0  0  0
   41.2548  -11.6866  -10.9459 C   0  0  0  0  0  0  0  0  0  0  0  0
   41.4713  -10.4596  -11.0156 O   0  0  0  0  0  0  0  0  0  0  0  0
   44.8470  -13.8822  -10.0625 C   0  0  0  0  0  0  0  0  0  0  0  0
   45.8360  -13.7273  -10.9074 O   0  0  0  0  0  0  0  0  0  0  0  0
   40.1003  -12.2481  -11.4594 O   0  0  0  0  0  0  0  0  0  0  0  0
   44.3062  -15.1824  -10.1288 N   0  0  0  0  0  0  0  0  0  0  0  0
   43.2635  -15.6749   -9.2396 C   0  0  0  0  0  0  0  0  0  0  0  0
   43.0371  -17.1099   -9.5976 C   0  0  0  0  0  0  0  0  0  0  0  0
   44.3372  -17.5079  -10.2670 C   0  0  0  0  0  0  0  0  0  0  0  0
   44.6540  -16.2163  -11.0239 C   0  0  1  0  0  0  0  0  0  0  0  0
   43.8216  -16.2555  -12.2593 C   0  0  0  0  0  0  0  0  0  0  0  0
   44.0613  -16.9911  -13.2494 O   0  0  0  0  0  0  0  0  0  0  0  0
   42.7053  -15.4377  -12.3452 O   0  0  0  0  0  0  0  0  0  0  0  0
  2  1  1  6
  2  3  1  0
  4  6  1  0
  4  2  1  0
  5  4  2  0
  7  6  1  0
  7 12  1  0
  7  8  1  6
  9  8  1  0
 10  9  1  0
 11 10  2  0
 12 15  1  0
 13 12  2  0
 14 10  1  0
 15 16  1  0
 15 19  1  0
 16 17  1  0
 18 17  1  0
 19 18  1  0
 19 20  1  6
 20 21  2  0
 20 22  1  0
M  END
$$$$
