TQR.pdb
     RDKit          3D

 28 27  0  0  1  0  0  0  0  0999 V2000
   26.2262  -17.8692  -16.2334 C   0  0  0  0  0  0  0  0  0  0  0  0
   26.8216  -18.5904  -17.3791 C   0  0  1  0  0  0  0  0  0  0  0  0
   27.0559  -17.8024  -18.5011 O   0  0  0  0  0  0  0  0  0  0  0  0
   28.0943  -19.3568  -17.0765 C   0  0  2  0  0  0  0  0  0  0  0  0
   28.3534  -20.1213  -18.3119 N   0  0  0  0  0  0  0  0  0  0  0  0
   27.9931  -20.2041  -15.8922 C   0  0  0  0  0  0  0  0  0  0  0  0
   27.2745  -21.2689  -16.0100 O   0  0  0  0  0  0  0  0  0  0  0  0
   31.4335  -20.5667  -10.4727 N   0  0  0  0  0  0  0  0  0  0  0  0
   30.2383  -21.3006  -10.1739 C   0  0  0  0  0  0  0  0  0  0  0  0
   30.1978  -21.8039   -9.0258 O   0  0  0  0  0  0  0  0  0  0  0  0
   29.1828  -21.4174  -11.1637 C   0  0  0  0  0  0  0  0  0  0  0  0
   29.4052  -20.7828  -12.4769 C   0  0  0  0  0  0  0  0  0  0  0  0
   28.2728  -20.8790  -13.4774 C   0  0  2  0  0  0  0  0  0  0  0  0
   28.5911  -20.0039  -14.6269 N   0  0  0  0  0  0  0  0  0  0  0  0
   26.9970  -20.4795  -12.8561 C   0  0  0  0  0  0  0  0  0  0  0  0
   26.7510  -19.2458  -12.6648 O   0  0  0  0  0  0  0  0  0  0  0  0
   18.9976  -23.3500  -14.9351 N   0  0  0  0  0  0  0  0  0  0  0  0
   18.8162  -22.5501  -13.7824 C   0  0  0  0  0  0  0  0  0  0  0  0
   17.6164  -22.3512  -13.3163 N   0  0  0  0  0  0  0  0  0  0  0  0
   19.8552  -21.9276  -13.0612 N   0  0  0  0  0  0  0  0  0  0  0  0
   21.2437  -22.0986  -13.3121 C   0  0  0  0  0  0  0  0  0  0  0  0
   22.2074  -21.4377  -12.4696 C   0  0  0  0  0  0  0  0  0  0  0  0
   23.6405  -21.5924  -12.7402 C   0  0  0  0  0  0  0  0  0  0  0  0
   24.6779  -20.9277  -11.8978 C   0  0  2  0  0  0  0  0  0  0  0  0
   26.0054  -21.3814  -12.4536 N   0  0  0  0  0  0  0  0  0  0  0  0
   24.7738  -21.2488  -10.4868 C   0  0  0  0  0  0  0  0  0  0  0  0
   24.0761  -20.6932   -9.4316 O   0  0  0  0  0  0  0  0  0  0  0  0
   25.6035  -22.1564  -10.1192 O   0  0  0  0  0  0  0  0  0  0  0  0
  2  1  1  1
  2  3  1  0
  4  5  1  6
  4  2  1  0
  6  4  1  0
  7  6  2  0
  9  8  1  0
  9 10  2  0
 11 12  1  0
 11  9  1  0
 13 12  1  1
 13 14  1  0
 14  6  1  0
 15 13  1  0
 15 16  2  0
 18 17  1  0
 19 18  2  0
 20 18  1  0
 21 20  1  0
 22 23  1  0
 22 21  1  0
 24 23  1  6
 24 25  1  0
 25 15  1  0
 26 24  1  0
 27 26  1  0
 28 26  2  0
M  END
$$$$
