TQR.pdb
     RDKit          3D

 28 27  0  0  1  0  0  0  0  0999 V2000
   26.7208  -18.7746  -15.9622 C   0  0  0  0  0  0  0  0  0  0  0  0
   27.2864  -20.0177  -16.5297 C   0  0  1  0  0  0  0  0  0  0  0  0
   28.3200  -19.8211  -17.4396 O   0  0  0  0  0  0  0  0  0  0  0  0
   27.7501  -21.0451  -15.5157 C   0  0  2  0  0  0  0  0  0  0  0  0
   28.0986  -22.2227  -16.3339 N   0  0  0  0  0  0  0  0  0  0  0  0
   26.7537  -21.3379  -14.4900 C   0  0  0  0  0  0  0  0  0  0  0  0
   25.7187  -22.0065  -14.8719 O   0  0  0  0  0  0  0  0  0  0  0  0
   26.6746  -20.2303   -8.1045 N   0  0  0  0  0  0  0  0  0  0  0  0
   25.3729  -20.7516   -8.4052 C   0  0  0  0  0  0  0  0  0  0  0  0
   24.6303  -20.9308   -7.4104 O   0  0  0  0  0  0  0  0  0  0  0  0
   24.9937  -21.0298   -9.7786 C   0  0  0  0  0  0  0  0  0  0  0  0
   26.0308  -20.8786  -10.8171 C   0  0  0  0  0  0  0  0  0  0  0  0
   25.6355  -21.2522  -12.2301 C   0  0  2  0  0  0  0  0  0  0  0  0
   26.7840  -20.9816  -13.1223 N   0  0  0  0  0  0  0  0  0  0  0  0
   24.4517  -20.4842  -12.6573 C   0  0  0  0  0  0  0  0  0  0  0  0
   24.5641  -19.2399  -12.8983 O   0  0  0  0  0  0  0  0  0  0  0  0
   20.1997  -21.3486  -19.9040 N   0  0  0  0  0  0  0  0  0  0  0  0
   19.5430  -20.2910  -19.2320 C   0  0  0  0  0  0  0  0  0  0  0  0
   18.6263  -19.6030  -19.8507 N   0  0  0  0  0  0  0  0  0  0  0  0
   19.7959  -19.9007  -17.9013 N   0  0  0  0  0  0  0  0  0  0  0  0
   20.7799  -20.4753  -17.0517 C   0  0  0  0  0  0  0  0  0  0  0  0
   20.8499  -20.0756  -15.6695 C   0  0  0  0  0  0  0  0  0  0  0  0
   21.9206  -20.5962  -14.8129 C   0  0  0  0  0  0  0  0  0  0  0  0
   22.0154  -20.2415  -13.3663 C   0  0  2  0  0  0  0  0  0  0  0  0
   23.1779  -21.0385  -12.8273 N   0  0  0  0  0  0  0  0  0  0  0  0
   20.9275  -20.5800  -12.4691 C   0  0  0  0  0  0  0  0  0  0  0  0
   19.8595  -19.7939  -12.0813 O   0  0  0  0  0  0  0  0  0  0  0  0
   20.9122  -21.7478  -11.9367 O   0  0  0  0  0  0  0  0  0  0  0  0
  2  1  1  1
  2  3  1  0
  4  5  1  6
  4  2  1  0
  6  4  1  0
  7  6  2  0
  9  8  1  0
  9 10  2  0
 11 12  1  0
 11  9  1  0
 13 12  1  1
 13 14  1  0
 14  6  1  0
 15 13  1  0
 15 16  2  0
 18 17  1  0
 19 18  2  0
 20 18  1  0
 21 20  1  0
 22 23  1  0
 22 21  1  0
 24 23  1  6
 24 25  1  0
 25 15  1  0
 26 24  1  0
 27 26  1  0
 28 26  2  0
M  END
$$$$
