TQR.pdb
     RDKit          3D

 28 27  0  0  1  0  0  0  0  0999 V2000
   23.3504  -17.0709  -15.5100 C   0  0  0  0  0  0  0  0  0  0  0  0
   23.9301  -17.4942  -16.8031 C   0  0  1  0  0  0  0  0  0  0  0  0
   24.0442  -16.4786  -17.7467 O   0  0  0  0  0  0  0  0  0  0  0  0
   25.2690  -18.2003  -16.7173 C   0  0  2  0  0  0  0  0  0  0  0  0
   25.5022  -18.6921  -18.0890 N   0  0  0  0  0  0  0  0  0  0  0  0
   25.3008  -19.2631  -15.7172 C   0  0  0  0  0  0  0  0  0  0  0  0
   24.6404  -20.3347  -15.9997 O   0  0  0  0  0  0  0  0  0  0  0  0
   29.7027  -22.2899  -12.7404 N   0  0  0  0  0  0  0  0  0  0  0  0
   29.5971  -20.8600  -12.7168 C   0  0  0  0  0  0  0  0  0  0  0  0
   30.6443  -20.2561  -12.3826 O   0  0  0  0  0  0  0  0  0  0  0  0
   28.3466  -20.2112  -13.0669 C   0  0  0  0  0  0  0  0  0  0  0  0
   27.2068  -21.0756  -13.4283 C   0  0  0  0  0  0  0  0  0  0  0  0
   25.8539  -20.4045  -13.5364 C   0  0  2  0  0  0  0  0  0  0  0  0
   25.9721  -19.2657  -14.4731 N   0  0  0  0  0  0  0  0  0  0  0  0
   25.3961  -19.9449  -12.2126 C   0  0  0  0  0  0  0  0  0  0  0  0
   25.7302  -18.7887  -11.7993 O   0  0  0  0  0  0  0  0  0  0  0  0
   19.4647  -24.2148   -7.4439 N   0  0  0  0  0  0  0  0  0  0  0  0
   19.6302  -23.4239   -8.6051 C   0  0  0  0  0  0  0  0  0  0  0  0
   18.7367  -23.4710   -9.5515 N   0  0  0  0  0  0  0  0  0  0  0  0
   20.7130  -22.5523   -8.8397 N   0  0  0  0  0  0  0  0  0  0  0  0
   21.3270  -21.7260   -7.8596 C   0  0  0  0  0  0  0  0  0  0  0  0
   22.4458  -20.8959   -8.2263 C   0  0  0  0  0  0  0  0  0  0  0  0
   23.0664  -21.0494   -9.5463 C   0  0  0  0  0  0  0  0  0  0  0  0
   24.2682  -20.2611   -9.9487 C   0  0  2  0  0  0  0  0  0  0  0  0
   24.5943  -20.7051  -11.3536 N   0  0  0  0  0  0  0  0  0  0  0  0
   25.5189  -20.4417   -9.2373 C   0  0  0  0  0  0  0  0  0  0  0  0
   26.0024  -19.7275   -8.1579 O   0  0  0  0  0  0  0  0  0  0  0  0
   26.3172  -21.3687   -9.6256 O   0  0  0  0  0  0  0  0  0  0  0  0
  2  1  1  1
  2  3  1  0
  4  5  1  6
  4  2  1  0
  6  4  1  0
  7  6  2  0
  9  8  1  0
  9 10  2  0
 11 12  1  0
 11  9  1  0
 13 12  1  1
 13 14  1  0
 14  6  1  0
 15 13  1  0
 15 16  2  0
 18 17  1  0
 19 18  2  0
 20 18  1  0
 21 20  1  0
 22 23  1  0
 22 21  1  0
 24 23  1  1
 24 25  1  0
 25 15  1  0
 26 24  1  0
 27 26  1  0
 28 26  2  0
M  END
$$$$
