TQR.pdb
     RDKit          3D

 28 27  0  0  1  0  0  0  0  0999 V2000
   26.7081  -19.2402  -16.6073 C   0  0  0  0  0  0  0  0  0  0  0  0
   27.3531  -20.4834  -17.0827 C   0  0  1  0  0  0  0  0  0  0  0  0
   28.3167  -20.2957  -18.0681 O   0  0  0  0  0  0  0  0  0  0  0  0
   27.9586  -21.3577  -16.0022 C   0  0  2  0  0  0  0  0  0  0  0  0
   28.3541  -22.5867  -16.7170 N   0  0  0  0  0  0  0  0  0  0  0  0
   27.0518  -21.6132  -14.8873 C   0  0  0  0  0  0  0  0  0  0  0  0
   26.0407  -22.3752  -15.1350 O   0  0  0  0  0  0  0  0  0  0  0  0
   25.6841  -19.1685   -9.2402 N   0  0  0  0  0  0  0  0  0  0  0  0
   25.4470  -20.5679   -9.0349 C   0  0  0  0  0  0  0  0  0  0  0  0
   24.8573  -20.8549   -7.9658 O   0  0  0  0  0  0  0  0  0  0  0  0
   25.8761  -21.5375  -10.0264 C   0  0  0  0  0  0  0  0  0  0  0  0
   26.6266  -21.0345  -11.1929 C   0  0  0  0  0  0  0  0  0  0  0  0
   26.1011  -21.4261  -12.5579 C   0  0  2  0  0  0  0  0  0  0  0  0
   27.1465  -21.1304  -13.5620 N   0  0  0  0  0  0  0  0  0  0  0  0
   24.8604  -20.6918  -12.8658 C   0  0  0  0  0  0  0  0  0  0  0  0
   24.9274  -19.4853  -13.2644 O   0  0  0  0  0  0  0  0  0  0  0  0
   19.3375  -17.3510  -17.2842 N   0  0  0  0  0  0  0  0  0  0  0  0
   20.7164  -17.3082  -17.5975 C   0  0  0  0  0  0  0  0  0  0  0  0
   21.2218  -16.2396  -18.1442 N   0  0  0  0  0  0  0  0  0  0  0  0
   21.6303  -18.3547  -17.3593 N   0  0  0  0  0  0  0  0  0  0  0  0
   21.3098  -19.6014  -16.7566 C   0  0  0  0  0  0  0  0  0  0  0  0
   21.2451  -19.7039  -15.3211 C   0  0  0  0  0  0  0  0  0  0  0  0
   22.3808  -20.2593  -14.5776 C   0  0  0  0  0  0  0  0  0  0  0  0
   22.3327  -20.4599  -13.0994 C   0  0  2  0  0  0  0  0  0  0  0  0
   23.5775  -21.2399  -12.7540 N   0  0  0  0  0  0  0  0  0  0  0  0
   21.2655  -21.2483  -12.5141 C   0  0  0  0  0  0  0  0  0  0  0  0
   21.2732  -22.5893  -12.1817 O   0  0  0  0  0  0  0  0  0  0  0  0
   20.1474  -20.6727  -12.2574 O   0  0  0  0  0  0  0  0  0  0  0  0
  2  1  1  1
  2  3  1  0
  4  5  1  6
  4  2  1  0
  6  4  1  0
  7  6  2  0
  9  8  1  0
  9 10  2  0
 11 12  1  0
 11  9  1  0
 13 12  1  1
 13 14  1  0
 14  6  1  0
 15 13  1  0
 15 16  2  0
 18 17  1  0
 19 18  2  0
 20 18  1  0
 21 20  1  0
 22 23  1  0
 22 21  1  0
 24 23  1  6
 24 25  1  0
 25 15  1  0
 26 24  1  0
 27 26  1  0
 28 26  2  0
M  END
$$$$
