TQR.pdb
     RDKit          3D

 28 27  0  0  1  0  0  0  0  0999 V2000
   25.4166  -14.9933  -17.1151 C   0  0  0  0  0  0  0  0  0  0  0  0
   24.7690  -13.6797  -16.9093 C   0  0  1  0  0  0  0  0  0  0  0  0
   25.3683  -12.8843  -15.9382 O   0  0  0  0  0  0  0  0  0  0  0  0
   24.5950  -12.8362  -18.1571 C   0  0  2  0  0  0  0  0  0  0  0  0
   25.9729  -12.6278  -18.6426 N   0  0  0  0  0  0  0  0  0  0  0  0
   23.8797  -11.5867  -17.9170 C   0  0  0  0  0  0  0  0  0  0  0  0
   24.4155  -10.5182  -18.4023 O   0  0  0  0  0  0  0  0  0  0  0  0
   20.6634   -9.2146  -21.3153 N   0  0  0  0  0  0  0  0  0  0  0  0
   20.3085   -8.3240  -20.2489 C   0  0  0  0  0  0  0  0  0  0  0  0
   19.6019   -7.3449  -20.5882 O   0  0  0  0  0  0  0  0  0  0  0  0
   20.7584   -8.5866  -18.8939 C   0  0  0  0  0  0  0  0  0  0  0  0
   21.6143   -9.7683  -18.6757 C   0  0  0  0  0  0  0  0  0  0  0  0
   21.9547  -10.1037  -17.2390 C   0  0  2  0  0  0  0  0  0  0  0  0
   22.6644  -11.4014  -17.2189 N   0  0  0  0  0  0  0  0  0  0  0  0
   20.7319  -10.1658  -16.4177 C   0  0  0  0  0  0  0  0  0  0  0  0
   19.9085  -11.1206  -16.5891 O   0  0  0  0  0  0  0  0  0  0  0  0
   19.3053   -4.9460   -9.5229 N   0  0  0  0  0  0  0  0  0  0  0  0
   20.0170   -6.1450   -9.7618 C   0  0  0  0  0  0  0  0  0  0  0  0
   21.1234   -6.3792   -9.1158 N   0  0  0  0  0  0  0  0  0  0  0  0
   19.6215   -7.1510  -10.6667 N   0  0  0  0  0  0  0  0  0  0  0  0
   18.4562   -7.1100  -11.4796 C   0  0  0  0  0  0  0  0  0  0  0  0
   18.2641   -8.1071  -12.5014 C   0  0  0  0  0  0  0  0  0  0  0  0
   19.3287   -8.3673  -13.4761 C   0  0  0  0  0  0  0  0  0  0  0  0
   19.1575   -9.3493  -14.5869 C   0  0  2  0  0  0  0  0  0  0  0  0
   20.4020   -9.2289  -15.4318 N   0  0  0  0  0  0  0  0  0  0  0  0
   18.0809   -9.1748  -15.5426 C   0  0  0  0  0  0  0  0  0  0  0  0
   18.0971   -8.4764  -16.7347 O   0  0  0  0  0  0  0  0  0  0  0  0
   16.9442   -9.7157  -15.2919 O   0  0  0  0  0  0  0  0  0  0  0  0
  2  1  1  6
  2  3  1  0
  4  5  1  1
  4  2  1  0
  6  4  1  0
  7  6  2  0
  9  8  1  0
  9 10  2  0
 11 12  1  0
 11  9  1  0
 13 12  1  6
 13 14  1  0
 14  6  1  0
 15 13  1  0
 15 16  2  0
 18 17  1  0
 19 18  2  0
 20 18  1  0
 21 20  1  0
 22 23  1  0
 22 21  1  0
 24 23  1  1
 24 25  1  0
 25 15  1  0
 26 24  1  0
 27 26  1  0
 28 26  2  0
M  END
$$$$
