TQR.pdb
     RDKit          3D

 28 27  0  0  1  0  0  0  0  0999 V2000
   23.3941  -21.9710  -12.3864 C   0  0  0  0  0  0  0  0  0  0  0  0
   23.8631  -20.9154  -11.4627 C   0  0  1  0  0  0  0  0  0  0  0  0
   23.2416  -20.9169  -10.2183 O   0  0  0  0  0  0  0  0  0  0  0  0
   25.3610  -20.8686  -11.2332 C   0  0  2  0  0  0  0  0  0  0  0  0
   25.5345  -19.8088  -10.2210 N   0  0  0  0  0  0  0  0  0  0  0  0
   26.1268  -20.6244  -12.4516 C   0  0  0  0  0  0  0  0  0  0  0  0
   26.1018  -19.4194  -12.9115 O   0  0  0  0  0  0  0  0  0  0  0  0
   30.2273  -24.3082  -15.8378 N   0  0  0  0  0  0  0  0  0  0  0  0
   29.9737  -23.1767  -16.6816 C   0  0  0  0  0  0  0  0  0  0  0  0
   30.6091  -23.1682  -17.7629 O   0  0  0  0  0  0  0  0  0  0  0  0
   29.0375  -22.1478  -16.2667 C   0  0  0  0  0  0  0  0  0  0  0  0
   28.4424  -22.2684  -14.9220 C   0  0  0  0  0  0  0  0  0  0  0  0
   27.4374  -21.2070  -14.5271 C   0  0  2  0  0  0  0  0  0  0  0  0
   26.8998  -21.5480  -13.1918 N   0  0  0  0  0  0  0  0  0  0  0  0
   26.3514  -21.1264  -15.5208 C   0  0  0  0  0  0  0  0  0  0  0  0
   25.2672  -21.7610  -15.3188 O   0  0  0  0  0  0  0  0  0  0  0  0
   20.9417  -19.9459  -12.7596 N   0  0  0  0  0  0  0  0  0  0  0  0
   20.3285  -19.2337  -13.8170 C   0  0  0  0  0  0  0  0  0  0  0  0
   19.1740  -18.6617  -13.6265 N   0  0  0  0  0  0  0  0  0  0  0  0
   20.8751  -19.0761  -15.1067 N   0  0  0  0  0  0  0  0  0  0  0  0
   22.1020  -19.6394  -15.5513 C   0  0  0  0  0  0  0  0  0  0  0  0
   23.0191  -18.8359  -16.3185 C   0  0  0  0  0  0  0  0  0  0  0  0
   24.4604  -19.0949  -16.2367 C   0  0  0  0  0  0  0  0  0  0  0  0
   25.2053  -19.7628  -17.3442 C   0  0  2  0  0  0  0  0  0  0  0  0
   26.4240  -20.3785  -16.7016 N   0  0  0  0  0  0  0  0  0  0  0  0
   25.7570  -18.9667  -18.4235 C   0  0  0  0  0  0  0  0  0  0  0  0
   26.8386  -18.1077  -18.3892 O   0  0  0  0  0  0  0  0  0  0  0  0
   25.2008  -19.0297  -19.5785 O   0  0  0  0  0  0  0  0  0  0  0  0
  2  1  1  1
  2  3  1  0
  4  5  1  1
  4  2  1  0
  6  4  1  0
  7  6  2  0
  9  8  1  0
  9 10  2  0
 11 12  1  0
 11  9  1  0
 13 12  1  6
 13 14  1  0
 14  6  1  0
 15 13  1  0
 15 16  2  0
 18 17  1  0
 19 18  2  0
 20 18  1  0
 21 20  1  0
 22 23  1  0
 22 21  1  0
 24 23  1  1
 24 25  1  0
 25 15  1  0
 26 24  1  0
 27 26  1  0
 28 26  2  0
M  END
$$$$
