TQR.pdb
     RDKit          3D

 28 27  0  0  1  0  0  0  0  0999 V2000
   16.0877   -9.1482  -15.2200 C   0  0  0  0  0  0  0  0  0  0  0  0
   16.7705  -10.4569  -15.1264 C   0  0  1  0  0  0  0  0  0  0  0  0
   16.3297  -11.4068  -16.0419 O   0  0  0  0  0  0  0  0  0  0  0  0
   18.2841  -10.4090  -15.2000 C   0  0  2  0  0  0  0  0  0  0  0  0
   18.6957  -11.8133  -15.0100 N   0  0  0  0  0  0  0  0  0  0  0  0
   18.8834   -9.5022  -14.2257 C   0  0  0  0  0  0  0  0  0  0  0  0
   18.7568   -9.8308  -12.9846 O   0  0  0  0  0  0  0  0  0  0  0  0
   22.5737   -4.2292  -14.8981 N   0  0  0  0  0  0  0  0  0  0  0  0
   22.1172   -4.1804  -13.5395 C   0  0  0  0  0  0  0  0  0  0  0  0
   22.5166   -3.1906  -12.8808 O   0  0  0  0  0  0  0  0  0  0  0  0
   21.2546   -5.2250  -13.0178 C   0  0  0  0  0  0  0  0  0  0  0  0
   20.8883   -6.3261  -13.9289 C   0  0  0  0  0  0  0  0  0  0  0  0
   19.9520   -7.3803  -13.3770 C   0  0  2  0  0  0  0  0  0  0  0  0
   19.5925   -8.3048  -14.4744 N   0  0  0  0  0  0  0  0  0  0  0  0
   18.7452   -6.7543  -12.8067 C   0  0  0  0  0  0  0  0  0  0  0  0
   17.8921   -6.2148  -13.5814 O   0  0  0  0  0  0  0  0  0  0  0  0
   12.5659  -10.3065   -8.0441 N   0  0  0  0  0  0  0  0  0  0  0  0
   12.2941   -8.9197   -7.9792 C   0  0  0  0  0  0  0  0  0  0  0  0
   11.1705   -8.5049   -7.4676 N   0  0  0  0  0  0  0  0  0  0  0  0
   13.1629   -7.9057   -8.4310 N   0  0  0  0  0  0  0  0  0  0  0  0
   14.3910   -8.1224   -9.1128 C   0  0  0  0  0  0  0  0  0  0  0  0
   15.1356   -6.9965   -9.6161 C   0  0  0  0  0  0  0  0  0  0  0  0
   16.4271   -7.2125  -10.2767 C   0  0  0  0  0  0  0  0  0  0  0  0
   17.1923   -6.0914  -10.8972 C   0  0  2  0  0  0  0  0  0  0  0  0
   18.4570   -6.7121  -11.4379 N   0  0  0  0  0  0  0  0  0  0  0  0
   17.6759   -5.0042  -10.0683 C   0  0  0  0  0  0  0  0  0  0  0  0
   17.0051   -3.8625   -9.6740 O   0  0  0  0  0  0  0  0  0  0  0  0
   18.8782   -5.0606   -9.6225 O   0  0  0  0  0  0  0  0  0  0  0  0
  2  1  1  6
  2  3  1  0
  4  5  1  1
  4  2  1  0
  6  4  1  0
  7  6  2  0
  9  8  1  0
  9 10  2  0
 11 12  1  0
 11  9  1  0
 13 12  1  6
 13 14  1  0
 14  6  1  0
 15 13  1  0
 15 16  2  0
 18 17  1  0
 19 18  2  0
 20 18  1  0
 21 20  1  0
 22 23  1  0
 22 21  1  0
 24 23  1  1
 24 25  1  0
 25 15  1  0
 26 24  1  0
 27 26  1  0
 28 26  2  0
M  END
$$$$
