TQR.pdb
     RDKit          3D

 28 27  0  0  1  0  0  0  0  0999 V2000
   21.2888  -21.9220  -16.5035 C   0  0  0  0  0  0  0  0  0  0  0  0
   20.3063  -21.1652  -15.6977 C   0  0  1  0  0  0  0  0  0  0  0  0
   18.9966  -21.6220  -15.8025 O   0  0  0  0  0  0  0  0  0  0  0  0
   20.6353  -21.0341  -14.2235 C   0  0  2  0  0  0  0  0  0  0  0  0
   19.5997  -20.1187  -13.7063 N   0  0  0  0  0  0  0  0  0  0  0  0
   21.9927  -20.5597  -13.9725 C   0  0  0  0  0  0  0  0  0  0  0  0
   22.2230  -19.3180  -14.2362 O   0  0  0  0  0  0  0  0  0  0  0  0
   26.0699  -21.8795   -9.4895 N   0  0  0  0  0  0  0  0  0  0  0  0
   24.8757  -21.0875   -9.5470 C   0  0  0  0  0  0  0  0  0  0  0  0
   24.3748  -20.8012   -8.4334 O   0  0  0  0  0  0  0  0  0  0  0  0
   24.3323  -20.6721  -10.8275 C   0  0  0  0  0  0  0  0  0  0  0  0
   25.0464  -21.1036  -12.0444 C   0  0  0  0  0  0  0  0  0  0  0  0
   24.4387  -20.6930  -13.3690 C   0  0  2  0  0  0  0  0  0  0  0  0
   23.0909  -21.2944  -13.4698 N   0  0  0  0  0  0  0  0  0  0  0  0
   25.2907  -21.1334  -14.4887 C   0  0  0  0  0  0  0  0  0  0  0  0
   25.1859  -22.3233  -14.9271 O   0  0  0  0  0  0  0  0  0  0  0  0
   29.9486  -15.8702  -19.9896 N   0  0  0  0  0  0  0  0  0  0  0  0
   28.6497  -16.4271  -20.0538 C   0  0  0  0  0  0  0  0  0  0  0  0
   27.7048  -15.7914  -20.6857 N   0  0  0  0  0  0  0  0  0  0  0  0
   28.2701  -17.6566  -19.4782 N   0  0  0  0  0  0  0  0  0  0  0  0
   29.0860  -18.4490  -18.6258 C   0  0  0  0  0  0  0  0  0  0  0  0
   28.5561  -19.6617  -18.0567 C   0  0  0  0  0  0  0  0  0  0  0  0
   27.5914  -19.5893  -16.9542 C   0  0  0  0  0  0  0  0  0  0  0  0
   27.1005  -20.8130  -16.2549 C   0  0  2  0  0  0  0  0  0  0  0  0
   26.2298  -20.3155  -15.1272 N   0  0  0  0  0  0  0  0  0  0  0  0
   28.0450  -21.6911  -15.5917 C   0  0  0  0  0  0  0  0  0  0  0  0
   28.4355  -21.6864  -14.2664 O   0  0  0  0  0  0  0  0  0  0  0  0
   28.6237  -22.6043  -16.2836 O   0  0  0  0  0  0  0  0  0  0  0  0
  2  1  1  1
  2  3  1  0
  4  5  1  6
  4  2  1  0
  6  4  1  0
  7  6  2  0
  9  8  1  0
  9 10  2  0
 11 12  1  0
 11  9  1  0
 13 12  1  1
 13 14  1  0
 14  6  1  0
 15 13  1  0
 15 16  2  0
 18 17  1  0
 19 18  2  0
 20 18  1  0
 21 20  1  0
 22 23  1  0
 22 21  1  0
 24 23  1  1
 24 25  1  0
 25 15  1  0
 26 24  1  0
 27 26  1  0
 28 26  2  0
M  END
$$$$
