TQR.pdb
     RDKit          3D

 28 27  0  0  1  0  0  0  0  0999 V2000
   23.5336  -21.4561  -11.2245 C   0  0  0  0  0  0  0  0  0  0  0  0
   24.2842  -20.7896  -10.1383 C   0  0  1  0  0  0  0  0  0  0  0  0
   23.8451  -21.1005   -8.8556 O   0  0  0  0  0  0  0  0  0  0  0  0
   25.7879  -20.9805  -10.1729 C   0  0  2  0  0  0  0  0  0  0  0  0
   26.2749  -20.1900   -9.0258 N   0  0  0  0  0  0  0  0  0  0  0  0
   26.3939  -20.5809  -11.4393 C   0  0  0  0  0  0  0  0  0  0  0  0
   26.3227  -19.3278  -11.7376 O   0  0  0  0  0  0  0  0  0  0  0  0
   30.4379  -23.3604  -15.6172 N   0  0  0  0  0  0  0  0  0  0  0  0
   29.7209  -22.4013  -16.4064 C   0  0  0  0  0  0  0  0  0  0  0  0
   30.0991  -22.3062  -17.5984 O   0  0  0  0  0  0  0  0  0  0  0  0
   28.6428  -21.6272  -15.8185 C   0  0  0  0  0  0  0  0  0  0  0  0
   28.3301  -21.8628  -14.3960 C   0  0  0  0  0  0  0  0  0  0  0  0
   27.3235  -20.9283  -13.7588 C   0  0  2  0  0  0  0  0  0  0  0  0
   27.0563  -21.3998  -12.3823 N   0  0  0  0  0  0  0  0  0  0  0  0
   26.0787  -20.8915  -14.5477 C   0  0  0  0  0  0  0  0  0  0  0  0
   25.2109  -21.8095  -14.3945 O   0  0  0  0  0  0  0  0  0  0  0  0
   20.7260  -14.1094  -15.7584 N   0  0  0  0  0  0  0  0  0  0  0  0
   20.1455  -15.1868  -16.4680 C   0  0  0  0  0  0  0  0  0  0  0  0
   18.9663  -15.0473  -17.0030 N   0  0  0  0  0  0  0  0  0  0  0  0
   20.7511  -16.4451  -16.6607 N   0  0  0  0  0  0  0  0  0  0  0  0
   21.9968  -16.8483  -16.1077 C   0  0  0  0  0  0  0  0  0  0  0  0
   22.5405  -18.1400  -16.4413 C   0  0  0  0  0  0  0  0  0  0  0  0
   23.8014  -18.5795  -15.8347 C   0  0  0  0  0  0  0  0  0  0  0  0
   24.4591  -19.8612  -16.2249 C   0  0  2  0  0  0  0  0  0  0  0  0
   25.7688  -19.8909  -15.4759 N   0  0  0  0  0  0  0  0  0  0  0  0
   24.8523  -20.0781  -17.6038 C   0  0  0  0  0  0  0  0  0  0  0  0
   24.0629  -20.4637  -18.6701 O   0  0  0  0  0  0  0  0  0  0  0  0
   26.0833  -19.9076  -17.9248 O   0  0  0  0  0  0  0  0  0  0  0  0
  2  1  1  6
  2  3  1  0
  4  5  1  1
  4  2  1  0
  6  4  1  0
  7  6  2  0
  9  8  1  0
  9 10  2  0
 11 12  1  0
 11  9  1  0
 13 12  1  6
 13 14  1  0
 14  6  1  0
 15 13  1  0
 15 16  2  0
 18 17  1  0
 19 18  2  0
 20 18  1  0
 21 20  1  0
 22 23  1  0
 22 21  1  0
 24 23  1  6
 24 25  1  0
 25 15  1  0
 26 24  1  0
 27 26  1  0
 28 26  2  0
M  END
$$$$
