TQR.pdb
     RDKit          3D

 28 27  0  0  1  0  0  0  0  0999 V2000
   27.3459  -23.2276  -15.8875 C   0  0  0  0  0  0  0  0  0  0  0  0
   25.9320  -23.6613  -15.8714 C   0  0  1  0  0  0  0  0  0  0  0  0
   25.1427  -23.1002  -16.8698 O   0  0  0  0  0  0  0  0  0  0  0  0
   25.7100  -25.1609  -15.8923 C   0  0  2  0  0  0  0  0  0  0  0  0
   26.1477  -25.5682  -17.2415 N   0  0  0  0  0  0  0  0  0  0  0  0
   24.3334  -25.5473  -15.5985 C   0  0  0  0  0  0  0  0  0  0  0  0
   23.5321  -25.6211  -16.6068 O   0  0  0  0  0  0  0  0  0  0  0  0
   21.7336  -28.7557  -10.7110 N   0  0  0  0  0  0  0  0  0  0  0  0
   20.6065  -28.3568  -11.5029 C   0  0  0  0  0  0  0  0  0  0  0  0
   19.4976  -28.7820  -11.0997 O   0  0  0  0  0  0  0  0  0  0  0  0
   20.7926  -27.5185  -12.6734 C   0  0  0  0  0  0  0  0  0  0  0  0
   22.1637  -27.0671  -12.9787 C   0  0  0  0  0  0  0  0  0  0  0  0
   22.3332  -26.1922  -14.2028 C   0  0  2  0  0  0  0  0  0  0  0  0
   23.7672  -25.8562  -14.3405 N   0  0  0  0  0  0  0  0  0  0  0  0
   21.5206  -24.9682  -14.0815 C   0  0  0  0  0  0  0  0  0  0  0  0
   21.9169  -24.0238  -13.3264 O   0  0  0  0  0  0  0  0  0  0  0  0
   17.2842  -18.6568  -18.1241 N   0  0  0  0  0  0  0  0  0  0  0  0
   18.4819  -19.2479  -18.5904 C   0  0  0  0  0  0  0  0  0  0  0  0
   19.3525  -18.5230  -19.2330 N   0  0  0  0  0  0  0  0  0  0  0  0
   18.8357  -20.6008  -18.4130 N   0  0  0  0  0  0  0  0  0  0  0  0
   18.0724  -21.5600  -17.6936 C   0  0  0  0  0  0  0  0  0  0  0  0
   18.4176  -21.8682  -16.3293 C   0  0  0  0  0  0  0  0  0  0  0  0
   19.2539  -23.0364  -16.0345 C   0  0  0  0  0  0  0  0  0  0  0  0
   19.5301  -23.4751  -14.6349 C   0  0  2  0  0  0  0  0  0  0  0  0
   20.3134  -24.7590  -14.7580 N   0  0  0  0  0  0  0  0  0  0  0  0
   18.4288  -23.8323  -13.7617 C   0  0  0  0  0  0  0  0  0  0  0  0
   17.6362  -22.9989  -12.9962 O   0  0  0  0  0  0  0  0  0  0  0  0
   18.1137  -25.0713  -13.6473 O   0  0  0  0  0  0  0  0  0  0  0  0
  2  1  1  6
  2  3  1  0
  4  5  1  6
  4  2  1  0
  6  4  1  0
  7  6  2  0
  9  8  1  0
  9 10  2  0
 11 12  1  0
 11  9  1  0
 13 12  1  1
 13 14  1  0
 14  6  1  0
 15 13  1  0
 15 16  2  0
 18 17  1  0
 19 18  2  0
 20 18  1  0
 21 20  1  0
 22 23  1  0
 22 21  1  0
 24 23  1  6
 24 25  1  0
 25 15  1  0
 26 24  1  0
 27 26  1  0
 28 26  2  0
M  END
$$$$
