TQR.pdb
     RDKit          3D

 28 27  0  0  1  0  0  0  0  0999 V2000
   25.3608  -26.7107  -15.9577 C   0  0  0  0  0  0  0  0  0  0  0  0
   24.1312  -26.0029  -15.5397 C   0  0  1  0  0  0  0  0  0  0  0  0
   24.3369  -24.7053  -15.0829 O   0  0  0  0  0  0  0  0  0  0  0  0
   23.0206  -25.9612  -16.5709 C   0  0  2  0  0  0  0  0  0  0  0  0
   23.6978  -25.5265  -17.8080 N   0  0  0  0  0  0  0  0  0  0  0  0
   21.9107  -25.0919  -16.1926 C   0  0  0  0  0  0  0  0  0  0  0  0
   21.8423  -23.9548  -16.7981 O   0  0  0  0  0  0  0  0  0  0  0  0
   16.7520  -26.5009  -12.7121 N   0  0  0  0  0  0  0  0  0  0  0  0
   17.8608  -25.8997  -12.0297 C   0  0  0  0  0  0  0  0  0  0  0  0
   17.8460  -26.0234  -10.7817 O   0  0  0  0  0  0  0  0  0  0  0  0
   18.8981  -25.2138  -12.7785 C   0  0  0  0  0  0  0  0  0  0  0  0
   18.7044  -25.0646  -14.2335 C   0  0  0  0  0  0  0  0  0  0  0  0
   19.8105  -24.3675  -14.9973 C   0  0  2  0  0  0  0  0  0  0  0  0
   20.8939  -25.3442  -15.2435 N   0  0  0  0  0  0  0  0  0  0  0  0
   20.3155  -23.2100  -14.2368 C   0  0  0  0  0  0  0  0  0  0  0  0
   21.2864  -23.3647  -13.4290 O   0  0  0  0  0  0  0  0  0  0  0  0
   26.7882  -19.8586  -15.9671 N   0  0  0  0  0  0  0  0  0  0  0  0
   26.2161  -20.7500  -15.0293 C   0  0  0  0  0  0  0  0  0  0  0  0
   26.8855  -21.7983  -14.6429 N   0  0  0  0  0  0  0  0  0  0  0  0
   24.9404  -20.6002  -14.4486 N   0  0  0  0  0  0  0  0  0  0  0  0
   24.0471  -19.5235  -14.6995 C   0  0  0  0  0  0  0  0  0  0  0  0
   22.7390  -19.5268  -14.0961 C   0  0  0  0  0  0  0  0  0  0  0  0
   21.7925  -20.6017  -14.4122 C   0  0  0  0  0  0  0  0  0  0  0  0
   20.4734  -20.7181  -13.7237 C   0  0  2  0  0  0  0  0  0  0  0  0
   19.7952  -21.9151  -14.3436 N   0  0  0  0  0  0  0  0  0  0  0  0
   19.4912  -19.6608  -13.8658 C   0  0  0  0  0  0  0  0  0  0  0  0
   19.3397  -18.5221  -13.0980 O   0  0  0  0  0  0  0  0  0  0  0  0
   18.6253  -19.7506  -14.8090 O   0  0  0  0  0  0  0  0  0  0  0  0
  2  1  1  6
  2  3  1  0
  4  5  1  6
  4  2  1  0
  6  4  1  0
  7  6  2  0
  9  8  1  0
  9 10  2  0
 11 12  1  0
 11  9  1  0
 13 12  1  1
 13 14  1  0
 14  6  1  0
 15 13  1  0
 15 16  2  0
 18 17  1  0
 19 18  2  0
 20 18  1  0
 21 20  1  0
 22 23  1  0
 22 21  1  0
 24 23  1  6
 24 25  1  0
 25 15  1  0
 26 24  1  0
 27 26  1  0
 28 26  2  0
M  END
$$$$
