TQR.pdb
     RDKit          3D

 28 27  0  0  1  0  0  0  0  0999 V2000
   29.5358   -7.0758  -19.6773 C   0  0  0  0  0  0  0  0  0  0  0  0
   28.5388   -8.0878  -19.2656 C   0  0  1  0  0  0  0  0  0  0  0  0
   27.5473   -8.3407  -20.2078 O   0  0  0  0  0  0  0  0  0  0  0  0
   29.1084   -9.4211  -18.8222 C   0  0  2  0  0  0  0  0  0  0  0  0
   27.9317  -10.1698  -18.3400 N   0  0  0  0  0  0  0  0  0  0  0  0
   30.1575   -9.2971  -17.8149 C   0  0  0  0  0  0  0  0  0  0  0  0
   29.7650   -9.1362  -16.5966 O   0  0  0  0  0  0  0  0  0  0  0  0
   35.4463  -12.4892  -17.1499 N   0  0  0  0  0  0  0  0  0  0  0  0
   35.2344  -11.6178  -18.2690 C   0  0  0  0  0  0  0  0  0  0  0  0
   35.9818  -11.8279  -19.2540 O   0  0  0  0  0  0  0  0  0  0  0  0
   34.2134  -10.5874  -18.2129 C   0  0  0  0  0  0  0  0  0  0  0  0
   33.4363  -10.4636  -16.9649 C   0  0  0  0  0  0  0  0  0  0  0  0
   32.4951   -9.2817  -16.8661 C   0  0  2  0  0  0  0  0  0  0  0  0
   31.5573   -9.3360  -18.0089 N   0  0  0  0  0  0  0  0  0  0  0  0
   33.2506   -8.0157  -16.8718 C   0  0  0  0  0  0  0  0  0  0  0  0
   33.5679   -7.4790  -17.9810 O   0  0  0  0  0  0  0  0  0  0  0  0
   30.7514   -1.6366  -13.1609 N   0  0  0  0  0  0  0  0  0  0  0  0
   31.9428   -1.0059  -13.5902 C   0  0  0  0  0  0  0  0  0  0  0  0
   31.9216    0.2507  -13.9320 N   0  0  0  0  0  0  0  0  0  0  0  0
   33.2007   -1.6355  -13.6816 N   0  0  0  0  0  0  0  0  0  0  0  0
   33.4289   -3.0328  -13.5557 C   0  0  0  0  0  0  0  0  0  0  0  0
   33.9032   -3.7830  -14.6904 C   0  0  0  0  0  0  0  0  0  0  0  0
   33.9964   -5.2445  -14.6113 C   0  0  0  0  0  0  0  0  0  0  0  0
   34.4658   -6.0680  -15.7642 C   0  0  2  0  0  0  0  0  0  0  0  0
   33.6522   -7.3379  -15.7151 N   0  0  0  0  0  0  0  0  0  0  0  0
   35.8352   -6.5439  -15.7988 C   0  0  0  0  0  0  0  0  0  0  0  0
   36.2972   -7.8380  -15.6543 O   0  0  0  0  0  0  0  0  0  0  0  0
   36.7769   -5.6907  -15.9794 O   0  0  0  0  0  0  0  0  0  0  0  0
  2  1  1  6
  2  3  1  0
  4  5  1  1
  4  2  1  0
  6  4  1  0
  7  6  2  0
  9  8  1  0
  9 10  2  0
 11 12  1  0
 11  9  1  0
 13 12  1  6
 13 14  1  0
 14  6  1  0
 15 13  1  0
 15 16  2  0
 18 17  1  0
 19 18  2  0
 20 18  1  0
 21 20  1  0
 22 23  1  0
 22 21  1  0
 24 23  1  1
 24 25  1  0
 25 15  1  0
 26 24  1  0
 27 26  1  0
 28 26  2  0
M  END
$$$$
