TQR.pdb
     RDKit          3D

 28 27  0  0  1  0  0  0  0  0999 V2000
   21.8606  -22.6957  -20.6033 C   0  0  0  0  0  0  0  0  0  0  0  0
   23.0352  -23.5806  -20.4463 C   0  0  1  0  0  0  0  0  0  0  0  0
   23.3080  -24.3821  -21.5499 O   0  0  0  0  0  0  0  0  0  0  0  0
   24.3234  -22.8890  -20.0454 C   0  0  2  0  0  0  0  0  0  0  0  0
   25.2745  -23.9979  -19.8370 N   0  0  0  0  0  0  0  0  0  0  0  0
   24.1805  -22.0322  -18.8722 C   0  0  0  0  0  0  0  0  0  0  0  0
   24.0652  -22.6321  -17.7360 O   0  0  0  0  0  0  0  0  0  0  0  0
   25.1120  -15.7810  -18.3944 N   0  0  0  0  0  0  0  0  0  0  0  0
   26.1073  -16.8091  -18.2995 C   0  0  0  0  0  0  0  0  0  0  0  0
   27.2836  -16.4301  -18.5130 O   0  0  0  0  0  0  0  0  0  0  0  0
   25.7256  -18.1712  -17.9736 C   0  0  0  0  0  0  0  0  0  0  0  0
   24.2923  -18.4450  -17.7556 C   0  0  0  0  0  0  0  0  0  0  0  0
   23.9002  -19.8945  -17.5620 C   0  0  2  0  0  0  0  0  0  0  0  0
   24.1568  -20.6195  -18.8258 N   0  0  0  0  0  0  0  0  0  0  0  0
   22.4804  -20.0008  -17.1795 C   0  0  0  0  0  0  0  0  0  0  0  0
   21.5798  -19.8881  -18.0713 O   0  0  0  0  0  0  0  0  0  0  0  0
   17.1750  -23.0739  -12.2542 N   0  0  0  0  0  0  0  0  0  0  0  0
   16.6647  -23.7646  -13.3784 C   0  0  0  0  0  0  0  0  0  0  0  0
   15.4054  -24.0951  -13.4166 N   0  0  0  0  0  0  0  0  0  0  0  0
   17.4218  -24.1389  -14.5070 N   0  0  0  0  0  0  0  0  0  0  0  0
   18.7296  -23.6708  -14.8084 C   0  0  0  0  0  0  0  0  0  0  0  0
   18.9838  -22.2541  -14.8682 C   0  0  0  0  0  0  0  0  0  0  0  0
   20.3070  -21.7667  -15.2717 C   0  0  0  0  0  0  0  0  0  0  0  0
   20.5715  -20.3191  -15.5204 C   0  0  2  0  0  0  0  0  0  0  0  0
   22.0363  -20.2277  -15.8719 N   0  0  0  0  0  0  0  0  0  0  0  0
   20.4221  -19.3637  -14.4397 C   0  0  0  0  0  0  0  0  0  0  0  0
   19.2696  -18.7446  -13.9956 O   0  0  0  0  0  0  0  0  0  0  0  0
   21.4674  -19.0115  -13.7833 O   0  0  0  0  0  0  0  0  0  0  0  0
  2  1  1  6
  2  3  1  0
  4  5  1  1
  4  2  1  0
  6  4  1  0
  7  6  2  0
  9  8  1  0
  9 10  2  0
 11 12  1  0
 11  9  1  0
 13 12  1  6
 13 14  1  0
 14  6  1  0
 15 13  1  0
 15 16  2  0
 18 17  1  0
 19 18  2  0
 20 18  1  0
 21 20  1  0
 22 23  1  0
 22 21  1  0
 24 23  1  1
 24 25  1  0
 25 15  1  0
 26 24  1  0
 27 26  1  0
 28 26  2  0
M  END
$$$$
