NSK.pdb
     RDKit          3D

 24 23  0  0  1  0  0  0  0  0999 V2000
    7.7150  -12.9079   15.7362 N   0  0  0  0  0  0  0  0  0  0  0  0
    8.1278  -14.1388   16.3240 C   0  0  0  0  0  0  0  0  0  0  0  0
    8.3126  -15.1226   15.5662 O   0  0  0  0  0  0  0  0  0  0  0  0
    8.3262  -14.2210   17.7790 C   0  0  0  0  0  0  0  0  0  0  0  0
    8.8247  -15.5511   18.2549 C   0  0  2  0  0  0  0  0  0  0  0  0
    7.8932  -16.6224   18.0254 N   0  0  0  0  0  0  0  0  0  0  0  0
    9.1810  -15.4811   19.6897 C   0  0  0  0  0  0  0  0  0  0  0  0
   10.2919  -14.9428   19.9746 O   0  0  0  0  0  0  0  0  0  0  0  0
    9.8743  -19.1983   21.4371 O   0  0  0  0  0  0  0  0  0  0  0  0
    9.3986  -18.1313   20.6785 C   0  0  0  0  0  0  0  0  0  0  0  0
    8.7756  -17.0604   21.5400 C   0  0  2  0  0  0  0  0  0  0  0  0
    8.3049  -15.9993   20.6705 N   0  0  0  0  0  0  0  0  0  0  0  0
    9.7542  -16.4581   22.4834 C   0  0  0  0  0  0  0  0  0  0  0  0
   10.7363  -15.8045   22.0524 O   0  0  0  0  0  0  0  0  0  0  0  0
    9.6091  -16.6013   23.8848 N   0  0  0  0  0  0  0  0  0  0  0  0
   10.4650  -16.0035   24.8791 C   0  0  1  0  0  0  0  0  0  0  0  0
    9.6871  -15.6657   26.1058 C   0  0  0  0  0  0  0  0  0  0  0  0
   10.5321  -15.1066   27.2147 C   0  0  0  0  0  0  0  0  0  0  0  0
    9.7053  -14.8784   28.4590 C   0  0  0  0  0  0  0  0  0  0  0  0
   10.5521  -14.3283   29.5885 C   0  0  0  0  0  0  0  0  0  0  0  0
    9.7831  -14.0283   30.7770 N   0  0  0  0  0  0  0  0  0  0  0  0
   11.5871  -16.9519   25.2332 C   0  0  0  0  0  0  0  0  0  0  0  0
   11.3725  -18.3244   25.2151 O   0  0  0  0  0  0  0  0  0  0  0  0
   12.7193  -16.5429   25.5477 O   0  0  0  0  0  0  0  0  0  0  0  0
  1  2  1  0
  2  3  2  0
  4  2  1  0
  4  5  1  0
  5  6  1  1
  7  5  1  0
  7  8  2  0
  9 10  1  0
 11 10  1  6
 11 12  1  0
 12  7  1  0
 13 11  1  0
 14 13  2  0
 15 13  1  0
 16 15  1  0
 16 22  1  0
 16 17  1  1
 18 17  1  0
 19 18  1  0
 20 19  1  0
 21 20  1  0
 22 23  1  0
 24 22  2  0
M  END
$$$$
