NSK.pdb
     RDKit          3D

 24 23  0  0  1  0  0  0  0  0999 V2000
    8.0784  -12.7192   16.2292 N   0  0  0  0  0  0  0  0  0  0  0  0
    7.7337  -13.8430   17.0350 C   0  0  0  0  0  0  0  0  0  0  0  0
    7.2024  -14.8322   16.4732 O   0  0  0  0  0  0  0  0  0  0  0  0
    8.0084  -13.8153   18.4797 C   0  0  0  0  0  0  0  0  0  0  0  0
    8.7111  -15.0347   18.9929 C   0  0  2  0  0  0  0  0  0  0  0  0
    7.8935  -16.2173   18.9612 N   0  0  0  0  0  0  0  0  0  0  0  0
    9.2143  -14.7968   20.3643 C   0  0  0  0  0  0  0  0  0  0  0  0
   10.4399  -14.4965   20.4766 O   0  0  0  0  0  0  0  0  0  0  0  0
    6.6764  -14.9938   23.7063 O   0  0  0  0  0  0  0  0  0  0  0  0
    7.8492  -14.2423   23.7216 C   0  0  0  0  0  0  0  0  0  0  0  0
    8.9029  -14.8228   22.8106 C   0  0  2  0  0  0  0  0  0  0  0  0
    8.3461  -14.9082   21.4741 N   0  0  0  0  0  0  0  0  0  0  0  0
    9.2986  -16.1980   23.2139 C   0  0  0  0  0  0  0  0  0  0  0  0
    8.6956  -17.1972   22.7496 O   0  0  0  0  0  0  0  0  0  0  0  0
   10.3593  -16.4209   24.1253 N   0  0  0  0  0  0  0  0  0  0  0  0
   10.7598  -17.7052   24.6438 C   0  0  1  0  0  0  0  0  0  0  0  0
   12.1934  -17.9726   24.3317 C   0  0  0  0  0  0  0  0  0  0  0  0
   12.6621  -19.3253   24.7865 C   0  0  0  0  0  0  0  0  0  0  0  0
   14.1298  -19.5171   24.4814 C   0  0  0  0  0  0  0  0  0  0  0  0
   14.6071  -20.8878   24.9160 C   0  0  0  0  0  0  0  0  0  0  0  0
   16.0362  -21.0613   24.7696 N   0  0  0  0  0  0  0  0  0  0  0  0
   10.5481  -17.7478   26.1396 C   0  0  0  0  0  0  0  0  0  0  0  0
   10.3797  -18.9659   26.7861 O   0  0  0  0  0  0  0  0  0  0  0  0
   10.5174  -16.7127   26.8292 O   0  0  0  0  0  0  0  0  0  0  0  0
  1  2  1  0
  2  3  2  0
  4  2  1  0
  4  5  1  0
  5  6  1  1
  7  5  1  0
  7  8  2  0
  9 10  1  0
 11 10  1  1
 11 12  1  0
 12  7  1  0
 13 11  1  0
 14 13  2  0
 15 13  1  0
 16 15  1  0
 16 22  1  0
 16 17  1  1
 18 17  1  0
 19 18  1  0
 20 19  1  0
 21 20  1  0
 22 23  1  0
 24 22  2  0
M  END
$$$$
