NSK.pdb
     RDKit          3D

 24 23  0  0  1  0  0  0  0  0999 V2000
    1.2817  -19.0008   22.1004 N   0  0  0  0  0  0  0  0  0  0  0  0
    2.4277  -18.7961   21.2783 C   0  0  0  0  0  0  0  0  0  0  0  0
    2.2632  -18.7583   20.0342 O   0  0  0  0  0  0  0  0  0  0  0  0
    3.7507  -18.6339   21.9000 C   0  0  0  0  0  0  0  0  0  0  0  0
    4.8568  -18.3675   20.9255 C   0  0  2  0  0  0  0  0  0  0  0  0
    5.1157  -19.4734   20.0435 N   0  0  0  0  0  0  0  0  0  0  0  0
    6.0928  -17.9864   21.6450 C   0  0  0  0  0  0  0  0  0  0  0  0
    6.9475  -18.9025   21.8326 O   0  0  0  0  0  0  0  0  0  0  0  0
    6.5781  -14.1411   23.2406 O   0  0  0  0  0  0  0  0  0  0  0  0
    7.6849  -14.8341   22.7556 C   0  0  0  0  0  0  0  0  0  0  0  0
    7.4883  -16.3288   22.8228 C   0  0  2  0  0  0  0  0  0  0  0  0
    6.2807  -16.6580   22.0901 N   0  0  0  0  0  0  0  0  0  0  0  0
    7.3045  -16.8092   24.2177 C   0  0  0  0  0  0  0  0  0  0  0  0
    6.1884  -16.7092   24.7849 O   0  0  0  0  0  0  0  0  0  0  0  0
    8.3735  -17.3903   24.9424 N   0  0  0  0  0  0  0  0  0  0  0  0
    8.2999  -17.8688   26.3005 C   0  0  1  0  0  0  0  0  0  0  0  0
    8.2695  -19.3596   26.3301 C   0  0  0  0  0  0  0  0  0  0  0  0
    8.1538  -19.9279   27.7156 C   0  0  0  0  0  0  0  0  0  0  0  0
    8.2558  -21.4354   27.6895 C   0  0  0  0  0  0  0  0  0  0  0  0
    8.0021  -22.0276   29.0607 C   0  0  0  0  0  0  0  0  0  0  0  0
    8.1389  -23.4679   29.0886 N   0  0  0  0  0  0  0  0  0  0  0  0
    9.4872  -17.3682   27.0901 C   0  0  0  0  0  0  0  0  0  0  0  0
    9.4295  -17.3125   28.4771 O   0  0  0  0  0  0  0  0  0  0  0  0
   10.5364  -16.9955   26.5349 O   0  0  0  0  0  0  0  0  0  0  0  0
  1  2  1  0
  2  3  2  0
  4  2  1  0
  4  5  1  0
  5  6  1  1
  7  5  1  0
  7  8  2  0
  9 10  1  0
 11 10  1  1
 11 12  1  0
 12  7  1  0
 13 11  1  0
 14 13  2  0
 15 13  1  0
 16 15  1  0
 16 22  1  0
 16 17  1  6
 18 17  1  0
 19 18  1  0
 20 19  1  0
 21 20  1  0
 22 23  1  0
 24 22  2  0
M  END
$$$$
