NSK.pdb
     RDKit          3D

 24 23  0  0  1  0  0  0  0  0999 V2000
    7.0777  -17.3120   18.1252 N   0  0  0  0  0  0  0  0  0  0  0  0
    6.4419  -17.6276   19.3609 C   0  0  0  0  0  0  0  0  0  0  0  0
    5.4605  -18.4102   19.3375 O   0  0  0  0  0  0  0  0  0  0  0  0
    6.9471  -17.0400   20.6111 C   0  0  0  0  0  0  0  0  0  0  0  0
    8.0665  -16.0629   20.4199 C   0  0  2  0  0  0  0  0  0  0  0  0
    9.0519  -16.5062   19.4709 N   0  0  0  0  0  0  0  0  0  0  0  0
    8.7074  -15.7578   21.7186 C   0  0  0  0  0  0  0  0  0  0  0  0
    9.8210  -16.3164   21.9487 O   0  0  0  0  0  0  0  0  0  0  0  0
    6.6662  -13.7841   24.8340 O   0  0  0  0  0  0  0  0  0  0  0  0
    8.0051  -13.4912   24.5853 C   0  0  0  0  0  0  0  0  0  0  0  0
    8.7192  -14.6404   23.9171 C   0  0  2  0  0  0  0  0  0  0  0  0
    8.0826  -14.8835   22.6368 N   0  0  0  0  0  0  0  0  0  0  0  0
    8.6218  -15.8972   24.7055 C   0  0  0  0  0  0  0  0  0  0  0  0
    7.6488  -16.6755   24.5473 O   0  0  0  0  0  0  0  0  0  0  0  0
    9.6156  -16.2520   25.6499 N   0  0  0  0  0  0  0  0  0  0  0  0
    9.6490  -17.4785   26.4071 C   0  0  1  0  0  0  0  0  0  0  0  0
    9.9337  -18.6384   25.5139 C   0  0  0  0  0  0  0  0  0  0  0  0
   10.1309  -19.9297   26.2553 C   0  0  0  0  0  0  0  0  0  0  0  0
   10.5277  -21.0389   25.3087 C   0  0  0  0  0  0  0  0  0  0  0  0
   10.8022  -22.3278   26.0562 C   0  0  0  0  0  0  0  0  0  0  0  0
   11.3654  -23.3608   25.2138 N   0  0  0  0  0  0  0  0  0  0  0  0
   10.7068  -17.3931   27.4832 C   0  0  0  0  0  0  0  0  0  0  0  0
   11.7292  -16.4578   27.3840 O   0  0  0  0  0  0  0  0  0  0  0  0
   10.6979  -18.1442   28.4750 O   0  0  0  0  0  0  0  0  0  0  0  0
  1  2  1  0
  2  3  2  0
  4  2  1  0
  4  5  1  0
  5  6  1  6
  7  5  1  0
  7  8  2  0
  9 10  1  0
 11 10  1  1
 11 12  1  0
 12  7  1  0
 13 11  1  0
 14 13  2  0
 15 13  1  0
 16 15  1  0
 16 22  1  0
 16 17  1  6
 18 17  1  0
 19 18  1  0
 20 19  1  0
 21 20  1  0
 22 23  1  0
 24 22  2  0
M  END
$$$$
