NSK.pdb
     RDKit          3D

 24 23  0  0  1  0  0  0  0  0999 V2000
    7.9138  -12.1866   13.3184 N   0  0  0  0  0  0  0  0  0  0  0  0
    7.7031  -13.4659   13.9101 C   0  0  0  0  0  0  0  0  0  0  0  0
    7.5880  -14.4574   13.1486 O   0  0  0  0  0  0  0  0  0  0  0  0
    7.6308  -13.5884   15.3741 C   0  0  0  0  0  0  0  0  0  0  0  0
    8.6348  -14.5335   15.9597 C   0  0  2  0  0  0  0  0  0  0  0  0
    8.6615  -15.8127   15.3033 N   0  0  0  0  0  0  0  0  0  0  0  0
    8.3904  -14.7068   17.4091 C   0  0  0  0  0  0  0  0  0  0  0  0
    8.4267  -13.6599   18.1215 O   0  0  0  0  0  0  0  0  0  0  0  0
    7.4656  -18.4731   19.0514 O   0  0  0  0  0  0  0  0  0  0  0  0
    6.8966  -17.2942   19.5275 C   0  0  0  0  0  0  0  0  0  0  0  0
    7.8187  -16.1124   19.3533 C   0  0  2  0  0  0  0  0  0  0  0  0
    8.1333  -15.9902   17.9428 N   0  0  0  0  0  0  0  0  0  0  0  0
    9.1037  -16.2904   20.0796 C   0  0  0  0  0  0  0  0  0  0  0  0
   10.1539  -16.5823   19.4556 O   0  0  0  0  0  0  0  0  0  0  0  0
    9.1817  -16.1364   21.4852 N   0  0  0  0  0  0  0  0  0  0  0  0
   10.3571  -16.3681   22.2874 C   0  0  1  0  0  0  0  0  0  0  0  0
   10.0459  -16.1948   23.7356 C   0  0  0  0  0  0  0  0  0  0  0  0
   11.2020  -16.5178   24.6384 C   0  0  0  0  0  0  0  0  0  0  0  0
   10.8181  -16.3403   26.0893 C   0  0  0  0  0  0  0  0  0  0  0  0
   11.9396  -16.7726   27.0117 C   0  0  0  0  0  0  0  0  0  0  0  0
   11.5772  -16.7075   28.4111 N   0  0  0  0  0  0  0  0  0  0  0  0
   10.8827  -17.7638   22.0433 C   0  0  0  0  0  0  0  0  0  0  0  0
    9.9991  -18.8182   21.8494 O   0  0  0  0  0  0  0  0  0  0  0  0
   12.1016  -18.0109   22.0093 O   0  0  0  0  0  0  0  0  0  0  0  0
  1  2  1  0
  2  3  2  0
  4  2  1  0
  4  5  1  0
  5  6  1  6
  7  5  1  0
  7  8  2  0
  9 10  1  0
 11 10  1  6
 11 12  1  0
 12  7  1  0
 13 11  1  0
 14 13  2  0
 15 13  1  0
 16 15  1  0
 16 22  1  0
 16 17  1  1
 18 17  1  0
 19 18  1  0
 20 19  1  0
 21 20  1  0
 22 23  1  0
 24 22  2  0
M  END
$$$$
