NSK.pdb
     RDKit          3D

 24 23  0  0  1  0  0  0  0  0999 V2000
   17.2135  -14.8394   15.6392 N   0  0  0  0  0  0  0  0  0  0  0  0
   17.1076  -13.6478   16.4137 C   0  0  0  0  0  0  0  0  0  0  0  0
   17.9148  -12.7157   16.1771 O   0  0  0  0  0  0  0  0  0  0  0  0
   16.0697  -13.5426   17.4506 C   0  0  0  0  0  0  0  0  0  0  0  0
   15.2925  -14.8045   17.6692 C   0  0  2  0  0  0  0  0  0  0  0  0
   14.4957  -15.1850   16.5341 N   0  0  0  0  0  0  0  0  0  0  0  0
   14.4412  -14.6796   18.8734 C   0  0  0  0  0  0  0  0  0  0  0  0
   15.0363  -14.4657   19.9712 O   0  0  0  0  0  0  0  0  0  0  0  0
   10.3059  -15.6013   18.9264 O   0  0  0  0  0  0  0  0  0  0  0  0
   10.7896  -14.4389   19.5223 C   0  0  0  0  0  0  0  0  0  0  0  0
   12.2276  -14.5840   19.9564 C   0  0  2  0  0  0  0  0  0  0  0  0
   13.0365  -14.7995   18.7721 N   0  0  0  0  0  0  0  0  0  0  0  0
   12.4295  -15.7553   20.8495 C   0  0  0  0  0  0  0  0  0  0  0  0
   12.7749  -16.8662   20.3761 O   0  0  0  0  0  0  0  0  0  0  0  0
   12.2410  -15.6542   22.2494 N   0  0  0  0  0  0  0  0  0  0  0  0
   12.3734  -16.7380   23.1910 C   0  0  1  0  0  0  0  0  0  0  0  0
   13.7448  -16.7590   23.7767 C   0  0  0  0  0  0  0  0  0  0  0  0
   13.9764  -17.9082   24.7158 C   0  0  0  0  0  0  0  0  0  0  0  0
   15.3910  -17.8926   25.2472 C   0  0  0  0  0  0  0  0  0  0  0  0
   15.6678  -19.1070   26.1098 C   0  0  0  0  0  0  0  0  0  0  0  0
   17.0224  -19.1428   26.6175 N   0  0  0  0  0  0  0  0  0  0  0  0
   11.3510  -16.5922   24.2943 C   0  0  0  0  0  0  0  0  0  0  0  0
   10.5034  -15.4918   24.3192 O   0  0  0  0  0  0  0  0  0  0  0  0
   11.2368  -17.4367   25.2008 O   0  0  0  0  0  0  0  0  0  0  0  0
  1  2  1  0
  2  3  2  0
  4  2  1  0
  4  5  1  0
  5  6  1  6
  7  5  1  0
  7  8  2  0
  9 10  1  0
 11 10  1  6
 11 12  1  0
 12  7  1  0
 13 11  1  0
 14 13  2  0
 15 13  1  0
 16 15  1  0
 16 22  1  0
 16 17  1  1
 18 17  1  0
 19 18  1  0
 20 19  1  0
 21 20  1  0
 22 23  1  0
 24 22  2  0
M  END
$$$$
