NSK.pdb
     RDKit          3D

 24 23  0  0  1  0  0  0  0  0999 V2000
   10.2130  -15.6656   16.1203 N   0  0  0  0  0  0  0  0  0  0  0  0
   11.0776  -15.0089   17.0434 C   0  0  0  0  0  0  0  0  0  0  0  0
   12.3164  -15.1495   16.8954 O   0  0  0  0  0  0  0  0  0  0  0  0
   10.5043  -14.1941   18.1254 C   0  0  0  0  0  0  0  0  0  0  0  0
    9.0119  -14.2742   18.2273 C   0  0  2  0  0  0  0  0  0  0  0  0
    8.3330  -13.3314   17.3797 N   0  0  0  0  0  0  0  0  0  0  0  0
    8.5843  -14.0988   19.6334 C   0  0  0  0  0  0  0  0  0  0  0  0
    8.6130  -12.9189   20.0939 O   0  0  0  0  0  0  0  0  0  0  0  0
    6.7577  -17.2264   21.7878 O   0  0  0  0  0  0  0  0  0  0  0  0
    6.4333  -15.8772   21.9093 C   0  0  0  0  0  0  0  0  0  0  0  0
    7.6398  -14.9887   21.7305 C   0  0  2  0  0  0  0  0  0  0  0  0
    8.1712  -15.2123   20.3997 N   0  0  0  0  0  0  0  0  0  0  0  0
    8.7218  -15.3089   22.6986 C   0  0  0  0  0  0  0  0  0  0  0  0
    9.7646  -15.8967   22.3183 O   0  0  0  0  0  0  0  0  0  0  0  0
    8.6105  -14.9628   24.0673 N   0  0  0  0  0  0  0  0  0  0  0  0
    9.5175  -15.3741   25.1098 C   0  0  1  0  0  0  0  0  0  0  0  0
    9.2018  -14.6713   26.3868 C   0  0  0  0  0  0  0  0  0  0  0  0
   10.0463  -15.1244   27.5433 C   0  0  0  0  0  0  0  0  0  0  0  0
    9.6562  -14.4003   28.8111 C   0  0  0  0  0  0  0  0  0  0  0  0
   10.5292  -14.8213   29.9756 C   0  0  0  0  0  0  0  0  0  0  0  0
   10.2370  -14.0950   31.1926 N   0  0  0  0  0  0  0  0  0  0  0  0
    9.4255  -16.8685   25.3153 C   0  0  0  0  0  0  0  0  0  0  0  0
   10.5682  -17.6053   25.6004 O   0  0  0  0  0  0  0  0  0  0  0  0
    8.3435  -17.4778   25.2367 O   0  0  0  0  0  0  0  0  0  0  0  0
  1  2  1  0
  2  3  2  0
  4  2  1  0
  4  5  1  0
  5  6  1  6
  7  5  1  0
  7  8  2  0
  9 10  1  0
 11 10  1  1
 11 12  1  0
 12  7  1  0
 13 11  1  0
 14 13  2  0
 15 13  1  0
 16 15  1  0
 16 22  1  0
 16 17  1  1
 18 17  1  0
 19 18  1  0
 20 19  1  0
 21 20  1  0
 22 23  1  0
 24 22  2  0
M  END
$$$$
