NSK.pdb
     RDKit          3D

 24 23  0  0  1  0  0  0  0  0999 V2000
    7.1325  -12.7304   16.6019 N   0  0  0  0  0  0  0  0  0  0  0  0
    7.5842  -14.0788   16.5091 C   0  0  0  0  0  0  0  0  0  0  0  0
    7.8554  -14.5340   15.3709 O   0  0  0  0  0  0  0  0  0  0  0  0
    7.7216  -14.8868   17.7304 C   0  0  0  0  0  0  0  0  0  0  0  0
    9.0918  -14.8545   18.3351 C   0  0  2  0  0  0  0  0  0  0  0  0
   10.1280  -15.2407   17.4157 N   0  0  0  0  0  0  0  0  0  0  0  0
    9.1378  -15.7055   19.5452 C   0  0  0  0  0  0  0  0  0  0  0  0
    8.2700  -15.4724   20.4381 O   0  0  0  0  0  0  0  0  0  0  0  0
   12.0570  -18.7174   20.0460 O   0  0  0  0  0  0  0  0  0  0  0  0
   10.7652  -18.8511   20.5497 C   0  0  0  0  0  0  0  0  0  0  0  0
   10.1484  -17.5147   20.8823 C   0  0  2  0  0  0  0  0  0  0  0  0
   10.1148  -16.7194   19.6699 N   0  0  0  0  0  0  0  0  0  0  0  0
   10.9474  -16.7608   21.8841 C   0  0  0  0  0  0  0  0  0  0  0  0
   11.8572  -15.9773   21.5154 O   0  0  0  0  0  0  0  0  0  0  0  0
   10.7079  -16.9015   23.2728 N   0  0  0  0  0  0  0  0  0  0  0  0
   11.4761  -16.2769   24.3209 C   0  0  1  0  0  0  0  0  0  0  0  0
   10.8323  -16.5009   25.6473 C   0  0  0  0  0  0  0  0  0  0  0  0
   11.5849  -15.8805   26.7896 C   0  0  0  0  0  0  0  0  0  0  0  0
   10.8523  -16.0910   28.0946 C   0  0  0  0  0  0  0  0  0  0  0  0
   11.5941  -15.4522   29.2509 C   0  0  0  0  0  0  0  0  0  0  0  0
   10.9484  -15.6717   30.5271 N   0  0  0  0  0  0  0  0  0  0  0  0
   12.8802  -16.8357   24.3359 C   0  0  0  0  0  0  0  0  0  0  0  0
   13.9694  -15.9825   24.4619 O   0  0  0  0  0  0  0  0  0  0  0  0
   13.1036  -18.0556   24.2369 O   0  0  0  0  0  0  0  0  0  0  0  0
  1  2  1  0
  2  3  2  0
  4  2  1  0
  4  5  1  0
  5  6  1  6
  7  5  1  0
  7  8  2  0
  9 10  1  0
 11 10  1  6
 11 12  1  0
 12  7  1  0
 13 11  1  0
 14 13  2  0
 15 13  1  0
 16 15  1  0
 16 22  1  0
 16 17  1  1
 18 17  1  0
 19 18  1  0
 20 19  1  0
 21 20  1  0
 22 23  1  0
 24 22  2  0
M  END
$$$$
