NSK.pdb
     RDKit          3D

 24 23  0  0  1  0  0  0  0  0999 V2000
    7.9711  -12.3178   16.9787 N   0  0  0  0  0  0  0  0  0  0  0  0
    7.8587  -13.7346   17.0838 C   0  0  0  0  0  0  0  0  0  0  0  0
    8.0953  -14.4235   16.0611 O   0  0  0  0  0  0  0  0  0  0  0  0
    7.4780  -14.3420   18.3681 C   0  0  0  0  0  0  0  0  0  0  0  0
    8.6320  -14.6084   19.2855 C   0  0  2  0  0  0  0  0  0  0  0  0
    9.6198  -15.4850   18.7164 N   0  0  0  0  0  0  0  0  0  0  0  0
    8.1471  -15.1515   20.5741 C   0  0  0  0  0  0  0  0  0  0  0  0
    7.2689  -14.4717   21.1837 O   0  0  0  0  0  0  0  0  0  0  0  0
    9.7145  -18.6992   22.1611 O   0  0  0  0  0  0  0  0  0  0  0  0
    8.3756  -18.3714   22.3616 C   0  0  0  0  0  0  0  0  0  0  0  0
    8.1499  -16.8796   22.3335 C   0  0  2  0  0  0  0  0  0  0  0  0
    8.6589  -16.3702   21.0746 N   0  0  0  0  0  0  0  0  0  0  0  0
    8.8816  -16.1799   23.4223 C   0  0  0  0  0  0  0  0  0  0  0  0
   10.1196  -15.9860   23.3367 O   0  0  0  0  0  0  0  0  0  0  0  0
    8.2100  -15.7141   24.5789 N   0  0  0  0  0  0  0  0  0  0  0  0
    8.8478  -15.2070   25.7683 C   0  0  1  0  0  0  0  0  0  0  0  0
    7.8867  -14.4017   26.5757 C   0  0  0  0  0  0  0  0  0  0  0  0
    7.5928  -13.0525   25.9847 C   0  0  0  0  0  0  0  0  0  0  0  0
    6.5507  -12.3227   26.8004 C   0  0  0  0  0  0  0  0  0  0  0  0
    6.3257  -10.9192   26.2760 C   0  0  0  0  0  0  0  0  0  0  0  0
    5.3698  -10.1688   27.0615 N   0  0  0  0  0  0  0  0  0  0  0  0
    9.3762  -16.3528   26.6002 C   0  0  0  0  0  0  0  0  0  0  0  0
   10.3224  -16.1183   27.5899 O   0  0  0  0  0  0  0  0  0  0  0  0
    8.9892  -17.5229   26.4292 O   0  0  0  0  0  0  0  0  0  0  0  0
  1  2  1  0
  2  3  2  0
  4  2  1  0
  4  5  1  0
  5  6  1  6
  7  5  1  0
  7  8  2  0
  9 10  1  0
 11 10  1  6
 11 12  1  0
 12  7  1  0
 13 11  1  0
 14 13  2  0
 15 13  1  0
 16 15  1  0
 16 22  1  0
 16 17  1  1
 18 17  1  0
 19 18  1  0
 20 19  1  0
 21 20  1  0
 22 23  1  0
 24 22  2  0
M  END
$$$$
