NSK.pdb
     RDKit          3D

 24 23  0  0  1  0  0  0  0  0999 V2000
    7.6427  -12.1112   15.9183 N   0  0  0  0  0  0  0  0  0  0  0  0
    8.1589  -13.2192   16.6510 C   0  0  0  0  0  0  0  0  0  0  0  0
    8.3370  -14.3008   16.0389 O   0  0  0  0  0  0  0  0  0  0  0  0
    8.4675  -13.0669   18.0810 C   0  0  0  0  0  0  0  0  0  0  0  0
    9.0207  -14.3022   18.7230 C   0  0  2  0  0  0  0  0  0  0  0  0
    8.7637  -15.4988   17.9680 N   0  0  0  0  0  0  0  0  0  0  0  0
    8.4958  -14.4429   20.0997 C   0  0  0  0  0  0  0  0  0  0  0  0
    8.6697  -13.4587   20.8783 O   0  0  0  0  0  0  0  0  0  0  0  0
    6.9725  -18.0943   21.6708 O   0  0  0  0  0  0  0  0  0  0  0  0
    6.3355  -16.8745   21.8868 C   0  0  0  0  0  0  0  0  0  0  0  0
    7.3029  -15.7172   21.8418 C   0  0  2  0  0  0  0  0  0  0  0  0
    7.8387  -15.6296   20.4970 N   0  0  0  0  0  0  0  0  0  0  0  0
    8.4525  -15.9097   22.7646 C   0  0  0  0  0  0  0  0  0  0  0  0
    9.5494  -16.3453   22.3349 O   0  0  0  0  0  0  0  0  0  0  0  0
    8.3466  -15.6091   24.1445 N   0  0  0  0  0  0  0  0  0  0  0  0
    9.4070  -15.7408   25.1124 C   0  0  1  0  0  0  0  0  0  0  0  0
    9.0264  -15.0895   26.3989 C   0  0  0  0  0  0  0  0  0  0  0  0
   10.1032  -15.1556   27.4440 C   0  0  0  0  0  0  0  0  0  0  0  0
    9.6728  -14.4447   28.7063 C   0  0  0  0  0  0  0  0  0  0  0  0
   10.7766  -14.4500   29.7440 C   0  0  0  0  0  0  0  0  0  0  0  0
   10.4076  -13.7671   30.9652 N   0  0  0  0  0  0  0  0  0  0  0  0
    9.7100  -17.2019   25.3518 C   0  0  0  0  0  0  0  0  0  0  0  0
   11.0246  -17.6276   25.4952 O   0  0  0  0  0  0  0  0  0  0  0  0
    8.8090  -18.0567   25.4265 O   0  0  0  0  0  0  0  0  0  0  0  0
  1  2  1  0
  2  3  2  0
  4  2  1  0
  4  5  1  0
  5  6  1  6
  7  5  1  0
  7  8  2  0
  9 10  1  0
 11 10  1  6
 11 12  1  0
 12  7  1  0
 13 11  1  0
 14 13  2  0
 15 13  1  0
 16 15  1  0
 16 22  1  0
 16 17  1  1
 18 17  1  0
 19 18  1  0
 20 19  1  0
 21 20  1  0
 22 23  1  0
 24 22  2  0
M  END
$$$$
