NSK.pdb
     RDKit          3D

 24 23  0  0  1  0  0  0  0  0999 V2000
   10.9215  -18.3495   14.2984 N   0  0  0  0  0  0  0  0  0  0  0  0
    9.6599  -17.8301   14.7101 C   0  0  0  0  0  0  0  0  0  0  0  0
    8.6468  -18.1335   14.0335 O   0  0  0  0  0  0  0  0  0  0  0  0
    9.5797  -16.9689   15.8998 C   0  0  0  0  0  0  0  0  0  0  0  0
    9.0018  -17.6434   17.1061 C   0  0  2  0  0  0  0  0  0  0  0  0
    7.6104  -17.9759   16.9593 N   0  0  0  0  0  0  0  0  0  0  0  0
    9.2034  -16.8038   18.3082 C   0  0  0  0  0  0  0  0  0  0  0  0
   10.4022  -16.5600   18.6374 O   0  0  0  0  0  0  0  0  0  0  0  0
    6.0767  -15.8813   20.9978 O   0  0  0  0  0  0  0  0  0  0  0  0
    7.0169  -14.9133   20.6520 C   0  0  0  0  0  0  0  0  0  0  0  0
    8.3287  -15.5272   20.2285 C   0  0  2  0  0  0  0  0  0  0  0  0
    8.0932  -16.3143   19.0333 N   0  0  0  0  0  0  0  0  0  0  0  0
    8.8793  -16.4444   21.2610 C   0  0  0  0  0  0  0  0  0  0  0  0
    8.6347  -17.6755   21.2162 O   0  0  0  0  0  0  0  0  0  0  0  0
    9.6901  -15.9615   22.3169 N   0  0  0  0  0  0  0  0  0  0  0  0
   10.2526  -16.7652   23.3734 C   0  0  1  0  0  0  0  0  0  0  0  0
   11.7425  -16.7066   23.3402 C   0  0  0  0  0  0  0  0  0  0  0  0
   12.4000  -17.6712   24.2854 C   0  0  0  0  0  0  0  0  0  0  0  0
   13.9053  -17.5819   24.1849 C   0  0  0  0  0  0  0  0  0  0  0  0
   14.5763  -18.6637   25.0063 C   0  0  0  0  0  0  0  0  0  0  0  0
   16.0203  -18.5713   24.9910 N   0  0  0  0  0  0  0  0  0  0  0  0
    9.7540  -16.2787   24.7146 C   0  0  0  0  0  0  0  0  0  0  0  0
    9.8064  -17.1140   25.8234 O   0  0  0  0  0  0  0  0  0  0  0  0
    9.2877  -15.1354   24.8675 O   0  0  0  0  0  0  0  0  0  0  0  0
  1  2  1  0
  2  3  2  0
  4  2  1  0
  4  5  1  0
  5  6  1  6
  7  5  1  0
  7  8  2  0
  9 10  1  0
 11 10  1  1
 11 12  1  0
 12  7  1  0
 13 11  1  0
 14 13  2  0
 15 13  1  0
 16 15  1  0
 16 22  1  0
 16 17  1  1
 18 17  1  0
 19 18  1  0
 20 19  1  0
 21 20  1  0
 22 23  1  0
 24 22  2  0
M  END
$$$$
