NSK.pdb
     RDKit          3D

 24 23  0  0  1  0  0  0  0  0999 V2000
   14.1506  -17.2744   14.5317 N   0  0  0  0  0  0  0  0  0  0  0  0
   14.2702  -18.4455   15.3350 C   0  0  0  0  0  0  0  0  0  0  0  0
   14.7521  -19.4775   14.8069 O   0  0  0  0  0  0  0  0  0  0  0  0
   13.8359  -18.4127   16.7399 C   0  0  0  0  0  0  0  0  0  0  0  0
   13.1702  -17.1333   17.1453 C   0  0  2  0  0  0  0  0  0  0  0  0
   13.9393  -15.9635   16.8164 N   0  0  0  0  0  0  0  0  0  0  0  0
   12.8617  -17.1528   18.5927 C   0  0  0  0  0  0  0  0  0  0  0  0
   13.6126  -16.4623   19.3439 O   0  0  0  0  0  0  0  0  0  0  0  0
    9.1619  -18.3923   19.8847 O   0  0  0  0  0  0  0  0  0  0  0  0
    9.9476  -17.4631   20.5627 C   0  0  0  0  0  0  0  0  0  0  0  0
   11.4161  -17.8009   20.4828 C   0  0  2  0  0  0  0  0  0  0  0  0
   11.7769  -17.9151   19.0827 N   0  0  0  0  0  0  0  0  0  0  0  0
   11.7290  -19.1033   21.1281 C   0  0  0  0  0  0  0  0  0  0  0  0
   11.6946  -20.1688   20.4639 O   0  0  0  0  0  0  0  0  0  0  0  0
   12.0733  -19.1808   22.4996 N   0  0  0  0  0  0  0  0  0  0  0  0
   12.3903  -20.3921   23.2145 C   0  0  1  0  0  0  0  0  0  0  0  0
   12.8096  -20.0817   24.6116 C   0  0  0  0  0  0  0  0  0  0  0  0
   13.1751  -21.2998   25.4108 C   0  0  0  0  0  0  0  0  0  0  0  0
   13.5839  -20.9197   26.8152 C   0  0  0  0  0  0  0  0  0  0  0  0
   14.1370  -22.1121   27.5686 C   0  0  0  0  0  0  0  0  0  0  0  0
   14.7461  -21.7504   28.8305 N   0  0  0  0  0  0  0  0  0  0  0  0
   11.1894  -21.3094   23.2355 C   0  0  0  0  0  0  0  0  0  0  0  0
    9.9066  -20.7812   23.1629 O   0  0  0  0  0  0  0  0  0  0  0  0
   11.3072  -22.5452   23.3179 O   0  0  0  0  0  0  0  0  0  0  0  0
  1  2  1  0
  2  3  2  0
  4  2  1  0
  4  5  1  0
  5  6  1  1
  7  5  1  0
  7  8  2  0
  9 10  1  0
 11 10  1  6
 11 12  1  0
 12  7  1  0
 13 11  1  0
 14 13  2  0
 15 13  1  0
 16 15  1  0
 16 22  1  0
 16 17  1  1
 18 17  1  0
 19 18  1  0
 20 19  1  0
 21 20  1  0
 22 23  1  0
 24 22  2  0
M  END
$$$$
