YNS.pdb
     RDKit          3D

 27 27  0  0  1  0  0  0  0  0999 V2000
   28.7412  -20.0264   -6.4918 O   0  0  0  0  0  0  0  0  0  0  0  0
   28.1270  -20.1121   -7.7254 C   0  0  0  0  0  0  0  0  0  0  0  0
   28.9053  -20.4726   -8.8232 C   0  0  0  0  0  0  0  0  0  0  0  0
   28.3320  -20.5695  -10.0713 C   0  0  0  0  0  0  0  0  0  0  0  0
   26.9867  -20.3196  -10.2840 C   0  0  0  0  0  0  0  0  0  0  0  0
   26.4122  -20.4301  -11.6291 C   0  0  0  0  0  0  0  0  0  0  0  0
   25.3735  -21.5398  -11.6782 C   0  0  2  0  0  0  0  0  0  0  0  0
   26.0982  -22.7398  -12.0399 N   0  0  0  0  0  0  0  0  0  0  0  0
   24.3117  -21.1882  -12.6560 C   0  0  0  0  0  0  0  0  0  0  0  0
   24.3940  -21.6276  -13.8443 O   0  0  0  0  0  0  0  0  0  0  0  0
   26.2437  -19.9671   -9.1856 C   0  0  0  0  0  0  0  0  0  0  0  0
   26.7771  -19.8536   -7.9024 C   0  0  0  0  0  0  0  0  0  0  0  0
   20.5402  -21.1940  -10.0484 N   0  0  0  0  0  0  0  0  0  0  0  0
   20.4633  -21.1447  -11.4700 C   0  0  0  0  0  0  0  0  0  0  0  0
   20.1170  -22.1768  -12.0742 O   0  0  0  0  0  0  0  0  0  0  0  0
   20.7873  -19.8998  -12.2011 C   0  0  0  0  0  0  0  0  0  0  0  0
   22.0420  -20.1112  -13.0439 C   0  0  2  0  0  0  0  0  0  0  0  0
   23.2184  -20.3717  -12.2667 N   0  0  0  0  0  0  0  0  0  0  0  0
   22.2215  -19.0739  -14.0504 C   0  0  0  0  0  0  0  0  0  0  0  0
   22.3506  -17.8682  -13.6404 O   0  0  0  0  0  0  0  0  0  0  0  0
   24.6085  -18.8406  -17.0172 O   0  0  0  0  0  0  0  0  0  0  0  0
   23.3008  -18.8177  -17.5034 C   0  0  0  0  0  0  0  0  0  0  0  0
   22.3772  -18.3118  -16.4268 C   0  0  2  0  0  0  0  0  0  0  0  0
   22.2525  -19.3562  -15.4208 N   0  0  0  0  0  0  0  0  0  0  0  0
   21.0449  -17.9466  -16.9709 C   0  0  0  0  0  0  0  0  0  0  0  0
   20.1706  -18.8332  -17.0636 O   0  0  0  0  0  0  0  0  0  0  0  0
   20.7532  -16.6551  -17.3753 O   0  0  0  0  0  0  0  0  0  0  0  0
  1  2  1  0
  2  3  2  0
  3  4  1  0
  5  6  1  0
  5  4  2  0
  6  7  1  0
  7  8  1  6
  7  9  1  0
  9 10  2  0
 11  5  1  0
 12 11  2  0
 12  2  1  0
 14 15  2  0
 14 13  1  0
 16 14  1  0
 17 16  1  1
 18  9  1  0
 18 17  1  0
 19 17  1  0
 19 20  2  0
 21 22  1  0
 23 22  1  6
 23 24  1  0
 24 19  1  0
 25 23  1  0
 26 25  2  0
 27 25  1  0
M  END
$$$$
