YNS.pdb
     RDKit          3D

 27 27  0  0  1  0  0  0  0  0999 V2000
   16.6555  -14.3565  -19.5078 O   0  0  0  0  0  0  0  0  0  0  0  0
   16.8597  -13.1402  -18.8873 C   0  0  0  0  0  0  0  0  0  0  0  0
   18.0930  -12.5149  -19.0569 C   0  0  0  0  0  0  0  0  0  0  0  0
   18.3379  -11.3010  -18.4552 C   0  0  0  0  0  0  0  0  0  0  0  0
   17.3891  -10.6629  -17.6739 C   0  0  0  0  0  0  0  0  0  0  0  0
   17.6877   -9.3712  -17.0463 C   0  0  0  0  0  0  0  0  0  0  0  0
   18.4038   -9.5730  -15.7199 C   0  0  2  0  0  0  0  0  0  0  0  0
   17.4520  -10.2418  -14.8581 N   0  0  0  0  0  0  0  0  0  0  0  0
   18.8453   -8.2593  -15.1848 C   0  0  0  0  0  0  0  0  0  0  0  0
   18.0206   -7.5473  -14.5330 O   0  0  0  0  0  0  0  0  0  0  0  0
   16.1835  -11.3005  -17.5241 C   0  0  0  0  0  0  0  0  0  0  0  0
   15.8874  -12.5303  -18.1106 C   0  0  0  0  0  0  0  0  0  0  0  0
   23.5809   -4.5181  -14.8001 N   0  0  0  0  0  0  0  0  0  0  0  0
   22.6346   -5.3021  -14.0797 C   0  0  0  0  0  0  0  0  0  0  0  0
   22.1943   -4.8492  -13.0066 O   0  0  0  0  0  0  0  0  0  0  0  0
   22.1922   -6.6158  -14.5971 C   0  0  0  0  0  0  0  0  0  0  0  0
   20.7138   -6.5491  -14.9703 C   0  0  2  0  0  0  0  0  0  0  0  0
   20.1728   -7.8058  -15.3989 N   0  0  0  0  0  0  0  0  0  0  0  0
   20.4127   -5.4435  -15.8692 C   0  0  0  0  0  0  0  0  0  0  0  0
   20.9541   -5.4601  -17.0290 O   0  0  0  0  0  0  0  0  0  0  0  0
   17.4016   -2.8286  -15.0216 O   0  0  0  0  0  0  0  0  0  0  0  0
   17.7840   -3.0366  -16.3473 C   0  0  0  0  0  0  0  0  0  0  0  0
   19.2680   -3.2860  -16.4050 C   0  0  2  0  0  0  0  0  0  0  0  0
   19.5693   -4.3882  -15.5036 N   0  0  0  0  0  0  0  0  0  0  0  0
   20.0446   -2.0768  -16.0320 C   0  0  0  0  0  0  0  0  0  0  0  0
   19.9488   -1.0575  -16.7469 O   0  0  0  0  0  0  0  0  0  0  0  0
   20.8669   -2.0548  -14.9185 O   0  0  0  0  0  0  0  0  0  0  0  0
  1  2  1  0
  2  3  2  0
  3  4  1  0
  5  6  1  0
  5  4  2  0
  6  7  1  0
  7  8  1  1
  7  9  1  0
  9 10  2  0
 11  5  1  0
 12 11  2  0
 12  2  1  0
 14 15  2  0
 14 13  1  0
 16 14  1  0
 17 16  1  6
 18  9  1  0
 18 17  1  0
 19 17  1  0
 19 20  2  0
 21 22  1  0
 23 22  1  1
 23 24  1  0
 24 19  1  0
 25 23  1  0
 26 25  2  0
 27 25  1  0
M  END
$$$$
