YNS.pdb
     RDKit          3D

 27 27  0  0  1  0  0  0  0  0999 V2000
   15.0157  -15.0200  -16.2406 O   0  0  0  0  0  0  0  0  0  0  0  0
   15.9515  -14.0342  -15.9980 C   0  0  0  0  0  0  0  0  0  0  0  0
   15.8058  -12.8141  -16.6544 C   0  0  0  0  0  0  0  0  0  0  0  0
   16.7171  -11.8044  -16.4407 C   0  0  0  0  0  0  0  0  0  0  0  0
   17.7931  -11.9546  -15.5821 C   0  0  0  0  0  0  0  0  0  0  0  0
   18.7452  -10.8569  -15.3822 C   0  0  0  0  0  0  0  0  0  0  0  0
   19.8203  -10.8780  -16.4576 C   0  0  2  0  0  0  0  0  0  0  0  0
   20.6473  -12.0292  -16.1630 N   0  0  0  0  0  0  0  0  0  0  0  0
   20.5777   -9.6001  -16.4329 C   0  0  0  0  0  0  0  0  0  0  0  0
   21.5009   -9.4438  -15.5755 O   0  0  0  0  0  0  0  0  0  0  0  0
   17.9122  -13.1658  -14.9485 C   0  0  0  0  0  0  0  0  0  0  0  0
   17.0177  -14.2195  -15.1324 C   0  0  0  0  0  0  0  0  0  0  0  0
   21.4113   -4.4080  -19.7453 N   0  0  0  0  0  0  0  0  0  0  0  0
   21.7916   -5.5553  -18.9916 C   0  0  0  0  0  0  0  0  0  0  0  0
   22.8972   -5.5401  -18.4190 O   0  0  0  0  0  0  0  0  0  0  0  0
   20.8943   -6.7279  -18.8963 C   0  0  0  0  0  0  0  0  0  0  0  0
   20.9768   -7.3249  -17.4942 C   0  0  2  0  0  0  0  0  0  0  0  0
   20.2736   -8.5668  -17.3568 N   0  0  0  0  0  0  0  0  0  0  0  0
   20.6637   -6.3551  -16.4536 C   0  0  0  0  0  0  0  0  0  0  0  0
   19.4403   -6.2500  -16.0919 O   0  0  0  0  0  0  0  0  0  0  0  0
   21.9934   -5.9816  -12.9521 O   0  0  0  0  0  0  0  0  0  0  0  0
   20.8814   -5.4325  -13.5916 C   0  0  0  0  0  0  0  0  0  0  0  0
   21.3368   -4.6251  -14.7784 C   0  0  2  0  0  0  0  0  0  0  0  0
   21.6433   -5.5534  -15.8567 N   0  0  0  0  0  0  0  0  0  0  0  0
   22.5202   -3.7891  -14.4544 C   0  0  0  0  0  0  0  0  0  0  0  0
   23.6048   -4.0389  -15.0203 O   0  0  0  0  0  0  0  0  0  0  0  0
   22.4484   -2.7475  -13.5454 O   0  0  0  0  0  0  0  0  0  0  0  0
  1  2  1  0
  2  3  2  0
  3  4  1  0
  5  6  1  0
  5  4  2  0
  6  7  1  0
  7  8  1  1
  7  9  1  0
  9 10  2  0
 11  5  1  0
 12 11  2  0
 12  2  1  0
 14 15  2  0
 14 13  1  0
 16 14  1  0
 17 16  1  6
 18  9  1  0
 18 17  1  0
 19 17  1  0
 19 20  2  0
 21 22  1  0
 23 22  1  1
 23 24  1  0
 24 19  1  0
 25 23  1  0
 26 25  2  0
 27 25  1  0
M  END
$$$$
