YNS.pdb
     RDKit          3D

 27 27  0  0  1  0  0  0  0  0999 V2000
   28.6654  -20.2086   -6.2386 O   0  0  0  0  0  0  0  0  0  0  0  0
   28.1214  -20.2824   -7.5055 C   0  0  0  0  0  0  0  0  0  0  0  0
   26.7907  -19.9051   -7.6720 C   0  0  0  0  0  0  0  0  0  0  0  0
   26.2095  -19.9637   -8.9188 C   0  0  0  0  0  0  0  0  0  0  0  0
   26.9077  -20.3897  -10.0363 C   0  0  0  0  0  0  0  0  0  0  0  0
   26.2536  -20.4416  -11.3481 C   0  0  0  0  0  0  0  0  0  0  0  0
   25.3333  -21.6488  -11.4402 C   0  0  2  0  0  0  0  0  0  0  0  0
   26.1773  -22.7560  -11.8376 N   0  0  0  0  0  0  0  0  0  0  0  0
   24.2436  -21.3742  -12.4119 C   0  0  0  0  0  0  0  0  0  0  0  0
   24.3933  -21.7199  -13.6244 O   0  0  0  0  0  0  0  0  0  0  0  0
   28.2163  -20.7547   -9.8438 C   0  0  0  0  0  0  0  0  0  0  0  0
   28.8496  -20.7149   -8.6023 C   0  0  0  0  0  0  0  0  0  0  0  0
   20.8298  -23.1205  -12.4290 N   0  0  0  0  0  0  0  0  0  0  0  0
   20.1389  -22.0692  -11.7609 C   0  0  0  0  0  0  0  0  0  0  0  0
   19.1621  -22.3694  -11.0494 O   0  0  0  0  0  0  0  0  0  0  0  0
   20.5744  -20.6633  -11.9126 C   0  0  0  0  0  0  0  0  0  0  0  0
   21.8446  -20.6076  -12.7569 C   0  0  2  0  0  0  0  0  0  0  0  0
   23.0495  -20.7339  -11.9902 N   0  0  0  0  0  0  0  0  0  0  0  0
   21.8529  -19.4827  -13.6819 C   0  0  0  0  0  0  0  0  0  0  0  0
   21.8192  -18.3051  -13.1813 O   0  0  0  0  0  0  0  0  0  0  0  0
   22.6323  -17.9083  -18.1566 O   0  0  0  0  0  0  0  0  0  0  0  0
   22.5420  -18.9856  -17.2745 C   0  0  0  0  0  0  0  0  0  0  0  0
   21.8978  -18.5279  -15.9925 C   0  0  2  0  0  0  0  0  0  0  0  0
   21.8928  -19.6539  -15.0704 N   0  0  0  0  0  0  0  0  0  0  0  0
   20.5178  -18.0285  -16.2173 C   0  0  0  0  0  0  0  0  0  0  0  0
   20.3611  -16.9541  -16.8338 O   0  0  0  0  0  0  0  0  0  0  0  0
   19.4097  -18.7219  -15.7613 O   0  0  0  0  0  0  0  0  0  0  0  0
  1  2  1  0
  2  3  2  0
  3  4  1  0
  5  6  1  0
  5  4  2  0
  6  7  1  0
  7  8  1  6
  7  9  1  0
  9 10  2  0
 11  5  1  0
 12 11  2  0
 12  2  1  0
 14 15  2  0
 14 13  1  0
 16 14  1  0
 17 16  1  1
 18  9  1  0
 18 17  1  0
 19 17  1  0
 19 20  2  0
 21 22  1  0
 23 22  1  6
 23 24  1  0
 24 19  1  0
 25 23  1  0
 26 25  2  0
 27 25  1  0
M  END
$$$$
