YNS.pdb
     RDKit          3D

 27 27  0  0  1  0  0  0  0  0999 V2000
   23.4696  -19.3629  -21.4789 O   0  0  0  0  0  0  0  0  0  0  0  0
   22.6736  -18.4192  -20.8607 C   0  0  0  0  0  0  0  0  0  0  0  0
   23.0322  -17.9917  -19.5842 C   0  0  0  0  0  0  0  0  0  0  0  0
   22.2655  -17.0521  -18.9323 C   0  0  0  0  0  0  0  0  0  0  0  0
   21.1308  -16.5028  -19.5054 C   0  0  0  0  0  0  0  0  0  0  0  0
   20.3374  -15.5060  -18.7786 C   0  0  0  0  0  0  0  0  0  0  0  0
   20.6429  -14.1052  -19.2856 C   0  0  2  0  0  0  0  0  0  0  0  0
   21.9912  -13.8141  -18.8455 N   0  0  0  0  0  0  0  0  0  0  0  0
   19.6402  -13.1492  -18.7491 C   0  0  0  0  0  0  0  0  0  0  0  0
   18.4232  -13.2726  -19.0891 O   0  0  0  0  0  0  0  0  0  0  0  0
   20.8012  -16.9413  -20.7630 C   0  0  0  0  0  0  0  0  0  0  0  0
   21.5431  -17.8913  -21.4637 C   0  0  0  0  0  0  0  0  0  0  0  0
   16.5261  -11.3970  -16.7470 N   0  0  0  0  0  0  0  0  0  0  0  0
   17.4132  -11.4438  -15.6335 C   0  0  0  0  0  0  0  0  0  0  0  0
   16.9220  -11.5901  -14.4987 O   0  0  0  0  0  0  0  0  0  0  0  0
   18.8750  -11.3212  -15.8269 C   0  0  0  0  0  0  0  0  0  0  0  0
   19.1809  -11.1070  -17.3067 C   0  0  2  0  0  0  0  0  0  0  0  0
   20.0374  -12.1111  -17.8670 N   0  0  0  0  0  0  0  0  0  0  0  0
   19.6045   -9.7446  -17.5993 C   0  0  0  0  0  0  0  0  0  0  0  0
   20.2751   -9.5514  -18.6723 O   0  0  0  0  0  0  0  0  0  0  0  0
   19.4300   -5.5919  -18.6627 O   0  0  0  0  0  0  0  0  0  0  0  0
   19.0817   -6.9088  -18.3604 C   0  0  0  0  0  0  0  0  0  0  0  0
   19.7204   -7.3067  -17.0559 C   0  0  2  0  0  0  0  0  0  0  0  0
   19.3061   -8.6690  -16.7550 N   0  0  0  0  0  0  0  0  0  0  0  0
   19.3401   -6.3877  -15.9535 C   0  0  0  0  0  0  0  0  0  0  0  0
   18.5664   -6.8029  -15.0658 O   0  0  0  0  0  0  0  0  0  0  0  0
   19.8198   -5.0907  -15.8892 O   0  0  0  0  0  0  0  0  0  0  0  0
  1  2  1  0
  2  3  2  0
  3  4  1  0
  5  6  1  0
  5  4  2  0
  6  7  1  0
  7  8  1  1
  7  9  1  0
  9 10  2  0
 11  5  1  0
 12 11  2  0
 12  2  1  0
 14 15  2  0
 14 13  1  0
 16 14  1  0
 17 16  1  1
 18  9  1  0
 18 17  1  0
 19 17  1  0
 19 20  2  0
 21 22  1  0
 23 22  1  6
 23 24  1  0
 24 19  1  0
 25 23  1  0
 26 25  2  0
 27 25  1  0
M  END
$$$$
