YNS.pdb
     RDKit          3D

 27 27  0  0  1  0  0  0  0  0999 V2000
   17.9038  -14.9705  -19.3355 O   0  0  0  0  0  0  0  0  0  0  0  0
   18.0326  -13.7880  -18.6345 C   0  0  0  0  0  0  0  0  0  0  0  0
   17.5983  -13.7580  -17.3112 C   0  0  0  0  0  0  0  0  0  0  0  0
   17.7085  -12.5987  -16.5766 C   0  0  0  0  0  0  0  0  0  0  0  0
   18.2453  -11.4388  -17.1096 C   0  0  0  0  0  0  0  0  0  0  0  0
   18.3437  -10.2218  -16.2967 C   0  0  0  0  0  0  0  0  0  0  0  0
   19.7334  -10.0920  -15.6930 C   0  0  2  0  0  0  0  0  0  0  0  0
   19.8975  -11.2463  -14.8346 N   0  0  0  0  0  0  0  0  0  0  0  0
   19.8417   -8.8050  -14.9588 C   0  0  0  0  0  0  0  0  0  0  0  0
   19.3317   -8.7081  -13.8002 O   0  0  0  0  0  0  0  0  0  0  0  0
   18.6655  -11.4965  -18.4145 C   0  0  0  0  0  0  0  0  0  0  0  0
   18.5739  -12.6446  -19.2003 C   0  0  0  0  0  0  0  0  0  0  0  0
   23.0408   -3.7990  -14.4431 N   0  0  0  0  0  0  0  0  0  0  0  0
   22.3120   -4.8741  -13.8580 C   0  0  0  0  0  0  0  0  0  0  0  0
   21.7828   -4.6868  -12.7465 O   0  0  0  0  0  0  0  0  0  0  0  0
   22.1916   -6.1731  -14.5560 C   0  0  0  0  0  0  0  0  0  0  0  0
   20.7321   -6.4242  -14.9250 C   0  0  2  0  0  0  0  0  0  0  0  0
   20.5076   -7.6975  -15.5449 N   0  0  0  0  0  0  0  0  0  0  0  0
   20.1369   -5.3075  -15.6460 C   0  0  0  0  0  0  0  0  0  0  0  0
   20.6395   -5.0026  -16.7831 O   0  0  0  0  0  0  0  0  0  0  0  0
   16.4469   -4.0970  -14.8732 O   0  0  0  0  0  0  0  0  0  0  0  0
   17.0409   -3.6849  -16.0666 C   0  0  0  0  0  0  0  0  0  0  0  0
   18.5048   -3.4222  -15.8304 C   0  0  2  0  0  0  0  0  0  0  0  0
   19.0576   -4.5763  -15.1370 N   0  0  0  0  0  0  0  0  0  0  0  0
   18.7218   -2.1833  -15.0414 C   0  0  0  0  0  0  0  0  0  0  0  0
   19.3110   -2.2662  -13.9436 O   0  0  0  0  0  0  0  0  0  0  0  0
   18.2880   -0.9483  -15.4919 O   0  0  0  0  0  0  0  0  0  0  0  0
  1  2  1  0
  2  3  2  0
  3  4  1  0
  5  6  1  0
  5  4  2  0
  6  7  1  0
  7  8  1  1
  7  9  1  0
  9 10  2  0
 11  5  1  0
 12 11  2  0
 12  2  1  0
 14 15  2  0
 14 13  1  0
 16 14  1  0
 17 16  1  6
 18  9  1  0
 18 17  1  0
 19 17  1  0
 19 20  2  0
 21 22  1  0
 23 22  1  1
 23 24  1  0
 24 19  1  0
 25 23  1  0
 26 25  2  0
 27 25  1  0
M  END
$$$$
