YNS.pdb
     RDKit          3D

 27 27  0  0  1  0  0  0  0  0999 V2000
   27.7965  -20.0892   -6.2515 O   0  0  0  0  0  0  0  0  0  0  0  0
   27.5185  -20.1927   -7.5999 C   0  0  0  0  0  0  0  0  0  0  0  0
   26.1832  -20.1974   -7.9970 C   0  0  0  0  0  0  0  0  0  0  0  0
   25.8624  -20.2992   -9.3321 C   0  0  0  0  0  0  0  0  0  0  0  0
   26.8320  -20.3977  -10.3159 C   0  0  0  0  0  0  0  0  0  0  0  0
   26.4515  -20.5076  -11.7282 C   0  0  0  0  0  0  0  0  0  0  0  0
   25.3798  -21.5707  -11.9129 C   0  0  2  0  0  0  0  0  0  0  0  0
   26.0876  -22.8310  -11.9951 N   0  0  0  0  0  0  0  0  0  0  0  0
   24.5848  -21.2730  -13.1321 C   0  0  0  0  0  0  0  0  0  0  0  0
   24.9348  -21.7848  -14.2400 O   0  0  0  0  0  0  0  0  0  0  0  0
   28.1386  -20.3901   -9.8970 C   0  0  0  0  0  0  0  0  0  0  0  0
   28.5149  -20.2910   -8.5581 C   0  0  0  0  0  0  0  0  0  0  0  0
   19.3134  -18.5967  -14.9345 N   0  0  0  0  0  0  0  0  0  0  0  0
   20.2775  -19.6448  -14.9041 C   0  0  0  0  0  0  0  0  0  0  0  0
   20.3818  -20.3742  -15.9079 O   0  0  0  0  0  0  0  0  0  0  0  0
   21.1269  -19.8554  -13.7110 C   0  0  0  0  0  0  0  0  0  0  0  0
   22.5696  -20.1001  -14.1447 C   0  0  2  0  0  0  0  0  0  0  0  0
   23.4475  -20.4274  -13.0594 N   0  0  0  0  0  0  0  0  0  0  0  0
   23.0786  -19.0486  -15.0145 C   0  0  0  0  0  0  0  0  0  0  0  0
   23.0541  -17.8490  -14.5688 O   0  0  0  0  0  0  0  0  0  0  0  0
   25.4346  -19.9092  -18.1069 O   0  0  0  0  0  0  0  0  0  0  0  0
   25.4037  -18.5869  -17.6625 C   0  0  0  0  0  0  0  0  0  0  0  0
   24.0130  -18.2511  -17.1923 C   0  0  2  0  0  0  0  0  0  0  0  0
   23.5786  -19.3114  -16.2950 N   0  0  0  0  0  0  0  0  0  0  0  0
   23.0677  -18.1057  -18.3280 C   0  0  0  0  0  0  0  0  0  0  0  0
   22.0447  -18.8212  -18.3530 O   0  0  0  0  0  0  0  0  0  0  0  0
   23.2942  -17.2022  -19.3522 O   0  0  0  0  0  0  0  0  0  0  0  0
  1  2  1  0
  2  3  2  0
  3  4  1  0
  5  6  1  0
  5  4  2  0
  6  7  1  0
  7  8  1  6
  7  9  1  0
  9 10  2  0
 11  5  1  0
 12 11  2  0
 12  2  1  0
 14 15  2  0
 14 13  1  0
 16 14  1  0
 17 16  1  1
 18  9  1  0
 18 17  1  0
 19 17  1  0
 19 20  2  0
 21 22  1  0
 23 22  1  6
 23 24  1  0
 24 19  1  0
 25 23  1  0
 26 25  2  0
 27 25  1  0
M  END
$$$$
