YNS.pdb
     RDKit          3D

 27 27  0  0  1  0  0  0  0  0999 V2000
   19.6749  -13.6005  -17.1597 O   0  0  0  0  0  0  0  0  0  0  0  0
   19.1890  -12.4704  -16.5328 C   0  0  0  0  0  0  0  0  0  0  0  0
   18.1456  -11.7778  -17.1431 C   0  0  0  0  0  0  0  0  0  0  0  0
   17.6319  -10.6457  -16.5513 C   0  0  0  0  0  0  0  0  0  0  0  0
   18.1187  -10.1585  -15.3499 C   0  0  0  0  0  0  0  0  0  0  0  0
   17.5476   -8.9472  -14.7514 C   0  0  0  0  0  0  0  0  0  0  0  0
   16.5427   -9.3077  -13.6684 C   0  0  2  0  0  0  0  0  0  0  0  0
   15.4509   -9.9695  -14.3510 N   0  0  0  0  0  0  0  0  0  0  0  0
   16.1166   -8.0779  -12.9520 C   0  0  0  0  0  0  0  0  0  0  0  0
   15.3042   -7.2823  -13.5167 O   0  0  0  0  0  0  0  0  0  0  0  0
   19.1456  -10.8602  -14.7706 C   0  0  0  0  0  0  0  0  0  0  0  0
   19.7012  -12.0101  -15.3303 C   0  0  0  0  0  0  0  0  0  0  0  0
   15.5003   -4.5229   -9.3461 N   0  0  0  0  0  0  0  0  0  0  0  0
   16.1176   -5.6040   -8.6538 C   0  0  0  0  0  0  0  0  0  0  0  0
   16.2177   -5.5256   -7.4152 O   0  0  0  0  0  0  0  0  0  0  0  0
   16.6233   -6.7827   -9.3915 C   0  0  0  0  0  0  0  0  0  0  0  0
   16.3322   -6.6199  -10.8808 C   0  0  2  0  0  0  0  0  0  0  0  0
   16.6109   -7.7960  -11.6521 N   0  0  0  0  0  0  0  0  0  0  0  0
   16.9119   -5.4040  -11.4348 C   0  0  0  0  0  0  0  0  0  0  0  0
   18.0021   -5.5167  -12.0961 O   0  0  0  0  0  0  0  0  0  0  0  0
   16.8989   -2.2314  -14.2834 O   0  0  0  0  0  0  0  0  0  0  0  0
   16.5747   -3.3414  -13.5024 C   0  0  0  0  0  0  0  0  0  0  0  0
   16.7225   -2.9869  -12.0462 C   0  0  2  0  0  0  0  0  0  0  0  0
   16.3220   -4.1465  -11.2633 N   0  0  0  0  0  0  0  0  0  0  0  0
   15.9061   -1.8015  -11.6823 C   0  0  0  0  0  0  0  0  0  0  0  0
   14.7029   -1.9672  -11.3925 O   0  0  0  0  0  0  0  0  0  0  0  0
   16.4447   -0.5264  -11.6582 O   0  0  0  0  0  0  0  0  0  0  0  0
  1  2  1  0
  2  3  2  0
  3  4  1  0
  5  6  1  0
  5  4  2  0
  6  7  1  0
  7  8  1  6
  7  9  1  0
  9 10  2  0
 11  5  1  0
 12 11  2  0
 12  2  1  0
 14 15  2  0
 14 13  1  0
 16 14  1  0
 17 16  1  1
 18  9  1  0
 18 17  1  0
 19 17  1  0
 19 20  2  0
 21 22  1  0
 23 22  1  6
 23 24  1  0
 24 19  1  0
 25 23  1  0
 26 25  2  0
 27 25  1  0
M  END
$$$$
