YNS.pdb
     RDKit          3D

 27 27  0  0  1  0  0  0  0  0999 V2000
   30.8378  -16.2125  -19.6737 O   0  0  0  0  0  0  0  0  0  0  0  0
   29.9203  -16.9221  -18.9248 C   0  0  0  0  0  0  0  0  0  0  0  0
   29.1541  -17.8905  -19.5698 C   0  0  0  0  0  0  0  0  0  0  0  0
   28.2275  -18.6206  -18.8598 C   0  0  0  0  0  0  0  0  0  0  0  0
   28.0229  -18.4287  -17.5037 C   0  0  0  0  0  0  0  0  0  0  0  0
   27.0241  -19.2239  -16.7815 C   0  0  0  0  0  0  0  0  0  0  0  0
   27.7010  -20.2718  -15.9117 C   0  0  2  0  0  0  0  0  0  0  0  0
   28.2475  -21.2495  -16.8290 N   0  0  0  0  0  0  0  0  0  0  0  0
   26.7120  -20.8534  -14.9680 C   0  0  0  0  0  0  0  0  0  0  0  0
   25.9999  -21.8349  -15.3441 O   0  0  0  0  0  0  0  0  0  0  0  0
   28.7911  -17.4694  -16.8937 C   0  0  0  0  0  0  0  0  0  0  0  0
   29.7407  -16.7030  -17.5683 C   0  0  0  0  0  0  0  0  0  0  0  0
   23.8450  -21.6699  -10.8217 N   0  0  0  0  0  0  0  0  0  0  0  0
   24.9691  -20.9476  -10.3281 C   0  0  0  0  0  0  0  0  0  0  0  0
   25.0864  -20.8172   -9.0953 O   0  0  0  0  0  0  0  0  0  0  0  0
   25.9645  -20.3713  -11.2588 C   0  0  0  0  0  0  0  0  0  0  0  0
   25.5802  -20.7109  -12.6962 C   0  0  2  0  0  0  0  0  0  0  0  0
   26.5651  -20.3190  -13.6616 N   0  0  0  0  0  0  0  0  0  0  0  0
   24.2286  -20.2832  -13.0302 C   0  0  0  0  0  0  0  0  0  0  0  0
   24.0396  -19.0359  -13.2469 O   0  0  0  0  0  0  0  0  0  0  0  0
   20.3818  -20.5150  -15.3450 O   0  0  0  0  0  0  0  0  0  0  0  0
   21.6465  -20.9585  -14.9567 C   0  0  0  0  0  0  0  0  0  0  0  0
   21.8133  -20.7540  -13.4740 C   0  0  2  0  0  0  0  0  0  0  0  0
   23.1577  -21.1803  -13.1147 N   0  0  0  0  0  0  0  0  0  0  0  0
   20.7987  -21.5090  -12.6963 C   0  0  0  0  0  0  0  0  0  0  0  0
   21.1723  -22.4788  -12.0042 O   0  0  0  0  0  0  0  0  0  0  0  0
   19.4580  -21.1648  -12.7219 O   0  0  0  0  0  0  0  0  0  0  0  0
  1  2  1  0
  2  3  2  0
  3  4  1  0
  5  6  1  0
  5  4  2  0
  6  7  1  0
  7  8  1  6
  7  9  1  0
  9 10  2  0
 11  5  1  0
 12 11  2  0
 12  2  1  0
 14 15  2  0
 14 13  1  0
 16 14  1  0
 17 16  1  1
 18  9  1  0
 18 17  1  0
 19 17  1  0
 19 20  2  0
 21 22  1  0
 23 22  1  6
 23 24  1  0
 24 19  1  0
 25 23  1  0
 26 25  2  0
 27 25  1  0
M  END
$$$$
