YNS.pdb
     RDKit          3D

 27 27  0  0  1  0  0  0  0  0999 V2000
   25.5748  -15.8593  -16.3764 O   0  0  0  0  0  0  0  0  0  0  0  0
   24.9916  -14.6083  -16.4110 C   0  0  0  0  0  0  0  0  0  0  0  0
   24.6930  -13.9889  -15.1994 C   0  0  0  0  0  0  0  0  0  0  0  0
   24.1108  -12.7412  -15.1893 C   0  0  0  0  0  0  0  0  0  0  0  0
   23.8051  -12.0630  -16.3573 C   0  0  0  0  0  0  0  0  0  0  0  0
   23.1822  -10.7360  -16.3066 C   0  0  0  0  0  0  0  0  0  0  0  0
   21.6688  -10.8577  -16.2201 C   0  0  2  0  0  0  0  0  0  0  0  0
   21.2581  -11.5186  -17.4410 N   0  0  0  0  0  0  0  0  0  0  0  0
   21.0666   -9.5089  -16.0616 C   0  0  0  0  0  0  0  0  0  0  0  0
   20.8611   -8.7973  -17.0928 O   0  0  0  0  0  0  0  0  0  0  0  0
   24.1103  -12.6958  -17.5358 C   0  0  0  0  0  0  0  0  0  0  0  0
   24.6980  -13.9586  -17.5992 C   0  0  0  0  0  0  0  0  0  0  0  0
   17.6399   -9.7858  -12.8077 N   0  0  0  0  0  0  0  0  0  0  0  0
   18.0105   -8.7319  -13.6914 C   0  0  0  0  0  0  0  0  0  0  0  0
   17.3837   -8.6165  -14.7611 O   0  0  0  0  0  0  0  0  0  0  0  0
   19.1096   -7.8049  -13.3423 C   0  0  0  0  0  0  0  0  0  0  0  0
   20.1205   -7.7540  -14.4846 C   0  0  2  0  0  0  0  0  0  0  0  0
   20.7246   -9.0217  -14.7734 N   0  0  0  0  0  0  0  0  0  0  0  0
   21.0791   -6.6676  -14.3356 C   0  0  0  0  0  0  0  0  0  0  0  0
   22.2961   -6.9818  -14.0938 O   0  0  0  0  0  0  0  0  0  0  0  0
   23.4506   -3.6354  -16.1094 O   0  0  0  0  0  0  0  0  0  0  0  0
   22.5017   -4.6307  -15.8726 C   0  0  0  0  0  0  0  0  0  0  0  0
   21.6857   -4.2638  -14.6612 C   0  0  2  0  0  0  0  0  0  0  0  0
   20.7102   -5.3219  -14.4449 N   0  0  0  0  0  0  0  0  0  0  0  0
   21.0087   -2.9532  -14.8294 C   0  0  0  0  0  0  0  0  0  0  0  0
   19.9731   -2.8973  -15.5248 O   0  0  0  0  0  0  0  0  0  0  0  0
   21.4968   -1.8007  -14.2378 O   0  0  0  0  0  0  0  0  0  0  0  0
  1  2  1  0
  2  3  2  0
  3  4  1  0
  5  6  1  0
  5  4  2  0
  6  7  1  0
  7  8  1  6
  7  9  1  0
  9 10  2  0
 11  5  1  0
 12 11  2  0
 12  2  1  0
 14 15  2  0
 14 13  1  0
 16 14  1  0
 17 16  1  1
 18  9  1  0
 18 17  1  0
 19 17  1  0
 19 20  2  0
 21 22  1  0
 23 22  1  6
 23 24  1  0
 24 19  1  0
 25 23  1  0
 26 25  2  0
 27 25  1  0
M  END
$$$$
