YNS.pdb
     RDKit          3D

 27 27  0  0  1  0  0  0  0  0999 V2000
   18.7236  -14.9082  -19.9392 O   0  0  0  0  0  0  0  0  0  0  0  0
   18.6392  -13.6958  -19.2840 C   0  0  0  0  0  0  0  0  0  0  0  0
   19.8150  -12.9781  -19.0761 C   0  0  0  0  0  0  0  0  0  0  0  0
   19.7751  -11.7647  -18.4268 C   0  0  0  0  0  0  0  0  0  0  0  0
   18.5904  -11.2171  -17.9638 C   0  0  0  0  0  0  0  0  0  0  0  0
   18.5880   -9.9228  -17.2735 C   0  0  0  0  0  0  0  0  0  0  0  0
   19.2494  -10.0423  -15.9093 C   0  0  2  0  0  0  0  0  0  0  0  0
   18.4160  -10.9484  -15.1473 N   0  0  0  0  0  0  0  0  0  0  0  0
   19.3605   -8.6975  -15.2878 C   0  0  0  0  0  0  0  0  0  0  0  0
   18.3545   -8.2072  -14.6881 O   0  0  0  0  0  0  0  0  0  0  0  0
   17.4478  -11.9446  -18.1823 C   0  0  0  0  0  0  0  0  0  0  0  0
   17.4357  -13.1779  -18.8326 C   0  0  0  0  0  0  0  0  0  0  0  0
   22.1289   -4.8390  -12.4424 N   0  0  0  0  0  0  0  0  0  0  0  0
   22.3839   -5.0635  -13.8258 C   0  0  0  0  0  0  0  0  0  0  0  0
   22.7171   -4.0891  -14.5258 O   0  0  0  0  0  0  0  0  0  0  0  0
   22.2545   -6.4178  -14.4076 C   0  0  0  0  0  0  0  0  0  0  0  0
   20.8082   -6.6584  -14.8313 C   0  0  2  0  0  0  0  0  0  0  0  0
   20.5764   -7.9697  -15.3629 N   0  0  0  0  0  0  0  0  0  0  0  0
   20.2835   -5.5859  -15.6655 C   0  0  0  0  0  0  0  0  0  0  0  0
   20.6977   -5.5209  -16.8749 O   0  0  0  0  0  0  0  0  0  0  0  0
   16.7189   -2.6732  -16.6831 O   0  0  0  0  0  0  0  0  0  0  0  0
   17.2958   -3.6953  -15.9285 C   0  0  0  0  0  0  0  0  0  0  0  0
   18.7953   -3.6117  -16.0394 C   0  0  2  0  0  0  0  0  0  0  0  0
   19.3628   -4.6465  -15.1877 N   0  0  0  0  0  0  0  0  0  0  0  0
   19.3029   -2.2729  -15.6464 C   0  0  0  0  0  0  0  0  0  0  0  0
   19.6787   -2.0952  -14.4689 O   0  0  0  0  0  0  0  0  0  0  0  0
   19.3673   -1.2253  -16.5491 O   0  0  0  0  0  0  0  0  0  0  0  0
  1  2  1  0
  2  3  2  0
  3  4  1  0
  5  6  1  0
  5  4  2  0
  6  7  1  0
  7  8  1  1
  7  9  1  0
  9 10  2  0
 11  5  1  0
 12 11  2  0
 12  2  1  0
 14 15  2  0
 14 13  1  0
 16 14  1  0
 17 16  1  6
 18  9  1  0
 18 17  1  0
 19 17  1  0
 19 20  2  0
 21 22  1  0
 23 22  1  1
 23 24  1  0
 24 19  1  0
 25 23  1  0
 26 25  2  0
 27 25  1  0
M  END
$$$$
