YNS.pdb
     RDKit          3D

 27 27  0  0  1  0  0  0  0  0999 V2000
   29.3417  -19.4797   -3.8490 O   0  0  0  0  0  0  0  0  0  0  0  0
   28.5544  -19.8118   -4.9335 C   0  0  0  0  0  0  0  0  0  0  0  0
   28.9850  -19.4254   -6.2008 C   0  0  0  0  0  0  0  0  0  0  0  0
   28.2294  -19.7364   -7.3090 C   0  0  0  0  0  0  0  0  0  0  0  0
   27.0361  -20.4324   -7.2136 C   0  0  0  0  0  0  0  0  0  0  0  0
   26.2569  -20.7430   -8.4169 C   0  0  0  0  0  0  0  0  0  0  0  0
   26.8726  -20.0803   -9.6395 C   0  0  2  0  0  0  0  0  0  0  0  0
   27.1032  -18.7013   -9.2638 N   0  0  0  0  0  0  0  0  0  0  0  0
   25.9543  -20.2183  -10.7990 C   0  0  0  0  0  0  0  0  0  0  0  0
   24.9681  -19.4258  -10.9059 O   0  0  0  0  0  0  0  0  0  0  0  0
   26.6361  -20.8010   -5.9540 C   0  0  0  0  0  0  0  0  0  0  0  0
   27.3640  -20.5087   -4.8012 C   0  0  0  0  0  0  0  0  0  0  0  0
   24.4299  -21.3608  -15.5529 N   0  0  0  0  0  0  0  0  0  0  0  0
   25.7135  -21.9643  -15.4227 C   0  0  0  0  0  0  0  0  0  0  0  0
   26.2540  -22.4190  -16.4481 O   0  0  0  0  0  0  0  0  0  0  0  0
   26.3796  -22.0456  -14.1040 C   0  0  0  0  0  0  0  0  0  0  0  0
   25.5479  -21.3025  -13.0621 C   0  0  2  0  0  0  0  0  0  0  0  0
   26.1766  -21.2232  -11.7760 N   0  0  0  0  0  0  0  0  0  0  0  0
   24.1681  -21.7660  -13.0131 C   0  0  0  0  0  0  0  0  0  0  0  0
   23.9396  -22.8826  -12.4305 O   0  0  0  0  0  0  0  0  0  0  0  0
   20.9664  -19.7141  -12.0979 O   0  0  0  0  0  0  0  0  0  0  0  0
   20.8617  -20.2514  -13.3814 C   0  0  0  0  0  0  0  0  0  0  0  0
   21.7285  -21.4789  -13.4804 C   0  0  2  0  0  0  0  0  0  0  0  0
   23.1127  -21.0395  -13.5763 N   0  0  0  0  0  0  0  0  0  0  0  0
   21.3631  -22.3183  -14.6493 C   0  0  0  0  0  0  0  0  0  0  0  0
   22.1432  -22.3639  -15.6231 O   0  0  0  0  0  0  0  0  0  0  0  0
   20.1853  -23.0451  -14.6834 O   0  0  0  0  0  0  0  0  0  0  0  0
  1  2  1  0
  2  3  2  0
  3  4  1  0
  5  6  1  0
  5  4  2  0
  6  7  1  0
  7  8  1  1
  7  9  1  0
  9 10  2  0
 11  5  1  0
 12 11  2  0
 12  2  1  0
 14 15  2  0
 14 13  1  0
 16 14  1  0
 17 16  1  6
 18  9  1  0
 18 17  1  0
 19 17  1  0
 19 20  2  0
 21 22  1  0
 23 22  1  6
 23 24  1  0
 24 19  1  0
 25 23  1  0
 26 25  2  0
 27 25  1  0
M  END
$$$$
