QLG.pdb
     RDKit          3D

 22 21  0  0  1  0  0  0  0  0999 V2000
   18.6222  -12.7209  -16.0364 N   0  0  0  0  0  0  0  0  0  0  0  0
   19.4134  -11.5728  -15.7707 C   0  0  0  0  0  0  0  0  0  0  0  0
   20.6438  -11.7693  -15.6506 O   0  0  0  0  0  0  0  0  0  0  0  0
   18.8718  -10.2269  -15.6328 C   0  0  0  0  0  0  0  0  0  0  0  0
   17.4020  -10.0531  -15.7039 C   0  0  0  0  0  0  0  0  0  0  0  0
   16.7039  -10.3571  -14.4359 C   0  0  2  0  0  0  0  0  0  0  0  0
   15.5019  -11.0764  -14.6267 N   0  0  0  0  0  0  0  0  0  0  0  0
   16.5329   -9.1745  -13.5509 C   0  0  0  0  0  0  0  0  0  0  0  0
   15.5797   -8.3903  -13.7688 O   0  0  0  0  0  0  0  0  0  0  0  0
   16.2969   -6.9404   -8.0276 C   0  0  0  0  0  0  0  0  0  0  0  0
   16.4648   -6.6379   -9.4951 C   0  0  2  0  0  0  0  0  0  0  0  0
   15.1953   -5.8815   -9.9253 C   0  0  0  0  0  0  0  0  0  0  0  0
   16.6077   -7.8344  -10.3441 C   0  0  0  0  0  0  0  0  0  0  0  0
   17.1814   -7.6988  -11.6976 C   0  0  2  0  0  0  0  0  0  0  0  0
   17.3893   -8.8746  -12.4645 N   0  0  0  0  0  0  0  0  0  0  0  0
   18.4439   -6.8851  -11.6433 C   0  0  0  0  0  0  0  0  0  0  0  0
   18.4291   -5.7418  -11.0990 O   0  0  0  0  0  0  0  0  0  0  0  0
   19.6781   -7.3336  -12.1781 N   0  0  0  0  0  0  0  0  0  0  0  0
   20.8660   -6.4956  -12.1653 C   0  0  0  0  0  0  0  0  0  0  0  0
   20.9308   -5.7161  -13.4137 C   0  0  0  0  0  0  0  0  0  0  0  0
   21.9991   -4.8688  -13.6180 O   0  0  0  0  0  0  0  0  0  0  0  0
   20.0241   -5.8245  -14.2764 O   0  0  0  0  0  0  0  0  0  0  0  0
  1  2  1  0
  2  3  2  0
  4  2  1  0
  5  4  1  0
  6  7  1  6
  6  5  1  0
  8  6  1  0
  8  9  2  0
 11 10  1  1
 11 12  1  0
 11 13  1  0
 14 13  1  1
 14 15  1  0
 14 16  1  0
 15  8  1  0
 16 18  1  0
 16 17  2  0
 18 19  1  0
 20 19  1  0
 20 21  1  0
 22 20  2  0
M  END
$$$$
