QLG.pdb
     RDKit          3D

 22 21  0  0  1  0  0  0  0  0999 V2000
   21.0221  -23.0778   -7.7324 N   0  0  0  0  0  0  0  0  0  0  0  0
   20.7766  -22.0683   -8.6996 C   0  0  0  0  0  0  0  0  0  0  0  0
   20.2477  -22.4487   -9.7685 O   0  0  0  0  0  0  0  0  0  0  0  0
   21.1067  -20.6619   -8.5081 C   0  0  0  0  0  0  0  0  0  0  0  0
   22.1328  -20.0573   -9.3897 C   0  0  0  0  0  0  0  0  0  0  0  0
   23.4122  -20.7992   -9.4112 C   0  0  2  0  0  0  0  0  0  0  0  0
   24.0315  -20.8676   -8.1421 N   0  0  0  0  0  0  0  0  0  0  0  0
   24.3420  -20.3536  -10.4825 C   0  0  0  0  0  0  0  0  0  0  0  0
   25.0741  -19.3584  -10.2709 O   0  0  0  0  0  0  0  0  0  0  0  0
   28.0732  -21.6520  -15.0115 C   0  0  0  0  0  0  0  0  0  0  0  0
   27.2476  -20.5916  -14.3282 C   0  0  2  0  0  0  0  0  0  0  0  0
   28.2377  -19.5065  -13.8689 C   0  0  0  0  0  0  0  0  0  0  0  0
   26.5023  -21.0741  -13.1514 C   0  0  0  0  0  0  0  0  0  0  0  0
   25.2430  -20.4063  -12.7669 C   0  0  2  0  0  0  0  0  0  0  0  0
   24.4541  -20.9901  -11.7419 N   0  0  0  0  0  0  0  0  0  0  0  0
   24.4022  -20.1500  -13.9860 C   0  0  0  0  0  0  0  0  0  0  0  0
   23.6642  -21.0720  -14.4429 O   0  0  0  0  0  0  0  0  0  0  0  0
   24.3870  -18.9076  -14.6692 N   0  0  0  0  0  0  0  0  0  0  0  0
   23.4399  -18.6348  -15.7379 C   0  0  0  0  0  0  0  0  0  0  0  0
   24.1326  -18.6982  -17.0364 C   0  0  0  0  0  0  0  0  0  0  0  0
   24.1652  -17.5728  -17.8323 O   0  0  0  0  0  0  0  0  0  0  0  0
   24.6841  -19.7636  -17.4093 O   0  0  0  0  0  0  0  0  0  0  0  0
  1  2  1  0
  2  3  2  0
  4  2  1  0
  5  4  1  0
  6  7  1  1
  6  5  1  0
  8  6  1  0
  8  9  2  0
 11 10  1  1
 11 12  1  0
 11 13  1  0
 14 13  1  6
 14 15  1  0
 14 16  1  0
 15  8  1  0
 16 18  1  0
 16 17  2  0
 18 19  1  0
 20 19  1  0
 20 21  1  0
 22 20  2  0
M  END
$$$$
