QLG.pdb
     RDKit          3D

 22 21  0  0  1  0  0  0  0  0999 V2000
   19.5598  -20.9305  -13.6028 N   0  0  0  0  0  0  0  0  0  0  0  0
   19.2397  -20.8380  -14.9826 C   0  0  0  0  0  0  0  0  0  0  0  0
   18.4023  -21.6651  -15.4088 O   0  0  0  0  0  0  0  0  0  0  0  0
   19.8271  -19.8600  -15.8893 C   0  0  0  0  0  0  0  0  0  0  0  0
   20.7626  -18.8578  -15.3273 C   0  0  0  0  0  0  0  0  0  0  0  0
   22.0777  -18.8249  -16.0034 C   0  0  2  0  0  0  0  0  0  0  0  0
   22.7920  -20.0387  -15.8798 N   0  0  0  0  0  0  0  0  0  0  0  0
   22.8985  -17.6355  -15.6537 C   0  0  0  0  0  0  0  0  0  0  0  0
   23.3936  -17.5604  -14.5047 O   0  0  0  0  0  0  0  0  0  0  0  0
   27.7917  -14.8153  -16.9250 C   0  0  0  0  0  0  0  0  0  0  0  0
   26.4781  -14.6870  -16.1963 C   0  0  2  0  0  0  0  0  0  0  0  0
   26.8116  -14.7548  -14.6953 C   0  0  0  0  0  0  0  0  0  0  0  0
   25.5090  -15.7527  -16.5095 C   0  0  0  0  0  0  0  0  0  0  0  0
   24.0816  -15.5512  -16.1914 C   0  0  2  0  0  0  0  0  0  0  0  0
   23.1594  -16.5693  -16.5476 N   0  0  0  0  0  0  0  0  0  0  0  0
   23.6178  -14.2232  -16.7208 C   0  0  0  0  0  0  0  0  0  0  0  0
   24.2600  -13.1725  -16.4255 O   0  0  0  0  0  0  0  0  0  0  0  0
   22.4775  -14.0755  -17.5504 N   0  0  0  0  0  0  0  0  0  0  0  0
   22.0957  -12.7857  -18.1021 C   0  0  0  0  0  0  0  0  0  0  0  0
   21.0612  -12.1739  -17.2503 C   0  0  0  0  0  0  0  0  0  0  0  0
   20.5210  -10.9609  -17.6217 O   0  0  0  0  0  0  0  0  0  0  0  0
   20.6799  -12.7517  -16.2020 O   0  0  0  0  0  0  0  0  0  0  0  0
  1  2  1  0
  2  3  2  0
  4  2  1  0
  5  4  1  0
  6  7  1  1
  6  5  1  0
  8  6  1  0
  8  9  2  0
 11 10  1  6
 11 12  1  0
 11 13  1  0
 14 13  1  6
 14 15  1  0
 14 16  1  0
 15  8  1  0
 16 18  1  0
 16 17  2  0
 18 19  1  0
 20 19  1  0
 20 21  1  0
 22 20  2  0
M  END
$$$$
