QLG.pdb
     RDKit          3D

 22 21  0  0  1  0  0  0  0  0999 V2000
   23.6819  -24.8329  -14.2871 N   0  0  0  0  0  0  0  0  0  0  0  0
   22.3818  -24.7778  -14.8540 C   0  0  0  0  0  0  0  0  0  0  0  0
   21.8158  -25.8790  -15.0384 O   0  0  0  0  0  0  0  0  0  0  0  0
   21.7069  -23.5393  -15.2202 C   0  0  0  0  0  0  0  0  0  0  0  0
   22.3982  -22.2577  -14.9460 C   0  0  0  0  0  0  0  0  0  0  0  0
   22.3539  -21.8487  -13.5253 C   0  0  2  0  0  0  0  0  0  0  0  0
   21.0784  -21.3909  -13.1226 N   0  0  0  0  0  0  0  0  0  0  0  0
   23.4481  -20.9194  -13.1379 C   0  0  0  0  0  0  0  0  0  0  0  0
   23.1805  -19.7054  -12.9776 O   0  0  0  0  0  0  0  0  0  0  0  0
   25.0752  -19.6166   -9.5159 C   0  0  0  0  0  0  0  0  0  0  0  0
   25.7872  -20.8417  -10.0308 C   0  0  2  0  0  0  0  0  0  0  0  0
   26.7963  -21.2419   -8.9398 C   0  0  0  0  0  0  0  0  0  0  0  0
   26.5206  -20.6266  -11.2913 C   0  0  0  0  0  0  0  0  0  0  0  0
   25.7664  -20.3761  -12.5354 C   0  0  2  0  0  0  0  0  0  0  0  0
   24.7894  -21.3241  -12.9361 N   0  0  0  0  0  0  0  0  0  0  0  0
   26.7160  -20.1001  -13.6673 C   0  0  0  0  0  0  0  0  0  0  0  0
   27.6907  -19.3117  -13.4888 O   0  0  0  0  0  0  0  0  0  0  0  0
   26.5805  -20.6846  -14.9520 N   0  0  0  0  0  0  0  0  0  0  0  0
   27.6129  -20.5478  -15.9664 C   0  0  0  0  0  0  0  0  0  0  0  0
   27.1119  -19.7063  -17.0668 C   0  0  0  0  0  0  0  0  0  0  0  0
   28.0186  -19.0633  -17.8827 O   0  0  0  0  0  0  0  0  0  0  0  0
   25.8765  -19.5791  -17.2557 O   0  0  0  0  0  0  0  0  0  0  0  0
  1  2  1  0
  2  3  2  0
  4  2  1  0
  5  4  1  0
  6  7  1  6
  6  5  1  0
  8  6  1  0
  8  9  2  0
 11 10  1  1
 11 12  1  0
 11 13  1  0
 14 13  1  1
 14 15  1  0
 14 16  1  0
 15  8  1  0
 16 18  1  0
 16 17  2  0
 18 19  1  0
 20 19  1  0
 20 21  1  0
 22 20  2  0
M  END
$$$$
