QLG.pdb
     RDKit          3D

 22 21  0  0  1  0  0  0  0  0999 V2000
   20.4568  -12.9488  -17.1433 N   0  0  0  0  0  0  0  0  0  0  0  0
   20.3481  -13.3266  -18.5072 C   0  0  0  0  0  0  0  0  0  0  0  0
   21.2661  -14.0526  -18.9510 O   0  0  0  0  0  0  0  0  0  0  0  0
   19.2554  -12.9157  -19.3795 C   0  0  0  0  0  0  0  0  0  0  0  0
   18.1151  -12.1861  -18.7771 C   0  0  0  0  0  0  0  0  0  0  0  0
   18.3173  -10.7229  -18.7006 C   0  0  2  0  0  0  0  0  0  0  0  0
   18.8945  -10.1838  -19.8732 N   0  0  0  0  0  0  0  0  0  0  0  0
   19.0106  -10.2806  -17.4617 C   0  0  0  0  0  0  0  0  0  0  0  0
   18.5392  -10.6219  -16.3516 O   0  0  0  0  0  0  0  0  0  0  0  0
   22.2427   -9.8321  -13.5469 C   0  0  0  0  0  0  0  0  0  0  0  0
   22.5898  -10.3858  -14.9055 C   0  0  2  0  0  0  0  0  0  0  0  0
   24.1173  -10.5745  -14.9145 C   0  0  0  0  0  0  0  0  0  0  0  0
   22.2200   -9.5043  -16.0276 C   0  0  0  0  0  0  0  0  0  0  0  0
   20.8031   -9.1414  -16.2281 C   0  0  2  0  0  0  0  0  0  0  0  0
   20.1838   -9.4887  -17.4568 N   0  0  0  0  0  0  0  0  0  0  0  0
   20.5992   -7.6806  -15.9393 C   0  0  0  0  0  0  0  0  0  0  0  0
   21.1486   -6.8131  -16.6803 O   0  0  0  0  0  0  0  0  0  0  0  0
   19.8095   -7.2071  -14.8611 N   0  0  0  0  0  0  0  0  0  0  0  0
   19.5901   -5.7870  -14.6405 C   0  0  0  0  0  0  0  0  0  0  0  0
   18.4583   -5.3307  -15.4657 C   0  0  0  0  0  0  0  0  0  0  0  0
   18.7008   -4.8967  -16.7516 O   0  0  0  0  0  0  0  0  0  0  0  0
   17.2913   -5.3384  -15.0007 O   0  0  0  0  0  0  0  0  0  0  0  0
  1  2  1  0
  2  3  2  0
  4  2  1  0
  5  4  1  0
  6  7  1  6
  6  5  1  0
  8  6  1  0
  8  9  2  0
 11 10  1  1
 11 12  1  0
 11 13  1  0
 14 13  1  6
 14 15  1  0
 14 16  1  0
 15  8  1  0
 16 18  1  0
 16 17  2  0
 18 19  1  0
 20 19  1  0
 20 21  1  0
 22 20  2  0
M  END
$$$$
