QLG.pdb
     RDKit          3D

 22 21  0  0  1  0  0  0  0  0999 V2000
   16.1402  -13.5509  -16.1071 N   0  0  0  0  0  0  0  0  0  0  0  0
   15.8754  -12.6717  -17.1895 C   0  0  0  0  0  0  0  0  0  0  0  0
   15.0055  -13.0515  -18.0055 O   0  0  0  0  0  0  0  0  0  0  0  0
   16.5523  -11.3959  -17.3844 C   0  0  0  0  0  0  0  0  0  0  0  0
   17.5314  -10.9594  -16.3614 C   0  0  0  0  0  0  0  0  0  0  0  0
   18.1486   -9.6465  -16.6491 C   0  0  2  0  0  0  0  0  0  0  0  0
   18.6312   -9.5423  -17.9739 N   0  0  0  0  0  0  0  0  0  0  0  0
   19.1517   -9.2242  -15.6360 C   0  0  0  0  0  0  0  0  0  0  0  0
   18.8658   -9.3358  -14.4207 O   0  0  0  0  0  0  0  0  0  0  0  0
   22.5746  -11.0965  -13.7161 C   0  0  0  0  0  0  0  0  0  0  0  0
   22.8702  -10.4166  -15.0289 C   0  0  2  0  0  0  0  0  0  0  0  0
   24.3396  -10.7365  -15.3565 C   0  0  0  0  0  0  0  0  0  0  0  0
   22.7048   -8.9521  -14.9992 C   0  0  0  0  0  0  0  0  0  0  0  0
   21.3468   -8.3770  -14.9313 C   0  0  2  0  0  0  0  0  0  0  0  0
   20.4247   -8.6976  -15.9612 N   0  0  0  0  0  0  0  0  0  0  0  0
   21.4264   -6.8869  -14.7518 C   0  0  0  0  0  0  0  0  0  0  0  0
   22.1547   -6.4045  -13.8352 O   0  0  0  0  0  0  0  0  0  0  0  0
   20.7173   -5.9695  -15.5679 N   0  0  0  0  0  0  0  0  0  0  0  0
   20.7821   -4.5352  -15.3396 C   0  0  0  0  0  0  0  0  0  0  0  0
   19.4168   -3.9930  -15.2295 C   0  0  0  0  0  0  0  0  0  0  0  0
   19.2487   -2.6357  -15.0556 O   0  0  0  0  0  0  0  0  0  0  0  0
   18.4234   -4.7593  -15.2936 O   0  0  0  0  0  0  0  0  0  0  0  0
  1  2  1  0
  2  3  2  0
  4  2  1  0
  5  4  1  0
  6  7  1  6
  6  5  1  0
  8  6  1  0
  8  9  2  0
 11 10  1  1
 11 12  1  0
 11 13  1  0
 14 13  1  6
 14 15  1  0
 14 16  1  0
 15  8  1  0
 16 18  1  0
 16 17  2  0
 18 19  1  0
 20 19  1  0
 20 21  1  0
 22 20  2  0
M  END
$$$$
