QLG.pdb
     RDKit          3D

 22 21  0  0  1  0  0  0  0  0999 V2000
   28.0106  -17.9962  -16.0486 N   0  0  0  0  0  0  0  0  0  0  0  0
   28.3442  -18.5788  -17.2993 C   0  0  0  0  0  0  0  0  0  0  0  0
   29.2527  -18.0096  -17.9455 O   0  0  0  0  0  0  0  0  0  0  0  0
   27.6940  -19.7644  -17.8427 C   0  0  0  0  0  0  0  0  0  0  0  0
   26.7093  -20.4743  -16.9931 C   0  0  0  0  0  0  0  0  0  0  0  0
   27.3222  -21.2633  -15.9025 C   0  0  2  0  0  0  0  0  0  0  0  0
   27.8862  -22.4795  -16.3513 N   0  0  0  0  0  0  0  0  0  0  0  0
   26.4342  -21.4410  -14.7231 C   0  0  0  0  0  0  0  0  0  0  0  0
   25.6263  -22.3993  -14.7148 O   0  0  0  0  0  0  0  0  0  0  0  0
   23.9308  -20.9870   -9.7953 C   0  0  0  0  0  0  0  0  0  0  0  0
   25.4174  -21.1292  -10.0021 C   0  0  2  0  0  0  0  0  0  0  0  0
   26.0828  -20.5693   -8.7323 C   0  0  0  0  0  0  0  0  0  0  0  0
   25.9366  -20.3908  -11.1676 C   0  0  0  0  0  0  0  0  0  0  0  0
   25.5368  -20.8069  -12.5265 C   0  0  2  0  0  0  0  0  0  0  0  0
   26.4436  -20.5857  -13.5953 N   0  0  0  0  0  0  0  0  0  0  0  0
   24.1879  -20.2366  -12.8644 C   0  0  0  0  0  0  0  0  0  0  0  0
   24.0663  -18.9920  -13.0637 O   0  0  0  0  0  0  0  0  0  0  0  0
   23.0175  -21.0292  -12.9755 N   0  0  0  0  0  0  0  0  0  0  0  0
   21.7429  -20.4577  -13.3782 C   0  0  0  0  0  0  0  0  0  0  0  0
   20.7091  -21.5071  -13.3692 C   0  0  0  0  0  0  0  0  0  0  0  0
   19.5981  -21.3442  -12.5691 O   0  0  0  0  0  0  0  0  0  0  0  0
   20.8417  -22.5335  -14.0812 O   0  0  0  0  0  0  0  0  0  0  0  0
  1  2  1  0
  2  3  2  0
  4  2  1  0
  5  4  1  0
  6  7  1  6
  6  5  1  0
  8  6  1  0
  8  9  2  0
 11 10  1  1
 11 12  1  0
 11 13  1  0
 14 13  1  1
 14 15  1  0
 14 16  1  0
 15  8  1  0
 16 18  1  0
 16 17  2  0
 18 19  1  0
 20 19  1  0
 20 21  1  0
 22 20  2  0
M  END
$$$$
