QLG.pdb
     RDKit          3D

 22 21  0  0  1  0  0  0  0  0999 V2000
   20.4631  -22.6824  -12.3498 N   0  0  0  0  0  0  0  0  0  0  0  0
   20.0400  -22.0673  -11.1426 C   0  0  0  0  0  0  0  0  0  0  0  0
   19.2305  -22.7214  -10.4471 O   0  0  0  0  0  0  0  0  0  0  0  0
   20.4889  -20.7536  -10.6992 C   0  0  0  0  0  0  0  0  0  0  0  0
   21.4490  -20.0166  -11.5539 C   0  0  0  0  0  0  0  0  0  0  0  0
   22.8081  -20.5999  -11.5634 C   0  0  2  0  0  0  0  0  0  0  0  0
   23.4696  -20.4775  -10.3199 N   0  0  0  0  0  0  0  0  0  0  0  0
   23.6435  -20.1470  -12.7070 C   0  0  0  0  0  0  0  0  0  0  0  0
   23.9751  -18.9400  -12.7716 O   0  0  0  0  0  0  0  0  0  0  0  0
   27.7228  -19.4288  -13.8355 C   0  0  0  0  0  0  0  0  0  0  0  0
   27.2427  -20.8484  -14.0007 C   0  0  2  0  0  0  0  0  0  0  0  0
   28.4789  -21.6764  -14.3947 C   0  0  0  0  0  0  0  0  0  0  0  0
   26.2134  -21.0187  -15.0422 C   0  0  0  0  0  0  0  0  0  0  0  0
   24.8572  -20.4809  -14.8161 C   0  0  2  0  0  0  0  0  0  0  0  0
   24.0936  -21.0035  -13.7402 N   0  0  0  0  0  0  0  0  0  0  0  0
   24.0623  -20.5346  -16.0905 C   0  0  0  0  0  0  0  0  0  0  0  0
   23.6250  -21.6468  -16.5093 O   0  0  0  0  0  0  0  0  0  0  0  0
   23.7669  -19.3864  -16.8682 N   0  0  0  0  0  0  0  0  0  0  0  0
   23.0505  -19.4815  -18.1296 C   0  0  0  0  0  0  0  0  0  0  0  0
   21.6254  -19.1806  -17.9092 C   0  0  0  0  0  0  0  0  0  0  0  0
   21.1135  -19.2681  -16.6320 O   0  0  0  0  0  0  0  0  0  0  0  0
   20.8910  -18.8496  -18.8732 O   0  0  0  0  0  0  0  0  0  0  0  0
  1  2  1  0
  2  3  2  0
  4  2  1  0
  5  4  1  0
  6  7  1  1
  6  5  1  0
  8  6  1  0
  8  9  2  0
 11 10  1  6
 11 12  1  0
 11 13  1  0
 14 13  1  6
 14 15  1  0
 14 16  1  0
 15  8  1  0
 16 18  1  0
 16 17  2  0
 18 19  1  0
 20 19  1  0
 20 21  1  0
 22 20  2  0
M  END
$$$$
