QLG.pdb
     RDKit          3D

 22 21  0  0  1  0  0  0  0  0999 V2000
   20.8966  -21.3936  -16.8709 N   0  0  0  0  0  0  0  0  0  0  0  0
   19.8540  -21.3177  -15.9107 C   0  0  0  0  0  0  0  0  0  0  0  0
   18.6875  -21.3831  -16.3601 O   0  0  0  0  0  0  0  0  0  0  0  0
   20.0777  -21.1679  -14.4785 C   0  0  0  0  0  0  0  0  0  0  0  0
   21.4748  -21.0719  -13.9944 C   0  0  0  0  0  0  0  0  0  0  0  0
   21.5911  -20.9900  -12.5222 C   0  0  2  0  0  0  0  0  0  0  0  0
   20.5191  -20.2903  -11.9222 N   0  0  0  0  0  0  0  0  0  0  0  0
   22.9210  -20.5171  -12.0544 C   0  0  0  0  0  0  0  0  0  0  0  0
   23.1490  -19.2849  -12.0298 O   0  0  0  0  0  0  0  0  0  0  0  0
   26.2957  -20.8759   -7.5622 C   0  0  0  0  0  0  0  0  0  0  0  0
   25.5674  -20.4154   -8.7993 C   0  0  2  0  0  0  0  0  0  0  0  0
   24.0665  -20.4930   -8.4674 C   0  0  0  0  0  0  0  0  0  0  0  0
   25.8266  -21.2405   -9.9930 C   0  0  0  0  0  0  0  0  0  0  0  0
   25.2298  -20.8524  -11.2863 C   0  0  2  0  0  0  0  0  0  0  0  0
   23.9586  -21.3814  -11.6300 N   0  0  0  0  0  0  0  0  0  0  0  0
   26.2101  -21.0937  -12.3997 C   0  0  0  0  0  0  0  0  0  0  0  0
   27.3858  -20.6319  -12.3099 O   0  0  0  0  0  0  0  0  0  0  0  0
   25.8876  -21.8251  -13.5708 N   0  0  0  0  0  0  0  0  0  0  0  0
   26.8762  -22.0888  -14.6035 C   0  0  0  0  0  0  0  0  0  0  0  0
   26.6075  -21.2317  -15.7712 C   0  0  0  0  0  0  0  0  0  0  0  0
   27.5072  -20.2373  -16.0916 O   0  0  0  0  0  0  0  0  0  0  0  0
   25.5730  -21.4076  -16.4618 O   0  0  0  0  0  0  0  0  0  0  0  0
  1  2  1  0
  2  3  2  0
  4  2  1  0
  5  4  1  0
  6  7  1  6
  6  5  1  0
  8  6  1  0
  8  9  2  0
 11 10  1  1
 11 12  1  0
 11 13  1  0
 14 13  1  1
 14 15  1  0
 14 16  1  0
 15  8  1  0
 16 18  1  0
 16 17  2  0
 18 19  1  0
 20 19  1  0
 20 21  1  0
 22 20  2  0
M  END
$$$$
