QLG.pdb
     RDKit          3D

 22 21  0  0  1  0  0  0  0  0999 V2000
   25.7181  -25.9100  -15.8677 N   0  0  0  0  0  0  0  0  0  0  0  0
   24.5953  -25.1063  -16.1966 C   0  0  0  0  0  0  0  0  0  0  0  0
   24.8353  -23.9038  -16.4481 O   0  0  0  0  0  0  0  0  0  0  0  0
   23.2266  -25.6040  -16.2469 C   0  0  0  0  0  0  0  0  0  0  0  0
   22.1703  -24.8177  -15.5675 C   0  0  0  0  0  0  0  0  0  0  0  0
   22.3578  -24.7068  -14.1046 C   0  0  2  0  0  0  0  0  0  0  0  0
   21.4909  -25.5496  -13.3719 N   0  0  0  0  0  0  0  0  0  0  0  0
   22.3546  -23.3054  -13.6076 C   0  0  0  0  0  0  0  0  0  0  0  0
   21.2637  -22.7853  -13.2753 O   0  0  0  0  0  0  0  0  0  0  0  0
   24.4716  -20.9251   -9.9644 C   0  0  0  0  0  0  0  0  0  0  0  0
   25.2577  -21.1387  -11.2331 C   0  0  2  0  0  0  0  0  0  0  0  0
   26.6230  -20.4639  -11.0106 C   0  0  0  0  0  0  0  0  0  0  0  0
   24.6350  -20.5517  -12.4334 C   0  0  0  0  0  0  0  0  0  0  0  0
   23.4269  -21.1796  -13.0042 C   0  0  2  0  0  0  0  0  0  0  0  0
   23.5202  -22.5117  -13.4844 N   0  0  0  0  0  0  0  0  0  0  0  0
   22.8321  -20.2888  -14.0585 C   0  0  0  0  0  0  0  0  0  0  0  0
   23.2847  -20.3288  -15.2404 O   0  0  0  0  0  0  0  0  0  0  0  0
   21.7694  -19.3861  -13.8005 N   0  0  0  0  0  0  0  0  0  0  0  0
   21.2267  -18.5275  -14.8405 C   0  0  0  0  0  0  0  0  0  0  0  0
   19.8042  -18.8484  -15.0498 C   0  0  0  0  0  0  0  0  0  0  0  0
   19.3828  -20.1517  -14.8922 O   0  0  0  0  0  0  0  0  0  0  0  0
   18.9907  -17.9453  -15.3671 O   0  0  0  0  0  0  0  0  0  0  0  0
  1  2  1  0
  2  3  2  0
  4  2  1  0
  5  4  1  0
  6  7  1  1
  6  5  1  0
  8  6  1  0
  8  9  2  0
 11 10  1  1
 11 12  1  0
 11 13  1  0
 14 13  1  6
 14 15  1  0
 14 16  1  0
 15  8  1  0
 16 18  1  0
 16 17  2  0
 18 19  1  0
 20 19  1  0
 20 21  1  0
 22 20  2  0
M  END
$$$$
