QLG.pdb
     RDKit          3D

 22 21  0  0  1  0  0  0  0  0999 V2000
   20.4885  -10.7535  -21.5784 N   0  0  0  0  0  0  0  0  0  0  0  0
   20.8262   -9.4698  -21.0754 C   0  0  0  0  0  0  0  0  0  0  0  0
   22.0487   -9.2083  -21.0133 O   0  0  0  0  0  0  0  0  0  0  0  0
   19.8453   -8.4836  -20.6409 C   0  0  0  0  0  0  0  0  0  0  0  0
   19.9425   -7.9620  -19.2574 C   0  0  0  0  0  0  0  0  0  0  0  0
   19.7251   -8.9899  -18.2163 C   0  0  2  0  0  0  0  0  0  0  0  0
   18.4000   -9.4824  -18.1956 N   0  0  0  0  0  0  0  0  0  0  0  0
   20.2108   -8.5871  -16.8699 C   0  0  0  0  0  0  0  0  0  0  0  0
   19.3807   -8.1698  -16.0286 O   0  0  0  0  0  0  0  0  0  0  0  0
   23.5624  -11.3224  -13.5554 C   0  0  0  0  0  0  0  0  0  0  0  0
   22.5670  -10.1911  -13.6044 C   0  0  2  0  0  0  0  0  0  0  0  0
   21.2649  -10.7894  -14.1661 C   0  0  0  0  0  0  0  0  0  0  0  0
   22.9754   -9.0664  -14.4652 C   0  0  0  0  0  0  0  0  0  0  0  0
   21.9424   -8.2703  -15.1569 C   0  0  2  0  0  0  0  0  0  0  0  0
   21.5684   -8.6460  -16.4733 N   0  0  0  0  0  0  0  0  0  0  0  0
   22.3025   -6.8117  -15.1165 C   0  0  0  0  0  0  0  0  0  0  0  0
   23.1899   -6.3638  -15.9010 O   0  0  0  0  0  0  0  0  0  0  0  0
   21.6924   -5.8874  -14.2311 N   0  0  0  0  0  0  0  0  0  0  0  0
   22.1154   -4.4981  -14.1662 C   0  0  0  0  0  0  0  0  0  0  0  0
   21.0557   -3.6356  -14.7172 C   0  0  0  0  0  0  0  0  0  0  0  0
   21.1904   -2.2669  -14.6208 O   0  0  0  0  0  0  0  0  0  0  0  0
   20.0462   -4.1437  -15.2656 O   0  0  0  0  0  0  0  0  0  0  0  0
  1  2  1  0
  2  3  2  0
  4  2  1  0
  5  4  1  0
  6  7  1  1
  6  5  1  0
  8  6  1  0
  8  9  2  0
 11 10  1  6
 11 12  1  0
 11 13  1  0
 14 13  1  6
 14 15  1  0
 14 16  1  0
 15  8  1  0
 16 18  1  0
 16 17  2  0
 18 19  1  0
 20 19  1  0
 20 21  1  0
 22 20  2  0
M  END
$$$$
