QLG.pdb
     RDKit          3D

 22 21  0  0  1  0  0  0  0  0999 V2000
   12.6210   -9.8875  -14.1596 N   0  0  0  0  0  0  0  0  0  0  0  0
   12.7742  -10.2047  -15.5346 C   0  0  0  0  0  0  0  0  0  0  0  0
   11.7358  -10.5631  -16.1348 O   0  0  0  0  0  0  0  0  0  0  0  0
   14.0434  -10.1370  -16.2475 C   0  0  0  0  0  0  0  0  0  0  0  0
   15.2627   -9.8001  -15.4759 C   0  0  0  0  0  0  0  0  0  0  0  0
   16.4598   -9.5842  -16.3173 C   0  0  2  0  0  0  0  0  0  0  0  0
   16.7331  -10.6724  -17.1775 N   0  0  0  0  0  0  0  0  0  0  0  0
   17.6550   -9.1412  -15.5516 C   0  0  0  0  0  0  0  0  0  0  0  0
   17.4881   -8.5857  -14.4404 O   0  0  0  0  0  0  0  0  0  0  0  0
   23.7895   -9.9140  -14.8202 C   0  0  0  0  0  0  0  0  0  0  0  0
   22.4723   -9.3023  -14.4155 C   0  0  2  0  0  0  0  0  0  0  0  0
   22.1650   -9.8389  -13.0061 C   0  0  0  0  0  0  0  0  0  0  0  0
   21.3487   -9.6495  -15.3043 C   0  0  0  0  0  0  0  0  0  0  0  0
   20.0725   -8.9180  -15.1794 C   0  0  2  0  0  0  0  0  0  0  0  0
   18.9857   -9.3092  -16.0038 N   0  0  0  0  0  0  0  0  0  0  0  0
   20.3115   -7.4394  -15.3035 C   0  0  0  0  0  0  0  0  0  0  0  0
   20.4686   -6.9245  -16.4497 O   0  0  0  0  0  0  0  0  0  0  0  0
   20.3724   -6.5681  -14.1865 N   0  0  0  0  0  0  0  0  0  0  0  0
   20.6327   -5.1461  -14.3399 C   0  0  0  0  0  0  0  0  0  0  0  0
   22.0846   -4.9034  -14.2824 C   0  0  0  0  0  0  0  0  0  0  0  0
   22.5760   -3.6860  -14.7036 O   0  0  0  0  0  0  0  0  0  0  0  0
   22.8598   -5.7950  -13.8554 O   0  0  0  0  0  0  0  0  0  0  0  0
  1  2  1  0
  2  3  2  0
  4  2  1  0
  5  4  1  0
  6  7  1  1
  6  5  1  0
  8  6  1  0
  8  9  2  0
 11 10  1  6
 11 12  1  0
 11 13  1  0
 14 13  1  6
 14 15  1  0
 14 16  1  0
 15  8  1  0
 16 18  1  0
 16 17  2  0
 18 19  1  0
 20 19  1  0
 20 21  1  0
 22 20  2  0
M  END
$$$$
