QLG.pdb
     RDKit          3D

 22 21  0  0  1  0  0  0  0  0999 V2000
   19.1773  -18.9741  -16.4060 N   0  0  0  0  0  0  0  0  0  0  0  0
   19.0816  -20.3708  -16.6402 C   0  0  0  0  0  0  0  0  0  0  0  0
   17.9743  -20.7840  -17.0527 O   0  0  0  0  0  0  0  0  0  0  0  0
   20.1765  -21.3078  -16.4240 C   0  0  0  0  0  0  0  0  0  0  0  0
   21.4874  -20.7660  -15.9955 C   0  0  0  0  0  0  0  0  0  0  0  0
   21.7422  -20.9000  -14.5448 C   0  0  2  0  0  0  0  0  0  0  0  0
   20.7519  -20.2774  -13.7509 N   0  0  0  0  0  0  0  0  0  0  0  0
   23.1233  -20.5212  -14.1444 C   0  0  0  0  0  0  0  0  0  0  0  0
   23.5759  -19.4121  -14.5133 O   0  0  0  0  0  0  0  0  0  0  0  0
   25.8773  -20.9501   -9.2586 C   0  0  0  0  0  0  0  0  0  0  0  0
   25.3496  -20.4625  -10.5840 C   0  0  2  0  0  0  0  0  0  0  0  0
   23.8205  -20.6267  -10.5238 C   0  0  0  0  0  0  0  0  0  0  0  0
   25.8561  -21.2136  -11.7469 C   0  0  0  0  0  0  0  0  0  0  0  0
   25.3006  -20.9373  -13.0865 C   0  0  2  0  0  0  0  0  0  0  0  0
   23.9696  -21.3443  -13.3634 N   0  0  0  0  0  0  0  0  0  0  0  0
   26.2319  -21.4531  -14.1474 C   0  0  0  0  0  0  0  0  0  0  0  0
   26.5774  -22.6714  -14.1389 O   0  0  0  0  0  0  0  0  0  0  0  0
   26.7577  -20.6364  -15.1803 N   0  0  0  0  0  0  0  0  0  0  0  0
   27.6651  -21.1653  -16.1855 C   0  0  0  0  0  0  0  0  0  0  0  0
   28.1030  -20.0751  -17.0743 C   0  0  0  0  0  0  0  0  0  0  0  0
   29.4372  -19.7285  -17.0996 O   0  0  0  0  0  0  0  0  0  0  0  0
   27.2701  -19.4729  -17.7966 O   0  0  0  0  0  0  0  0  0  0  0  0
  1  2  1  0
  2  3  2  0
  4  2  1  0
  5  4  1  0
  6  7  1  1
  6  5  1  0
  8  6  1  0
  8  9  2  0
 11 10  1  1
 11 12  1  0
 11 13  1  0
 14 13  1  1
 14 15  1  0
 14 16  1  0
 15  8  1  0
 16 18  1  0
 16 17  2  0
 18 19  1  0
 20 19  1  0
 20 21  1  0
 22 20  2  0
M  END
$$$$
