AAP.pdb
     RDKit          3D

 18 18  0  0  1  0  0  0  0  0999 V2000
   24.1002  -19.3496  -10.5052 C   0  0  0  0  0  0  0  0  0  0  0  0
   24.9830  -20.4369  -11.0470 C   0  0  2  0  0  0  0  0  0  0  0  0
   24.2112  -21.5321  -11.5726 N   0  0  0  0  0  0  0  0  0  0  0  0
   25.9232  -20.8929   -9.9734 C   0  0  0  0  0  0  0  0  0  0  0  0
   25.4476  -21.4922   -8.9755 O   0  0  0  0  0  0  0  0  0  0  0  0
   29.6176  -20.7812   -9.3510 C   0  0  0  0  0  0  0  0  0  0  0  0
   28.2066  -20.9296   -8.9025 C   0  0  2  0  0  0  0  0  0  0  0  0
   27.3223  -20.6784  -10.0341 N   0  0  0  0  0  0  0  0  0  0  0  0
   27.8375  -20.0873   -7.7563 C   0  0  0  0  0  0  0  0  0  0  0  0
   26.9693  -19.1976   -7.9143 O   0  0  0  0  0  0  0  0  0  0  0  0
   28.4113  -20.2238   -6.4703 N   0  0  0  0  0  0  0  0  0  0  0  0
   29.4515  -21.1693   -6.0402 C   0  0  0  0  0  0  0  0  0  0  0  0
   28.7686  -21.7585   -4.8055 C   0  0  0  0  0  0  0  0  0  0  0  0
   28.2847  -20.4770   -4.1272 C   0  0  0  0  0  0  0  0  0  0  0  0
   28.1231  -19.4731   -5.2573 C   0  0  1  0  0  0  0  0  0  0  0  0
   29.1273  -18.3748   -5.0738 C   0  0  0  0  0  0  0  0  0  0  0  0
   30.0892  -18.2675   -5.8659 O   0  0  0  0  0  0  0  0  0  0  0  0
   29.0048  -17.4702   -4.0320 O   0  0  0  0  0  0  0  0  0  0  0  0
  2  1  1  1
  2  3  1  0
  4  2  1  0
  4  5  2  0
  7  6  1  6
  7  8  1  0
  8  4  1  0
  9  7  1  0
 10  9  2  0
 11  9  1  0
 11 12  1  0
 12 13  1  0
 14 13  1  0
 15 14  1  0
 15 11  1  0
 15 16  1  1
 16 18  1  0
 17 16  2  0
M  END
$$$$
