AAP.pdb
     RDKit          3D

 18 18  0  0  1  0  0  0  0  0999 V2000
   26.7347  -22.2882  -19.4293 C   0  0  0  0  0  0  0  0  0  0  0  0
   27.5826  -21.0770  -19.1667 C   0  0  2  0  0  0  0  0  0  0  0  0
   28.9224  -21.2517  -19.6626 N   0  0  0  0  0  0  0  0  0  0  0  0
   27.5750  -20.7755  -17.6991 C   0  0  0  0  0  0  0  0  0  0  0  0
   28.2924  -21.4757  -16.9401 O   0  0  0  0  0  0  0  0  0  0  0  0
   26.3013  -18.0802  -15.4716 C   0  0  0  0  0  0  0  0  0  0  0  0
   26.7550  -19.4793  -15.6968 C   0  0  2  0  0  0  0  0  0  0  0  0
   26.7959  -19.7375  -17.1311 N   0  0  0  0  0  0  0  0  0  0  0  0
   25.9546  -20.5003  -15.0066 C   0  0  0  0  0  0  0  0  0  0  0  0
   25.2326  -21.2652  -15.6878 O   0  0  0  0  0  0  0  0  0  0  0  0
   25.9515  -20.6722  -13.6024 N   0  0  0  0  0  0  0  0  0  0  0  0
   26.7331  -19.9343  -12.5995 C   0  0  0  0  0  0  0  0  0  0  0  0
   27.3422  -21.1091  -11.8331 C   0  0  0  0  0  0  0  0  0  0  0  0
   26.1008  -21.9805  -11.6437 C   0  0  0  0  0  0  0  0  0  0  0  0
   25.1840  -21.6121  -12.7990 C   0  0  1  0  0  0  0  0  0  0  0  0
   23.9582  -20.9467  -12.2485 C   0  0  0  0  0  0  0  0  0  0  0  0
   23.8869  -19.6986  -12.2112 O   0  0  0  0  0  0  0  0  0  0  0  0
   22.8953  -21.6993  -11.7769 O   0  0  0  0  0  0  0  0  0  0  0  0
  2  1  1  1
  2  3  1  0
  4  2  1  0
  4  5  2  0
  7  6  1  6
  7  8  1  0
  8  4  1  0
  9  7  1  0
 10  9  2  0
 11  9  1  0
 11 12  1  0
 12 13  1  0
 14 13  1  0
 15 14  1  0
 15 11  1  0
 15 16  1  1
 16 18  1  0
 17 16  2  0
M  END
$$$$
