AAP.pdb
     RDKit          3D

 18 18  0  0  1  0  0  0  0  0999 V2000
   14.8574  -13.3190    7.0745 C   0  0  0  0  0  0  0  0  0  0  0  0
   14.7146  -12.9046    5.6382 C   0  0  2  0  0  0  0  0  0  0  0  0
   13.3631  -12.5161    5.3317 N   0  0  0  0  0  0  0  0  0  0  0  0
   15.1800  -14.0195    4.7522 C   0  0  0  0  0  0  0  0  0  0  0  0
   14.4110  -14.9965    4.5647 O   0  0  0  0  0  0  0  0  0  0  0  0
   18.2437  -14.7758    2.7229 C   0  0  0  0  0  0  0  0  0  0  0  0
   16.8927  -15.1054    3.2523 C   0  0  2  0  0  0  0  0  0  0  0  0
   16.4468  -14.0201    4.1177 N   0  0  0  0  0  0  0  0  0  0  0  0
   16.8072  -16.3961    3.9497 C   0  0  0  0  0  0  0  0  0  0  0  0
   16.7115  -16.4031    5.1992 O   0  0  0  0  0  0  0  0  0  0  0  0
   16.8269  -17.6451    3.2856 N   0  0  0  0  0  0  0  0  0  0  0  0
   16.8348  -17.8991    1.8377 C   0  0  0  0  0  0  0  0  0  0  0  0
   15.6734  -18.8895    1.7442 C   0  0  0  0  0  0  0  0  0  0  0  0
   16.0287  -19.8314    2.8944 C   0  0  0  0  0  0  0  0  0  0  0  0
   16.8438  -18.9833    3.8573 C   0  0  1  0  0  0  0  0  0  0  0  0
   18.2456  -19.5139    3.8992 C   0  0  0  0  0  0  0  0  0  0  0  0
   19.1632  -18.9050    3.3063 O   0  0  0  0  0  0  0  0  0  0  0  0
   18.5420  -20.6773    4.5901 O   0  0  0  0  0  0  0  0  0  0  0  0
  2  1  1  1
  2  3  1  0
  4  2  1  0
  4  5  2  0
  7  6  1  1
  7  8  1  0
  8  4  1  0
  9  7  1  0
 10  9  2  0
 11  9  1  0
 11 12  1  0
 12 13  1  0
 14 13  1  0
 15 14  1  0
 15 11  1  0
 15 16  1  6
 16 18  1  0
 17 16  2  0
M  END
$$$$
