AAP.pdb
     RDKit          3D

 18 18  0  0  1  0  0  0  0  0999 V2000
   43.8459  -10.9001   -6.8556 C   0  0  0  0  0  0  0  0  0  0  0  0
   43.9523   -9.6657   -6.0072 C   0  0  2  0  0  0  0  0  0  0  0  0
   44.0491   -9.9919   -4.6087 N   0  0  0  0  0  0  0  0  0  0  0  0
   42.7816   -8.7723   -6.2831 C   0  0  0  0  0  0  0  0  0  0  0  0
   41.6626   -9.0859   -5.8030 O   0  0  0  0  0  0  0  0  0  0  0  0
   42.2285   -5.4260   -7.8528 C   0  0  0  0  0  0  0  0  0  0  0  0
   41.7369   -6.7306   -7.3327 C   0  0  2  0  0  0  0  0  0  0  0  0
   42.8812   -7.5918   -7.0600 N   0  0  0  0  0  0  0  0  0  0  0  0
   40.7692   -7.4111   -8.2045 C   0  0  0  0  0  0  0  0  0  0  0  0
   41.1552   -8.3852   -8.8920 O   0  0  0  0  0  0  0  0  0  0  0  0
   39.4121   -7.0265   -8.3143 N   0  0  0  0  0  0  0  0  0  0  0  0
   38.7454   -5.8751   -7.6892 C   0  0  0  0  0  0  0  0  0  0  0  0
   37.5519   -6.5854   -7.0495 C   0  0  0  0  0  0  0  0  0  0  0  0
   37.0923   -7.4509   -8.2225 C   0  0  0  0  0  0  0  0  0  0  0  0
   38.3401   -7.6638   -9.0643 C   0  0  1  0  0  0  0  0  0  0  0  0
   38.1523   -6.9811  -10.3861 C   0  0  0  0  0  0  0  0  0  0  0  0
   38.6378   -5.8446  -10.5781 O   0  0  0  0  0  0  0  0  0  0  0  0
   37.4438   -7.5951  -11.4058 O   0  0  0  0  0  0  0  0  0  0  0  0
  2  1  1  6
  2  3  1  0
  4  2  1  0
  4  5  2  0
  7  6  1  6
  7  8  1  0
  8  4  1  0
  9  7  1  0
 10  9  2  0
 11  9  1  0
 11 12  1  0
 12 13  1  0
 14 13  1  0
 15 14  1  0
 15 11  1  0
 15 16  1  6
 16 18  1  0
 17 16  2  0
M  END
$$$$
