AAP.pdb
     RDKit          3D

 18 18  0  0  1  0  0  0  0  0999 V2000
   20.4425   -9.8498  -20.6691 C   0  0  0  0  0  0  0  0  0  0  0  0
   21.2197  -10.9382  -19.9863 C   0  0  2  0  0  0  0  0  0  0  0  0
   20.5673  -12.2146  -20.1152 N   0  0  0  0  0  0  0  0  0  0  0  0
   21.4288  -10.5709  -18.5489 C   0  0  0  0  0  0  0  0  0  0  0  0
   20.4274  -10.5287  -17.7897 O   0  0  0  0  0  0  0  0  0  0  0  0
   24.3422   -9.9296  -16.2935 C   0  0  0  0  0  0  0  0  0  0  0  0
   22.8939   -9.8517  -16.6259 C   0  0  2  0  0  0  0  0  0  0  0  0
   22.7038  -10.2697  -18.0096 N   0  0  0  0  0  0  0  0  0  0  0  0
   22.2824   -8.5364  -16.3906 C   0  0  0  0  0  0  0  0  0  0  0  0
   22.0721   -7.7832  -17.3700 O   0  0  0  0  0  0  0  0  0  0  0  0
   21.9128   -8.0653  -15.1088 N   0  0  0  0  0  0  0  0  0  0  0  0
   22.0070   -8.7730  -13.8238 C   0  0  0  0  0  0  0  0  0  0  0  0
   20.5796   -8.5708  -13.3139 C   0  0  0  0  0  0  0  0  0  0  0  0
   20.4048   -7.0769  -13.5859 C   0  0  0  0  0  0  0  0  0  0  0  0
   21.3511   -6.7753  -14.7368 C   0  0  1  0  0  0  0  0  0  0  0  0
   22.4316   -5.8592  -14.2452 C   0  0  0  0  0  0  0  0  0  0  0  0
   23.6153   -6.2595  -14.1918 O   0  0  0  0  0  0  0  0  0  0  0  0
   22.1362   -4.5661  -13.8462 O   0  0  0  0  0  0  0  0  0  0  0  0
  2  1  1  1
  2  3  1  0
  4  2  1  0
  4  5  2  0
  7  6  1  6
  7  8  1  0
  8  4  1  0
  9  7  1  0
 10  9  2  0
 11  9  1  0
 11 12  1  0
 12 13  1  0
 14 13  1  0
 15 14  1  0
 15 11  1  0
 15 16  1  1
 16 18  1  0
 17 16  2  0
M  END
$$$$
