AAP.pdb
     RDKit          3D

 18 18  0  0  1  0  0  0  0  0999 V2000
   15.4374  -12.3736  -15.1846 C   0  0  0  0  0  0  0  0  0  0  0  0
   16.3357  -13.0751  -16.1623 C   0  0  2  0  0  0  0  0  0  0  0  0
   16.3172  -14.5011  -15.9685 N   0  0  0  0  0  0  0  0  0  0  0  0
   17.7235  -12.5228  -16.0446 C   0  0  0  0  0  0  0  0  0  0  0  0
   18.4198  -12.8589  -15.0530 O   0  0  0  0  0  0  0  0  0  0  0  0
   20.0313  -10.5517  -18.2281 C   0  0  0  0  0  0  0  0  0  0  0  0
   19.6630  -11.1734  -16.9274 C   0  0  2  0  0  0  0  0  0  0  0  0
   18.2836  -11.6399  -17.0006 N   0  0  0  0  0  0  0  0  0  0  0  0
   19.8576  -10.3052  -15.7578 C   0  0  0  0  0  0  0  0  0  0  0  0
   18.8507   -9.8245  -15.1871 O   0  0  0  0  0  0  0  0  0  0  0  0
   21.1294   -9.9767  -15.2324 N   0  0  0  0  0  0  0  0  0  0  0  0
   22.4451  -10.4482  -15.6881 C   0  0  0  0  0  0  0  0  0  0  0  0
   23.0220  -10.9276  -14.3556 C   0  0  0  0  0  0  0  0  0  0  0  0
   22.6762   -9.7334  -13.4664 C   0  0  0  0  0  0  0  0  0  0  0  0
   21.4588   -9.0988  -14.1194 C   0  0  1  0  0  0  0  0  0  0  0  0
   21.8364   -7.7381  -14.6237 C   0  0  0  0  0  0  0  0  0  0  0  0
   22.1447   -7.5793  -15.8254 O   0  0  0  0  0  0  0  0  0  0  0  0
   21.8492   -6.6457  -13.7720 O   0  0  0  0  0  0  0  0  0  0  0  0
  2  1  1  1
  2  3  1  0
  4  2  1  0
  4  5  2  0
  7  6  1  6
  7  8  1  0
  8  4  1  0
  9  7  1  0
 10  9  2  0
 11  9  1  0
 11 12  1  0
 12 13  1  0
 14 13  1  0
 15 14  1  0
 15 11  1  0
 15 16  1  6
 16 18  1  0
 17 16  2  0
M  END
$$$$
