AAP.pdb
     RDKit          3D

 18 18  0  0  1  0  0  0  0  0999 V2000
   15.9232  -12.8438  -16.2424 C   0  0  0  0  0  0  0  0  0  0  0  0
   17.0137  -13.4275  -17.0939 C   0  0  2  0  0  0  0  0  0  0  0  0
   17.0907  -14.8573  -16.9479 N   0  0  0  0  0  0  0  0  0  0  0  0
   18.3154  -12.7695  -16.7517 C   0  0  0  0  0  0  0  0  0  0  0  0
   18.9211  -13.1430  -15.7149 O   0  0  0  0  0  0  0  0  0  0  0  0
   20.6787  -10.4585  -18.4899 C   0  0  0  0  0  0  0  0  0  0  0  0
   20.2231  -11.2093  -17.2887 C   0  0  2  0  0  0  0  0  0  0  0  0
   18.8922  -11.7467  -17.5444 N   0  0  0  0  0  0  0  0  0  0  0  0
   20.2408  -10.4345  -16.0402 C   0  0  0  0  0  0  0  0  0  0  0  0
   19.1521  -10.0588  -15.5461 O   0  0  0  0  0  0  0  0  0  0  0  0
   21.4283  -10.0842  -15.3556 N   0  0  0  0  0  0  0  0  0  0  0  0
   22.8164  -10.3566  -15.7556 C   0  0  0  0  0  0  0  0  0  0  0  0
   23.3353  -10.9932  -14.4657 C   0  0  0  0  0  0  0  0  0  0  0  0
   22.8019   -9.9949  -13.4385 C   0  0  0  0  0  0  0  0  0  0  0  0
   21.5797   -9.3732  -14.0948 C   0  0  1  0  0  0  0  0  0  0  0  0
   21.8538   -7.9206  -14.3460 C   0  0  0  0  0  0  0  0  0  0  0  0
   21.7506   -7.0938  -13.4132 O   0  0  0  0  0  0  0  0  0  0  0  0
   22.2225   -7.4770  -15.6053 O   0  0  0  0  0  0  0  0  0  0  0  0
  2  1  1  1
  2  3  1  0
  4  2  1  0
  4  5  2  0
  7  6  1  6
  7  8  1  0
  8  4  1  0
  9  7  1  0
 10  9  2  0
 11  9  1  0
 11 12  1  0
 12 13  1  0
 14 13  1  0
 15 14  1  0
 15 11  1  0
 15 16  1  6
 16 18  1  0
 17 16  2  0
M  END
$$$$
