AAP.pdb
     RDKit          3D

 18 18  0  0  1  0  0  0  0  0999 V2000
   27.7785  -19.2715  -19.4598 C   0  0  0  0  0  0  0  0  0  0  0  0
   26.4575  -18.5874  -19.2550 C   0  0  2  0  0  0  0  0  0  0  0  0
   26.4663  -17.2502  -19.7873 N   0  0  0  0  0  0  0  0  0  0  0  0
   26.1160  -18.5956  -17.7963 C   0  0  0  0  0  0  0  0  0  0  0  0
   26.9154  -18.0540  -16.9909 O   0  0  0  0  0  0  0  0  0  0  0  0
   23.1179  -19.1853  -15.7215 C   0  0  0  0  0  0  0  0  0  0  0  0
   24.5987  -19.1783  -15.8675 C   0  0  2  0  0  0  0  0  0  0  0  0
   24.9334  -19.1862  -17.2865 N   0  0  0  0  0  0  0  0  0  0  0  0
   25.2878  -20.2691  -15.1640 C   0  0  0  0  0  0  0  0  0  0  0  0
   25.5583  -21.3186  -15.7929 O   0  0  0  0  0  0  0  0  0  0  0  0
   25.6678  -20.2028  -13.8028 N   0  0  0  0  0  0  0  0  0  0  0  0
   25.4804  -19.0862  -12.8652 C   0  0  0  0  0  0  0  0  0  0  0  0
   26.9078  -18.9556  -12.3325 C   0  0  0  0  0  0  0  0  0  0  0  0
   27.2222  -20.4227  -12.0405 C   0  0  0  0  0  0  0  0  0  0  0  0
   26.3340  -21.2099  -12.9906 C   0  0  1  0  0  0  0  0  0  0  0  0
   25.3288  -21.9781  -12.1858 C   0  0  0  0  0  0  0  0  0  0  0  0
   24.1565  -21.5553  -12.0804 O   0  0  0  0  0  0  0  0  0  0  0  0
   25.6818  -23.1583  -11.5522 O   0  0  0  0  0  0  0  0  0  0  0  0
  2  1  1  1
  2  3  1  0
  4  2  1  0
  4  5  2  0
  7  6  1  6
  7  8  1  0
  8  4  1  0
  9  7  1  0
 10  9  2  0
 11  9  1  0
 11 12  1  0
 12 13  1  0
 14 13  1  0
 15 14  1  0
 15 11  1  0
 15 16  1  1
 16 18  1  0
 17 16  2  0
M  END
$$$$
