AAP.pdb
     RDKit          3D

 18 18  0  0  1  0  0  0  0  0999 V2000
   28.8685  -19.4828  -18.4594 C   0  0  0  0  0  0  0  0  0  0  0  0
   27.9760  -20.5123  -17.8280 C   0  0  2  0  0  0  0  0  0  0  0  0
   26.7917  -20.7390  -18.6139 N   0  0  0  0  0  0  0  0  0  0  0  0
   27.6359  -20.0847  -16.4329 C   0  0  0  0  0  0  0  0  0  0  0  0
   28.5477  -20.0857  -15.5671 O   0  0  0  0  0  0  0  0  0  0  0  0
   24.7739  -18.4516  -14.7056 C   0  0  0  0  0  0  0  0  0  0  0  0
   26.0019  -19.2917  -14.6828 C   0  0  2  0  0  0  0  0  0  0  0  0
   26.3338  -19.6802  -16.0483 N   0  0  0  0  0  0  0  0  0  0  0  0
   25.9194  -20.4719  -13.8112 C   0  0  0  0  0  0  0  0  0  0  0  0
   25.6310  -21.5803  -14.3197 O   0  0  0  0  0  0  0  0  0  0  0  0
   26.1491  -20.4294  -12.4158 N   0  0  0  0  0  0  0  0  0  0  0  0
   26.4891  -19.2612  -11.5907 C   0  0  0  0  0  0  0  0  0  0  0  0
   27.7159  -19.8101  -10.8613 C   0  0  0  0  0  0  0  0  0  0  0  0
   27.1850  -21.1775  -10.4315 C   0  0  0  0  0  0  0  0  0  0  0  0
   26.1089  -21.5174  -11.4501 C   0  0  1  0  0  0  0  0  0  0  0  0
   24.7803  -21.5483  -10.7557 C   0  0  0  0  0  0  0  0  0  0  0  0
   24.0031  -20.5727  -10.8478 O   0  0  0  0  0  0  0  0  0  0  0  0
   24.3976  -22.6496  -10.0078 O   0  0  0  0  0  0  0  0  0  0  0  0
  2  1  1  6
  2  3  1  0
  4  2  1  0
  4  5  2  0
  7  6  1  6
  7  8  1  0
  8  4  1  0
  9  7  1  0
 10  9  2  0
 11  9  1  0
 11 12  1  0
 12 13  1  0
 14 13  1  0
 15 14  1  0
 15 11  1  0
 15 16  1  1
 16 18  1  0
 17 16  2  0
M  END
$$$$
