AAP.pdb
     RDKit          3D

 18 18  0  0  1  0  0  0  0  0999 V2000
   30.3589  -28.6636  -23.4287 C   0  0  0  0  0  0  0  0  0  0  0  0
   29.9191  -27.2305  -23.3401 C   0  0  2  0  0  0  0  0  0  0  0  0
   31.0198  -26.3260  -23.5448 N   0  0  0  0  0  0  0  0  0  0  0  0
   29.2548  -26.9968  -22.0177 C   0  0  0  0  0  0  0  0  0  0  0  0
   29.9748  -26.7061  -21.0287 O   0  0  0  0  0  0  0  0  0  0  0  0
   25.7367  -26.8049  -20.7453 C   0  0  0  0  0  0  0  0  0  0  0  0
   27.2107  -26.8505  -20.5473 C   0  0  2  0  0  0  0  0  0  0  0  0
   27.8530  -27.0890  -21.8342 N   0  0  0  0  0  0  0  0  0  0  0  0
   27.6637  -27.8299  -19.5497 C   0  0  0  0  0  0  0  0  0  0  0  0
   28.2088  -28.8871  -19.9443 O   0  0  0  0  0  0  0  0  0  0  0  0
   27.5190  -27.6470  -18.1544 N   0  0  0  0  0  0  0  0  0  0  0  0
   26.8738  -26.5287  -17.4513 C   0  0  0  0  0  0  0  0  0  0  0  0
   27.9878  -26.1660  -16.4686 C   0  0  0  0  0  0  0  0  0  0  0  0
   28.3517  -27.5563  -15.9479 C   0  0  0  0  0  0  0  0  0  0  0  0
   27.9660  -28.5075  -17.0692 C   0  0  1  0  0  0  0  0  0  0  0  0
   26.8399  -29.3779  -16.5973 C   0  0  0  0  0  0  0  0  0  0  0  0
   25.6633  -29.1139  -16.9293 O   0  0  0  0  0  0  0  0  0  0  0  0
   27.0849  -30.4785  -15.7928 O   0  0  0  0  0  0  0  0  0  0  0  0
  2  1  1  1
  2  3  1  0
  4  2  1  0
  4  5  2  0
  7  6  1  6
  7  8  1  0
  8  4  1  0
  9  7  1  0
 10  9  2  0
 11  9  1  0
 11 12  1  0
 12 13  1  0
 14 13  1  0
 15 14  1  0
 15 11  1  0
 15 16  1  1
 16 18  1  0
 17 16  2  0
M  END
$$$$
