AAP.pdb
     RDKit          3D

 18 18  0  0  1  0  0  0  0  0999 V2000
   28.1662  -18.0621   -6.0129 C   0  0  0  0  0  0  0  0  0  0  0  0
   27.6535  -19.4409   -5.7112 C   0  0  2  0  0  0  0  0  0  0  0  0
   28.5360  -20.1508   -4.8231 N   0  0  0  0  0  0  0  0  0  0  0  0
   27.4504  -20.1860   -6.9950 C   0  0  0  0  0  0  0  0  0  0  0  0
   28.4199  -20.8262   -7.4759 O   0  0  0  0  0  0  0  0  0  0  0  0
   24.6576  -21.4897   -8.9759 C   0  0  0  0  0  0  0  0  0  0  0  0
   26.0284  -20.9115   -8.9478 C   0  0  2  0  0  0  0  0  0  0  0  0
   26.2153  -20.2002   -7.6891 N   0  0  0  0  0  0  0  0  0  0  0  0
   26.3495  -20.0434  -10.0892 C   0  0  0  0  0  0  0  0  0  0  0  0
   26.1612  -18.8091   -9.9819 O   0  0  0  0  0  0  0  0  0  0  0  0
   26.8645  -20.5249  -11.3157 N   0  0  0  0  0  0  0  0  0  0  0  0
   27.1845  -21.9129  -11.6792 C   0  0  0  0  0  0  0  0  0  0  0  0
   28.6107  -21.7209  -12.1962 C   0  0  0  0  0  0  0  0  0  0  0  0
   28.4087  -20.5052  -13.1005 C   0  0  0  0  0  0  0  0  0  0  0  0
   27.2064  -19.7797  -12.5181 C   0  0  1  0  0  0  0  0  0  0  0  0
   26.0806  -19.8416  -13.5067 C   0  0  0  0  0  0  0  0  0  0  0  0
   26.0927  -19.1032  -14.5160 O   0  0  0  0  0  0  0  0  0  0  0  0
   25.0192  -20.7112  -13.3174 O   0  0  0  0  0  0  0  0  0  0  0  0
  2  1  1  6
  2  3  1  0
  4  2  1  0
  4  5  2  0
  7  6  1  6
  7  8  1  0
  8  4  1  0
  9  7  1  0
 10  9  2  0
 11  9  1  0
 11 12  1  0
 12 13  1  0
 14 13  1  0
 15 14  1  0
 15 11  1  0
 15 16  1  6
 16 18  1  0
 17 16  2  0
M  END
$$$$
