AAP.pdb
     RDKit          3D

 18 18  0  0  1  0  0  0  0  0999 V2000
   20.6103  -17.7741  -16.5885 C   0  0  0  0  0  0  0  0  0  0  0  0
   20.0071  -19.0169  -15.9999 C   0  0  2  0  0  0  0  0  0  0  0  0
   18.8198  -18.7207  -15.2421 N   0  0  0  0  0  0  0  0  0  0  0  0
   21.0330  -19.7168  -15.1618 C   0  0  0  0  0  0  0  0  0  0  0  0
   21.4164  -19.1647  -14.0991 O   0  0  0  0  0  0  0  0  0  0  0  0
   22.6433  -23.0771  -15.0687 C   0  0  0  0  0  0  0  0  0  0  0  0
   22.6107  -21.6327  -14.7125 C   0  0  2  0  0  0  0  0  0  0  0  0
   21.5887  -20.9713  -15.5147 N   0  0  0  0  0  0  0  0  0  0  0  0
   23.9014  -20.9420  -14.8410 C   0  0  0  0  0  0  0  0  0  0  0  0
   24.0222  -20.0417  -15.7044 O   0  0  0  0  0  0  0  0  0  0  0  0
   25.0281  -21.2370  -14.0380 N   0  0  0  0  0  0  0  0  0  0  0  0
   25.1266  -22.2111  -12.9414 C   0  0  0  0  0  0  0  0  0  0  0  0
   25.7188  -21.3144  -11.8535 C   0  0  0  0  0  0  0  0  0  0  0  0
   26.8339  -20.6309  -12.6444 C   0  0  0  0  0  0  0  0  0  0  0  0
   26.3629  -20.6593  -14.0895 C   0  0  1  0  0  0  0  0  0  0  0  0
   27.2822  -21.5425  -14.8790 C   0  0  0  0  0  0  0  0  0  0  0  0
   27.0146  -22.7558  -15.0222 O   0  0  0  0  0  0  0  0  0  0  0  0
   28.4325  -21.0308  -15.4568 O   0  0  0  0  0  0  0  0  0  0  0  0
  2  1  1  1
  2  3  1  0
  4  2  1  0
  4  5  2  0
  7  6  1  6
  7  8  1  0
  8  4  1  0
  9  7  1  0
 10  9  2  0
 11  9  1  0
 11 12  1  0
 12 13  1  0
 14 13  1  0
 15 14  1  0
 15 11  1  0
 15 16  1  6
 16 18  1  0
 17 16  2  0
M  END
$$$$
