AAP.pdb
     RDKit          3D

 18 18  0  0  1  0  0  0  0  0999 V2000
   17.9726   -8.4630  -20.1752 C   0  0  0  0  0  0  0  0  0  0  0  0
   18.6551   -9.5272  -19.3649 C   0  0  2  0  0  0  0  0  0  0  0  0
   17.7987  -10.6653  -19.1582 N   0  0  0  0  0  0  0  0  0  0  0  0
   19.1140   -8.9418  -18.0643 C   0  0  0  0  0  0  0  0  0  0  0  0
   18.2969   -8.2633  -17.3913 O   0  0  0  0  0  0  0  0  0  0  0  0
   22.1239   -9.2426  -15.8734 C   0  0  0  0  0  0  0  0  0  0  0  0
   20.8590   -8.5731  -16.2808 C   0  0  2  0  0  0  0  0  0  0  0  0
   20.4265   -9.1197  -17.5613 N   0  0  0  0  0  0  0  0  0  0  0  0
   20.9346   -7.1067  -16.3394 C   0  0  0  0  0  0  0  0  0  0  0  0
   21.1226   -6.5547  -17.4487 O   0  0  0  0  0  0  0  0  0  0  0  0
   20.8062   -6.2723  -15.2042 N   0  0  0  0  0  0  0  0  0  0  0  0
   20.5209   -6.6696  -13.8179 C   0  0  0  0  0  0  0  0  0  0  0  0
   19.3527   -5.7299  -13.5165 C   0  0  0  0  0  0  0  0  0  0  0  0
   19.9201   -4.4145  -14.0495 C   0  0  0  0  0  0  0  0  0  0  0  0
   20.9215   -4.8242  -15.1174 C   0  0  1  0  0  0  0  0  0  0  0  0
   22.2969   -4.4378  -14.6622 C   0  0  0  0  0  0  0  0  0  0  0  0
   22.9449   -5.2001  -13.9116 O   0  0  0  0  0  0  0  0  0  0  0  0
   22.8652   -3.2401  -15.0636 O   0  0  0  0  0  0  0  0  0  0  0  0
  2  1  1  1
  2  3  1  0
  4  2  1  0
  4  5  2  0
  7  6  1  6
  7  8  1  0
  8  4  1  0
  9  7  1  0
 10  9  2  0
 11  9  1  0
 11 12  1  0
 12 13  1  0
 14 13  1  0
 15 14  1  0
 15 11  1  0
 15 16  1  1
 16 18  1  0
 17 16  2  0
M  END
$$$$
