AAP.pdb
     RDKit          3D

 18 18  0  0  1  0  0  0  0  0999 V2000
   17.9998  -15.9465  -16.8181 C   0  0  0  0  0  0  0  0  0  0  0  0
   17.6404  -14.5458  -16.4131 C   0  0  2  0  0  0  0  0  0  0  0  0
   16.7642  -13.9263  -17.3722 N   0  0  0  0  0  0  0  0  0  0  0  0
   18.8942  -13.7488  -16.2194 C   0  0  0  0  0  0  0  0  0  0  0  0
   19.6398  -14.0317  -15.2472 O   0  0  0  0  0  0  0  0  0  0  0  0
   20.8803  -11.2891  -18.1783 C   0  0  0  0  0  0  0  0  0  0  0  0
   20.4920  -11.9142  -16.8850 C   0  0  2  0  0  0  0  0  0  0  0  0
   19.2751  -12.6922  -17.0830 N   0  0  0  0  0  0  0  0  0  0  0  0
   20.3297  -10.9677  -15.7727 C   0  0  0  0  0  0  0  0  0  0  0  0
   19.1735  -10.7000  -15.3702 O   0  0  0  0  0  0  0  0  0  0  0  0
   21.4145  -10.3340  -15.1222 N   0  0  0  0  0  0  0  0  0  0  0  0
   22.8437  -10.4201  -15.4556 C   0  0  0  0  0  0  0  0  0  0  0  0
   23.4069  -10.7815  -14.0806 C   0  0  0  0  0  0  0  0  0  0  0  0
   22.6753   -9.7587  -13.2118 C   0  0  0  0  0  0  0  0  0  0  0  0
   21.3955   -9.4452  -13.9700 C   0  0  1  0  0  0  0  0  0  0  0  0
   21.4373   -8.0141  -14.4157 C   0  0  0  0  0  0  0  0  0  0  0  0
   21.7255   -7.7357  -15.6005 O   0  0  0  0  0  0  0  0  0  0  0  0
   21.1594   -6.9877  -13.5281 O   0  0  0  0  0  0  0  0  0  0  0  0
  2  1  1  6
  2  3  1  0
  4  2  1  0
  4  5  2  0
  7  6  1  6
  7  8  1  0
  8  4  1  0
  9  7  1  0
 10  9  2  0
 11  9  1  0
 11 12  1  0
 12 13  1  0
 14 13  1  0
 15 14  1  0
 15 11  1  0
 15 16  1  6
 16 18  1  0
 17 16  2  0
M  END
$$$$
