AAP.pdb
     RDKit          3D

 18 18  0  0  1  0  0  0  0  0999 V2000
   20.1975  -10.8058  -20.4467 C   0  0  0  0  0  0  0  0  0  0  0  0
   21.2974  -10.2909  -19.5636 C   0  0  2  0  0  0  0  0  0  0  0  0
   22.0289  -11.3668  -18.9480 N   0  0  0  0  0  0  0  0  0  0  0  0
   20.7176   -9.3642  -18.5390 C   0  0  0  0  0  0  0  0  0  0  0  0
   20.1963   -8.2890  -18.9306 O   0  0  0  0  0  0  0  0  0  0  0  0
   19.9114   -9.4913  -14.9039 C   0  0  0  0  0  0  0  0  0  0  0  0
   20.1789   -8.7345  -16.1568 C   0  0  2  0  0  0  0  0  0  0  0  0
   20.7313   -9.6468  -17.1508 N   0  0  0  0  0  0  0  0  0  0  0  0
   21.0465   -7.5604  -15.9886 C   0  0  0  0  0  0  0  0  0  0  0  0
   22.2198   -7.6077  -16.4261 O   0  0  0  0  0  0  0  0  0  0  0  0
   20.6298   -6.3663  -15.3545 N   0  0  0  0  0  0  0  0  0  0  0  0
   19.3066   -6.0537  -14.7955 C   0  0  0  0  0  0  0  0  0  0  0  0
   19.0490   -4.7110  -15.4805 C   0  0  0  0  0  0  0  0  0  0  0  0
   20.3909   -4.0213  -15.2359 C   0  0  0  0  0  0  0  0  0  0  0  0
   21.3939   -5.1550  -15.0957 C   0  0  1  0  0  0  0  0  0  0  0  0
   21.9209   -5.1618  -13.6920 C   0  0  0  0  0  0  0  0  0  0  0  0
   22.7322   -4.2840  -13.3238 O   0  0  0  0  0  0  0  0  0  0  0  0
   21.5197   -6.1331  -12.7897 O   0  0  0  0  0  0  0  0  0  0  0  0
  2  1  1  1
  2  3  1  0
  4  2  1  0
  4  5  2  0
  7  6  1  1
  7  8  1  0
  8  4  1  0
  9  7  1  0
 10  9  2  0
 11  9  1  0
 11 12  1  0
 12 13  1  0
 14 13  1  0
 15 14  1  0
 15 11  1  0
 15 16  1  1
 16 18  1  0
 17 16  2  0
M  END
$$$$
