AAP.pdb
     RDKit          3D

 18 18  0  0  1  0  0  0  0  0999 V2000
   19.3413  -13.3043  -17.6087 C   0  0  0  0  0  0  0  0  0  0  0  0
   19.9124  -12.7034  -16.3566 C   0  0  2  0  0  0  0  0  0  0  0  0
   19.1211  -13.0365  -15.2014 N   0  0  0  0  0  0  0  0  0  0  0  0
   20.0344  -11.2202  -16.5297 C   0  0  0  0  0  0  0  0  0  0  0  0
   20.9500  -10.7766  -17.2686 O   0  0  0  0  0  0  0  0  0  0  0  0
   18.0318   -8.1953  -15.6920 C   0  0  0  0  0  0  0  0  0  0  0  0
   19.3252   -8.8540  -16.0194 C   0  0  2  0  0  0  0  0  0  0  0  0
   19.1641  -10.2979  -15.8979 N   0  0  0  0  0  0  0  0  0  0  0  0
   20.4678   -8.3886  -15.2211 C   0  0  0  0  0  0  0  0  0  0  0  0
   20.9085   -9.1260  -14.3087 O   0  0  0  0  0  0  0  0  0  0  0  0
   21.1067   -7.1428  -15.4247 N   0  0  0  0  0  0  0  0  0  0  0  0
   20.7724   -6.1061  -16.4119 C   0  0  0  0  0  0  0  0  0  0  0  0
   22.1519   -5.8910  -17.0357 C   0  0  0  0  0  0  0  0  0  0  0  0
   23.0060   -5.7856  -15.7724 C   0  0  0  0  0  0  0  0  0  0  0  0
   22.2450   -6.5740  -14.7187 C   0  0  1  0  0  0  0  0  0  0  0  0
   21.7772   -5.6283  -13.6533 C   0  0  0  0  0  0  0  0  0  0  0  0
   20.6163   -5.1647  -13.6937 O   0  0  0  0  0  0  0  0  0  0  0  0
   22.6180   -5.2574  -12.6168 O   0  0  0  0  0  0  0  0  0  0  0  0
  2  1  1  6
  2  3  1  0
  4  2  1  0
  4  5  2  0
  7  6  1  1
  7  8  1  0
  8  4  1  0
  9  7  1  0
 10  9  2  0
 11  9  1  0
 11 12  1  0
 12 13  1  0
 14 13  1  0
 15 14  1  0
 15 11  1  0
 15 16  1  1
 16 18  1  0
 17 16  2  0
M  END
$$$$
