AAP.pdb
     RDKit          3D

 18 18  0  0  1  0  0  0  0  0999 V2000
   22.7380  -18.3771  -14.5360 C   0  0  0  0  0  0  0  0  0  0  0  0
   23.5540  -19.5477  -15.0039 C   0  0  2  0  0  0  0  0  0  0  0  0
   22.7835  -20.4281  -15.8423 N   0  0  0  0  0  0  0  0  0  0  0  0
   24.1117  -20.2696  -13.8154 C   0  0  0  0  0  0  0  0  0  0  0  0
   23.3087  -20.7723  -12.9887 O   0  0  0  0  0  0  0  0  0  0  0  0
   27.3866  -21.5906  -12.6889 C   0  0  0  0  0  0  0  0  0  0  0  0
   26.0403  -21.0362  -12.3820 C   0  0  2  0  0  0  0  0  0  0  0  0
   25.5023  -20.4099  -13.5836 N   0  0  0  0  0  0  0  0  0  0  0  0
   26.0077  -20.1015  -11.2485 C   0  0  0  0  0  0  0  0  0  0  0  0
   25.9834  -18.8702  -11.4804 O   0  0  0  0  0  0  0  0  0  0  0  0
   26.0019  -20.5151   -9.8955 N   0  0  0  0  0  0  0  0  0  0  0  0
   26.0265  -21.8877   -9.3697 C   0  0  0  0  0  0  0  0  0  0  0  0
   24.8385  -21.8163   -8.4096 C   0  0  0  0  0  0  0  0  0  0  0  0
   25.1468  -20.5003   -7.6958 C   0  0  0  0  0  0  0  0  0  0  0  0
   25.9702  -19.6988   -8.6912 C   0  0  1  0  0  0  0  0  0  0  0  0
   27.3550  -19.5259   -8.1428 C   0  0  0  0  0  0  0  0  0  0  0  0
   28.2840  -20.2598   -8.5460 O   0  0  0  0  0  0  0  0  0  0  0  0
   27.6231  -18.5580   -7.1889 O   0  0  0  0  0  0  0  0  0  0  0  0
  2  1  1  1
  2  3  1  0
  4  2  1  0
  4  5  2  0
  7  6  1  6
  7  8  1  0
  8  4  1  0
  9  7  1  0
 10  9  2  0
 11  9  1  0
 11 12  1  0
 12 13  1  0
 14 13  1  0
 15 14  1  0
 15 11  1  0
 15 16  1  1
 16 18  1  0
 17 16  2  0
M  END
$$$$
