AAP.pdb
     RDKit          3D

 18 18  0  0  1  0  0  0  0  0999 V2000
   24.8201  -17.6001  -18.5411 C   0  0  0  0  0  0  0  0  0  0  0  0
   23.6239  -17.3050  -17.6826 C   0  0  2  0  0  0  0  0  0  0  0  0
   23.4434  -15.8894  -17.4957 N   0  0  0  0  0  0  0  0  0  0  0  0
   23.7658  -18.0183  -16.3728 C   0  0  0  0  0  0  0  0  0  0  0  0
   24.8113  -17.8322  -15.6995 O   0  0  0  0  0  0  0  0  0  0  0  0
   21.6174  -20.0710  -14.1246 C   0  0  0  0  0  0  0  0  0  0  0  0
   22.9523  -19.6466  -14.6267 C   0  0  2  0  0  0  0  0  0  0  0  0
   22.7745  -18.8917  -15.8612 N   0  0  0  0  0  0  0  0  0  0  0  0
   23.9100  -20.7442  -14.8208 C   0  0  0  0  0  0  0  0  0  0  0  0
   24.2830  -21.0225  -15.9844 O   0  0  0  0  0  0  0  0  0  0  0  0
   24.4414  -21.5136  -13.7592 N   0  0  0  0  0  0  0  0  0  0  0  0
   24.1098  -21.4319  -12.3293 C   0  0  0  0  0  0  0  0  0  0  0  0
   25.5181  -21.3124  -11.7454 C   0  0  0  0  0  0  0  0  0  0  0  0
   26.2244  -22.4295  -12.5133 C   0  0  0  0  0  0  0  0  0  0  0  0
   25.4406  -22.5704  -13.8083 C   0  0  1  0  0  0  0  0  0  0  0  0
   24.7764  -23.9146  -13.8259 C   0  0  0  0  0  0  0  0  0  0  0  0
   23.5847  -24.0286  -13.4636 O   0  0  0  0  0  0  0  0  0  0  0  0
   25.4680  -25.0408  -14.2407 O   0  0  0  0  0  0  0  0  0  0  0  0
  2  1  1  6
  2  3  1  0
  4  2  1  0
  4  5  2  0
  7  6  1  6
  7  8  1  0
  8  4  1  0
  9  7  1  0
 10  9  2  0
 11  9  1  0
 11 12  1  0
 12 13  1  0
 14 13  1  0
 15 14  1  0
 15 11  1  0
 15 16  1  1
 16 18  1  0
 17 16  2  0
M  END
$$$$
