STT.pdb
     RDKit          3D

 21 20  0  0  1  0  0  0  0  0999 V2000
    8.6694  -19.0020   18.2562 O   0  0  0  0  0  0  0  0  0  0  0  0
    7.6072  -18.2170   17.8496 C   0  0  0  0  0  0  0  0  0  0  0  0
    8.0344  -16.8411   17.3844 C   0  0  2  0  0  0  0  0  0  0  0  0
    8.8007  -16.9823   16.1855 N   0  0  0  0  0  0  0  0  0  0  0  0
    8.7889  -16.1154   18.4339 C   0  0  0  0  0  0  0  0  0  0  0  0
    9.9929  -15.8004   18.3023 O   0  0  0  0  0  0  0  0  0  0  0  0
    7.6299  -12.8654   20.2740 C   0  0  0  0  0  0  0  0  0  0  0  0
    7.8016  -13.9801   21.2686 C   0  0  1  0  0  0  0  0  0  0  0  0
    6.6124  -14.5545   21.6427 O   0  0  0  0  0  0  0  0  0  0  0  0
    8.7391  -15.0648   20.7281 C   0  0  2  0  0  0  0  0  0  0  0  0
    8.1039  -15.7708   19.6310 N   0  0  0  0  0  0  0  0  0  0  0  0
    8.9808  -16.0638   21.8024 C   0  0  0  0  0  0  0  0  0  0  0  0
    8.4095  -17.1817   21.7772 O   0  0  0  0  0  0  0  0  0  0  0  0
   11.9030  -18.7757   23.8965 C   0  0  0  0  0  0  0  0  0  0  0  0
   11.2572  -17.8389   22.8956 C   0  0  1  0  0  0  0  0  0  0  0  0
   10.4190  -18.6281   22.1036 O   0  0  0  0  0  0  0  0  0  0  0  0
   10.3754  -16.8922   23.6607 C   0  0  2  0  0  0  0  0  0  0  0  0
    9.8487  -15.8230   22.8941 N   0  0  0  0  0  0  0  0  0  0  0  0
   11.0989  -16.3772   24.8758 C   0  0  0  0  0  0  0  0  0  0  0  0
   11.0881  -17.0399   26.0890 O   0  0  0  0  0  0  0  0  0  0  0  0
   11.7403  -15.3019   24.7906 O   0  0  0  0  0  0  0  0  0  0  0  0
  2  1  1  0
  3  2  1  0
  3  4  1  6
  5 11  1  0
  5  3  1  0
  6  5  2  0
  8  7  1  6
  9  8  1  0
 10 12  1  0
 10  8  1  0
 10 11  1  6
 12 18  1  0
 13 12  2  0
 15 14  1  1
 15 16  1  0
 17 15  1  0
 17 18  1  6
 19 20  1  0
 19 17  1  0
 21 19  2  0
M  END
$$$$
