STT.pdb
     RDKit          3D

 21 20  0  0  1  0  0  0  0  0999 V2000
    8.6154  -19.1171   17.2053 O   0  0  0  0  0  0  0  0  0  0  0  0
    7.9694  -18.1721   16.4311 C   0  0  0  0  0  0  0  0  0  0  0  0
    8.8504  -16.9907   16.0846 C   0  0  2  0  0  0  0  0  0  0  0  0
    9.9171  -17.4466   15.2487 N   0  0  0  0  0  0  0  0  0  0  0  0
    9.3593  -16.3094   17.2987 C   0  0  0  0  0  0  0  0  0  0  0  0
   10.5608  -16.3585   17.6454 O   0  0  0  0  0  0  0  0  0  0  0  0
    8.1224  -12.8835   20.7216 C   0  0  0  0  0  0  0  0  0  0  0  0
    7.7351  -13.7418   19.5490 C   0  0  1  0  0  0  0  0  0  0  0  0
    7.4347  -13.0128   18.4254 O   0  0  0  0  0  0  0  0  0  0  0  0
    8.8365  -14.7536   19.2159 C   0  0  2  0  0  0  0  0  0  0  0  0
    8.4338  -15.5755   18.0899 N   0  0  0  0  0  0  0  0  0  0  0  0
    9.0112  -15.6664   20.3764 C   0  0  0  0  0  0  0  0  0  0  0  0
    8.1466  -16.5378   20.6412 O   0  0  0  0  0  0  0  0  0  0  0  0
   12.1889  -17.7648   21.0416 C   0  0  0  0  0  0  0  0  0  0  0  0
   10.8022  -17.9461   21.6253 C   0  0  1  0  0  0  0  0  0  0  0  0
   10.9407  -18.8298   22.6988 O   0  0  0  0  0  0  0  0  0  0  0  0
   10.3722  -16.6243   22.1970 C   0  0  2  0  0  0  0  0  0  0  0  0
   10.1354  -15.6116   21.2344 N   0  0  0  0  0  0  0  0  0  0  0  0
   11.3611  -16.1609   23.2326 C   0  0  0  0  0  0  0  0  0  0  0  0
   11.9868  -14.9298   23.1706 O   0  0  0  0  0  0  0  0  0  0  0  0
   11.6332  -16.9191   24.1949 O   0  0  0  0  0  0  0  0  0  0  0  0
  2  1  1  0
  3  2  1  0
  3  4  1  6
  5 11  1  0
  5  3  1  0
  6  5  2  0
  8  7  1  1
  9  8  1  0
 10 12  1  0
 10  8  1  0
 10 11  1  6
 12 18  1  0
 13 12  2  0
 15 14  1  1
 15 16  1  0
 17 15  1  0
 17 18  1  6
 19 20  1  0
 19 17  1  0
 21 19  2  0
M  END
$$$$
