STT.pdb
     RDKit          3D

 21 20  0  0  1  0  0  0  0  0999 V2000
    8.8450  -12.1523   18.1127 O   0  0  0  0  0  0  0  0  0  0  0  0
    8.1071  -12.8907   19.0182 C   0  0  0  0  0  0  0  0  0  0  0  0
    8.4457  -14.3661   18.9917 C   0  0  2  0  0  0  0  0  0  0  0  0
    8.0984  -14.8910   17.7079 N   0  0  0  0  0  0  0  0  0  0  0  0
    7.7713  -15.1048   20.0858 C   0  0  0  0  0  0  0  0  0  0  0  0
    6.9124  -15.9895   19.8720 O   0  0  0  0  0  0  0  0  0  0  0  0
    7.6907  -17.7266   21.2684 C   0  0  0  0  0  0  0  0  0  0  0  0
    8.2783  -17.0005   22.4469 C   0  0  1  0  0  0  0  0  0  0  0  0
    9.6490  -16.9373   22.4103 O   0  0  0  0  0  0  0  0  0  0  0  0
    7.7096  -15.5825   22.5632 C   0  0  2  0  0  0  0  0  0  0  0  0
    8.1251  -14.7842   21.4248 N   0  0  0  0  0  0  0  0  0  0  0  0
    8.2818  -14.9379   23.7747 C   0  0  0  0  0  0  0  0  0  0  0  0
    9.3521  -14.2847   23.7071 O   0  0  0  0  0  0  0  0  0  0  0  0
    7.3220  -12.1410   27.3962 C   0  0  0  0  0  0  0  0  0  0  0  0
    6.7904  -13.2747   26.5427 C   0  0  1  0  0  0  0  0  0  0  0  0
    6.2156  -12.6813   25.4157 O   0  0  0  0  0  0  0  0  0  0  0  0
    7.9685  -14.0762   26.0646 C   0  0  2  0  0  0  0  0  0  0  0  0
    7.6708  -15.0184   25.0487 N   0  0  0  0  0  0  0  0  0  0  0  0
    8.6513  -14.7400   27.2300 C   0  0  0  0  0  0  0  0  0  0  0  0
    9.2293  -14.0263   28.2633 O   0  0  0  0  0  0  0  0  0  0  0  0
    8.7015  -15.9933   27.2714 O   0  0  0  0  0  0  0  0  0  0  0  0
  2  1  1  0
  3  2  1  0
  3  4  1  6
  5 11  1  0
  5  3  1  0
  6  5  2  0
  8  7  1  6
  9  8  1  0
 10 12  1  0
 10  8  1  0
 10 11  1  6
 12 18  1  0
 13 12  2  0
 15 14  1  1
 15 16  1  0
 17 15  1  0
 17 18  1  6
 19 20  1  0
 19 17  1  0
 21 19  2  0
M  END
$$$$
