STT.pdb
     RDKit          3D

 21 20  0  0  1  0  0  0  0  0999 V2000
    6.5294  -22.1860   17.8383 O   0  0  0  0  0  0  0  0  0  0  0  0
    5.1625  -22.3869   17.8686 C   0  0  0  0  0  0  0  0  0  0  0  0
    4.3737  -21.1087   17.6791 C   0  0  2  0  0  0  0  0  0  0  0  0
    4.5253  -20.6753   16.3250 N   0  0  0  0  0  0  0  0  0  0  0  0
    4.7890  -20.0587   18.6396 C   0  0  0  0  0  0  0  0  0  0  0  0
    5.3311  -18.9905   18.2774 O   0  0  0  0  0  0  0  0  0  0  0  0
    2.6061  -18.1716   21.0225 C   0  0  0  0  0  0  0  0  0  0  0  0
    3.5707  -18.9843   21.8414 C   0  0  1  0  0  0  0  0  0  0  0  0
    3.0256  -20.1539   22.3096 O   0  0  0  0  0  0  0  0  0  0  0  0
    4.8416  -19.3013   21.0465 C   0  0  2  0  0  0  0  0  0  0  0  0
    4.5555  -20.2892   20.0229 N   0  0  0  0  0  0  0  0  0  0  0  0
    5.8393  -19.9088   21.9662 C   0  0  0  0  0  0  0  0  0  0  0  0
    5.9137  -21.1555   22.0968 O   0  0  0  0  0  0  0  0  0  0  0  0
    9.9187  -19.9587   24.5314 C   0  0  0  0  0  0  0  0  0  0  0  0
    9.0269  -19.1064   23.6510 C   0  0  1  0  0  0  0  0  0  0  0  0
    9.5576  -19.1862   22.3608 O   0  0  0  0  0  0  0  0  0  0  0  0
    7.6723  -19.7562   23.6099 C   0  0  2  0  0  0  0  0  0  0  0  0
    6.7456  -19.1386   22.7334 N   0  0  0  0  0  0  0  0  0  0  0  0
    7.1068  -19.8648   25.0004 C   0  0  0  0  0  0  0  0  0  0  0  0
    7.4021  -20.9168   25.8474 O   0  0  0  0  0  0  0  0  0  0  0  0
    6.3345  -18.9663   25.4141 O   0  0  0  0  0  0  0  0  0  0  0  0
  2  1  1  0
  3  2  1  0
  3  4  1  6
  5 11  1  0
  5  3  1  0
  6  5  2  0
  8  7  1  6
  9  8  1  0
 10 12  1  0
 10  8  1  0
 10 11  1  6
 12 18  1  0
 13 12  2  0
 15 14  1  1
 15 16  1  0
 17 15  1  0
 17 18  1  6
 19 20  1  0
 19 17  1  0
 21 19  2  0
M  END
$$$$
