STT.pdb
     RDKit          3D

 21 20  0  0  1  0  0  0  0  0999 V2000
    9.3775  -18.0110   16.3256 O   0  0  0  0  0  0  0  0  0  0  0  0
    8.3308  -17.2421   15.8533 C   0  0  0  0  0  0  0  0  0  0  0  0
    8.7156  -15.7951   15.6295 C   0  0  2  0  0  0  0  0  0  0  0  0
    9.5482  -15.7184   14.4696 N   0  0  0  0  0  0  0  0  0  0  0  0
    9.3801  -15.2123   16.8196 C   0  0  0  0  0  0  0  0  0  0  0  0
   10.5899  -14.8925   16.8269 O   0  0  0  0  0  0  0  0  0  0  0  0
    7.6220  -12.4279   19.1642 C   0  0  0  0  0  0  0  0  0  0  0  0
    8.0339  -13.6493   19.9388 C   0  0  1  0  0  0  0  0  0  0  0  0
    6.9857  -14.4931   20.2093 O   0  0  0  0  0  0  0  0  0  0  0  0
    9.1320  -14.4260   19.2049 C   0  0  2  0  0  0  0  0  0  0  0  0
    8.5987  -15.0153   17.9908 N   0  0  0  0  0  0  0  0  0  0  0  0
    9.5797  -15.5494   20.0698 C   0  0  0  0  0  0  0  0  0  0  0  0
    9.1895  -16.7222   19.8487 O   0  0  0  0  0  0  0  0  0  0  0  0
   12.7137  -17.7679   22.9373 C   0  0  0  0  0  0  0  0  0  0  0  0
   12.3894  -16.4876   22.1943 C   0  0  1  0  0  0  0  0  0  0  0  0
   13.0271  -16.5812   20.9544 O   0  0  0  0  0  0  0  0  0  0  0  0
   10.9103  -16.4776   21.9279 C   0  0  2  0  0  0  0  0  0  0  0  0
   10.4526  -15.3713   21.1695 N   0  0  0  0  0  0  0  0  0  0  0  0
   10.1497  -16.5941   23.2214 C   0  0  0  0  0  0  0  0  0  0  0  0
    9.9147  -17.8059   23.8438 O   0  0  0  0  0  0  0  0  0  0  0  0
    9.7078  -15.5515   23.7624 O   0  0  0  0  0  0  0  0  0  0  0  0
  2  1  1  0
  3  2  1  0
  3  4  1  6
  5 11  1  0
  5  3  1  0
  6  5  2  0
  8  7  1  6
  9  8  1  0
 10 12  1  0
 10  8  1  0
 10 11  1  6
 12 18  1  0
 13 12  2  0
 15 14  1  1
 15 16  1  0
 17 15  1  0
 17 18  1  1
 19 20  1  0
 19 17  1  0
 21 19  2  0
M  END
$$$$
