STT.pdb
     RDKit          3D

 21 20  0  0  1  0  0  0  0  0999 V2000
    9.9368  -18.6487   16.1476 O   0  0  0  0  0  0  0  0  0  0  0  0
   10.0418  -18.0047   17.3657 C   0  0  0  0  0  0  0  0  0  0  0  0
   10.3422  -16.5273   17.2283 C   0  0  2  0  0  0  0  0  0  0  0  0
   11.5665  -16.3759   16.5054 N   0  0  0  0  0  0  0  0  0  0  0  0
   10.3983  -15.8525   18.5470 C   0  0  0  0  0  0  0  0  0  0  0  0
   11.4768  -15.5300   19.0936 O   0  0  0  0  0  0  0  0  0  0  0  0
    7.6656  -13.0053   19.6512 C   0  0  0  0  0  0  0  0  0  0  0  0
    7.7575  -14.1559   20.6152 C   0  0  1  0  0  0  0  0  0  0  0  0
    6.7350  -15.0603   20.4717 O   0  0  0  0  0  0  0  0  0  0  0  0
    9.0990  -14.8840   20.4818 C   0  0  2  0  0  0  0  0  0  0  0  0
    9.1700  -15.5673   19.2037 N   0  0  0  0  0  0  0  0  0  0  0  0
    9.1801  -15.9295   21.5358 C   0  0  0  0  0  0  0  0  0  0  0  0
    8.6406  -17.0509   21.3678 O   0  0  0  0  0  0  0  0  0  0  0  0
   11.8010  -17.9027   22.8200 C   0  0  0  0  0  0  0  0  0  0  0  0
   11.2440  -17.2740   24.0814 C   0  0  1  0  0  0  0  0  0  0  0  0
   12.0564  -16.1724   24.3625 O   0  0  0  0  0  0  0  0  0  0  0  0
    9.8764  -16.7404   23.7589 C   0  0  2  0  0  0  0  0  0  0  0  0
    9.8540  -15.7310   22.7644 N   0  0  0  0  0  0  0  0  0  0  0  0
    9.1928  -16.2725   25.0154 C   0  0  0  0  0  0  0  0  0  0  0  0
    8.9206  -17.1155   26.0766 O   0  0  0  0  0  0  0  0  0  0  0  0
    8.8533  -15.0680   25.1098 O   0  0  0  0  0  0  0  0  0  0  0  0
  2  1  1  0
  3  2  1  0
  3  4  1  1
  5 11  1  0
  5  3  1  0
  6  5  2  0
  8  7  1  6
  9  8  1  0
 10 12  1  0
 10  8  1  0
 10 11  1  6
 12 18  1  0
 13 12  2  0
 15 14  1  6
 15 16  1  0
 17 15  1  0
 17 18  1  6
 19 20  1  0
 19 17  1  0
 21 19  2  0
M  END
$$$$
