STT.pdb
     RDKit          3D

 21 20  0  0  1  0  0  0  0  0999 V2000
   13.2007  -14.5827   19.2419 O   0  0  0  0  0  0  0  0  0  0  0  0
   12.0426  -14.0807   19.8045 C   0  0  0  0  0  0  0  0  0  0  0  0
   10.8053  -14.8505   19.3940 C   0  0  2  0  0  0  0  0  0  0  0  0
   10.5272  -14.5684   18.0201 N   0  0  0  0  0  0  0  0  0  0  0  0
    9.6469  -14.5337   20.2631 C   0  0  0  0  0  0  0  0  0  0  0  0
    8.8303  -13.6249   19.9926 O   0  0  0  0  0  0  0  0  0  0  0  0
    6.9644  -16.8317   20.9739 C   0  0  0  0  0  0  0  0  0  0  0  0
    7.5323  -16.5043   22.3273 C   0  0  1  0  0  0  0  0  0  0  0  0
    8.3476  -17.4919   22.8214 O   0  0  0  0  0  0  0  0  0  0  0  0
    8.3025  -15.1800   22.2988 C   0  0  2  0  0  0  0  0  0  0  0  0
    9.4707  -15.3013   21.4466 N   0  0  0  0  0  0  0  0  0  0  0  0
    8.7968  -14.8871   23.6701 C   0  0  0  0  0  0  0  0  0  0  0  0
   10.0206  -14.9660   23.9398 O   0  0  0  0  0  0  0  0  0  0  0  0
    7.9419  -11.8670   26.0277 C   0  0  0  0  0  0  0  0  0  0  0  0
    7.7302  -13.1656   26.7796 C   0  0  1  0  0  0  0  0  0  0  0  0
    6.3643  -13.4486   26.6973 O   0  0  0  0  0  0  0  0  0  0  0  0
    8.4497  -14.2500   26.0277 C   0  0  2  0  0  0  0  0  0  0  0  0
    7.9396  -14.5103   24.7314 N   0  0  0  0  0  0  0  0  0  0  0  0
    8.4948  -15.5093   26.8506 C   0  0  0  0  0  0  0  0  0  0  0  0
    9.0706  -15.5615   28.1063 O   0  0  0  0  0  0  0  0  0  0  0  0
    7.9905  -16.5590   26.3829 O   0  0  0  0  0  0  0  0  0  0  0  0
  2  1  1  0
  3  2  1  0
  3  4  1  6
  5 11  1  0
  5  3  1  0
  6  5  2  0
  8  7  1  6
  9  8  1  0
 10 12  1  0
 10  8  1  0
 10 11  1  6
 12 18  1  0
 13 12  2  0
 15 14  1  6
 15 16  1  0
 17 15  1  0
 17 18  1  6
 19 20  1  0
 19 17  1  0
 21 19  2  0
M  END
$$$$
