STT.pdb
     RDKit          3D

 21 20  0  0  1  0  0  0  0  0999 V2000
   11.6415  -22.3480   14.9220 O   0  0  0  0  0  0  0  0  0  0  0  0
   10.2791  -22.5371   14.7886 C   0  0  0  0  0  0  0  0  0  0  0  0
    9.5019  -21.2380   14.7700 C   0  0  2  0  0  0  0  0  0  0  0  0
    9.9065  -20.4807   13.6266 N   0  0  0  0  0  0  0  0  0  0  0  0
    9.6819  -20.4714   16.0259 C   0  0  0  0  0  0  0  0  0  0  0  0
   10.3307  -19.4024   16.0757 O   0  0  0  0  0  0  0  0  0  0  0  0
    6.9627  -18.9806   17.9439 C   0  0  0  0  0  0  0  0  0  0  0  0
    7.6121  -19.9669   18.8750 C   0  0  1  0  0  0  0  0  0  0  0  0
    6.9282  -21.1537   18.9630 O   0  0  0  0  0  0  0  0  0  0  0  0
    9.0606  -20.2474   18.4617 C   0  0  2  0  0  0  0  0  0  0  0  0
    9.0882  -20.9838   17.2116 N   0  0  0  0  0  0  0  0  0  0  0  0
    9.6890  -21.1182   19.4900 C   0  0  0  0  0  0  0  0  0  0  0  0
    9.5303  -22.3635   19.4578 O   0  0  0  0  0  0  0  0  0  0  0  0
   13.3918  -20.8185   20.7513 C   0  0  0  0  0  0  0  0  0  0  0  0
   12.4729  -20.9715   21.9466 C   0  0  1  0  0  0  0  0  0  0  0  0
   12.2534  -19.6828   22.4403 O   0  0  0  0  0  0  0  0  0  0  0  0
   11.1513  -21.4802   21.4432 C   0  0  2  0  0  0  0  0  0  0  0  0
   10.4858  -20.6105   20.5437 N   0  0  0  0  0  0  0  0  0  0  0  0
   10.2597  -21.8412   22.6007 C   0  0  0  0  0  0  0  0  0  0  0  0
   10.5520  -22.8699   23.4769 O   0  0  0  0  0  0  0  0  0  0  0  0
    9.2057  -21.1850   22.7836 O   0  0  0  0  0  0  0  0  0  0  0  0
  2  1  1  0
  3  2  1  0
  3  4  1  6
  5 11  1  0
  5  3  1  0
  6  5  2  0
  8  7  1  6
  9  8  1  0
 10 12  1  0
 10  8  1  0
 10 11  1  6
 12 18  1  0
 13 12  2  0
 15 14  1  6
 15 16  1  0
 17 15  1  0
 17 18  1  1
 19 20  1  0
 19 17  1  0
 21 19  2  0
M  END
$$$$
