STT.pdb
     RDKit          3D

 21 20  0  0  1  0  0  0  0  0999 V2000
    8.9349  -19.5833   16.6443 O   0  0  0  0  0  0  0  0  0  0  0  0
    8.9114  -18.7846   17.7718 C   0  0  0  0  0  0  0  0  0  0  0  0
    8.8859  -17.3061   17.4473 C   0  0  2  0  0  0  0  0  0  0  0  0
    9.5828  -17.0970   16.2164 N   0  0  0  0  0  0  0  0  0  0  0  0
    9.4588  -16.4920   18.5457 C   0  0  0  0  0  0  0  0  0  0  0  0
   10.6581  -16.1350   18.5650 O   0  0  0  0  0  0  0  0  0  0  0  0
    7.7570  -13.2842   20.1291 C   0  0  0  0  0  0  0  0  0  0  0  0
    7.9676  -14.3412   21.1778 C   0  0  1  0  0  0  0  0  0  0  0  0
    6.8200  -15.0283   21.4863 O   0  0  0  0  0  0  0  0  0  0  0  0
    9.0530  -15.3352   20.7517 C   0  0  2  0  0  0  0  0  0  0  0  0
    8.5993  -16.1098   19.6116 N   0  0  0  0  0  0  0  0  0  0  0  0
    9.2816  -16.2959   21.8632 C   0  0  0  0  0  0  0  0  0  0  0  0
    8.9218  -17.4943   21.7576 O   0  0  0  0  0  0  0  0  0  0  0  0
   10.8302  -18.3816   22.1508 C   0  0  0  0  0  0  0  0  0  0  0  0
   11.3158  -17.8972   23.5021 C   0  0  1  0  0  0  0  0  0  0  0  0
   12.4977  -17.1908   23.2643 O   0  0  0  0  0  0  0  0  0  0  0  0
   10.3096  -16.9084   24.0202 C   0  0  2  0  0  0  0  0  0  0  0  0
    9.9039  -15.9286   23.0801 N   0  0  0  0  0  0  0  0  0  0  0  0
   10.8175  -16.2647   25.2823 C   0  0  0  0  0  0  0  0  0  0  0  0
   10.9811  -16.9630   26.4641 O   0  0  0  0  0  0  0  0  0  0  0  0
   11.1062  -15.0434   25.2677 O   0  0  0  0  0  0  0  0  0  0  0  0
  2  1  1  0
  3  2  1  0
  3  4  1  6
  5 11  1  0
  5  3  1  0
  6  5  2  0
  8  7  1  6
  9  8  1  0
 10 12  1  0
 10  8  1  0
 10 11  1  6
 12 18  1  0
 13 12  2  0
 15 14  1  6
 15 16  1  0
 17 15  1  0
 17 18  1  6
 19 20  1  0
 19 17  1  0
 21 19  2  0
M  END
$$$$
