STT.pdb
     RDKit          3D

 21 20  0  0  1  0  0  0  0  0999 V2000
   11.2435  -18.0903   17.0391 O   0  0  0  0  0  0  0  0  0  0  0  0
   12.0307  -17.3221   16.2025 C   0  0  0  0  0  0  0  0  0  0  0  0
   11.4261  -15.9668   15.9031 C   0  0  2  0  0  0  0  0  0  0  0  0
   12.2681  -15.2880   14.9679 N   0  0  0  0  0  0  0  0  0  0  0  0
   11.2244  -15.1700   17.1367 C   0  0  0  0  0  0  0  0  0  0  0  0
   12.1504  -14.5320   17.6857 O   0  0  0  0  0  0  0  0  0  0  0  0
    7.8934  -13.0736   20.1325 C   0  0  0  0  0  0  0  0  0  0  0  0
    8.2325  -13.8003   18.8603 C   0  0  1  0  0  0  0  0  0  0  0  0
    8.1751  -12.9954   17.7499 O   0  0  0  0  0  0  0  0  0  0  0  0
    9.6190  -14.4471   18.9449 C   0  0  2  0  0  0  0  0  0  0  0  0
    9.9221  -15.1393   17.7061 N   0  0  0  0  0  0  0  0  0  0  0  0
    9.6006  -15.4737   20.0202 C   0  0  0  0  0  0  0  0  0  0  0  0
    9.0360  -16.5805   19.8387 O   0  0  0  0  0  0  0  0  0  0  0  0
   11.1534  -17.2754   24.2894 C   0  0  0  0  0  0  0  0  0  0  0  0
   11.0625  -16.0040   23.4697 C   0  0  1  0  0  0  0  0  0  0  0  0
   12.3565  -15.7370   23.0149 O   0  0  0  0  0  0  0  0  0  0  0  0
   10.2238  -16.3018   22.2586 C   0  0  2  0  0  0  0  0  0  0  0  0
   10.2036  -15.2725   21.2846 N   0  0  0  0  0  0  0  0  0  0  0  0
    8.8266  -16.6757   22.6745 C   0  0  0  0  0  0  0  0  0  0  0  0
    8.4567  -17.9748   22.9688 O   0  0  0  0  0  0  0  0  0  0  0  0
    7.9565  -15.7754   22.7596 O   0  0  0  0  0  0  0  0  0  0  0  0
  2  1  1  0
  3  2  1  0
  3  4  1  6
  5 11  1  0
  5  3  1  0
  6  5  2  0
  8  7  1  1
  9  8  1  0
 10 12  1  0
 10  8  1  0
 10 11  1  6
 12 18  1  0
 13 12  2  0
 15 14  1  1
 15 16  1  0
 17 15  1  0
 17 18  1  6
 19 20  1  0
 19 17  1  0
 21 19  2  0
M  END
$$$$
