RDC.pdb
     RDKit          3D

 26 25  0  0  1  0  0  0  0  0999 V2000
   21.6686  -28.8386  -11.0103 N   0  0  0  0  0  0  0  0  0  0  0  0
   20.3427  -28.3482  -11.0022 C   0  0  0  0  0  0  0  0  0  0  0  0
   19.4760  -28.6790  -10.1037 N   0  0  0  0  0  0  0  0  0  0  0  0
   19.9871  -27.4421  -12.0622 N   0  0  0  0  0  0  0  0  0  0  0  0
   21.0367  -27.0951  -13.0088 C   0  0  0  0  0  0  0  0  0  0  0  0
   20.4493  -26.1636  -14.0559 C   0  0  0  0  0  0  0  0  0  0  0  0
   20.4769  -24.7538  -13.5650 C   0  0  0  0  0  0  0  0  0  0  0  0
   19.1737  -24.0241  -13.6775 C   0  0  2  0  0  0  0  0  0  0  0  0
   19.2449  -22.8708  -14.5380 N   0  0  0  0  0  0  0  0  0  0  0  0
   18.7486  -23.6611  -12.2941 C   0  0  0  0  0  0  0  0  0  0  0  0
   19.4676  -22.8655  -11.6422 O   0  0  0  0  0  0  0  0  0  0  0  0
   18.5045  -28.3227  -10.1776 N   0  0  0  0  0  0  0  0  0  0  0  0
   17.5801  -24.1627  -11.6740 C   0  0  2  0  0  0  0  0  0  0  0  0
   17.1811  -23.8641  -10.3325 C   0  0  0  0  0  0  0  0  0  0  0  0
   15.7168  -23.5014  -10.2210 C   0  0  0  0  0  0  0  0  0  0  0  0
   15.4289  -22.1134  -10.6557 O   0  0  0  0  0  0  0  0  0  0  0  0
   16.2731  -21.1844  -10.6443 C   0  0  0  0  0  0  0  0  0  0  0  0
   17.3941  -25.0293   -9.4109 O   0  0  0  0  0  0  0  0  0  0  0  0
   17.2623  -26.1994   -9.8499 O   0  0  0  0  0  0  0  0  0  0  0  0
   14.1520  -21.8119  -11.1042 N   0  0  0  0  0  0  0  0  0  0  0  0
   17.7383  -24.8499   -8.0644 C   0  0  2  0  0  0  0  0  0  0  0  0
   17.9438  -25.9017   -7.1077 C   0  0  0  0  0  0  0  0  0  0  0  0
   18.2775  -25.4345   -5.7348 S   0  0  0  0  0  0  0  0  0  0  0  0
   17.0469  -24.1547   -5.2823 C   0  0  0  0  0  0  0  0  0  0  0  0
   16.7133  -26.7309   -7.0536 O   0  0  0  0  0  0  0  0  0  0  0  0
   16.7341  -28.0330   -6.5532 O   0  0  0  0  0  0  0  0  0  0  0  0
  2  1  1  0
  2  4  1  0
  3  2  2  0
  4  5  1  0
  5  6  1  0
  6  7  1  0
  7  8  1  0
  8 10  1  0
  8  9  1  6
 10 11  2  0
 12 13  1  0
 12 10  1  0
 13 17  1  0
 13 14  1  6
 15 19  1  0
 15 14  1  0
 16 15  2  0
 17 18  2  0
 17 20  1  0
 20 21  1  0
 21 24  1  0
 22 23  1  0
 21 22  1  6
 24 26  2  0
 24 25  1  0
M  END
$$$$
