RDC.pdb
     RDKit          3D

 26 25  0  0  1  0  0  0  0  0999 V2000
   27.2082  -20.9329  -10.2917 N   0  0  0  0  0  0  0  0  0  0  0  0
   25.8039  -21.0762  -10.2153 C   0  0  0  0  0  0  0  0  0  0  0  0
   25.1386  -20.9111   -9.1207 N   0  0  0  0  0  0  0  0  0  0  0  0
   25.1267  -21.4225  -11.4369 N   0  0  0  0  0  0  0  0  0  0  0  0
   25.9057  -21.3450  -12.6639 C   0  0  0  0  0  0  0  0  0  0  0  0
   26.0864  -19.8802  -13.0254 C   0  0  0  0  0  0  0  0  0  0  0  0
   26.7676  -19.7560  -14.3481 C   0  0  0  0  0  0  0  0  0  0  0  0
   26.9192  -18.3520  -14.8471 C   0  0  2  0  0  0  0  0  0  0  0  0
   27.1229  -17.3957  -13.7890 N   0  0  0  0  0  0  0  0  0  0  0  0
   25.7062  -18.0363  -15.6567 C   0  0  0  0  0  0  0  0  0  0  0  0
   25.6641  -18.4398  -16.8443 O   0  0  0  0  0  0  0  0  0  0  0  0
   24.1156  -21.0832   -9.1156 N   0  0  0  0  0  0  0  0  0  0  0  0
   24.5991  -17.3074  -15.1622 C   0  0  2  0  0  0  0  0  0  0  0  0
   23.4265  -16.9975  -15.9218 C   0  0  0  0  0  0  0  0  0  0  0  0
   22.1471  -17.3813  -15.2119 C   0  0  0  0  0  0  0  0  0  0  0  0
   20.9393  -17.1898  -16.0506 O   0  0  0  0  0  0  0  0  0  0  0  0
   20.9583  -16.7087  -17.2099 C   0  0  0  0  0  0  0  0  0  0  0  0
   23.3182  -15.5292  -16.2132 O   0  0  0  0  0  0  0  0  0  0  0  0
   23.6995  -14.6965  -15.3528 O   0  0  0  0  0  0  0  0  0  0  0  0
   19.7081  -17.5614  -15.5323 N   0  0  0  0  0  0  0  0  0  0  0  0
   22.8003  -15.0555  -17.4261 C   0  0  2  0  0  0  0  0  0  0  0  0
   23.2625  -13.8946  -18.1348 C   0  0  0  0  0  0  0  0  0  0  0  0
   24.7114  -13.9115  -18.4741 S   0  0  0  0  0  0  0  0  0  0  0  0
   25.0574  -12.4030  -19.4549 C   0  0  0  0  0  0  0  0  0  0  0  0
   22.4719  -13.7648  -19.3849 O   0  0  0  0  0  0  0  0  0  0  0  0
   21.9020  -12.5488  -19.7631 O   0  0  0  0  0  0  0  0  0  0  0  0
  2  1  1  0
  2  4  1  0
  3  2  2  0
  4  5  1  0
  5  6  1  0
  6  7  1  0
  7  8  1  0
  8 10  1  0
  8  9  1  1
 10 11  2  0
 12 13  1  0
 12 10  1  0
 13 17  1  0
 13 14  1  6
 15 19  1  0
 15 14  1  0
 16 15  2  0
 17 18  2  0
 17 20  1  0
 20 21  1  0
 21 24  1  0
 22 23  1  0
 21 22  1  6
 24 26  2  0
 24 25  1  0
M  END
$$$$
