RDC.pdb
     RDKit          3D

 26 25  0  0  1  0  0  0  0  0999 V2000
   29.8251  -24.3322  -16.4980 N   0  0  0  0  0  0  0  0  0  0  0  0
   29.9264  -23.3588  -17.5182 C   0  0  0  0  0  0  0  0  0  0  0  0
   30.3573  -23.6269  -18.7058 N   0  0  0  0  0  0  0  0  0  0  0  0
   29.5198  -22.0223  -17.1726 N   0  0  0  0  0  0  0  0  0  0  0  0
   28.2393  -21.8801  -16.4958 C   0  0  0  0  0  0  0  0  0  0  0  0
   27.3378  -21.0078  -17.3535 C   0  0  0  0  0  0  0  0  0  0  0  0
   25.9740  -20.9272  -16.7512 C   0  0  0  0  0  0  0  0  0  0  0  0
   25.7371  -21.8627  -15.6057 C   0  0  2  0  0  0  0  0  0  0  0  0
   25.9578  -23.2441  -15.9499 N   0  0  0  0  0  0  0  0  0  0  0  0
   24.3463  -21.6252  -15.1204 C   0  0  0  0  0  0  0  0  0  0  0  0
   23.3938  -22.0479  -15.8197 O   0  0  0  0  0  0  0  0  0  0  0  0
   30.4539  -22.8600  -19.3977 N   0  0  0  0  0  0  0  0  0  0  0  0
   24.0387  -20.9502  -13.9158 C   0  0  1  0  0  0  0  0  0  0  0  0
   22.7125  -20.7204  -13.4299 C   0  0  0  0  0  0  0  0  0  0  0  0
   22.6875  -20.2101  -12.0061 C   0  0  0  0  0  0  0  0  0  0  0  0
   21.3257  -20.1946  -11.4199 O   0  0  0  0  0  0  0  0  0  0  0  0
   21.0676  -19.8110  -10.2528 C   0  0  0  0  0  0  0  0  0  0  0  0
   21.9824  -19.6990  -14.2523 O   0  0  0  0  0  0  0  0  0  0  0  0
   22.5032  -18.5721  -14.4468 O   0  0  0  0  0  0  0  0  0  0  0  0
   20.2646  -20.6284  -12.1999 N   0  0  0  0  0  0  0  0  0  0  0  0
   20.7269  -19.9670  -14.8143 C   0  0  2  0  0  0  0  0  0  0  0  0
   19.9857  -19.0775  -15.6647 C   0  0  0  0  0  0  0  0  0  0  0  0
   19.7139  -19.6068  -17.0287 S   0  0  0  0  0  0  0  0  0  0  0  0
   21.3321  -19.8199  -17.8613 C   0  0  0  0  0  0  0  0  0  0  0  0
   18.6962  -18.7618  -14.9996 O   0  0  0  0  0  0  0  0  0  0  0  0
   17.7617  -17.9107  -15.5900 O   0  0  0  0  0  0  0  0  0  0  0  0
  2  1  1  0
  2  4  1  0
  3  2  2  0
  4  5  1  0
  5  6  1  0
  6  7  1  0
  7  8  1  0
  8 10  1  0
  8  9  1  6
 10 11  2  0
 12 13  1  0
 12 10  1  0
 13 17  1  0
 13 14  1  1
 15 19  1  0
 15 14  1  0
 16 15  2  0
 17 18  2  0
 17 20  1  0
 20 21  1  0
 21 24  1  0
 22 23  1  0
 21 22  1  1
 24 26  2  0
 24 25  1  0
M  END
$$$$
