RDC.pdb
     RDKit          3D

 26 25  0  0  1  0  0  0  0  0999 V2000
   14.7820  -15.2755  -13.8129 N   0  0  0  0  0  0  0  0  0  0  0  0
   14.5939  -16.2935  -14.7756 C   0  0  0  0  0  0  0  0  0  0  0  0
   13.5624  -17.0707  -14.7849 N   0  0  0  0  0  0  0  0  0  0  0  0
   15.6238  -16.4338  -15.7709 N   0  0  0  0  0  0  0  0  0  0  0  0
   16.7072  -15.4628  -15.7357 C   0  0  0  0  0  0  0  0  0  0  0  0
   16.3862  -14.3502  -16.7197 C   0  0  0  0  0  0  0  0  0  0  0  0
   17.4907  -13.3459  -16.7404 C   0  0  0  0  0  0  0  0  0  0  0  0
   18.0758  -13.0837  -18.0940 C   0  0  2  0  0  0  0  0  0  0  0  0
   18.7157  -14.2407  -18.6663 N   0  0  0  0  0  0  0  0  0  0  0  0
   19.0207  -11.9375  -17.9535 C   0  0  0  0  0  0  0  0  0  0  0  0
   20.2515  -12.1821  -17.9357 O   0  0  0  0  0  0  0  0  0  0  0  0
   13.5161  -17.8472  -15.4713 N   0  0  0  0  0  0  0  0  0  0  0  0
   18.6088  -10.5889  -17.8390 C   0  0  1  0  0  0  0  0  0  0  0  0
   19.4922   -9.4639  -17.8821 C   0  0  0  0  0  0  0  0  0  0  0  0
   18.8527   -8.2365  -18.4926 C   0  0  0  0  0  0  0  0  0  0  0  0
   19.8009   -7.1079  -18.6527 O   0  0  0  0  0  0  0  0  0  0  0  0
   20.9826   -7.2352  -19.0568 C   0  0  0  0  0  0  0  0  0  0  0  0
   19.9514   -9.0578  -16.5121 O   0  0  0  0  0  0  0  0  0  0  0  0
   19.1127   -8.9560  -15.5819 O   0  0  0  0  0  0  0  0  0  0  0  0
   19.3662   -5.8290  -18.3396 N   0  0  0  0  0  0  0  0  0  0  0  0
   21.2985   -8.7866  -16.2373 C   0  0  2  0  0  0  0  0  0  0  0  0
   21.8352   -8.4425  -14.9500 C   0  0  0  0  0  0  0  0  0  0  0  0
   23.2853   -8.7335  -14.7850 S   0  0  0  0  0  0  0  0  0  0  0  0
   23.4917  -10.5503  -14.9033 C   0  0  0  0  0  0  0  0  0  0  0  0
   21.6002   -6.9949  -14.7177 O   0  0  0  0  0  0  0  0  0  0  0  0
   21.9063   -6.3943  -13.4962 O   0  0  0  0  0  0  0  0  0  0  0  0
  2  1  1  0
  2  4  1  0
  3  2  2  0
  4  5  1  0
  5  6  1  0
  6  7  1  0
  7  8  1  0
  8 10  1  0
  8  9  1  1
 10 11  2  0
 12 13  1  0
 12 10  1  0
 13 17  1  0
 13 14  1  1
 15 19  1  0
 15 14  1  0
 16 15  2  0
 17 18  2  0
 17 20  1  0
 20 21  1  0
 21 24  1  0
 22 23  1  0
 21 22  1  6
 24 26  2  0
 24 25  1  0
M  END
$$$$
