RDC.pdb
     RDKit          3D

 26 25  0  0  1  0  0  0  0  0999 V2000
   27.5733  -11.5011  -15.1897 N   0  0  0  0  0  0  0  0  0  0  0  0
   27.4954  -11.7955  -16.5702 C   0  0  0  0  0  0  0  0  0  0  0  0
   28.5377  -11.9830  -17.3093 N   0  0  0  0  0  0  0  0  0  0  0  0
   26.1743  -11.8803  -17.1347 N   0  0  0  0  0  0  0  0  0  0  0  0
   25.0566  -11.7331  -16.2143 C   0  0  0  0  0  0  0  0  0  0  0  0
   23.7693  -11.9987  -16.9769 C   0  0  0  0  0  0  0  0  0  0  0  0
   22.5951  -11.8831  -16.0620 C   0  0  0  0  0  0  0  0  0  0  0  0
   21.2709  -12.1693  -16.7006 C   0  0  2  0  0  0  0  0  0  0  0  0
   21.3841  -12.5717  -18.0794 N   0  0  0  0  0  0  0  0  0  0  0  0
   20.4306  -10.9462  -16.5450 C   0  0  0  0  0  0  0  0  0  0  0  0
   20.5531  -10.0304  -17.3943 O   0  0  0  0  0  0  0  0  0  0  0  0
   28.4267  -12.0513  -18.3385 N   0  0  0  0  0  0  0  0  0  0  0  0
   19.5026  -10.7588  -15.4938 C   0  0  1  0  0  0  0  0  0  0  0  0
   18.6774   -9.6002  -15.3364 C   0  0  0  0  0  0  0  0  0  0  0  0
   17.4671   -9.8537  -14.4652 C   0  0  0  0  0  0  0  0  0  0  0  0
   16.5446  -10.8651  -15.0350 O   0  0  0  0  0  0  0  0  0  0  0  0
   16.3919  -11.0625  -16.2653 C   0  0  0  0  0  0  0  0  0  0  0  0
   19.4212   -8.4639  -14.6975 O   0  0  0  0  0  0  0  0  0  0  0  0
   20.1937   -8.6927  -13.7331 O   0  0  0  0  0  0  0  0  0  0  0  0
   15.7999  -11.6464  -14.1645 N   0  0  0  0  0  0  0  0  0  0  0  0
   19.2786   -7.1447  -15.1481 C   0  0  1  0  0  0  0  0  0  0  0  0
   20.0917   -6.0316  -14.7434 C   0  0  0  0  0  0  0  0  0  0  0  0
   21.5343   -6.1610  -15.0854 S   0  0  0  0  0  0  0  0  0  0  0  0
   22.3360   -7.0820  -13.7192 C   0  0  0  0  0  0  0  0  0  0  0  0
   19.5501   -4.8028  -15.3769 O   0  0  0  0  0  0  0  0  0  0  0  0
   19.9270   -3.5322  -14.9410 O   0  0  0  0  0  0  0  0  0  0  0  0
  2  1  1  0
  2  4  1  0
  3  2  2  0
  4  5  1  0
  5  6  1  0
  6  7  1  0
  7  8  1  0
  8 10  1  0
  8  9  1  6
 10 11  2  0
 12 13  1  0
 12 10  1  0
 13 17  1  0
 13 14  1  6
 15 19  1  0
 15 14  1  0
 16 15  2  0
 17 18  2  0
 17 20  1  0
 20 21  1  0
 21 24  1  0
 22 23  1  0
 21 22  1  1
 24 26  2  0
 24 25  1  0
M  END
$$$$
