RDC.pdb
     RDKit          3D

 26 25  0  0  1  0  0  0  0  0999 V2000
   11.9411  -15.3624  -10.3039 N   0  0  0  0  0  0  0  0  0  0  0  0
   10.8702  -14.7728   -9.5939 C   0  0  0  0  0  0  0  0  0  0  0  0
    9.6327  -15.0707   -9.8127 N   0  0  0  0  0  0  0  0  0  0  0  0
   11.2220  -13.8020   -8.5915 N   0  0  0  0  0  0  0  0  0  0  0  0
   11.5055  -12.4522   -9.0559 C   0  0  0  0  0  0  0  0  0  0  0  0
   12.9722  -12.3776   -9.4464 C   0  0  0  0  0  0  0  0  0  0  0  0
   13.2801  -11.0430  -10.0405 C   0  0  0  0  0  0  0  0  0  0  0  0
   12.8699   -9.8722   -9.2011 C   0  0  2  0  0  0  0  0  0  0  0  0
   11.4498   -9.6306   -9.2247 N   0  0  0  0  0  0  0  0  0  0  0  0
   13.6436   -8.6903   -9.6813 C   0  0  0  0  0  0  0  0  0  0  0  0
   13.3392   -8.1938  -10.7929 O   0  0  0  0  0  0  0  0  0  0  0  0
    8.8912  -14.6102   -9.2521 N   0  0  0  0  0  0  0  0  0  0  0  0
   14.7023   -8.0961   -8.9548 C   0  0  1  0  0  0  0  0  0  0  0  0
   15.4112   -6.9231   -9.3665 C   0  0  0  0  0  0  0  0  0  0  0  0
   15.7432   -6.0013   -8.2140 C   0  0  0  0  0  0  0  0  0  0  0  0
   16.2632   -4.6850   -8.6562 O   0  0  0  0  0  0  0  0  0  0  0  0
   16.5957   -3.7621   -7.8729 C   0  0  0  0  0  0  0  0  0  0  0  0
   16.7186   -7.2587  -10.0227 O   0  0  0  0  0  0  0  0  0  0  0  0
   17.6947   -7.6131   -9.3151 O   0  0  0  0  0  0  0  0  0  0  0  0
   16.3943   -4.4482  -10.0161 N   0  0  0  0  0  0  0  0  0  0  0  0
   16.8845   -7.1880  -11.4124 C   0  0  1  0  0  0  0  0  0  0  0  0
   18.0828   -7.5271  -12.1286 C   0  0  0  0  0  0  0  0  0  0  0  0
   17.9442   -8.6811  -13.0578 S   0  0  0  0  0  0  0  0  0  0  0  0
   17.4506  -10.1316  -12.0529 C   0  0  0  0  0  0  0  0  0  0  0  0
   18.5213   -6.3343  -12.8966 O   0  0  0  0  0  0  0  0  0  0  0  0
   17.7497   -5.1729  -12.9410 O   0  0  0  0  0  0  0  0  0  0  0  0
  2  1  1  0
  2  4  1  0
  3  2  2  0
  4  5  1  0
  5  6  1  0
  6  7  1  0
  7  8  1  0
  8 10  1  0
  8  9  1  6
 10 11  2  0
 12 13  1  0
 12 10  1  0
 13 17  1  0
 13 14  1  6
 15 19  1  0
 15 14  1  0
 16 15  2  0
 17 18  2  0
 17 20  1  0
 20 21  1  0
 21 24  1  0
 22 23  1  0
 21 22  1  6
 24 26  2  0
 24 25  1  0
M  END
$$$$
