RDC.pdb
     RDKit          3D

 26 25  0  0  1  0  0  0  0  0999 V2000
   24.5744  -24.8600  -15.6197 N   0  0  0  0  0  0  0  0  0  0  0  0
   25.4217  -24.3043  -16.6056 C   0  0  0  0  0  0  0  0  0  0  0  0
   26.7061  -24.4377  -16.5854 N   0  0  0  0  0  0  0  0  0  0  0  0
   24.7802  -23.5647  -17.6604 N   0  0  0  0  0  0  0  0  0  0  0  0
   23.6739  -22.7003  -17.2769 C   0  0  0  0  0  0  0  0  0  0  0  0
   22.4745  -23.5737  -16.9483 C   0  0  0  0  0  0  0  0  0  0  0  0
   21.3023  -22.7238  -16.5843 C   0  0  0  0  0  0  0  0  0  0  0  0
   21.5173  -21.2513  -16.7545 C   0  0  2  0  0  0  0  0  0  0  0  0
   22.7780  -20.7996  -16.2235 N   0  0  0  0  0  0  0  0  0  0  0  0
   20.3624  -20.5580  -16.1126 C   0  0  0  0  0  0  0  0  0  0  0  0
   20.4797  -20.1925  -14.9178 O   0  0  0  0  0  0  0  0  0  0  0  0
   27.2739  -24.0162  -17.3445 N   0  0  0  0  0  0  0  0  0  0  0  0
   19.1411  -20.2887  -16.7739 C   0  0  1  0  0  0  0  0  0  0  0  0
   18.0646  -19.5305  -16.2134 C   0  0  0  0  0  0  0  0  0  0  0  0
   17.7187  -18.3060  -17.0315 C   0  0  0  0  0  0  0  0  0  0  0  0
   16.6101  -17.5132  -16.4476 O   0  0  0  0  0  0  0  0  0  0  0  0
   16.4167  -17.3781  -15.2146 C   0  0  0  0  0  0  0  0  0  0  0  0
   16.8024  -20.3365  -16.1140 O   0  0  0  0  0  0  0  0  0  0  0  0
   16.3995  -20.9834  -17.1132 O   0  0  0  0  0  0  0  0  0  0  0  0
   15.7268  -16.8779  -17.3070 N   0  0  0  0  0  0  0  0  0  0  0  0
   16.0539  -20.3895  -14.9305 C   0  0  2  0  0  0  0  0  0  0  0  0
   14.8722  -21.1801  -14.7247 C   0  0  0  0  0  0  0  0  0  0  0  0
   14.7224  -21.7241  -13.3477 S   0  0  0  0  0  0  0  0  0  0  0  0
   16.1825  -22.7813  -13.0194 C   0  0  0  0  0  0  0  0  0  0  0  0
   13.6886  -20.3441  -15.0486 O   0  0  0  0  0  0  0  0  0  0  0  0
   12.4125  -20.8981  -15.1535 O   0  0  0  0  0  0  0  0  0  0  0  0
  2  1  1  0
  2  4  1  0
  3  2  2  0
  4  5  1  0
  5  6  1  0
  6  7  1  0
  7  8  1  0
  8 10  1  0
  8  9  1  1
 10 11  2  0
 12 13  1  0
 12 10  1  0
 13 17  1  0
 13 14  1  1
 15 19  1  0
 15 14  1  0
 16 15  2  0
 17 18  2  0
 17 20  1  0
 20 21  1  0
 21 24  1  0
 22 23  1  0
 21 22  1  1
 24 26  2  0
 24 25  1  0
M  END
$$$$
