RDC.pdb
     RDKit          3D

 26 25  0  0  1  0  0  0  0  0999 V2000
   24.1399  -23.0629  -15.7964 N   0  0  0  0  0  0  0  0  0  0  0  0
   25.2931  -23.8566  -15.5998 C   0  0  0  0  0  0  0  0  0  0  0  0
   25.2958  -25.1403  -15.7416 N   0  0  0  0  0  0  0  0  0  0  0  0
   26.4955  -23.1601  -15.2257 N   0  0  0  0  0  0  0  0  0  0  0  0
   26.3887  -21.7209  -15.0373 C   0  0  0  0  0  0  0  0  0  0  0  0
   27.2769  -21.0359  -16.0625 C   0  0  0  0  0  0  0  0  0  0  0  0
   26.5612  -20.9174  -17.3674 C   0  0  0  0  0  0  0  0  0  0  0  0
   26.1361  -19.5268  -17.7265 C   0  0  2  0  0  0  0  0  0  0  0  0
   27.2325  -18.5930  -17.7634 N   0  0  0  0  0  0  0  0  0  0  0  0
   25.0886  -19.1170  -16.7461 C   0  0  0  0  0  0  0  0  0  0  0  0
   25.3929  -18.2684  -15.8730 O   0  0  0  0  0  0  0  0  0  0  0  0
   26.1288  -25.6835  -15.4461 N   0  0  0  0  0  0  0  0  0  0  0  0
   23.7704  -19.6304  -16.7438 C   0  0  2  0  0  0  0  0  0  0  0  0
   22.7176  -19.1604  -15.8960 C   0  0  0  0  0  0  0  0  0  0  0  0
   21.4826  -18.7471  -16.6654 C   0  0  0  0  0  0  0  0  0  0  0  0
   20.4201  -18.1850  -15.7972 O   0  0  0  0  0  0  0  0  0  0  0  0
   20.5985  -17.8377  -14.6042 C   0  0  0  0  0  0  0  0  0  0  0  0
   22.2705  -20.2105  -14.9213 O   0  0  0  0  0  0  0  0  0  0  0  0
   21.9865  -21.3618  -15.3372 O   0  0  0  0  0  0  0  0  0  0  0  0
   19.1475  -18.0292  -16.3254 N   0  0  0  0  0  0  0  0  0  0  0  0
   22.1593  -19.9430  -13.5503 C   0  0  2  0  0  0  0  0  0  0  0  0
   21.7420  -20.8830  -12.5473 C   0  0  0  0  0  0  0  0  0  0  0  0
   22.2319  -20.5831  -11.1744 S   0  0  0  0  0  0  0  0  0  0  0  0
   24.0608  -20.6866  -11.2155 C   0  0  0  0  0  0  0  0  0  0  0  0
   20.2578  -20.9254  -12.5355 O   0  0  0  0  0  0  0  0  0  0  0  0
   19.5608  -21.7905  -11.6918 O   0  0  0  0  0  0  0  0  0  0  0  0
  2  1  1  0
  2  4  1  0
  3  2  2  0
  4  5  1  0
  5  6  1  0
  6  7  1  0
  7  8  1  0
  8 10  1  0
  8  9  1  1
 10 11  2  0
 12 13  1  0
 12 10  1  0
 13 17  1  0
 13 14  1  6
 15 19  1  0
 15 14  1  0
 16 15  2  0
 17 18  2  0
 17 20  1  0
 20 21  1  0
 21 24  1  0
 22 23  1  0
 21 22  1  6
 24 26  2  0
 24 25  1  0
M  END
$$$$
