RDC.pdb
     RDKit          3D

 26 25  0  0  1  0  0  0  0  0999 V2000
   16.7909  -24.3935  -11.0495 N   0  0  0  0  0  0  0  0  0  0  0  0
   18.0570  -24.5842  -10.4501 C   0  0  0  0  0  0  0  0  0  0  0  0
   18.2762  -25.4700   -9.5362 N   0  0  0  0  0  0  0  0  0  0  0  0
   19.1200  -23.7302  -10.9102 N   0  0  0  0  0  0  0  0  0  0  0  0
   18.9634  -23.1413  -12.2319 C   0  0  0  0  0  0  0  0  0  0  0  0
   20.2992  -23.2179  -12.9523 C   0  0  0  0  0  0  0  0  0  0  0  0
   20.5730  -21.9366  -13.6679 C   0  0  0  0  0  0  0  0  0  0  0  0
   21.4565  -20.9802  -12.9275 C   0  0  2  0  0  0  0  0  0  0  0  0
   20.8197  -20.4029  -11.7712 N   0  0  0  0  0  0  0  0  0  0  0  0
   21.8940  -19.9373  -13.9008 C   0  0  0  0  0  0  0  0  0  0  0  0
   21.1556  -18.9368  -14.0700 O   0  0  0  0  0  0  0  0  0  0  0  0
   19.2488  -25.6478   -9.2222 N   0  0  0  0  0  0  0  0  0  0  0  0
   23.0948  -20.0113  -14.6451 C   0  0  2  0  0  0  0  0  0  0  0  0
   23.4812  -19.0767  -15.6576 C   0  0  0  0  0  0  0  0  0  0  0  0
   24.9455  -19.1772  -16.0233 C   0  0  0  0  0  0  0  0  0  0  0  0
   25.3678  -18.1541  -17.0101 O   0  0  0  0  0  0  0  0  0  0  0  0
   24.5829  -17.3451  -17.5627 C   0  0  0  0  0  0  0  0  0  0  0  0
   22.7172  -19.2830  -16.9329 O   0  0  0  0  0  0  0  0  0  0  0  0
   22.7675  -20.3968  -17.5127 O   0  0  0  0  0  0  0  0  0  0  0  0
   26.7097  -18.0775  -17.3507 N   0  0  0  0  0  0  0  0  0  0  0  0
   21.9432  -18.2622  -17.5009 C   0  0  1  0  0  0  0  0  0  0  0  0
   21.1826  -18.3682  -18.7150 C   0  0  0  0  0  0  0  0  0  0  0  0
   19.8159  -17.7836  -18.6434 S   0  0  0  0  0  0  0  0  0  0  0  0
   18.9261  -18.6461  -17.2937 C   0  0  0  0  0  0  0  0  0  0  0  0
   21.9414  -17.6990  -19.8017 O   0  0  0  0  0  0  0  0  0  0  0  0
   22.0670  -18.2772  -21.0651 O   0  0  0  0  0  0  0  0  0  0  0  0
  2  1  1  0
  2  4  1  0
  3  2  2  0
  4  5  1  0
  5  6  1  0
  6  7  1  0
  7  8  1  0
  8 10  1  0
  8  9  1  1
 10 11  2  0
 12 13  1  0
 12 10  1  0
 13 17  1  0
 13 14  1  6
 15 19  1  0
 15 14  1  0
 16 15  2  0
 17 18  2  0
 17 20  1  0
 20 21  1  0
 21 24  1  0
 22 23  1  0
 21 22  1  6
 24 26  2  0
 24 25  1  0
M  END
$$$$
