RDC.pdb
     RDKit          3D

 26 25  0  0  1  0  0  0  0  0999 V2000
   24.7509  -21.7740  -11.7882 N   0  0  0  0  0  0  0  0  0  0  0  0
   25.2610  -22.5021  -12.8874 C   0  0  0  0  0  0  0  0  0  0  0  0
   24.9417  -23.7304  -13.1266 N   0  0  0  0  0  0  0  0  0  0  0  0
   26.1743  -21.8027  -13.7522 N   0  0  0  0  0  0  0  0  0  0  0  0
   26.4032  -20.3946  -13.4639 C   0  0  0  0  0  0  0  0  0  0  0  0
   27.3849  -19.8490  -14.4875 C   0  0  0  0  0  0  0  0  0  0  0  0
   26.9165  -20.1638  -15.8697 C   0  0  0  0  0  0  0  0  0  0  0  0
   26.4419  -18.9810  -16.6565 C   0  0  2  0  0  0  0  0  0  0  0  0
   27.1958  -17.7835  -16.3859 N   0  0  0  0  0  0  0  0  0  0  0  0
   24.9906  -18.8043  -16.3583 C   0  0  0  0  0  0  0  0  0  0  0  0
   24.6400  -17.8011  -15.6908 O   0  0  0  0  0  0  0  0  0  0  0  0
   25.4078  -24.2358  -13.9035 N   0  0  0  0  0  0  0  0  0  0  0  0
   23.9854  -19.7037  -16.7852 C   0  0  2  0  0  0  0  0  0  0  0  0
   22.5799  -19.4835  -16.6298 C   0  0  0  0  0  0  0  0  0  0  0  0
   21.7406  -20.4360  -17.4522 C   0  0  0  0  0  0  0  0  0  0  0  0
   20.3064  -20.0614  -17.4881 O   0  0  0  0  0  0  0  0  0  0  0  0
   19.8376  -19.0250  -16.9569 C   0  0  0  0  0  0  0  0  0  0  0  0
   22.1381  -19.6601  -15.2063 O   0  0  0  0  0  0  0  0  0  0  0  0
   22.9647  -20.0514  -14.3445 O   0  0  0  0  0  0  0  0  0  0  0  0
   19.4196  -20.9001  -18.1459 N   0  0  0  0  0  0  0  0  0  0  0  0
   20.8205  -19.3996  -14.8066 C   0  0  2  0  0  0  0  0  0  0  0  0
   20.3420  -19.4064  -13.4521 C   0  0  0  0  0  0  0  0  0  0  0  0
   21.0487  -18.4662  -12.5403 S   0  0  0  0  0  0  0  0  0  0  0  0
   20.2506  -18.6006  -10.8964 C   0  0  0  0  0  0  0  0  0  0  0  0
   18.8948  -19.0746  -13.4662 O   0  0  0  0  0  0  0  0  0  0  0  0
   18.0633  -19.3972  -12.3934 O   0  0  0  0  0  0  0  0  0  0  0  0
  2  1  1  0
  2  4  1  0
  3  2  2  0
  4  5  1  0
  5  6  1  0
  6  7  1  0
  7  8  1  0
  8 10  1  0
  8  9  1  1
 10 11  2  0
 12 13  1  0
 12 10  1  0
 13 17  1  0
 13 14  1  6
 15 19  1  0
 15 14  1  0
 16 15  2  0
 17 18  2  0
 17 20  1  0
 20 21  1  0
 21 24  1  0
 22 23  1  0
 21 22  1  6
 24 26  2  0
 24 25  1  0
M  END
$$$$
