RDC.pdb
     RDKit          3D

 26 25  0  0  1  0  0  0  0  0999 V2000
   15.2044  -12.1829  -18.4743 N   0  0  0  0  0  0  0  0  0  0  0  0
   15.0638  -13.2852  -17.6004 C   0  0  0  0  0  0  0  0  0  0  0  0
   14.0811  -14.1199  -17.6737 N   0  0  0  0  0  0  0  0  0  0  0  0
   16.0854  -13.4450  -16.5994 N   0  0  0  0  0  0  0  0  0  0  0  0
   16.9713  -12.3116  -16.3790 C   0  0  0  0  0  0  0  0  0  0  0  0
   18.3742  -12.7091  -16.8070 C   0  0  0  0  0  0  0  0  0  0  0  0
   19.3153  -11.5665  -16.6134 C   0  0  0  0  0  0  0  0  0  0  0  0
   20.7012  -11.7997  -17.1314 C   0  0  2  0  0  0  0  0  0  0  0  0
   21.2677  -13.0474  -16.6865 N   0  0  0  0  0  0  0  0  0  0  0  0
   21.5317  -10.6318  -16.7158 C   0  0  0  0  0  0  0  0  0  0  0  0
   21.7887  -10.4909  -15.4955 O   0  0  0  0  0  0  0  0  0  0  0  0
   14.0482  -14.9264  -17.0220 N   0  0  0  0  0  0  0  0  0  0  0  0
   22.0469   -9.6726  -17.6191 C   0  0  1  0  0  0  0  0  0  0  0  0
   22.8922   -8.5794  -17.2475 C   0  0  0  0  0  0  0  0  0  0  0  0
   23.7290   -8.0650  -18.3979 C   0  0  0  0  0  0  0  0  0  0  0  0
   24.7159   -7.0390  -17.9831 O   0  0  0  0  0  0  0  0  0  0  0  0
   24.8453   -6.6245  -16.8053 C   0  0  0  0  0  0  0  0  0  0  0  0
   22.1034   -7.4047  -16.7469 O   0  0  0  0  0  0  0  0  0  0  0  0
   21.0933   -7.0181  -17.3868 O   0  0  0  0  0  0  0  0  0  0  0  0
   25.5523   -6.4975  -18.9474 N   0  0  0  0  0  0  0  0  0  0  0  0
   22.4627   -6.7208  -15.5778 C   0  0  2  0  0  0  0  0  0  0  0  0
   21.7420   -5.6212  -14.9988 C   0  0  0  0  0  0  0  0  0  0  0  0
   20.8110   -5.9995  -13.9012 S   0  0  0  0  0  0  0  0  0  0  0  0
   20.0184   -4.4585  -13.3057 C   0  0  0  0  0  0  0  0  0  0  0  0
   22.7269   -4.6368  -14.4834 O   0  0  0  0  0  0  0  0  0  0  0  0
   22.3298   -3.3784  -14.0304 O   0  0  0  0  0  0  0  0  0  0  0  0
  2  1  1  0
  2  4  1  0
  3  2  2  0
  4  5  1  0
  5  6  1  0
  6  7  1  0
  7  8  1  0
  8 10  1  0
  8  9  1  1
 10 11  2  0
 12 13  1  0
 12 10  1  0
 13 17  1  0
 13 14  1  6
 15 19  1  0
 15 14  1  0
 16 15  2  0
 17 18  2  0
 17 20  1  0
 20 21  1  0
 21 24  1  0
 22 23  1  0
 21 22  1  1
 24 26  2  0
 24 25  1  0
M  END
$$$$
