RDC.pdb
     RDKit          3D

 26 25  0  0  1  0  0  0  0  0999 V2000
   29.6150  -22.9527  -10.7478 N   0  0  0  0  0  0  0  0  0  0  0  0
   30.8463  -22.2589  -10.7826 C   0  0  0  0  0  0  0  0  0  0  0  0
   31.9911  -22.8556  -10.7440 N   0  0  0  0  0  0  0  0  0  0  0  0
   30.7725  -20.8241  -10.8649 N   0  0  0  0  0  0  0  0  0  0  0  0
   29.6859  -20.2672  -11.6569 C   0  0  0  0  0  0  0  0  0  0  0  0
   28.3772  -20.5400  -10.9344 C   0  0  0  0  0  0  0  0  0  0  0  0
   27.2289  -20.0183  -11.7334 C   0  0  0  0  0  0  0  0  0  0  0  0
   26.5560  -21.0349  -12.6035 C   0  0  2  0  0  0  0  0  0  0  0  0
   27.3277  -21.3789  -13.7704 N   0  0  0  0  0  0  0  0  0  0  0  0
   25.2143  -20.4905  -12.9641 C   0  0  0  0  0  0  0  0  0  0  0  0
   24.4196  -20.2077  -12.0349 O   0  0  0  0  0  0  0  0  0  0  0  0
   32.8585  -22.2899  -10.6836 N   0  0  0  0  0  0  0  0  0  0  0  0
   24.7857  -20.2745  -14.2949 C   0  0  1  0  0  0  0  0  0  0  0  0
   23.5065  -19.7469  -14.6602 C   0  0  0  0  0  0  0  0  0  0  0  0
   23.5447  -18.9462  -15.9430 C   0  0  0  0  0  0  0  0  0  0  0  0
   22.8005  -17.6671  -15.8500 O   0  0  0  0  0  0  0  0  0  0  0  0
   21.9669  -17.4034  -14.9492 C   0  0  0  0  0  0  0  0  0  0  0  0
   22.4923  -20.8321  -14.8753 O   0  0  0  0  0  0  0  0  0  0  0  0
   22.7497  -21.7734  -15.6670 O   0  0  0  0  0  0  0  0  0  0  0  0
   23.0318  -16.6956  -16.8119 N   0  0  0  0  0  0  0  0  0  0  0  0
   21.2568  -20.8269  -14.2140 C   0  0  1  0  0  0  0  0  0  0  0  0
   20.2052  -21.7875  -14.4016 C   0  0  0  0  0  0  0  0  0  0  0  0
   19.8829  -22.5972  -13.1954 S   0  0  0  0  0  0  0  0  0  0  0  0
   21.0163  -24.0369  -13.1886 C   0  0  0  0  0  0  0  0  0  0  0  0
   18.9854  -21.0647  -14.8423 O   0  0  0  0  0  0  0  0  0  0  0  0
   17.7970  -21.7419  -15.1168 O   0  0  0  0  0  0  0  0  0  0  0  0
  2  1  1  0
  2  4  1  0
  3  2  2  0
  4  5  1  0
  5  6  1  0
  6  7  1  0
  7  8  1  0
  8 10  1  0
  8  9  1  6
 10 11  2  0
 12 13  1  0
 12 10  1  0
 13 17  1  0
 13 14  1  1
 15 19  1  0
 15 14  1  0
 16 15  2  0
 17 18  2  0
 17 20  1  0
 20 21  1  0
 21 24  1  0
 22 23  1  0
 21 22  1  6
 24 26  2  0
 24 25  1  0
M  END
$$$$
