IYS.pdb
     RDKit          3D

 27 27  0  0  1  0  0  0  0  0999 V2000
   33.5478  -28.6980  -19.0633 C   0  0  0  0  0  0  0  0  0  0  0  0
   33.4627  -29.6125  -17.8763 C   0  0  0  0  0  0  0  0  0  0  0  0
   32.3278  -30.6013  -17.9821 C   0  0  2  0  0  0  0  0  0  0  0  0
   30.9953  -29.9434  -18.1262 C   0  0  0  0  0  0  0  0  0  0  0  0
   32.3826  -31.5839  -16.8547 C   0  0  2  0  0  0  0  0  0  0  0  0
   33.6808  -32.1915  -16.8041 N   0  0  0  0  0  0  0  0  0  0  0  0
   31.2889  -32.5824  -16.9556 C   0  0  0  0  0  0  0  0  0  0  0  0
   31.2318  -33.3712  -17.9329 O   0  0  0  0  0  0  0  0  0  0  0  0
   33.3312  -38.4233  -17.1605 O   0  0  0  0  0  0  0  0  0  0  0  0
   32.3299  -37.5886  -16.7066 C   0  0  0  0  0  0  0  0  0  0  0  0
   32.6873  -36.5689  -15.8336 C   0  0  0  0  0  0  0  0  0  0  0  0
   31.7271  -35.7079  -15.3507 C   0  0  0  0  0  0  0  0  0  0  0  0
   30.4051  -35.8046  -15.6930 C   0  0  0  0  0  0  0  0  0  0  0  0
   29.4304  -34.8368  -15.1290 C   0  0  0  0  0  0  0  0  0  0  0  0
   29.1878  -33.6789  -16.0796 C   0  0  2  0  0  0  0  0  0  0  0  0
   30.2707  -32.6965  -15.9739 N   0  0  0  0  0  0  0  0  0  0  0  0
   27.9353  -32.9749  -15.7016 C   0  0  0  0  0  0  0  0  0  0  0  0
   27.8770  -32.1641  -14.7170 O   0  0  0  0  0  0  0  0  0  0  0  0
   30.0487  -36.8196  -16.5621 C   0  0  0  0  0  0  0  0  0  0  0  0
   31.0081  -37.6976  -17.0585 C   0  0  0  0  0  0  0  0  0  0  0  0
   25.3211  -31.4018  -18.2465 O   0  0  0  0  0  0  0  0  0  0  0  0
   24.6827  -32.2470  -17.3325 C   0  0  0  0  0  0  0  0  0  0  0  0
   25.5451  -32.4151  -16.0979 C   0  0  2  0  0  0  0  0  0  0  0  0
   26.7293  -33.1741  -16.4275 N   0  0  0  0  0  0  0  0  0  0  0  0
   24.7785  -33.1216  -15.0366 C   0  0  0  0  0  0  0  0  0  0  0  0
   23.7164  -32.4838  -14.4161 O   0  0  0  0  0  0  0  0  0  0  0  0
   25.1167  -34.2847  -14.7295 O   0  0  0  0  0  0  0  0  0  0  0  0
  1  2  1  0
  3  4  1  1
  3  2  1  0
  5  6  1  6
  5  3  1  0
  7  5  1  0
  8  7  2  0
  9 10  1  0
 10 11  2  0
 10 20  1  0
 11 12  1  0
 12 13  2  0
 13 14  1  0
 15 14  1  1
 15 16  1  0
 16  7  1  0
 17 18  2  0
 17 15  1  0
 19 13  1  0
 20 19  2  0
 21 22  1  0
 23 22  1  6
 23 24  1  0
 24 17  1  0
 25 23  1  0
 26 25  1  0
 27 25  2  0
M  END
$$$$
