IYS.pdb
     RDKit          3D

 27 27  0  0  1  0  0  0  0  0999 V2000
   22.6553  -12.3205  -14.7488 C   0  0  0  0  0  0  0  0  0  0  0  0
   22.7963  -11.3306  -15.8679 C   0  0  0  0  0  0  0  0  0  0  0  0
   23.1062   -9.9372  -15.3785 C   0  0  2  0  0  0  0  0  0  0  0  0
   22.1487   -9.4608  -14.3367 C   0  0  0  0  0  0  0  0  0  0  0  0
   23.2404   -8.9944  -16.5328 C   0  0  2  0  0  0  0  0  0  0  0  0
   24.0954   -9.5689  -17.5308 N   0  0  0  0  0  0  0  0  0  0  0  0
   23.7036   -7.6568  -16.0860 C   0  0  0  0  0  0  0  0  0  0  0  0
   24.8066   -7.5263  -15.4969 O   0  0  0  0  0  0  0  0  0  0  0  0
   29.0317   -5.8027  -18.7881 O   0  0  0  0  0  0  0  0  0  0  0  0
   27.7426   -5.5008  -18.3978 C   0  0  0  0  0  0  0  0  0  0  0  0
   27.5620   -4.4061  -17.5620 C   0  0  0  0  0  0  0  0  0  0  0  0
   26.2964   -4.0613  -17.1428 C   0  0  0  0  0  0  0  0  0  0  0  0
   25.1773   -4.7567  -17.5145 C   0  0  0  0  0  0  0  0  0  0  0  0
   23.8468   -4.3210  -17.0195 C   0  0  0  0  0  0  0  0  0  0  0  0
   23.3935   -5.1614  -15.8398 C   0  0  2  0  0  0  0  0  0  0  0  0
   22.9408   -6.4789  -16.2960 N   0  0  0  0  0  0  0  0  0  0  0  0
   22.2286   -4.5144  -15.1827 C   0  0  0  0  0  0  0  0  0  0  0  0
   22.3268   -3.4095  -14.5503 O   0  0  0  0  0  0  0  0  0  0  0  0
   25.3563   -5.8467  -18.3466 C   0  0  0  0  0  0  0  0  0  0  0  0
   26.6296   -6.2074  -18.7785 C   0  0  0  0  0  0  0  0  0  0  0  0
   18.1796   -3.2757  -15.8790 O   0  0  0  0  0  0  0  0  0  0  0  0
   19.4693   -3.1782  -15.3456 C   0  0  0  0  0  0  0  0  0  0  0  0
   19.8132   -4.4491  -14.5954 C   0  0  2  0  0  0  0  0  0  0  0  0
   20.9353   -5.1029  -15.2282 N   0  0  0  0  0  0  0  0  0  0  0  0
   18.6413   -5.3654  -14.5867 C   0  0  0  0  0  0  0  0  0  0  0  0
   18.7411   -6.6141  -15.1790 O   0  0  0  0  0  0  0  0  0  0  0  0
   17.5861   -4.9803  -14.0394 O   0  0  0  0  0  0  0  0  0  0  0  0
  1  2  1  0
  3  4  1  1
  3  2  1  0
  5  6  1  6
  5  3  1  0
  7  5  1  0
  8  7  2  0
  9 10  1  0
 10 11  2  0
 10 20  1  0
 11 12  1  0
 12 13  2  0
 13 14  1  0
 15 14  1  6
 15 16  1  0
 16  7  1  0
 17 18  2  0
 17 15  1  0
 19 13  1  0
 20 19  2  0
 21 22  1  0
 23 22  1  6
 23 24  1  0
 24 17  1  0
 25 23  1  0
 26 25  1  0
 27 25  2  0
M  END
$$$$
