IYS.pdb
     RDKit          3D

 27 27  0  0  1  0  0  0  0  0999 V2000
   29.2611  -17.8611  -17.0466 C   0  0  0  0  0  0  0  0  0  0  0  0
   28.1831  -18.8913  -16.8765 C   0  0  0  0  0  0  0  0  0  0  0  0
   27.4936  -18.7985  -15.5375 C   0  0  2  0  0  0  0  0  0  0  0  0
   28.4432  -18.8787  -14.3881 C   0  0  0  0  0  0  0  0  0  0  0  0
   26.3782  -19.7925  -15.4527 C   0  0  2  0  0  0  0  0  0  0  0  0
   25.5163  -19.6520  -16.5904 N   0  0  0  0  0  0  0  0  0  0  0  0
   25.6480  -19.6757  -14.1657 C   0  0  0  0  0  0  0  0  0  0  0  0
   25.0117  -18.6284  -13.8848 O   0  0  0  0  0  0  0  0  0  0  0  0
   19.5054  -19.4499  -15.1846 O   0  0  0  0  0  0  0  0  0  0  0  0
   20.5434  -20.0030  -14.4621 C   0  0  0  0  0  0  0  0  0  0  0  0
   20.7042  -19.5900  -13.1457 C   0  0  0  0  0  0  0  0  0  0  0  0
   21.7240  -20.1105  -12.3805 C   0  0  0  0  0  0  0  0  0  0  0  0
   22.6112  -21.0369  -12.8589 C   0  0  0  0  0  0  0  0  0  0  0  0
   23.6843  -21.5499  -11.9700 C   0  0  0  0  0  0  0  0  0  0  0  0
   24.8794  -20.6148  -11.9496 C   0  0  2  0  0  0  0  0  0  0  0  0
   25.6303  -20.7191  -13.2042 N   0  0  0  0  0  0  0  0  0  0  0  0
   25.8092  -21.0146  -10.8619 C   0  0  0  0  0  0  0  0  0  0  0  0
   26.2727  -22.1999  -10.7596 O   0  0  0  0  0  0  0  0  0  0  0  0
   22.4516  -21.4485  -14.1695 C   0  0  0  0  0  0  0  0  0  0  0  0
   21.4255  -20.9313  -14.9552 C   0  0  0  0  0  0  0  0  0  0  0  0
   28.5738  -19.3492   -7.9987 O   0  0  0  0  0  0  0  0  0  0  0  0
   27.1963  -19.3987   -7.7598 C   0  0  0  0  0  0  0  0  0  0  0  0
   26.5783  -20.5374   -8.5458 C   0  0  2  0  0  0  0  0  0  0  0  0
   26.2309  -20.0844   -9.8729 N   0  0  0  0  0  0  0  0  0  0  0  0
   25.3584  -21.0295   -7.8509 C   0  0  0  0  0  0  0  0  0  0  0  0
   24.1383  -21.0089   -8.5072 O   0  0  0  0  0  0  0  0  0  0  0  0
   25.4678  -21.4531   -6.6804 O   0  0  0  0  0  0  0  0  0  0  0  0
  1  2  1  0
  3  4  1  1
  3  2  1  0
  5  6  1  6
  5  3  1  0
  7  5  1  0
  8  7  2  0
  9 10  1  0
 10 11  2  0
 10 20  1  0
 11 12  1  0
 12 13  2  0
 13 14  1  0
 15 14  1  6
 15 16  1  0
 16  7  1  0
 17 18  2  0
 17 15  1  0
 19 13  1  0
 20 19  2  0
 21 22  1  0
 23 22  1  1
 23 24  1  0
 24 17  1  0
 25 23  1  0
 26 25  1  0
 27 25  2  0
M  END
$$$$
