IYS.pdb
     RDKit          3D

 27 27  0  0  1  0  0  0  0  0999 V2000
   25.7902  -20.4032  -18.2941 C   0  0  0  0  0  0  0  0  0  0  0  0
   26.0850  -20.5074  -16.8263 C   0  0  0  0  0  0  0  0  0  0  0  0
   24.8610  -20.8367  -16.0075 C   0  0  2  0  0  0  0  0  0  0  0  0
   23.6911  -19.9694  -16.3364 C   0  0  0  0  0  0  0  0  0  0  0  0
   25.1947  -20.8502  -14.5488 C   0  0  2  0  0  0  0  0  0  0  0  0
   26.3384  -21.6852  -14.3210 N   0  0  0  0  0  0  0  0  0  0  0  0
   24.0230  -21.2518  -13.7309 C   0  0  0  0  0  0  0  0  0  0  0  0
   23.7319  -22.4661  -13.5842 O   0  0  0  0  0  0  0  0  0  0  0  0
   25.9876  -21.0125   -7.1074 O   0  0  0  0  0  0  0  0  0  0  0  0
   25.0731  -20.6465   -8.0744 C   0  0  0  0  0  0  0  0  0  0  0  0
   23.9120  -21.4014   -8.1819 C   0  0  0  0  0  0  0  0  0  0  0  0
   22.9666  -21.0791   -9.1300 C   0  0  0  0  0  0  0  0  0  0  0  0
   23.1125  -20.0281   -9.9949 C   0  0  0  0  0  0  0  0  0  0  0  0
   22.0469  -19.7454  -10.9897 C   0  0  0  0  0  0  0  0  0  0  0  0
   22.1181  -20.7044  -12.1638 C   0  0  2  0  0  0  0  0  0  0  0  0
   23.1866  -20.3051  -13.0845 N   0  0  0  0  0  0  0  0  0  0  0  0
   20.8488  -20.6480  -12.9338 C   0  0  0  0  0  0  0  0  0  0  0  0
   20.4822  -19.6051  -13.5727 O   0  0  0  0  0  0  0  0  0  0  0  0
   24.2683  -19.2761   -9.8884 C   0  0  0  0  0  0  0  0  0  0  0  0
   25.2328  -19.5897   -8.9350 C   0  0  0  0  0  0  0  0  0  0  0  0
   18.8185  -24.1061  -13.8445 O   0  0  0  0  0  0  0  0  0  0  0  0
   18.6985  -22.9770  -14.6618 C   0  0  0  0  0  0  0  0  0  0  0  0
   18.7875  -21.7204  -13.8196 C   0  0  2  0  0  0  0  0  0  0  0  0
   19.9731  -21.7663  -12.9954 N   0  0  0  0  0  0  0  0  0  0  0  0
   17.5826  -21.6035  -12.9549 C   0  0  0  0  0  0  0  0  0  0  0  0
   16.3227  -21.5825  -13.5313 O   0  0  0  0  0  0  0  0  0  0  0  0
   17.7405  -21.5264  -11.7178 O   0  0  0  0  0  0  0  0  0  0  0  0
  1  2  1  0
  3  4  1  1
  3  2  1  0
  5  6  1  6
  5  3  1  0
  7  5  1  0
  8  7  2  0
  9 10  1  0
 10 11  2  0
 10 20  1  0
 11 12  1  0
 12 13  2  0
 13 14  1  0
 15 14  1  1
 15 16  1  0
 16  7  1  0
 17 18  2  0
 17 15  1  0
 19 13  1  0
 20 19  2  0
 21 22  1  0
 23 22  1  1
 23 24  1  0
 24 17  1  0
 25 23  1  0
 26 25  1  0
 27 25  2  0
M  END
$$$$
