IYS.pdb
     RDKit          3D

 27 27  0  0  1  0  0  0  0  0999 V2000
   24.3073  -11.8427  -15.0470 C   0  0  0  0  0  0  0  0  0  0  0  0
   23.2770  -11.9442  -16.1335 C   0  0  0  0  0  0  0  0  0  0  0  0
   21.8672  -11.9941  -15.5976 C   0  0  2  0  0  0  0  0  0  0  0  0
   21.5895  -13.2299  -14.8070 C   0  0  0  0  0  0  0  0  0  0  0  0
   20.8801  -11.7626  -16.6982 C   0  0  2  0  0  0  0  0  0  0  0  0
   21.0594  -12.7476  -17.7252 N   0  0  0  0  0  0  0  0  0  0  0  0
   20.9664  -10.3747  -17.2173 C   0  0  0  0  0  0  0  0  0  0  0  0
   21.8811  -10.0464  -18.0149 O   0  0  0  0  0  0  0  0  0  0  0  0
   18.8445  -10.1447  -23.2260 O   0  0  0  0  0  0  0  0  0  0  0  0
   18.8167   -9.5937  -21.9607 C   0  0  0  0  0  0  0  0  0  0  0  0
   19.4122   -8.3510  -21.7857 C   0  0  0  0  0  0  0  0  0  0  0  0
   19.4124   -7.7565  -20.5436 C   0  0  0  0  0  0  0  0  0  0  0  0
   18.8429   -8.3385  -19.4431 C   0  0  0  0  0  0  0  0  0  0  0  0
   18.8849   -7.6324  -18.1374 C   0  0  0  0  0  0  0  0  0  0  0  0
   20.1335   -7.9932  -17.3537 C   0  0  2  0  0  0  0  0  0  0  0  0
   20.0394   -9.3658  -16.8479 N   0  0  0  0  0  0  0  0  0  0  0  0
   20.2519   -7.1084  -16.1660 C   0  0  0  0  0  0  0  0  0  0  0  0
   19.7083   -7.3910  -15.0458 O   0  0  0  0  0  0  0  0  0  0  0  0
   18.2498   -9.5757  -19.6166 C   0  0  0  0  0  0  0  0  0  0  0  0
   18.2417  -10.1891  -20.8662 C   0  0  0  0  0  0  0  0  0  0  0  0
   22.5419   -5.2150  -12.9990 O   0  0  0  0  0  0  0  0  0  0  0  0
   22.1271   -5.9877  -14.0890 C   0  0  0  0  0  0  0  0  0  0  0  0
   21.2661   -5.1518  -15.0144 C   0  0  2  0  0  0  0  0  0  0  0  0
   20.9850   -5.8917  -16.2229 N   0  0  0  0  0  0  0  0  0  0  0  0
   21.9698   -3.8863  -15.3559 C   0  0  0  0  0  0  0  0  0  0  0  0
   21.8477   -2.7859  -14.5228 O   0  0  0  0  0  0  0  0  0  0  0  0
   22.6601   -3.8490  -16.3968 O   0  0  0  0  0  0  0  0  0  0  0  0
  1  2  1  0
  3  4  1  6
  3  2  1  0
  5  6  1  6
  5  3  1  0
  7  5  1  0
  8  7  2  0
  9 10  1  0
 10 11  2  0
 10 20  1  0
 11 12  1  0
 12 13  2  0
 13 14  1  0
 15 14  1  1
 15 16  1  0
 16  7  1  0
 17 18  2  0
 17 15  1  0
 19 13  1  0
 20 19  2  0
 21 22  1  0
 23 22  1  1
 23 24  1  0
 24 17  1  0
 25 23  1  0
 26 25  1  0
 27 25  2  0
M  END
$$$$
