IYS.pdb
     RDKit          3D

 27 27  0  0  1  0  0  0  0  0999 V2000
   27.8835  -20.1277   -7.0047 C   0  0  0  0  0  0  0  0  0  0  0  0
   27.9081  -20.8614   -8.3136 C   0  0  0  0  0  0  0  0  0  0  0  0
   26.7888  -20.4458   -9.2364 C   0  0  2  0  0  0  0  0  0  0  0  0
   25.4394  -20.5870   -8.6133 C   0  0  0  0  0  0  0  0  0  0  0  0
   26.9078  -21.1470  -10.5530 C   0  0  2  0  0  0  0  0  0  0  0  0
   28.2769  -21.1460  -10.9806 N   0  0  0  0  0  0  0  0  0  0  0  0
   25.9942  -20.5569  -11.5631 C   0  0  0  0  0  0  0  0  0  0  0  0
   26.1708  -19.3826  -11.9761 O   0  0  0  0  0  0  0  0  0  0  0  0
   28.8033  -19.8818  -17.2280 O   0  0  0  0  0  0  0  0  0  0  0  0
   27.6276  -20.1958  -16.5765 C   0  0  0  0  0  0  0  0  0  0  0  0
   27.6250  -21.3168  -15.7562 C   0  0  0  0  0  0  0  0  0  0  0  0
   26.4782  -21.6746  -15.0830 C   0  0  0  0  0  0  0  0  0  0  0  0
   25.3101  -20.9674  -15.1807 C   0  0  0  0  0  0  0  0  0  0  0  0
   24.1157  -21.4186  -14.4224 C   0  0  0  0  0  0  0  0  0  0  0  0
   23.9920  -20.6862  -13.0989 C   0  0  2  0  0  0  0  0  0  0  0  0
   24.8953  -21.2731  -12.1047 N   0  0  0  0  0  0  0  0  0  0  0  0
   22.6135  -20.8427  -12.5673 C   0  0  0  0  0  0  0  0  0  0  0  0
   22.2555  -21.8601  -11.8839 O   0  0  0  0  0  0  0  0  0  0  0  0
   25.3120  -19.8512  -15.9973 C   0  0  0  0  0  0  0  0  0  0  0  0
   26.4636  -19.4772  -16.6840 C   0  0  0  0  0  0  0  0  0  0  0  0
   19.7666  -17.9026  -13.2280 O   0  0  0  0  0  0  0  0  0  0  0  0
   19.6395  -18.6657  -12.0623 C   0  0  0  0  0  0  0  0  0  0  0  0
   20.2864  -20.0215  -12.2617 C   0  0  2  0  0  0  0  0  0  0  0  0
   21.6175  -19.8548  -12.7978 N   0  0  0  0  0  0  0  0  0  0  0  0
   19.4698  -20.8397  -13.1982 C   0  0  0  0  0  0  0  0  0  0  0  0
   18.2170  -21.2850  -12.8081 O   0  0  0  0  0  0  0  0  0  0  0  0
   19.9408  -21.1067  -14.3243 O   0  0  0  0  0  0  0  0  0  0  0  0
  1  2  1  0
  3  4  1  1
  3  2  1  0
  5  6  1  6
  5  3  1  0
  7  5  1  0
  8  7  2  0
  9 10  1  0
 10 11  2  0
 10 20  1  0
 11 12  1  0
 12 13  2  0
 13 14  1  0
 15 14  1  6
 15 16  1  0
 16  7  1  0
 17 18  2  0
 17 15  1  0
 19 13  1  0
 20 19  2  0
 21 22  1  0
 23 22  1  6
 23 24  1  0
 24 17  1  0
 25 23  1  0
 26 25  1  0
 27 25  2  0
M  END
$$$$
