IYS.pdb
     RDKit          3D

 27 27  0  0  1  0  0  0  0  0999 V2000
   17.5485  -13.5415  -16.3804 C   0  0  0  0  0  0  0  0  0  0  0  0
   18.4368  -12.3333  -16.4384 C   0  0  0  0  0  0  0  0  0  0  0  0
   17.8593  -11.1490  -15.7029 C   0  0  2  0  0  0  0  0  0  0  0  0
   16.4303  -10.8902  -16.0494 C   0  0  0  0  0  0  0  0  0  0  0  0
   18.7355   -9.9480  -15.8743 C   0  0  2  0  0  0  0  0  0  0  0  0
   20.0889  -10.2837  -15.5388 N   0  0  0  0  0  0  0  0  0  0  0  0
   18.2246   -8.7919  -15.0960 C   0  0  0  0  0  0  0  0  0  0  0  0
   18.2300   -8.8152  -13.8390 O   0  0  0  0  0  0  0  0  0  0  0  0
   23.5506   -5.4723  -13.6377 O   0  0  0  0  0  0  0  0  0  0  0  0
   22.2664   -5.4514  -14.1433 C   0  0  0  0  0  0  0  0  0  0  0  0
   21.2831   -4.8353  -13.3798 C   0  0  0  0  0  0  0  0  0  0  0  0
   19.9854   -4.7866  -13.8378 C   0  0  0  0  0  0  0  0  0  0  0  0
   19.6014   -5.3263  -15.0360 C   0  0  0  0  0  0  0  0  0  0  0  0
   18.1812   -5.2325  -15.4594 C   0  0  0  0  0  0  0  0  0  0  0  0
   17.3752   -6.4163  -14.9574 C   0  0  2  0  0  0  0  0  0  0  0  0
   17.7136   -7.6231  -15.7176 N   0  0  0  0  0  0  0  0  0  0  0  0
   15.9275   -6.1657  -15.1777 C   0  0  0  0  0  0  0  0  0  0  0  0
   15.3751   -6.3067  -16.3202 O   0  0  0  0  0  0  0  0  0  0  0  0
   20.5799   -5.9398  -15.7967 C   0  0  0  0  0  0  0  0  0  0  0  0
   21.8960   -5.9969  -15.3468 C   0  0  0  0  0  0  0  0  0  0  0  0
   11.5647   -5.3415  -13.2310 O   0  0  0  0  0  0  0  0  0  0  0  0
   12.9324   -5.5397  -13.0139 C   0  0  0  0  0  0  0  0  0  0  0  0
   13.6664   -5.5586  -14.3395 C   0  0  2  0  0  0  0  0  0  0  0  0
   15.0801   -5.7523  -14.1136 N   0  0  0  0  0  0  0  0  0  0  0  0
   13.4469   -4.2750  -15.0587 C   0  0  0  0  0  0  0  0  0  0  0  0
   12.4250   -4.1749  -15.9891 O   0  0  0  0  0  0  0  0  0  0  0  0
   14.1985   -3.3104  -14.8018 O   0  0  0  0  0  0  0  0  0  0  0  0
  1  2  1  0
  3  4  1  6
  3  2  1  0
  5  6  1  1
  5  3  1  0
  7  5  1  0
  8  7  2  0
  9 10  1  0
 10 11  2  0
 10 20  1  0
 11 12  1  0
 12 13  2  0
 13 14  1  0
 15 14  1  6
 15 16  1  0
 16  7  1  0
 17 18  2  0
 17 15  1  0
 19 13  1  0
 20 19  2  0
 21 22  1  0
 23 22  1  1
 23 24  1  0
 24 17  1  0
 25 23  1  0
 26 25  1  0
 27 25  2  0
M  END
$$$$
