IYS.pdb
     RDKit          3D

 27 27  0  0  1  0  0  0  0  0999 V2000
   21.5608  -15.6271  -17.5640 C   0  0  0  0  0  0  0  0  0  0  0  0
   22.3115  -14.6582  -18.4299 C   0  0  0  0  0  0  0  0  0  0  0  0
   22.5180  -13.3198  -17.7642 C   0  0  2  0  0  0  0  0  0  0  0  0
   21.2553  -12.7432  -17.2144 C   0  0  0  0  0  0  0  0  0  0  0  0
   23.2442  -12.3856  -18.6803 C   0  0  2  0  0  0  0  0  0  0  0  0
   24.4247  -13.0236  -19.1868 N   0  0  0  0  0  0  0  0  0  0  0  0
   23.5364  -11.0929  -18.0119 C   0  0  0  0  0  0  0  0  0  0  0  0
   24.3980  -11.0260  -17.0987 O   0  0  0  0  0  0  0  0  0  0  0  0
   28.5759   -8.2389  -20.7509 O   0  0  0  0  0  0  0  0  0  0  0  0
   27.3521   -8.0222  -20.1503 C   0  0  0  0  0  0  0  0  0  0  0  0
   26.2248   -8.5313  -20.7825 C   0  0  0  0  0  0  0  0  0  0  0  0
   24.9794   -8.3433  -20.2258 C   0  0  0  0  0  0  0  0  0  0  0  0
   24.7865   -7.6645  -19.0527 C   0  0  0  0  0  0  0  0  0  0  0  0
   23.4108   -7.5044  -18.5173 C   0  0  0  0  0  0  0  0  0  0  0  0
   23.0396   -8.6509  -17.5947 C   0  0  2  0  0  0  0  0  0  0  0  0
   22.8717   -9.8889  -18.3616 N   0  0  0  0  0  0  0  0  0  0  0  0
   21.7320   -8.3696  -16.9478 C   0  0  0  0  0  0  0  0  0  0  0  0
   20.6182   -8.6184  -17.5204 O   0  0  0  0  0  0  0  0  0  0  0  0
   25.9085   -7.1575  -18.4227 C   0  0  0  0  0  0  0  0  0  0  0  0
   27.1739   -7.3395  -18.9734 C   0  0  0  0  0  0  0  0  0  0  0  0
   18.4213   -8.7580  -14.2651 O   0  0  0  0  0  0  0  0  0  0  0  0
   19.6610   -8.9417  -14.8868 C   0  0  0  0  0  0  0  0  0  0  0  0
   20.3805   -7.6131  -15.0025 C   0  0  2  0  0  0  0  0  0  0  0  0
   21.6599   -7.8035  -15.6457 N   0  0  0  0  0  0  0  0  0  0  0  0
   20.5838   -7.0274  -13.6501 C   0  0  0  0  0  0  0  0  0  0  0  0
   21.8679   -6.8818  -13.1504 O   0  0  0  0  0  0  0  0  0  0  0  0
   19.5797   -6.6783  -12.9934 O   0  0  0  0  0  0  0  0  0  0  0  0
  1  2  1  0
  3  4  1  6
  3  2  1  0
  5  6  1  1
  5  3  1  0
  7  5  1  0
  8  7  2  0
  9 10  1  0
 10 11  2  0
 10 20  1  0
 11 12  1  0
 12 13  2  0
 13 14  1  0
 15 14  1  6
 15 16  1  0
 16  7  1  0
 17 18  2  0
 17 15  1  0
 19 13  1  0
 20 19  2  0
 21 22  1  0
 23 22  1  1
 23 24  1  0
 24 17  1  0
 25 23  1  0
 26 25  1  0
 27 25  2  0
M  END
$$$$
