IYS.pdb
     RDKit          3D

 27 27  0  0  1  0  0  0  0  0999 V2000
   21.0066   -7.9097  -24.0484 C   0  0  0  0  0  0  0  0  0  0  0  0
   21.5485   -8.7600  -22.9368 C   0  0  0  0  0  0  0  0  0  0  0  0
   20.9903   -8.3808  -21.5871 C   0  0  2  0  0  0  0  0  0  0  0  0
   21.1436   -6.9273  -21.2824 C   0  0  0  0  0  0  0  0  0  0  0  0
   21.5485   -9.2700  -20.5208 C   0  0  2  0  0  0  0  0  0  0  0  0
   21.3145  -10.6430  -20.8632 N   0  0  0  0  0  0  0  0  0  0  0  0
   21.0081   -8.9150  -19.1847 C   0  0  0  0  0  0  0  0  0  0  0  0
   19.8027   -9.1355  -18.9036 O   0  0  0  0  0  0  0  0  0  0  0  0
   19.1091  -13.8967  -16.2250 O   0  0  0  0  0  0  0  0  0  0  0  0
   19.6795  -12.6480  -16.0811 C   0  0  0  0  0  0  0  0  0  0  0  0
   20.9424  -12.4499  -16.6246 C   0  0  0  0  0  0  0  0  0  0  0  0
   21.5568  -11.2229  -16.5092 C   0  0  0  0  0  0  0  0  0  0  0  0
   20.9757  -10.1599  -15.8716 C   0  0  0  0  0  0  0  0  0  0  0  0
   21.7039   -8.8684  -15.7895 C   0  0  0  0  0  0  0  0  0  0  0  0
   21.2569   -7.9114  -16.8793 C   0  0  2  0  0  0  0  0  0  0  0  0
   21.8079   -8.3201  -18.1747 N   0  0  0  0  0  0  0  0  0  0  0  0
   21.7875   -6.5520  -16.6002 C   0  0  0  0  0  0  0  0  0  0  0  0
   22.9972   -6.2261  -16.8467 O   0  0  0  0  0  0  0  0  0  0  0  0
   19.7183  -10.3565  -15.3304 C   0  0  0  0  0  0  0  0  0  0  0  0
   19.0848  -11.5912  -15.4390 C   0  0  0  0  0  0  0  0  0  0  0  0
   21.1351   -1.9185  -16.4470 O   0  0  0  0  0  0  0  0  0  0  0  0
   20.6227   -3.2100  -16.6104 C   0  0  0  0  0  0  0  0  0  0  0  0
   21.4764   -4.2026  -15.8473 C   0  0  2  0  0  0  0  0  0  0  0  0
   20.9627   -5.5391  -16.0389 N   0  0  0  0  0  0  0  0  0  0  0  0
   21.4694   -3.8679  -14.3978 C   0  0  0  0  0  0  0  0  0  0  0  0
   20.9726   -4.7832  -13.4837 O   0  0  0  0  0  0  0  0  0  0  0  0
   21.9167   -2.7577  -14.0390 O   0  0  0  0  0  0  0  0  0  0  0  0
  1  2  1  0
  3  4  1  1
  3  2  1  0
  5  6  1  6
  5  3  1  0
  7  5  1  0
  8  7  2  0
  9 10  1  0
 10 11  2  0
 10 20  1  0
 11 12  1  0
 12 13  2  0
 13 14  1  0
 15 14  1  1
 15 16  1  0
 16  7  1  0
 17 18  2  0
 17 15  1  0
 19 13  1  0
 20 19  2  0
 21 22  1  0
 23 22  1  6
 23 24  1  0
 24 17  1  0
 25 23  1  0
 26 25  1  0
 27 25  2  0
M  END
$$$$
