IYS.pdb
     RDKit          3D

 27 27  0  0  1  0  0  0  0  0999 V2000
   28.3892  -17.0197  -15.3631 C   0  0  0  0  0  0  0  0  0  0  0  0
   28.5130  -18.4784  -15.6939 C   0  0  0  0  0  0  0  0  0  0  0  0
   27.4455  -19.3181  -15.0365 C   0  0  2  0  0  0  0  0  0  0  0  0
   26.1393  -18.6054  -14.9130 C   0  0  0  0  0  0  0  0  0  0  0  0
   27.9410  -19.8724  -13.7378 C   0  0  2  0  0  0  0  0  0  0  0  0
   29.1323  -20.6392  -13.9611 N   0  0  0  0  0  0  0  0  0  0  0  0
   26.8836  -20.6499  -13.0444 C   0  0  0  0  0  0  0  0  0  0  0  0
   26.6551  -21.8443  -13.3640 O   0  0  0  0  0  0  0  0  0  0  0  0
   29.2467  -20.6108   -6.4489 O   0  0  0  0  0  0  0  0  0  0  0  0
   28.1861  -20.5960   -7.3322 C   0  0  0  0  0  0  0  0  0  0  0  0
   27.2687  -19.5590   -7.2203 C   0  0  0  0  0  0  0  0  0  0  0  0
   26.1920  -19.4969   -8.0766 C   0  0  0  0  0  0  0  0  0  0  0  0
   25.9707  -20.4255   -9.0578 C   0  0  0  0  0  0  0  0  0  0  0  0
   24.7853  -20.2882   -9.9416 C   0  0  0  0  0  0  0  0  0  0  0  0
   25.0517  -20.8692  -11.3181 C   0  0  2  0  0  0  0  0  0  0  0  0
   26.0910  -20.0970  -12.0054 N   0  0  0  0  0  0  0  0  0  0  0  0
   23.8250  -20.7678  -12.1501 C   0  0  0  0  0  0  0  0  0  0  0  0
   23.2926  -19.6467  -12.4496 O   0  0  0  0  0  0  0  0  0  0  0  0
   26.8837  -21.4583   -9.1698 C   0  0  0  0  0  0  0  0  0  0  0  0
   27.9769  -21.5343   -8.3113 C   0  0  0  0  0  0  0  0  0  0  0  0
   21.8094  -24.1881  -13.4835 O   0  0  0  0  0  0  0  0  0  0  0  0
   21.7949  -23.0505  -14.2977 C   0  0  0  0  0  0  0  0  0  0  0  0
   21.9776  -21.8082  -13.4493 C   0  0  2  0  0  0  0  0  0  0  0  0
   23.1797  -21.9287  -12.6572 N   0  0  0  0  0  0  0  0  0  0  0  0
   20.8042  -21.6301  -12.5522 C   0  0  0  0  0  0  0  0  0  0  0  0
   19.5367  -21.4996  -13.0966 O   0  0  0  0  0  0  0  0  0  0  0  0
   20.9951  -21.6026  -11.3177 O   0  0  0  0  0  0  0  0  0  0  0  0
  1  2  1  0
  3  4  1  1
  3  2  1  0
  5  6  1  6
  5  3  1  0
  7  5  1  0
  8  7  2  0
  9 10  1  0
 10 11  2  0
 10 20  1  0
 11 12  1  0
 12 13  2  0
 13 14  1  0
 15 14  1  1
 15 16  1  0
 16  7  1  0
 17 18  2  0
 17 15  1  0
 19 13  1  0
 20 19  2  0
 21 22  1  0
 23 22  1  1
 23 24  1  0
 24 17  1  0
 25 23  1  0
 26 25  1  0
 27 25  2  0
M  END
$$$$
