IYS.pdb
     RDKit          3D

 27 27  0  0  1  0  0  0  0  0999 V2000
   21.7520  -10.9627    9.2951 C   0  0  0  0  0  0  0  0  0  0  0  0
   21.0492  -11.2111    7.9925 C   0  0  0  0  0  0  0  0  0  0  0  0
   20.1973  -12.4563    8.0177 C   0  0  2  0  0  0  0  0  0  0  0  0
   20.9299  -13.6514    8.5316 C   0  0  0  0  0  0  0  0  0  0  0  0
   19.5611  -12.6827    6.6822 C   0  0  2  0  0  0  0  0  0  0  0  0
   18.7035  -11.5790    6.3606 N   0  0  0  0  0  0  0  0  0  0  0  0
   18.8542  -13.9870    6.6354 C   0  0  0  0  0  0  0  0  0  0  0  0
   17.6863  -14.0976    7.0876 O   0  0  0  0  0  0  0  0  0  0  0  0
   14.0122  -14.4259    2.1886 O   0  0  0  0  0  0  0  0  0  0  0  0
   15.0701  -15.0620    2.8062 C   0  0  0  0  0  0  0  0  0  0  0  0
   16.3535  -14.6414    2.4814 C   0  0  0  0  0  0  0  0  0  0  0  0
   17.4444  -15.2424    3.0689 C   0  0  0  0  0  0  0  0  0  0  0  0
   17.3301  -16.2585    3.9792 C   0  0  0  0  0  0  0  0  0  0  0  0
   18.5558  -16.8550    4.5681 C   0  0  0  0  0  0  0  0  0  0  0  0
   18.7356  -16.4335    6.0149 C   0  0  2  0  0  0  0  0  0  0  0  0
   19.4478  -15.1543    6.0888 N   0  0  0  0  0  0  0  0  0  0  0  0
   19.5762  -17.4310    6.7260 C   0  0  0  0  0  0  0  0  0  0  0  0
   20.8517  -17.4160    6.6682 O   0  0  0  0  0  0  0  0  0  0  0  0
   16.0526  -16.6778    4.3030 C   0  0  0  0  0  0  0  0  0  0  0  0
   14.9403  -16.0797    3.7174 C   0  0  0  0  0  0  0  0  0  0  0  0
   21.2385  -19.5174   10.1846 O   0  0  0  0  0  0  0  0  0  0  0  0
   20.4946  -18.6242    9.4061 C   0  0  0  0  0  0  0  0  0  0  0  0
   19.8280  -19.3672    8.2659 C   0  0  2  0  0  0  0  0  0  0  0  0
   18.9921  -18.4607    7.5132 N   0  0  0  0  0  0  0  0  0  0  0  0
   19.0003  -20.4810    8.8020 C   0  0  0  0  0  0  0  0  0  0  0  0
   19.6065  -21.5134    9.4995 O   0  0  0  0  0  0  0  0  0  0  0  0
   17.7663  -20.4556    8.6069 O   0  0  0  0  0  0  0  0  0  0  0  0
  1  2  1  0
  3  4  1  6
  3  2  1  0
  5  6  1  1
  5  3  1  0
  7  5  1  0
  8  7  2  0
  9 10  1  0
 10 11  2  0
 10 20  1  0
 11 12  1  0
 12 13  2  0
 13 14  1  0
 15 14  1  6
 15 16  1  0
 16  7  1  0
 17 18  2  0
 17 15  1  0
 19 13  1  0
 20 19  2  0
 21 22  1  0
 23 22  1  1
 23 24  1  0
 24 17  1  0
 25 23  1  0
 26 25  1  0
 27 25  2  0
M  END
$$$$
