VEG.pdb
     RDKit          3D

 21 20  0  0  1  0  0  0  0  0999 V2000
   18.4749  -14.6454  -17.5445 C   0  0  0  0  0  0  0  0  0  0  0  0
   18.4462  -13.1205  -17.6856 C   0  0  2  0  0  0  0  0  0  0  0  0
   18.6094  -12.7108  -19.1218 C   0  0  0  0  0  0  0  0  0  0  0  0
   19.5788  -12.5583  -16.8689 C   0  0  2  0  0  0  0  0  0  0  0  0
   19.4417  -13.0794  -15.5257 N   0  0  0  0  0  0  0  0  0  0  0  0
   19.5546  -11.0790  -16.9012 C   0  0  0  0  0  0  0  0  0  0  0  0
   19.8098  -10.5097  -17.9930 O   0  0  0  0  0  0  0  0  0  0  0  0
   19.2649  -10.2620  -15.7915 N   0  0  0  0  0  0  0  0  0  0  0  0
   19.1998   -8.7863  -15.8764 C   0  0  1  0  0  0  0  0  0  0  0  0
   17.8237   -8.3063  -15.5732 C   0  0  0  0  0  0  0  0  0  0  0  0
   16.7597   -8.7801  -16.5167 C   0  0  0  0  0  0  0  0  0  0  0  0
   15.4150   -8.2856  -16.1949 C   0  0  0  0  0  0  0  0  0  0  0  0
   14.6602   -8.7210  -15.3076 O   0  0  0  0  0  0  0  0  0  0  0  0
   20.2566   -8.2707  -14.9929 C   0  0  0  0  0  0  0  0  0  0  0  0
   20.3987   -8.7559  -13.8477 O   0  0  0  0  0  0  0  0  0  0  0  0
   14.9334   -7.2119  -16.9683 O   0  0  0  0  0  0  0  0  0  0  0  0
   21.1088   -7.2360  -15.4264 N   0  0  0  0  0  0  0  0  0  0  0  0
   22.2054   -6.8670  -14.5781 C   0  0  0  0  0  0  0  0  0  0  0  0
   21.8145   -5.7299  -13.7120 C   0  0  0  0  0  0  0  0  0  0  0  0
   22.7405   -5.1609  -12.8527 O   0  0  0  0  0  0  0  0  0  0  0  0
   20.6394   -5.3180  -13.7910 O   0  0  0  0  0  0  0  0  0  0  0  0
  2  4  1  0
  2  1  1  6
  2  3  1  0
  4  5  1  1
  6  4  1  0
  6  7  2  0
  8  6  1  0
  9  8  1  0
  9 14  1  0
  9 10  1  1
 11 10  1  0
 12 13  2  0
 12 11  1  0
 14 15  2  0
 14 17  1  0
 16 12  1  0
 17 18  1  0
 19 20  1  0
 19 18  1  0
 21 19  2  0
M  END
$$$$
