VEG.pdb
     RDKit          3D

 21 20  0  0  1  0  0  0  0  0999 V2000
   26.7367   -9.1116  -16.3665 C   0  0  0  0  0  0  0  0  0  0  0  0
   26.0970  -10.3295  -15.6933 C   0  0  2  0  0  0  0  0  0  0  0  0
   27.1156  -11.4073  -15.4529 C   0  0  0  0  0  0  0  0  0  0  0  0
   25.0181  -10.8495  -16.6053 C   0  0  2  0  0  0  0  0  0  0  0  0
   25.6638  -11.3209  -17.8117 N   0  0  0  0  0  0  0  0  0  0  0  0
   24.0200   -9.7921  -16.8804 C   0  0  0  0  0  0  0  0  0  0  0  0
   24.0907   -9.1877  -17.9808 O   0  0  0  0  0  0  0  0  0  0  0  0
   22.9936   -9.4145  -15.9934 N   0  0  0  0  0  0  0  0  0  0  0  0
   22.0682   -8.2930  -16.2673 C   0  0  1  0  0  0  0  0  0  0  0  0
   20.7167   -8.8064  -16.6221 C   0  0  0  0  0  0  0  0  0  0  0  0
   19.6830   -7.7538  -16.8869 C   0  0  0  0  0  0  0  0  0  0  0  0
   18.3766   -8.2899  -17.2897 C   0  0  0  0  0  0  0  0  0  0  0  0
   17.2665   -7.7742  -17.0698 O   0  0  0  0  0  0  0  0  0  0  0  0
   22.1197   -7.4128  -15.0901 C   0  0  0  0  0  0  0  0  0  0  0  0
   22.1951   -7.9128  -13.9450 O   0  0  0  0  0  0  0  0  0  0  0  0
   18.3825   -9.5089  -17.9946 O   0  0  0  0  0  0  0  0  0  0  0  0
   22.0848   -6.0128  -15.2426 N   0  0  0  0  0  0  0  0  0  0  0  0
   22.0262   -5.2075  -14.0566 C   0  0  0  0  0  0  0  0  0  0  0  0
   21.9798   -3.7721  -14.4217 C   0  0  0  0  0  0  0  0  0  0  0  0
   21.8989   -2.8059  -13.4318 O   0  0  0  0  0  0  0  0  0  0  0  0
   22.0161   -3.4807  -15.6343 O   0  0  0  0  0  0  0  0  0  0  0  0
  2  4  1  0
  2  1  1  6
  2  3  1  0
  4  5  1  6
  6  4  1  0
  6  7  2  0
  8  6  1  0
  9  8  1  0
  9 14  1  0
  9 10  1  1
 11 10  1  0
 12 13  2  0
 12 11  1  0
 14 15  2  0
 14 17  1  0
 16 12  1  0
 17 18  1  0
 19 20  1  0
 19 18  1  0
 21 19  2  0
M  END
$$$$
