VEG.pdb
     RDKit          3D

 21 20  0  0  1  0  0  0  0  0999 V2000
   18.8729  -13.0523  -15.6105 C   0  0  0  0  0  0  0  0  0  0  0  0
   17.6461  -12.6386  -14.7920 C   0  0  2  0  0  0  0  0  0  0  0  0
   16.8283  -13.8384  -14.4062 C   0  0  0  0  0  0  0  0  0  0  0  0
   16.8148  -11.7128  -15.6392 C   0  0  2  0  0  0  0  0  0  0  0  0
   16.3280  -12.4799  -16.7657 N   0  0  0  0  0  0  0  0  0  0  0  0
   17.6145  -10.5417  -16.0623 C   0  0  0  0  0  0  0  0  0  0  0  0
   18.1950  -10.5966  -17.1765 O   0  0  0  0  0  0  0  0  0  0  0  0
   17.7713   -9.3667  -15.3023 N   0  0  0  0  0  0  0  0  0  0  0  0
   18.6428   -8.2480  -15.7243 C   0  0  1  0  0  0  0  0  0  0  0  0
   17.8238   -7.0935  -16.1852 C   0  0  0  0  0  0  0  0  0  0  0  0
   18.6043   -5.8927  -16.6271 C   0  0  0  0  0  0  0  0  0  0  0  0
   17.7689   -4.7485  -17.0135 C   0  0  0  0  0  0  0  0  0  0  0  0
   17.9023   -3.5731  -16.6296 O   0  0  0  0  0  0  0  0  0  0  0  0
   19.5431   -7.9716  -14.5946 C   0  0  0  0  0  0  0  0  0  0  0  0
   19.0956   -7.9928  -13.4257 O   0  0  0  0  0  0  0  0  0  0  0  0
   16.7125   -5.0090  -17.9072 O   0  0  0  0  0  0  0  0  0  0  0  0
   20.9037   -7.6836  -14.8190 N   0  0  0  0  0  0  0  0  0  0  0  0
   21.6980   -7.2692  -13.6983 C   0  0  0  0  0  0  0  0  0  0  0  0
   21.6304   -5.7966  -13.5475 C   0  0  0  0  0  0  0  0  0  0  0  0
   22.3550   -5.1666  -12.5486 O   0  0  0  0  0  0  0  0  0  0  0  0
   20.9070   -5.1647  -14.3439 O   0  0  0  0  0  0  0  0  0  0  0  0
  2  4  1  0
  2  1  1  6
  2  3  1  0
  4  5  1  6
  6  4  1  0
  6  7  2  0
  8  6  1  0
  9  8  1  0
  9 14  1  0
  9 10  1  1
 11 10  1  0
 12 13  2  0
 12 11  1  0
 14 15  2  0
 14 17  1  0
 16 12  1  0
 17 18  1  0
 19 20  1  0
 19 18  1  0
 21 19  2  0
M  END
$$$$
