VEG.pdb
     RDKit          3D

 21 20  0  0  1  0  0  0  0  0999 V2000
   18.3493  -12.0506  -16.6627 C   0  0  0  0  0  0  0  0  0  0  0  0
   17.5763  -12.0059  -15.3413 C   0  0  2  0  0  0  0  0  0  0  0  0
   16.2391  -12.6769  -15.4782 C   0  0  0  0  0  0  0  0  0  0  0  0
   17.3796  -10.5608  -14.9683 C   0  0  2  0  0  0  0  0  0  0  0  0
   16.4245  -10.0013  -15.9007 N   0  0  0  0  0  0  0  0  0  0  0  0
   18.6723   -9.8408  -14.9905 C   0  0  0  0  0  0  0  0  0  0  0  0
   19.5304  -10.1447  -14.1230 O   0  0  0  0  0  0  0  0  0  0  0  0
   19.0095   -8.8362  -15.9179 N   0  0  0  0  0  0  0  0  0  0  0  0
   20.3314   -8.1719  -15.9365 C   0  0  1  0  0  0  0  0  0  0  0  0
   20.9890   -8.3552  -17.2594 C   0  0  0  0  0  0  0  0  0  0  0  0
   21.7589   -9.6314  -17.4184 C   0  0  0  0  0  0  0  0  0  0  0  0
   22.4731   -9.7407  -18.6968 C   0  0  0  0  0  0  0  0  0  0  0  0
   23.4040   -9.0145  -19.0877 O   0  0  0  0  0  0  0  0  0  0  0  0
   20.1023   -6.7760  -15.5340 C   0  0  0  0  0  0  0  0  0  0  0  0
   19.0993   -6.1632  -15.9648 O   0  0  0  0  0  0  0  0  0  0  0  0
   22.0626  -10.7702  -19.5654 O   0  0  0  0  0  0  0  0  0  0  0  0
   21.0028   -6.1249  -14.6681 N   0  0  0  0  0  0  0  0  0  0  0  0
   20.7136   -4.7717  -14.2893 C   0  0  0  0  0  0  0  0  0  0  0  0
   21.6637   -4.3252  -13.2433 C   0  0  0  0  0  0  0  0  0  0  0  0
   21.6357   -3.0152  -12.7930 O   0  0  0  0  0  0  0  0  0  0  0  0
   22.4716   -5.1649  -12.7973 O   0  0  0  0  0  0  0  0  0  0  0  0
  2  4  1  0
  2  1  1  6
  2  3  1  0
  4  5  1  6
  6  4  1  0
  6  7  2  0
  8  6  1  0
  9  8  1  0
  9 14  1  0
  9 10  1  6
 11 10  1  0
 12 13  2  0
 12 11  1  0
 14 15  2  0
 14 17  1  0
 16 12  1  0
 17 18  1  0
 19 20  1  0
 19 18  1  0
 21 19  2  0
M  END
$$$$
