VEG.pdb
     RDKit          3D

 21 20  0  0  1  0  0  0  0  0999 V2000
   20.7349   -9.8067  -16.3576 C   0  0  0  0  0  0  0  0  0  0  0  0
   19.7476  -10.7723  -15.6952 C   0  0  2  0  0  0  0  0  0  0  0  0
   19.6307  -12.0457  -16.4838 C   0  0  0  0  0  0  0  0  0  0  0  0
   18.4059  -10.0927  -15.6329 C   0  0  2  0  0  0  0  0  0  0  0  0
   17.9082   -9.9965  -16.9885 N   0  0  0  0  0  0  0  0  0  0  0  0
   18.5274   -8.7676  -14.9853 C   0  0  0  0  0  0  0  0  0  0  0  0
   18.8433   -8.7337  -13.7685 O   0  0  0  0  0  0  0  0  0  0  0  0
   18.3134   -7.5385  -15.6382 N   0  0  0  0  0  0  0  0  0  0  0  0
   18.5431   -6.2314  -14.9841 C   0  0  1  0  0  0  0  0  0  0  0  0
   19.9992   -5.9290  -14.9193 C   0  0  0  0  0  0  0  0  0  0  0  0
   20.5045   -5.5071  -13.5727 C   0  0  0  0  0  0  0  0  0  0  0  0
   21.9048   -5.0650  -13.5737 C   0  0  0  0  0  0  0  0  0  0  0  0
   22.3101   -3.8939  -13.4688 O   0  0  0  0  0  0  0  0  0  0  0  0
   17.7270   -5.2502  -15.7151 C   0  0  0  0  0  0  0  0  0  0  0  0
   17.4930   -5.4225  -16.9327 O   0  0  0  0  0  0  0  0  0  0  0  0
   22.8851   -6.0671  -13.7066 O   0  0  0  0  0  0  0  0  0  0  0  0
   17.2076   -4.1192  -15.0549 N   0  0  0  0  0  0  0  0  0  0  0  0
   16.4126   -3.2002  -15.8177 C   0  0  0  0  0  0  0  0  0  0  0  0
   15.9736   -2.0763  -14.9575 C   0  0  0  0  0  0  0  0  0  0  0  0
   15.3076   -0.9957  -15.5127 O   0  0  0  0  0  0  0  0  0  0  0  0
   16.2259   -2.1469  -13.7376 O   0  0  0  0  0  0  0  0  0  0  0  0
  2  4  1  0
  2  1  1  6
  2  3  1  0
  4  5  1  6
  6  4  1  0
  6  7  2  0
  8  6  1  0
  9  8  1  0
  9 14  1  0
  9 10  1  6
 11 10  1  0
 12 13  2  0
 12 11  1  0
 14 15  2  0
 14 17  1  0
 16 12  1  0
 17 18  1  0
 19 20  1  0
 19 18  1  0
 21 19  2  0
M  END
$$$$
