VEG.pdb
     RDKit          3D

 21 20  0  0  1  0  0  0  0  0999 V2000
   19.9412  -16.1939  -18.5898 C   0  0  0  0  0  0  0  0  0  0  0  0
   19.4949  -14.8236  -18.0713 C   0  0  2  0  0  0  0  0  0  0  0  0
   19.3238  -13.8507  -19.2031 C   0  0  0  0  0  0  0  0  0  0  0  0
   20.5531  -14.3184  -17.1275 C   0  0  2  0  0  0  0  0  0  0  0  0
   21.5811  -13.6898  -17.9292 N   0  0  0  0  0  0  0  0  0  0  0  0
   21.0842  -15.4279  -16.3048 C   0  0  0  0  0  0  0  0  0  0  0  0
   20.3198  -15.9464  -15.4514 O   0  0  0  0  0  0  0  0  0  0  0  0
   22.3896  -15.9452  -16.4111 N   0  0  0  0  0  0  0  0  0  0  0  0
   22.9168  -16.9869  -15.5023 C   0  0  1  0  0  0  0  0  0  0  0  0
   22.4713  -18.3375  -15.9424 C   0  0  0  0  0  0  0  0  0  0  0  0
   21.2267  -18.8466  -15.2804 C   0  0  0  0  0  0  0  0  0  0  0  0
   21.4799  -19.7229  -14.1297 C   0  0  0  0  0  0  0  0  0  0  0  0
   22.4236  -20.5230  -14.0036 O   0  0  0  0  0  0  0  0  0  0  0  0
   24.3732  -16.7911  -15.4437 C   0  0  0  0  0  0  0  0  0  0  0  0
   25.1374  -17.7002  -15.8393 O   0  0  0  0  0  0  0  0  0  0  0  0
   20.5626  -19.6492  -13.0638 O   0  0  0  0  0  0  0  0  0  0  0  0
   24.9131  -15.5888  -14.9460 N   0  0  0  0  0  0  0  0  0  0  0  0
   26.3381  -15.4250  -14.9815 C   0  0  0  0  0  0  0  0  0  0  0  0
   26.7600  -14.9557  -16.3222 C   0  0  0  0  0  0  0  0  0  0  0  0
   26.8548  -13.5986  -16.5851 O   0  0  0  0  0  0  0  0  0  0  0  0
   27.0199  -15.8199  -17.1838 O   0  0  0  0  0  0  0  0  0  0  0  0
  2  4  1  0
  2  1  1  6
  2  3  1  0
  4  5  1  6
  6  4  1  0
  6  7  2  0
  8  6  1  0
  9  8  1  0
  9 14  1  0
  9 10  1  6
 11 10  1  0
 12 13  2  0
 12 11  1  0
 14 15  2  0
 14 17  1  0
 16 12  1  0
 17 18  1  0
 19 20  1  0
 19 18  1  0
 21 19  2  0
M  END
$$$$
