VEG.pdb
     RDKit          3D

 21 20  0  0  1  0  0  0  0  0999 V2000
   15.8765  -11.2504  -16.4448 C   0  0  0  0  0  0  0  0  0  0  0  0
   17.1137  -10.7062  -15.7243 C   0  0  2  0  0  0  0  0  0  0  0  0
   17.2151   -9.2156  -15.8824 C   0  0  0  0  0  0  0  0  0  0  0  0
   18.3270  -11.3612  -16.3282 C   0  0  2  0  0  0  0  0  0  0  0  0
   18.3039  -12.7545  -15.9377 N   0  0  0  0  0  0  0  0  0  0  0  0
   19.5602  -10.6748  -15.8831 C   0  0  0  0  0  0  0  0  0  0  0  0
   20.0225  -10.9699  -14.7515 O   0  0  0  0  0  0  0  0  0  0  0  0
   20.2541   -9.7115  -16.6404 N   0  0  0  0  0  0  0  0  0  0  0  0
   21.5400   -9.1227  -16.2058 C   0  0  1  0  0  0  0  0  0  0  0  0
   22.3910   -8.8003  -17.3839 C   0  0  0  0  0  0  0  0  0  0  0  0
   23.7146   -8.1743  -17.0634 C   0  0  0  0  0  0  0  0  0  0  0  0
   24.5292   -7.8654  -18.2455 C   0  0  0  0  0  0  0  0  0  0  0  0
   25.2020   -8.6725  -18.9109 O   0  0  0  0  0  0  0  0  0  0  0  0
   21.2049   -7.9829  -15.3389 C   0  0  0  0  0  0  0  0  0  0  0  0
   20.2932   -7.1943  -15.6764 O   0  0  0  0  0  0  0  0  0  0  0  0
   24.5499   -6.5219  -18.6667 O   0  0  0  0  0  0  0  0  0  0  0  0
   21.9022   -7.7731  -14.1329 N   0  0  0  0  0  0  0  0  0  0  0  0
   21.5748   -6.6100  -13.3593 C   0  0  0  0  0  0  0  0  0  0  0  0
   22.0667   -5.3918  -14.0448 C   0  0  0  0  0  0  0  0  0  0  0  0
   22.9189   -4.5202  -13.3859 O   0  0  0  0  0  0  0  0  0  0  0  0
   21.6865   -5.1920  -15.2162 O   0  0  0  0  0  0  0  0  0  0  0  0
  2  4  1  0
  2  1  1  6
  2  3  1  0
  4  5  1  1
  6  4  1  0
  6  7  2  0
  8  6  1  0
  9  8  1  0
  9 14  1  0
  9 10  1  6
 11 10  1  0
 12 13  2  0
 12 11  1  0
 14 15  2  0
 14 17  1  0
 16 12  1  0
 17 18  1  0
 19 20  1  0
 19 18  1  0
 21 19  2  0
M  END
$$$$
