VEG.pdb
     RDKit          3D

 21 20  0  0  1  0  0  0  0  0999 V2000
   20.1321  -12.4988  -17.9748 C   0  0  0  0  0  0  0  0  0  0  0  0
   21.3427  -12.2257  -18.8725 C   0  0  2  0  0  0  0  0  0  0  0  0
   22.0973  -13.4932  -19.1569 C   0  0  0  0  0  0  0  0  0  0  0  0
   22.2412  -11.2538  -18.1555 C   0  0  2  0  0  0  0  0  0  0  0  0
   22.8446  -11.9620  -17.0469 N   0  0  0  0  0  0  0  0  0  0  0  0
   21.4723  -10.0696  -17.7121 C   0  0  0  0  0  0  0  0  0  0  0  0
   20.9373   -9.3509  -18.5945 O   0  0  0  0  0  0  0  0  0  0  0  0
   21.2975   -9.6904  -16.3673 N   0  0  0  0  0  0  0  0  0  0  0  0
   20.5823   -8.4585  -15.9672 C   0  0  1  0  0  0  0  0  0  0  0  0
   19.3054   -8.7960  -15.2805 C   0  0  0  0  0  0  0  0  0  0  0  0
   18.1910   -9.2323  -16.1829 C   0  0  0  0  0  0  0  0  0  0  0  0
   16.9556   -9.5893  -15.4739 C   0  0  0  0  0  0  0  0  0  0  0  0
   16.7845   -9.5906  -14.2420 O   0  0  0  0  0  0  0  0  0  0  0  0
   21.5330   -7.6628  -15.1758 C   0  0  0  0  0  0  0  0  0  0  0  0
   22.1249   -8.1885  -14.2061 O   0  0  0  0  0  0  0  0  0  0  0  0
   15.8563   -9.9676  -16.2684 O   0  0  0  0  0  0  0  0  0  0  0  0
   21.7814   -6.3149  -15.5014 N   0  0  0  0  0  0  0  0  0  0  0  0
   22.7080   -5.5847  -14.6849 C   0  0  0  0  0  0  0  0  0  0  0  0
   22.0382   -5.1285  -13.4442 C   0  0  0  0  0  0  0  0  0  0  0  0
   21.0668   -4.1421  -13.5017 O   0  0  0  0  0  0  0  0  0  0  0  0
   22.3819   -5.6619  -12.3700 O   0  0  0  0  0  0  0  0  0  0  0  0
  2  4  1  0
  2  1  1  1
  2  3  1  0
  4  5  1  1
  6  4  1  0
  6  7  2  0
  8  6  1  0
  9  8  1  0
  9 14  1  0
  9 10  1  1
 11 10  1  0
 12 13  2  0
 12 11  1  0
 14 15  2  0
 14 17  1  0
 16 12  1  0
 17 18  1  0
 19 20  1  0
 19 18  1  0
 21 19  2  0
M  END
$$$$
