VEG.pdb
     RDKit          3D

 21 20  0  0  1  0  0  0  0  0999 V2000
   13.2937  -12.2989  -12.8077 C   0  0  0  0  0  0  0  0  0  0  0  0
   12.9286  -12.9519  -11.4712 C   0  0  2  0  0  0  0  0  0  0  0  0
   11.5959  -13.6403  -11.5561 C   0  0  0  0  0  0  0  0  0  0  0  0
   12.8714  -11.8692  -10.4270 C   0  0  2  0  0  0  0  0  0  0  0  0
   11.7787  -10.9881  -10.7791 N   0  0  0  0  0  0  0  0  0  0  0  0
   14.1653  -11.1549  -10.3518 C   0  0  0  0  0  0  0  0  0  0  0  0
   15.1771  -11.8064   -9.9867 O   0  0  0  0  0  0  0  0  0  0  0  0
   14.3432   -9.7928  -10.6614 N   0  0  0  0  0  0  0  0  0  0  0  0
   15.6250   -9.0834  -10.4548 C   0  0  1  0  0  0  0  0  0  0  0  0
   16.3264   -8.8844  -11.7527 C   0  0  0  0  0  0  0  0  0  0  0  0
   17.6541   -8.1948  -11.6620 C   0  0  0  0  0  0  0  0  0  0  0  0
   18.2875   -7.9485  -12.9637 C   0  0  0  0  0  0  0  0  0  0  0  0
   18.3058   -6.8711  -13.5846 O   0  0  0  0  0  0  0  0  0  0  0  0
   15.3062   -7.8529   -9.7150 C   0  0  0  0  0  0  0  0  0  0  0  0
   14.2482   -7.2337   -9.9684 O   0  0  0  0  0  0  0  0  0  0  0  0
   18.9384   -9.0413  -13.5679 O   0  0  0  0  0  0  0  0  0  0  0  0
   16.1823   -7.3673   -8.7244 N   0  0  0  0  0  0  0  0  0  0  0  0
   15.7500   -6.2532   -7.9304 C   0  0  0  0  0  0  0  0  0  0  0  0
   16.0653   -4.9835   -8.6264 C   0  0  0  0  0  0  0  0  0  0  0  0
   16.6362   -5.0066   -9.8887 O   0  0  0  0  0  0  0  0  0  0  0  0
   15.7988   -3.9171   -8.0362 O   0  0  0  0  0  0  0  0  0  0  0  0
  2  4  1  0
  2  1  1  6
  2  3  1  0
  4  5  1  6
  6  4  1  0
  6  7  2  0
  8  6  1  0
  9  8  1  0
  9 14  1  0
  9 10  1  6
 11 10  1  0
 12 13  2  0
 12 11  1  0
 14 15  2  0
 14 17  1  0
 16 12  1  0
 17 18  1  0
 19 20  1  0
 19 18  1  0
 21 19  2  0
M  END
$$$$
