VEG.pdb
     RDKit          3D

 21 20  0  0  1  0  0  0  0  0999 V2000
   16.7224  -11.8767  -17.7611 C   0  0  0  0  0  0  0  0  0  0  0  0
   16.3795  -11.8386  -16.2688 C   0  0  2  0  0  0  0  0  0  0  0  0
   15.3690  -10.7659  -15.9770 C   0  0  0  0  0  0  0  0  0  0  0  0
   17.6481  -11.5566  -15.5091 C   0  0  2  0  0  0  0  0  0  0  0  0
   17.3592  -11.7432  -14.1033 N   0  0  0  0  0  0  0  0  0  0  0  0
   18.1347  -10.1906  -15.8047 C   0  0  0  0  0  0  0  0  0  0  0  0
   18.5699   -9.9581  -16.9614 O   0  0  0  0  0  0  0  0  0  0  0  0
   18.1444   -9.1300  -14.8785 N   0  0  0  0  0  0  0  0  0  0  0  0
   18.5207   -7.7470  -15.2458 C   0  0  1  0  0  0  0  0  0  0  0  0
   17.3331   -6.8511  -15.1912 C   0  0  0  0  0  0  0  0  0  0  0  0
   17.6026   -5.4129  -15.5162 C   0  0  0  0  0  0  0  0  0  0  0  0
   16.4227   -4.5459  -15.4050 C   0  0  0  0  0  0  0  0  0  0  0  0
   16.0854   -3.8807  -14.4098 O   0  0  0  0  0  0  0  0  0  0  0  0
   19.6361   -7.3702  -14.3643 C   0  0  0  0  0  0  0  0  0  0  0  0
   19.5430   -7.5607  -13.1306 O   0  0  0  0  0  0  0  0  0  0  0  0
   15.5912   -4.4599  -16.5382 O   0  0  0  0  0  0  0  0  0  0  0  0
   20.8070   -6.7972  -14.8985 N   0  0  0  0  0  0  0  0  0  0  0  0
   21.8915   -6.5209  -14.0007 C   0  0  0  0  0  0  0  0  0  0  0  0
   21.7606   -5.1488  -13.4566 C   0  0  0  0  0  0  0  0  0  0  0  0
   22.7163   -4.6536  -12.5841 O   0  0  0  0  0  0  0  0  0  0  0  0
   20.7723   -4.4757  -13.8125 O   0  0  0  0  0  0  0  0  0  0  0  0
  2  4  1  0
  2  1  1  6
  2  3  1  0
  4  5  1  1
  6  4  1  0
  6  7  2  0
  8  6  1  0
  9  8  1  0
  9 14  1  0
  9 10  1  1
 11 10  1  0
 12 13  2  0
 12 11  1  0
 14 15  2  0
 14 17  1  0
 16 12  1  0
 17 18  1  0
 19 20  1  0
 19 18  1  0
 21 19  2  0
M  END
$$$$
