VEG.pdb
     RDKit          3D

 21 20  0  0  1  0  0  0  0  0999 V2000
   17.7604  -12.4064  -16.2638 C   0  0  0  0  0  0  0  0  0  0  0  0
   18.6440  -12.8567  -17.4311 C   0  0  2  0  0  0  0  0  0  0  0  0
   18.8864  -14.3385  -17.3808 C   0  0  0  0  0  0  0  0  0  0  0  0
   19.9565  -12.1270  -17.3269 C   0  0  2  0  0  0  0  0  0  0  0  0
   20.6321  -12.6218  -16.1465 N   0  0  0  0  0  0  0  0  0  0  0  0
   19.7322  -10.6652  -17.2728 C   0  0  0  0  0  0  0  0  0  0  0  0
   19.2522  -10.1051  -18.2912 O   0  0  0  0  0  0  0  0  0  0  0  0
   20.0196   -9.8553  -16.1572 N   0  0  0  0  0  0  0  0  0  0  0  0
   19.7919   -8.3934  -16.1467 C   0  0  1  0  0  0  0  0  0  0  0  0
   18.3528   -8.0911  -15.9149 C   0  0  0  0  0  0  0  0  0  0  0  0
   18.0102   -6.6338  -15.8407 C   0  0  0  0  0  0  0  0  0  0  0  0
   16.5788   -6.3674  -15.6500 C   0  0  0  0  0  0  0  0  0  0  0  0
   15.6749   -6.5540  -16.4835 O   0  0  0  0  0  0  0  0  0  0  0  0
   20.7218   -7.8337  -15.1542 C   0  0  0  0  0  0  0  0  0  0  0  0
   20.8813   -8.4149  -14.0571 O   0  0  0  0  0  0  0  0  0  0  0  0
   16.1924   -5.8492  -14.3989 O   0  0  0  0  0  0  0  0  0  0  0  0
   21.4332   -6.6494  -15.4298 N   0  0  0  0  0  0  0  0  0  0  0  0
   22.2581   -6.1022  -14.3912 C   0  0  0  0  0  0  0  0  0  0  0  0
   21.4524   -5.2141  -13.5205 C   0  0  0  0  0  0  0  0  0  0  0  0
   22.0374   -4.5967  -12.4267 O   0  0  0  0  0  0  0  0  0  0  0  0
   20.2500   -5.0519  -13.8116 O   0  0  0  0  0  0  0  0  0  0  0  0
  2  4  1  0
  2  1  1  1
  2  3  1  0
  4  5  1  1
  6  4  1  0
  6  7  2  0
  8  6  1  0
  9  8  1  0
  9 14  1  0
  9 10  1  1
 11 10  1  0
 12 13  2  0
 12 11  1  0
 14 15  2  0
 14 17  1  0
 16 12  1  0
 17 18  1  0
 19 20  1  0
 19 18  1  0
 21 19  2  0
M  END
$$$$
