VEG.pdb
     RDKit          3D

 21 20  0  0  1  0  0  0  0  0999 V2000
   13.7842   -6.4576   -7.8783 C   0  0  0  0  0  0  0  0  0  0  0  0
   15.0622   -7.1474   -8.3649 C   0  0  2  0  0  0  0  0  0  0  0  0
   16.1628   -6.1481   -8.5819 C   0  0  0  0  0  0  0  0  0  0  0  0
   14.7483   -7.8419   -9.6630 C   0  0  2  0  0  0  0  0  0  0  0  0
   13.8905   -8.9659   -9.3540 N   0  0  0  0  0  0  0  0  0  0  0  0
   15.9959   -8.2589  -10.3409 C   0  0  0  0  0  0  0  0  0  0  0  0
   16.4384   -9.4116  -10.1028 O   0  0  0  0  0  0  0  0  0  0  0  0
   16.7243   -7.4526  -11.2366 N   0  0  0  0  0  0  0  0  0  0  0  0
   17.8553   -7.9657  -12.0408 C   0  0  1  0  0  0  0  0  0  0  0  0
   17.3987   -8.3311  -13.4098 C   0  0  0  0  0  0  0  0  0  0  0  0
   18.4567   -8.9027  -14.3045 C   0  0  0  0  0  0  0  0  0  0  0  0
   17.9906   -9.1967  -15.6656 C   0  0  0  0  0  0  0  0  0  0  0  0
   17.9019  -10.3211  -16.1896 O   0  0  0  0  0  0  0  0  0  0  0  0
   18.9091   -6.9416  -11.9796 C   0  0  0  0  0  0  0  0  0  0  0  0
   18.5962   -5.7295  -11.9782 O   0  0  0  0  0  0  0  0  0  0  0  0
   17.6063   -8.0958  -16.4548 O   0  0  0  0  0  0  0  0  0  0  0  0
   20.2662   -7.3151  -11.9227 N   0  0  0  0  0  0  0  0  0  0  0  0
   21.2451   -6.2762  -11.7786 C   0  0  0  0  0  0  0  0  0  0  0  0
   21.4163   -5.5606  -13.0650 C   0  0  0  0  0  0  0  0  0  0  0  0
   20.6524   -5.9166  -14.1648 O   0  0  0  0  0  0  0  0  0  0  0  0
   22.2610   -4.6436  -13.1104 O   0  0  0  0  0  0  0  0  0  0  0  0
  2  4  1  0
  2  1  1  6
  2  3  1  0
  4  5  1  1
  6  4  1  0
  6  7  2  0
  8  6  1  0
  9  8  1  0
  9 14  1  0
  9 10  1  6
 11 10  1  0
 12 13  2  0
 12 11  1  0
 14 15  2  0
 14 17  1  0
 16 12  1  0
 17 18  1  0
 19 20  1  0
 19 18  1  0
 21 19  2  0
M  END
$$$$
