VEG.pdb
     RDKit          3D

 21 20  0  0  1  0  0  0  0  0999 V2000
   24.3316  -14.1097  -18.2312 C   0  0  0  0  0  0  0  0  0  0  0  0
   23.6989  -12.8342  -18.7956 C   0  0  2  0  0  0  0  0  0  0  0  0
   24.1171  -12.6126  -20.2215 C   0  0  0  0  0  0  0  0  0  0  0  0
   24.1572  -11.6763  -17.9498 C   0  0  2  0  0  0  0  0  0  0  0  0
   24.5504  -12.2111  -16.6638 N   0  0  0  0  0  0  0  0  0  0  0  0
   23.0828  -10.6656  -17.8316 C   0  0  0  0  0  0  0  0  0  0  0  0
   22.7358  -10.0507  -18.8722 O   0  0  0  0  0  0  0  0  0  0  0  0
   22.4200  -10.3432  -16.6318 N   0  0  0  0  0  0  0  0  0  0  0  0
   21.4479   -9.2329  -16.5250 C   0  0  1  0  0  0  0  0  0  0  0  0
   20.1212   -9.7418  -16.0811 C   0  0  0  0  0  0  0  0  0  0  0  0
   19.1053   -8.6860  -15.7652 C   0  0  0  0  0  0  0  0  0  0  0  0
   17.8114   -9.2186  -15.3199 C   0  0  0  0  0  0  0  0  0  0  0  0
   17.5373   -9.6389  -14.1820 O   0  0  0  0  0  0  0  0  0  0  0  0
   22.0619   -8.2239  -15.6487 C   0  0  0  0  0  0  0  0  0  0  0  0
   22.6630   -8.5862  -14.6121 O   0  0  0  0  0  0  0  0  0  0  0  0
   16.7793   -9.2569  -16.2771 O   0  0  0  0  0  0  0  0  0  0  0  0
   21.9781   -6.8543  -15.9677 N   0  0  0  0  0  0  0  0  0  0  0  0
   22.6250   -5.9185  -15.0935 C   0  0  0  0  0  0  0  0  0  0  0  0
   21.6820   -5.4755  -14.0397 C   0  0  0  0  0  0  0  0  0  0  0  0
   20.3995   -5.9978  -13.9912 O   0  0  0  0  0  0  0  0  0  0  0  0
   22.0873   -4.6296  -13.2171 O   0  0  0  0  0  0  0  0  0  0  0  0
  2  4  1  0
  2  1  1  1
  2  3  1  0
  4  5  1  1
  6  4  1  0
  6  7  2  0
  8  6  1  0
  9  8  1  0
  9 14  1  0
  9 10  1  1
 11 10  1  0
 12 13  2  0
 12 11  1  0
 14 15  2  0
 14 17  1  0
 16 12  1  0
 17 18  1  0
 19 20  1  0
 19 18  1  0
 21 19  2  0
M  END
$$$$
