QCF.pdb
     RDKit          3D

 27 27  0  0  1  0  0  0  0  0999 V2000
   23.8388  -16.6653  -18.4848 N   0  0  0  0  0  0  0  0  0  0  0  0
   22.4931  -17.0909  -18.3180 C   0  0  0  0  0  0  0  0  0  0  0  0
   22.2366  -18.3154  -18.4227 O   0  0  0  0  0  0  0  0  0  0  0  0
   21.4724  -16.0521  -18.0292 C   0  0  0  0  0  0  0  0  0  0  0  0
   22.1208  -14.6657  -18.0223 C   0  0  0  0  0  0  0  0  0  0  0  0
   21.0621  -13.6135  -17.7360 C   0  0  2  0  0  0  0  0  0  0  0  0
   19.9160  -13.7820  -18.5923 N   0  0  0  0  0  0  0  0  0  0  0  0
   21.6569  -12.2368  -17.9153 C   0  0  0  0  0  0  0  0  0  0  0  0
   22.8297  -11.9941  -17.5362 O   0  0  0  0  0  0  0  0  0  0  0  0
   20.9100  -11.1961  -18.5110 N   0  0  0  0  0  0  0  0  0  0  0  0
   21.4565   -9.8669  -18.7961 C   0  0  1  0  0  0  0  0  0  0  0  0
   20.6409   -9.3362  -19.9342 C   0  0  0  0  0  0  0  0  0  0  0  0
   20.8525  -10.2977  -21.4346 S   0  0  0  0  0  0  0  0  0  0  0  0
   21.4843   -9.0366  -17.5883 C   0  0  0  0  0  0  0  0  0  0  0  0
   20.5986   -9.1773  -16.6654 O   0  0  0  0  0  0  0  0  0  0  0  0
   22.4586   -8.0574  -17.3633 N   0  0  0  0  0  0  0  0  0  0  0  0
   22.6071   -7.3570  -16.0828 C   0  0  1  0  0  0  0  0  0  0  0  0
   24.0403   -7.3119  -15.6622 C   0  0  0  0  0  0  0  0  0  0  0  0
   24.6646   -8.6258  -15.6294 C   0  0  0  0  0  0  0  0  0  0  0  0
   25.7484   -8.9871  -16.4276 C   0  0  0  0  0  0  0  0  0  0  0  0
   26.2999  -10.2455  -16.3238 C   0  0  0  0  0  0  0  0  0  0  0  0
   25.8207  -11.1931  -15.4452 C   0  0  0  0  0  0  0  0  0  0  0  0
   24.7489  -10.8406  -14.6534 C   0  0  0  0  0  0  0  0  0  0  0  0
   24.2022   -9.5891  -14.7580 C   0  0  0  0  0  0  0  0  0  0  0  0
   22.0748   -6.0043  -16.2670 C   0  0  0  0  0  0  0  0  0  0  0  0
   21.8149   -5.5892  -17.4152 O   0  0  0  0  0  0  0  0  0  0  0  0
   21.8451   -5.1613  -15.2000 O   0  0  0  0  0  0  0  0  0  0  0  0
  1  2  1  0
  2  3  2  0
  4  5  1  0
  4  2  1  0
  6  7  1  6
  6  5  1  0
  8 10  1  0
  8  6  1  0
  9  8  2  0
 11 10  1  0
 11 12  1  6
 13 12  1  0
 14 15  2  0
 14 11  1  0
 16 14  1  0
 17 25  1  0
 17 16  1  0
 17 18  1  6
 19 18  1  0
 20 19  2  0
 21 20  1  0
 22 21  2  0
 22 23  1  0
 23 24  2  0
 24 19  1  0
 25 27  1  0
 26 25  2  0
M  END
$$$$
