QCF.pdb
     RDKit          3D

 27 27  0  0  1  0  0  0  0  0999 V2000
   27.8724  -21.9572  -16.9015 N   0  0  0  0  0  0  0  0  0  0  0  0
   28.7044  -21.2457  -15.9952 C   0  0  0  0  0  0  0  0  0  0  0  0
   29.3326  -21.8964  -15.1246 O   0  0  0  0  0  0  0  0  0  0  0  0
   28.7761  -19.7697  -16.1388 C   0  0  0  0  0  0  0  0  0  0  0  0
   28.0627  -19.0921  -14.9664 C   0  0  0  0  0  0  0  0  0  0  0  0
   26.5932  -19.4799  -14.9761 C   0  0  2  0  0  0  0  0  0  0  0  0
   25.8732  -18.7660  -15.9993 N   0  0  0  0  0  0  0  0  0  0  0  0
   25.9900  -19.2071  -13.6184 C   0  0  0  0  0  0  0  0  0  0  0  0
   25.7034  -18.0343  -13.2716 O   0  0  0  0  0  0  0  0  0  0  0  0
   25.7361  -20.2612  -12.7127 N   0  0  0  0  0  0  0  0  0  0  0  0
   25.0856  -20.0740  -11.4132 C   0  0  1  0  0  0  0  0  0  0  0  0
   23.7607  -20.7622  -11.5277 C   0  0  0  0  0  0  0  0  0  0  0  0
   23.9233  -22.4857  -12.0006 S   0  0  0  0  0  0  0  0  0  0  0  0
   25.9493  -20.5288  -10.3195 C   0  0  0  0  0  0  0  0  0  0  0  0
   26.6708  -21.5875  -10.4396 O   0  0  0  0  0  0  0  0  0  0  0  0
   26.0457  -19.8527   -9.0979 N   0  0  0  0  0  0  0  0  0  0  0  0
   26.8890  -20.3179   -7.9912 C   0  0  1  0  0  0  0  0  0  0  0  0
   27.6021  -19.1740   -7.3462 C   0  0  0  0  0  0  0  0  0  0  0  0
   28.3277  -19.5608   -6.1457 C   0  0  0  0  0  0  0  0  0  0  0  0
   29.4515  -20.3850   -6.1532 C   0  0  0  0  0  0  0  0  0  0  0  0
   30.0988  -20.6894   -4.9757 C   0  0  0  0  0  0  0  0  0  0  0  0
   29.6797  -20.2065   -3.7547 C   0  0  0  0  0  0  0  0  0  0  0  0
   28.5686  -19.3907   -3.7420 C   0  0  0  0  0  0  0  0  0  0  0  0
   27.9266  -19.0892   -4.9137 C   0  0  0  0  0  0  0  0  0  0  0  0
   26.0092  -20.9914   -7.0323 C   0  0  0  0  0  0  0  0  0  0  0  0
   24.7757  -20.8067   -7.0840 O   0  0  0  0  0  0  0  0  0  0  0  0
   26.5031  -21.8369   -6.0612 O   0  0  0  0  0  0  0  0  0  0  0  0
  1  2  1  0
  2  3  2  0
  4  5  1  0
  4  2  1  0
  6  7  1  6
  6  5  1  0
  8 10  1  0
  8  6  1  0
  9  8  2  0
 11 10  1  0
 11 12  1  6
 13 12  1  0
 14 15  2  0
 14 11  1  0
 16 14  1  0
 17 25  1  0
 17 16  1  0
 17 18  1  1
 19 18  1  0
 20 19  2  0
 21 20  1  0
 22 21  2  0
 22 23  1  0
 23 24  2  0
 24 19  1  0
 25 27  1  0
 26 25  2  0
M  END
$$$$
