QCF.pdb
     RDKit          3D

 27 27  0  0  1  0  0  0  0  0999 V2000
   21.2599  -23.9551  -13.8429 N   0  0  0  0  0  0  0  0  0  0  0  0
   19.9469  -23.5127  -14.1597 C   0  0  0  0  0  0  0  0  0  0  0  0
   19.0830  -24.3729  -14.4593 O   0  0  0  0  0  0  0  0  0  0  0  0
   19.6821  -22.0525  -14.1151 C   0  0  0  0  0  0  0  0  0  0  0  0
   20.9585  -21.2981  -13.7352 C   0  0  0  0  0  0  0  0  0  0  0  0
   21.1135  -21.2955  -12.2233 C   0  0  2  0  0  0  0  0  0  0  0  0
   19.9717  -20.6931  -11.5841 N   0  0  0  0  0  0  0  0  0  0  0  0
   22.3780  -20.5604  -11.8466 C   0  0  0  0  0  0  0  0  0  0  0  0
   22.4066  -19.3046  -11.8346 O   0  0  0  0  0  0  0  0  0  0  0  0
   23.5517  -21.2667  -11.5009 N   0  0  0  0  0  0  0  0  0  0  0  0
   24.8680  -20.6365  -11.3705 C   0  0  1  0  0  0  0  0  0  0  0  0
   25.5899  -21.4331  -10.3283 C   0  0  0  0  0  0  0  0  0  0  0  0
   27.2525  -20.8258  -10.0323 S   0  0  0  0  0  0  0  0  0  0  0  0
   25.5356  -20.5327  -12.6714 C   0  0  0  0  0  0  0  0  0  0  0  0
   25.5992  -21.5418  -13.4673 O   0  0  0  0  0  0  0  0  0  0  0  0
   26.1334  -19.3514  -13.1251 N   0  0  0  0  0  0  0  0  0  0  0  0
   26.7978  -19.2412  -14.4285 C   0  0  1  0  0  0  0  0  0  0  0  0
   27.5443  -17.9514  -14.5396 C   0  0  0  0  0  0  0  0  0  0  0  0
   27.9286  -17.6331  -15.9064 C   0  0  0  0  0  0  0  0  0  0  0  0
   27.0811  -17.0148  -16.8239 C   0  0  0  0  0  0  0  0  0  0  0  0
   27.5251  -16.7254  -18.0957 C   0  0  0  0  0  0  0  0  0  0  0  0
   28.8020  -17.0248  -18.5196 C   0  0  0  0  0  0  0  0  0  0  0  0
   29.6441  -17.6363  -17.6158 C   0  0  0  0  0  0  0  0  0  0  0  0
   29.2009  -17.9230  -16.3519 C   0  0  0  0  0  0  0  0  0  0  0  0
   27.7089  -20.3828  -14.5459 C   0  0  0  0  0  0  0  0  0  0  0  0
   28.4508  -20.6873  -13.5893 O   0  0  0  0  0  0  0  0  0  0  0  0
   27.7749  -21.1458  -15.6927 O   0  0  0  0  0  0  0  0  0  0  0  0
  1  2  1  0
  2  3  2  0
  4  5  1  0
  4  2  1  0
  6  7  1  1
  6  5  1  0
  8 10  1  0
  8  6  1  0
  9  8  2  0
 11 10  1  0
 11 12  1  1
 13 12  1  0
 14 15  2  0
 14 11  1  0
 16 14  1  0
 17 25  1  0
 17 16  1  0
 17 18  1  1
 19 18  1  0
 20 19  2  0
 21 20  1  0
 22 21  2  0
 22 23  1  0
 23 24  2  0
 24 19  1  0
 25 27  1  0
 26 25  2  0
M  END
$$$$
