QCF.pdb
     RDKit          3D

 27 27  0  0  1  0  0  0  0  0999 V2000
   16.5260  -15.1334  -15.5413 N   0  0  0  0  0  0  0  0  0  0  0  0
   15.1947  -14.6527  -15.4138 C   0  0  0  0  0  0  0  0  0  0  0  0
   14.2551  -15.3841  -15.8115 O   0  0  0  0  0  0  0  0  0  0  0  0
   15.0018  -13.3081  -14.8145 C   0  0  0  0  0  0  0  0  0  0  0  0
   16.3538  -12.7109  -14.4169 C   0  0  0  0  0  0  0  0  0  0  0  0
   16.6387  -11.4888  -15.2744 C   0  0  2  0  0  0  0  0  0  0  0  0
   16.4371  -11.7750  -16.6717 N   0  0  0  0  0  0  0  0  0  0  0  0
   18.0535  -11.0196  -15.0305 C   0  0  0  0  0  0  0  0  0  0  0  0
   18.5496  -11.0608  -13.8772 O   0  0  0  0  0  0  0  0  0  0  0  0
   18.8466  -10.5261  -16.0903 N   0  0  0  0  0  0  0  0  0  0  0  0
   20.2008   -9.9963  -15.9105 C   0  0  1  0  0  0  0  0  0  0  0  0
   21.0224  -10.6269  -16.9919 C   0  0  0  0  0  0  0  0  0  0  0  0
   22.6934   -9.9750  -17.0501 S   0  0  0  0  0  0  0  0  0  0  0  0
   20.1959   -8.5307  -15.8843 C   0  0  0  0  0  0  0  0  0  0  0  0
   19.4916   -7.8540  -16.7221 O   0  0  0  0  0  0  0  0  0  0  0  0
   20.9405   -7.7860  -14.9624 N   0  0  0  0  0  0  0  0  0  0  0  0
   21.0423   -6.3233  -15.0126 C   0  0  1  0  0  0  0  0  0  0  0  0
   21.7729   -5.7980  -13.8196 C   0  0  0  0  0  0  0  0  0  0  0  0
   21.8904   -4.3476  -13.8183 C   0  0  0  0  0  0  0  0  0  0  0  0
   20.9191   -3.4936  -13.2991 C   0  0  0  0  0  0  0  0  0  0  0  0
   21.1122   -2.1295  -13.3142 C   0  0  0  0  0  0  0  0  0  0  0  0
   22.2502   -1.5491  -13.8316 C   0  0  0  0  0  0  0  0  0  0  0  0
   23.2140   -2.3895  -14.3463 C   0  0  0  0  0  0  0  0  0  0  0  0
   23.0202   -3.7453  -14.3302 C   0  0  0  0  0  0  0  0  0  0  0  0
   21.7501   -5.9825  -16.2495 C   0  0  0  0  0  0  0  0  0  0  0  0
   21.2785   -5.1195  -17.0183 O   0  0  0  0  0  0  0  0  0  0  0  0
   22.9384   -6.5891  -16.5984 O   0  0  0  0  0  0  0  0  0  0  0  0
  1  2  1  0
  2  3  2  0
  4  5  1  0
  4  2  1  0
  6  7  1  6
  6  5  1  0
  8 10  1  0
  8  6  1  0
  9  8  2  0
 11 10  1  0
 11 12  1  6
 13 12  1  0
 14 15  2  0
 14 11  1  0
 16 14  1  0
 17 25  1  0
 17 16  1  0
 17 18  1  1
 19 18  1  0
 20 19  2  0
 21 20  1  0
 22 21  2  0
 22 23  1  0
 23 24  2  0
 24 19  1  0
 25 27  1  0
 26 25  2  0
M  END
$$$$
