QCF.pdb
     RDKit          3D

 27 27  0  0  1  0  0  0  0  0999 V2000
   21.4056  -14.1571  -21.2313 N   0  0  0  0  0  0  0  0  0  0  0  0
   20.9107  -13.0674  -20.4648 C   0  0  0  0  0  0  0  0  0  0  0  0
   21.0955  -11.9024  -20.8946 O   0  0  0  0  0  0  0  0  0  0  0  0
   20.2030  -13.3810  -19.1979 C   0  0  0  0  0  0  0  0  0  0  0  0
   20.6906  -12.4557  -18.0805 C   0  0  0  0  0  0  0  0  0  0  0  0
   22.0005  -12.9853  -17.5206 C   0  0  2  0  0  0  0  0  0  0  0  0
   21.8060  -14.2394  -16.8390 N   0  0  0  0  0  0  0  0  0  0  0  0
   22.5994  -11.9629  -16.5839 C   0  0  0  0  0  0  0  0  0  0  0  0
   22.1560  -11.8306  -15.4160 O   0  0  0  0  0  0  0  0  0  0  0  0
   23.6671  -11.1365  -16.9994 N   0  0  0  0  0  0  0  0  0  0  0  0
   24.2466  -10.0804  -16.1652 C   0  0  1  0  0  0  0  0  0  0  0  0
   25.7090  -10.0756  -16.4868 C   0  0  0  0  0  0  0  0  0  0  0  0
   26.6592  -11.1079  -15.3678 S   0  0  0  0  0  0  0  0  0  0  0  0
   23.5453   -8.8080  -16.3604 C   0  0  0  0  0  0  0  0  0  0  0  0
   23.0316   -8.5011  -17.4996 O   0  0  0  0  0  0  0  0  0  0  0  0
   23.3896   -7.8633  -15.3397 N   0  0  0  0  0  0  0  0  0  0  0  0
   22.6002   -6.6370  -15.4990 C   0  0  1  0  0  0  0  0  0  0  0  0
   22.3368   -5.9960  -14.1751 C   0  0  0  0  0  0  0  0  0  0  0  0
   21.4939   -4.8140  -14.2736 C   0  0  0  0  0  0  0  0  0  0  0  0
   20.1009   -4.8541  -14.2574 C   0  0  0  0  0  0  0  0  0  0  0  0
   19.3705   -3.6883  -14.3331 C   0  0  0  0  0  0  0  0  0  0  0  0
   19.9642   -2.4480  -14.4267 C   0  0  0  0  0  0  0  0  0  0  0  0
   21.3418   -2.4030  -14.4429 C   0  0  0  0  0  0  0  0  0  0  0  0
   22.0661   -3.5631  -14.3675 C   0  0  0  0  0  0  0  0  0  0  0  0
   23.3665   -5.7410  -16.3690 C   0  0  0  0  0  0  0  0  0  0  0  0
   24.6043   -5.6517  -16.2342 O   0  0  0  0  0  0  0  0  0  0  0  0
   22.7596   -4.9829  -17.3481 O   0  0  0  0  0  0  0  0  0  0  0  0
  1  2  1  0
  2  3  2  0
  4  5  1  0
  4  2  1  0
  6  7  1  1
  6  5  1  0
  8 10  1  0
  8  6  1  0
  9  8  2  0
 11 10  1  0
 11 12  1  6
 13 12  1  0
 14 15  2  0
 14 11  1  0
 16 14  1  0
 17 25  1  0
 17 16  1  0
 17 18  1  1
 19 18  1  0
 20 19  2  0
 21 20  1  0
 22 21  2  0
 22 23  1  0
 23 24  2  0
 24 19  1  0
 25 27  1  0
 26 25  2  0
M  END
$$$$
