QCF.pdb
     RDKit          3D

 27 27  0  0  1  0  0  0  0  0999 V2000
   17.6780  -21.0301  -12.9298 N   0  0  0  0  0  0  0  0  0  0  0  0
   18.3503  -20.0646  -13.7271 C   0  0  0  0  0  0  0  0  0  0  0  0
   17.7078  -19.0579  -14.1142 O   0  0  0  0  0  0  0  0  0  0  0  0
   19.7778  -20.3120  -14.0518 C   0  0  0  0  0  0  0  0  0  0  0  0
   20.5411  -20.7193  -12.7893 C   0  0  0  0  0  0  0  0  0  0  0  0
   21.7796  -19.8504  -12.6446 C   0  0  2  0  0  0  0  0  0  0  0  0
   22.2614  -19.4127  -13.9297 N   0  0  0  0  0  0  0  0  0  0  0  0
   22.8535  -20.6198  -11.9125 C   0  0  0  0  0  0  0  0  0  0  0  0
   22.5742  -21.2819  -10.8821 O   0  0  0  0  0  0  0  0  0  0  0  0
   24.1905  -20.6114  -12.3688 N   0  0  0  0  0  0  0  0  0  0  0  0
   25.2690  -21.3718  -11.7320 C   0  0  1  0  0  0  0  0  0  0  0  0
   26.1877  -21.7694  -12.8455 C   0  0  0  0  0  0  0  0  0  0  0  0
   27.9167  -21.5518  -12.4170 S   0  0  0  0  0  0  0  0  0  0  0  0
   25.8810  -20.6081  -10.6406 C   0  0  0  0  0  0  0  0  0  0  0  0
   25.9150  -19.3220  -10.6679 O   0  0  0  0  0  0  0  0  0  0  0  0
   26.4549  -21.2160   -9.5183 N   0  0  0  0  0  0  0  0  0  0  0  0
   27.2209  -20.4737   -8.5111 C   0  0  1  0  0  0  0  0  0  0  0  0
   26.7205  -20.7701   -7.1346 C   0  0  0  0  0  0  0  0  0  0  0  0
   27.5220  -20.1471   -6.0920 C   0  0  0  0  0  0  0  0  0  0  0  0
   27.6330  -20.6507   -4.7973 C   0  0  0  0  0  0  0  0  0  0  0  0
   28.4300  -20.0158   -3.8699 C   0  0  0  0  0  0  0  0  0  0  0  0
   29.1442  -18.8747   -4.1657 C   0  0  0  0  0  0  0  0  0  0  0  0
   29.0378  -18.3727   -5.4451 C   0  0  0  0  0  0  0  0  0  0  0  0
   28.2451  -19.0054   -6.3655 C   0  0  0  0  0  0  0  0  0  0  0  0
   28.6231  -20.8747   -8.6538 C   0  0  0  0  0  0  0  0  0  0  0  0
   28.9040  -22.0353   -9.0176 O   0  0  0  0  0  0  0  0  0  0  0  0
   29.6592  -20.0010   -8.3988 O   0  0  0  0  0  0  0  0  0  0  0  0
  1  2  1  0
  2  3  2  0
  4  5  1  0
  4  2  1  0
  6  7  1  6
  6  5  1  0
  8 10  1  0
  8  6  1  0
  9  8  2  0
 11 10  1  0
 11 12  1  6
 13 12  1  0
 14 15  2  0
 14 11  1  0
 16 14  1  0
 17 25  1  0
 17 16  1  0
 17 18  1  1
 19 18  1  0
 20 19  2  0
 21 20  1  0
 22 21  2  0
 22 23  1  0
 23 24  2  0
 24 19  1  0
 25 27  1  0
 26 25  2  0
M  END
$$$$
