QCF.pdb
     RDKit          3D

 27 27  0  0  1  0  0  0  0  0999 V2000
   29.6555  -23.0811  -15.2123 N   0  0  0  0  0  0  0  0  0  0  0  0
   29.6113  -22.9200  -16.6237 C   0  0  0  0  0  0  0  0  0  0  0  0
   30.0866  -23.8318  -17.3439 O   0  0  0  0  0  0  0  0  0  0  0  0
   29.0017  -21.6755  -17.1566 C   0  0  0  0  0  0  0  0  0  0  0  0
   28.4949  -20.8036  -16.0053 C   0  0  0  0  0  0  0  0  0  0  0  0
   27.0985  -21.2527  -15.6075 C   0  0  2  0  0  0  0  0  0  0  0  0
   26.1825  -21.1462  -16.7142 N   0  0  0  0  0  0  0  0  0  0  0  0
   26.6149  -20.4244  -14.4407 C   0  0  0  0  0  0  0  0  0  0  0  0
   26.7979  -19.1818  -14.4210 O   0  0  0  0  0  0  0  0  0  0  0  0
   25.9488  -21.0271  -13.3503 N   0  0  0  0  0  0  0  0  0  0  0  0
   25.3982  -20.2740  -12.2204 C   0  0  1  0  0  0  0  0  0  0  0  0
   23.9120  -20.4175  -12.3320 C   0  0  0  0  0  0  0  0  0  0  0  0
   23.2731  -21.7422  -11.3036 S   0  0  0  0  0  0  0  0  0  0  0  0
   25.9893  -20.7146  -10.9534 C   0  0  0  0  0  0  0  0  0  0  0  0
   26.2343  -21.9584  -10.7321 O   0  0  0  0  0  0  0  0  0  0  0  0
   26.3216  -19.8282   -9.9226 N   0  0  0  0  0  0  0  0  0  0  0  0
   26.8414  -20.2709   -8.6241 C   0  0  1  0  0  0  0  0  0  0  0  0
   27.6212  -19.1817   -7.9619 C   0  0  0  0  0  0  0  0  0  0  0  0
   28.0861  -19.5436   -6.6314 C   0  0  0  0  0  0  0  0  0  0  0  0
   27.4947  -19.0872   -5.4549 C   0  0  0  0  0  0  0  0  0  0  0  0
   27.9790  -19.4922   -4.2302 C   0  0  0  0  0  0  0  0  0  0  0  0
   29.0499  -20.3508   -4.1053 C   0  0  0  0  0  0  0  0  0  0  0  0
   29.6383  -20.8052   -5.2661 C   0  0  0  0  0  0  0  0  0  0  0  0
   29.1552  -20.4016   -6.4825 C   0  0  0  0  0  0  0  0  0  0  0  0
   25.6882  -20.6575   -7.8071 C   0  0  0  0  0  0  0  0  0  0  0  0
   24.5884  -20.0916   -7.9764 O   0  0  0  0  0  0  0  0  0  0  0  0
   25.7755  -21.6411   -6.8444 O   0  0  0  0  0  0  0  0  0  0  0  0
  1  2  1  0
  2  3  2  0
  4  5  1  0
  4  2  1  0
  6  7  1  6
  6  5  1  0
  8 10  1  0
  8  6  1  0
  9  8  2  0
 11 10  1  0
 11 12  1  1
 13 12  1  0
 14 15  2  0
 14 11  1  0
 16 14  1  0
 17 25  1  0
 17 16  1  0
 17 18  1  1
 19 18  1  0
 20 19  2  0
 21 20  1  0
 22 21  2  0
 22 23  1  0
 23 24  2  0
 24 19  1  0
 25 27  1  0
 26 25  2  0
M  END
$$$$
