QCF.pdb
     RDKit          3D

 27 27  0  0  1  0  0  0  0  0999 V2000
   29.6025  -23.7485  -18.7135 N   0  0  0  0  0  0  0  0  0  0  0  0
   28.5288  -23.0660  -18.0802 C   0  0  0  0  0  0  0  0  0  0  0  0
   28.7053  -21.8750  -17.7244 O   0  0  0  0  0  0  0  0  0  0  0  0
   27.2607  -23.8116  -17.8798 C   0  0  0  0  0  0  0  0  0  0  0  0
   27.4052  -25.2439  -18.3997 C   0  0  0  0  0  0  0  0  0  0  0  0
   26.8895  -26.2168  -17.3522 C   0  0  2  0  0  0  0  0  0  0  0  0
   27.4022  -25.8942  -16.0452 N   0  0  0  0  0  0  0  0  0  0  0  0
   27.2756  -27.6252  -17.7376 C   0  0  0  0  0  0  0  0  0  0  0  0
   26.9933  -28.0754  -18.8759 O   0  0  0  0  0  0  0  0  0  0  0  0
   27.9601  -28.4636  -16.8297 N   0  0  0  0  0  0  0  0  0  0  0  0
   28.4419  -29.8048  -17.1704 C   0  0  1  0  0  0  0  0  0  0  0  0
   29.8446  -29.8686  -16.6504 C   0  0  0  0  0  0  0  0  0  0  0  0
   30.9407  -28.7269  -17.4964 S   0  0  0  0  0  0  0  0  0  0  0  0
   27.5282  -30.8371  -16.6719 C   0  0  0  0  0  0  0  0  0  0  0  0
   27.0803  -30.8011  -15.4661 O   0  0  0  0  0  0  0  0  0  0  0  0
   27.0900  -31.9071  -17.4604 N   0  0  0  0  0  0  0  0  0  0  0  0
   26.1158  -32.8989  -16.9918 C   0  0  1  0  0  0  0  0  0  0  0  0
   24.7606  -32.6251  -17.5586 C   0  0  0  0  0  0  0  0  0  0  0  0
   24.0516  -31.5692  -16.8516 C   0  0  0  0  0  0  0  0  0  0  0  0
   23.5540  -31.7046  -15.5568 C   0  0  0  0  0  0  0  0  0  0  0  0
   22.9116  -30.6506  -14.9446 C   0  0  0  0  0  0  0  0  0  0  0  0
   22.7306  -29.4333  -15.5653 C   0  0  0  0  0  0  0  0  0  0  0  0
   23.2211  -29.2943  -16.8460 C   0  0  0  0  0  0  0  0  0  0  0  0
   23.8595  -30.3433  -17.4527 C   0  0  0  0  0  0  0  0  0  0  0  0
   26.6022  -34.2146  -17.4156 C   0  0  0  0  0  0  0  0  0  0  0  0
   27.5927  -34.2978  -18.1708 O   0  0  0  0  0  0  0  0  0  0  0  0
   25.9965  -35.3822  -17.0013 O   0  0  0  0  0  0  0  0  0  0  0  0
  1  2  1  0
  2  3  2  0
  4  5  1  0
  4  2  1  0
  6  7  1  1
  6  5  1  0
  8 10  1  0
  8  6  1  0
  9  8  2  0
 11 10  1  0
 11 12  1  1
 13 12  1  0
 14 15  2  0
 14 11  1  0
 16 14  1  0
 17 25  1  0
 17 16  1  0
 17 18  1  6
 19 18  1  0
 20 19  2  0
 21 20  1  0
 22 21  2  0
 22 23  1  0
 23 24  2  0
 24 19  1  0
 25 27  1  0
 26 25  2  0
M  END
$$$$
