SCW.pdb
     RDKit          3D

 27 28  0  0  1  0  0  0  0  0999 V2000
    6.6779  -19.3580   22.9881 O   0  0  0  0  0  0  0  0  0  0  0  0
    5.5432  -19.4501   22.1848 C   0  0  0  0  0  0  0  0  0  0  0  0
    5.7856  -18.7981   20.8598 C   0  0  2  0  0  0  0  0  0  0  0  0
    5.7337  -19.7317   19.7581 N   0  0  0  0  0  0  0  0  0  0  0  0
    7.0178  -18.0004   20.8913 C   0  0  0  0  0  0  0  0  0  0  0  0
    8.0999  -18.6457   20.7027 O   0  0  0  0  0  0  0  0  0  0  0  0
    7.0863  -16.6150   21.1085 N   0  0  0  0  0  0  0  0  0  0  0  0
    8.3395  -15.9108   21.1010 C   0  0  1  0  0  0  0  0  0  0  0  0
    8.2260  -14.7379   20.1773 C   0  0  0  0  0  0  0  0  0  0  0  0
    6.6804  -13.8464   20.5003 S   0  0  0  0  0  0  0  0  0  0  0  0
    8.7650  -15.5354   22.4690 C   0  0  0  0  0  0  0  0  0  0  0  0
    8.6681  -14.3250   22.7958 O   0  0  0  0  0  0  0  0  0  0  0  0
    9.2660  -16.4278   23.4222 N   0  0  0  0  0  0  0  0  0  0  0  0
   10.0673  -15.9356   24.5372 C   0  0  1  0  0  0  0  0  0  0  0  0
    9.3819  -16.1405   25.8394 C   0  0  0  0  0  0  0  0  0  0  0  0
    8.0614  -15.4653   25.8556 C   0  0  0  0  0  0  0  0  0  0  0  0
    6.8432  -16.1277   25.6355 C   0  0  0  0  0  0  0  0  0  0  0  0
    5.8485  -15.2609   25.7619 N   0  0  0  0  0  0  0  0  0  0  0  0
    6.3379  -14.0477   26.0554 C   0  0  0  0  0  0  0  0  0  0  0  0
    5.6926  -12.8207   26.2715 C   0  0  0  0  0  0  0  0  0  0  0  0
    6.4103  -11.6997   26.5470 C   0  0  0  0  0  0  0  0  0  0  0  0
    7.7803  -11.8214   26.6032 C   0  0  0  0  0  0  0  0  0  0  0  0
    8.4169  -13.0319   26.3904 C   0  0  0  0  0  0  0  0  0  0  0  0
    7.7037  -14.1695   26.1134 C   0  0  0  0  0  0  0  0  0  0  0  0
   11.4185  -16.4793   24.4496 C   0  0  0  0  0  0  0  0  0  0  0  0
   11.7372  -17.4064   23.6260 O   0  0  0  0  0  0  0  0  0  0  0  0
   12.4681  -16.0363   25.2427 O   0  0  0  0  0  0  0  0  0  0  0  0
  2  1  1  0
  3  2  1  0
  3  4  1  6
  5  6  2  0
  5  3  1  0
  7  5  1  0
  8  7  1  0
  8  9  1  6
 10  9  1  0
 11 13  1  0
 11  8  1  0
 12 11  2  0
 14 25  1  0
 14 13  1  0
 14 15  1  1
 15 16  1  0
 16 24  1  0
 16 17  2  0
 17 18  1  0
 19 20  2  0
 19 18  1  0
 21 20  1  0
 22 21  2  0
 23 22  1  0
 23 24  2  0
 24 19  1  0
 25 27  1  0
 26 25  2  0
M  END
$$$$
