SCW.pdb
     RDKit          3D

 27 28  0  0  1  0  0  0  0  0999 V2000
   10.2364  -13.6702   19.0906 O   0  0  0  0  0  0  0  0  0  0  0  0
    9.4192  -14.3558   18.1944 C   0  0  0  0  0  0  0  0  0  0  0  0
    7.9772  -14.1493   18.5374 C   0  0  2  0  0  0  0  0  0  0  0  0
    7.5510  -12.7793   18.3651 N   0  0  0  0  0  0  0  0  0  0  0  0
    7.6775  -14.6906   19.8688 C   0  0  0  0  0  0  0  0  0  0  0  0
    7.6024  -13.8354   20.8101 O   0  0  0  0  0  0  0  0  0  0  0  0
    7.4734  -16.0467   20.1700 N   0  0  0  0  0  0  0  0  0  0  0  0
    7.1835  -16.4876   21.5071 C   0  0  1  0  0  0  0  0  0  0  0  0
    6.5905  -17.8610   21.4422 C   0  0  0  0  0  0  0  0  0  0  0  0
    6.3181  -18.4944   23.1193 S   0  0  0  0  0  0  0  0  0  0  0  0
    8.3770  -16.4096   22.3805 C   0  0  0  0  0  0  0  0  0  0  0  0
    9.5003  -16.5965   21.8470 O   0  0  0  0  0  0  0  0  0  0  0  0
    8.3456  -16.1435   23.7531 N   0  0  0  0  0  0  0  0  0  0  0  0
    9.5870  -16.0823   24.5163 C   0  0  1  0  0  0  0  0  0  0  0  0
    9.5971  -14.9336   25.4586 C   0  0  0  0  0  0  0  0  0  0  0  0
    8.2159  -14.4955   25.7754 C   0  0  0  0  0  0  0  0  0  0  0  0
    7.1410  -15.3786   25.9649 C   0  0  0  0  0  0  0  0  0  0  0  0
    6.0574  -14.6828   26.2786 N   0  0  0  0  0  0  0  0  0  0  0  0
    6.3505  -13.3750   26.3085 C   0  0  0  0  0  0  0  0  0  0  0  0
    5.5476  -12.2560   26.5771 C   0  0  0  0  0  0  0  0  0  0  0  0
    6.0706  -11.0021   26.5353 C   0  0  0  0  0  0  0  0  0  0  0  0
    7.4055  -10.8817   26.2215 C   0  0  0  0  0  0  0  0  0  0  0  0
    8.1977  -11.9855   25.9570 C   0  0  0  0  0  0  0  0  0  0  0  0
    7.6819  -13.2551   25.9976 C   0  0  0  0  0  0  0  0  0  0  0  0
    9.8610  -17.3844   25.1152 C   0  0  0  0  0  0  0  0  0  0  0  0
    8.9917  -18.3238   25.1516 O   0  0  0  0  0  0  0  0  0  0  0  0
   11.0816  -17.7154   25.6874 O   0  0  0  0  0  0  0  0  0  0  0  0
  2  1  1  0
  3  2  1  0
  3  4  1  1
  5  6  2  0
  5  3  1  0
  7  5  1  0
  8  7  1  0
  8  9  1  6
 10  9  1  0
 11 13  1  0
 11  8  1  0
 12 11  2  0
 14 25  1  0
 14 13  1  0
 14 15  1  1
 15 16  1  0
 16 24  1  0
 16 17  2  0
 17 18  1  0
 19 20  2  0
 19 18  1  0
 21 20  1  0
 22 21  2  0
 23 22  1  0
 23 24  2  0
 24 19  1  0
 25 27  1  0
 26 25  2  0
M  END
$$$$
