SCW.pdb
     RDKit          3D

 27 28  0  0  1  0  0  0  0  0999 V2000
   10.4224  -18.2024   17.4599 O   0  0  0  0  0  0  0  0  0  0  0  0
    9.4420  -18.9815   18.0706 C   0  0  0  0  0  0  0  0  0  0  0  0
    9.5443  -18.8787   19.5602 C   0  0  2  0  0  0  0  0  0  0  0  0
    8.6401  -19.7727   20.2468 N   0  0  0  0  0  0  0  0  0  0  0  0
    9.4243  -17.4811   19.9936 C   0  0  0  0  0  0  0  0  0  0  0  0
   10.2882  -16.6768   19.5142 O   0  0  0  0  0  0  0  0  0  0  0  0
    8.4518  -16.9819   20.8747 N   0  0  0  0  0  0  0  0  0  0  0  0
    8.4829  -15.6227   21.3416 C   0  0  1  0  0  0  0  0  0  0  0  0
    7.0859  -15.0838   21.3451 C   0  0  0  0  0  0  0  0  0  0  0  0
    7.0712  -13.4142   22.0524 S   0  0  0  0  0  0  0  0  0  0  0  0
    9.1532  -15.5108   22.6575 C   0  0  0  0  0  0  0  0  0  0  0  0
    9.7668  -14.4421   22.9077 O   0  0  0  0  0  0  0  0  0  0  0  0
    9.1534  -16.5057   23.6404 N   0  0  0  0  0  0  0  0  0  0  0  0
    9.9243  -16.3255   24.8654 C   0  0  1  0  0  0  0  0  0  0  0  0
    9.0671  -16.4280   26.0746 C   0  0  0  0  0  0  0  0  0  0  0  0
    7.9299  -15.4786   26.0004 C   0  0  0  0  0  0  0  0  0  0  0  0
    6.6063  -15.8652   25.7360 C   0  0  0  0  0  0  0  0  0  0  0  0
    5.8241  -14.7963   25.7833 N   0  0  0  0  0  0  0  0  0  0  0  0
    6.5566  -13.7096   26.0656 C   0  0  0  0  0  0  0  0  0  0  0  0
    6.1905  -12.3627   26.2101 C   0  0  0  0  0  0  0  0  0  0  0  0
    7.1259  -11.4168   26.4894 C   0  0  0  0  0  0  0  0  0  0  0  0
    8.4308  -11.8346   26.6218 C   0  0  0  0  0  0  0  0  0  0  0  0
    8.7919  -13.1633   26.4797 C   0  0  0  0  0  0  0  0  0  0  0  0
    7.8574  -14.1265   26.1996 C   0  0  0  0  0  0  0  0  0  0  0  0
   11.0882  -17.2054   24.8479 C   0  0  0  0  0  0  0  0  0  0  0  0
   11.2908  -18.0634   23.9194 O   0  0  0  0  0  0  0  0  0  0  0  0
   12.0717  -17.1830   25.8273 O   0  0  0  0  0  0  0  0  0  0  0  0
  2  1  1  0
  3  2  1  0
  3  4  1  1
  5  6  2  0
  5  3  1  0
  7  5  1  0
  8  7  1  0
  8  9  1  1
 10  9  1  0
 11 13  1  0
 11  8  1  0
 12 11  2  0
 14 25  1  0
 14 13  1  0
 14 15  1  1
 15 16  1  0
 16 24  1  0
 16 17  2  0
 17 18  1  0
 19 20  2  0
 19 18  1  0
 21 20  1  0
 22 21  2  0
 23 22  1  0
 23 24  2  0
 24 19  1  0
 25 27  1  0
 26 25  2  0
M  END
$$$$
