SCW.pdb
     RDKit          3D

 27 28  0  0  1  0  0  0  0  0999 V2000
    9.8220  -14.0286   19.6850 O   0  0  0  0  0  0  0  0  0  0  0  0
   10.7286  -15.0652   19.4734 C   0  0  0  0  0  0  0  0  0  0  0  0
   10.0063  -16.3623   19.2855 C   0  0  2  0  0  0  0  0  0  0  0  0
    9.1441  -16.3605   18.1259 N   0  0  0  0  0  0  0  0  0  0  0  0
    9.3207  -16.7587   20.5218 C   0  0  0  0  0  0  0  0  0  0  0  0
    8.1892  -17.3241   20.3705 O   0  0  0  0  0  0  0  0  0  0  0  0
    9.8103  -16.5642   21.8233 N   0  0  0  0  0  0  0  0  0  0  0  0
    9.5019  -17.4770   22.8900 C   0  0  1  0  0  0  0  0  0  0  0  0
    9.9639  -18.8465   22.4991 C   0  0  0  0  0  0  0  0  0  0  0  0
    9.6302  -20.0166   23.8436 S   0  0  0  0  0  0  0  0  0  0  0  0
   10.0637  -17.0198   24.1818 C   0  0  0  0  0  0  0  0  0  0  0  0
   11.2736  -16.6774   24.2003 O   0  0  0  0  0  0  0  0  0  0  0  0
    9.3477  -16.9413   25.3805 N   0  0  0  0  0  0  0  0  0  0  0  0
   10.0078  -16.4899   26.6003 C   0  0  1  0  0  0  0  0  0  0  0  0
    9.0444  -15.8822   27.5543 C   0  0  0  0  0  0  0  0  0  0  0  0
    7.9472  -15.1927   26.8328 C   0  0  0  0  0  0  0  0  0  0  0  0
    6.8257  -15.8514   26.3039 C   0  0  0  0  0  0  0  0  0  0  0  0
    6.0106  -14.9562   25.7645 N   0  0  0  0  0  0  0  0  0  0  0  0
    6.5292  -13.7278   25.9038 C   0  0  0  0  0  0  0  0  0  0  0  0
    6.0519  -12.4736   25.4939 C   0  0  0  0  0  0  0  0  0  0  0  0
    6.7700  -11.3456   25.7382 C   0  0  0  0  0  0  0  0  0  0  0  0
    7.9704  -11.4880   26.3966 C   0  0  0  0  0  0  0  0  0  0  0  0
    8.4411  -12.7251   26.8013 C   0  0  0  0  0  0  0  0  0  0  0  0
    7.7251  -13.8695   26.5621 C   0  0  0  0  0  0  0  0  0  0  0  0
   10.8292  -17.5671   27.1426 C   0  0  0  0  0  0  0  0  0  0  0  0
   10.7107  -18.7839   26.7619 O   0  0  0  0  0  0  0  0  0  0  0  0
   11.8068  -17.3647   28.1070 O   0  0  0  0  0  0  0  0  0  0  0  0
  2  1  1  0
  3  2  1  0
  3  4  1  6
  5  6  2  0
  5  3  1  0
  7  5  1  0
  8  7  1  0
  8  9  1  6
 10  9  1  0
 11 13  1  0
 11  8  1  0
 12 11  2  0
 14 25  1  0
 14 13  1  0
 14 15  1  1
 15 16  1  0
 16 24  1  0
 16 17  2  0
 17 18  1  0
 19 20  2  0
 19 18  1  0
 21 20  1  0
 22 21  2  0
 23 22  1  0
 23 24  2  0
 24 19  1  0
 25 27  1  0
 26 25  2  0
M  END
$$$$
