SCW.pdb
     RDKit          3D

 27 28  0  0  1  0  0  0  0  0999 V2000
    8.7786  -11.9424   19.2828 O   0  0  0  0  0  0  0  0  0  0  0  0
    8.4446  -12.7711   20.3519 C   0  0  0  0  0  0  0  0  0  0  0  0
    7.9994  -14.1112   19.8564 C   0  0  2  0  0  0  0  0  0  0  0  0
    6.7038  -14.0703   19.2177 N   0  0  0  0  0  0  0  0  0  0  0  0
    8.0931  -15.1164   20.9224 C   0  0  0  0  0  0  0  0  0  0  0  0
    7.0064  -15.3780   21.5337 O   0  0  0  0  0  0  0  0  0  0  0  0
    9.2632  -15.7912   21.3055 N   0  0  0  0  0  0  0  0  0  0  0  0
    9.2526  -16.7974   22.3320 C   0  0  1  0  0  0  0  0  0  0  0  0
    9.9317  -18.0249   21.8087 C   0  0  0  0  0  0  0  0  0  0  0  0
    9.9788  -19.2999   23.0972 S   0  0  0  0  0  0  0  0  0  0  0  0
    9.8444  -16.2982   23.5945 C   0  0  0  0  0  0  0  0  0  0  0  0
   10.8773  -15.5860   23.5100 O   0  0  0  0  0  0  0  0  0  0  0  0
    9.3389  -16.5610   24.8717 N   0  0  0  0  0  0  0  0  0  0  0  0
   10.1416  -16.2646   26.0529 C   0  0  1  0  0  0  0  0  0  0  0  0
    9.3240  -15.6583   27.1353 C   0  0  0  0  0  0  0  0  0  0  0  0
    8.0635  -15.0935   26.5947 C   0  0  0  0  0  0  0  0  0  0  0  0
    6.9779  -15.8749   26.1679 C   0  0  0  0  0  0  0  0  0  0  0  0
    5.9917  -15.0762   25.7856 N   0  0  0  0  0  0  0  0  0  0  0  0
    6.3610  -13.7959   25.9335 C   0  0  0  0  0  0  0  0  0  0  0  0
    5.6773  -12.6015   25.6598 C   0  0  0  0  0  0  0  0  0  0  0  0
    6.2692  -11.3982   25.8816 C   0  0  0  0  0  0  0  0  0  0  0  0
    7.5525  -11.4046   26.3797 C   0  0  0  0  0  0  0  0  0  0  0  0
    8.2268  -12.5827   26.6500 C   0  0  0  0  0  0  0  0  0  0  0  0
    7.6397  -13.8023   26.4320 C   0  0  0  0  0  0  0  0  0  0  0  0
   10.9083  -17.4456   26.4356 C   0  0  0  0  0  0  0  0  0  0  0  0
   10.7346  -18.5890   25.8861 O   0  0  0  0  0  0  0  0  0  0  0  0
   11.8891  -17.4288   27.4178 O   0  0  0  0  0  0  0  0  0  0  0  0
  2  1  1  0
  3  2  1  0
  3  4  1  1
  5  6  2  0
  5  3  1  0
  7  5  1  0
  8  7  1  0
  8  9  1  6
 10  9  1  0
 11 13  1  0
 11  8  1  0
 12 11  2  0
 14 25  1  0
 14 13  1  0
 14 15  1  1
 15 16  1  0
 16 24  1  0
 16 17  2  0
 17 18  1  0
 19 20  2  0
 19 18  1  0
 21 20  1  0
 22 21  2  0
 23 22  1  0
 23 24  2  0
 24 19  1  0
 25 27  1  0
 26 25  2  0
M  END
$$$$
