SCW.pdb
     RDKit          3D

 27 28  0  0  1  0  0  0  0  0999 V2000
    7.6537  -12.9738   18.5967 O   0  0  0  0  0  0  0  0  0  0  0  0
    8.7711  -12.6553   17.8278 C   0  0  0  0  0  0  0  0  0  0  0  0
    9.4138  -13.8987   17.2982 C   0  0  2  0  0  0  0  0  0  0  0  0
    8.5687  -14.6146   16.3701 N   0  0  0  0  0  0  0  0  0  0  0  0
    9.9121  -14.7344   18.3978 C   0  0  0  0  0  0  0  0  0  0  0  0
    9.1972  -15.7472   18.6910 O   0  0  0  0  0  0  0  0  0  0  0  0
   11.0882  -14.5029   19.1288 N   0  0  0  0  0  0  0  0  0  0  0  0
   11.5025  -15.3799   20.1896 C   0  0  1  0  0  0  0  0  0  0  0  0
   12.9970  -15.3548   20.2777 C   0  0  0  0  0  0  0  0  0  0  0  0
   13.5879  -13.6409   20.2386 S   0  0  0  0  0  0  0  0  0  0  0  0
   10.8382  -15.0431   21.4697 C   0  0  0  0  0  0  0  0  0  0  0  0
   10.7082  -13.8251   21.7538 O   0  0  0  0  0  0  0  0  0  0  0  0
   10.3458  -15.9798   22.3841 N   0  0  0  0  0  0  0  0  0  0  0  0
    9.5586  -15.5409   23.5308 C   0  0  1  0  0  0  0  0  0  0  0  0
    8.1365  -15.3120   23.1664 C   0  0  0  0  0  0  0  0  0  0  0  0
    7.3495  -14.8799   24.3469 C   0  0  0  0  0  0  0  0  0  0  0  0
    6.6008  -15.7558   25.1491 C   0  0  0  0  0  0  0  0  0  0  0  0
    6.0548  -15.0729   26.1452 N   0  0  0  0  0  0  0  0  0  0  0  0
    6.3987  -13.7805   26.0519 C   0  0  0  0  0  0  0  0  0  0  0  0
    6.0666  -12.6778   26.8535 C   0  0  0  0  0  0  0  0  0  0  0  0
    6.5306  -11.4366   26.5507 C   0  0  0  0  0  0  0  0  0  0  0  0
    7.3300  -11.3124   25.4370 C   0  0  0  0  0  0  0  0  0  0  0  0
    7.6580  -12.4002   24.6464 C   0  0  0  0  0  0  0  0  0  0  0  0
    7.1974  -13.6571   24.9426 C   0  0  0  0  0  0  0  0  0  0  0  0
    9.7782  -16.4464   24.6537 C   0  0  0  0  0  0  0  0  0  0  0  0
   10.0362  -17.6906   24.4966 O   0  0  0  0  0  0  0  0  0  0  0  0
    9.7320  -16.0373   25.9794 O   0  0  0  0  0  0  0  0  0  0  0  0
  2  1  1  0
  3  2  1  0
  3  4  1  1
  5  6  2  0
  5  3  1  0
  7  5  1  0
  8  7  1  0
  8  9  1  1
 10  9  1  0
 11 13  1  0
 11  8  1  0
 12 11  2  0
 14 25  1  0
 14 13  1  0
 14 15  1  6
 15 16  1  0
 16 24  1  0
 16 17  2  0
 17 18  1  0
 19 20  2  0
 19 18  1  0
 21 20  1  0
 22 21  2  0
 23 22  1  0
 23 24  2  0
 24 19  1  0
 25 27  1  0
 26 25  2  0
M  END
$$$$
