SCW.pdb
     RDKit          3D

 27 28  0  0  1  0  0  0  0  0999 V2000
    9.2418  -19.8601   22.1316 O   0  0  0  0  0  0  0  0  0  0  0  0
    8.2025  -19.6636   21.2247 C   0  0  0  0  0  0  0  0  0  0  0  0
    8.6584  -18.8104   20.0828 C   0  0  2  0  0  0  0  0  0  0  0  0
    9.5771  -19.4960   19.2031 N   0  0  0  0  0  0  0  0  0  0  0  0
    9.1672  -17.5216   20.5684 C   0  0  0  0  0  0  0  0  0  0  0  0
   10.4150  -17.3224   20.4060 O   0  0  0  0  0  0  0  0  0  0  0  0
    8.3974  -16.5207   21.1823 N   0  0  0  0  0  0  0  0  0  0  0  0
    8.9782  -15.2771   21.6094 C   0  0  1  0  0  0  0  0  0  0  0  0
    7.9331  -14.2076   21.5336 C   0  0  0  0  0  0  0  0  0  0  0  0
    6.4268  -14.7567   22.3808 S   0  0  0  0  0  0  0  0  0  0  0  0
    9.5962  -15.3931   22.9503 C   0  0  0  0  0  0  0  0  0  0  0  0
   10.4047  -14.4946   23.2969 O   0  0  0  0  0  0  0  0  0  0  0  0
    9.3463  -16.4277   23.8575 N   0  0  0  0  0  0  0  0  0  0  0  0
   10.0954  -16.5039   25.1067 C   0  0  1  0  0  0  0  0  0  0  0  0
    9.8207  -15.3371   25.9846 C   0  0  0  0  0  0  0  0  0  0  0  0
    8.3684  -15.0401   26.0329 C   0  0  0  0  0  0  0  0  0  0  0  0
    7.3676  -16.0202   25.9373 C   0  0  0  0  0  0  0  0  0  0  0  0
    6.1810  -15.4428   26.0611 N   0  0  0  0  0  0  0  0  0  0  0  0
    6.3345  -14.1223   26.2345 C   0  0  0  0  0  0  0  0  0  0  0  0
    5.3897  -13.0981   26.3997 C   0  0  0  0  0  0  0  0  0  0  0  0
    5.7870  -11.8067   26.5477 C   0  0  0  0  0  0  0  0  0  0  0  0
    7.1398  -11.5528   26.5281 C   0  0  0  0  0  0  0  0  0  0  0  0
    8.0718  -12.5632   26.3654 C   0  0  0  0  0  0  0  0  0  0  0  0
    7.6833  -13.8695   26.2168 C   0  0  0  0  0  0  0  0  0  0  0  0
    9.8929  -17.8110   25.7227 C   0  0  0  0  0  0  0  0  0  0  0  0
    9.0070  -18.6383   25.3104 O   0  0  0  0  0  0  0  0  0  0  0  0
   10.6427  -18.2682   26.7977 O   0  0  0  0  0  0  0  0  0  0  0  0
  2  1  1  0
  3  2  1  0
  3  4  1  1
  5  6  2  0
  5  3  1  0
  7  5  1  0
  8  7  1  0
  8  9  1  1
 10  9  1  0
 11 13  1  0
 11  8  1  0
 12 11  2  0
 14 25  1  0
 14 13  1  0
 14 15  1  1
 15 16  1  0
 16 24  1  0
 16 17  2  0
 17 18  1  0
 19 20  2  0
 19 18  1  0
 21 20  1  0
 22 21  2  0
 23 22  1  0
 23 24  2  0
 24 19  1  0
 25 27  1  0
 26 25  2  0
M  END
$$$$
