SCW.pdb
     RDKit          3D

 27 28  0  0  1  0  0  0  0  0999 V2000
    7.1944  -13.7379   17.2137 O   0  0  0  0  0  0  0  0  0  0  0  0
    8.3055  -13.1448   17.8094 C   0  0  0  0  0  0  0  0  0  0  0  0
    9.2405  -14.1905   18.3309 C   0  0  2  0  0  0  0  0  0  0  0  0
    9.6155  -15.1583   17.3255 N   0  0  0  0  0  0  0  0  0  0  0  0
    8.7078  -14.7987   19.5565 C   0  0  0  0  0  0  0  0  0  0  0  0
    8.4004  -13.9868   20.4889 O   0  0  0  0  0  0  0  0  0  0  0  0
    8.5183  -16.1737   19.7679 N   0  0  0  0  0  0  0  0  0  0  0  0
    7.9286  -16.6770   20.9783 C   0  0  1  0  0  0  0  0  0  0  0  0
    7.3795  -18.0444   20.7128 C   0  0  0  0  0  0  0  0  0  0  0  0
    6.7031  -18.7447   22.2426 S   0  0  0  0  0  0  0  0  0  0  0  0
    8.8848  -16.6431   22.1088 C   0  0  0  0  0  0  0  0  0  0  0  0
   10.0723  -16.9845   21.8754 O   0  0  0  0  0  0  0  0  0  0  0  0
    8.5635  -16.2597   23.4147 N   0  0  0  0  0  0  0  0  0  0  0  0
    9.6063  -16.1736   24.4309 C   0  0  1  0  0  0  0  0  0  0  0  0
    9.5773  -14.8679   25.1393 C   0  0  0  0  0  0  0  0  0  0  0  0
    8.1947  -14.5146   25.5435 C   0  0  0  0  0  0  0  0  0  0  0  0
    7.1723  -15.4577   25.7350 C   0  0  0  0  0  0  0  0  0  0  0  0
    6.0746  -14.8326   26.1363 N   0  0  0  0  0  0  0  0  0  0  0  0
    6.3081  -13.5154   26.2232 C   0  0  0  0  0  0  0  0  0  0  0  0
    5.4686  -12.4523   26.5891 C   0  0  0  0  0  0  0  0  0  0  0  0
    5.9305  -11.1739   26.5909 C   0  0  0  0  0  0  0  0  0  0  0  0
    7.2414  -10.9725   26.2220 C   0  0  0  0  0  0  0  0  0  0  0  0
    8.0696  -12.0212   25.8613 C   0  0  0  0  0  0  0  0  0  0  0  0
    7.6156  -13.3148   25.8573 C   0  0  0  0  0  0  0  0  0  0  0  0
    9.5547  -17.3521   25.2897 C   0  0  0  0  0  0  0  0  0  0  0  0
    8.5520  -18.1481   25.3095 O   0  0  0  0  0  0  0  0  0  0  0  0
   10.5842  -17.7114   26.1487 O   0  0  0  0  0  0  0  0  0  0  0  0
  2  1  1  0
  3  2  1  0
  3  4  1  6
  5  6  2  0
  5  3  1  0
  7  5  1  0
  8  7  1  0
  8  9  1  6
 10  9  1  0
 11 13  1  0
 11  8  1  0
 12 11  2  0
 14 25  1  0
 14 13  1  0
 14 15  1  1
 15 16  1  0
 16 24  1  0
 16 17  2  0
 17 18  1  0
 19 20  2  0
 19 18  1  0
 21 20  1  0
 22 21  2  0
 23 22  1  0
 23 24  2  0
 24 19  1  0
 25 27  1  0
 26 25  2  0
M  END
$$$$
