SCW.pdb
     RDKit          3D

 27 28  0  0  1  0  0  0  0  0999 V2000
    8.6901  -12.5041   19.0706 O   0  0  0  0  0  0  0  0  0  0  0  0
    8.3605  -13.0943   20.2889 C   0  0  0  0  0  0  0  0  0  0  0  0
    7.5653  -14.3427   20.0677 C   0  0  2  0  0  0  0  0  0  0  0  0
    6.1791  -14.0765   19.7585 N   0  0  0  0  0  0  0  0  0  0  0  0
    7.7448  -15.2775   21.1855 C   0  0  0  0  0  0  0  0  0  0  0  0
    6.8523  -15.2327   22.0934 O   0  0  0  0  0  0  0  0  0  0  0  0
    8.8013  -16.1923   21.3211 N   0  0  0  0  0  0  0  0  0  0  0  0
    8.8784  -17.0966   22.4358 C   0  0  1  0  0  0  0  0  0  0  0  0
    9.5605  -18.3525   21.9893 C   0  0  0  0  0  0  0  0  0  0  0  0
    9.6284  -19.5376   23.3602 S   0  0  0  0  0  0  0  0  0  0  0  0
    9.5279  -16.4667   23.6083 C   0  0  0  0  0  0  0  0  0  0  0  0
   10.4561  -15.6475   23.3876 O   0  0  0  0  0  0  0  0  0  0  0  0
    9.1845  -16.7163   24.9408 N   0  0  0  0  0  0  0  0  0  0  0  0
   10.0738  -16.2962   26.0179 C   0  0  1  0  0  0  0  0  0  0  0  0
    9.3743  -15.4306   27.0023 C   0  0  0  0  0  0  0  0  0  0  0  0
    8.1012  -14.9138   26.4436 C   0  0  0  0  0  0  0  0  0  0  0  0
    7.0474  -15.7353   26.0128 C   0  0  0  0  0  0  0  0  0  0  0  0
    6.0387  -14.9740   25.6131 N   0  0  0  0  0  0  0  0  0  0  0  0
    6.3627  -13.6807   25.7532 C   0  0  0  0  0  0  0  0  0  0  0  0
    5.6418  -12.5127   25.4617 C   0  0  0  0  0  0  0  0  0  0  0  0
    6.1902  -11.2881   25.6785 C   0  0  0  0  0  0  0  0  0  0  0  0
    7.4676  -11.2464   26.1898 C   0  0  0  0  0  0  0  0  0  0  0  0
    8.1786  -12.3985   26.4778 C   0  0  0  0  0  0  0  0  0  0  0  0
    7.6356  -13.6392   26.2649 C   0  0  0  0  0  0  0  0  0  0  0  0
   10.7507  -17.4605   26.5792 C   0  0  0  0  0  0  0  0  0  0  0  0
   11.6782  -17.3630   27.4565 O   0  0  0  0  0  0  0  0  0  0  0  0
   10.4446  -18.7650   26.2165 O   0  0  0  0  0  0  0  0  0  0  0  0
  2  1  1  0
  3  2  1  0
  3  4  1  1
  5  6  2  0
  5  3  1  0
  7  5  1  0
  8  7  1  0
  8  9  1  6
 10  9  1  0
 11 13  1  0
 11  8  1  0
 12 11  2  0
 14 25  1  0
 14 13  1  0
 14 15  1  1
 15 16  1  0
 16 24  1  0
 16 17  2  0
 17 18  1  0
 19 20  2  0
 19 18  1  0
 21 20  1  0
 22 21  2  0
 23 22  1  0
 23 24  2  0
 24 19  1  0
 25 27  1  0
 26 25  2  0
M  END
$$$$
