SCW.pdb
     RDKit          3D

 27 28  0  0  1  0  0  0  0  0999 V2000
    9.8326  -12.8477   19.0886 O   0  0  0  0  0  0  0  0  0  0  0  0
    8.7274  -12.7645   18.2443 C   0  0  0  0  0  0  0  0  0  0  0  0
    8.3343  -14.1251   17.7608 C   0  0  2  0  0  0  0  0  0  0  0  0
    7.2135  -14.0937   16.8493 N   0  0  0  0  0  0  0  0  0  0  0  0
    8.1417  -15.0422   18.8911 C   0  0  0  0  0  0  0  0  0  0  0  0
    7.1012  -14.8392   19.5975 O   0  0  0  0  0  0  0  0  0  0  0  0
    8.9994  -16.0980   19.2391 N   0  0  0  0  0  0  0  0  0  0  0  0
    8.7613  -16.9129   20.3990 C   0  0  1  0  0  0  0  0  0  0  0  0
    9.0815  -18.3359   20.0604 C   0  0  0  0  0  0  0  0  0  0  0  0
    8.9714  -19.3636   21.5503 S   0  0  0  0  0  0  0  0  0  0  0  0
    9.5028  -16.4146   21.5802 C   0  0  0  0  0  0  0  0  0  0  0  0
   10.6505  -15.9385   21.3870 O   0  0  0  0  0  0  0  0  0  0  0  0
    9.0201  -16.4351   22.8926 N   0  0  0  0  0  0  0  0  0  0  0  0
    9.8638  -15.9777   23.9910 C   0  0  1  0  0  0  0  0  0  0  0  0
    9.5913  -14.5593   24.3397 C   0  0  0  0  0  0  0  0  0  0  0  0
    8.2483  -14.4123   24.9517 C   0  0  0  0  0  0  0  0  0  0  0  0
    7.3115  -15.4545   25.0380 C   0  0  0  0  0  0  0  0  0  0  0  0
    6.2350  -15.0190   25.6768 N   0  0  0  0  0  0  0  0  0  0  0  0
    6.4013  -13.7347   26.0236 C   0  0  0  0  0  0  0  0  0  0  0  0
    5.5515  -12.8439   26.6967 C   0  0  0  0  0  0  0  0  0  0  0  0
    5.9364  -11.5611   26.9287 C   0  0  0  0  0  0  0  0  0  0  0  0
    7.1806  -11.1808   26.4791 C   0  0  0  0  0  0  0  0  0  0  0  0
    8.0191  -12.0596   25.8154 C   0  0  0  0  0  0  0  0  0  0  0  0
    7.6426  -13.3562   25.5770 C   0  0  0  0  0  0  0  0  0  0  0  0
    9.7808  -16.9213   25.1008 C   0  0  0  0  0  0  0  0  0  0  0  0
   10.4693  -16.7888   26.1722 O   0  0  0  0  0  0  0  0  0  0  0  0
    8.9492  -18.0327   25.0920 O   0  0  0  0  0  0  0  0  0  0  0  0
  2  1  1  0
  3  2  1  0
  3  4  1  1
  5  6  2  0
  5  3  1  0
  7  5  1  0
  8  7  1  0
  8  9  1  6
 10  9  1  0
 11 13  1  0
 11  8  1  0
 12 11  2  0
 14 25  1  0
 14 13  1  0
 14 15  1  1
 15 16  1  0
 16 24  1  0
 16 17  2  0
 17 18  1  0
 19 20  2  0
 19 18  1  0
 21 20  1  0
 22 21  2  0
 23 22  1  0
 23 24  2  0
 24 19  1  0
 25 27  1  0
 26 25  2  0
M  END
$$$$
