SCW.pdb
     RDKit          3D

 27 28  0  0  1  0  0  0  0  0999 V2000
    9.6702  -14.9914   18.9710 O   0  0  0  0  0  0  0  0  0  0  0  0
    8.6897  -14.0420   18.6905 C   0  0  0  0  0  0  0  0  0  0  0  0
    7.3328  -14.5753   19.0281 C   0  0  2  0  0  0  0  0  0  0  0  0
    6.2650  -13.6982   18.6056 N   0  0  0  0  0  0  0  0  0  0  0  0
    7.2582  -14.9439   20.4474 C   0  0  0  0  0  0  0  0  0  0  0  0
    7.1794  -13.9727   21.2681 O   0  0  0  0  0  0  0  0  0  0  0  0
    7.2672  -16.2547   20.9504 N   0  0  0  0  0  0  0  0  0  0  0  0
    7.1111  -16.5258   22.3534 C   0  0  1  0  0  0  0  0  0  0  0  0
    6.3252  -17.7902   22.5139 C   0  0  0  0  0  0  0  0  0  0  0  0
    6.2417  -18.2456   24.2671 S   0  0  0  0  0  0  0  0  0  0  0  0
    8.4157  -16.5585   23.0535 C   0  0  0  0  0  0  0  0  0  0  0  0
    9.3303  -17.2560   22.5453 O   0  0  0  0  0  0  0  0  0  0  0  0
    8.7040  -15.8711   24.2369 N   0  0  0  0  0  0  0  0  0  0  0  0
   10.0350  -15.9548   24.8274 C   0  0  1  0  0  0  0  0  0  0  0  0
   10.3964  -14.7064   25.5475 C   0  0  0  0  0  0  0  0  0  0  0  0
    9.2863  -14.2592   26.4236 C   0  0  0  0  0  0  0  0  0  0  0  0
    9.0953  -14.7175   27.7369 C   0  0  0  0  0  0  0  0  0  0  0  0
    8.0506  -14.0966   28.2658 N   0  0  0  0  0  0  0  0  0  0  0  0
    7.5290  -13.2438   27.3725 C   0  0  0  0  0  0  0  0  0  0  0  0
    6.4265  -12.3801   27.4570 C   0  0  0  0  0  0  0  0  0  0  0  0
    6.0713  -11.6047   26.3985 C   0  0  0  0  0  0  0  0  0  0  0  0
    6.8319  -11.7044   25.2556 C   0  0  0  0  0  0  0  0  0  0  0  0
    7.9197  -12.5562   25.1723 C   0  0  0  0  0  0  0  0  0  0  0  0
    8.2886  -13.3418   26.2336 C   0  0  0  0  0  0  0  0  0  0  0  0
   10.1507  -17.1823   25.6077 C   0  0  0  0  0  0  0  0  0  0  0  0
   11.2274  -17.5146   26.2156 O   0  0  0  0  0  0  0  0  0  0  0  0
    9.1080  -18.0857   25.7611 O   0  0  0  0  0  0  0  0  0  0  0  0
  2  1  1  0
  3  2  1  0
  3  4  1  1
  5  6  2  0
  5  3  1  0
  7  5  1  0
  8  7  1  0
  8  9  1  6
 10  9  1  0
 11 13  1  0
 11  8  1  0
 12 11  2  0
 14 25  1  0
 14 13  1  0
 14 15  1  1
 15 16  1  0
 16 24  1  0
 16 17  2  0
 17 18  1  0
 19 20  2  0
 19 18  1  0
 21 20  1  0
 22 21  2  0
 23 22  1  0
 23 24  2  0
 24 19  1  0
 25 27  1  0
 26 25  2  0
M  END
$$$$
