SCW.pdb
     RDKit          3D

 27 28  0  0  1  0  0  0  0  0999 V2000
   12.2748  -16.8169   19.6965 O   0  0  0  0  0  0  0  0  0  0  0  0
   11.7343  -18.0963   19.5862 C   0  0  0  0  0  0  0  0  0  0  0  0
   10.2839  -18.0224   19.2247 C   0  0  2  0  0  0  0  0  0  0  0  0
   10.0651  -17.5286   17.8844 N   0  0  0  0  0  0  0  0  0  0  0  0
    9.5306  -17.2869   20.2480 C   0  0  0  0  0  0  0  0  0  0  0  0
    8.4357  -16.7637   19.8600 O   0  0  0  0  0  0  0  0  0  0  0  0
    9.9204  -17.1239   21.5869 N   0  0  0  0  0  0  0  0  0  0  0  0
    8.9564  -17.0589   22.6512 C   0  0  1  0  0  0  0  0  0  0  0  0
    8.0407  -18.2386   22.5426 C   0  0  0  0  0  0  0  0  0  0  0  0
    7.0132  -18.3601   24.0317 S   0  0  0  0  0  0  0  0  0  0  0  0
    9.6095  -16.9490   23.9758 C   0  0  0  0  0  0  0  0  0  0  0  0
   10.1761  -17.9752   24.4310 O   0  0  0  0  0  0  0  0  0  0  0  0
    9.6418  -15.7888   24.7560 N   0  0  0  0  0  0  0  0  0  0  0  0
   10.1469  -15.8389   26.1234 C   0  0  1  0  0  0  0  0  0  0  0  0
    9.0432  -15.9242   27.1145 C   0  0  0  0  0  0  0  0  0  0  0  0
    7.8438  -15.1942   26.6365 C   0  0  0  0  0  0  0  0  0  0  0  0
    6.6513  -15.8236   26.2453 C   0  0  0  0  0  0  0  0  0  0  0  0
    5.7598  -14.8994   25.9172 N   0  0  0  0  0  0  0  0  0  0  0  0
    6.2943  -13.6792   26.0677 C   0  0  0  0  0  0  0  0  0  0  0  0
    5.7573  -12.4029   25.8409 C   0  0  0  0  0  0  0  0  0  0  0  0
    6.5057  -11.2885   26.0545 C   0  0  0  0  0  0  0  0  0  0  0  0
    7.7969  -11.4667   26.4972 C   0  0  0  0  0  0  0  0  0  0  0  0
    8.3266  -12.7257   26.7212 C   0  0  0  0  0  0  0  0  0  0  0  0
    7.5811  -13.8568   26.5109 C   0  0  0  0  0  0  0  0  0  0  0  0
   11.1671  -16.8763   26.2332 C   0  0  0  0  0  0  0  0  0  0  0  0
   12.0440  -16.8857   27.1662 O   0  0  0  0  0  0  0  0  0  0  0  0
   11.2694  -17.9377   25.3446 O   0  0  0  0  0  0  0  0  0  0  0  0
  2  1  1  0
  3  2  1  0
  3  4  1  6
  5  6  2  0
  5  3  1  0
  7  5  1  0
  8  7  1  0
  8  9  1  1
 10  9  1  0
 11 13  1  0
 11  8  1  0
 12 11  2  0
 14 25  1  0
 14 13  1  0
 14 15  1  1
 15 16  1  0
 16 24  1  0
 16 17  2  0
 17 18  1  0
 19 20  2  0
 19 18  1  0
 21 20  1  0
 22 21  2  0
 23 22  1  0
 23 24  2  0
 24 19  1  0
 25 27  1  0
 26 25  2  0
M  END
$$$$
