LHL.pdb
     RDKit          3D

 27 27  0  0  1  0  0  0  0  0999 V2000
    7.6856  -11.8925   18.6627 C   0  0  0  0  0  0  0  0  0  0  0  0
    8.3892  -13.2422   18.7061 C   0  0  1  0  0  0  0  0  0  0  0  0
    9.8768  -13.0157   18.5001 C   0  0  0  0  0  0  0  0  0  0  0  0
    8.0703  -14.0061   19.9503 C   0  0  0  0  0  0  0  0  0  0  0  0
    8.9229  -15.2448   20.1193 C   0  0  2  0  0  0  0  0  0  0  0  0
    8.5075  -16.2722   19.1556 N   0  0  0  0  0  0  0  0  0  0  0  0
    8.8241  -15.8164   21.4662 C   0  0  0  0  0  0  0  0  0  0  0  0
    7.6939  -15.8602   22.0135 O   0  0  0  0  0  0  0  0  0  0  0  0
    9.9092  -16.3302   22.2047 N   0  0  0  0  0  0  0  0  0  0  0  0
    9.7017  -17.0501   23.4819 C   0  0  1  0  0  0  0  0  0  0  0  0
   10.7293  -18.1391   23.5582 C   0  0  0  0  0  0  0  0  0  0  0  0
   10.4112  -19.2543   22.6504 C   0  0  0  0  0  0  0  0  0  0  0  0
    9.1170  -19.6522   22.2667 C   0  0  0  0  0  0  0  0  0  0  0  0
    9.2312  -20.6966   21.4468 N   0  0  0  0  0  0  0  0  0  0  0  0
   10.5346  -20.9904   21.2834 C   0  0  0  0  0  0  0  0  0  0  0  0
   11.2204  -20.1055   22.0213 N   0  0  0  0  0  0  0  0  0  0  0  0
    9.8317  -16.0467   24.5872 C   0  0  0  0  0  0  0  0  0  0  0  0
   10.8442  -15.3136   24.7498 O   0  0  0  0  0  0  0  0  0  0  0  0
    5.8432  -12.8141   26.2709 C   0  0  0  0  0  0  0  0  0  0  0  0
    7.2257  -13.3853   25.9498 C   0  0  1  0  0  0  0  0  0  0  0  0
    8.2562  -12.2642   26.0807 C   0  0  0  0  0  0  0  0  0  0  0  0
    7.5337  -14.4246   26.9799 C   0  0  0  0  0  0  0  0  0  0  0  0
    8.8480  -15.0848   26.7155 C   0  0  2  0  0  0  0  0  0  0  0  0
    8.7636  -15.9062   25.4991 N   0  0  0  0  0  0  0  0  0  0  0  0
    9.3072  -15.8704   27.8584 C   0  0  0  0  0  0  0  0  0  0  0  0
    9.9017  -15.3753   28.9814 O   0  0  0  0  0  0  0  0  0  0  0  0
    9.1408  -17.1521   27.8011 O   0  0  0  0  0  0  0  0  0  0  0  0
  2  3  1  1
  2  1  1  0
  4  2  1  0
  4  5  1  0
  5  7  1  0
  5  6  1  6
  7  8  2  0
  9 10  1  0
  9  7  1  0
 10 11  1  1
 11 12  1  0
 12 16  1  0
 13 12  2  0
 13 14  1  0
 14 15  1  0
 16 15  2  0
 17 18  2  0
 17 10  1  0
 20 22  1  0
 20 19  1  1
 21 20  1  0
 23 22  1  1
 23 25  1  0
 23 24  1  0
 24 17  1  0
 25 26  1  0
 27 25  2  0
M  END
$$$$
