LHL.pdb
     RDKit          3D

 27 27  0  0  1  0  0  0  0  0999 V2000
    6.7834  -12.5999   18.0955 C   0  0  0  0  0  0  0  0  0  0  0  0
    8.1015  -13.1353   18.6385 C   0  0  1  0  0  0  0  0  0  0  0  0
    9.0863  -11.9830   18.7321 C   0  0  0  0  0  0  0  0  0  0  0  0
    7.9244  -13.8728   19.9261 C   0  0  0  0  0  0  0  0  0  0  0  0
    9.2315  -14.1374   20.6412 C   0  0  2  0  0  0  0  0  0  0  0  0
   10.2277  -14.6453   19.6892 N   0  0  0  0  0  0  0  0  0  0  0  0
    9.0927  -15.1183   21.7226 C   0  0  0  0  0  0  0  0  0  0  0  0
    7.9699  -15.2439   22.2726 O   0  0  0  0  0  0  0  0  0  0  0  0
   10.1307  -15.9444   22.1988 N   0  0  0  0  0  0  0  0  0  0  0  0
    9.8954  -16.9399   23.2693 C   0  0  1  0  0  0  0  0  0  0  0  0
   10.9038  -18.0358   23.0961 C   0  0  0  0  0  0  0  0  0  0  0  0
   10.6002  -18.8770   21.9260 C   0  0  0  0  0  0  0  0  0  0  0  0
    9.3347  -19.4001   21.6017 C   0  0  0  0  0  0  0  0  0  0  0  0
    9.4560  -20.1129   20.4822 N   0  0  0  0  0  0  0  0  0  0  0  0
   10.7367  -20.0741   20.0696 C   0  0  0  0  0  0  0  0  0  0  0  0
   11.4015  -19.3235   20.9598 N   0  0  0  0  0  0  0  0  0  0  0  0
   10.0280  -16.2268   24.5804 C   0  0  0  0  0  0  0  0  0  0  0  0
   11.1318  -15.8675   25.0718 O   0  0  0  0  0  0  0  0  0  0  0  0
    5.8304  -13.3301   26.0526 C   0  0  0  0  0  0  0  0  0  0  0  0
    7.3070  -13.7078   25.9189 C   0  0  1  0  0  0  0  0  0  0  0  0
    8.1516  -12.4577   26.1633 C   0  0  0  0  0  0  0  0  0  0  0  0
    7.6174  -14.6983   26.9954 C   0  0  0  0  0  0  0  0  0  0  0  0
    8.8730  -15.4528   26.6994 C   0  0  2  0  0  0  0  0  0  0  0  0
    8.8558  -15.9343   25.3103 N   0  0  0  0  0  0  0  0  0  0  0  0
    9.0895  -16.5487   27.6407 C   0  0  0  0  0  0  0  0  0  0  0  0
    9.0835  -17.8778   27.3351 O   0  0  0  0  0  0  0  0  0  0  0  0
    9.3016  -16.2339   28.8775 O   0  0  0  0  0  0  0  0  0  0  0  0
  2  3  1  1
  2  1  1  0
  4  2  1  0
  4  5  1  0
  5  7  1  0
  5  6  1  6
  7  8  2  0
  9 10  1  0
  9  7  1  0
 10 11  1  1
 11 12  1  0
 12 16  1  0
 13 12  2  0
 13 14  1  0
 14 15  1  0
 16 15  2  0
 17 18  2  0
 17 10  1  0
 20 22  1  0
 20 19  1  1
 21 20  1  0
 23 22  1  1
 23 25  1  0
 23 24  1  0
 24 17  1  0
 25 26  1  0
 27 25  2  0
M  END
$$$$
