LHL.pdb
     RDKit          3D

 27 27  0  0  1  0  0  0  0  0999 V2000
    7.7211  -11.5369   19.1357 C   0  0  0  0  0  0  0  0  0  0  0  0
    8.3850  -12.8950   18.9522 C   0  0  1  0  0  0  0  0  0  0  0  0
    9.8433  -12.7761   19.3596 C   0  0  0  0  0  0  0  0  0  0  0  0
    7.6537  -13.9831   19.6694 C   0  0  0  0  0  0  0  0  0  0  0  0
    8.4116  -15.2927   19.6886 C   0  0  2  0  0  0  0  0  0  0  0  0
    7.9143  -16.1732   18.6236 N   0  0  0  0  0  0  0  0  0  0  0  0
    8.2780  -16.0014   20.9656 C   0  0  0  0  0  0  0  0  0  0  0  0
    7.1254  -16.3154   21.3551 O   0  0  0  0  0  0  0  0  0  0  0  0
    9.3533  -16.3660   21.8008 N   0  0  0  0  0  0  0  0  0  0  0  0
    9.1344  -17.1189   23.0567 C   0  0  1  0  0  0  0  0  0  0  0  0
    9.9971  -18.3441   23.0047 C   0  0  0  0  0  0  0  0  0  0  0  0
    9.8916  -19.1387   24.2403 C   0  0  0  0  0  0  0  0  0  0  0  0
   10.8616  -19.1998   25.2580 C   0  0  0  0  0  0  0  0  0  0  0  0
   10.4157  -20.0239   26.2057 N   0  0  0  0  0  0  0  0  0  0  0  0
    9.2066  -20.4957   25.8487 C   0  0  0  0  0  0  0  0  0  0  0  0
    8.9184  -19.9458   24.6603 N   0  0  0  0  0  0  0  0  0  0  0  0
    9.4848  -16.2064   24.1923 C   0  0  0  0  0  0  0  0  0  0  0  0
   10.5406  -15.5191   24.2361 O   0  0  0  0  0  0  0  0  0  0  0  0
    6.0043  -12.8589   26.4879 C   0  0  0  0  0  0  0  0  0  0  0  0
    7.3075  -13.4907   25.9946 C   0  0  1  0  0  0  0  0  0  0  0  0
    8.4130  -12.4374   26.0612 C   0  0  0  0  0  0  0  0  0  0  0  0
    7.6581  -14.5954   26.9396 C   0  0  0  0  0  0  0  0  0  0  0  0
    8.8794  -15.3312   26.4925 C   0  0  2  0  0  0  0  0  0  0  0  0
    8.5858  -16.1023   25.2755 N   0  0  0  0  0  0  0  0  0  0  0  0
    9.4223  -16.1850   27.5464 C   0  0  0  0  0  0  0  0  0  0  0  0
   10.3442  -15.8137   28.4801 O   0  0  0  0  0  0  0  0  0  0  0  0
    8.9956  -17.4052   27.5984 O   0  0  0  0  0  0  0  0  0  0  0  0
  2  3  1  1
  2  1  1  0
  4  2  1  0
  4  5  1  0
  5  7  1  0
  5  6  1  6
  7  8  2  0
  9 10  1  0
  9  7  1  0
 10 11  1  6
 11 12  1  0
 12 16  1  0
 13 12  2  0
 13 14  1  0
 14 15  1  0
 16 15  2  0
 17 18  2  0
 17 10  1  0
 20 22  1  0
 20 19  1  1
 21 20  1  0
 23 22  1  1
 23 25  1  0
 23 24  1  0
 24 17  1  0
 25 26  1  0
 27 25  2  0
M  END
$$$$
