LHL.pdb
     RDKit          3D

 27 27  0  0  1  0  0  0  0  0999 V2000
    7.4856  -11.7040   19.4110 C   0  0  0  0  0  0  0  0  0  0  0  0
    7.9106  -13.1595   19.2700 C   0  0  1  0  0  0  0  0  0  0  0  0
    9.3071  -13.1969   18.6742 C   0  0  0  0  0  0  0  0  0  0  0  0
    7.7924  -13.9100   20.5569 C   0  0  0  0  0  0  0  0  0  0  0  0
    8.2735  -15.3410   20.4538 C   0  0  2  0  0  0  0  0  0  0  0  0
    7.2939  -16.1449   19.7115 N   0  0  0  0  0  0  0  0  0  0  0  0
    8.4731  -15.9634   21.7666 C   0  0  0  0  0  0  0  0  0  0  0  0
    7.4597  -16.2290   22.4604 O   0  0  0  0  0  0  0  0  0  0  0  0
    9.7269  -16.2947   22.3187 N   0  0  0  0  0  0  0  0  0  0  0  0
    9.8424  -16.8939   23.6677 C   0  0  1  0  0  0  0  0  0  0  0  0
   11.0263  -17.8137   23.6533 C   0  0  0  0  0  0  0  0  0  0  0  0
   10.7548  -19.0407   22.8852 C   0  0  0  0  0  0  0  0  0  0  0  0
    9.5333  -19.3637   22.2655 C   0  0  0  0  0  0  0  0  0  0  0  0
    9.6696  -20.5510   21.6760 N   0  0  0  0  0  0  0  0  0  0  0  0
   10.9183  -21.0081   21.8850 C   0  0  0  0  0  0  0  0  0  0  0  0
   11.5474  -20.0774   22.6172 N   0  0  0  0  0  0  0  0  0  0  0  0
    9.9897  -15.7686   24.6460 C   0  0  0  0  0  0  0  0  0  0  0  0
   10.9304  -14.9302   24.6100 O   0  0  0  0  0  0  0  0  0  0  0  0
    5.7085  -13.3387   26.7824 C   0  0  0  0  0  0  0  0  0  0  0  0
    7.1043  -13.6405   26.2332 C   0  0  1  0  0  0  0  0  0  0  0  0
    7.7765  -12.3186   25.8636 C   0  0  0  0  0  0  0  0  0  0  0  0
    7.8939  -14.2738   27.3340 C   0  0  0  0  0  0  0  0  0  0  0  0
    9.2146  -14.7720   26.8435 C   0  0  2  0  0  0  0  0  0  0  0  0
    9.0234  -15.6307   25.6655 N   0  0  0  0  0  0  0  0  0  0  0  0
    9.9638  -15.4626   27.8905 C   0  0  0  0  0  0  0  0  0  0  0  0
   10.2946  -16.7856   27.8962 O   0  0  0  0  0  0  0  0  0  0  0  0
   10.3452  -14.7598   28.9074 O   0  0  0  0  0  0  0  0  0  0  0  0
  2  3  1  1
  2  1  1  0
  4  2  1  0
  4  5  1  0
  5  7  1  0
  5  6  1  6
  7  8  2  0
  9 10  1  0
  9  7  1  0
 10 11  1  6
 11 12  1  0
 12 16  1  0
 13 12  2  0
 13 14  1  0
 14 15  1  0
 16 15  2  0
 17 18  2  0
 17 10  1  0
 20 22  1  0
 20 19  1  1
 21 20  1  0
 23 22  1  1
 23 25  1  0
 23 24  1  0
 24 17  1  0
 25 26  1  0
 27 25  2  0
M  END
$$$$
