LHL.pdb
     RDKit          3D

 27 27  0  0  1  0  0  0  0  0999 V2000
    7.0599  -12.4002   17.7617 C   0  0  0  0  0  0  0  0  0  0  0  0
    8.1311  -13.3405   18.2976 C   0  0  1  0  0  0  0  0  0  0  0  0
    9.4419  -12.5782   18.3810 C   0  0  0  0  0  0  0  0  0  0  0  0
    7.7297  -13.9771   19.5887 C   0  0  0  0  0  0  0  0  0  0  0  0
    8.8541  -14.7516   20.2414 C   0  0  2  0  0  0  0  0  0  0  0  0
    9.3240  -15.8081   19.3361 N   0  0  0  0  0  0  0  0  0  0  0  0
    8.4467  -15.3796   21.5025 C   0  0  0  0  0  0  0  0  0  0  0  0
    7.4801  -14.8807   22.1316 O   0  0  0  0  0  0  0  0  0  0  0  0
    9.0585  -16.5147   22.0716 N   0  0  0  0  0  0  0  0  0  0  0  0
    8.5093  -17.1607   23.2854 C   0  0  1  0  0  0  0  0  0  0  0  0
    8.9448  -18.5952   23.2695 C   0  0  0  0  0  0  0  0  0  0  0  0
    8.1720  -19.3895   22.2995 C   0  0  0  0  0  0  0  0  0  0  0  0
    6.9626  -18.9942   21.6983 C   0  0  0  0  0  0  0  0  0  0  0  0
    6.5634  -19.9743   20.8883 N   0  0  0  0  0  0  0  0  0  0  0  0
    7.4560  -20.9805   20.9379 C   0  0  0  0  0  0  0  0  0  0  0  0
    8.4126  -20.5997   21.7969 N   0  0  0  0  0  0  0  0  0  0  0  0
    9.0316  -16.4054   24.4694 C   0  0  0  0  0  0  0  0  0  0  0  0
   10.2460  -16.1066   24.6272 O   0  0  0  0  0  0  0  0  0  0  0  0
    5.9864  -12.4580   26.6080 C   0  0  0  0  0  0  0  0  0  0  0  0
    7.1567  -13.3014   26.0979 C   0  0  1  0  0  0  0  0  0  0  0  0
    8.3919  -12.4070   25.9977 C   0  0  0  0  0  0  0  0  0  0  0  0
    7.4281  -14.3591   27.1196 C   0  0  0  0  0  0  0  0  0  0  0  0
    8.5234  -15.2759   26.6805 C   0  0  2  0  0  0  0  0  0  0  0  0
    8.1186  -15.9993   25.4662 N   0  0  0  0  0  0  0  0  0  0  0  0
    8.9259  -16.1972   27.7405 C   0  0  0  0  0  0  0  0  0  0  0  0
    9.7512  -15.9020   28.7852 O   0  0  0  0  0  0  0  0  0  0  0  0
    8.4633  -17.4040   27.6834 O   0  0  0  0  0  0  0  0  0  0  0  0
  2  3  1  1
  2  1  1  0
  4  2  1  0
  4  5  1  0
  5  7  1  0
  5  6  1  6
  7  8  2  0
  9 10  1  0
  9  7  1  0
 10 11  1  1
 11 12  1  0
 12 16  1  0
 13 12  2  0
 13 14  1  0
 14 15  1  0
 16 15  2  0
 17 18  2  0
 17 10  1  0
 20 22  1  0
 20 19  1  1
 21 20  1  0
 23 22  1  1
 23 25  1  0
 23 24  1  0
 24 17  1  0
 25 26  1  0
 27 25  2  0
M  END
$$$$
