LHL.pdb
     RDKit          3D

 27 27  0  0  1  0  0  0  0  0999 V2000
    8.0241  -12.0602   19.2017 C   0  0  0  0  0  0  0  0  0  0  0  0
    8.2021  -13.5676   19.0795 C   0  0  1  0  0  0  0  0  0  0  0  0
    9.6360  -13.9132   19.4413 C   0  0  0  0  0  0  0  0  0  0  0  0
    7.1886  -14.3228   19.8769 C   0  0  0  0  0  0  0  0  0  0  0  0
    7.5859  -15.7611   20.1289 C   0  0  2  0  0  0  0  0  0  0  0  0
    6.9029  -16.6426   19.1733 N   0  0  0  0  0  0  0  0  0  0  0  0
    7.2483  -16.2089   21.4839 C   0  0  0  0  0  0  0  0  0  0  0  0
    6.0752  -16.0281   21.8963 O   0  0  0  0  0  0  0  0  0  0  0  0
    8.1452  -16.8367   22.3716 N   0  0  0  0  0  0  0  0  0  0  0  0
    7.7439  -17.1914   23.7520 C   0  0  1  0  0  0  0  0  0  0  0  0
    8.0260  -18.6514   23.9431 C   0  0  0  0  0  0  0  0  0  0  0  0
    7.6992  -19.0964   25.3085 C   0  0  0  0  0  0  0  0  0  0  0  0
    7.1425  -18.2909   26.3194 C   0  0  0  0  0  0  0  0  0  0  0  0
    6.9977  -19.0397   27.4123 N   0  0  0  0  0  0  0  0  0  0  0  0
    7.4331  -20.2871   27.1549 C   0  0  0  0  0  0  0  0  0  0  0  0
    7.8504  -20.2900   25.8806 N   0  0  0  0  0  0  0  0  0  0  0  0
    8.5280  -16.3187   24.6841 C   0  0  0  0  0  0  0  0  0  0  0  0
    9.7748  -16.1523   24.6026 O   0  0  0  0  0  0  0  0  0  0  0  0
    5.9272  -11.9559   26.5669 C   0  0  0  0  0  0  0  0  0  0  0  0
    6.9706  -12.9174   25.9943 C   0  0  1  0  0  0  0  0  0  0  0  0
    8.0961  -12.0949   25.3677 C   0  0  0  0  0  0  0  0  0  0  0  0
    7.5414  -13.6948   27.1371 C   0  0  0  0  0  0  0  0  0  0  0  0
    8.5021  -14.7372   26.6643 C   0  0  2  0  0  0  0  0  0  0  0  0
    7.8386  -15.6387   25.7111 N   0  0  0  0  0  0  0  0  0  0  0  0
    9.0970  -15.4787   27.7736 C   0  0  0  0  0  0  0  0  0  0  0  0
    8.7779  -16.7510   28.1468 O   0  0  0  0  0  0  0  0  0  0  0  0
   10.0053  -14.8754   28.4697 O   0  0  0  0  0  0  0  0  0  0  0  0
  2  3  1  1
  2  1  1  0
  4  2  1  0
  4  5  1  0
  5  7  1  0
  5  6  1  6
  7  8  2  0
  9 10  1  0
  9  7  1  0
 10 11  1  1
 11 12  1  0
 12 16  1  0
 13 12  2  0
 13 14  1  0
 14 15  1  0
 16 15  2  0
 17 18  2  0
 17 10  1  0
 20 22  1  0
 20 19  1  1
 21 20  1  0
 23 22  1  1
 23 25  1  0
 23 24  1  0
 24 17  1  0
 25 26  1  0
 27 25  2  0
M  END
$$$$
