LHL.pdb
     RDKit          3D

 27 27  0  0  1  0  0  0  0  0999 V2000
    7.8001  -12.0767   18.3637 C   0  0  0  0  0  0  0  0  0  0  0  0
    8.3766  -13.4856   18.3241 C   0  0  1  0  0  0  0  0  0  0  0  0
    9.8761  -13.3979   18.5484 C   0  0  0  0  0  0  0  0  0  0  0  0
    7.6852  -14.4061   19.2771 C   0  0  0  0  0  0  0  0  0  0  0  0
    8.3912  -15.7354   19.4334 C   0  0  2  0  0  0  0  0  0  0  0  0
    7.7700  -16.7369   18.5572 N   0  0  0  0  0  0  0  0  0  0  0  0
    8.3420  -16.2402   20.8094 C   0  0  0  0  0  0  0  0  0  0  0  0
    7.2174  -16.4778   21.3171 O   0  0  0  0  0  0  0  0  0  0  0  0
    9.4700  -16.4862   21.6180 N   0  0  0  0  0  0  0  0  0  0  0  0
    9.3361  -17.0642   22.9746 C   0  0  1  0  0  0  0  0  0  0  0  0
   10.3942  -18.1159   23.1236 C   0  0  0  0  0  0  0  0  0  0  0  0
    9.9872  -19.3906   22.5082 C   0  0  0  0  0  0  0  0  0  0  0  0
   10.2361  -19.7716   21.1765 C   0  0  0  0  0  0  0  0  0  0  0  0
    9.7130  -20.9827   20.9880 N   0  0  0  0  0  0  0  0  0  0  0  0
    9.1402  -21.4004   22.1323 C   0  0  0  0  0  0  0  0  0  0  0  0
    9.3206  -20.4199   23.0289 N   0  0  0  0  0  0  0  0  0  0  0  0
    9.4867  -15.9419   23.9559 C   0  0  0  0  0  0  0  0  0  0  0  0
   10.4498  -15.1287   23.9448 O   0  0  0  0  0  0  0  0  0  0  0  0
    8.2413  -11.9077   26.8354 C   0  0  0  0  0  0  0  0  0  0  0  0
    7.2717  -13.0305   27.2097 C   0  0  1  0  0  0  0  0  0  0  0  0
    5.8674  -12.4391   27.3287 C   0  0  0  0  0  0  0  0  0  0  0  0
    7.2690  -14.0164   26.0853 C   0  0  0  0  0  0  0  0  0  0  0  0
    8.5704  -14.7451   25.9933 C   0  0  2  0  0  0  0  0  0  0  0  0
    8.4972  -15.7773   24.9488 N   0  0  0  0  0  0  0  0  0  0  0  0
    8.9729  -15.3138   27.2774 C   0  0  0  0  0  0  0  0  0  0  0  0
    9.8789  -14.7737   28.1418 O   0  0  0  0  0  0  0  0  0  0  0  0
    8.4261  -16.4329   27.6268 O   0  0  0  0  0  0  0  0  0  0  0  0
  2  3  1  1
  2  1  1  0
  4  2  1  0
  4  5  1  0
  5  7  1  0
  5  6  1  6
  7  8  2  0
  9 10  1  0
  9  7  1  0
 10 11  1  1
 11 12  1  0
 12 16  1  0
 13 12  2  0
 13 14  1  0
 14 15  1  0
 16 15  2  0
 17 18  2  0
 17 10  1  0
 20 22  1  0
 20 19  1  6
 21 20  1  0
 23 22  1  1
 23 25  1  0
 23 24  1  0
 24 17  1  0
 25 26  1  0
 27 25  2  0
M  END
$$$$
