LHL.pdb
     RDKit          3D

 27 27  0  0  1  0  0  0  0  0999 V2000
    7.7556  -14.2163   16.5518 C   0  0  0  0  0  0  0  0  0  0  0  0
    8.0273  -13.9356   18.0236 C   0  0  1  0  0  0  0  0  0  0  0  0
    7.8809  -12.4431   18.2634 C   0  0  0  0  0  0  0  0  0  0  0  0
    7.1751  -14.7694   18.9246 C   0  0  0  0  0  0  0  0  0  0  0  0
    7.3279  -14.4073   20.3859 C   0  0  2  0  0  0  0  0  0  0  0  0
    8.1638  -13.2071   20.5183 N   0  0  0  0  0  0  0  0  0  0  0  0
    7.9453  -15.4817   21.1702 C   0  0  0  0  0  0  0  0  0  0  0  0
    7.2267  -16.4500   21.5236 O   0  0  0  0  0  0  0  0  0  0  0  0
    9.2987  -15.5172   21.5623 N   0  0  0  0  0  0  0  0  0  0  0  0
    9.8259  -16.6034   22.4193 C   0  0  1  0  0  0  0  0  0  0  0  0
   11.2648  -16.8099   22.0522 C   0  0  0  0  0  0  0  0  0  0  0  0
   11.8591  -17.9391   22.7876 C   0  0  0  0  0  0  0  0  0  0  0  0
   11.1853  -18.7563   23.7143 C   0  0  0  0  0  0  0  0  0  0  0  0
   12.0498  -19.6603   24.1740 N   0  0  0  0  0  0  0  0  0  0  0  0
   13.2463  -19.4660   23.5889 C   0  0  0  0  0  0  0  0  0  0  0  0
   13.1005  -18.4220   22.7602 N   0  0  0  0  0  0  0  0  0  0  0  0
    9.6425  -16.1781   23.8442 C   0  0  0  0  0  0  0  0  0  0  0  0
   10.2402  -16.7143   24.8159 O   0  0  0  0  0  0  0  0  0  0  0  0
    8.1622  -12.2086   27.2625 C   0  0  0  0  0  0  0  0  0  0  0  0
    7.0357  -13.1504   26.8327 C   0  0  1  0  0  0  0  0  0  0  0  0
    5.7361  -12.3496   26.7569 C   0  0  0  0  0  0  0  0  0  0  0  0
    7.3608  -13.6434   25.4588 C   0  0  0  0  0  0  0  0  0  0  0  0
    8.4791  -14.6343   25.4832 C   0  0  2  0  0  0  0  0  0  0  0  0
    8.7554  -15.1159   24.1218 N   0  0  0  0  0  0  0  0  0  0  0  0
    8.2104  -15.7425   26.3964 C   0  0  0  0  0  0  0  0  0  0  0  0
    8.8138  -15.9492   27.6017 O   0  0  0  0  0  0  0  0  0  0  0  0
    7.3241  -16.6106   26.0294 O   0  0  0  0  0  0  0  0  0  0  0  0
  2  3  1  6
  2  1  1  0
  4  2  1  0
  4  5  1  0
  5  7  1  0
  5  6  1  6
  7  8  2  0
  9 10  1  0
  9  7  1  0
 10 11  1  6
 11 12  1  0
 12 16  1  0
 13 12  2  0
 13 14  1  0
 14 15  1  0
 16 15  2  0
 17 18  2  0
 17 10  1  0
 20 22  1  0
 20 19  1  6
 21 20  1  0
 23 22  1  6
 23 25  1  0
 23 24  1  0
 24 17  1  0
 25 26  1  0
 27 25  2  0
M  END
$$$$
