LHL.pdb
     RDKit          3D

 27 27  0  0  1  0  0  0  0  0999 V2000
    7.7139  -11.9542   19.4725 C   0  0  0  0  0  0  0  0  0  0  0  0
    8.3064  -13.3347   19.2235 C   0  0  1  0  0  0  0  0  0  0  0  0
    9.8097  -13.1908   19.0624 C   0  0  0  0  0  0  0  0  0  0  0  0
    7.9124  -14.3174   20.2782 C   0  0  0  0  0  0  0  0  0  0  0  0
    8.7994  -15.5431   20.3062 C   0  0  2  0  0  0  0  0  0  0  0  0
    8.2640  -16.5679   19.4007 N   0  0  0  0  0  0  0  0  0  0  0  0
    8.9065  -16.1296   21.6461 C   0  0  0  0  0  0  0  0  0  0  0  0
    7.8709  -16.6106   22.1705 O   0  0  0  0  0  0  0  0  0  0  0  0
   10.0942  -16.2006   22.4017 N   0  0  0  0  0  0  0  0  0  0  0  0
   10.1104  -16.7873   23.7611 C   0  0  1  0  0  0  0  0  0  0  0  0
   11.3373  -17.6423   23.8691 C   0  0  0  0  0  0  0  0  0  0  0  0
   11.1699  -18.9278   23.1703 C   0  0  0  0  0  0  0  0  0  0  0  0
    9.9484  -19.5986   22.9742 C   0  0  0  0  0  0  0  0  0  0  0  0
   10.1979  -20.7270   22.3104 N   0  0  0  0  0  0  0  0  0  0  0  0
   11.5193  -20.8155   22.0691 C   0  0  0  0  0  0  0  0  0  0  0  0
   12.0781  -19.7183   22.5998 N   0  0  0  0  0  0  0  0  0  0  0  0
   10.1026  -15.6517   24.7386 C   0  0  0  0  0  0  0  0  0  0  0  0
   11.0877  -14.8892   24.9315 O   0  0  0  0  0  0  0  0  0  0  0  0
    8.3371  -12.3535   25.6125 C   0  0  0  0  0  0  0  0  0  0  0  0
    7.2932  -12.7330   26.6647 C   0  0  1  0  0  0  0  0  0  0  0  0
    5.9045  -12.5994   26.0405 C   0  0  0  0  0  0  0  0  0  0  0  0
    7.5104  -14.1702   27.0162 C   0  0  0  0  0  0  0  0  0  0  0  0
    8.9082  -14.6027   26.7124 C   0  0  2  0  0  0  0  0  0  0  0  0
    8.9294  -15.4139   25.4863 N   0  0  0  0  0  0  0  0  0  0  0  0
    9.5182  -15.3145   27.8329 C   0  0  0  0  0  0  0  0  0  0  0  0
    9.8865  -16.6275   27.8404 O   0  0  0  0  0  0  0  0  0  0  0  0
    9.7245  -14.6429   28.9192 O   0  0  0  0  0  0  0  0  0  0  0  0
  2  3  1  1
  2  1  1  0
  4  2  1  0
  4  5  1  0
  5  7  1  0
  5  6  1  6
  7  8  2  0
  9 10  1  0
  9  7  1  0
 10 11  1  6
 11 12  1  0
 12 16  1  0
 13 12  2  0
 13 14  1  0
 14 15  1  0
 16 15  2  0
 17 18  2  0
 17 10  1  0
 20 22  1  0
 20 19  1  6
 21 20  1  0
 23 22  1  1
 23 25  1  0
 23 24  1  0
 24 17  1  0
 25 26  1  0
 27 25  2  0
M  END
$$$$
