LHL.pdb
     RDKit          3D

 27 27  0  0  1  0  0  0  0  0999 V2000
    9.9188  -12.6367   19.2064 C   0  0  0  0  0  0  0  0  0  0  0  0
    8.5455  -13.0331   19.7314 C   0  0  1  0  0  0  0  0  0  0  0  0
    7.6721  -11.7915   19.7788 C   0  0  0  0  0  0  0  0  0  0  0  0
    7.9433  -14.1547   18.9486 C   0  0  0  0  0  0  0  0  0  0  0  0
    8.7505  -15.4322   19.0281 C   0  0  2  0  0  0  0  0  0  0  0  0
    8.2137  -16.4216   18.0849 N   0  0  0  0  0  0  0  0  0  0  0  0
    8.7344  -16.0253   20.3692 C   0  0  0  0  0  0  0  0  0  0  0  0
    7.6219  -16.2814   20.8943 O   0  0  0  0  0  0  0  0  0  0  0  0
    9.8820  -16.3380   21.1255 N   0  0  0  0  0  0  0  0  0  0  0  0
    9.7788  -16.9835   22.4541 C   0  0  1  0  0  0  0  0  0  0  0  0
   10.9291  -17.9362   22.5836 C   0  0  0  0  0  0  0  0  0  0  0  0
   10.8647  -18.7021   23.8399 C   0  0  0  0  0  0  0  0  0  0  0  0
    9.8629  -18.5806   24.8208 C   0  0  0  0  0  0  0  0  0  0  0  0
   10.1477  -19.4269   25.8101 N   0  0  0  0  0  0  0  0  0  0  0  0
   11.2828  -20.0873   25.5145 C   0  0  0  0  0  0  0  0  0  0  0  0
   11.6915  -19.6285   24.3227 N   0  0  0  0  0  0  0  0  0  0  0  0
    9.8039  -15.8950   23.4835 C   0  0  0  0  0  0  0  0  0  0  0  0
   10.7220  -15.0355   23.5692 O   0  0  0  0  0  0  0  0  0  0  0  0
    8.1870  -12.1076   26.5013 C   0  0  0  0  0  0  0  0  0  0  0  0
    7.3590  -13.3374   26.8798 C   0  0  1  0  0  0  0  0  0  0  0  0
    5.9107  -12.8995   27.0953 C   0  0  0  0  0  0  0  0  0  0  0  0
    7.3941  -14.2785   25.7182 C   0  0  0  0  0  0  0  0  0  0  0  0
    8.7427  -14.9026   25.5600 C   0  0  2  0  0  0  0  0  0  0  0  0
    8.7420  -15.8189   24.4102 N   0  0  0  0  0  0  0  0  0  0  0  0
    9.1814  -15.5774   26.7791 C   0  0  0  0  0  0  0  0  0  0  0  0
   10.1260  -15.1201   27.6500 O   0  0  0  0  0  0  0  0  0  0  0  0
    8.6297  -16.7138   27.0582 O   0  0  0  0  0  0  0  0  0  0  0  0
  2  3  1  6
  2  1  1  0
  4  2  1  0
  4  5  1  0
  5  7  1  0
  5  6  1  6
  7  8  2  0
  9 10  1  0
  9  7  1  0
 10 11  1  1
 11 12  1  0
 12 16  1  0
 13 12  2  0
 13 14  1  0
 14 15  1  0
 16 15  2  0
 17 18  2  0
 17 10  1  0
 20 22  1  0
 20 19  1  6
 21 20  1  0
 23 22  1  1
 23 25  1  0
 23 24  1  0
 24 17  1  0
 25 26  1  0
 27 25  2  0
M  END
$$$$
