LHL.pdb
     RDKit          3D

 27 27  0  0  1  0  0  0  0  0999 V2000
    7.3590  -11.7942   19.4377 C   0  0  0  0  0  0  0  0  0  0  0  0
    7.9207  -13.1918   19.2139 C   0  0  1  0  0  0  0  0  0  0  0  0
    9.2747  -13.0632   18.5381 C   0  0  0  0  0  0  0  0  0  0  0  0
    7.9584  -13.9942   20.4741 C   0  0  0  0  0  0  0  0  0  0  0  0
    8.5860  -15.3586   20.2884 C   0  0  2  0  0  0  0  0  0  0  0  0
    7.6992  -16.2113   19.4864 N   0  0  0  0  0  0  0  0  0  0  0  0
    8.8422  -16.0382   21.5624 C   0  0  0  0  0  0  0  0  0  0  0  0
    7.8615  -16.4929   22.2030 O   0  0  0  0  0  0  0  0  0  0  0  0
   10.1174  -16.2272   22.1323 N   0  0  0  0  0  0  0  0  0  0  0  0
   10.2965  -16.9931   23.3868 C   0  0  1  0  0  0  0  0  0  0  0  0
   11.5394  -17.8183   23.2383 C   0  0  0  0  0  0  0  0  0  0  0  0
   11.3288  -18.9652   22.3388 C   0  0  0  0  0  0  0  0  0  0  0  0
   10.3301  -19.9460   22.4848 C   0  0  0  0  0  0  0  0  0  0  0  0
   10.4599  -20.8204   21.4875 N   0  0  0  0  0  0  0  0  0  0  0  0
   11.4923  -20.4510   20.7066 C   0  0  0  0  0  0  0  0  0  0  0  0
   11.9961  -19.3312   21.2452 N   0  0  0  0  0  0  0  0  0  0  0  0
   10.3845  -16.0021   24.5073 C   0  0  0  0  0  0  0  0  0  0  0  0
   11.4229  -15.3388   24.7734 O   0  0  0  0  0  0  0  0  0  0  0  0
    6.2406  -12.9852   26.3247 C   0  0  0  0  0  0  0  0  0  0  0  0
    7.6427  -13.4915   25.9799 C   0  0  1  0  0  0  0  0  0  0  0  0
    8.6274  -12.3322   26.1291 C   0  0  0  0  0  0  0  0  0  0  0  0
    8.0018  -14.5407   26.9832 C   0  0  0  0  0  0  0  0  0  0  0  0
    9.3061  -15.1906   26.6524 C   0  0  2  0  0  0  0  0  0  0  0  0
    9.2441  -15.7913   25.3118 N   0  0  0  0  0  0  0  0  0  0  0  0
    9.7005  -16.1732   27.6590 C   0  0  0  0  0  0  0  0  0  0  0  0
    9.7821  -17.5214   27.4708 O   0  0  0  0  0  0  0  0  0  0  0  0
    9.9948  -15.7281   28.8375 O   0  0  0  0  0  0  0  0  0  0  0  0
  2  3  1  1
  2  1  1  0
  4  2  1  0
  4  5  1  0
  5  7  1  0
  5  6  1  6
  7  8  2  0
  9 10  1  0
  9  7  1  0
 10 11  1  6
 11 12  1  0
 12 16  1  0
 13 12  2  0
 13 14  1  0
 14 15  1  0
 16 15  2  0
 17 18  2  0
 17 10  1  0
 20 22  1  0
 20 19  1  1
 21 20  1  0
 23 22  1  1
 23 25  1  0
 23 24  1  0
 24 17  1  0
 25 26  1  0
 27 25  2  0
M  END
$$$$
