LHL.pdb
     RDKit          3D

 27 27  0  0  1  0  0  0  0  0999 V2000
    7.4540  -11.6777   19.4154 C   0  0  0  0  0  0  0  0  0  0  0  0
    8.1925  -12.9994   19.2525 C   0  0  1  0  0  0  0  0  0  0  0  0
    9.6833  -12.7140   19.2018 C   0  0  0  0  0  0  0  0  0  0  0  0
    7.8121  -13.9924   20.3024 C   0  0  0  0  0  0  0  0  0  0  0  0
    8.6420  -15.2567   20.2498 C   0  0  2  0  0  0  0  0  0  0  0  0
    8.0645  -16.1931   19.2770 N   0  0  0  0  0  0  0  0  0  0  0  0
    8.7160  -15.9356   21.5476 C   0  0  0  0  0  0  0  0  0  0  0  0
    7.6742  -16.4743   21.9985 O   0  0  0  0  0  0  0  0  0  0  0  0
    9.8781  -16.0361   22.3389 N   0  0  0  0  0  0  0  0  0  0  0  0
    9.8815  -16.7903   23.6131 C   0  0  1  0  0  0  0  0  0  0  0  0
   11.0207  -17.7634   23.5587 C   0  0  0  0  0  0  0  0  0  0  0  0
   10.7495  -18.8697   22.6251 C   0  0  0  0  0  0  0  0  0  0  0  0
    9.6833  -19.7825   22.7273 C   0  0  0  0  0  0  0  0  0  0  0  0
    9.7721  -20.6381   21.7094 N   0  0  0  0  0  0  0  0  0  0  0  0
   10.8422  -20.3211   20.9569 C   0  0  0  0  0  0  0  0  0  0  0  0
   11.4112  -19.2528   21.5341 N   0  0  0  0  0  0  0  0  0  0  0  0
   10.0185  -15.7929   24.7229 C   0  0  0  0  0  0  0  0  0  0  0  0
   11.0211  -15.0429   24.8683 O   0  0  0  0  0  0  0  0  0  0  0  0
    5.7501  -13.0901   26.7582 C   0  0  0  0  0  0  0  0  0  0  0  0
    7.1374  -13.5095   26.2679 C   0  0  1  0  0  0  0  0  0  0  0  0
    8.0081  -12.2592   26.1482 C   0  0  0  0  0  0  0  0  0  0  0  0
    7.7352  -14.3961   27.3133 C   0  0  0  0  0  0  0  0  0  0  0  0
    9.0810  -14.8981   26.9008 C   0  0  2  0  0  0  0  0  0  0  0  0
    8.9690  -15.6785   25.6598 N   0  0  0  0  0  0  0  0  0  0  0  0
    9.7268  -15.6702   27.9595 C   0  0  0  0  0  0  0  0  0  0  0  0
   10.3499  -15.1552   29.0578 O   0  0  0  0  0  0  0  0  0  0  0  0
    9.7123  -16.9588   27.8457 O   0  0  0  0  0  0  0  0  0  0  0  0
  2  3  1  1
  2  1  1  0
  4  2  1  0
  4  5  1  0
  5  7  1  0
  5  6  1  6
  7  8  2  0
  9 10  1  0
  9  7  1  0
 10 11  1  6
 11 12  1  0
 12 16  1  0
 13 12  2  0
 13 14  1  0
 14 15  1  0
 16 15  2  0
 17 18  2  0
 17 10  1  0
 20 22  1  0
 20 19  1  1
 21 20  1  0
 23 22  1  1
 23 25  1  0
 23 24  1  0
 24 17  1  0
 25 26  1  0
 27 25  2  0
M  END
$$$$
