LHL.pdb
     RDKit          3D

 27 27  0  0  1  0  0  0  0  0999 V2000
    7.6329  -12.8143   24.4463 C   0  0  0  0  0  0  0  0  0  0  0  0
    7.1981  -13.9443   25.3698 C   0  0  1  0  0  0  0  0  0  0  0  0
    6.5380  -13.3367   26.5953 C   0  0  0  0  0  0  0  0  0  0  0  0
    6.3418  -14.9489   24.6693 C   0  0  0  0  0  0  0  0  0  0  0  0
    7.0249  -15.5787   23.4748 C   0  0  2  0  0  0  0  0  0  0  0  0
    6.0959  -16.4863   22.7893 N   0  0  0  0  0  0  0  0  0  0  0  0
    8.2183  -16.3448   23.8485 C   0  0  0  0  0  0  0  0  0  0  0  0
    8.0733  -17.3515   24.5863 O   0  0  0  0  0  0  0  0  0  0  0  0
    9.5321  -16.0401   23.4387 N   0  0  0  0  0  0  0  0  0  0  0  0
   10.6780  -16.8963   23.8207 C   0  0  1  0  0  0  0  0  0  0  0  0
   11.6805  -16.8317   22.7078 C   0  0  0  0  0  0  0  0  0  0  0  0
   11.1180  -17.3208   21.4375 C   0  0  0  0  0  0  0  0  0  0  0  0
   11.0627  -16.5932   20.2342 C   0  0  0  0  0  0  0  0  0  0  0  0
   10.4810  -17.3607   19.3130 N   0  0  0  0  0  0  0  0  0  0  0  0
   10.1595  -18.5462   19.8635 C   0  0  0  0  0  0  0  0  0  0  0  0
   10.5544  -18.4917   21.1437 N   0  0  0  0  0  0  0  0  0  0  0  0
   11.2134  -16.3741   25.1192 C   0  0  0  0  0  0  0  0  0  0  0  0
   12.2512  -15.6648   25.2123 O   0  0  0  0  0  0  0  0  0  0  0  0
    9.3120  -13.4309   28.5509 C   0  0  0  0  0  0  0  0  0  0  0  0
   10.3465  -14.2746   27.8033 C   0  0  1  0  0  0  0  0  0  0  0  0
   11.7110  -13.5991   27.9364 C   0  0  0  0  0  0  0  0  0  0  0  0
   10.4167  -15.6056   28.4813 C   0  0  0  0  0  0  0  0  0  0  0  0
   11.1364  -16.6104   27.6413 C   0  0  2  0  0  0  0  0  0  0  0  0
   10.5204  -16.6867   26.3085 N   0  0  0  0  0  0  0  0  0  0  0  0
   11.1886  -17.9232   28.2802 C   0  0  0  0  0  0  0  0  0  0  0  0
   11.9903  -18.2712   29.3270 O   0  0  0  0  0  0  0  0  0  0  0  0
   10.4087  -18.8420   27.8099 O   0  0  0  0  0  0  0  0  0  0  0  0
  2  3  1  1
  2  1  1  0
  4  2  1  0
  4  5  1  0
  5  7  1  0
  5  6  1  1
  7  8  2  0
  9 10  1  0
  9  7  1  0
 10 11  1  6
 11 12  1  0
 12 16  1  0
 13 12  2  0
 13 14  1  0
 14 15  1  0
 16 15  2  0
 17 18  2  0
 17 10  1  0
 20 22  1  0
 20 19  1  1
 21 20  1  0
 23 22  1  1
 23 25  1  0
 23 24  1  0
 24 17  1  0
 25 26  1  0
 27 25  2  0
M  END
$$$$
