ASY.pdb
     RDKit          3D

 24 24  0  0  1  0  0  0  0  0999 V2000
    8.6483  -12.4641   18.6887 C   0  0  0  0  0  0  0  0  0  0  0  0
    8.7349  -13.8611   18.0700 C   0  0  2  0  0  0  0  0  0  0  0  0
    7.7151  -13.9565   17.0755 N   0  0  0  0  0  0  0  0  0  0  0  0
    8.4639  -14.8774   19.1568 C   0  0  0  0  0  0  0  0  0  0  0  0
    7.3128  -15.0519   19.6055 O   0  0  0  0  0  0  0  0  0  0  0  0
   11.6413  -17.4576   20.8222 O   0  0  0  0  0  0  0  0  0  0  0  0
   10.2792  -17.7190   20.7137 C   0  0  0  0  0  0  0  0  0  0  0  0
    9.4353  -16.4996   20.7801 C   0  0  2  0  0  0  0  0  0  0  0  0
    9.5496  -15.6325   19.6590 N   0  0  0  0  0  0  0  0  0  0  0  0
    9.5682  -15.8421   22.1061 C   0  0  0  0  0  0  0  0  0  0  0  0
   10.1690  -14.7720   22.3345 O   0  0  0  0  0  0  0  0  0  0  0  0
    6.0140  -11.3430   28.2643 O   0  0  0  0  0  0  0  0  0  0  0  0
    6.4188  -12.1450   27.2002 C   0  0  0  0  0  0  0  0  0  0  0  0
    5.6714  -13.2523   26.8872 C   0  0  0  0  0  0  0  0  0  0  0  0
    6.0341  -14.0796   25.8383 C   0  0  0  0  0  0  0  0  0  0  0  0
    7.1634  -13.7904   25.0933 C   0  0  0  0  0  0  0  0  0  0  0  0
    7.5338  -14.6867   23.9768 C   0  0  0  0  0  0  0  0  0  0  0  0
    8.5848  -15.7067   24.4189 C   0  0  2  0  0  0  0  0  0  0  0  0
    8.9670  -16.4658   23.2254 N   0  0  0  0  0  0  0  0  0  0  0  0
    8.0910  -16.5729   25.4871 C   0  0  0  0  0  0  0  0  0  0  0  0
    8.4428  -16.3447   26.8014 O   0  0  0  0  0  0  0  0  0  0  0  0
    7.9011  -12.6744   25.4226 C   0  0  0  0  0  0  0  0  0  0  0  0
    7.5329  -11.8666   26.4593 C   0  0  0  0  0  0  0  0  0  0  0  0
    7.3407  -17.5358   25.2252 O   0  0  0  0  0  0  0  0  0  0  0  0
  2  1  1  1
  2  3  1  0
  4  2  1  0
  4  9  1  0
  5  4  2  0
  6  7  1  0
  8 10  1  0
  8  7  1  6
  8  9  1  0
 10 19  1  0
 11 10  2  0
 13 12  1  0
 14 13  2  0
 15 14  1  0
 16 22  1  0
 16 15  2  0
 17 16  1  0
 18 17  1  6
 19 18  1  0
 20 18  1  0
 21 20  1  0
 22 23  2  0
 23 13  1  0
 24 20  2  0
M  END
$$$$
