ASY.pdb
     RDKit          3D

 24 24  0  0  1  0  0  0  0  0999 V2000
   11.2892  -17.5181   16.5822 C   0  0  0  0  0  0  0  0  0  0  0  0
    9.8044  -17.8843   16.6399 C   0  0  2  0  0  0  0  0  0  0  0  0
    9.1160  -17.0423   15.7152 N   0  0  0  0  0  0  0  0  0  0  0  0
    9.3013  -17.6007   18.0378 C   0  0  0  0  0  0  0  0  0  0  0  0
    8.6972  -16.5421   18.3044 O   0  0  0  0  0  0  0  0  0  0  0  0
   10.1595  -20.3686   21.2594 O   0  0  0  0  0  0  0  0  0  0  0  0
    8.9501  -19.6910   21.1424 C   0  0  0  0  0  0  0  0  0  0  0  0
    9.0536  -18.4232   20.3770 C   0  0  2  0  0  0  0  0  0  0  0  0
    9.5306  -18.5668   19.0454 N   0  0  0  0  0  0  0  0  0  0  0  0
    9.7339  -17.3778   21.1848 C   0  0  0  0  0  0  0  0  0  0  0  0
   10.9353  -17.0510   21.0947 O   0  0  0  0  0  0  0  0  0  0  0  0
    7.6753  -12.7487   17.5381 O   0  0  0  0  0  0  0  0  0  0  0  0
    7.9235  -13.1458   18.8496 C   0  0  0  0  0  0  0  0  0  0  0  0
    6.9389  -13.8122   19.5345 C   0  0  0  0  0  0  0  0  0  0  0  0
    7.1390  -14.2268   20.8400 C   0  0  0  0  0  0  0  0  0  0  0  0
    8.3453  -13.9682   21.4663 C   0  0  0  0  0  0  0  0  0  0  0  0
    8.5392  -14.4194   22.8612 C   0  0  0  0  0  0  0  0  0  0  0  0
    9.5409  -15.5738   22.9292 C   0  0  2  0  0  0  0  0  0  0  0  0
    8.9717  -16.6752   22.1484 N   0  0  0  0  0  0  0  0  0  0  0  0
    9.8292  -15.9673   24.3065 C   0  0  0  0  0  0  0  0  0  0  0  0
    9.4554  -17.2079   24.7800 O   0  0  0  0  0  0  0  0  0  0  0  0
    9.3218  -13.2979   20.7625 C   0  0  0  0  0  0  0  0  0  0  0  0
    9.1120  -12.8944   19.4756 C   0  0  0  0  0  0  0  0  0  0  0  0
   10.4203  -15.1837   25.0780 O   0  0  0  0  0  0  0  0  0  0  0  0
  2  1  1  1
  2  3  1  0
  4  2  1  0
  4  9  1  0
  5  4  2  0
  6  7  1  0
  8 10  1  0
  8  7  1  1
  8  9  1  0
 10 19  1  0
 11 10  2  0
 13 12  1  0
 14 13  2  0
 15 14  1  0
 16 22  1  0
 16 15  2  0
 17 16  1  0
 18 17  1  1
 19 18  1  0
 20 18  1  0
 21 20  1  0
 22 23  2  0
 23 13  1  0
 24 20  2  0
M  END
$$$$
