ASY.pdb
     RDKit          3D

 24 24  0  0  1  0  0  0  0  0999 V2000
    8.3195  -12.1459   19.9691 C   0  0  0  0  0  0  0  0  0  0  0  0
    8.0414  -13.5557   19.4427 C   0  0  2  0  0  0  0  0  0  0  0  0
    6.8051  -13.5141   18.7300 N   0  0  0  0  0  0  0  0  0  0  0  0
    7.8988  -14.4837   20.6285 C   0  0  0  0  0  0  0  0  0  0  0  0
    6.9024  -14.4266   21.3772 O   0  0  0  0  0  0  0  0  0  0  0  0
   10.7906  -17.6590   21.2616 O   0  0  0  0  0  0  0  0  0  0  0  0
    9.4394  -17.7111   21.5884 C   0  0  0  0  0  0  0  0  0  0  0  0
    8.8593  -16.3857   21.9208 C   0  0  2  0  0  0  0  0  0  0  0  0
    8.9255  -15.4255   20.8743 N   0  0  0  0  0  0  0  0  0  0  0  0
    9.3484  -15.9166   23.2433 C   0  0  0  0  0  0  0  0  0  0  0  0
   10.2260  -15.0493   23.4324 O   0  0  0  0  0  0  0  0  0  0  0  0
    6.2882  -10.7010   26.3161 O   0  0  0  0  0  0  0  0  0  0  0  0
    6.7137  -12.0249   26.3908 C   0  0  0  0  0  0  0  0  0  0  0  0
    7.9628  -12.2889   26.8934 C   0  0  0  0  0  0  0  0  0  0  0  0
    8.4295  -13.5887   26.9872 C   0  0  0  0  0  0  0  0  0  0  0  0
    7.6301  -14.6381   26.5703 C   0  0  0  0  0  0  0  0  0  0  0  0
    8.1472  -16.0193   26.6788 C   0  0  0  0  0  0  0  0  0  0  0  0
    9.3359  -16.2345   25.7399 C   0  0  2  0  0  0  0  0  0  0  0  0
    8.7825  -16.4892   24.4074 N   0  0  0  0  0  0  0  0  0  0  0  0
   10.2013  -17.3210   26.1933 C   0  0  0  0  0  0  0  0  0  0  0  0
   10.3518  -18.4662   25.4389 O   0  0  0  0  0  0  0  0  0  0  0  0
    6.3791  -14.3533   26.0685 C   0  0  0  0  0  0  0  0  0  0  0  0
    5.9304  -13.0672   25.9812 C   0  0  0  0  0  0  0  0  0  0  0  0
   10.8194  -17.2288   27.2740 O   0  0  0  0  0  0  0  0  0  0  0  0
  2  1  1  1
  2  3  1  0
  4  2  1  0
  4  9  1  0
  5  4  2  0
  6  7  1  0
  8 10  1  0
  8  7  1  6
  8  9  1  0
 10 19  1  0
 11 10  2  0
 13 12  1  0
 14 13  2  0
 15 14  1  0
 16 22  1  0
 16 15  2  0
 17 16  1  0
 18 17  1  1
 19 18  1  0
 20 18  1  0
 21 20  1  0
 22 23  2  0
 23 13  1  0
 24 20  2  0
M  END
$$$$
