ASY.pdb
     RDKit          3D

 24 24  0  0  1  0  0  0  0  0999 V2000
    7.5178  -14.2931   16.5885 C   0  0  0  0  0  0  0  0  0  0  0  0
    8.5102  -13.8816   17.6784 C   0  0  2  0  0  0  0  0  0  0  0  0
    9.5317  -14.8776   17.7302 N   0  0  0  0  0  0  0  0  0  0  0  0
    7.7764  -13.8552   19.0007 C   0  0  0  0  0  0  0  0  0  0  0  0
    6.6506  -13.3273   19.1042 O   0  0  0  0  0  0  0  0  0  0  0  0
    6.6394  -16.7863   20.9654 O   0  0  0  0  0  0  0  0  0  0  0  0
    6.4483  -15.4348   21.2341 C   0  0  0  0  0  0  0  0  0  0  0  0
    7.7151  -14.6704   21.3548 C   0  0  2  0  0  0  0  0  0  0  0  0
    8.3961  -14.4454   20.1271 N   0  0  0  0  0  0  0  0  0  0  0  0
    8.5533  -15.2158   22.4540 C   0  0  0  0  0  0  0  0  0  0  0  0
    9.3594  -16.1640   22.3569 O   0  0  0  0  0  0  0  0  0  0  0  0
   11.5686  -15.7331   30.7830 O   0  0  0  0  0  0  0  0  0  0  0  0
   10.9524  -15.3629   29.5903 C   0  0  0  0  0  0  0  0  0  0  0  0
    9.9861  -14.3894   29.6215 C   0  0  0  0  0  0  0  0  0  0  0  0
    9.3457  -13.9881   28.4618 C   0  0  0  0  0  0  0  0  0  0  0  0
    9.6807  -14.5731   27.2536 C   0  0  0  0  0  0  0  0  0  0  0  0
    8.9849  -14.1304   26.0261 C   0  0  0  0  0  0  0  0  0  0  0  0
    9.2081  -15.1216   24.8823 C   0  0  2  0  0  0  0  0  0  0  0  0
    8.4463  -14.6226   23.7345 N   0  0  0  0  0  0  0  0  0  0  0  0
    8.8187  -16.4805   25.2524 C   0  0  0  0  0  0  0  0  0  0  0  0
    7.4937  -16.8642   25.2392 O   0  0  0  0  0  0  0  0  0  0  0  0
   10.6533  -15.5488   27.2422 C   0  0  0  0  0  0  0  0  0  0  0  0
   11.2775  -15.9356   28.3928 C   0  0  0  0  0  0  0  0  0  0  0  0
    9.6825  -17.3173   25.5873 O   0  0  0  0  0  0  0  0  0  0  0  0
  2  1  1  6
  2  3  1  0
  4  2  1  0
  4  9  1  0
  5  4  2  0
  6  7  1  0
  8 10  1  0
  8  7  1  6
  8  9  1  0
 10 19  1  0
 11 10  2  0
 13 12  1  0
 14 13  2  0
 15 14  1  0
 16 22  1  0
 16 15  2  0
 17 16  1  0
 18 17  1  1
 19 18  1  0
 20 18  1  0
 21 20  1  0
 22 23  2  0
 23 13  1  0
 24 20  2  0
M  END
$$$$
