ASY.pdb
     RDKit          3D

 24 24  0  0  1  0  0  0  0  0999 V2000
   11.1856  -20.3760   20.1953 C   0  0  0  0  0  0  0  0  0  0  0  0
   10.8981  -19.3354   19.1108 C   0  0  2  0  0  0  0  0  0  0  0  0
   12.0894  -19.1739   18.3409 N   0  0  0  0  0  0  0  0  0  0  0  0
   10.5650  -18.0251   19.7889 C   0  0  0  0  0  0  0  0  0  0  0  0
   11.4600  -17.2147   20.1034 O   0  0  0  0  0  0  0  0  0  0  0  0
    6.4287  -16.9876   20.6368 O   0  0  0  0  0  0  0  0  0  0  0  0
    7.4490  -16.0673   20.4193 C   0  0  0  0  0  0  0  0  0  0  0  0
    8.7947  -16.5790   20.7814 C   0  0  2  0  0  0  0  0  0  0  0  0
    9.2078  -17.7338   20.0621 N   0  0  0  0  0  0  0  0  0  0  0  0
    8.9428  -16.6649   22.2575 C   0  0  0  0  0  0  0  0  0  0  0  0
    8.4456  -17.5432   22.9921 O   0  0  0  0  0  0  0  0  0  0  0  0
    5.7936  -11.3086   28.0005 O   0  0  0  0  0  0  0  0  0  0  0  0
    6.3716  -11.9667   26.9178 C   0  0  0  0  0  0  0  0  0  0  0  0
    5.9590  -13.2419   26.6243 C   0  0  0  0  0  0  0  0  0  0  0  0
    6.5043  -13.9362   25.5581 C   0  0  0  0  0  0  0  0  0  0  0  0
    7.4778  -13.3410   24.7757 C   0  0  0  0  0  0  0  0  0  0  0  0
    8.0476  -14.0995   23.6413 C   0  0  0  0  0  0  0  0  0  0  0  0
    9.2189  -14.9711   24.0985 C   0  0  2  0  0  0  0  0  0  0  0  0
    9.7129  -15.6738   22.9115 N   0  0  0  0  0  0  0  0  0  0  0  0
    8.8309  -15.8942   25.1626 C   0  0  0  0  0  0  0  0  0  0  0  0
    9.4661  -15.8683   26.3870 O   0  0  0  0  0  0  0  0  0  0  0  0
    7.8792  -12.0601   25.0859 C   0  0  0  0  0  0  0  0  0  0  0  0
    7.3337  -11.3861   26.1400 C   0  0  0  0  0  0  0  0  0  0  0  0
    7.9155  -16.7230   24.9789 O   0  0  0  0  0  0  0  0  0  0  0  0
  2  1  1  1
  2  3  1  0
  4  2  1  0
  4  9  1  0
  5  4  2  0
  6  7  1  0
  8 10  1  0
  8  7  1  1
  8  9  1  0
 10 19  1  0
 11 10  2  0
 13 12  1  0
 14 13  2  0
 15 14  1  0
 16 22  1  0
 16 15  2  0
 17 16  1  0
 18 17  1  6
 19 18  1  0
 20 18  1  0
 21 20  1  0
 22 23  2  0
 23 13  1  0
 24 20  2  0
M  END
$$$$
