ASY.pdb
     RDKit          3D

 24 24  0  0  1  0  0  0  0  0999 V2000
    8.8489  -12.4062   18.9035 C   0  0  0  0  0  0  0  0  0  0  0  0
    8.6082  -13.8405   18.4273 C   0  0  2  0  0  0  0  0  0  0  0  0
    7.6812  -13.7853   17.3429 N   0  0  0  0  0  0  0  0  0  0  0  0
    7.9915  -14.6201   19.5672 C   0  0  0  0  0  0  0  0  0  0  0  0
    6.8164  -15.0348   19.5049 O   0  0  0  0  0  0  0  0  0  0  0  0
    8.9920  -17.9747   20.7842 O   0  0  0  0  0  0  0  0  0  0  0  0
    7.9548  -17.1326   21.1719 C   0  0  0  0  0  0  0  0  0  0  0  0
    8.4198  -15.8274   21.7048 C   0  0  2  0  0  0  0  0  0  0  0  0
    8.7793  -14.8721   20.7149 N   0  0  0  0  0  0  0  0  0  0  0  0
    9.4209  -16.0290   22.7843 C   0  0  0  0  0  0  0  0  0  0  0  0
   10.5898  -16.4389   22.6299 O   0  0  0  0  0  0  0  0  0  0  0  0
    4.9342  -12.3636   26.8529 O   0  0  0  0  0  0  0  0  0  0  0  0
    6.1976  -12.9163   26.6589 C   0  0  0  0  0  0  0  0  0  0  0  0
    6.8666  -12.6398   25.4933 C   0  0  0  0  0  0  0  0  0  0  0  0
    8.1245  -13.1662   25.2554 C   0  0  0  0  0  0  0  0  0  0  0  0
    8.7189  -13.9818   26.2018 C   0  0  0  0  0  0  0  0  0  0  0  0
   10.0632  -14.5341   25.9286 C   0  0  0  0  0  0  0  0  0  0  0  0
    9.9659  -15.8957   25.2378 C   0  0  2  0  0  0  0  0  0  0  0  0
    9.0382  -15.7358   24.1150 N   0  0  0  0  0  0  0  0  0  0  0  0
    9.5391  -16.9469   26.1587 C   0  0  0  0  0  0  0  0  0  0  0  0
    8.3775  -17.6558   25.9323 O   0  0  0  0  0  0  0  0  0  0  0  0
    8.0318  -14.2479   27.3659 C   0  0  0  0  0  0  0  0  0  0  0  0
    6.7918  -13.7228   27.5885 C   0  0  0  0  0  0  0  0  0  0  0  0
   10.2218  -17.2199   27.1676 O   0  0  0  0  0  0  0  0  0  0  0  0
  2  1  1  1
  2  3  1  0
  4  2  1  0
  4  9  1  0
  5  4  2  0
  6  7  1  0
  8 10  1  0
  8  7  1  6
  8  9  1  0
 10 19  1  0
 11 10  2  0
 13 12  1  0
 14 13  2  0
 15 14  1  0
 16 22  1  0
 16 15  2  0
 17 16  1  0
 18 17  1  1
 19 18  1  0
 20 18  1  0
 21 20  1  0
 22 23  2  0
 23 13  1  0
 24 20  2  0
M  END
$$$$
