ASY.pdb
     RDKit          3D

 24 24  0  0  1  0  0  0  0  0999 V2000
    8.3853  -12.1944   18.9390 C   0  0  0  0  0  0  0  0  0  0  0  0
    8.2588  -13.6073   18.3648 C   0  0  2  0  0  0  0  0  0  0  0  0
    7.0793  -13.6425   17.5612 N   0  0  0  0  0  0  0  0  0  0  0  0
    8.1021  -14.5739   19.5175 C   0  0  0  0  0  0  0  0  0  0  0  0
    7.0167  -14.6874   20.1224 O   0  0  0  0  0  0  0  0  0  0  0  0
   10.9648  -17.7219   20.3129 O   0  0  0  0  0  0  0  0  0  0  0  0
    9.6311  -17.6317   20.6983 C   0  0  0  0  0  0  0  0  0  0  0  0
    9.1965  -16.2460   21.0063 C   0  0  2  0  0  0  0  0  0  0  0  0
    9.2191  -15.3533   19.8998 N   0  0  0  0  0  0  0  0  0  0  0  0
    9.8658  -15.7482   22.2361 C   0  0  0  0  0  0  0  0  0  0  0  0
   10.9325  -15.1012   22.2770 O   0  0  0  0  0  0  0  0  0  0  0  0
   10.9080  -14.8271   30.9678 O   0  0  0  0  0  0  0  0  0  0  0  0
   10.3986  -14.9113   29.6744 C   0  0  0  0  0  0  0  0  0  0  0  0
    9.9888  -16.1338   29.2052 C   0  0  0  0  0  0  0  0  0  0  0  0
    9.4758  -16.2672   27.9266 C   0  0  0  0  0  0  0  0  0  0  0  0
    9.3729  -15.1569   27.1076 C   0  0  0  0  0  0  0  0  0  0  0  0
    8.8222  -15.3205   25.7449 C   0  0  0  0  0  0  0  0  0  0  0  0
    9.9218  -15.7018   24.7519 C   0  0  2  0  0  0  0  0  0  0  0  0
    9.2574  -16.0187   23.4851 N   0  0  0  0  0  0  0  0  0  0  0  0
   10.7371  -16.8124   25.2386 C   0  0  0  0  0  0  0  0  0  0  0  0
   10.2762  -18.1108   25.1691 O   0  0  0  0  0  0  0  0  0  0  0  0
    9.7895  -13.9379   27.5962 C   0  0  0  0  0  0  0  0  0  0  0  0
   10.2937  -13.8196   28.8591 C   0  0  0  0  0  0  0  0  0  0  0  0
   11.8669  -16.6019   25.7262 O   0  0  0  0  0  0  0  0  0  0  0  0
  2  1  1  1
  2  3  1  0
  4  2  1  0
  4  9  1  0
  5  4  2  0
  6  7  1  0
  8 10  1  0
  8  7  1  6
  8  9  1  0
 10 19  1  0
 11 10  2  0
 13 12  1  0
 14 13  2  0
 15 14  1  0
 16 22  1  0
 16 15  2  0
 17 16  1  0
 18 17  1  1
 19 18  1  0
 20 18  1  0
 21 20  1  0
 22 23  2  0
 23 13  1  0
 24 20  2  0
M  END
$$$$
