ASY.pdb
     RDKit          3D

 24 24  0  0  1  0  0  0  0  0999 V2000
    7.8791  -12.1774   20.2518 C   0  0  0  0  0  0  0  0  0  0  0  0
    8.1906  -13.5276   19.6024 C   0  0  2  0  0  0  0  0  0  0  0  0
    7.2505  -13.7258   18.5464 N   0  0  0  0  0  0  0  0  0  0  0  0
    8.0012  -14.6081   20.6437 C   0  0  0  0  0  0  0  0  0  0  0  0
    6.8870  -14.8135   21.1662 O   0  0  0  0  0  0  0  0  0  0  0  0
   10.9499  -17.6471   21.2406 O   0  0  0  0  0  0  0  0  0  0  0  0
    9.6220  -17.6995   21.6522 C   0  0  0  0  0  0  0  0  0  0  0  0
    9.0691  -16.3768   22.0372 C   0  0  2  0  0  0  0  0  0  0  0  0
    9.1211  -15.3879   21.0169 N   0  0  0  0  0  0  0  0  0  0  0  0
    9.5988  -15.9522   23.3591 C   0  0  0  0  0  0  0  0  0  0  0  0
   10.5821  -15.2065   23.5472 O   0  0  0  0  0  0  0  0  0  0  0  0
    5.9884  -10.8657   25.9154 O   0  0  0  0  0  0  0  0  0  0  0  0
    6.5873  -12.1013   26.1473 C   0  0  0  0  0  0  0  0  0  0  0  0
    5.9337  -13.2376   25.7417 C   0  0  0  0  0  0  0  0  0  0  0  0
    6.4892  -14.4882   25.9504 C   0  0  0  0  0  0  0  0  0  0  0  0
    7.7185  -14.5990   26.5754 C   0  0  0  0  0  0  0  0  0  0  0  0
    8.2948  -15.9441   26.7890 C   0  0  0  0  0  0  0  0  0  0  0  0
    9.4893  -16.1815   25.8630 C   0  0  2  0  0  0  0  0  0  0  0  0
    8.9460  -16.4218   24.5237 N   0  0  0  0  0  0  0  0  0  0  0  0
   10.3270  -17.2866   26.3235 C   0  0  0  0  0  0  0  0  0  0  0  0
   10.4164  -18.4558   25.5967 O   0  0  0  0  0  0  0  0  0  0  0  0
    8.3595  -13.4469   26.9755 C   0  0  0  0  0  0  0  0  0  0  0  0
    7.8011  -12.2196   26.7639 C   0  0  0  0  0  0  0  0  0  0  0  0
   10.9764  -17.1888   27.3851 O   0  0  0  0  0  0  0  0  0  0  0  0
  2  1  1  1
  2  3  1  0
  4  2  1  0
  4  9  1  0
  5  4  2  0
  6  7  1  0
  8 10  1  0
  8  7  1  6
  8  9  1  0
 10 19  1  0
 11 10  2  0
 13 12  1  0
 14 13  2  0
 15 14  1  0
 16 22  1  0
 16 15  2  0
 17 16  1  0
 18 17  1  1
 19 18  1  0
 20 18  1  0
 21 20  1  0
 22 23  2  0
 23 13  1  0
 24 20  2  0
M  END
$$$$
