ASY.pdb
     RDKit          3D

 24 24  0  0  1  0  0  0  0  0999 V2000
    8.6698  -12.1328   19.5817 C   0  0  0  0  0  0  0  0  0  0  0  0
    8.5279  -13.5586   19.0445 C   0  0  2  0  0  0  0  0  0  0  0  0
    7.4766  -13.5533   18.0787 N   0  0  0  0  0  0  0  0  0  0  0  0
    8.1396  -14.4609   20.1947 C   0  0  0  0  0  0  0  0  0  0  0  0
    6.9430  -14.6420   20.4981 O   0  0  0  0  0  0  0  0  0  0  0  0
   10.5111  -17.7039   21.0358 O   0  0  0  0  0  0  0  0  0  0  0  0
    9.1892  -17.4998   21.4183 C   0  0  0  0  0  0  0  0  0  0  0  0
    8.9152  -16.1180   21.8866 C   0  0  2  0  0  0  0  0  0  0  0  0
    9.1678  -15.1008   20.9259 N   0  0  0  0  0  0  0  0  0  0  0  0
    9.5183  -15.8894   23.2254 C   0  0  0  0  0  0  0  0  0  0  0  0
   10.6201  -15.3464   23.4476 O   0  0  0  0  0  0  0  0  0  0  0  0
    6.1124  -10.6957   26.0223 O   0  0  0  0  0  0  0  0  0  0  0  0
    6.5749  -12.0013   26.1664 C   0  0  0  0  0  0  0  0  0  0  0  0
    7.8835  -12.2014   26.5273 C   0  0  0  0  0  0  0  0  0  0  0  0
    8.3888  -13.4807   26.6827 C   0  0  0  0  0  0  0  0  0  0  0  0
    7.5681  -14.5745   26.4725 C   0  0  0  0  0  0  0  0  0  0  0  0
    8.1271  -15.9328   26.6437 C   0  0  0  0  0  0  0  0  0  0  0  0
    9.3281  -16.1510   25.7213 C   0  0  2  0  0  0  0  0  0  0  0  0
    8.7969  -16.3160   24.3658 N   0  0  0  0  0  0  0  0  0  0  0  0
   10.1373  -17.2940   26.1381 C   0  0  0  0  0  0  0  0  0  0  0  0
   10.9332  -17.2238   27.2627 O   0  0  0  0  0  0  0  0  0  0  0  0
    6.2572  -14.3536   26.1107 C   0  0  0  0  0  0  0  0  0  0  0  0
    5.7709  -13.0871   25.9607 C   0  0  0  0  0  0  0  0  0  0  0  0
   10.1203  -18.3549   25.4803 O   0  0  0  0  0  0  0  0  0  0  0  0
  2  1  1  1
  2  3  1  0
  4  2  1  0
  4  9  1  0
  5  4  2  0
  6  7  1  0
  8 10  1  0
  8  7  1  6
  8  9  1  0
 10 19  1  0
 11 10  2  0
 13 12  1  0
 14 13  2  0
 15 14  1  0
 16 22  1  0
 16 15  2  0
 17 16  1  0
 18 17  1  1
 19 18  1  0
 20 18  1  0
 21 20  1  0
 22 23  2  0
 23 13  1  0
 24 20  2  0
M  END
$$$$
