ASY.pdb
     RDKit          3D

 24 24  0  0  1  0  0  0  0  0999 V2000
    9.2697  -12.2603   19.2302 C   0  0  0  0  0  0  0  0  0  0  0  0
    8.7772  -13.5910   18.6571 C   0  0  2  0  0  0  0  0  0  0  0  0
    7.8117  -13.2953   17.6479 N   0  0  0  0  0  0  0  0  0  0  0  0
    8.1089  -14.3670   19.7701 C   0  0  0  0  0  0  0  0  0  0  0  0
    6.9085  -14.6990   19.6956 O   0  0  0  0  0  0  0  0  0  0  0  0
    8.9106  -17.7621   20.7513 O   0  0  0  0  0  0  0  0  0  0  0  0
    7.9244  -16.9366   21.2816 C   0  0  0  0  0  0  0  0  0  0  0  0
    8.4553  -15.6773   21.8613 C   0  0  2  0  0  0  0  0  0  0  0  0
    8.8774  -14.7119   20.9066 N   0  0  0  0  0  0  0  0  0  0  0  0
    9.4323  -15.9692   22.9422 C   0  0  0  0  0  0  0  0  0  0  0  0
   10.3484  -16.8155   22.8904 O   0  0  0  0  0  0  0  0  0  0  0  0
    5.6039  -10.9788   26.6272 O   0  0  0  0  0  0  0  0  0  0  0  0
    6.2643  -12.1991   26.5078 C   0  0  0  0  0  0  0  0  0  0  0  0
    5.5531  -13.2959   26.0910 C   0  0  0  0  0  0  0  0  0  0  0  0
    6.1659  -14.5298   25.9572 C   0  0  0  0  0  0  0  0  0  0  0  0
    7.5123  -14.6638   26.2463 C   0  0  0  0  0  0  0  0  0  0  0  0
    8.1483  -15.9906   26.0970 C   0  0  0  0  0  0  0  0  0  0  0  0
    9.5313  -15.8658   25.4550 C   0  0  2  0  0  0  0  0  0  0  0  0
    9.3361  -15.2338   24.1476 N   0  0  0  0  0  0  0  0  0  0  0  0
   10.2025  -17.1592   25.3462 C   0  0  0  0  0  0  0  0  0  0  0  0
   11.3200  -17.4413   26.1042 O   0  0  0  0  0  0  0  0  0  0  0  0
    8.2097  -13.5513   26.6634 C   0  0  0  0  0  0  0  0  0  0  0  0
    7.5937  -12.3400   26.7913 C   0  0  0  0  0  0  0  0  0  0  0  0
    9.7729  -18.0311   24.5628 O   0  0  0  0  0  0  0  0  0  0  0  0
  2  1  1  1
  2  3  1  0
  4  2  1  0
  4  9  1  0
  5  4  2  0
  6  7  1  0
  8 10  1  0
  8  7  1  6
  8  9  1  0
 10 19  1  0
 11 10  2  0
 13 12  1  0
 14 13  2  0
 15 14  1  0
 16 22  1  0
 16 15  2  0
 17 16  1  0
 18 17  1  6
 19 18  1  0
 20 18  1  0
 21 20  1  0
 22 23  2  0
 23 13  1  0
 24 20  2  0
M  END
$$$$
