ASY.pdb
     RDKit          3D

 24 24  0  0  1  0  0  0  0  0999 V2000
    8.6704  -12.2293   19.7436 C   0  0  0  0  0  0  0  0  0  0  0  0
    8.4776  -13.6153   19.1241 C   0  0  2  0  0  0  0  0  0  0  0  0
    7.3912  -13.5286   18.2020 N   0  0  0  0  0  0  0  0  0  0  0  0
    8.1133  -14.5809   20.2297 C   0  0  0  0  0  0  0  0  0  0  0  0
    6.9297  -14.7259   20.5967 O   0  0  0  0  0  0  0  0  0  0  0  0
   10.7038  -17.7830   21.1931 O   0  0  0  0  0  0  0  0  0  0  0  0
    9.3413  -17.6864   21.4568 C   0  0  0  0  0  0  0  0  0  0  0  0
    8.9066  -16.3173   21.8316 C   0  0  2  0  0  0  0  0  0  0  0  0
    9.1490  -15.3228   20.8448 N   0  0  0  0  0  0  0  0  0  0  0  0
    9.3703  -15.9771   23.2018 C   0  0  0  0  0  0  0  0  0  0  0  0
   10.3954  -15.3236   23.4853 O   0  0  0  0  0  0  0  0  0  0  0  0
    6.0198  -10.6047   26.2121 O   0  0  0  0  0  0  0  0  0  0  0  0
    6.4794  -11.9163   26.3000 C   0  0  0  0  0  0  0  0  0  0  0  0
    5.6697  -12.9303   25.8541 C   0  0  0  0  0  0  0  0  0  0  0  0
    6.0831  -14.2496   25.9209 C   0  0  0  0  0  0  0  0  0  0  0  0
    7.3275  -14.5547   26.4429 C   0  0  0  0  0  0  0  0  0  0  0  0
    7.7505  -15.9704   26.5055 C   0  0  0  0  0  0  0  0  0  0  0  0
    9.0209  -16.1992   25.6843 C   0  0  2  0  0  0  0  0  0  0  0  0
    8.5962  -16.4221   24.2999 N   0  0  0  0  0  0  0  0  0  0  0  0
    9.8140  -17.3117   26.2024 C   0  0  0  0  0  0  0  0  0  0  0  0
   10.6211  -17.1489   27.3094 O   0  0  0  0  0  0  0  0  0  0  0  0
    8.1264  -13.5232   26.8855 C   0  0  0  0  0  0  0  0  0  0  0  0
    7.7071  -12.2262   26.8142 C   0  0  0  0  0  0  0  0  0  0  0  0
    9.7729  -18.4300   25.6491 O   0  0  0  0  0  0  0  0  0  0  0  0
  2  1  1  1
  2  3  1  0
  4  2  1  0
  4  9  1  0
  5  4  2  0
  6  7  1  0
  8 10  1  0
  8  7  1  6
  8  9  1  0
 10 19  1  0
 11 10  2  0
 13 12  1  0
 14 13  2  0
 15 14  1  0
 16 22  1  0
 16 15  2  0
 17 16  1  0
 18 17  1  1
 19 18  1  0
 20 18  1  0
 21 20  1  0
 22 23  2  0
 23 13  1  0
 24 20  2  0
M  END
$$$$
