ASY.pdb
     RDKit          3D

 24 24  0  0  1  0  0  0  0  0999 V2000
    8.3081  -12.0602   19.9713 C   0  0  0  0  0  0  0  0  0  0  0  0
    8.4648  -13.3671   19.1908 C   0  0  2  0  0  0  0  0  0  0  0  0
    7.5154  -13.3496   18.1247 N   0  0  0  0  0  0  0  0  0  0  0  0
    8.1435  -14.5153   20.1215 C   0  0  0  0  0  0  0  0  0  0  0  0
    7.0095  -15.0353   20.1382 O   0  0  0  0  0  0  0  0  0  0  0  0
   10.4631  -17.6191   20.8221 O   0  0  0  0  0  0  0  0  0  0  0  0
    9.1761  -17.4187   21.3108 C   0  0  0  0  0  0  0  0  0  0  0  0
    8.9662  -16.0676   21.8889 C   0  0  2  0  0  0  0  0  0  0  0  0
    9.1620  -14.9921   20.9798 N   0  0  0  0  0  0  0  0  0  0  0  0
    9.6768  -15.9373   23.1875 C   0  0  0  0  0  0  0  0  0  0  0  0
   10.8343  -15.4978   23.3464 O   0  0  0  0  0  0  0  0  0  0  0  0
    5.9411  -10.9929   25.7536 O   0  0  0  0  0  0  0  0  0  0  0  0
    6.5279  -12.2378   25.9663 C   0  0  0  0  0  0  0  0  0  0  0  0
    7.7819  -12.2899   26.5208 C   0  0  0  0  0  0  0  0  0  0  0  0
    8.4058  -13.5038   26.7512 C   0  0  0  0  0  0  0  0  0  0  0  0
    7.7610  -14.6822   26.4198 C   0  0  0  0  0  0  0  0  0  0  0  0
    8.4447  -15.9687   26.6738 C   0  0  0  0  0  0  0  0  0  0  0  0
    9.5985  -16.1790   25.6914 C   0  0  2  0  0  0  0  0  0  0  0  0
    9.0004  -16.3402   24.3636 N   0  0  0  0  0  0  0  0  0  0  0  0
   10.4312  -17.3211   26.0622 C   0  0  0  0  0  0  0  0  0  0  0  0
   11.3123  -17.2391   27.1206 O   0  0  0  0  0  0  0  0  0  0  0  0
    6.5024  -14.6098   25.8640 C   0  0  0  0  0  0  0  0  0  0  0  0
    5.8979  -13.4064   25.6419 C   0  0  0  0  0  0  0  0  0  0  0  0
   10.3572  -18.3917   25.4245 O   0  0  0  0  0  0  0  0  0  0  0  0
  2  1  1  1
  2  3  1  0
  4  2  1  0
  4  9  1  0
  5  4  2  0
  6  7  1  0
  8 10  1  0
  8  7  1  6
  8  9  1  0
 10 19  1  0
 11 10  2  0
 13 12  1  0
 14 13  2  0
 15 14  1  0
 16 22  1  0
 16 15  2  0
 17 16  1  0
 18 17  1  1
 19 18  1  0
 20 18  1  0
 21 20  1  0
 22 23  2  0
 23 13  1  0
 24 20  2  0
M  END
$$$$
