ASY.pdb
     RDKit          3D

 24 24  0  0  1  0  0  0  0  0999 V2000
    8.6318  -12.0873   18.6271 C   0  0  0  0  0  0  0  0  0  0  0  0
    8.3260  -13.5371   18.2446 C   0  0  2  0  0  0  0  0  0  0  0  0
    7.3423  -13.5122   17.2102 N   0  0  0  0  0  0  0  0  0  0  0  0
    7.7521  -14.2353   19.4573 C   0  0  0  0  0  0  0  0  0  0  0  0
    6.6832  -13.8547   19.9762 O   0  0  0  0  0  0  0  0  0  0  0  0
    8.9129  -18.1682   20.7315 O   0  0  0  0  0  0  0  0  0  0  0  0
    7.8124  -17.4135   21.1245 C   0  0  0  0  0  0  0  0  0  0  0  0
    8.0964  -15.9598   21.2231 C   0  0  2  0  0  0  0  0  0  0  0  0
    8.4566  -15.3372   19.9966 N   0  0  0  0  0  0  0  0  0  0  0  0
    9.0032  -15.6795   22.3665 C   0  0  0  0  0  0  0  0  0  0  0  0
   10.2429  -15.5490   22.3013 O   0  0  0  0  0  0  0  0  0  0  0  0
   10.9940  -15.0552   30.9562 O   0  0  0  0  0  0  0  0  0  0  0  0
   10.3494  -14.9809   29.7240 C   0  0  0  0  0  0  0  0  0  0  0  0
    9.7733  -16.1159   29.2115 C   0  0  0  0  0  0  0  0  0  0  0  0
    9.1216  -16.0914   27.9906 C   0  0  0  0  0  0  0  0  0  0  0  0
    9.0476  -14.9101   27.2742 C   0  0  0  0  0  0  0  0  0  0  0  0
    8.3470  -14.9049   25.9719 C   0  0  0  0  0  0  0  0  0  0  0  0
    9.2621  -15.4121   24.8557 C   0  0  2  0  0  0  0  0  0  0  0  0
    8.4331  -15.5432   23.6547 N   0  0  0  0  0  0  0  0  0  0  0  0
    9.9156  -16.6693   25.2131 C   0  0  0  0  0  0  0  0  0  0  0  0
    9.2193  -17.8599   25.1870 O   0  0  0  0  0  0  0  0  0  0  0  0
    9.6320  -13.7810   27.8049 C   0  0  0  0  0  0  0  0  0  0  0  0
   10.2718  -13.8182   29.0100 C   0  0  0  0  0  0  0  0  0  0  0  0
   11.1180  -16.6845   25.5486 O   0  0  0  0  0  0  0  0  0  0  0  0
  2  1  1  1
  2  3  1  0
  4  2  1  0
  4  9  1  0
  5  4  2  0
  6  7  1  0
  8 10  1  0
  8  7  1  6
  8  9  1  0
 10 19  1  0
 11 10  2  0
 13 12  1  0
 14 13  2  0
 15 14  1  0
 16 22  1  0
 16 15  2  0
 17 16  1  0
 18 17  1  1
 19 18  1  0
 20 18  1  0
 21 20  1  0
 22 23  2  0
 23 13  1  0
 24 20  2  0
M  END
$$$$
