YRH.pdb
     RDKit          3D

 34 35  0  0  1  0  0  0  0  0999 V2000
   33.9048  -25.5439  -24.4053 O   0  0  0  0  0  0  0  0  0  0  0  0
   33.7588  -26.3922  -23.3164 C   0  0  0  0  0  0  0  0  0  0  0  0
   32.4926  -26.9391  -23.1112 C   0  0  0  0  0  0  0  0  0  0  0  0
   32.3420  -27.7932  -22.0168 C   0  0  0  0  0  0  0  0  0  0  0  0
   33.3926  -28.0779  -21.1852 C   0  0  0  0  0  0  0  0  0  0  0  0
   33.2062  -28.9807  -20.0416 C   0  0  0  0  0  0  0  0  0  0  0  0
   32.4481  -28.2348  -18.9416 C   0  0  2  0  0  0  0  0  0  0  0  0
   33.3403  -27.4117  -18.1496 N   0  0  0  0  0  0  0  0  0  0  0  0
   31.7121  -29.1821  -18.0883 C   0  0  0  0  0  0  0  0  0  0  0  0
   32.1843  -29.4781  -16.9641 O   0  0  0  0  0  0  0  0  0  0  0  0
   34.6179  -27.5167  -21.4270 C   0  0  0  0  0  0  0  0  0  0  0  0
   34.8231  -26.6543  -22.5097 C   0  0  0  0  0  0  0  0  0  0  0  0
   23.5337  -30.5070  -16.4925 N   0  0  0  0  0  0  0  0  0  0  0  0
   24.0772  -31.7144  -15.9650 C   0  0  0  0  0  0  0  0  0  0  0  0
   23.4217  -32.4020  -15.1189 N   0  0  0  0  0  0  0  0  0  0  0  0
   25.3793  -32.1302  -16.4135 N   0  0  0  0  0  0  0  0  0  0  0  0
   26.2142  -31.1747  -17.0917 C   0  0  0  0  0  0  0  0  0  0  0  0
   27.4555  -31.8019  -17.6335 C   0  0  0  0  0  0  0  0  0  0  0  0
   28.4078  -30.9381  -18.3535 C   0  0  0  0  0  0  0  0  0  0  0  0
   29.7427  -30.7069  -17.7509 C   0  0  2  0  0  0  0  0  0  0  0  0
   30.4984  -29.7374  -18.5432 N   0  0  0  0  0  0  0  0  0  0  0  0
   30.5737  -31.8549  -17.4461 C   0  0  0  0  0  0  0  0  0  0  0  0
   31.6605  -32.0443  -18.0266 O   0  0  0  0  0  0  0  0  0  0  0  0
   23.7825  -33.2294  -14.6190 N   0  0  0  0  0  0  0  0  0  0  0  0
   30.1555  -32.7936  -16.4692 C   0  0  2  0  0  0  0  0  0  0  0  0
   30.9114  -34.0312  -16.2353 C   0  0  0  0  0  0  0  0  0  0  0  0
   32.2803  -33.6669  -15.7473 C   0  0  0  0  0  0  0  0  0  0  0  0
   33.1351  -34.8482  -15.4765 C   0  0  0  0  0  0  0  0  0  0  0  0
   32.7884  -36.1905  -15.5869 N   0  0  0  0  0  0  0  0  0  0  0  0
   33.8213  -36.9703  -15.2601 C   0  0  0  0  0  0  0  0  0  0  0  0
   34.8300  -36.1387  -14.9402 N   0  0  0  0  0  0  0  0  0  0  0  0
   34.4324  -34.8696  -15.0656 C   0  0  0  0  0  0  0  0  0  0  0  0
   30.2366  -34.8583  -15.2172 O   0  0  0  0  0  0  0  0  0  0  0  0
   29.0462  -34.5052  -14.6180 O   0  0  0  0  0  0  0  0  0  0  0  0
  2  3  2  0
  2  1  1  0
  4  3  1  0
  5  4  2  0
  6  7  1  0
  6  5  1  0
  7  9  1  0
  7  8  1  1
  9 10  2  0
 11  5  1  0
 11 12  2  0
 12  2  1  0
 13 14  1  0
 14 15  2  0
 16 17  1  0
 16 14  1  0
 18 17  1  0
 19 18  1  0
 20 19  1  6
 20 22  1  0
 21 20  1  0
 21  9  1  0
 22 24  1  0
 22 23  2  0
 24 25  1  0
 25 32  1  0
 25 26  1  1
 27 26  1  0
 28 27  2  0
 29 28  1  0
 30 29  1  0
 30 31  2  0
 31 27  1  0
 32 34  2  0
 32 33  1  0
M  END
$$$$
