YRH.pdb
     RDKit          3D

 34 35  0  0  1  0  0  0  0  0999 V2000
   32.7696  -22.1773   -9.8467 O   0  0  0  0  0  0  0  0  0  0  0  0
   31.6035  -21.7989  -10.4976 C   0  0  0  0  0  0  0  0  0  0  0  0
   31.0671  -20.5581  -10.1551 C   0  0  0  0  0  0  0  0  0  0  0  0
   29.8940  -20.1739  -10.8080 C   0  0  0  0  0  0  0  0  0  0  0  0
   29.3006  -20.9819  -11.7414 C   0  0  0  0  0  0  0  0  0  0  0  0
   28.0673  -20.5522  -12.4137 C   0  0  0  0  0  0  0  0  0  0  0  0
   28.3176  -20.5048  -13.9223 C   0  0  2  0  0  0  0  0  0  0  0  0
   29.2162  -19.4237  -14.2753 N   0  0  0  0  0  0  0  0  0  0  0  0
   27.0451  -20.3895  -14.6535 C   0  0  0  0  0  0  0  0  0  0  0  0
   26.4857  -19.2685  -14.7234 O   0  0  0  0  0  0  0  0  0  0  0  0
   29.8645  -22.1922  -12.0448 C   0  0  0  0  0  0  0  0  0  0  0  0
   31.0394  -22.6253  -11.4201 C   0  0  0  0  0  0  0  0  0  0  0  0
   25.5599  -26.0550  -18.2586 N   0  0  0  0  0  0  0  0  0  0  0  0
   24.4020  -26.3115  -17.4680 C   0  0  0  0  0  0  0  0  0  0  0  0
   24.2975  -27.3940  -16.8080 N   0  0  0  0  0  0  0  0  0  0  0  0
   23.3619  -25.3180  -17.4380 N   0  0  0  0  0  0  0  0  0  0  0  0
   23.5091  -24.1391  -18.2494 C   0  0  0  0  0  0  0  0  0  0  0  0
   23.6917  -22.9102  -17.4222 C   0  0  0  0  0  0  0  0  0  0  0  0
   24.9762  -22.7341  -16.7218 C   0  0  0  0  0  0  0  0  0  0  0  0
   25.1948  -21.4832  -15.9565 C   0  0  2  0  0  0  0  0  0  0  0  0
   26.4793  -21.5305  -15.2589 N   0  0  0  0  0  0  0  0  0  0  0  0
   24.1548  -21.0330  -15.0525 C   0  0  0  0  0  0  0  0  0  0  0  0
   24.2050  -21.2746  -13.8306 O   0  0  0  0  0  0  0  0  0  0  0  0
   23.4688  -27.6804  -16.2642 N   0  0  0  0  0  0  0  0  0  0  0  0
   23.0482  -20.3014  -15.5529 C   0  0  2  0  0  0  0  0  0  0  0  0
   21.9700  -19.8542  -14.6612 C   0  0  0  0  0  0  0  0  0  0  0  0
   21.9109  -18.3576  -14.7004 C   0  0  0  0  0  0  0  0  0  0  0  0
   20.7985  -17.7978  -13.8950 C   0  0  0  0  0  0  0  0  0  0  0  0
   19.9268  -18.4853  -13.0574 N   0  0  0  0  0  0  0  0  0  0  0  0
   19.0534  -17.6451  -12.4978 C   0  0  0  0  0  0  0  0  0  0  0  0
   19.3575  -16.4220  -12.9697 N   0  0  0  0  0  0  0  0  0  0  0  0
   20.3973  -16.5004  -13.8045 C   0  0  0  0  0  0  0  0  0  0  0  0
   20.6758  -20.4035  -15.1076 O   0  0  0  0  0  0  0  0  0  0  0  0
   20.2428  -20.3614  -16.4159 O   0  0  0  0  0  0  0  0  0  0  0  0
  2  3  2  0
  2  1  1  0
  4  3  1  0
  5  4  2  0
  6  7  1  0
  6  5  1  0
  7  9  1  0
  7  8  1  1
  9 10  2  0
 11  5  1  0
 11 12  2  0
 12  2  1  0
 13 14  1  0
 14 15  2  0
 16 17  1  0
 16 14  1  0
 18 17  1  0
 19 18  1  0
 20 19  1  1
 20 22  1  0
 21 20  1  0
 21  9  1  0
 22 24  1  0
 22 23  2  0
 24 25  1  0
 25 32  1  0
 25 26  1  6
 27 26  1  0
 28 27  2  0
 29 28  1  0
 30 29  1  0
 30 31  2  0
 31 27  1  0
 32 34  2  0
 32 33  1  0
M  END
$$$$
