YRH.pdb
     RDKit          3D

 34 35  0  0  1  0  0  0  0  0999 V2000
   25.1973  -31.3315  -19.0707 O   0  0  0  0  0  0  0  0  0  0  0  0
   25.2048  -30.1360  -18.3654 C   0  0  0  0  0  0  0  0  0  0  0  0
   25.7406  -30.1693  -17.0783 C   0  0  0  0  0  0  0  0  0  0  0  0
   25.7500  -28.9685  -16.3656 C   0  0  0  0  0  0  0  0  0  0  0  0
   25.2545  -27.8131  -16.9096 C   0  0  0  0  0  0  0  0  0  0  0  0
   25.2779  -26.5636  -16.1377 C   0  0  0  0  0  0  0  0  0  0  0  0
   26.3654  -25.6508  -16.7077 C   0  0  2  0  0  0  0  0  0  0  0  0
   27.6890  -26.1082  -16.3338 N   0  0  0  0  0  0  0  0  0  0  0  0
   26.1499  -24.2596  -16.2773 C   0  0  0  0  0  0  0  0  0  0  0  0
   26.4110  -23.9449  -15.0910 O   0  0  0  0  0  0  0  0  0  0  0  0
   24.7383  -27.8296  -18.1777 C   0  0  0  0  0  0  0  0  0  0  0  0
   24.7048  -29.0058  -18.9351 C   0  0  0  0  0  0  0  0  0  0  0  0
   25.8535  -16.7879  -21.0196 N   0  0  0  0  0  0  0  0  0  0  0  0
   25.5485  -16.3307  -19.7045 C   0  0  0  0  0  0  0  0  0  0  0  0
   25.3256  -15.0976  -19.4850 N   0  0  0  0  0  0  0  0  0  0  0  0
   25.5002  -17.2970  -18.6398 N   0  0  0  0  0  0  0  0  0  0  0  0
   25.7629  -18.6777  -18.9474 C   0  0  0  0  0  0  0  0  0  0  0  0
   25.5180  -19.5681  -17.7749 C   0  0  0  0  0  0  0  0  0  0  0  0
   25.7600  -21.0121  -17.9421 C   0  0  0  0  0  0  0  0  0  0  0  0
   25.4152  -21.9180  -16.8201 C   0  0  2  0  0  0  0  0  0  0  0  0
   25.6577  -23.3103  -17.1965 N   0  0  0  0  0  0  0  0  0  0  0  0
   24.1100  -21.7904  -16.2024 C   0  0  0  0  0  0  0  0  0  0  0  0
   23.1065  -22.3566  -16.6781 O   0  0  0  0  0  0  0  0  0  0  0  0
   25.1744  -14.6779  -18.5547 N   0  0  0  0  0  0  0  0  0  0  0  0
   23.9536  -21.0071  -15.0310 C   0  0  2  0  0  0  0  0  0  0  0  0
   22.6281  -20.7900  -14.4363 C   0  0  0  0  0  0  0  0  0  0  0  0
   22.7429  -20.9438  -12.9503 C   0  0  0  0  0  0  0  0  0  0  0  0
   21.4776  -20.6488  -12.2352 C   0  0  0  0  0  0  0  0  0  0  0  0
   20.2384  -20.3490  -12.7905 N   0  0  0  0  0  0  0  0  0  0  0  0
   19.3324  -20.1423  -11.8321 C   0  0  0  0  0  0  0  0  0  0  0  0
   19.9806  -20.3073  -10.6643 N   0  0  0  0  0  0  0  0  0  0  0  0
   21.2615  -20.6098  -10.8920 C   0  0  0  0  0  0  0  0  0  0  0  0
   22.1434  -19.4322  -14.7484 O   0  0  0  0  0  0  0  0  0  0  0  0
   20.8246  -19.0491  -14.6263 O   0  0  0  0  0  0  0  0  0  0  0  0
  2  3  2  0
  2  1  1  0
  4  3  1  0
  5  4  2  0
  6  7  1  0
  6  5  1  0
  7  9  1  0
  7  8  1  1
  9 10  2  0
 11  5  1  0
 11 12  2  0
 12  2  1  0
 13 14  1  0
 14 15  2  0
 16 17  1  0
 16 14  1  0
 18 17  1  0
 19 18  1  0
 20 19  1  6
 20 22  1  0
 21 20  1  0
 21  9  1  0
 22 24  1  0
 22 23  2  0
 24 25  1  0
 25 32  1  0
 25 26  1  1
 27 26  1  0
 28 27  2  0
 29 28  1  0
 30 29  1  0
 30 31  2  0
 31 27  1  0
 32 34  2  0
 32 33  1  0
M  END
$$$$
