YRH.pdb
     RDKit          3D

 34 35  0  0  1  0  0  0  0  0999 V2000
   24.7048  -11.2809  -18.1988 O   0  0  0  0  0  0  0  0  0  0  0  0
   24.7287  -12.5905  -17.7393 C   0  0  0  0  0  0  0  0  0  0  0  0
   24.0992  -13.5471  -18.5350 C   0  0  0  0  0  0  0  0  0  0  0  0
   24.1213  -14.8658  -18.0761 C   0  0  0  0  0  0  0  0  0  0  0  0
   24.7344  -15.1999  -16.8976 C   0  0  0  0  0  0  0  0  0  0  0  0
   24.7435  -16.5954  -16.4391 C   0  0  0  0  0  0  0  0  0  0  0  0
   26.1519  -17.1654  -16.6186 C   0  0  2  0  0  0  0  0  0  0  0  0
   26.5001  -17.2823  -18.0208 N   0  0  0  0  0  0  0  0  0  0  0  0
   26.2737  -18.4649  -15.9376 C   0  0  0  0  0  0  0  0  0  0  0  0
   25.7814  -19.4828  -16.4817 O   0  0  0  0  0  0  0  0  0  0  0  0
   25.3397  -14.2255  -16.1500 C   0  0  0  0  0  0  0  0  0  0  0  0
   25.3465  -12.8888  -16.5640 C   0  0  0  0  0  0  0  0  0  0  0  0
   31.8717  -21.5299   -9.8056 N   0  0  0  0  0  0  0  0  0  0  0  0
   30.8515  -22.5252   -9.8155 C   0  0  0  0  0  0  0  0  0  0  0  0
   30.9123  -23.5200   -9.0249 N   0  0  0  0  0  0  0  0  0  0  0  0
   29.7586  -22.3736  -10.7386 N   0  0  0  0  0  0  0  0  0  0  0  0
   29.7241  -21.2093  -11.5832 C   0  0  0  0  0  0  0  0  0  0  0  0
   28.4304  -21.0898  -12.3180 C   0  0  0  0  0  0  0  0  0  0  0  0
   28.2489  -19.9329  -13.2125 C   0  0  0  0  0  0  0  0  0  0  0  0
   26.9438  -19.7707  -13.8971 C   0  0  2  0  0  0  0  0  0  0  0  0
   26.9359  -18.5452  -14.6952 N   0  0  0  0  0  0  0  0  0  0  0  0
   25.7314  -19.8568  -13.1071 C   0  0  0  0  0  0  0  0  0  0  0  0
   25.3794  -18.9298  -12.3516 O   0  0  0  0  0  0  0  0  0  0  0  0
   30.2208  -24.2843   -8.9780 N   0  0  0  0  0  0  0  0  0  0  0  0
   24.9166  -21.0147  -13.1828 C   0  0  1  0  0  0  0  0  0  0  0  0
   23.4650  -20.9347  -12.9723 C   0  0  0  0  0  0  0  0  0  0  0  0
   22.8876  -20.0018  -13.9926 C   0  0  0  0  0  0  0  0  0  0  0  0
   21.4184  -19.8411  -13.8688 C   0  0  0  0  0  0  0  0  0  0  0  0
   20.5689  -20.4685  -12.9639 N   0  0  0  0  0  0  0  0  0  0  0  0
   19.3078  -20.0739  -13.1534 C   0  0  0  0  0  0  0  0  0  0  0  0
   19.3405  -19.1972  -14.1739 N   0  0  0  0  0  0  0  0  0  0  0  0
   20.5948  -19.0500  -14.6091 C   0  0  0  0  0  0  0  0  0  0  0  0
   22.8511  -22.2667  -13.1288 O   0  0  0  0  0  0  0  0  0  0  0  0
   23.3751  -23.2554  -13.9342 O   0  0  0  0  0  0  0  0  0  0  0  0
  2  3  2  0
  2  1  1  0
  4  3  1  0
  5  4  2  0
  6  7  1  0
  6  5  1  0
  7  9  1  0
  7  8  1  6
  9 10  2  0
 11  5  1  0
 11 12  2  0
 12  2  1  0
 13 14  1  0
 14 15  2  0
 16 17  1  0
 16 14  1  0
 18 17  1  0
 19 18  1  0
 20 19  1  1
 20 22  1  0
 21 20  1  0
 21  9  1  0
 22 24  1  0
 22 23  2  0
 24 25  1  0
 25 32  1  0
 25 26  1  6
 27 26  1  0
 28 27  2  0
 29 28  1  0
 30 29  1  0
 30 31  2  0
 31 27  1  0
 32 34  2  0
 32 33  1  0
M  END
$$$$
