YRH.pdb
     RDKit          3D

 34 35  0  0  1  0  0  0  0  0999 V2000
   20.5631  -22.1875  -15.7414 O   0  0  0  0  0  0  0  0  0  0  0  0
   20.0841  -23.2656  -15.0100 C   0  0  0  0  0  0  0  0  0  0  0  0
   20.7738  -23.5884  -13.8418 C   0  0  0  0  0  0  0  0  0  0  0  0
   20.2949  -24.6724  -13.1032 C   0  0  0  0  0  0  0  0  0  0  0  0
   19.1974  -25.3833  -13.5112 C   0  0  0  0  0  0  0  0  0  0  0  0
   18.7144  -26.5188  -12.7142 C   0  0  0  0  0  0  0  0  0  0  0  0
   19.6078  -27.7303  -12.9880 C   0  0  2  0  0  0  0  0  0  0  0  0
   19.5169  -28.1522  -14.3718 N   0  0  0  0  0  0  0  0  0  0  0  0
   19.2694  -28.8375  -12.0786 C   0  0  0  0  0  0  0  0  0  0  0  0
   18.1906  -29.4547  -12.2504 O   0  0  0  0  0  0  0  0  0  0  0  0
   18.5527  -25.0287  -14.6659 C   0  0  0  0  0  0  0  0  0  0  0  0
   18.9911  -23.9510  -15.4433 C   0  0  0  0  0  0  0  0  0  0  0  0
   25.5303  -33.3838   -9.3531 N   0  0  0  0  0  0  0  0  0  0  0  0
   24.6784  -32.6790   -8.4536 C   0  0  0  0  0  0  0  0  0  0  0  0
   24.9433  -32.6402   -7.2099 N   0  0  0  0  0  0  0  0  0  0  0  0
   23.5185  -32.0173   -8.9887 N   0  0  0  0  0  0  0  0  0  0  0  0
   23.2842  -32.0730  -10.4071 C   0  0  0  0  0  0  0  0  0  0  0  0
   22.0217  -31.3765  -10.7931 C   0  0  0  0  0  0  0  0  0  0  0  0
   21.0962  -30.9788   -9.7176 C   0  0  0  0  0  0  0  0  0  0  0  0
   19.8560  -30.2557  -10.0881 C   0  0  2  0  0  0  0  0  0  0  0  0
   20.1551  -29.1843  -11.0376 N   0  0  0  0  0  0  0  0  0  0  0  0
   19.0020  -29.7564   -9.0285 C   0  0  0  0  0  0  0  0  0  0  0  0
   18.8566  -28.5341   -8.8311 O   0  0  0  0  0  0  0  0  0  0  0  0
   24.3557  -32.1896   -6.4914 N   0  0  0  0  0  0  0  0  0  0  0  0
   18.3102  -30.6648   -8.1879 C   0  0  1  0  0  0  0  0  0  0  0  0
   17.3446  -30.1876   -7.1892 C   0  0  0  0  0  0  0  0  0  0  0  0
   16.2431  -29.4633   -7.9012 C   0  0  0  0  0  0  0  0  0  0  0  0
   15.1808  -28.9769   -6.9878 C   0  0  0  0  0  0  0  0  0  0  0  0
   15.1550  -29.0516   -5.5994 N   0  0  0  0  0  0  0  0  0  0  0  0
   14.0341  -28.5069   -5.1210 C   0  0  0  0  0  0  0  0  0  0  0  0
   13.3389  -28.0824   -6.1924 N   0  0  0  0  0  0  0  0  0  0  0  0
   14.0132  -28.3573   -7.3122 C   0  0  0  0  0  0  0  0  0  0  0  0
   16.7751  -31.3258   -6.4434 O   0  0  0  0  0  0  0  0  0  0  0  0
   16.1106  -31.1919   -5.2429 O   0  0  0  0  0  0  0  0  0  0  0  0
  2  3  2  0
  2  1  1  0
  4  3  1  0
  5  4  2  0
  6  7  1  0
  6  5  1  0
  7  9  1  0
  7  8  1  6
  9 10  2  0
 11  5  1  0
 11 12  2  0
 12  2  1  0
 13 14  1  0
 14 15  2  0
 16 17  1  0
 16 14  1  0
 18 17  1  0
 19 18  1  0
 20 19  1  1
 20 22  1  0
 21 20  1  0
 21  9  1  0
 22 24  1  0
 22 23  2  0
 24 25  1  0
 25 32  1  0
 25 26  1  1
 27 26  1  0
 28 27  2  0
 29 28  1  0
 30 29  1  0
 30 31  2  0
 31 27  1  0
 32 34  2  0
 32 33  1  0
M  END
$$$$
