YRH.pdb
     RDKit          3D

 34 35  0  0  1  0  0  0  0  0999 V2000
   17.9577  -25.2350  -11.0788 O   0  0  0  0  0  0  0  0  0  0  0  0
   18.4858  -24.0793  -11.6375 C   0  0  0  0  0  0  0  0  0  0  0  0
   19.2925  -24.2378  -12.7638 C   0  0  0  0  0  0  0  0  0  0  0  0
   19.8256  -23.0773  -13.3287 C   0  0  0  0  0  0  0  0  0  0  0  0
   19.5654  -21.8418  -12.7975 C   0  0  0  0  0  0  0  0  0  0  0  0
   20.1386  -20.6374  -13.4128 C   0  0  0  0  0  0  0  0  0  0  0  0
   21.6084  -20.5248  -13.0032 C   0  0  2  0  0  0  0  0  0  0  0  0
   21.7520  -20.4562  -11.5626 N   0  0  0  0  0  0  0  0  0  0  0  0
   22.2368  -19.3608  -13.6493 C   0  0  0  0  0  0  0  0  0  0  0  0
   22.1091  -18.2309  -13.1187 O   0  0  0  0  0  0  0  0  0  0  0  0
   18.7672  -21.7361  -11.6901 C   0  0  0  0  0  0  0  0  0  0  0  0
   18.2077  -22.8670  -11.0850 C   0  0  0  0  0  0  0  0  0  0  0  0
   26.8585  -21.3601  -13.6904 N   0  0  0  0  0  0  0  0  0  0  0  0
   27.5232  -20.9802  -14.8927 C   0  0  0  0  0  0  0  0  0  0  0  0
   27.9213  -21.8635  -15.7171 N   0  0  0  0  0  0  0  0  0  0  0  0
   27.7295  -19.5791  -15.1454 N   0  0  0  0  0  0  0  0  0  0  0  0
   27.1460  -18.6213  -14.2442 C   0  0  0  0  0  0  0  0  0  0  0  0
   26.0020  -17.8924  -14.8669 C   0  0  0  0  0  0  0  0  0  0  0  0
   25.0583  -18.6658  -15.6932 C   0  0  0  0  0  0  0  0  0  0  0  0
   23.6070  -18.4103  -15.5299 C   0  0  2  0  0  0  0  0  0  0  0  0
   22.9662  -19.5318  -14.8439 N   0  0  0  0  0  0  0  0  0  0  0  0
   22.8338  -18.0346  -16.6971 C   0  0  0  0  0  0  0  0  0  0  0  0
   21.9106  -18.7544  -17.1257 O   0  0  0  0  0  0  0  0  0  0  0  0
   28.4563  -21.6734  -16.5786 N   0  0  0  0  0  0  0  0  0  0  0  0
   23.1215  -16.8252  -17.3790 C   0  0  1  0  0  0  0  0  0  0  0  0
   22.0436  -15.9782  -17.9067 C   0  0  0  0  0  0  0  0  0  0  0  0
   21.1591  -15.5702  -16.7682 C   0  0  0  0  0  0  0  0  0  0  0  0
   20.0696  -14.6514  -17.1781 C   0  0  0  0  0  0  0  0  0  0  0  0
   19.7390  -14.2478  -18.4672 N   0  0  0  0  0  0  0  0  0  0  0  0
   18.6967  -13.4141  -18.4451 C   0  0  0  0  0  0  0  0  0  0  0  0
   18.3547  -13.2788  -17.1505 N   0  0  0  0  0  0  0  0  0  0  0  0
   19.1668  -14.0125  -16.3848 C   0  0  0  0  0  0  0  0  0  0  0  0
   22.6056  -14.7715  -18.5423 O   0  0  0  0  0  0  0  0  0  0  0  0
   22.0201  -14.1352  -19.6161 O   0  0  0  0  0  0  0  0  0  0  0  0
  2  3  2  0
  2  1  1  0
  4  3  1  0
  5  4  2  0
  6  7  1  0
  6  5  1  0
  7  9  1  0
  7  8  1  1
  9 10  2  0
 11  5  1  0
 11 12  2  0
 12  2  1  0
 13 14  1  0
 14 15  2  0
 16 17  1  0
 16 14  1  0
 18 17  1  0
 19 18  1  0
 20 19  1  6
 20 22  1  0
 21 20  1  0
 21  9  1  0
 22 24  1  0
 22 23  2  0
 24 25  1  0
 25 32  1  0
 25 26  1  6
 27 26  1  0
 28 27  2  0
 29 28  1  0
 30 29  1  0
 30 31  2  0
 31 27  1  0
 32 34  2  0
 32 33  1  0
M  END
$$$$
