YRH.pdb
     RDKit          3D

 34 35  0  0  1  0  0  0  0  0999 V2000
   36.6088   -2.4871    1.3566 O   0  0  0  0  0  0  0  0  0  0  0  0
   36.9489   -2.7704    0.0410 C   0  0  0  0  0  0  0  0  0  0  0  0
   37.3482   -4.0772   -0.2373 C   0  0  0  0  0  0  0  0  0  0  0  0
   37.6911   -4.3660   -1.5597 C   0  0  0  0  0  0  0  0  0  0  0  0
   37.6365   -3.4066   -2.5358 C   0  0  0  0  0  0  0  0  0  0  0  0
   38.0019   -3.7383   -3.9193 C   0  0  0  0  0  0  0  0  0  0  0  0
   39.4944   -4.0707   -3.9701 C   0  0  2  0  0  0  0  0  0  0  0  0
   40.3007   -2.9516   -3.5247 N   0  0  0  0  0  0  0  0  0  0  0  0
   39.8840   -4.4914   -5.3261 C   0  0  0  0  0  0  0  0  0  0  0  0
   40.2333   -3.6166   -6.1550 O   0  0  0  0  0  0  0  0  0  0  0  0
   37.2382   -2.1366   -2.2144 C   0  0  0  0  0  0  0  0  0  0  0  0
   36.8838   -1.7940   -0.9047 C   0  0  0  0  0  0  0  0  0  0  0  0
   46.0994  -10.3631   -5.6728 N   0  0  0  0  0  0  0  0  0  0  0  0
   44.7219  -10.4073   -6.0364 C   0  0  0  0  0  0  0  0  0  0  0  0
   44.1772  -11.5075   -6.3700 N   0  0  0  0  0  0  0  0  0  0  0  0
   43.9705   -9.1807   -6.0155 N   0  0  0  0  0  0  0  0  0  0  0  0
   42.6273   -9.1845   -6.5311 C   0  0  0  0  0  0  0  0  0  0  0  0
   42.0166   -7.8227   -6.5101 C   0  0  0  0  0  0  0  0  0  0  0  0
   40.6594   -7.6662   -7.0624 C   0  0  0  0  0  0  0  0  0  0  0  0
   40.0441   -6.3174   -7.0458 C   0  0  2  0  0  0  0  0  0  0  0  0
   39.8588   -5.8588   -5.6695 N   0  0  0  0  0  0  0  0  0  0  0  0
   38.8315   -6.0993   -7.8097 C   0  0  0  0  0  0  0  0  0  0  0  0
   37.7584   -6.6527   -7.4995 O   0  0  0  0  0  0  0  0  0  0  0  0
   43.2023  -11.6142   -6.6906 N   0  0  0  0  0  0  0  0  0  0  0  0
   38.8492   -5.2413   -8.9383 C   0  0  1  0  0  0  0  0  0  0  0  0
   37.6640   -5.0887   -9.7925 C   0  0  0  0  0  0  0  0  0  0  0  0
   36.5630   -4.4858   -8.9745 C   0  0  0  0  0  0  0  0  0  0  0  0
   36.8923   -3.1336   -8.4620 C   0  0  0  0  0  0  0  0  0  0  0  0
   38.0737   -2.4222   -8.6411 N   0  0  0  0  0  0  0  0  0  0  0  0
   38.0038   -1.2360   -8.0326 C   0  0  0  0  0  0  0  0  0  0  0  0
   36.7856   -1.1799   -7.4636 N   0  0  0  0  0  0  0  0  0  0  0  0
   36.1129   -2.3067   -7.7130 C   0  0  0  0  0  0  0  0  0  0  0  0
   37.9650   -4.2013  -10.9317 O   0  0  0  0  0  0  0  0  0  0  0  0
   37.0221   -3.8041  -11.8558 O   0  0  0  0  0  0  0  0  0  0  0  0
  2  3  2  0
  2  1  1  0
  4  3  1  0
  5  4  2  0
  6  7  1  0
  6  5  1  0
  7  9  1  0
  7  8  1  6
  9 10  2  0
 11  5  1  0
 11 12  2  0
 12  2  1  0
 13 14  1  0
 14 15  2  0
 16 17  1  0
 16 14  1  0
 18 17  1  0
 19 18  1  0
 20 19  1  1
 20 22  1  0
 21 20  1  0
 21  9  1  0
 22 24  1  0
 22 23  2  0
 24 25  1  0
 25 32  1  0
 25 26  1  6
 27 26  1  0
 28 27  2  0
 29 28  1  0
 30 29  1  0
 30 31  2  0
 31 27  1  0
 32 34  2  0
 32 33  1  0
M  END
$$$$
