YRH.pdb
     RDKit          3D

 34 35  0  0  1  0  0  0  0  0999 V2000
   27.6830  -31.1020  -16.9897 O   0  0  0  0  0  0  0  0  0  0  0  0
   27.3147  -29.7763  -16.8067 C   0  0  0  0  0  0  0  0  0  0  0  0
   28.3433  -28.8349  -16.7906 C   0  0  0  0  0  0  0  0  0  0  0  0
   27.9766  -27.5001  -16.6067 C   0  0  0  0  0  0  0  0  0  0  0  0
   26.6653  -27.1366  -16.4496 C   0  0  0  0  0  0  0  0  0  0  0  0
   26.3077  -25.7247  -16.2588 C   0  0  0  0  0  0  0  0  0  0  0  0
   25.9274  -25.1238  -17.6135 C   0  0  2  0  0  0  0  0  0  0  0  0
   27.1033  -24.7764  -18.3865 N   0  0  0  0  0  0  0  0  0  0  0  0
   25.0538  -23.9528  -17.4321 C   0  0  0  0  0  0  0  0  0  0  0  0
   25.3713  -22.8693  -17.9795 O   0  0  0  0  0  0  0  0  0  0  0  0
   25.6897  -28.0970  -16.4725 C   0  0  0  0  0  0  0  0  0  0  0  0
   26.0026  -29.4488  -16.6536 C   0  0  0  0  0  0  0  0  0  0  0  0
   22.0624  -17.3989  -18.3043 N   0  0  0  0  0  0  0  0  0  0  0  0
   20.7383  -17.9213  -18.3790 C   0  0  0  0  0  0  0  0  0  0  0  0
   19.7438  -17.1414  -18.5244 N   0  0  0  0  0  0  0  0  0  0  0  0
   20.5600  -19.3457  -18.2858 N   0  0  0  0  0  0  0  0  0  0  0  0
   21.7245  -20.1807  -18.1558 C   0  0  0  0  0  0  0  0  0  0  0  0
   21.3700  -21.6294  -18.0982 C   0  0  0  0  0  0  0  0  0  0  0  0
   22.4668  -22.6034  -17.9573 C   0  0  0  0  0  0  0  0  0  0  0  0
   22.8860  -22.9984  -16.5911 C   0  0  2  0  0  0  0  0  0  0  0  0
   23.8840  -24.0657  -16.6529 N   0  0  0  0  0  0  0  0  0  0  0  0
   21.8617  -23.3317  -15.6210 C   0  0  0  0  0  0  0  0  0  0  0  0
   20.9811  -24.1784  -15.8690 O   0  0  0  0  0  0  0  0  0  0  0  0
   18.7598  -17.4421  -18.6024 N   0  0  0  0  0  0  0  0  0  0  0  0
   21.8458  -22.6887  -14.3574 C   0  0  2  0  0  0  0  0  0  0  0  0
   20.6206  -22.0650  -13.8402 C   0  0  0  0  0  0  0  0  0  0  0  0
   20.6714  -20.5978  -14.1396 C   0  0  0  0  0  0  0  0  0  0  0  0
   20.6085  -19.7529  -12.9224 C   0  0  0  0  0  0  0  0  0  0  0  0
   20.5172  -20.1741  -11.6001 N   0  0  0  0  0  0  0  0  0  0  0  0
   20.4834  -19.1253  -10.7749 C   0  0  0  0  0  0  0  0  0  0  0  0
   20.5524  -18.0326  -11.5575 N   0  0  0  0  0  0  0  0  0  0  0  0
   20.6274  -18.3944  -12.8411 C   0  0  0  0  0  0  0  0  0  0  0  0
   19.4337  -22.6527  -14.4895 O   0  0  0  0  0  0  0  0  0  0  0  0
   19.3973  -23.0189  -15.8182 O   0  0  0  0  0  0  0  0  0  0  0  0
  2  3  2  0
  2  1  1  0
  4  3  1  0
  5  4  2  0
  6  7  1  0
  6  5  1  0
  7  9  1  0
  7  8  1  1
  9 10  2  0
 11  5  1  0
 11 12  2  0
 12  2  1  0
 13 14  1  0
 14 15  2  0
 16 17  1  0
 16 14  1  0
 18 17  1  0
 19 18  1  0
 20 19  1  6
 20 22  1  0
 21 20  1  0
 21  9  1  0
 22 24  1  0
 22 23  2  0
 24 25  1  0
 25 32  1  0
 25 26  1  6
 27 26  1  0
 28 27  2  0
 29 28  1  0
 30 29  1  0
 30 31  2  0
 31 27  1  0
 32 34  2  0
 32 33  1  0
M  END
$$$$
