YRH.pdb
     RDKit          3D

 34 35  0  0  1  0  0  0  0  0999 V2000
   26.8157  -12.6476  -16.5757 O   0  0  0  0  0  0  0  0  0  0  0  0
   26.0058  -13.7655  -16.7212 C   0  0  0  0  0  0  0  0  0  0  0  0
   25.5896  -14.3966  -15.5494 C   0  0  0  0  0  0  0  0  0  0  0  0
   24.7746  -15.5215  -15.6917 C   0  0  0  0  0  0  0  0  0  0  0  0
   24.4033  -15.9807  -16.9276 C   0  0  0  0  0  0  0  0  0  0  0  0
   23.5442  -17.1660  -17.0481 C   0  0  0  0  0  0  0  0  0  0  0  0
   24.4134  -18.4200  -16.9348 C   0  0  2  0  0  0  0  0  0  0  0  0
   25.4120  -18.4676  -17.9843 N   0  0  0  0  0  0  0  0  0  0  0  0
   23.5770  -19.6314  -16.9508 C   0  0  0  0  0  0  0  0  0  0  0  0
   23.4958  -20.2977  -18.0109 O   0  0  0  0  0  0  0  0  0  0  0  0
   24.8370  -15.3275  -18.0502 C   0  0  0  0  0  0  0  0  0  0  0  0
   25.6552  -14.1956  -17.9638 C   0  0  0  0  0  0  0  0  0  0  0  0
   26.8014  -25.8836  -16.1585 N   0  0  0  0  0  0  0  0  0  0  0  0
   26.0519  -25.2353  -17.1830 C   0  0  0  0  0  0  0  0  0  0  0  0
   26.0888  -25.6647  -18.3799 N   0  0  0  0  0  0  0  0  0  0  0  0
   25.2582  -24.0895  -16.8272 N   0  0  0  0  0  0  0  0  0  0  0  0
   25.2817  -23.6289  -15.4644 C   0  0  0  0  0  0  0  0  0  0  0  0
   24.3958  -22.4454  -15.2588 C   0  0  0  0  0  0  0  0  0  0  0  0
   23.0996  -22.4234  -15.9593 C   0  0  0  0  0  0  0  0  0  0  0  0
   22.1748  -21.2955  -15.6930 C   0  0  2  0  0  0  0  0  0  0  0  0
   22.8860  -20.0209  -15.7850 N   0  0  0  0  0  0  0  0  0  0  0  0
   21.3695  -21.3292  -14.4881 C   0  0  0  0  0  0  0  0  0  0  0  0
   21.8775  -21.5512  -13.3716 O   0  0  0  0  0  0  0  0  0  0  0  0
   25.5497  -25.2735  -19.1680 N   0  0  0  0  0  0  0  0  0  0  0  0
   19.9710  -21.1079  -14.5636 C   0  0  2  0  0  0  0  0  0  0  0  0
   19.0292  -21.9501  -13.8143 C   0  0  0  0  0  0  0  0  0  0  0  0
   18.7543  -23.1853  -14.6166 C   0  0  0  0  0  0  0  0  0  0  0  0
   17.8988  -22.9314  -15.8011 C   0  0  0  0  0  0  0  0  0  0  0  0
   17.2071  -21.7665  -16.1150 N   0  0  0  0  0  0  0  0  0  0  0  0
   16.5431  -21.9104  -17.2641 C   0  0  0  0  0  0  0  0  0  0  0  0
   16.8031  -23.1598  -17.6913 N   0  0  0  0  0  0  0  0  0  0  0  0
   17.6111  -23.7790  -16.8264 C   0  0  0  0  0  0  0  0  0  0  0  0
   19.6095  -22.3344  -12.5138 O   0  0  0  0  0  0  0  0  0  0  0  0
   19.0224  -22.0381  -11.3021 O   0  0  0  0  0  0  0  0  0  0  0  0
  2  3  2  0
  2  1  1  0
  4  3  1  0
  5  4  2  0
  6  7  1  0
  6  5  1  0
  7  9  1  0
  7  8  1  6
  9 10  2  0
 11  5  1  0
 11 12  2  0
 12  2  1  0
 13 14  1  0
 14 15  2  0
 16 17  1  0
 16 14  1  0
 18 17  1  0
 19 18  1  0
 20 19  1  1
 20 22  1  0
 21 20  1  0
 21  9  1  0
 22 24  1  0
 22 23  2  0
 24 25  1  0
 25 32  1  0
 25 26  1  6
 27 26  1  0
 28 27  2  0
 29 28  1  0
 30 29  1  0
 30 31  2  0
 31 27  1  0
 32 34  2  0
 32 33  1  0
M  END
$$$$
