YRH.pdb
     RDKit          3D

 34 35  0  0  1  0  0  0  0  0999 V2000
   17.7948  -26.5327  -17.6145 O   0  0  0  0  0  0  0  0  0  0  0  0
   18.6080  -27.5734  -17.1877 C   0  0  0  0  0  0  0  0  0  0  0  0
   19.9318  -27.2539  -16.8876 C   0  0  0  0  0  0  0  0  0  0  0  0
   20.7530  -28.2983  -16.4577 C   0  0  0  0  0  0  0  0  0  0  0  0
   20.2759  -29.5767  -16.3377 C   0  0  0  0  0  0  0  0  0  0  0  0
   21.1618  -30.6563  -15.8822 C   0  0  0  0  0  0  0  0  0  0  0  0
   22.0352  -31.1069  -17.0547 C   0  0  2  0  0  0  0  0  0  0  0  0
   21.2455  -31.7528  -18.0844 N   0  0  0  0  0  0  0  0  0  0  0  0
   23.1122  -31.9941  -16.5854 C   0  0  0  0  0  0  0  0  0  0  0  0
   22.8672  -33.2148  -16.4300 O   0  0  0  0  0  0  0  0  0  0  0  0
   18.9681  -29.8421  -16.6441 C   0  0  0  0  0  0  0  0  0  0  0  0
   18.1026  -28.8323  -17.0793 C   0  0  0  0  0  0  0  0  0  0  0  0
   31.7258  -31.6167  -17.4225 N   0  0  0  0  0  0  0  0  0  0  0  0
   31.5250  -32.7486  -16.5798 C   0  0  0  0  0  0  0  0  0  0  0  0
   32.4244  -33.6419  -16.4732 N   0  0  0  0  0  0  0  0  0  0  0  0
   30.2846  -32.8511  -15.8582 N   0  0  0  0  0  0  0  0  0  0  0  0
   29.1536  -32.0892  -16.3167 C   0  0  0  0  0  0  0  0  0  0  0  0
   27.9864  -32.2110  -15.3944 C   0  0  0  0  0  0  0  0  0  0  0  0
   26.7429  -31.5090  -15.7581 C   0  0  0  0  0  0  0  0  0  0  0  0
   25.4818  -32.2875  -15.8005 C   0  0  2  0  0  0  0  0  0  0  0  0
   24.3913  -31.4632  -16.3201 N   0  0  0  0  0  0  0  0  0  0  0  0
   25.0536  -32.9791  -14.6006 C   0  0  0  0  0  0  0  0  0  0  0  0
   24.3891  -32.4012  -13.7182 O   0  0  0  0  0  0  0  0  0  0  0  0
   32.3472  -34.4969  -15.9008 N   0  0  0  0  0  0  0  0  0  0  0  0
   25.3905  -34.3431  -14.4099 C   0  0  2  0  0  0  0  0  0  0  0  0
   24.9744  -35.0641  -13.1996 C   0  0  0  0  0  0  0  0  0  0  0  0
   23.4822  -34.9864  -13.0896 C   0  0  0  0  0  0  0  0  0  0  0  0
   22.9378  -35.7985  -11.9744 C   0  0  0  0  0  0  0  0  0  0  0  0
   23.5306  -36.0555  -10.7429 N   0  0  0  0  0  0  0  0  0  0  0  0
   22.7403  -36.8277   -9.9938 C   0  0  0  0  0  0  0  0  0  0  0  0
   21.6433  -37.0690  -10.7352 N   0  0  0  0  0  0  0  0  0  0  0  0
   21.7496  -36.4600  -11.9193 C   0  0  0  0  0  0  0  0  0  0  0  0
   25.3827  -36.4792  -13.2813 O   0  0  0  0  0  0  0  0  0  0  0  0
   25.7500  -37.2289  -12.1841 O   0  0  0  0  0  0  0  0  0  0  0  0
  2  3  2  0
  2  1  1  0
  4  3  1  0
  5  4  2  0
  6  7  1  0
  6  5  1  0
  7  9  1  0
  7  8  1  6
  9 10  2  0
 11  5  1  0
 11 12  2  0
 12  2  1  0
 13 14  1  0
 14 15  2  0
 16 17  1  0
 16 14  1  0
 18 17  1  0
 19 18  1  0
 20 19  1  1
 20 22  1  0
 21 20  1  0
 21  9  1  0
 22 24  1  0
 22 23  2  0
 24 25  1  0
 25 32  1  0
 25 26  1  6
 27 26  1  0
 28 27  2  0
 29 28  1  0
 30 29  1  0
 30 31  2  0
 31 27  1  0
 32 34  2  0
 32 33  1  0
M  END
$$$$
