YRH.pdb
     RDKit          3D

 34 35  0  0  1  0  0  0  0  0999 V2000
   29.2118  -10.2912  -16.8939 O   0  0  0  0  0  0  0  0  0  0  0  0
   28.1413  -11.1692  -16.7958 C   0  0  0  0  0  0  0  0  0  0  0  0
   28.2998  -12.2605  -15.9422 C   0  0  0  0  0  0  0  0  0  0  0  0
   27.2248  -13.1460  -15.8408 C   0  0  0  0  0  0  0  0  0  0  0  0
   26.0693  -12.9479  -16.5492 C   0  0  0  0  0  0  0  0  0  0  0  0
   24.9535  -13.8949  -16.4227 C   0  0  0  0  0  0  0  0  0  0  0  0
   25.2620  -15.1369  -17.2611 C   0  0  2  0  0  0  0  0  0  0  0  0
   25.3427  -14.8155  -18.6722 N   0  0  0  0  0  0  0  0  0  0  0  0
   24.2583  -16.1862  -17.0184 C   0  0  0  0  0  0  0  0  0  0  0  0
   23.1408  -16.0978  -17.5822 O   0  0  0  0  0  0  0  0  0  0  0  0
   25.9601  -11.8613  -17.3752 C   0  0  0  0  0  0  0  0  0  0  0  0
   27.0072  -10.9434  -17.5134 C   0  0  0  0  0  0  0  0  0  0  0  0
   25.3227  -24.5100  -14.0749 N   0  0  0  0  0  0  0  0  0  0  0  0
   23.9223  -24.4293  -14.3279 C   0  0  0  0  0  0  0  0  0  0  0  0
   23.1809  -25.4537  -14.1889 N   0  0  0  0  0  0  0  0  0  0  0  0
   23.3750  -23.1649  -14.7420 N   0  0  0  0  0  0  0  0  0  0  0  0
   24.2502  -22.0257  -14.8204 C   0  0  0  0  0  0  0  0  0  0  0  0
   23.5279  -20.7948  -15.2572 C   0  0  0  0  0  0  0  0  0  0  0  0
   24.3231  -19.5793  -15.5057 C   0  0  0  0  0  0  0  0  0  0  0  0
   23.6099  -18.3391  -15.8951 C   0  0  2  0  0  0  0  0  0  0  0  0
   24.5652  -17.2649  -16.1637 N   0  0  0  0  0  0  0  0  0  0  0  0
   22.5448  -17.8544  -15.0396 C   0  0  0  0  0  0  0  0  0  0  0  0
   22.7733  -17.0754  -14.0935 O   0  0  0  0  0  0  0  0  0  0  0  0
   22.1528  -25.4589  -14.2758 N   0  0  0  0  0  0  0  0  0  0  0  0
   21.2077  -18.2664  -15.2693 C   0  0  2  0  0  0  0  0  0  0  0  0
   20.0975  -17.7063  -14.4874 C   0  0  0  0  0  0  0  0  0  0  0  0
   19.9097  -16.2745  -14.8871 C   0  0  0  0  0  0  0  0  0  0  0  0
   18.8532  -15.5862  -14.1064 C   0  0  0  0  0  0  0  0  0  0  0  0
   18.3488  -15.9436  -12.8607 N   0  0  0  0  0  0  0  0  0  0  0  0
   17.4045  -15.0837  -12.4725 C   0  0  0  0  0  0  0  0  0  0  0  0
   17.2982  -14.1756  -13.4601 N   0  0  0  0  0  0  0  0  0  0  0  0
   18.1578  -14.4650  -14.4407 C   0  0  0  0  0  0  0  0  0  0  0  0
   18.8542  -18.4531  -14.7565 O   0  0  0  0  0  0  0  0  0  0  0  0
   17.9027  -18.7172  -13.7943 O   0  0  0  0  0  0  0  0  0  0  0  0
  2  3  2  0
  2  1  1  0
  4  3  1  0
  5  4  2  0
  6  7  1  0
  6  5  1  0
  7  9  1  0
  7  8  1  6
  9 10  2  0
 11  5  1  0
 11 12  2  0
 12  2  1  0
 13 14  1  0
 14 15  2  0
 16 17  1  0
 16 14  1  0
 18 17  1  0
 19 18  1  0
 20 19  1  1
 20 22  1  0
 21 20  1  0
 21  9  1  0
 22 24  1  0
 22 23  2  0
 24 25  1  0
 25 32  1  0
 25 26  1  6
 27 26  1  0
 28 27  2  0
 29 28  1  0
 30 29  1  0
 30 31  2  0
 31 27  1  0
 32 34  2  0
 32 33  1  0
M  END
$$$$
