YRH.pdb
     RDKit          3D

 34 35  0  0  1  0  0  0  0  0999 V2000
   29.2178  -20.1822   -4.6639 O   0  0  0  0  0  0  0  0  0  0  0  0
   28.5137  -20.4504   -5.8297 C   0  0  0  0  0  0  0  0  0  0  0  0
   27.1221  -20.4385   -5.7401 C   0  0  0  0  0  0  0  0  0  0  0  0
   26.4104  -20.7077   -6.9109 C   0  0  0  0  0  0  0  0  0  0  0  0
   27.0536  -20.9711   -8.0912 C   0  0  0  0  0  0  0  0  0  0  0  0
   26.2798  -21.2501   -9.3082 C   0  0  0  0  0  0  0  0  0  0  0  0
   25.9218  -19.9235   -9.9812 C   0  0  2  0  0  0  0  0  0  0  0  0
   25.2221  -19.0402   -9.0696 N   0  0  0  0  0  0  0  0  0  0  0  0
   25.1264  -20.1596  -11.1973 C   0  0  0  0  0  0  0  0  0  0  0  0
   23.9080  -20.4356  -11.0805 O   0  0  0  0  0  0  0  0  0  0  0  0
   28.4223  -20.9716   -8.1302 C   0  0  0  0  0  0  0  0  0  0  0  0
   29.1835  -20.7081   -6.9859 C   0  0  0  0  0  0  0  0  0  0  0  0
   29.0604  -19.1556  -16.4433 N   0  0  0  0  0  0  0  0  0  0  0  0
   28.8736  -17.7427  -16.4184 C   0  0  0  0  0  0  0  0  0  0  0  0
   29.0054  -17.0552  -17.4806 N   0  0  0  0  0  0  0  0  0  0  0  0
   28.5340  -17.1209  -15.1664 N   0  0  0  0  0  0  0  0  0  0  0  0
   27.6646  -17.8225  -14.2599 C   0  0  0  0  0  0  0  0  0  0  0  0
   26.3416  -18.1296  -14.8790 C   0  0  0  0  0  0  0  0  0  0  0  0
   25.8554  -19.5192  -14.8150 C   0  0  0  0  0  0  0  0  0  0  0  0
   24.9659  -19.9026  -13.6925 C   0  0  2  0  0  0  0  0  0  0  0  0
   25.7405  -20.0726  -12.4637 N   0  0  0  0  0  0  0  0  0  0  0  0
   24.0673  -21.0257  -13.8727 C   0  0  0  0  0  0  0  0  0  0  0  0
   24.1780  -22.0638  -13.1914 O   0  0  0  0  0  0  0  0  0  0  0  0
   28.9761  -16.0249  -17.5286 N   0  0  0  0  0  0  0  0  0  0  0  0
   23.0346  -20.9591  -14.8419 C   0  0  2  0  0  0  0  0  0  0  0  0
   21.6347  -21.2126  -14.4759 C   0  0  0  0  0  0  0  0  0  0  0  0
   21.2297  -20.2194  -13.4297 C   0  0  0  0  0  0  0  0  0  0  0  0
   20.7016  -20.8544  -12.1979 C   0  0  0  0  0  0  0  0  0  0  0  0
   20.5518  -22.2127  -11.9400 N   0  0  0  0  0  0  0  0  0  0  0  0
   20.0438  -22.4055  -10.7207 C   0  0  0  0  0  0  0  0  0  0  0  0
   19.8659  -21.1804  -10.1927 N   0  0  0  0  0  0  0  0  0  0  0  0
   20.2550  -20.2466  -11.0650 C   0  0  0  0  0  0  0  0  0  0  0  0
   20.7618  -21.0597  -15.6551 O   0  0  0  0  0  0  0  0  0  0  0  0
   20.6304  -19.8795  -16.3557 O   0  0  0  0  0  0  0  0  0  0  0  0
  2  3  2  0
  2  1  1  0
  4  3  1  0
  5  4  2  0
  6  7  1  0
  6  5  1  0
  7  9  1  0
  7  8  1  1
  9 10  2  0
 11  5  1  0
 11 12  2  0
 12  2  1  0
 13 14  1  0
 14 15  2  0
 16 17  1  0
 16 14  1  0
 18 17  1  0
 19 18  1  0
 20 19  1  6
 20 22  1  0
 21 20  1  0
 21  9  1  0
 22 24  1  0
 22 23  2  0
 24 25  1  0
 25 32  1  0
 25 26  1  1
 27 26  1  0
 28 27  2  0
 29 28  1  0
 30 29  1  0
 30 31  2  0
 31 27  1  0
 32 34  2  0
 32 33  1  0
M  END
$$$$
