YRH.pdb
     RDKit          3D

 34 35  0  0  1  0  0  0  0  0999 V2000
   29.4592  -19.4513   -2.9225 O   0  0  0  0  0  0  0  0  0  0  0  0
   28.8117  -19.8407   -4.0869 C   0  0  0  0  0  0  0  0  0  0  0  0
   27.4354  -20.0486   -4.0011 C   0  0  0  0  0  0  0  0  0  0  0  0
   26.7806  -20.4404   -5.1705 C   0  0  0  0  0  0  0  0  0  0  0  0
   27.4627  -20.6116   -6.3460 C   0  0  0  0  0  0  0  0  0  0  0  0
   26.7483  -21.0234   -7.5616 C   0  0  0  0  0  0  0  0  0  0  0  0
   26.6126  -19.8139   -8.4887 C   0  0  2  0  0  0  0  0  0  0  0  0
   25.8519  -18.7507   -7.8626 N   0  0  0  0  0  0  0  0  0  0  0  0
   26.0042  -20.2105   -9.7693 C   0  0  0  0  0  0  0  0  0  0  0  0
   24.7534  -20.2594   -9.8566 O   0  0  0  0  0  0  0  0  0  0  0  0
   28.8143  -20.3956   -6.3813 C   0  0  0  0  0  0  0  0  0  0  0  0
   29.5191  -20.0019   -5.2383 C   0  0  0  0  0  0  0  0  0  0  0  0
   27.8775  -20.3998  -18.1167 N   0  0  0  0  0  0  0  0  0  0  0  0
   28.0130  -19.0275  -17.7558 C   0  0  0  0  0  0  0  0  0  0  0  0
   27.7782  -18.1103  -18.6054 N   0  0  0  0  0  0  0  0  0  0  0  0
   28.4202  -18.7117  -16.4127 N   0  0  0  0  0  0  0  0  0  0  0  0
   28.5444  -19.7816  -15.4588 C   0  0  0  0  0  0  0  0  0  0  0  0
   27.3530  -19.8745  -14.5646 C   0  0  0  0  0  0  0  0  0  0  0  0
   27.5827  -20.1445  -13.1342 C   0  0  0  0  0  0  0  0  0  0  0  0
   26.4035  -20.3002  -12.2492 C   0  0  2  0  0  0  0  0  0  0  0  0
   26.8290  -20.5266  -10.8684 N   0  0  0  0  0  0  0  0  0  0  0  0
   25.3821  -21.2605  -12.6181 C   0  0  0  0  0  0  0  0  0  0  0  0
   25.2631  -22.3470  -12.0185 O   0  0  0  0  0  0  0  0  0  0  0  0
   27.8412  -17.0975  -18.4186 N   0  0  0  0  0  0  0  0  0  0  0  0
   24.4910  -20.9740  -13.6830 C   0  0  2  0  0  0  0  0  0  0  0  0
   23.1315  -21.5300  -13.7037 C   0  0  0  0  0  0  0  0  0  0  0  0
   22.4352  -21.1300  -12.4387 C   0  0  0  0  0  0  0  0  0  0  0  0
   21.0138  -21.5512  -12.3986 C   0  0  0  0  0  0  0  0  0  0  0  0
   20.3174  -22.2818  -13.3553 N   0  0  0  0  0  0  0  0  0  0  0  0
   19.0527  -22.4709  -12.9721 C   0  0  0  0  0  0  0  0  0  0  0  0
   18.9311  -21.8669  -11.7756 N   0  0  0  0  0  0  0  0  0  0  0  0
   20.0950  -21.3145  -11.4228 C   0  0  0  0  0  0  0  0  0  0  0  0
   22.3808  -21.0035  -14.8591 O   0  0  0  0  0  0  0  0  0  0  0  0
   22.9009  -20.0900  -15.7512 O   0  0  0  0  0  0  0  0  0  0  0  0
  2  3  2  0
  2  1  1  0
  4  3  1  0
  5  4  2  0
  6  7  1  0
  6  5  1  0
  7  9  1  0
  7  8  1  1
  9 10  2  0
 11  5  1  0
 11 12  2  0
 12  2  1  0
 13 14  1  0
 14 15  2  0
 16 17  1  0
 16 14  1  0
 18 17  1  0
 19 18  1  0
 20 19  1  6
 20 22  1  0
 21 20  1  0
 21  9  1  0
 22 24  1  0
 22 23  2  0
 24 25  1  0
 25 32  1  0
 25 26  1  1
 27 26  1  0
 28 27  2  0
 29 28  1  0
 30 29  1  0
 30 31  2  0
 31 27  1  0
 32 34  2  0
 32 33  1  0
M  END
$$$$
