YRH.pdb
     RDKit          3D

 34 35  0  0  1  0  0  0  0  0999 V2000
   28.9102  -12.1541  -17.4935 O   0  0  0  0  0  0  0  0  0  0  0  0
   28.0938  -13.2490  -17.2459 C   0  0  0  0  0  0  0  0  0  0  0  0
   28.0167  -13.6893  -15.9250 C   0  0  0  0  0  0  0  0  0  0  0  0
   27.1963  -14.7906  -15.6719 C   0  0  0  0  0  0  0  0  0  0  0  0
   26.5008  -15.4071  -16.6782 C   0  0  0  0  0  0  0  0  0  0  0  0
   25.6440  -16.5633  -16.3834 C   0  0  0  0  0  0  0  0  0  0  0  0
   26.5232  -17.8080  -16.2475 C   0  0  2  0  0  0  0  0  0  0  0  0
   27.0774  -18.2060  -17.5263 N   0  0  0  0  0  0  0  0  0  0  0  0
   25.7641  -18.9124  -15.6379 C   0  0  0  0  0  0  0  0  0  0  0  0
   24.9540  -19.5554  -16.3482 O   0  0  0  0  0  0  0  0  0  0  0  0
   26.6081  -14.9386  -17.9602 C   0  0  0  0  0  0  0  0  0  0  0  0
   27.4163  -13.8386  -18.2684 C   0  0  0  0  0  0  0  0  0  0  0  0
   22.9351  -21.8967   -8.1436 N   0  0  0  0  0  0  0  0  0  0  0  0
   24.2463  -21.4108   -7.8674 C   0  0  0  0  0  0  0  0  0  0  0  0
   24.7524  -21.5418   -6.7076 N   0  0  0  0  0  0  0  0  0  0  0  0
   24.9759  -20.7725   -8.9303 N   0  0  0  0  0  0  0  0  0  0  0  0
   24.3027  -20.5219  -10.1769 C   0  0  0  0  0  0  0  0  0  0  0  0
   24.9005  -21.3003  -11.3014 C   0  0  0  0  0  0  0  0  0  0  0  0
   25.7271  -20.5737  -12.2813 C   0  0  0  0  0  0  0  0  0  0  0  0
   25.1134  -20.1953  -13.5768 C   0  0  2  0  0  0  0  0  0  0  0  0
   25.9574  -19.2279  -14.2772 N   0  0  0  0  0  0  0  0  0  0  0  0
   23.7340  -19.7497  -13.5863 C   0  0  0  0  0  0  0  0  0  0  0  0
   23.3951  -18.6696  -13.0642 O   0  0  0  0  0  0  0  0  0  0  0  0
   25.6678  -21.1676   -6.4135 N   0  0  0  0  0  0  0  0  0  0  0  0
   22.7350  -20.5486  -14.1981 C   0  0  2  0  0  0  0  0  0  0  0  0
   21.3178  -20.1672  -14.1376 C   0  0  0  0  0  0  0  0  0  0  0  0
   20.7165  -20.3559  -15.4969 C   0  0  0  0  0  0  0  0  0  0  0  0
   19.2744  -20.0135  -15.5480 C   0  0  0  0  0  0  0  0  0  0  0  0
   18.4629  -19.5970  -14.4983 N   0  0  0  0  0  0  0  0  0  0  0  0
   17.2171  -19.3801  -14.9261 C   0  0  0  0  0  0  0  0  0  0  0  0
   17.2220  -19.6542  -16.2436 N   0  0  0  0  0  0  0  0  0  0  0  0
   18.4443  -20.0333  -16.6264 C   0  0  0  0  0  0  0  0  0  0  0  0
   20.6006  -21.0152  -13.1669 O   0  0  0  0  0  0  0  0  0  0  0  0
   19.5883  -20.5510  -12.3541 O   0  0  0  0  0  0  0  0  0  0  0  0
  2  3  2  0
  2  1  1  0
  4  3  1  0
  5  4  2  0
  6  7  1  0
  6  5  1  0
  7  9  1  0
  7  8  1  6
  9 10  2  0
 11  5  1  0
 11 12  2  0
 12  2  1  0
 13 14  1  0
 14 15  2  0
 16 17  1  0
 16 14  1  0
 18 17  1  0
 19 18  1  0
 20 19  1  1
 20 22  1  0
 21 20  1  0
 21  9  1  0
 22 24  1  0
 22 23  2  0
 24 25  1  0
 25 32  1  0
 25 26  1  6
 27 26  1  0
 28 27  2  0
 29 28  1  0
 30 29  1  0
 30 31  2  0
 31 27  1  0
 32 34  2  0
 32 33  1  0
M  END
$$$$
