YRH.pdb
     RDKit          3D

 34 35  0  0  1  0  0  0  0  0999 V2000
   18.9110  -18.5108  -15.3082 O   0  0  0  0  0  0  0  0  0  0  0  0
   18.9174  -17.1359  -15.4987 C   0  0  0  0  0  0  0  0  0  0  0  0
   18.2947  -16.3630  -14.5192 C   0  0  0  0  0  0  0  0  0  0  0  0
   18.2991  -14.9794  -14.7073 C   0  0  0  0  0  0  0  0  0  0  0  0
   18.8893  -14.4114  -15.8053 C   0  0  0  0  0  0  0  0  0  0  0  0
   18.8801  -12.9527  -15.9775 C   0  0  0  0  0  0  0  0  0  0  0  0
   17.5218  -12.5300  -16.5406 C   0  0  2  0  0  0  0  0  0  0  0  0
   17.3229  -13.0427  -17.8817 N   0  0  0  0  0  0  0  0  0  0  0  0
   17.3849  -11.0645  -16.5134 C   0  0  0  0  0  0  0  0  0  0  0  0
   17.8855  -10.3917  -17.4468 O   0  0  0  0  0  0  0  0  0  0  0  0
   19.4886  -15.2116  -16.7408 C   0  0  0  0  0  0  0  0  0  0  0  0
   19.5125  -16.6037  -16.6008 C   0  0  0  0  0  0  0  0  0  0  0  0
   10.9919   -6.0068  -13.2609 N   0  0  0  0  0  0  0  0  0  0  0  0
   11.9165   -5.0456  -13.7636 C   0  0  0  0  0  0  0  0  0  0  0  0
   11.5898   -3.8191  -13.8500 N   0  0  0  0  0  0  0  0  0  0  0  0
   13.2206   -5.4989  -14.1678 N   0  0  0  0  0  0  0  0  0  0  0  0
   13.5291   -6.9000  -14.0598 C   0  0  0  0  0  0  0  0  0  0  0  0
   14.8407   -7.2338  -14.6892 C   0  0  0  0  0  0  0  0  0  0  0  0
   15.2457   -8.6501  -14.7313 C   0  0  0  0  0  0  0  0  0  0  0  0
   16.5404   -8.9932  -15.3671 C   0  0  2  0  0  0  0  0  0  0  0  0
   16.6993  -10.4447  -15.4484 N   0  0  0  0  0  0  0  0  0  0  0  0
   17.7504   -8.3894  -14.8451 C   0  0  0  0  0  0  0  0  0  0  0  0
   18.5943   -9.0596  -14.2183 O   0  0  0  0  0  0  0  0  0  0  0  0
   12.2220   -3.0548  -14.1340 N   0  0  0  0  0  0  0  0  0  0  0  0
   17.9948   -7.0067  -15.0418 C   0  0  2  0  0  0  0  0  0  0  0  0
   19.3613   -6.4682  -15.0191 C   0  0  0  0  0  0  0  0  0  0  0  0
   20.1452   -7.1146  -16.1202 C   0  0  0  0  0  0  0  0  0  0  0  0
   21.5393   -6.6171  -16.2116 C   0  0  0  0  0  0  0  0  0  0  0  0
   22.1602   -5.6760  -15.3975 N   0  0  0  0  0  0  0  0  0  0  0  0
   23.4231   -5.4818  -15.7838 C   0  0  0  0  0  0  0  0  0  0  0  0
   23.6186   -6.2915  -16.8408 N   0  0  0  0  0  0  0  0  0  0  0  0
   22.5015   -6.9742  -17.1056 C   0  0  0  0  0  0  0  0  0  0  0  0
   19.3396   -5.0084  -15.2302 O   0  0  0  0  0  0  0  0  0  0  0  0
   20.0808   -4.1207  -14.4797 O   0  0  0  0  0  0  0  0  0  0  0  0
  2  3  2  0
  2  1  1  0
  4  3  1  0
  5  4  2  0
  6  7  1  0
  6  5  1  0
  7  9  1  0
  7  8  1  6
  9 10  2  0
 11  5  1  0
 11 12  2  0
 12  2  1  0
 13 14  1  0
 14 15  2  0
 16 17  1  0
 16 14  1  0
 18 17  1  0
 19 18  1  0
 20 19  1  1
 20 22  1  0
 21 20  1  0
 21  9  1  0
 22 24  1  0
 22 23  2  0
 24 25  1  0
 25 32  1  0
 25 26  1  6
 27 26  1  0
 28 27  2  0
 29 28  1  0
 30 29  1  0
 30 31  2  0
 31 27  1  0
 32 34  2  0
 32 33  1  0
M  END
$$$$
