YRH.pdb
     RDKit          3D

 34 35  0  0  1  0  0  0  0  0999 V2000
   30.2097  -11.3440  -16.4475 O   0  0  0  0  0  0  0  0  0  0  0  0
   28.9299  -10.8092  -16.3960 C   0  0  0  0  0  0  0  0  0  0  0  0
   28.6610   -9.7397  -17.2494 C   0  0  0  0  0  0  0  0  0  0  0  0
   27.3745   -9.1990  -17.2006 C   0  0  0  0  0  0  0  0  0  0  0  0
   26.4231   -9.6994  -16.3515 C   0  0  0  0  0  0  0  0  0  0  0  0
   25.0771   -9.1121  -16.3215 C   0  0  0  0  0  0  0  0  0  0  0  0
   24.1183  -10.0346  -17.0767 C   0  0  2  0  0  0  0  0  0  0  0  0
   24.6132  -10.3385  -18.4047 N   0  0  0  0  0  0  0  0  0  0  0  0
   22.7730   -9.4402  -17.1413 C   0  0  0  0  0  0  0  0  0  0  0  0
   22.5126   -8.6291  -18.0626 O   0  0  0  0  0  0  0  0  0  0  0  0
   26.7340  -10.7511  -15.5317 C   0  0  0  0  0  0  0  0  0  0  0  0
   28.0080  -11.3299  -15.5409 C   0  0  0  0  0  0  0  0  0  0  0  0
   15.2261  -12.9651  -14.0782 N   0  0  0  0  0  0  0  0  0  0  0  0
   14.8040  -11.9633  -15.0001 C   0  0  0  0  0  0  0  0  0  0  0  0
   13.5902  -11.9020  -15.3761 N   0  0  0  0  0  0  0  0  0  0  0  0
   15.7831  -11.0299  -15.4897 N   0  0  0  0  0  0  0  0  0  0  0  0
   17.1779  -11.3487  -15.3383 C   0  0  0  0  0  0  0  0  0  0  0  0
   18.0592  -10.2825  -15.8990 C   0  0  0  0  0  0  0  0  0  0  0  0
   19.5167  -10.4932  -15.8466 C   0  0  0  0  0  0  0  0  0  0  0  0
   20.4032   -9.3968  -16.3050 C   0  0  2  0  0  0  0  0  0  0  0  0
   21.8064   -9.7882  -16.1755 N   0  0  0  0  0  0  0  0  0  0  0  0
   20.2049   -8.0698  -15.7563 C   0  0  0  0  0  0  0  0  0  0  0  0
   20.7286   -7.7261  -14.6785 O   0  0  0  0  0  0  0  0  0  0  0  0
   13.2025  -11.1935  -16.0182 N   0  0  0  0  0  0  0  0  0  0  0  0
   19.3993   -7.1298  -16.4475 C   0  0  2  0  0  0  0  0  0  0  0  0
   19.1651   -5.7864  -15.9016 C   0  0  0  0  0  0  0  0  0  0  0  0
   18.8463   -4.8613  -17.0362 C   0  0  0  0  0  0  0  0  0  0  0  0
   18.5019   -3.4897  -16.5896 C   0  0  0  0  0  0  0  0  0  0  0  0
   17.4166   -3.0966  -15.8139 N   0  0  0  0  0  0  0  0  0  0  0  0
   17.4363   -1.7769  -15.6139 C   0  0  0  0  0  0  0  0  0  0  0  0
   18.5269   -1.3186  -16.2556 N   0  0  0  0  0  0  0  0  0  0  0  0
   19.1709   -2.3315  -16.8416 C   0  0  0  0  0  0  0  0  0  0  0  0
   18.0310   -5.8079  -14.9586 O   0  0  0  0  0  0  0  0  0  0  0  0
   17.9424   -4.9832  -13.8573 O   0  0  0  0  0  0  0  0  0  0  0  0
  2  3  2  0
  2  1  1  0
  4  3  1  0
  5  4  2  0
  6  7  1  0
  6  5  1  0
  7  9  1  0
  7  8  1  6
  9 10  2  0
 11  5  1  0
 11 12  2  0
 12  2  1  0
 13 14  1  0
 14 15  2  0
 16 17  1  0
 16 14  1  0
 18 17  1  0
 19 18  1  0
 20 19  1  1
 20 22  1  0
 21 20  1  0
 21  9  1  0
 22 24  1  0
 22 23  2  0
 24 25  1  0
 25 32  1  0
 25 26  1  6
 27 26  1  0
 28 27  2  0
 29 28  1  0
 30 29  1  0
 30 31  2  0
 31 27  1  0
 32 34  2  0
 32 33  1  0
M  END
$$$$
