YRH.pdb
     RDKit          3D

 34 35  0  0  1  0  0  0  0  0999 V2000
   37.6408   -2.9349    1.5456 O   0  0  0  0  0  0  0  0  0  0  0  0
   38.1939   -3.4895    0.3996 C   0  0  0  0  0  0  0  0  0  0  0  0
   37.9817   -2.8037   -0.7958 C   0  0  0  0  0  0  0  0  0  0  0  0
   38.5367   -3.3585   -1.9508 C   0  0  0  0  0  0  0  0  0  0  0  0
   39.2560   -4.5234   -1.9069 C   0  0  0  0  0  0  0  0  0  0  0  0
   39.8298   -5.0843   -3.1374 C   0  0  0  0  0  0  0  0  0  0  0  0
   41.3380   -5.2557   -2.9460 C   0  0  2  0  0  0  0  0  0  0  0  0
   41.9622   -4.0157   -2.5290 N   0  0  0  0  0  0  0  0  0  0  0  0
   41.9600   -5.7678   -4.1781 C   0  0  0  0  0  0  0  0  0  0  0  0
   42.2689   -4.9561   -5.0837 O   0  0  0  0  0  0  0  0  0  0  0  0
   39.4380   -5.1614   -0.7092 C   0  0  0  0  0  0  0  0  0  0  0  0
   38.9032   -4.6483    0.4778 C   0  0  0  0  0  0  0  0  0  0  0  0
   45.5537  -13.7326   -6.0016 N   0  0  0  0  0  0  0  0  0  0  0  0
   45.5905  -13.0640   -7.2599 C   0  0  0  0  0  0  0  0  0  0  0  0
   46.1340  -13.6163   -8.2688 N   0  0  0  0  0  0  0  0  0  0  0  0
   44.9997  -11.7558   -7.3555 N   0  0  0  0  0  0  0  0  0  0  0  0
   44.3936  -11.1840   -6.1826 C   0  0  0  0  0  0  0  0  0  0  0  0
   43.8423   -9.8221   -6.4455 C   0  0  0  0  0  0  0  0  0  0  0  0
   43.2313   -9.0953   -5.3186 C   0  0  0  0  0  0  0  0  0  0  0  0
   42.7178   -7.7256   -5.5603 C   0  0  2  0  0  0  0  0  0  0  0  0
   42.1971   -7.1505   -4.3205 N   0  0  0  0  0  0  0  0  0  0  0  0
   41.7713   -7.5206   -6.6390 C   0  0  0  0  0  0  0  0  0  0  0  0
   40.5472   -7.6859   -6.4711 O   0  0  0  0  0  0  0  0  0  0  0  0
   46.1773  -13.2103   -9.2164 N   0  0  0  0  0  0  0  0  0  0  0  0
   42.2313   -7.1240   -7.9201 C   0  0  2  0  0  0  0  0  0  0  0  0
   41.2970   -6.9504   -9.0403 C   0  0  0  0  0  0  0  0  0  0  0  0
   40.5700   -5.6534   -8.8560 C   0  0  0  0  0  0  0  0  0  0  0  0
   39.6535   -5.3355   -9.9778 C   0  0  0  0  0  0  0  0  0  0  0  0
   38.8269   -6.2113  -10.6733 N   0  0  0  0  0  0  0  0  0  0  0  0
   38.1451   -5.5615  -11.6193 C   0  0  0  0  0  0  0  0  0  0  0  0
   38.5276   -4.2739  -11.5369 N   0  0  0  0  0  0  0  0  0  0  0  0
   39.4276   -4.1266  -10.5609 C   0  0  0  0  0  0  0  0  0  0  0  0
   42.0316   -6.9184  -10.3190 O   0  0  0  0  0  0  0  0  0  0  0  0
   41.4857   -7.3205  -11.5195 O   0  0  0  0  0  0  0  0  0  0  0  0
  2  3  2  0
  2  1  1  0
  4  3  1  0
  5  4  2  0
  6  7  1  0
  6  5  1  0
  7  9  1  0
  7  8  1  6
  9 10  2  0
 11  5  1  0
 11 12  2  0
 12  2  1  0
 13 14  1  0
 14 15  2  0
 16 17  1  0
 16 14  1  0
 18 17  1  0
 19 18  1  0
 20 19  1  1
 20 22  1  0
 21 20  1  0
 21  9  1  0
 22 24  1  0
 22 23  2  0
 24 25  1  0
 25 32  1  0
 25 26  1  6
 27 26  1  0
 28 27  2  0
 29 28  1  0
 30 29  1  0
 30 31  2  0
 31 27  1  0
 32 34  2  0
 32 33  1  0
M  END
$$$$
