MMW.pdb
     RDKit          3D

 31 32  0  0  1  0  0  0  0  0999 V2000
   24.1949  -20.5688  -20.3648 C   0  0  0  0  0  0  0  0  0  0  0  0
   25.9780  -20.3582  -20.4659 S   0  0  0  0  0  0  0  0  0  0  0  0
   26.8633  -21.1709  -19.1186 C   0  0  0  0  0  0  0  0  0  0  0  0
   25.9284  -21.4347  -17.9680 C   0  0  0  0  0  0  0  0  0  0  0  0
   26.5693  -21.0799  -16.6568 C   0  0  2  0  0  0  0  0  0  0  0  0
   27.7692  -21.8509  -16.4168 N   0  0  0  0  0  0  0  0  0  0  0  0
   25.6235  -21.2930  -15.5008 C   0  0  0  0  0  0  0  0  0  0  0  0
   24.4516  -21.6671  -15.7262 O   0  0  0  0  0  0  0  0  0  0  0  0
   25.4466  -21.1534   -7.4725 C   0  0  0  0  0  0  0  0  0  0  0  0
   26.4286  -20.9287   -8.9740 S   0  0  0  0  0  0  0  0  0  0  0  0
   25.3669  -21.0243  -10.4430 C   0  0  0  0  0  0  0  0  0  0  0  0
   26.1788  -20.9434  -11.7119 C   0  0  0  0  0  0  0  0  0  0  0  0
   25.3562  -21.0667  -12.9624 C   0  0  2  0  0  0  0  0  0  0  0  0
   26.0746  -21.0690  -14.1948 N   0  0  0  0  0  0  0  0  0  0  0  0
   24.1278  -20.2728  -12.9951 C   0  0  0  0  0  0  0  0  0  0  0  0
   24.2128  -18.9896  -12.9707 O   0  0  0  0  0  0  0  0  0  0  0  0
   22.8212  -20.8213  -13.0532 N   0  0  0  0  0  0  0  0  0  0  0  0
   21.6002  -20.0481  -13.0163 C   0  0  1  0  0  0  0  0  0  0  0  0
   21.6483  -18.8431  -13.8869 C   0  0  0  0  0  0  0  0  0  0  0  0
   21.3250  -19.1240  -15.3013 C   0  0  0  0  0  0  0  0  0  0  0  0
   20.1765  -19.7022  -15.7951 C   0  0  0  0  0  0  0  0  0  0  0  0
   20.2726  -19.7796  -17.1177 N   0  0  0  0  0  0  0  0  0  0  0  0
   21.4345  -19.2807  -17.5540 C   0  0  0  0  0  0  0  0  0  0  0  0
   21.9818  -19.1432  -18.8085 C   0  0  0  0  0  0  0  0  0  0  0  0
   23.2341  -18.5781  -18.9743 C   0  0  0  0  0  0  0  0  0  0  0  0
   23.9072  -18.1617  -17.8449 C   0  0  0  0  0  0  0  0  0  0  0  0
   23.3492  -18.3043  -16.5915 C   0  0  0  0  0  0  0  0  0  0  0  0
   22.1105  -18.8609  -16.4033 C   0  0  0  0  0  0  0  0  0  0  0  0
   20.3721  -20.8447  -13.1680 C   0  0  0  0  0  0  0  0  0  0  0  0
   19.1271  -20.2886  -12.9412 O   0  0  0  0  0  0  0  0  0  0  0  0
   20.4458  -22.0414  -13.5063 O   0  0  0  0  0  0  0  0  0  0  0  0
  2  1  1  0
  3  2  1  0
  4  3  1  0
  5  4  1  0
  5  6  1  1
  7  8  2  0
  7  5  1  0
 10  9  1  0
 11 10  1  0
 11 12  1  0
 13 12  1  1
 13 14  1  0
 14  7  1  0
 15 17  1  0
 15 13  1  0
 16 15  2  0
 18 17  1  0
 18 29  1  0
 19 20  1  0
 18 19  1  6
 20 28  1  0
 21 20  2  0
 21 22  1  0
 22 23  1  0
 23 24  1  0
 24 25  2  0
 26 25  1  0
 27 26  2  0
 28 23  2  0
 28 27  1  0
 29 30  1  0
 31 29  2  0
M  END
$$$$
