MMW.pdb
     RDKit          3D

 31 32  0  0  1  0  0  0  0  0999 V2000
   22.5909  -15.3257  -19.7735 C   0  0  0  0  0  0  0  0  0  0  0  0
   22.6529  -15.4494  -17.9805 S   0  0  0  0  0  0  0  0  0  0  0  0
   21.7609  -16.8821  -17.3394 C   0  0  0  0  0  0  0  0  0  0  0  0
   22.7316  -17.8993  -16.8004 C   0  0  0  0  0  0  0  0  0  0  0  0
   23.8532  -18.1442  -17.7689 C   0  0  2  0  0  0  0  0  0  0  0  0
   23.3874  -18.7702  -18.9867 N   0  0  0  0  0  0  0  0  0  0  0  0
   24.9288  -19.0127  -17.1647 C   0  0  0  0  0  0  0  0  0  0  0  0
   24.8274  -20.2571  -17.2379 O   0  0  0  0  0  0  0  0  0  0  0  0
   30.2581  -16.4260  -18.2052 C   0  0  0  0  0  0  0  0  0  0  0  0
   30.3669  -18.2306  -18.2298 S   0  0  0  0  0  0  0  0  0  0  0  0
   28.7986  -18.9652  -17.6863 C   0  0  0  0  0  0  0  0  0  0  0  0
   28.4886  -18.5989  -16.2562 C   0  0  0  0  0  0  0  0  0  0  0  0
   27.1086  -18.9975  -15.8177 C   0  0  2  0  0  0  0  0  0  0  0  0
   26.0230  -18.4103  -16.5329 N   0  0  0  0  0  0  0  0  0  0  0  0
   26.8967  -19.0652  -14.3717 C   0  0  0  0  0  0  0  0  0  0  0  0
   26.7477  -17.9721  -13.7106 O   0  0  0  0  0  0  0  0  0  0  0  0
   26.8415  -20.2705  -13.6262 N   0  0  0  0  0  0  0  0  0  0  0  0
   26.5773  -20.3505  -12.2071 C   0  0  1  0  0  0  0  0  0  0  0  0
   25.4329  -19.5021  -11.7795 C   0  0  0  0  0  0  0  0  0  0  0  0
   24.1284  -19.9683  -12.2941 C   0  0  0  0  0  0  0  0  0  0  0  0
   23.4632  -21.1254  -11.9539 C   0  0  0  0  0  0  0  0  0  0  0  0
   22.3240  -21.1784  -12.6348 N   0  0  0  0  0  0  0  0  0  0  0  0
   22.1770  -20.1104  -13.4267 C   0  0  0  0  0  0  0  0  0  0  0  0
   21.1888  -19.7231  -14.3019 C   0  0  0  0  0  0  0  0  0  0  0  0
   21.2974  -18.5392  -15.0101 C   0  0  0  0  0  0  0  0  0  0  0  0
   22.4232  -17.7687  -14.8077 C   0  0  0  0  0  0  0  0  0  0  0  0
   23.4081  -18.1664  -13.9276 C   0  0  0  0  0  0  0  0  0  0  0  0
   23.3220  -19.3347  -13.2155 C   0  0  0  0  0  0  0  0  0  0  0  0
   26.5353  -21.7214  -11.6735 C   0  0  0  0  0  0  0  0  0  0  0  0
   26.6394  -22.8171  -12.5098 O   0  0  0  0  0  0  0  0  0  0  0  0
   26.4040  -21.9075  -10.4487 O   0  0  0  0  0  0  0  0  0  0  0  0
  2  1  1  0
  3  2  1  0
  4  3  1  0
  5  4  1  0
  5  6  1  6
  7  8  2  0
  7  5  1  0
 10  9  1  0
 11 10  1  0
 11 12  1  0
 13 12  1  1
 13 14  1  0
 14  7  1  0
 15 17  1  0
 15 13  1  0
 16 15  2  0
 18 17  1  0
 18 29  1  0
 19 20  1  0
 18 19  1  6
 20 28  1  0
 21 20  2  0
 21 22  1  0
 22 23  1  0
 23 24  1  0
 24 25  2  0
 26 25  1  0
 27 26  2  0
 28 23  2  0
 28 27  1  0
 29 30  1  0
 31 29  2  0
M  END
$$$$
