MMW.pdb
     RDKit          3D

 31 32  0  0  1  0  0  0  0  0999 V2000
   15.9870  -25.1732   -1.2482 C   0  0  0  0  0  0  0  0  0  0  0  0
   16.0543  -23.8796   -0.0007 S   0  0  0  0  0  0  0  0  0  0  0  0
   14.9524  -22.4949   -0.3581 C   0  0  0  0  0  0  0  0  0  0  0  0
   15.0474  -21.4612    0.7328 C   0  0  0  0  0  0  0  0  0  0  0  0
   14.0123  -21.6979    1.7951 C   0  0  2  0  0  0  0  0  0  0  0  0
   12.6733  -21.4486    1.3086 N   0  0  0  0  0  0  0  0  0  0  0  0
   14.2514  -20.8306    3.0063 C   0  0  0  0  0  0  0  0  0  0  0  0
   13.7465  -19.6873    3.0531 O   0  0  0  0  0  0  0  0  0  0  0  0
   17.0242  -20.9915   10.4933 C   0  0  0  0  0  0  0  0  0  0  0  0
   16.7635  -21.9197    8.9637 S   0  0  0  0  0  0  0  0  0  0  0  0
   16.3513  -20.7914    7.6030 C   0  0  0  0  0  0  0  0  0  0  0  0
   15.8892  -21.5498    6.3835 C   0  0  0  0  0  0  0  0  0  0  0  0
   15.5144  -20.6644    5.2297 C   0  0  2  0  0  0  0  0  0  0  0  0
   15.0340  -21.3211    4.0580 N   0  0  0  0  0  0  0  0  0  0  0  0
   16.4314  -19.5584    4.9541 C   0  0  0  0  0  0  0  0  0  0  0  0
   17.4814  -19.7797    4.2449 O   0  0  0  0  0  0  0  0  0  0  0  0
   16.2477  -18.2311    5.4190 N   0  0  0  0  0  0  0  0  0  0  0  0
   17.1640  -17.1391    5.1781 C   0  0  1  0  0  0  0  0  0  0  0  0
   16.4798  -15.8881    4.7548 C   0  0  0  0  0  0  0  0  0  0  0  0
   17.4075  -14.8392    4.2824 C   0  0  0  0  0  0  0  0  0  0  0  0
   17.7509  -14.5551    2.9792 C   0  0  0  0  0  0  0  0  0  0  0  0
   18.6104  -13.5425    2.9756 N   0  0  0  0  0  0  0  0  0  0  0  0
   18.8725  -13.1186    4.2169 C   0  0  0  0  0  0  0  0  0  0  0  0
   19.6797  -12.1221    4.7147 C   0  0  0  0  0  0  0  0  0  0  0  0
   19.7644  -11.8971    6.0775 C   0  0  0  0  0  0  0  0  0  0  0  0
   19.0161  -12.7019    6.9108 C   0  0  0  0  0  0  0  0  0  0  0  0
   18.2098  -13.6983    6.4011 C   0  0  0  0  0  0  0  0  0  0  0  0
   18.1102  -13.9393    5.0552 C   0  0  0  0  0  0  0  0  0  0  0  0
   18.1655  -16.9416    6.2382 C   0  0  0  0  0  0  0  0  0  0  0  0
   19.5188  -16.9929    5.9612 O   0  0  0  0  0  0  0  0  0  0  0  0
   17.7969  -16.7239    7.4081 O   0  0  0  0  0  0  0  0  0  0  0  0
  2  1  1  0
  3  2  1  0
  4  3  1  0
  5  4  1  0
  5  6  1  6
  7  8  2  0
  7  5  1  0
 10  9  1  0
 11 10  1  0
 11 12  1  0
 13 12  1  1
 13 14  1  0
 14  7  1  0
 15 17  1  0
 15 13  1  0
 16 15  2  0
 18 17  1  0
 18 29  1  0
 19 20  1  0
 18 19  1  1
 20 28  1  0
 21 20  2  0
 21 22  1  0
 22 23  1  0
 23 24  1  0
 24 25  2  0
 26 25  1  0
 27 26  2  0
 28 23  2  0
 28 27  1  0
 29 30  1  0
 31 29  2  0
M  END
$$$$
