MMW.pdb
     RDKit          3D

 31 32  0  0  1  0  0  0  0  0999 V2000
   21.0199  -11.4157    6.0063 C   0  0  0  0  0  0  0  0  0  0  0  0
   20.0594  -12.9323    6.1134 S   0  0  0  0  0  0  0  0  0  0  0  0
   18.3871  -12.7579    5.4559 C   0  0  0  0  0  0  0  0  0  0  0  0
   17.7315  -14.1085    5.3401 C   0  0  0  0  0  0  0  0  0  0  0  0
   16.3149  -13.9836    4.8570 C   0  0  2  0  0  0  0  0  0  0  0  0
   15.4872  -13.2575    5.7948 N   0  0  0  0  0  0  0  0  0  0  0  0
   15.6903  -15.3351    4.6130 C   0  0  0  0  0  0  0  0  0  0  0  0
   14.5981  -15.4075    4.0079 O   0  0  0  0  0  0  0  0  0  0  0  0
   20.7502  -18.0543    1.2330 C   0  0  0  0  0  0  0  0  0  0  0  0
   18.9917  -18.0127    0.8150 S   0  0  0  0  0  0  0  0  0  0  0  0
   17.9890  -18.4737    2.2560 C   0  0  0  0  0  0  0  0  0  0  0  0
   17.5903  -17.2593    3.0571 C   0  0  0  0  0  0  0  0  0  0  0  0
   16.8773  -17.5893    4.3371 C   0  0  2  0  0  0  0  0  0  0  0  0
   16.3448  -16.4858    5.0677 N   0  0  0  0  0  0  0  0  0  0  0  0
   17.5171  -18.6017    5.1773 C   0  0  0  0  0  0  0  0  0  0  0  0
   18.0190  -19.6477    4.6221 O   0  0  0  0  0  0  0  0  0  0  0  0
   17.6291  -18.5167    6.5886 N   0  0  0  0  0  0  0  0  0  0  0  0
   18.3504  -19.4572    7.4164 C   0  0  1  0  0  0  0  0  0  0  0  0
   18.7572  -18.8853    8.7278 C   0  0  0  0  0  0  0  0  0  0  0  0
   19.3414  -17.5318    8.6253 C   0  0  0  0  0  0  0  0  0  0  0  0
   18.6649  -16.3328    8.5818 C   0  0  0  0  0  0  0  0  0  0  0  0
   19.5501  -15.3467    8.4894 N   0  0  0  0  0  0  0  0  0  0  0  0
   20.8031  -15.8144    8.4677 C   0  0  0  0  0  0  0  0  0  0  0  0
   22.0304  -15.1988    8.3830 C   0  0  0  0  0  0  0  0  0  0  0  0
   23.1958  -15.9452    8.3803 C   0  0  0  0  0  0  0  0  0  0  0  0
   23.0820  -17.3170    8.4649 C   0  0  0  0  0  0  0  0  0  0  0  0
   21.8463  -17.9241    8.5495 C   0  0  0  0  0  0  0  0  0  0  0  0
   20.6789  -17.2052    8.5539 C   0  0  0  0  0  0  0  0  0  0  0  0
   17.7242  -20.7855    7.5135 C   0  0  0  0  0  0  0  0  0  0  0  0
   18.2846  -21.7848    8.2867 O   0  0  0  0  0  0  0  0  0  0  0  0
   16.6708  -21.0225    6.8920 O   0  0  0  0  0  0  0  0  0  0  0  0
  2  1  1  0
  3  2  1  0
  4  3  1  0
  5  4  1  0
  5  6  1  1
  7  8  2  0
  7  5  1  0
 10  9  1  0
 11 10  1  0
 11 12  1  0
 13 12  1  6
 13 14  1  0
 14  7  1  0
 15 17  1  0
 15 13  1  0
 16 15  2  0
 18 17  1  0
 18 29  1  0
 19 20  1  0
 18 19  1  1
 20 28  1  0
 21 20  2  0
 21 22  1  0
 22 23  1  0
 23 24  1  0
 24 25  2  0
 26 25  1  0
 27 26  2  0
 28 23  2  0
 28 27  1  0
 29 30  1  0
 31 29  2  0
M  END
$$$$
