MMW.pdb
     RDKit          3D

 31 32  0  0  1  0  0  0  0  0999 V2000
   17.8742  -27.2539  -13.5018 C   0  0  0  0  0  0  0  0  0  0  0  0
   17.0252  -25.7998  -14.1333 S   0  0  0  0  0  0  0  0  0  0  0  0
   18.1497  -24.5733  -14.8338 C   0  0  0  0  0  0  0  0  0  0  0  0
   19.5719  -24.9025  -14.4647 C   0  0  0  0  0  0  0  0  0  0  0  0
   20.5437  -24.1120  -15.2934 C   0  0  2  0  0  0  0  0  0  0  0  0
   20.5294  -24.5231  -16.6800 N   0  0  0  0  0  0  0  0  0  0  0  0
   21.9528  -24.2404  -14.7699 C   0  0  0  0  0  0  0  0  0  0  0  0
   22.3274  -25.3250  -14.2723 O   0  0  0  0  0  0  0  0  0  0  0  0
   28.5058  -21.7198  -17.1375 C   0  0  0  0  0  0  0  0  0  0  0  0
   27.7895  -23.2419  -16.4751 S   0  0  0  0  0  0  0  0  0  0  0  0
   26.6142  -22.8603  -15.1456 C   0  0  0  0  0  0  0  0  0  0  0  0
   25.1897  -23.0625  -15.5990 C   0  0  0  0  0  0  0  0  0  0  0  0
   24.1898  -23.0249  -14.4789 C   0  0  2  0  0  0  0  0  0  0  0  0
   22.8178  -23.1429  -14.8510 N   0  0  0  0  0  0  0  0  0  0  0  0
   24.4372  -22.0246  -13.4404 C   0  0  0  0  0  0  0  0  0  0  0  0
   23.9991  -20.8272  -13.6097 O   0  0  0  0  0  0  0  0  0  0  0  0
   25.1385  -22.2792  -12.2342 N   0  0  0  0  0  0  0  0  0  0  0  0
   25.6241  -21.2593  -11.3320 C   0  0  1  0  0  0  0  0  0  0  0  0
   26.4950  -21.8018  -10.2552 C   0  0  0  0  0  0  0  0  0  0  0  0
   26.7779  -20.8291   -9.1792 C   0  0  0  0  0  0  0  0  0  0  0  0
   25.9850  -19.7773   -8.7765 C   0  0  0  0  0  0  0  0  0  0  0  0
   26.5924  -19.1421   -7.7805 N   0  0  0  0  0  0  0  0  0  0  0  0
   27.7659  -19.7103   -7.4812 C   0  0  0  0  0  0  0  0  0  0  0  0
   28.7349  -19.4211   -6.5486 C   0  0  0  0  0  0  0  0  0  0  0  0
   29.8789  -20.1942   -6.4564 C   0  0  0  0  0  0  0  0  0  0  0  0
   30.0105  -21.2560   -7.3266 C   0  0  0  0  0  0  0  0  0  0  0  0
   29.0327  -21.5372   -8.2581 C   0  0  0  0  0  0  0  0  0  0  0  0
   27.8914  -20.7854   -8.3675 C   0  0  0  0  0  0  0  0  0  0  0  0
   26.1737  -20.0689  -12.0005 C   0  0  0  0  0  0  0  0  0  0  0  0
   27.2451  -20.1675  -12.8683 O   0  0  0  0  0  0  0  0  0  0  0  0
   25.6714  -18.9490  -11.7868 O   0  0  0  0  0  0  0  0  0  0  0  0
  2  1  1  0
  3  2  1  0
  4  3  1  0
  5  4  1  0
  5  6  1  6
  7  8  2  0
  7  5  1  0
 10  9  1  0
 11 10  1  0
 11 12  1  0
 13 12  1  6
 13 14  1  0
 14  7  1  0
 15 17  1  0
 15 13  1  0
 16 15  2  0
 18 17  1  0
 18 29  1  0
 19 20  1  0
 18 19  1  6
 20 28  1  0
 21 20  2  0
 21 22  1  0
 22 23  1  0
 23 24  1  0
 24 25  2  0
 26 25  1  0
 27 26  2  0
 28 23  2  0
 28 27  1  0
 29 30  1  0
 31 29  2  0
M  END
$$$$
