MMW.pdb
     RDKit          3D

 31 32  0  0  1  0  0  0  0  0999 V2000
   20.6792  -15.1182  -20.4118 C   0  0  0  0  0  0  0  0  0  0  0  0
   22.2359  -15.9976  -20.2181 S   0  0  0  0  0  0  0  0  0  0  0  0
   22.0169  -17.7623  -19.9059 C   0  0  0  0  0  0  0  0  0  0  0  0
   23.3563  -18.4301  -19.7406 C   0  0  0  0  0  0  0  0  0  0  0  0
   23.8752  -18.2647  -18.3408 C   0  0  2  0  0  0  0  0  0  0  0  0
   24.3482  -16.9200  -18.0962 N   0  0  0  0  0  0  0  0  0  0  0  0
   24.9982  -19.2285  -18.0474 C   0  0  0  0  0  0  0  0  0  0  0  0
   24.8059  -20.4567  -18.1843 O   0  0  0  0  0  0  0  0  0  0  0  0
   29.1958  -21.6116  -21.4573 C   0  0  0  0  0  0  0  0  0  0  0  0
   29.5044  -21.0773  -19.7578 S   0  0  0  0  0  0  0  0  0  0  0  0
   28.5507  -19.5788  -19.3840 C   0  0  0  0  0  0  0  0  0  0  0  0
   28.6612  -19.2088  -17.9257 C   0  0  0  0  0  0  0  0  0  0  0  0
   27.3915  -19.4217  -17.1523 C   0  0  2  0  0  0  0  0  0  0  0  0
   26.2374  -18.7310  -17.6276 N   0  0  0  0  0  0  0  0  0  0  0  0
   27.5268  -19.4150  -15.6956 C   0  0  0  0  0  0  0  0  0  0  0  0
   28.0582  -18.3934  -15.1225 O   0  0  0  0  0  0  0  0  0  0  0  0
   27.1076  -20.4717  -14.8476 N   0  0  0  0  0  0  0  0  0  0  0  0
   27.0676  -20.4037  -13.4040 C   0  0  1  0  0  0  0  0  0  0  0  0
   26.3003  -19.2344  -12.8977 C   0  0  0  0  0  0  0  0  0  0  0  0
   26.2661  -19.1452  -11.4230 C   0  0  0  0  0  0  0  0  0  0  0  0
   26.8726  -18.1956  -10.6308 C   0  0  0  0  0  0  0  0  0  0  0  0
   26.6022  -18.4653   -9.3587 N   0  0  0  0  0  0  0  0  0  0  0  0
   25.8376  -19.5567   -9.2417 C   0  0  0  0  0  0  0  0  0  0  0  0
   25.3091  -20.2172   -8.1569 C   0  0  0  0  0  0  0  0  0  0  0  0
   24.5348  -21.3511   -8.3295 C   0  0  0  0  0  0  0  0  0  0  0  0
   24.3146  -21.7906   -9.6180 C   0  0  0  0  0  0  0  0  0  0  0  0
   24.8493  -21.1206  -10.6988 C   0  0  0  0  0  0  0  0  0  0  0  0
   25.6190  -19.9957  -10.5519 C   0  0  0  0  0  0  0  0  0  0  0  0
   26.7224  -21.6739  -12.7456 C   0  0  0  0  0  0  0  0  0  0  0  0
   27.4755  -22.1613  -11.6940 O   0  0  0  0  0  0  0  0  0  0  0  0
   25.7364  -22.3278  -13.1357 O   0  0  0  0  0  0  0  0  0  0  0  0
  2  1  1  0
  3  2  1  0
  4  3  1  0
  5  4  1  0
  5  6  1  6
  7  8  2  0
  7  5  1  0
 10  9  1  0
 11 10  1  0
 11 12  1  0
 13 12  1  6
 13 14  1  0
 14  7  1  0
 15 17  1  0
 15 13  1  0
 16 15  2  0
 18 17  1  0
 18 29  1  0
 19 20  1  0
 18 19  1  6
 20 28  1  0
 21 20  2  0
 21 22  1  0
 22 23  1  0
 23 24  1  0
 24 25  2  0
 26 25  1  0
 27 26  2  0
 28 23  2  0
 28 27  1  0
 29 30  1  0
 31 29  2  0
M  END
$$$$
