MMW.pdb
     RDKit          3D

 31 32  0  0  1  0  0  0  0  0999 V2000
   27.5425  -18.1989   -6.5662 C   0  0  0  0  0  0  0  0  0  0  0  0
   27.6982  -19.9563   -6.9144 S   0  0  0  0  0  0  0  0  0  0  0  0
   28.5844  -20.2969   -8.4501 C   0  0  0  0  0  0  0  0  0  0  0  0
   27.7742  -19.8314   -9.6309 C   0  0  0  0  0  0  0  0  0  0  0  0
   26.8352  -20.9053  -10.1009 C   0  0  2  0  0  0  0  0  0  0  0  0
   27.5417  -22.1013  -10.5036 N   0  0  0  0  0  0  0  0  0  0  0  0
   25.9894  -20.4356  -11.2586 C   0  0  0  0  0  0  0  0  0  0  0  0
   26.1080  -19.2604  -11.6697 O   0  0  0  0  0  0  0  0  0  0  0  0
   25.3023  -26.0216  -15.2692 C   0  0  0  0  0  0  0  0  0  0  0  0
   25.3105  -24.2304  -15.5158 S   0  0  0  0  0  0  0  0  0  0  0  0
   24.8369  -23.3800  -13.9838 C   0  0  0  0  0  0  0  0  0  0  0  0
   24.6030  -21.9091  -14.2236 C   0  0  0  0  0  0  0  0  0  0  0  0
   24.2328  -21.1479  -12.9830 C   0  0  2  0  0  0  0  0  0  0  0  0
   25.0864  -21.3242  -11.8538 N   0  0  0  0  0  0  0  0  0  0  0  0
   22.8082  -21.1297  -12.6507 C   0  0  0  0  0  0  0  0  0  0  0  0
   22.3093  -22.1122  -11.9873 O   0  0  0  0  0  0  0  0  0  0  0  0
   21.9150  -20.0889  -13.0115 N   0  0  0  0  0  0  0  0  0  0  0  0
   20.5897  -20.2907  -13.5528 C   0  0  1  0  0  0  0  0  0  0  0  0
   20.3139  -19.4465  -14.7460 C   0  0  0  0  0  0  0  0  0  0  0  0
   20.7516  -18.0436  -14.5900 C   0  0  0  0  0  0  0  0  0  0  0  0
   21.9644  -17.5030  -14.9559 C   0  0  0  0  0  0  0  0  0  0  0  0
   21.9655  -16.2107  -14.6486 N   0  0  0  0  0  0  0  0  0  0  0  0
   20.8086  -15.8399  -14.0886 C   0  0  0  0  0  0  0  0  0  0  0  0
   20.3431  -14.6366  -13.6116 C   0  0  0  0  0  0  0  0  0  0  0  0
   19.0740  -14.5356  -13.0693 C   0  0  0  0  0  0  0  0  0  0  0  0
   18.3000  -15.6762  -13.0251 C   0  0  0  0  0  0  0  0  0  0  0  0
   18.7766  -16.8779  -13.5063 C   0  0  0  0  0  0  0  0  0  0  0  0
   20.0300  -17.0015  -14.0477 C   0  0  0  0  0  0  0  0  0  0  0  0
   20.2109  -21.7028  -13.7210 C   0  0  0  0  0  0  0  0  0  0  0  0
   19.0943  -22.2226  -13.0937 O   0  0  0  0  0  0  0  0  0  0  0  0
   20.9023  -22.4501  -14.4390 O   0  0  0  0  0  0  0  0  0  0  0  0
  2  1  1  0
  3  2  1  0
  4  3  1  0
  5  4  1  0
  5  6  1  6
  7  8  2  0
  7  5  1  0
 10  9  1  0
 11 10  1  0
 11 12  1  0
 13 12  1  6
 13 14  1  0
 14  7  1  0
 15 17  1  0
 15 13  1  0
 16 15  2  0
 18 17  1  0
 18 29  1  0
 19 20  1  0
 18 19  1  6
 20 28  1  0
 21 20  2  0
 21 22  1  0
 22 23  1  0
 23 24  1  0
 24 25  2  0
 26 25  1  0
 27 26  2  0
 28 23  2  0
 28 27  1  0
 29 30  1  0
 31 29  2  0
M  END
$$$$
