MMW.pdb
     RDKit          3D

 31 32  0  0  1  0  0  0  0  0999 V2000
  -25.4373    1.0575  -23.3830 C   0  0  0  0  0  0  0  0  0  0  0  0
  -26.6102   -0.1474  -24.0204 S   0  0  0  0  0  0  0  0  0  0  0  0
  -27.1621    0.2227  -25.6991 C   0  0  0  0  0  0  0  0  0  0  0  0
  -27.8300    1.5716  -25.7402 C   0  0  0  0  0  0  0  0  0  0  0  0
  -26.9356    2.6000  -26.3714 C   0  0  2  0  0  0  0  0  0  0  0  0
  -27.5289    3.1753  -27.5583 N   0  0  0  0  0  0  0  0  0  0  0  0
  -25.5937    2.0174  -26.7405 C   0  0  0  0  0  0  0  0  0  0  0  0
  -24.8310    2.6600  -27.4952 O   0  0  0  0  0  0  0  0  0  0  0  0
  -24.1102    1.0712  -27.9200 C   0  0  0  0  0  0  0  0  0  0  0  0
  -23.7390   -0.5429  -28.6452 S   0  0  0  0  0  0  0  0  0  0  0  0
  -24.8295   -1.8147  -27.9468 C   0  0  0  0  0  0  0  0  0  0  0  0
  -26.1182   -1.2144  -27.4422 C   0  0  0  0  0  0  0  0  0  0  0  0
  -25.9648   -0.4504  -26.1583 C   0  0  2  0  0  0  0  0  0  0  0  0
  -25.2248    0.7671  -26.2308 N   0  0  0  0  0  0  0  0  0  0  0  0
  -25.6667   -1.2542  -24.9729 C   0  0  0  0  0  0  0  0  0  0  0  0
  -24.6008   -1.0013  -24.2988 O   0  0  0  0  0  0  0  0  0  0  0  0
  -26.4807   -2.3145  -24.4990 N   0  0  0  0  0  0  0  0  0  0  0  0
  -25.9821   -3.5312  -23.8980 C   0  0  1  0  0  0  0  0  0  0  0  0
  -25.6667   -3.3792  -22.4524 C   0  0  0  0  0  0  0  0  0  0  0  0
  -26.5840   -4.1264  -21.5668 C   0  0  0  0  0  0  0  0  0  0  0  0
  -26.4976   -5.4525  -21.2049 C   0  0  0  0  0  0  0  0  0  0  0  0
  -27.5115   -5.7411  -20.3967 N   0  0  0  0  0  0  0  0  0  0  0  0
  -28.2896   -4.6733  -20.1874 C   0  0  0  0  0  0  0  0  0  0  0  0
  -29.4306   -4.4781  -19.4443 C   0  0  0  0  0  0  0  0  0  0  0  0
  -30.0448   -3.2385  -19.4063 C   0  0  0  0  0  0  0  0  0  0  0  0
  -29.4755   -2.2152  -20.1348 C   0  0  0  0  0  0  0  0  0  0  0  0
  -28.3310   -2.4219  -20.8766 C   0  0  0  0  0  0  0  0  0  0  0  0
  -27.7056   -3.6407  -20.9290 C   0  0  0  0  0  0  0  0  0  0  0  0
  -26.7724   -4.7321  -24.2127 C   0  0  0  0  0  0  0  0  0  0  0  0
  -26.3464   -5.6383  -25.1656 O   0  0  0  0  0  0  0  0  0  0  0  0
  -27.8450   -4.9441  -23.6154 O   0  0  0  0  0  0  0  0  0  0  0  0
  2  1  1  0
  3  2  1  0
  4  3  1  0
  5  4  1  0
  5  6  1  6
  7  8  2  0
  7  5  1  0
 10  9  1  0
 11 10  1  0
 11 12  1  0
 13 12  1  6
 13 14  1  0
 14  7  1  0
 15 17  1  0
 15 13  1  0
 16 15  2  0
 18 17  1  0
 18 29  1  0
 19 20  1  0
 18 19  1  1
 20 28  1  0
 21 20  2  0
 21 22  1  0
 22 23  1  0
 23 24  1  0
 24 25  2  0
 26 25  1  0
 27 26  2  0
 28 23  2  0
 28 27  1  0
 29 30  1  0
 31 29  2  0
M  END
$$$$
