MMW.pdb
     RDKit          3D

 31 32  0  0  1  0  0  0  0  0999 V2000
   27.9457  -20.5756  -20.9988 C   0  0  0  0  0  0  0  0  0  0  0  0
   28.6734  -18.9487  -20.7589 S   0  0  0  0  0  0  0  0  0  0  0  0
   29.3781  -18.7253  -19.1118 C   0  0  0  0  0  0  0  0  0  0  0  0
   28.3187  -18.9319  -18.0618 C   0  0  0  0  0  0  0  0  0  0  0  0
   28.9313  -19.2766  -16.7345 C   0  0  2  0  0  0  0  0  0  0  0  0
   29.0709  -20.7055  -16.5596 N   0  0  0  0  0  0  0  0  0  0  0  0
   28.1162  -18.7309  -15.5882 C   0  0  0  0  0  0  0  0  0  0  0  0
   27.6540  -17.5709  -15.6598 O   0  0  0  0  0  0  0  0  0  0  0  0
   23.4507  -21.5352  -16.4366 C   0  0  0  0  0  0  0  0  0  0  0  0
   22.8360  -20.8331  -14.8880 S   0  0  0  0  0  0  0  0  0  0  0  0
   24.2215  -20.3692  -13.8111 C   0  0  0  0  0  0  0  0  0  0  0  0
   25.4742  -20.1108  -14.6109 C   0  0  0  0  0  0  0  0  0  0  0  0
   26.6790  -19.8149  -13.7645 C   0  0  2  0  0  0  0  0  0  0  0  0
   27.8901  -19.5332  -14.4637 N   0  0  0  0  0  0  0  0  0  0  0  0
   26.8581  -20.6728  -12.5930 C   0  0  0  0  0  0  0  0  0  0  0  0
   27.3283  -21.8591  -12.7538 O   0  0  0  0  0  0  0  0  0  0  0  0
   26.5464  -20.2883  -11.2639 N   0  0  0  0  0  0  0  0  0  0  0  0
   26.5909  -21.1699  -10.1189 C   0  0  1  0  0  0  0  0  0  0  0  0
   27.8652  -21.0715   -9.3581 C   0  0  0  0  0  0  0  0  0  0  0  0
   27.7308  -20.3552   -8.0725 C   0  0  0  0  0  0  0  0  0  0  0  0
   26.6463  -19.6294   -7.6318 C   0  0  0  0  0  0  0  0  0  0  0  0
   26.9198  -19.1432   -6.4263 N   0  0  0  0  0  0  0  0  0  0  0  0
   28.1425  -19.5024   -6.0196 C   0  0  0  0  0  0  0  0  0  0  0  0
   28.8590  -19.2502   -4.8727 C   0  0  0  0  0  0  0  0  0  0  0  0
   30.1359  -19.7588   -4.7120 C   0  0  0  0  0  0  0  0  0  0  0  0
   30.6590  -20.5210   -5.7354 C   0  0  0  0  0  0  0  0  0  0  0  0
   29.9319  -20.7678   -6.8813 C   0  0  0  0  0  0  0  0  0  0  0  0
   28.6656  -20.2746   -7.0624 C   0  0  0  0  0  0  0  0  0  0  0  0
   25.3869  -21.1285   -9.2735 C   0  0  0  0  0  0  0  0  0  0  0  0
   24.4201  -20.1572   -9.4541 O   0  0  0  0  0  0  0  0  0  0  0  0
   25.2277  -21.9791   -8.3773 O   0  0  0  0  0  0  0  0  0  0  0  0
  2  1  1  0
  3  2  1  0
  4  3  1  0
  5  4  1  0
  5  6  1  1
  7  8  2  0
  7  5  1  0
 10  9  1  0
 11 10  1  0
 11 12  1  0
 13 12  1  6
 13 14  1  0
 14  7  1  0
 15 17  1  0
 15 13  1  0
 16 15  2  0
 18 17  1  0
 18 29  1  0
 19 20  1  0
 18 19  1  1
 20 28  1  0
 21 20  2  0
 21 22  1  0
 22 23  1  0
 23 24  1  0
 24 25  2  0
 26 25  1  0
 27 26  2  0
 28 23  2  0
 28 27  1  0
 29 30  1  0
 31 29  2  0
M  END
$$$$
