MMW.pdb
     RDKit          3D

 31 32  0  0  1  0  0  0  0  0999 V2000
   26.9693  -26.8343  -16.0906 C   0  0  0  0  0  0  0  0  0  0  0  0
   25.8623  -26.3391  -17.4186 S   0  0  0  0  0  0  0  0  0  0  0  0
   25.9058  -24.5651  -17.7506 C   0  0  0  0  0  0  0  0  0  0  0  0
   26.7795  -23.8693  -16.7406 C   0  0  0  0  0  0  0  0  0  0  0  0
   26.7343  -22.3789  -16.9204 C   0  0  2  0  0  0  0  0  0  0  0  0
   27.4218  -21.9594  -18.1217 N   0  0  0  0  0  0  0  0  0  0  0  0
   27.3440  -21.6588  -15.7431 C   0  0  0  0  0  0  0  0  0  0  0  0
   28.5825  -21.6971  -15.5732 O   0  0  0  0  0  0  0  0  0  0  0  0
   26.0908  -15.8306  -14.4390 C   0  0  0  0  0  0  0  0  0  0  0  0
   27.7072  -16.4126  -15.0024 S   0  0  0  0  0  0  0  0  0  0  0  0
   27.8262  -18.2151  -14.8257 C   0  0  0  0  0  0  0  0  0  0  0  0
   26.8444  -18.7313  -13.8033 C   0  0  0  0  0  0  0  0  0  0  0  0
   26.8347  -20.2280  -13.6792 C   0  0  2  0  0  0  0  0  0  0  0  0
   26.5125  -20.9590  -14.8610 N   0  0  0  0  0  0  0  0  0  0  0  0
   26.2137  -20.7604  -12.4663 C   0  0  0  0  0  0  0  0  0  0  0  0
   24.9654  -21.0696  -12.4881 O   0  0  0  0  0  0  0  0  0  0  0  0
   26.8974  -20.9669  -11.2410 N   0  0  0  0  0  0  0  0  0  0  0  0
   26.2581  -21.2822   -9.9833 C   0  0  1  0  0  0  0  0  0  0  0  0
   27.2271  -21.6209   -8.9069 C   0  0  0  0  0  0  0  0  0  0  0  0
   27.4436  -20.5232   -7.9414 C   0  0  0  0  0  0  0  0  0  0  0  0
   26.9571  -19.2370   -8.0184 C   0  0  0  0  0  0  0  0  0  0  0  0
   27.3754  -18.5583   -6.9560 N   0  0  0  0  0  0  0  0  0  0  0  0
   28.1267  -19.3203   -6.1533 C   0  0  0  0  0  0  0  0  0  0  0  0
   28.7714  -19.0740   -4.9633 C   0  0  0  0  0  0  0  0  0  0  0  0
   29.4972  -20.0703   -4.3343 C   0  0  0  0  0  0  0  0  0  0  0  0
   29.5498  -21.3084   -4.9395 C   0  0  0  0  0  0  0  0  0  0  0  0
   28.8996  -21.5447   -6.1328 C   0  0  0  0  0  0  0  0  0  0  0  0
   28.1749  -20.5733   -6.7737 C   0  0  0  0  0  0  0  0  0  0  0  0
   25.2211  -20.3225   -9.5717 C   0  0  0  0  0  0  0  0  0  0  0  0
   24.2401  -20.6760   -8.6643 O   0  0  0  0  0  0  0  0  0  0  0  0
   25.2193  -19.1696  -10.0437 O   0  0  0  0  0  0  0  0  0  0  0  0
  2  1  1  0
  3  2  1  0
  4  3  1  0
  5  4  1  0
  5  6  1  6
  7  8  2  0
  7  5  1  0
 10  9  1  0
 11 10  1  0
 11 12  1  0
 13 12  1  6
 13 14  1  0
 14  7  1  0
 15 17  1  0
 15 13  1  0
 16 15  2  0
 18 17  1  0
 18 29  1  0
 19 20  1  0
 18 19  1  1
 20 28  1  0
 21 20  2  0
 21 22  1  0
 22 23  1  0
 23 24  1  0
 24 25  2  0
 26 25  1  0
 27 26  2  0
 28 23  2  0
 28 27  1  0
 29 30  1  0
 31 29  2  0
M  END
$$$$
