GDY.pdb
     RDKit          3D

 25 25  0  0  1  0  0  0  0  0999 V2000
    8.1484  -19.6494   20.2423 N   0  0  0  0  0  0  0  0  0  0  0  0
    9.0811  -20.3851   21.0387 C   0  0  0  0  0  0  0  0  0  0  0  0
   10.1768  -19.4934   21.5331 C   0  0  0  0  0  0  0  0  0  0  0  0
   11.1002  -19.9074   22.2752 O   0  0  0  0  0  0  0  0  0  0  0  0
   10.2382  -18.1159   21.1904 N   0  0  0  0  0  0  0  0  0  0  0  0
   11.1871  -17.1822   21.6454 C   0  0  1  0  0  0  0  0  0  0  0  0
   11.6438  -16.1329   20.7087 C   0  0  0  0  0  0  0  0  0  0  0  0
   12.5575  -16.6667   19.6450 C   0  0  0  0  0  0  0  0  0  0  0  0
   13.2441  -17.7118   19.8096 O   0  0  0  0  0  0  0  0  0  0  0  0
   10.7238  -16.5013   22.8906 C   0  0  0  0  0  0  0  0  0  0  0  0
   11.4717  -15.6326   23.4512 O   0  0  0  0  0  0  0  0  0  0  0  0
   12.6945  -16.0334   18.4174 O   0  0  0  0  0  0  0  0  0  0  0  0
    6.2729  -10.5810   26.7481 O   0  0  0  0  0  0  0  0  0  0  0  0
    6.6295  -11.7929   26.1556 C   0  0  0  0  0  0  0  0  0  0  0  0
    6.2312  -12.9699   26.7486 C   0  0  0  0  0  0  0  0  0  0  0  0
    6.5852  -14.1638   26.1605 C   0  0  0  0  0  0  0  0  0  0  0  0
    7.3227  -14.2380   25.0010 C   0  0  0  0  0  0  0  0  0  0  0  0
    7.6583  -15.5503   24.4431 C   0  0  0  0  0  0  0  0  0  0  0  0
    9.0580  -16.0167   24.7134 C   0  0  2  0  0  0  0  0  0  0  0  0
    9.4860  -16.7525   23.5129 N   0  0  0  0  0  0  0  0  0  0  0  0
    9.1084  -16.9732   25.8369 C   0  0  0  0  0  0  0  0  0  0  0  0
    9.1562  -18.3485   25.5950 O   0  0  0  0  0  0  0  0  0  0  0  0
    7.7187  -13.0590   24.4119 C   0  0  0  0  0  0  0  0  0  0  0  0
    7.3720  -11.8568   24.9886 C   0  0  0  0  0  0  0  0  0  0  0  0
    9.1109  -16.6129   27.0481 O   0  0  0  0  0  0  0  0  0  0  0  0
  1  2  1  0
  3  5  1  0
  3  2  1  0
  4  3  2  0
  6  5  1  0
  6 10  1  0
  6  7  1  6
  8  7  1  0
  8  9  2  0
 10 20  1  0
 11 10  2  0
 12  8  1  0
 13 14  1  0
 14 24  2  0
 14 15  1  0
 15 16  2  0
 16 17  1  0
 17 18  1  0
 19 18  1  6
 19 21  1  0
 20 19  1  0
 21 22  1  0
 23 17  2  0
 24 23  1  0
 25 21  2  0
M  END
$$$$
