GDY.pdb
     RDKit          3D

 25 25  0  0  1  0  0  0  0  0999 V2000
    6.9779  -13.5441   19.1912 N   0  0  0  0  0  0  0  0  0  0  0  0
    8.3182  -13.5632   19.6898 C   0  0  0  0  0  0  0  0  0  0  0  0
    8.5462  -14.7637   20.5540 C   0  0  0  0  0  0  0  0  0  0  0  0
    7.6080  -15.3747   21.1209 O   0  0  0  0  0  0  0  0  0  0  0  0
    9.8463  -15.2875   20.7865 N   0  0  0  0  0  0  0  0  0  0  0  0
   10.1764  -16.3611   21.6338 C   0  0  1  0  0  0  0  0  0  0  0  0
   11.4343  -17.0954   21.3780 C   0  0  0  0  0  0  0  0  0  0  0  0
   11.4460  -17.7710   20.0384 C   0  0  0  0  0  0  0  0  0  0  0  0
   11.9504  -17.2310   19.0163 O   0  0  0  0  0  0  0  0  0  0  0  0
   10.1869  -15.9382   23.0655 C   0  0  0  0  0  0  0  0  0  0  0  0
   10.9510  -14.9864   23.4375 O   0  0  0  0  0  0  0  0  0  0  0  0
   10.8985  -19.0332   19.8543 O   0  0  0  0  0  0  0  0  0  0  0  0
    6.5173  -10.4321   26.7379 O   0  0  0  0  0  0  0  0  0  0  0  0
    6.8460  -11.7646   26.4865 C   0  0  0  0  0  0  0  0  0  0  0  0
    7.8407  -12.3596   27.2296 C   0  0  0  0  0  0  0  0  0  0  0  0
    8.1621  -13.6749   26.9784 C   0  0  0  0  0  0  0  0  0  0  0  0
    7.5330  -14.4287   26.0140 C   0  0  0  0  0  0  0  0  0  0  0  0
    7.9381  -15.8216   25.8099 C   0  0  0  0  0  0  0  0  0  0  0  0
    9.3805  -16.0173   25.4479 C   0  0  2  0  0  0  0  0  0  0  0  0
    9.3932  -16.5281   24.0678 N   0  0  0  0  0  0  0  0  0  0  0  0
   10.0200  -17.0497   26.2876 C   0  0  0  0  0  0  0  0  0  0  0  0
   10.4511  -18.2537   25.7248 O   0  0  0  0  0  0  0  0  0  0  0  0
    6.5394  -13.8299   25.2737 C   0  0  0  0  0  0  0  0  0  0  0  0
    6.2069  -12.5145   25.5137 C   0  0  0  0  0  0  0  0  0  0  0  0
   10.2086  -16.9077   27.5290 O   0  0  0  0  0  0  0  0  0  0  0  0
  1  2  1  0
  3  5  1  0
  3  2  1  0
  4  3  2  0
  6  5  1  0
  6 10  1  0
  6  7  1  6
  8  7  1  0
  8  9  2  0
 10 20  1  0
 11 10  2  0
 12  8  1  0
 13 14  1  0
 14 24  2  0
 14 15  1  0
 15 16  2  0
 16 17  1  0
 17 18  1  0
 19 18  1  1
 19 21  1  0
 20 19  1  0
 21 22  1  0
 23 17  2  0
 24 23  1  0
 25 21  2  0
M  END
$$$$
