GDY.pdb
     RDKit          3D

 25 25  0  0  1  0  0  0  0  0999 V2000
    7.8474  -20.8944   21.8834 N   0  0  0  0  0  0  0  0  0  0  0  0
    7.3446  -19.5796   22.1365 C   0  0  0  0  0  0  0  0  0  0  0  0
    8.4494  -18.5709   22.0913 C   0  0  0  0  0  0  0  0  0  0  0  0
    9.6544  -18.8957   21.9596 O   0  0  0  0  0  0  0  0  0  0  0  0
    8.1996  -17.1761   22.1956 N   0  0  0  0  0  0  0  0  0  0  0  0
    9.1659  -16.1583   22.2948 C   0  0  1  0  0  0  0  0  0  0  0  0
    8.8668  -14.8452   21.6841 C   0  0  0  0  0  0  0  0  0  0  0  0
    8.7525  -14.9164   20.1897 C   0  0  0  0  0  0  0  0  0  0  0  0
    9.3799  -15.7709   19.5064 O   0  0  0  0  0  0  0  0  0  0  0  0
    9.5524  -15.9146   23.7161 C   0  0  0  0  0  0  0  0  0  0  0  0
   10.5041  -15.1073   23.9823 O   0  0  0  0  0  0  0  0  0  0  0  0
    7.9450  -14.0396   19.4783 O   0  0  0  0  0  0  0  0  0  0  0  0
    6.5365  -10.6032   26.3944 O   0  0  0  0  0  0  0  0  0  0  0  0
    6.9303  -11.9349   26.5300 C   0  0  0  0  0  0  0  0  0  0  0  0
    8.0125  -12.2343   27.3267 C   0  0  0  0  0  0  0  0  0  0  0  0
    8.3979  -13.5499   27.4579 C   0  0  0  0  0  0  0  0  0  0  0  0
    7.7495  -14.5869   26.8270 C   0  0  0  0  0  0  0  0  0  0  0  0
    8.2267  -15.9585   27.0189 C   0  0  0  0  0  0  0  0  0  0  0  0
    9.4201  -16.3375   26.1931 C   0  0  2  0  0  0  0  0  0  0  0  0
    8.9273  -16.5265   24.8194 N   0  0  0  0  0  0  0  0  0  0  0  0
    9.9921  -17.6302   26.6195 C   0  0  0  0  0  0  0  0  0  0  0  0
    9.9644  -18.7341   25.7634 O   0  0  0  0  0  0  0  0  0  0  0  0
    6.6684  -14.2829   26.0316 C   0  0  0  0  0  0  0  0  0  0  0  0
    6.2710  -12.9712   25.8908 C   0  0  0  0  0  0  0  0  0  0  0  0
   10.5244  -17.8074   27.7518 O   0  0  0  0  0  0  0  0  0  0  0  0
  1  2  1  0
  3  5  1  0
  3  2  1  0
  4  3  2  0
  6  5  1  0
  6 10  1  0
  6  7  1  1
  8  7  1  0
  8  9  2  0
 10 20  1  0
 11 10  2  0
 12  8  1  0
 13 14  1  0
 14 24  2  0
 14 15  1  0
 15 16  2  0
 16 17  1  0
 17 18  1  0
 19 18  1  1
 19 21  1  0
 20 19  1  0
 21 22  1  0
 23 17  2  0
 24 23  1  0
 25 21  2  0
M  END
$$$$
