GDY.pdb
     RDKit          3D

 25 25  0  0  1  0  0  0  0  0999 V2000
    5.7305  -20.3750   22.0399 N   0  0  0  0  0  0  0  0  0  0  0  0
    5.4002  -18.9935   22.2067 C   0  0  0  0  0  0  0  0  0  0  0  0
    6.4991  -18.1186   21.6901 C   0  0  0  0  0  0  0  0  0  0  0  0
    7.6090  -18.5754   21.3234 O   0  0  0  0  0  0  0  0  0  0  0  0
    6.3518  -16.7095   21.5827 N   0  0  0  0  0  0  0  0  0  0  0  0
    7.3213  -15.7997   21.1228 C   0  0  1  0  0  0  0  0  0  0  0  0
    6.8629  -14.5132   20.5555 C   0  0  0  0  0  0  0  0  0  0  0  0
    7.9395  -13.8052   19.7868 C   0  0  0  0  0  0  0  0  0  0  0  0
    8.9411  -14.4110   19.3174 O   0  0  0  0  0  0  0  0  0  0  0  0
    8.3217  -15.4897   22.1867 C   0  0  0  0  0  0  0  0  0  0  0  0
    9.3670  -14.8186   21.8946 O   0  0  0  0  0  0  0  0  0  0  0  0
    7.8876  -12.4381   19.5517 O   0  0  0  0  0  0  0  0  0  0  0  0
    5.6740  -10.6879   26.8358 O   0  0  0  0  0  0  0  0  0  0  0  0
    6.3971  -11.8536   26.5807 C   0  0  0  0  0  0  0  0  0  0  0  0
    5.8276  -13.0718   26.8760 C   0  0  0  0  0  0  0  0  0  0  0  0
    6.5446  -14.2200   26.6227 C   0  0  0  0  0  0  0  0  0  0  0  0
    7.8114  -14.2087   26.0850 C   0  0  0  0  0  0  0  0  0  0  0  0
    8.5056  -15.4770   25.8493 C   0  0  0  0  0  0  0  0  0  0  0  0
    9.2218  -15.5748   24.5351 C   0  0  2  0  0  0  0  0  0  0  0  0
    8.1958  -15.8940   23.5295 N   0  0  0  0  0  0  0  0  0  0  0  0
   10.1899  -16.6895   24.5213 C   0  0  0  0  0  0  0  0  0  0  0  0
   11.3877  -16.5965   25.2345 O   0  0  0  0  0  0  0  0  0  0  0  0
    8.3767  -12.9889   25.7915 C   0  0  0  0  0  0  0  0  0  0  0  0
    7.6714  -11.8315   26.0394 C   0  0  0  0  0  0  0  0  0  0  0  0
    9.9961  -17.7616   23.8811 O   0  0  0  0  0  0  0  0  0  0  0  0
  1  2  1  0
  3  5  1  0
  3  2  1  0
  4  3  2  0
  6  5  1  0
  6 10  1  0
  6  7  1  1
  8  7  1  0
  8  9  2  0
 10 20  1  0
 11 10  2  0
 12  8  1  0
 13 14  1  0
 14 24  2  0
 14 15  1  0
 15 16  2  0
 16 17  1  0
 17 18  1  0
 19 18  1  1
 19 21  1  0
 20 19  1  0
 21 22  1  0
 23 17  2  0
 24 23  1  0
 25 21  2  0
M  END
$$$$
