GDY.pdb
     RDKit          3D

 25 25  0  0  1  0  0  0  0  0999 V2000
    7.2023  -17.8585   19.0808 N   0  0  0  0  0  0  0  0  0  0  0  0
    8.3961  -17.0776   19.1824 C   0  0  0  0  0  0  0  0  0  0  0  0
    9.1724  -17.4510   20.4064 C   0  0  0  0  0  0  0  0  0  0  0  0
    8.6910  -18.1664   21.3181 O   0  0  0  0  0  0  0  0  0  0  0  0
   10.5091  -17.0155   20.6116 N   0  0  0  0  0  0  0  0  0  0  0  0
   11.2734  -17.1834   21.7808 C   0  0  1  0  0  0  0  0  0  0  0  0
   12.7455  -17.0883   21.6762 C   0  0  0  0  0  0  0  0  0  0  0  0
   13.3238  -18.1021   20.7334 C   0  0  0  0  0  0  0  0  0  0  0  0
   12.9749  -19.3140   20.7510 O   0  0  0  0  0  0  0  0  0  0  0  0
   10.8379  -16.2406   22.8533 C   0  0  0  0  0  0  0  0  0  0  0  0
   11.2826  -15.0446   22.8617 O   0  0  0  0  0  0  0  0  0  0  0  0
   14.2787  -17.7556   19.7873 O   0  0  0  0  0  0  0  0  0  0  0  0
    6.0851  -10.9968   27.7603 O   0  0  0  0  0  0  0  0  0  0  0  0
    6.6103  -11.9865   26.9287 C   0  0  0  0  0  0  0  0  0  0  0  0
    7.7773  -11.7340   26.2432 C   0  0  0  0  0  0  0  0  0  0  0  0
    8.2922  -12.7135   25.4235 C   0  0  0  0  0  0  0  0  0  0  0  0
    7.6929  -13.9408   25.2551 C   0  0  0  0  0  0  0  0  0  0  0  0
    8.3066  -14.9260   24.3614 C   0  0  0  0  0  0  0  0  0  0  0  0
    9.5292  -15.6032   24.9059 C   0  0  2  0  0  0  0  0  0  0  0  0
    9.9461  -16.5811   23.8882 N   0  0  0  0  0  0  0  0  0  0  0  0
    9.2299  -16.3693   26.1320 C   0  0  0  0  0  0  0  0  0  0  0  0
    9.4928  -15.8227   27.3908 O   0  0  0  0  0  0  0  0  0  0  0  0
    6.5266  -14.1887   25.9421 C   0  0  0  0  0  0  0  0  0  0  0  0
    5.9994  -13.2184   26.7660 C   0  0  0  0  0  0  0  0  0  0  0  0
    8.7329  -17.5310   26.1139 O   0  0  0  0  0  0  0  0  0  0  0  0
  1  2  1  0
  3  5  1  0
  3  2  1  0
  4  3  2  0
  6  5  1  0
  6 10  1  0
  6  7  1  6
  8  7  1  0
  8  9  2  0
 10 20  1  0
 11 10  2  0
 12  8  1  0
 13 14  1  0
 14 24  2  0
 14 15  1  0
 15 16  2  0
 16 17  1  0
 17 18  1  0
 19 18  1  6
 19 21  1  0
 20 19  1  0
 21 22  1  0
 23 17  2  0
 24 23  1  0
 25 21  2  0
M  END
$$$$
